#------------------------------------------------------------------------------
#$Date: 2021-09-06 14:20:33 +0300 (Mon, 06 Sep 2021) $
#$Revision: 268789 $
#$URL: file:///home/coder/svn-repositories/cod/cif/7/70/76/7707654.cif $
#------------------------------------------------------------------------------
#
# This file is available in the Crystallography Open Database (COD),
# http://www.crystallography.net/
#
# All data on this site have been placed in the public domain by the
# contributors.
#
data_7707654
loop_
_publ_author_name
'Khrustalev, Victor N.'
'Grishina, Maria M.'
'Matsulevich, Zhanna V.'
'Lukiyanova, Julia M.'
'Borisova, Galina N.'
'Osmanov, Vladimir K.'
'Novikov, Alexander S.'
'Kirichuk, Anatoly A.'
'Borisov, Alexander V.'
'Solari, Euro'
'Tskhovrebov, Alexander G.'
_publ_section_title
;
 Novel cationic 1,2,4-selenadiazoles: synthesis via addition of
 2-pyridylselenyl halides to unactivated nitriles, structures and
 four-center SeN contacts.
;
_journal_issue                   31
_journal_name_full
'Dalton transactions (Cambridge, England : 2003)'
_journal_page_first              10689
_journal_page_last               10691
_journal_paper_doi               10.1039/d1dt01322j
_journal_volume                  50
_journal_year                    2021
_chemical_formula_moiety         'C7 H7 N2 Se, Br'
_chemical_formula_sum            'C7 H7 Br N2 Se'
_chemical_formula_weight         278.02
_space_group_crystal_system      monoclinic
_space_group_IT_number           14
_space_group_name_Hall           '-P 2yn'
_space_group_name_H-M_alt        'P 1 21/n 1'
_atom_sites_solution_hydrogens   geom
_atom_sites_solution_primary     difmap
_atom_sites_solution_secondary   difmap
_audit_creation_method           SHELXL-2013
_audit_update_record
;
2021-03-14 deposited with the CCDC.	2021-06-09 downloaded from the CCDC.
;
_cell_angle_alpha                90
_cell_angle_beta                 98.099(2)
_cell_angle_gamma                90
_cell_formula_units_Z            4
_cell_length_a                   7.1030(5)
_cell_length_b                   9.6595(7)
_cell_length_c                   12.7813(9)
_cell_measurement_reflns_used    3662
_cell_measurement_temperature    120(2)
_cell_measurement_theta_max      31.80
_cell_measurement_theta_min      2.65
_cell_volume                     868.20(11)
_computing_cell_refinement       'SAINT (Bruker, 2001)'
_computing_data_collection       'APEX2 (Bruker, 2005)'
_computing_data_reduction        'SAINT (Bruker, 2001)'
_computing_molecular_graphics    'SHELXTL (Sheldrick, 2008)'
_computing_publication_material  'SHELXTL (Sheldrick, 2008)'
_computing_structure_refinement  'SHELXTL (Sheldrick, 2008)'
_computing_structure_solution    'SHELXTL (Sheldrick, 2008)'
_diffrn_ambient_temperature      120(2)
_diffrn_measured_fraction_theta_full 1.000
_diffrn_measured_fraction_theta_max 1.000
_diffrn_measurement_device_type  'Bruker APEX-II CCD'
_diffrn_measurement_method       '\f and \w scans'
_diffrn_radiation_type           MoK\a
_diffrn_radiation_wavelength     0.71073
_diffrn_reflns_av_R_equivalents  0.0477
_diffrn_reflns_av_unetI/netI     0.0424
_diffrn_reflns_Laue_measured_fraction_full 1.000
_diffrn_reflns_Laue_measured_fraction_max 1.000
_diffrn_reflns_limit_h_max       10
_diffrn_reflns_limit_h_min       -10
_diffrn_reflns_limit_k_max       14
_diffrn_reflns_limit_k_min       -14
_diffrn_reflns_limit_l_max       19
_diffrn_reflns_limit_l_min       -19
_diffrn_reflns_number            13339
_diffrn_reflns_point_group_measured_fraction_full 1.000
_diffrn_reflns_point_group_measured_fraction_max 1.000
_diffrn_reflns_theta_full        25.242
_diffrn_reflns_theta_max         32.603
_diffrn_reflns_theta_min         2.653
_exptl_absorpt_coefficient_mu    8.862
_exptl_absorpt_correction_T_max  0.242
_exptl_absorpt_correction_T_min  0.128
_exptl_absorpt_correction_type   multi-scan
_exptl_absorpt_process_details
; 
 SADABS 2016/2: Krause, L., Herbst-Irmer, R., Sheldrick G.M. & Stalke D., 
 J. Appl. Cryst. 48 (2015) 3-10. 
;
_exptl_crystal_colour            colourless
_exptl_crystal_density_diffrn    2.127
_exptl_crystal_description       prism
_exptl_crystal_F_000             528
_exptl_crystal_size_max          0.25
_exptl_crystal_size_mid          0.15
_exptl_crystal_size_min          0.15
_refine_diff_density_max         0.863
_refine_diff_density_min         -0.520
_refine_diff_density_rms         0.125
_refine_ls_extinction_method     none
_refine_ls_goodness_of_fit_ref   1.028
_refine_ls_hydrogen_treatment    constr
_refine_ls_matrix_type           full
_refine_ls_number_parameters     101
_refine_ls_number_reflns         3178
_refine_ls_number_restraints     0
_refine_ls_restrained_S_all      1.028
_refine_ls_R_factor_all          0.0421
_refine_ls_R_factor_gt           0.0301
_refine_ls_shift/su_max          0.000
_refine_ls_shift/su_mean         0.000
_refine_ls_structure_factor_coef Fsqd
_refine_ls_weighting_details
'w=1/[\s^2^(Fo^2^)+(0.0338P)^2^+0.1402P] where P=(Fo^2^+2Fc^2^)/3'
_refine_ls_weighting_scheme      calc
_refine_ls_wR_factor_gt          0.0706
_refine_ls_wR_factor_ref         0.0755
_reflns_Friedel_coverage         0.000
_reflns_number_gt                2587
_reflns_number_total             3178
_reflns_threshold_expression     'I > 2\s(I)'
_cod_data_source_file            d1dt01322j2.cif
_cod_data_source_block           4
_cod_depositor_comments
'Adding full bibliography for 7707653--7707655.cif.'
_cod_original_sg_symbol_H-M      'P 21/n'
_cod_database_code               7707654
_shelx_space_group_comment
; 
The symmetry employed for this shelxl refinement is uniquely defined 
by the following loop, which should always be used as a source of 
symmetry information in preference to the above space-group names. 
They are only intended as comments. 
;
_shelx_estimated_absorpt_t_min   0.215
_shelx_estimated_absorpt_t_max   0.350
_shelxl_version_number           2013-4
_shelx_res_file
; 
TITL 4 in P2(1)/n 
CELL 0.71073   7.1030   9.6595  12.7813  90.000  98.099  90.000 
ZERR    4.00   0.0005   0.0007   0.0009   0.000   0.002   0.000 
LATT  1 
SYMM 0.5-X, 0.5+Y, 0.5-Z 
SFAC C H N SE BR 
UNIT 28 28 8 4 4 
TEMP -153.0 
SIZE 0.15 0.15 0.25 
  
L.S. 12 
BOND $H 
ACTA 
CONF 
  
WGHT    0.033800    0.140200 
FVAR       0.08034 
BR1   5    0.416556    0.816866    0.353894    11.00000    0.02699    0.02357 = 
         0.02895    0.00171    0.00426   -0.00213 
SE1   4    0.208904    0.547198    0.418197    11.00000    0.02060    0.02105 = 
         0.02553    0.00029    0.00732    0.00079 
N1    3    0.356330    0.299845    0.386902    11.00000    0.02165    0.02128 = 
         0.02475   -0.00075    0.00433    0.00006 
N2    3    0.100479    0.385513    0.459740    11.00000    0.02251    0.02472 = 
         0.02814    0.00322    0.00877   -0.00188 
C1    1    0.390575    0.436532    0.367283    11.00000    0.02281    0.02351 = 
         0.02074    0.00170    0.00441    0.00106 
C2    1    0.547027    0.471997    0.317826    11.00000    0.02588    0.02699 = 
         0.02650   -0.00073    0.01055    0.00073 
AFIX  43 
H2    2    0.573324    0.566179    0.304110    11.00000   -1.20000 
AFIX   0 
C3    1    0.663580    0.367311    0.289011    11.00000    0.02484    0.03536 = 
         0.02980    0.00001    0.01062    0.00098 
AFIX  43 
H3    2    0.770617    0.389391    0.255225    11.00000   -1.20000 
AFIX   0 
C4    1    0.622818    0.229704    0.309880    11.00000    0.03215    0.03034 = 
         0.03525   -0.00369    0.01058    0.00824 
AFIX  43 
H4    2    0.702274    0.158305    0.289610    11.00000   -1.20000 
AFIX   0 
C5    1    0.470662    0.196101    0.358932    11.00000    0.03018    0.02334 = 
         0.03063   -0.00155    0.00510    0.00264 
AFIX  43 
H5    2    0.444376    0.102168    0.373479    11.00000   -1.20000 
AFIX   0 
C6    1    0.192340    0.277713    0.436918    11.00000    0.02099    0.02291 = 
         0.02421    0.00103    0.00346   -0.00121 
C7    1    0.134673    0.134694    0.460231    11.00000    0.02991    0.02414 = 
         0.03733    0.00207    0.00602   -0.00415 
AFIX 137 
H7A   2    0.018109    0.137596    0.493071    11.00000   -1.50000 
H7B   2    0.236263    0.090465    0.508651    11.00000   -1.50000 
H7C   2    0.111540    0.081516    0.394374    11.00000   -1.50000 
  
AFIX   0 
HKLF 4 
  
REM  4 in P2(1)/n 
REM R1 =  0.0301 for    2587 Fo > 4sig(Fo)  and  0.0421 for all    3178 data 
REM    101 parameters refined using      0 restraints 
  
END 
  
WGHT      0.0338      0.1402 
  
REM Highest difference peak  0.863,  deepest hole -0.520,  1-sigma level  0.125 
Q1    1   0.2720  0.5409  0.3755  11.00000  0.05    0.86 
Q2    1   0.3557  0.8174  0.3971  11.00000  0.05    0.85 
Q3    1   0.1476  0.5512  0.4555  11.00000  0.05    0.76 
Q4    1   0.4737  0.8186  0.3021  11.00000  0.05    0.71 
Q5    1   0.3025  0.5538  0.4576  11.00000  0.05    0.62 
Q6    1   0.1158  0.5400  0.3837  11.00000  0.05    0.61 
Q7    1   0.3217  0.7964  0.3194  11.00000  0.05    0.59 
Q8    1   0.5129  0.8056  0.3925  11.00000  0.05    0.55 
Q9    1   0.1203  0.3285  0.4188  11.00000  0.05    0.54 
Q10   1   0.6020  0.4168  0.3010  11.00000  0.05    0.49 
Q11   1   0.6266  0.3035  0.2990  11.00000  0.05    0.49 
Q12   1   0.1502  0.5931  0.3662  11.00000  0.05    0.47 
Q13   1   0.0462  0.3739  0.5012  11.00000  0.05    0.47 
Q14   1   0.8174  0.4738  0.3654  11.00000  0.05    0.44 
Q15   1   0.4839  0.4765  0.3606  11.00000  0.05    0.43 
Q16   1   0.5256  0.8556  0.3431  11.00000  0.05    0.40 
Q17   1   0.2210  0.0983  0.4173  11.00000  0.05    0.39 
Q18   1   0.5721  0.2250  0.3580  11.00000  0.05    0.38 
Q19   1   0.1451  0.5334  0.5287  11.00000  0.05    0.37 
Q20   1   0.4416  0.7552  0.3989  11.00000  0.05    0.37 
;
_shelx_res_checksum              69645
_shelx_hkl_file
; 
  -1   0   0    0.04    0.10 
   1   0   0   -0.01    0.03 
   2   0   0    6.26    0.33 
  -2   0   0    5.49    0.51 
  -3   0   0   -0.08    0.19 
   3   0   0    0.05    0.08 
   4   0   0    8.45    0.48 
  -4   0   0    9.00    0.75 
  -5   0   0   -0.17    0.22 
   5   0   0   -0.12    0.11 
   6   0   0   14.25    0.82 
  -6   0   0   17.42    1.18 
  -7   0   0    0.14    0.24 
   7   0   0   -0.09    0.13 
  -8   0   0    5.45    0.66 
   8   0   0    5.85    0.42 
  -9   0   0    0.21    0.26 
   9   0   0    0.05    0.18 
  10   0   0    4.59    0.44 
 -10   0   0    6.65    0.67 
   0  -1   0    0.03    0.03 
   0   1   0    0.01    0.03 
   1  -1   0   12.56    0.59 
   1   1   0   12.00    0.71 
  -1   1   0   11.73    0.74 
  -1   1   0   12.91    0.70 
   1   1   0   12.55    0.59 
   2  -1   0   83.09    3.89 
  -2  -1   0   81.94    4.88 
  -2   1   0   82.82    4.64 
   2   1   0   84.32    3.89 
   2   1   0   88.56    4.65 
   3  -1   0   20.25    0.93 
  -3  -1   0   15.45    1.23 
  -3   1   0   17.66    1.23 
   3   1   0   18.82    0.92 
   3   1   0   20.25    1.06 
  -4  -1   0   29.23    1.96 
   4  -1   0   32.53    1.50 
  -4   1   0   27.29    1.95 
   4   1   0   32.05    1.72 
   4   1   0   31.47    1.49 
  -5  -1   0   11.68    0.91 
   5  -1   0   11.14    0.62 
   5   1   0   11.18    0.61 
  -6  -1   0    2.62    0.43 
   6  -1   0    2.21    0.25 
  -6   1   0    2.15    0.42 
   6   1   0    2.51    0.25 
  -7  -1   0   28.08    1.74 
   7  -1   0   24.05    1.29 
   7   1   0   24.87    1.29 
  -7   1   0   26.49    1.73 
  -8  -1   0    3.66    0.52 
   8  -1   0    3.18    0.33 
   8   1   0    2.90    0.32 
  -8   1   0    3.50    0.52 
   9  -1   0    3.50    0.37 
  -9  -1   0    4.53    0.56 
   9   1   0    3.49    0.35 
  -9   1   0    3.93    0.52 
  10  -1   0    3.18    0.35 
 -10  -1   0    2.27    0.42 
  10   1   0    2.70    0.32 
 -10   1   0    2.76    0.45 
   0  -2   0    2.34    0.18 
   0   2   0    2.30    0.18 
  -1  -2   0    1.83    0.19 
   1  -2   0    2.26    0.13 
   1   2   0    1.56    0.15 
   1   2   0    1.76    0.11 
  -1   2   0    1.76    0.15 
  -1   2   0    1.76    0.15 
   2  -2   0   64.21    2.96 
  -2  -2   0   65.32    3.70 
   2   2   0   63.44    2.95 
  -2   2   0   62.58    3.53 
   2   2   0   63.46    3.54 
   3  -2   0   91.72    4.30 
  -3  -2   0   89.64    5.39 
   3   2   0   93.87    5.14 
   3   2   0   95.23    4.30 
  -3   2   0   90.86    5.36 
  -3   2   0   95.21    5.12 
   4  -2   0   27.41    1.38 
  -4  -2   0   24.30    1.79 
  -4   2   0   28.25    1.78 
   4   2   0   29.04    1.60 
  -4   2   0   30.69    1.59 
   4   2   0   28.59    1.37 
   5  -2   0    0.51    0.15 
  -5  -2   0    0.74    0.30 
  -5   2   0    0.53    0.30 
   5   2   0    0.70    0.10 
   5   2   0    0.52    0.13 
   6  -2   0    3.35    0.30 
  -6  -2   0    2.77    0.47 
  -6   2   0    2.54    0.45 
   6   2   0    3.59    0.31 
   7  -2   0    7.57    0.50 
  -7  -2   0    7.31    0.77 
   7   2   0    7.20    0.48 
  -7   2   0    7.34    0.71 
  -8  -2   0    0.62    0.29 
   8  -2   0    0.02    0.18 
   8   2   0    0.18    0.18 
  -8   2   0    0.34    0.28 
   9  -2   0    1.08    0.24 
  -9  -2   0    1.06    0.34 
  -9   2   0    0.96    0.32 
   9   2   0    0.83    0.20 
 -10  -2   0    0.43    0.28 
  10  -2   0    0.36    0.22 
 -10   2   0    0.59    0.31 
  10   2   0    0.57    0.21 
   0  -3   0    0.07    0.08 
   0   3   0   -0.04    0.07 
   1  -3   0   64.58    2.90 
  -1  -3   0   60.78    3.61 
   1   3   0   63.50    3.51 
  -1   3   0   63.43    3.60 
   1   3   0   61.77    2.89 
  -1   3   0   63.20    3.51 
  -2  -3   0   19.43    1.17 
   2  -3   0   19.21    0.92 
  -2   3   0   19.14    1.15 
  -2   3   0   18.25    1.10 
   2   3   0   19.53    1.11 
   2   3   0   18.87    0.90 
   3  -3   0   26.54    1.28 
  -3  -3   0   25.81    1.64 
   3   3   0   27.40    1.53 
  -3   3   0   26.91    1.61 
   3   3   0   26.64    1.27 
  -3   3   0   25.98    1.50 
  -4  -3   0    7.46    0.68 
   4  -3   0    7.77    0.46 
  -4   3   0    8.71    0.51 
   4   3   0    8.31    0.46 
  -4   3   0    9.13    0.65 
   4   3   0    8.42    0.53 
   5  -3   0   50.13    2.43 
  -5   3   0   49.39    3.08 
  -5   3   0   53.70    2.84 
   5   3   0   50.01    2.86 
   5   3   0   51.35    2.42 
  -6  -3   0   10.53    0.91 
   6  -3   0   11.08    0.62 
   6   3   0   11.77    0.61 
  -6   3   0    9.66    0.87 
   7  -3   0    1.40    0.22 
  -7  -3   0    1.90    0.43 
  -7   3   0    1.54    0.42 
   7   3   0    1.44    0.22 
  -8  -3   0    9.19    0.79 
   8  -3   0    8.25    0.55 
   8   3   0    7.77    0.52 
  -8   3   0   10.01    0.82 
  -9  -3   0    1.08    0.35 
   9  -3   0    0.20    0.20 
  -9   3   0    1.10    0.34 
   9   3   0    0.39    0.18 
  10  -3   0    0.02    0.19 
 -10  -3   0    0.05    0.28 
 -10   3   0    0.41    0.30 
  10   3   0    0.10    0.18 
   0  -4   0    1.22    0.17 
   0   4   0    1.74    0.20 
  -1  -4   0  156.91    8.85 
   1  -4   0  156.54    7.12 
  -1   4   0  154.91    8.59 
   1   4   0  154.77    8.60 
  -1   4   0  153.38    8.83 
   1   4   0  155.29    7.10 
   2  -4   0    6.10    0.32 
  -2  -4   0    5.95    0.44 
  -2   4   0    6.17    0.41 
   2   4   0    5.51    0.30 
  -2   4   0    5.60    0.39 
   2   4   0    5.60    0.41 
  -3  -4   0    1.15    0.24 
   3  -4   0    1.81    0.17 
  -3   4   0    1.72    0.18 
  -3   4   0    1.80    0.24 
   3   4   0    1.99    0.22 
   3   4   0    1.75    0.15 
  -4  -4   0    5.70    0.56 
   4  -4   0    6.28    0.37 
   4   4   0    5.79    0.34 
  -4   4   0    5.30    0.47 
  -4   4   0    5.64    0.38 
   4   4   0    5.92    0.42 
   5  -4   0    9.76    0.55 
  -5  -4   0    9.39    0.79 
  -5   4   0    9.78    0.74 
   5   4   0    9.54    0.53 
  -5   4   0    9.70    0.58 
   5   4   0    8.90    0.61 
  -6  -4   0    0.36    0.29 
   6  -4   0    0.39    0.16 
   6   4   0    0.09    0.14 
  -6   4   0    0.15    0.24 
   7  -4   0    0.05    0.15 
  -7  -4   0    0.78    0.33 
   7   4   0    0.27    0.15 
  -7   4   0   -0.17    0.27 
   8  -4   0    0.74    0.20 
  -8  -4   0    0.73    0.35 
  -8   4   0    0.46    0.30 
   8   4   0    0.60    0.18 
   9  -4   0    9.91    0.62 
  -9  -4   0    9.44    0.84 
  -9   4   0   10.55    0.87 
   9   4   0    9.54    0.60 
 -10  -4   0    0.09    0.27 
  10  -4   0    0.06    0.19 
 -10   4   0    0.38    0.31 
  10   4   0   -0.07    0.17 
   0  -5   0    0.06    0.11 
   0   5   0    0.06    0.12 
  -1  -5   0   33.93    2.00 
   1  -5   0   33.92    1.99 
   1  -5   0   33.98    1.56 
   1   5   0   33.45    1.55 
  -1   5   0   34.01    1.94 
   1   5   0   32.87    1.95 
  -2  -5   0   51.13    2.96 
   2  -5   0   51.01    2.35 
  -2   5   0   48.11    2.93 
   2   5   0   51.14    2.33 
   2   5   0   51.66    2.87 
  -2   5   0   49.74    2.85 
   3  -5   0    0.09    0.09 
  -3  -5   0    0.18    0.18 
  -3   5   0    0.10    0.11 
   3   5   0    0.13    0.12 
  -3   5   0    0.18    0.15 
   3   5   0    0.15    0.07 
   4  -5   0    5.83    0.37 
  -4  -5   0    5.76    0.54 
   4   5   0    6.49    0.45 
  -4   5   0    6.13    0.42 
  -4   5   0    5.68    0.48 
   4   5   0    5.96    0.34 
  -5  -5   0    4.90    0.58 
   5  -5   0    4.40    0.32 
   5   5   0    4.46    0.37 
  -5   5   0    4.11    0.46 
  -5   5   0    4.48    0.32 
   5   5   0    3.88    0.29 
  -6  -5   0    7.96    0.72 
   6  -5   0    6.96    0.45 
   6   5   0    7.95    0.53 
  -6   5   0    7.02    0.66 
   6   5   0    7.18    0.44 
   7  -5   0    4.90    0.37 
  -7  -5   0    2.41    0.51 
   7   5   0    4.84    0.34 
  -7   5   0    4.64    0.57 
   8  -5   0   11.23    0.64 
  -8  -5   0    9.83    0.89 
  -8   5   0    9.36    0.89 
   8   5   0   10.96    0.62 
  -9  -5   0    0.03    0.26 
   9  -5   0    0.07    0.19 
  -9   5   0    0.24    0.29 
   9   5   0   -0.04    0.16 
  10  -5   0   -0.28    0.16 
 -10  -5   0    0.10    0.28 
 -10   5   0    0.38    0.29 
  10   5   0    0.32    0.18 
   0  -6   0   10.39    0.71 
   0   6   0   11.31    0.72 
   1  -6   0    4.91    0.38 
   1  -6   0    4.57    0.23 
  -1  -6   0    5.01    0.40 
  -1   6   0    4.19    0.38 
   1   6   0    4.30    0.38 
  -2  -6   0   14.29    0.95 
   2  -6   0   14.74    0.70 
  -2   6   0   14.13    0.90 
   2   6   0   14.06    0.92 
  -2   6   0   14.40    0.91 
   2   6   0   14.40    0.68 
   3  -6   0   44.23    2.02 
  -3  -6   0   42.69    2.58 
   3   6   0   43.67    2.00 
  -3   6   0   42.30    2.45 
   3   6   0   43.26    2.48 
  -3   6   0   41.47    2.53 
   4  -6   0    3.82    0.27 
  -4  -6   0    3.96    0.46 
   4   6   0    4.08    0.39 
  -4   6   0    3.49    0.31 
  -4   6   0    4.06    0.40 
   4   6   0    3.88    0.25 
   5  -6   0    2.83    0.25 
  -5  -6   0    2.65    0.42 
  -5   6   0    2.39    0.35 
   5   6   0    2.80    0.31 
   5   6   0    2.68    0.23 
  -5   6   0    2.57    0.26 
  -6  -6   0    4.41    0.59 
   6  -6   0    4.00    0.34 
   6   6   0    4.71    0.32 
  -6   6   0    4.43    0.51 
   6   6   0    4.36    0.39 
   7  -6   0    1.96    0.25 
  -7  -6   0    1.57    0.43 
  -7   6   0    2.25    0.44 
   7   6   0    2.16    0.24 
   8  -6   0    0.64    0.20 
  -8  -6   0    0.46    0.34 
   8   6   0    0.59    0.18 
  -8   6   0    0.13    0.34 
  -9  -6   0    0.20    0.28 
   9  -6   0    0.26    0.18 
   9   6   0    0.04    0.17 
  -9   6   0    0.01    0.33 
   0  -7   0    0.04    0.16 
   0   7   0    0.06    0.14 
   1  -7   0    4.82    0.23 
   1  -7   0    4.91    0.41 
  -1  -7   0    5.26    0.44 
  -1   7   0    4.02    0.39 
   1   7   0    4.94    0.42 
   2  -7   0    0.39    0.19 
   2  -7   0    0.35    0.08 
  -2  -7   0    0.19    0.18 
   2   7   0    0.20    0.18 
  -2   7   0    0.29    0.15 
   2   7   0    0.34    0.05 
   3  -7   0    2.59    0.20 
  -3  -7   0    2.95    0.38 
   3   7   0    2.64    0.17 
  -3   7   0    2.79    0.31 
   3   7   0    2.87    0.32 
  -3   7   0    2.51    0.29 
  -4  -7   0   48.14    2.89 
   4  -7   0   47.46    2.25 
   4   7   0   49.05    2.23 
  -4   7   0   46.96    2.82 
   4   7   0   46.78    2.75 
  -4   7   0   47.78    2.72 
   5  -7   0    3.69    0.29 
  -5  -7   0    3.48    0.48 
  -5   7   0    3.65    0.41 
  -5   7   0    3.51    0.33 
   5   7   0    4.18    0.26 
   5   7   0    4.16    0.41 
  -6  -7   0    3.90    0.57 
   6  -7   0    4.31    0.35 
   6   7   0    5.53    0.44 
  -6   7   0    4.87    0.54 
   6   7   0    4.81    0.32 
   7  -7   0    2.78    0.28 
  -7  -7   0    2.09    0.47 
   7   7   0    3.17    0.27 
  -7   7   0    2.73    0.46 
   8  -7   0    0.33    0.17 
  -8  -7   0    0.11    0.26 
   8   7   0    0.03    0.15 
  -8   7   0    0.00    0.32 
  -9  -7   0    0.15    0.31 
   9  -7   0   -0.18    0.16 
  -9   7   0   -0.08    0.31 
   0  -8   0   60.65    3.54 
   0   8   0   60.40    3.46 
  -1  -8   0   14.49    0.99 
   1  -8   0   15.36    1.00 
  -1   8   0   14.83    0.97 
   1   8   0   15.72    0.98 
  -2  -8   0    0.27    0.19 
   2  -8   0    0.13    0.17 
  -2   8   0    0.17    0.17 
   2   8   0    0.41    0.18 
  -3  -8   0    4.95    0.50 
   3  -8   0    4.18    0.28 
  -3   8   0    5.18    0.40 
   3   8   0    4.38    0.45 
  -3   8   0    5.30    0.41 
  -4  -8   0    0.08    0.22 
   4  -8   0   -0.03    0.10 
  -4   8   0   -0.05    0.13 
   4   8   0    0.07    0.18 
  -4   8   0   -0.16    0.14 
  -5  -8   0    0.03    0.22 
   5  -8   0   -0.18    0.12 
  -5   8   0   -0.09    0.14 
   5   8   0   -0.17    0.16 
  -5   8   0    0.12    0.18 
  -6  -8   0    5.96    0.70 
   6  -8   0    6.68    0.43 
   6   8   0    7.47    0.56 
  -6   8   0    7.47    0.63 
  -7  -8   0    1.12    0.40 
   7  -8   0    0.65    0.18 
  -7   8   0    0.49    0.30 
   8  -8   0    1.60    0.23 
  -8  -8   0    0.73    0.34 
  -8   8   0    1.47    0.41 
   0  -9   0    0.12    0.16 
   0   9   0   -0.03    0.18 
   1  -9   0    4.71    0.44 
  -1  -9   0    4.44    0.43 
  -1   9   0    4.75    0.46 
   1   9   0    4.40    0.45 
  -2  -9   0    4.32    0.47 
   2  -9   0    4.06    0.44 
  -2   9   0    3.82    0.39 
   2   9   0    3.48    0.40 
   3  -9   0    5.00    0.47 
  -3  -9   0    3.03    0.43 
  -3   9   0    4.12    0.39 
   3   9   0    3.87    0.43 
  -4  -9   0    0.81    0.28 
  -4   9   0    0.68    0.19 
   4   9   0    0.73    0.24 
  -4   9   0    0.36    0.18 
  -5  -9   0    1.67    0.38 
  -5   9   0    1.96    0.27 
  -5   9   0    1.59    0.30 
   5   9   0    2.53    0.35 
  -6  -9   0    2.20    0.43 
   6   9   0    1.41    0.29 
  -6   9   0    2.09    0.35 
  -7  -9   0    6.28    0.74 
  -7   9   0    5.49    0.61 
  -8  -9   0    4.25    0.64 
  -8   9   0    4.72    0.60 
   0 -10   0    1.61    0.28 
   0  10   0    2.02    0.32 
   1 -10   0    2.96    0.38 
  -1 -10   0    4.88    0.47 
  -1  10   0    3.92    0.43 
   1  10   0    4.18    0.44 
  -2 -10   0   16.10    1.06 
   2 -10   0   15.73    1.04 
  -2  10   0   15.39    1.00 
   2  10   0   13.81    1.00 
   3 -10   0    5.63    0.54 
  -3 -10   0    5.83    0.55 
  -3  10   0    6.21    0.49 
   3  10   0    5.46    0.53 
   4 -10   0    3.10    0.38 
  -4 -10   0    2.97    0.42 
   4  10   0    2.76    0.38 
  -4  10   0    2.96    0.35 
  -5 -10   0    0.87    0.34 
  -5  10   0    1.08    0.24 
  -5  10   0    0.78    0.22 
   5  10   0    0.98    0.27 
  -6 -10   0    0.01    0.27 
   6  10   0    0.53    0.23 
  -6  10   0    0.64    0.26 
  -7 -10   0    0.00    0.27 
  -7  10   0    0.38    0.29 
   0 -11   0   -0.02    0.17 
   0  11   0    0.26    0.21 
  -1 -11   0    4.40    0.47 
   1 -11   0    3.88    0.45 
  -1  11   0    4.56    0.47 
   1  11   0    3.35    0.43 
   2 -11   0    0.28    0.20 
  -2 -11   0    0.34    0.21 
  -2  11   0    0.46    0.21 
   2  11   0    0.41    0.22 
   3 -11   0    4.44    0.48 
  -3 -11   0    4.28    0.50 
   3  11   0    3.67    0.46 
  -3  11   0    3.74    0.41 
   4 -11   0    0.45    0.22 
  -4 -11   0    0.32    0.25 
   4  11   0    0.10    0.22 
  -4  11   0    0.28    0.19 
  -5 -11   0   15.83    1.14 
   5 -11   0   13.07    1.02 
  -5  11   0   15.92    0.99 
   5  11   0   15.57    1.04 
   6 -11   0    0.05    0.22 
  -6 -11   0   -0.09    0.28 
   6  11   0    0.13    0.22 
  -7 -11   0    0.05    0.33 
  -7  11   0    0.34    0.29 
   0 -12   0    6.60    0.59 
   0  12   0    6.59    0.57 
  -1 -12   0    3.79    0.46 
   1 -12   0    3.29    0.42 
   1  12   0    3.40    0.44 
  -1  12   0    3.59    0.43 
  -2 -12   0    4.01    0.49 
   2 -12   0    3.99    0.47 
   2  12   0    4.59    0.51 
  -2  12   0    4.92    0.45 
  -3 -12   0    1.46    0.32 
   3 -12   0    1.73    0.33 
   3  12   0    1.43    0.34 
  -3  12   0    1.58    0.30 
   4 -12   0    0.94    0.29 
  -4 -12   0    1.17    0.34 
  -4  12   0    1.51    0.28 
   4  12   0    0.90    0.28 
  -5 -12   0    0.50    0.31 
   5 -12   0    0.50    0.25 
   5  12   0    0.86    0.27 
  -5  12   0    0.46    0.21 
   6 -12   0    0.70    0.26 
  -6 -12   0   -0.17    0.29 
   6  12   0    1.16    0.30 
   0 -13   0    0.13    0.23 
   0  13   0    0.09    0.20 
   1 -13   0    3.25    0.41 
  -1 -13   0    2.88    0.40 
  -1  13   0    2.81    0.39 
   1  13   0    2.63    0.40 
   2 -13   0    2.76    0.40 
  -2 -13   0    3.26    0.44 
   2  13   0    3.46    0.45 
  -2  13   0    2.57    0.37 
   3 -13   0    0.58    0.26 
  -3 -13   0    0.34    0.27 
  -3  13   0    0.05    0.21 
   3  13   0    0.23    0.26 
   4 -13   0    0.30    0.25 
  -4 -13   0   -0.01    0.26 
   4  13   0    0.20    0.22 
  -4  13   0    0.29    0.22 
   0 -14   0    5.13    0.56 
   0  14   0    5.63    0.58 
  -1 -14   0    1.38    0.33 
   1 -14   0    1.60    0.33 
   1  14   0    1.43    0.31 
  -1  14   0    1.60    0.33 
   2 -14   0    0.19    0.23 
  -2 -14   0   -0.18    0.22 
   2  14   0    0.02    0.21 
  -2  14   0    0.21    0.23 
  -3 -14   0    2.36    0.42 
   3 -14   0    2.60    0.39 
   3  14   0    2.98    0.42 
  -3  14   0    2.24    0.36 
  10   0  -1    0.07    0.20 
 -10   0   1    0.13    0.26 
  -9   0   1   19.90    1.34 
   9   0  -1   18.05    1.00 
  -8   0   1    0.23    0.27 
   8   0  -1   -0.13    0.16 
   7   0  -1    0.47    0.18 
  -7   0   1    0.07    0.23 
   6   0  -1   -0.15    0.14 
  -6   0   1    0.22    0.24 
  -5   0   1   27.27    1.67 
   5   0  -1   23.25    1.23 
   4   0  -1   -0.08    0.09 
  -4   0   1   -0.08    0.19 
   3   0  -1   99.77    4.66 
  -3   0   1  102.19    5.86 
   3   0  -1   99.89    5.54 
  -2   0   1   -0.10    0.07 
  -2   0   1    0.03    0.21 
   2   0  -1   -0.08    0.09 
   1   0  -1  129.68    6.85 
  -1   0   1  118.15    7.07 
   0   0  -1    0.03    0.04 
   0   0   1   -0.02    0.01 
  -1   0  -1   21.87    1.32 
  -2   0  -1   -0.01    0.03 
   2   0   1   -0.13    0.07 
  -2   0  -1    0.20    0.09 
  -2   0  -1    0.13    0.20 
  -3   0  -1    2.59    0.43 
   3   0   1    3.92    0.24 
  -4   0  -1    0.12    0.22 
   4   0   1   -0.01    0.09 
   5   0   1   96.20    4.62 
  -5   0  -1  102.70    5.86 
   6   0   1   -0.06    0.15 
  -6   0  -1    0.16    0.25 
   7   0   1    8.26    0.54 
  -7   0  -1    9.69    0.82 
   8   0   1    0.16    0.17 
  -8   0  -1   -0.37    0.20 
   9   0   1    0.03    0.18 
  -9   0  -1    0.42    0.26 
  10   0   1    0.23    0.18 
 -10   0  -1    0.24    0.26 
  10  -1  -1    2.45    0.32 
 -10  -1   1    2.28    0.40 
  10   1  -1    1.82    0.28 
 -10   1   1    2.24    0.43 
  -9  -1   1    1.76    0.40 
   9  -1  -1    2.02    0.27 
  -9   1   1    2.60    0.43 
   9   1  -1    1.72    0.27 
   8  -1  -1    0.37    0.18 
  -8  -1   1    0.30    0.27 
   8   1  -1    0.28    0.17 
  -8   1   1    1.07    0.34 
   7  -1  -1    2.38    0.28 
  -7  -1   1    2.57    0.43 
   7   1  -1    1.99    0.26 
  -7   1   1    2.51    0.42 
   6  -1  -1    5.75    0.39 
  -6  -1   1    5.96    0.66 
   6   1  -1    5.70    0.39 
  -6   1   1    5.62    0.63 
  -5  -1   1   41.03    2.45 
   5  -1  -1   38.57    1.88 
   5   1  -1   38.61    2.15 
  -5   1   1   37.29    2.43 
   5   1  -1   39.37    1.87 
  -4  -1   1    8.82    0.77 
   4  -1  -1    9.70    0.55 
   4   1  -1   11.17    0.58 
  -4   1   1    7.55    0.76 
   4   1  -1   10.03    0.54 
  -3  -1   1    0.09    0.17 
   3  -1  -1    0.25    0.10 
   3  -1  -1    0.46    0.12 
  -3   1   1    0.16    0.17 
   3   1  -1    0.26    0.09 
   3   1  -1    0.10    0.07 
  -2  -1   1  157.28    8.87 
   2   1  -1  156.81    8.56 
   2   1  -1  156.65    7.13 
  -2   1   1  155.82    7.13 
  -2   1   1  149.02    8.54 
  -2   1   1  155.94    8.85 
  -1  -1   1    1.75    0.13 
  -1  -1   1    2.06    0.17 
   1   1  -1    1.92    0.16 
  -1   1   1    2.06    0.16 
  -1   1   1    1.90    0.14 
  -1   1   1    2.09    0.15 
   0  -1  -1   76.41    4.32 
   0  -1   1   77.01    3.49 
   0  -1   1   74.16    4.32 
   0   1   1   75.97    4.21 
   0   1  -1   79.54    3.49 
   0   1   1   75.76    3.50 
   0   1  -1   74.25    4.21 
  -1  -1  -1   17.01    0.95 
   1  -1   1   15.57    0.73 
  -1   1  -1   15.55    0.88 
  -1   1  -1   14.99    0.92 
   1   1   1   15.15    0.73 
   1   1   1   15.28    0.88 
  -2  -1  -1    4.72    0.47 
   2  -1   1    4.75    0.27 
   2   1   1    4.78    0.26 
   2   1   1    4.82    0.30 
  -2   1  -1    4.89    0.29 
  -2   1  -1    4.51    0.37 
   3  -1   1    9.99    0.51 
  -3  -1  -1    8.35    0.74 
   3  -1   1    9.40    0.55 
  -3   1  -1    9.58    0.72 
   3   1   1    9.49    0.57 
  -3   1  -1   10.02    0.54 
   3   1   1    9.88    0.51 
  -4  -1  -1    5.56    0.62 
   4  -1   1    5.46    0.34 
   4   1   1    5.48    0.34 
  -4   1  -1    5.70    0.61 
   5  -1   1    1.92    0.21 
  -5  -1  -1    2.02    0.42 
  -5   1  -1    1.61    0.37 
   5   1   1    2.03    0.22 
  -6  -1  -1   14.77    0.98 
   6  -1   1   10.39    0.64 
   6   1   1   11.67    0.65 
  -6   1  -1   11.81    0.97 
   7  -1   1    8.35    0.55 
  -7  -1  -1    9.66    0.82 
  -7   1  -1    9.85    0.84 
   7   1   1    8.68    0.54 
   8  -1   1    5.15    0.41 
  -8  -1  -1    6.85    0.64 
   8   1   1    5.65    0.43 
  -8   1  -1    6.60    0.71 
  -9  -1  -1    2.93    0.47 
   9  -1   1    3.24    0.34 
  -9   1  -1    3.74    0.52 
   9   1   1    3.05    0.32 
  10  -1   1    1.00    0.22 
 -10  -1  -1    1.49    0.36 
  10   1   1    1.11    0.25 
 -10   1  -1    1.59    0.38 
  10  -2  -1    0.13    0.20 
 -10  -2   1    0.14    0.24 
 -10   2   1    0.33    0.28 
  10   2  -1   -0.07    0.18 
  -9  -2   1    0.88    0.33 
   9  -2  -1    0.98    0.23 
  -9   2   1    1.31    0.35 
   9   2  -1    0.58    0.19 
  -8  -2   1    3.30    0.49 
   8  -2  -1    2.56    0.29 
   8   2  -1    2.18    0.27 
  -8   2   1    3.33    0.51 
  -7  -2   1   13.70    1.01 
   7  -2  -1   12.20    0.72 
  -7   2   1   13.59    1.04 
   7   2  -1   12.82    0.73 
  -6  -2   1   14.16    1.03 
   6  -2  -1   13.33    0.73 
   6   2  -1   13.29    0.73 
  -6   2   1   12.74    1.04 
  -5  -2   1    7.19    0.76 
   5  -2  -1    9.31    0.54 
   5   2  -1    9.92    0.57 
   5   2  -1   10.52    0.54 
  -5   2   1    8.82    0.77 
   4  -2  -1    8.11    0.48 
  -4  -2   1    6.14    0.66 
   4  -2  -1    9.06    0.52 
   4   2  -1    8.96    0.47 
  -4   2   1    8.11    0.68 
   4   2  -1    9.07    0.53 
   3  -2  -1    5.58    0.36 
  -3  -2   1    6.09    0.50 
   3   2  -1    6.35    0.39 
  -3   2   1    5.99    0.38 
   3   2  -1    6.05    0.34 
  -3   2   1    5.84    0.46 
  -2  -2   1    6.14    0.45 
  -2   2   1    6.04    0.37 
   2   2  -1    5.86    0.32 
  -2   2   1    6.21    0.41 
  -2   2   1    5.72    0.33 
   2   2  -1    5.46    0.38 
  -1  -2   1   21.19    0.99 
  -1  -2   1   22.18    1.25 
  -1   2   1   20.63    1.23 
   1   2  -1   22.02    1.22 
  -1   2   1   21.80    1.21 
  -1   2   1   19.51    1.00 
   0  -2  -1   35.07    2.00 
   0  -2   1   34.95    1.59 
   0  -2   1   35.34    2.00 
   0   2   1   33.76    1.95 
   0   2  -1   33.83    1.59 
   0   2   1   35.88    1.60 
   0   2  -1   34.42    1.95 
  -1  -2  -1   43.09    2.50 
   1  -2   1   44.25    2.00 
   1   2   1   43.12    2.00 
  -1   2  -1   42.49    2.49 
   1   2   1   42.18    2.42 
  -1   2  -1   45.13    2.42 
  -2  -2  -1   93.23    5.31 
   2  -2   1   92.44    4.25 
   2   2   1   91.96    5.10 
  -2   2  -1   94.14    5.09 
  -2   2  -1   91.93    5.28 
   2   2   1   89.39    4.24 
  -3  -2  -1   92.23    5.41 
   3  -2   1   90.43    4.30 
   3   2   1   90.37    4.29 
   3   2   1   93.91    5.14 
  -3   2  -1   94.90    5.36 
  -3   2  -1   94.93    5.12 
   4  -2   1   21.24    1.02 
  -4  -2  -1   15.95    1.34 
   4   2   1   20.93    1.01 
  -4   2  -1   19.78    1.33 
   4   2   1   21.51    1.17 
  -4   2  -1   20.73    1.14 
   5  -2   1   -0.06    0.13 
  -5  -2  -1    0.05    0.26 
  -5   2  -1   -0.17    0.21 
   5   2   1   -0.04    0.08 
   5   2   1   -0.14    0.12 
  -6  -2  -1    0.50    0.28 
   6  -2   1    0.50    0.17 
  -6   2  -1    0.53    0.32 
   6   2   1    0.62    0.15 
  -7  -2  -1    8.29    0.76 
   7  -2   1    7.83    0.49 
   7   2   1    7.24    0.48 
  -7   2  -1    8.03    0.83 
  -8  -2  -1    6.71    0.71 
   8  -2   1    5.64    0.43 
  -8   2  -1    6.13    0.70 
   9  -2   1    1.50    0.25 
  -9  -2  -1    2.41    0.42 
   9   2   1    2.01    0.27 
  -9   2  -1    1.74    0.39 
  10  -2   1   -0.23    0.18 
 -10  -2  -1   -0.06    0.26 
  10   2   1   -0.11    0.17 
 -10   2  -1    0.38    0.30 
 -10  -3   1    0.45    0.29 
  10  -3  -1    0.16    0.20 
 -10   3   1    0.34    0.27 
  10   3  -1    0.06    0.18 
   9  -3  -1   -0.25    0.15 
  -9  -3   1    0.16    0.24 
   9   3  -1   -0.02    0.17 
  -9   3   1    0.04    0.28 
   8  -3  -1    4.24    0.38 
  -8  -3   1    5.29    0.63 
   8   3  -1    4.82    0.39 
  -8   3   1    4.36    0.60 
  -7  -3   1    0.28    0.27 
   7  -3  -1   -0.19    0.15 
   7   3  -1    0.17    0.16 
  -7   3   1    0.50    0.30 
  -6  -3   1   11.41    0.97 
   6  -3  -1   13.01    0.70 
  -6   3   1   11.90    0.97 
   6   3  -1   12.35    0.67 
   5  -3  -1    3.97    0.30 
  -5  -3   1    4.27    0.54 
   5   3  -1    3.77    0.29 
   5   3  -1    3.54    0.28 
  -5   3   1    2.99    0.43 
   4  -3  -1   32.98    1.63 
  -4  -3   1   33.61    2.10 
  -4   3   1   35.20    2.07 
   4   3  -1   32.11    1.61 
   4   3  -1   34.31    1.93 
  -4   3   1   34.93    1.91 
   3  -3  -1   68.46    3.25 
  -3  -3   1   72.42    4.07 
   3   3  -1   70.81    3.89 
   3   3  -1   69.69    3.23 
  -3   3   1   70.40    3.87 
  -3   3   1   66.27    4.03 
  -2  -3   1   13.04    0.83 
  -2   3   1   12.70    0.65 
   2   3  -1   13.08    0.63 
   2   3  -1   13.61    0.79 
  -2   3   1   12.29    0.81 
  -2   3   1   13.57    0.78 
  -1  -3   1   47.70    2.67 
  -1   3   1   46.99    2.66 
  -1   3   1   42.26    2.14 
  -1   3   1   45.92    2.59 
   1   3  -1   45.88    2.60 
   1   3  -1   48.17    2.13 
   0  -3   1  119.49    6.81 
   0  -3  -1  119.27    6.81 
   0  -3   1  122.00    5.47 
   0   3  -1  119.73    6.62 
   0   3   1  117.03    5.48 
   0   3  -1  122.56    5.47 
   0   3   1  117.08    6.62 
  -1  -3  -1    3.99    0.31 
   1  -3   1    3.91    0.20 
  -1   3  -1    3.74    0.28 
   1   3   1    3.69    0.29 
   1   3   1    3.57    0.20 
  -1   3  -1    4.02    0.28 
  -2  -3  -1   14.91    0.97 
   2  -3   1   15.87    0.75 
  -2   3  -1   14.43    0.94 
   2   3   1   16.21    0.92 
  -2   3  -1   15.75    0.90 
   2   3   1   15.23    0.74 
  -3  -3  -1   20.59    1.30 
   3  -3   1   21.04    0.99 
   3   3   1   20.39    0.98 
   3   3   1   19.97    1.18 
  -3   3  -1   20.21    1.16 
  -3   3  -1   19.35    1.25 
   4  -3   1   20.38    1.02 
  -4  -3  -1   19.03    1.37 
  -4   3  -1   21.14    1.18 
   4   3   1   21.08    1.21 
   4   3   1   20.92    1.02 
  -4   3  -1   20.81    1.32 
   5  -3   1    0.24    0.13 
  -5  -3  -1    0.80    0.33 
   5   3   1    0.33    0.12 
  -5   3  -1    0.40    0.24 
   5   3   1    0.40    0.12 
  -5   3  -1    0.38    0.08 
  -6  -3  -1    1.56    0.38 
   6  -3   1    1.35    0.20 
  -6   3  -1    1.55    0.36 
   6   3   1    1.54    0.21 
  -7  -3  -1   15.83    1.17 
   7  -3   1   15.94    0.83 
  -7   3  -1   13.68    1.15 
   7   3   1   14.92    0.81 
  -8  -3  -1   -0.24    0.27 
   8  -3   1    0.18    0.16 
   8   3   1    0.15    0.17 
  -8   3  -1    0.24    0.28 
   9  -3   1    1.28    0.25 
  -9  -3  -1    1.13    0.33 
  -9   3  -1    1.72    0.41 
   9   3   1    1.09    0.21 
 -10  -3  -1    5.58    0.65 
  10  -3   1    4.93    0.45 
 -10   3  -1    6.35    0.68 
  10   3   1    5.68    0.44 
  10  -4  -1    7.01    0.50 
 -10  -4   1    6.79    0.74 
  10   4  -1    6.92    0.48 
 -10   4   1    5.70    0.67 
  -9  -4   1    0.23    0.30 
   9  -4  -1    0.31    0.18 
  -9   4   1    0.25    0.31 
   9   4  -1    0.40    0.19 
   8  -4  -1    6.07    0.44 
  -8  -4   1    4.78    0.63 
   8   4  -1    5.57    0.40 
  -8   4   1    5.96    0.69 
   7  -4  -1    4.99    0.39 
  -7  -4   1    3.86    0.56 
   7   4  -1    6.14    0.38 
  -7   4   1    4.25    0.58 
  -6  -4   1    1.19    0.36 
   6  -4  -1    1.37    0.20 
  -6   4   1    1.10    0.32 
   6   4  -1    1.65    0.20 
   6   4  -1    1.52    0.20 
   5  -4  -1    7.38    0.44 
  -5  -4   1    7.26    0.73 
   5   4  -1    6.67    0.42 
  -5   4   1    7.22    0.61 
  -5   4   1    6.65    0.46 
   5   4  -1    7.40    0.49 
  -4  -4   1   62.40    3.80 
   4  -4  -1   63.63    3.02 
   4   4  -1   63.77    3.00 
  -4   4   1   63.64    3.76 
   4   4  -1   67.49    3.62 
  -4   4   1   64.51    3.59 
  -3  -4   1    1.96    0.27 
   3  -4  -1    1.70    0.18 
  -3   4   1    1.86    0.19 
  -3   4   1    1.82    0.23 
   3   4  -1    1.79    0.16 
   3   4  -1    1.91    0.22 
  -2  -4   1    7.51    0.54 
   2  -4  -1    7.65    0.41 
  -2   4   1    7.33    0.50 
   2   4  -1    7.35    0.51 
   2   4  -1    7.90    0.39 
  -2   4   1    7.85    0.52 
  -1  -4   1    6.22    0.46 
  -1   4   1    6.57    0.34 
   1   4  -1    6.75    0.31 
  -1   4   1    6.72    0.45 
   1   4  -1    6.27    0.45 
  -1   4   1    6.74    0.44 
   0  -4  -1   78.17    4.39 
   0   4  -1   77.37    4.28 
   0   4   1   75.48    3.51 
   0   4   1   75.48    4.28 
  -1  -4  -1    0.19    0.13 
   1  -4   1    0.16    0.05 
   1   4   1    0.08    0.04 
  -1   4  -1   -0.06    0.09 
  -1   4  -1   -0.01    0.08 
   1   4   1    0.10    0.10 
   2  -4   1    0.03    0.07 
  -2  -4  -1    0.37    0.15 
  -2   4  -1    0.10    0.10 
   2   4   1    0.04    0.10 
  -2   4  -1    0.16    0.10 
   2   4   1    0.18    0.06 
  -3  -4  -1   13.46    0.95 
   3  -4   1   15.30    0.72 
  -3   4  -1   14.20    0.85 
   3   4   1   14.50    0.88 
  -3   4  -1   13.87    0.92 
   3   4   1   14.39    0.71 
   4  -4   1   30.94    1.52 
  -4  -4  -1   31.89    1.98 
  -4   4  -1   31.09    1.92 
  -4   4  -1   31.60    1.79 
   4   4   1   32.42    1.82 
   4   4   1   31.41    1.51 
   5  -4   1    3.73    0.29 
  -5  -4  -1    4.87    0.59 
  -5   4  -1    3.67    0.27 
   5   4   1    3.88    0.28 
   5   4   1    3.43    0.32 
  -5   4  -1    5.06    0.51 
  -6  -4  -1   29.89    2.29 
   6  -4   1   38.46    1.78 
  -6   4  -1   37.01    2.30 
   6   4   1   38.77    1.76 
   7  -4   1    0.41    0.18 
  -7  -4  -1    0.44    0.31 
  -7   4  -1    0.09    0.26 
   7   4   1    0.72    0.18 
  -8  -4  -1    0.34    0.31 
   8  -4   1    0.49    0.20 
  -8   4  -1   -0.29    0.27 
   8   4   1    0.77    0.18 
   9  -4   1    0.04    0.18 
  -9  -4  -1    0.19    0.29 
  -9   4  -1    0.12    0.32 
   9   4   1   -0.22    0.15 
  10  -4   1   -0.28    0.17 
 -10  -4  -1    0.26    0.29 
  10   4   1    0.02    0.18 
 -10   4  -1    0.25    0.31 
 -10  -5   1   -0.08    0.23 
  10  -5  -1   -0.09    0.17 
 -10   5   1   -0.13    0.28 
  10   5  -1    0.02    0.17 
   9  -5  -1    0.57    0.22 
  -9  -5   1    0.86    0.36 
  -9   5   1    0.79    0.38 
   9   5  -1    0.48    0.19 
   8  -5  -1    2.87    0.31 
  -8  -5   1    2.78    0.49 
  -8   5   1    2.44    0.49 
   8   5  -1    2.50    0.28 
   7  -5  -1    2.04    0.24 
  -7  -5   1    1.50    0.39 
  -7   5   1    0.82    0.33 
   7   5  -1    2.38    0.24 
   6  -5  -1    2.55    0.27 
  -6  -5   1    2.66    0.44 
   6   5  -1    2.08    0.23 
   6   5  -1    2.15    0.26 
  -6   5   1    1.77    0.36 
  -5  -5   1    0.52    0.25 
   5  -5  -1   -0.06    0.11 
  -5   5   1   -0.16    0.20 
   5   5  -1    0.09    0.11 
  -5   5   1    0.16    0.11 
   5   5  -1    0.08    0.14 
  -4  -5   1    4.43    0.48 
   4  -5  -1    4.08    0.29 
  -4   5   1    4.19    0.38 
  -4   5   1    3.87    0.32 
   4   5  -1    4.10    0.35 
   4   5  -1    3.68    0.26 
   3  -5  -1   43.82    2.10 
  -3  -5   1   45.69    2.65 
  -3   5   1   44.26    2.61 
  -3   5   1   45.12    2.52 
   3   5  -1   44.00    2.54 
   3   5  -1   44.07    2.07 
  -2  -5   1   43.46    2.60 
   2  -5  -1   43.72    2.06 
  -2   5   1   44.36    2.57 
   2   5  -1   44.32    2.04 
  -2   5   1   44.82    2.51 
   2   5  -1   43.83    2.52 
   1  -5  -1   85.81    4.90 
  -1  -5   1   86.92    4.92 
  -1   5   1   84.13    4.77 
   1   5  -1   84.77    4.78 
  -1   5   1   85.06    3.93 
   0  -5   1    7.60    0.55 
   0  -5  -1    8.23    0.55 
   0   5  -1    8.76    0.56 
   0   5   1    8.08    0.39 
   0   5   1    8.27    0.55 
   1  -5   1    0.48    0.06 
   1  -5   1    0.34    0.13 
  -1  -5  -1    0.45    0.15 
   1   5   1    0.41    0.05 
  -1   5  -1    0.33    0.13 
   1   5   1    0.54    0.16 
  -2  -5  -1    0.02    0.13 
   2  -5   1   -0.01    0.06 
   2   5   1    0.05    0.13 
   2   5   1    0.11    0.06 
  -2   5  -1    0.23    0.12 
  -2   5  -1    0.20    0.11 
   3  -5   1    7.81    0.42 
  -3  -5  -1    7.76    0.60 
  -3   5  -1    7.41    0.55 
   3   5   1    7.18    0.40 
   3   5   1    8.22    0.55 
  -3   5  -1    8.19    0.52 
   4  -5   1   21.95    1.09 
  -4  -5  -1   21.82    1.45 
   4   5   1   22.87    1.33 
  -4   5  -1   23.03    1.29 
  -4   5  -1   21.55    1.39 
   4   5   1   21.98    1.08 
   5  -5   1    0.50    0.14 
  -5  -5  -1    0.58    0.27 
  -5   5  -1    0.16    0.22 
   5   5   1    0.33    0.15 
  -5   5  -1    0.54    0.12 
   5   5   1    0.17    0.11 
   6  -5   1   10.51    0.60 
  -6  -5  -1    8.90    0.86 
  -6   5  -1   11.61    0.87 
   6   5   1   11.16    0.59 
   7  -5   1   10.30    0.60 
  -7  -5  -1    7.95    0.91 
   7   5   1   10.97    0.59 
  -7   5  -1    9.40    0.87 
   8  -5   1    0.91    0.21 
  -8  -5  -1    1.17    0.36 
  -8   5  -1    0.66    0.37 
   8   5   1    0.90    0.20 
   9  -5   1    1.65    0.25 
  -9  -5  -1    1.40    0.40 
  -9   5  -1    2.05    0.48 
   9   5   1    2.21    0.27 
   9  -6  -1    0.35    0.19 
  -9  -6   1    0.07    0.30 
  -9   6   1    0.40    0.34 
   9   6  -1    0.35    0.17 
   8  -6  -1    7.43    0.46 
  -8  -6   1    5.13    0.68 
   8   6  -1    7.09    0.45 
  -8   6   1    5.25    0.70 
  -7  -6   1    5.54    0.73 
   7  -6  -1    6.74    0.45 
  -7   6   1    7.69    0.71 
   7   6  -1    7.34    0.45 
   6  -6  -1   13.59    0.77 
  -6  -6   1   14.31    1.11 
   6   6  -1   14.46    0.76 
   6   6  -1   15.63    0.94 
  -6   6   1   15.50    1.06 
  -5  -6   1    0.32    0.26 
   5  -6  -1    0.04    0.12 
  -5   6   1   -0.16    0.18 
   5   6  -1   -0.06    0.10 
  -5   6   1   -0.02    0.11 
   5   6  -1    0.02    0.14 
   4  -6  -1    0.44    0.13 
  -4  -6   1    0.25    0.20 
   4   6  -1    0.28    0.10 
   4   6  -1    0.51    0.18 
  -4   6   1    0.25    0.18 
  -4   6   1    0.54    0.15 
  -3  -6   1    8.20    0.67 
   3  -6  -1    9.08    0.49 
  -3   6   1    9.17    0.61 
   3   6  -1    9.05    0.63 
   3   6  -1    8.67    0.45 
  -3   6   1   10.55    0.64 
  -2  -6   1    0.66    0.20 
   2  -6  -1    1.16    0.13 
  -2   6   1    0.97    0.19 
  -2   6   1    1.20    0.19 
   2   6  -1    1.34    0.22 
   2   6  -1    1.23    0.09 
  -1  -6   1   19.40    1.22 
   1  -6  -1   19.80    0.93 
   1  -6  -1   19.57    1.21 
  -1   6   1   19.74    1.19 
   1   6  -1   19.61    1.20 
   0  -6  -1   -0.07    0.11 
   0  -6   1    0.05    0.12 
   0   6   1    0.02    0.03 
   0   6   1   -0.07    0.13 
   0   6  -1    0.15    0.13 
   1  -6   1    3.15    0.31 
   1  -6   1    3.15    0.17 
  -1  -6  -1    3.71    0.35 
   1   6   1    3.44    0.32 
   1   6   1    3.49    0.17 
  -1   6  -1    3.25    0.31 
   2  -6   1   72.96    3.40 
  -2  -6  -1   71.87    4.28 
  -2   6  -1   77.70    4.14 
   2   6   1   74.69    3.39 
  -2   6  -1   70.78    4.24 
   2   6   1   73.68    4.16 
  -3  -6  -1   18.70    1.21 
   3  -6   1   19.30    0.91 
   3   6   1   18.19    1.14 
   3   6   1   18.28    0.89 
  -3   6  -1   18.55    1.12 
  -3   6  -1   18.56    1.16 
  -4  -6  -1   15.10    1.11 
   4  -6   1   15.49    0.81 
  -4   6  -1   16.51    0.97 
   4   6   1   16.71    1.02 
  -4   6  -1   15.68    1.04 
   4   6   1   16.50    0.79 
   5  -6   1    2.33    0.23 
  -5  -6  -1    1.65    0.38 
  -5   6  -1    2.09    0.23 
  -5   6  -1    2.00    0.32 
   5   6   1    2.78    0.22 
   5   6   1    2.06    0.28 
  -6  -6  -1    0.58    0.30 
   6  -6   1    0.30    0.15 
   6   6   1    0.48    0.14 
  -6   6  -1   -0.01    0.24 
   6   6   1    0.29    0.17 
   7  -6   1    0.19    0.16 
  -7  -6  -1    0.46    0.33 
   7   6   1    0.73    0.17 
  -7   6  -1    0.44    0.32 
  -8  -6  -1    5.66    0.73 
   8  -6   1    6.69    0.45 
  -8   6  -1    6.02    0.74 
   8   6   1    6.73    0.44 
   9  -6   1    0.82    0.22 
  -9  -6  -1    0.35    0.32 
  -9   6  -1    0.64    0.35 
   9   6   1    0.41    0.18 
  -9  -7   1    1.92    0.43 
   9  -7  -1    2.56    0.29 
  -9   7   1    2.14    0.47 
  -8  -7   1    0.07    0.28 
   8  -7  -1    0.14    0.17 
  -8   7   1    0.16    0.32 
   8   7  -1    0.31    0.16 
   7  -7  -1   -0.04    0.14 
  -7  -7   1    0.32    0.29 
  -7   7   1   -0.32    0.26 
   7   7  -1    0.03    0.13 
  -6  -7   1    0.89    0.33 
   6  -7  -1    0.92    0.19 
  -6   7   1    0.92    0.27 
   6   7  -1    0.84    0.16 
   6   7  -1    1.14    0.22 
  -5  -7   1   34.25    2.18 
   5  -7  -1   34.59    1.67 
  -5   7   1   34.57    2.00 
   5   7  -1   34.85    1.65 
  -5   7   1   34.84    2.11 
   5   7  -1   35.01    2.04 
  -4  -7   1    1.00    0.27 
   4  -7  -1    0.52    0.13 
  -4   7   1    0.60    0.17 
   4   7  -1    0.59    0.20 
   4   7  -1    0.61    0.10 
  -4   7   1    0.40    0.17 
  -3  -7   1    0.76    0.22 
   3  -7  -1    0.41    0.11 
  -3   7   1    0.31    0.15 
   3   7  -1    0.64    0.08 
  -3   7   1    0.42    0.16 
   3   7  -1    0.46    0.18 
   2  -7  -1    9.65    0.48 
   2  -7  -1    9.07    0.67 
  -2  -7   1    9.56    0.69 
  -2   7   1    9.85    0.65 
   2   7  -1    9.09    0.67 
  -1  -7   1   13.45    0.91 
   1  -7  -1   14.21    0.66 
   1  -7  -1   14.32    0.91 
   1   7  -1   14.18    0.90 
  -1   7   1   12.72    0.88 
   0  -7   1    7.23    0.53 
   0  -7  -1    6.08    0.52 
   0   7   1    6.97    0.53 
   0   7  -1    7.08    0.53 
   1  -7   1   62.82    3.77 
  -1  -7  -1   66.33    3.78 
   1   7   1   64.77    3.68 
  -1   7  -1   65.04    3.67 
  -2  -7  -1    7.02    0.57 
   2  -7   1    6.99    0.55 
   2  -7   1    7.10    0.37 
   2   7   1    7.14    0.55 
  -2   7  -1    6.92    0.53 
   2   7   1    7.48    0.36 
   3  -7   1    2.18    0.18 
  -3  -7  -1    2.10    0.34 
   3   7   1    2.26    0.16 
  -3   7  -1    2.06    0.27 
  -3   7  -1    1.91    0.25 
   3   7   1    1.80    0.28 
  -4  -7  -1    0.08    0.23 
   4  -7   1    0.14    0.11 
   4   7   1    0.16    0.09 
  -4   7  -1    0.10    0.14 
  -4   7  -1    0.08    0.17 
   4   7   1    0.22    0.18 
   5  -7   1    3.81    0.28 
  -5  -7  -1    2.66    0.45 
  -5   7  -1    3.75    0.42 
  -5   7  -1    3.63    0.32 
   5   7   1    3.99    0.40 
   5   7   1    3.72    0.26 
   6  -7   1    3.89    0.32 
  -6  -7  -1    3.35    0.53 
   6   7   1    4.11    0.41 
  -6   7  -1    3.80    0.48 
   6   7   1    3.70    0.29 
  -7  -7  -1    0.52    0.34 
   7  -7   1    0.33    0.17 
  -7   7  -1    0.37    0.30 
   7   7   1    0.70    0.16 
  -8  -7  -1    0.33    0.31 
   8  -7   1    0.82    0.20 
   8   7   1    0.76    0.18 
  -8   7  -1    0.63    0.33 
   9  -7   1    5.54    0.41 
  -9  -7  -1    4.48    0.63 
  -9   7  -1    4.63    0.65 
  -8  -8   1    2.27    0.49 
   8  -8  -1    3.67    0.34 
  -8   8   1    3.83    0.52 
   7  -8  -1   -0.01    0.15 
  -7  -8   1   -0.19    0.28 
  -7   8   1   -0.17    0.21 
   6  -8  -1    5.05    0.36 
  -6  -8   1    4.46    0.59 
   6   8  -1    5.25    0.45 
  -6   8   1    4.73    0.51 
  -5  -8   1    7.44    0.67 
   5  -8  -1    8.00    0.46 
   5   8  -1    8.08    0.60 
  -5   8   1    7.56    0.61 
  -5   8   1    7.21    0.55 
   4  -8  -1    0.59    0.13 
  -4  -8   1    0.39    0.22 
  -4   8   1    0.73    0.19 
  -4   8   1    0.78    0.19 
   4   8  -1    1.14    0.26 
  -3  -8   1   13.31    0.99 
   3  -8  -1   14.74    0.98 
   3  -8  -1   15.08    0.73 
   3   8  -1   14.81    0.97 
  -3   8   1   14.65    0.93 
   2  -8  -1    0.05    0.07 
   2  -8  -1    0.05    0.16 
  -2  -8   1    0.16    0.18 
   2   8  -1    0.14    0.19 
  -2   8   1    0.28    0.15 
  -1  -8   1   48.36    2.86 
   1  -8  -1   48.84    2.86 
   1   8  -1   47.50    2.79 
  -1   8   1   48.70    2.79 
   0  -8   1    0.38    0.18 
   0  -8  -1    0.07    0.17 
   0   8   1    0.18    0.16 
   0   8  -1   -0.01    0.16 
  -1  -8  -1    1.65    0.27 
   1  -8   1    2.19    0.30 
   1   8   1    1.74    0.27 
  -1   8  -1    2.01    0.29 
  -2  -8  -1   17.61    1.20 
   2  -8   1   20.72    1.22 
   2   8   1   18.41    1.17 
  -2   8  -1   17.87    1.15 
  -3  -8  -1    1.32    0.29 
   3  -8   1    1.81    0.15 
  -3   8  -1    1.59    0.24 
   3   8   1    1.55    0.28 
  -3   8  -1    1.75    0.26 
  -4  -8  -1    5.49    0.58 
   4  -8   1    7.01    0.38 
  -4   8  -1    6.08    0.51 
  -4   8  -1    7.11    0.50 
   4   8   1    6.47    0.54 
  -5  -8  -1   26.55    1.74 
   5  -8   1   26.35    1.29 
  -5   8  -1   26.06    1.65 
  -5   8  -1   27.21    1.56 
   5   8   1   25.62    1.60 
   6  -8   1    1.53    0.21 
  -6  -8  -1    1.79    0.41 
  -6   8  -1    1.42    0.32 
   6   8   1    1.52    0.29 
  -7  -8  -1    1.21    0.40 
   7  -8   1    1.52    0.22 
  -7   8  -1    1.35    0.34 
  -8  -8  -1    0.44    0.30 
   8  -8   1    1.45    0.22 
  -8   8  -1    0.95    0.37 
  -8  -9   1    1.11    0.39 
  -8   9   1    1.02    0.35 
  -7  -9   1    0.08    0.32 
  -7   9   1    0.73    0.30 
  -6  -9   1    0.23    0.29 
  -6   9   1   -0.18    0.21 
   6   9  -1   -0.18    0.19 
  -5  -9   1    1.07    0.32 
  -5   9   1    0.67    0.23 
  -5   9   1    1.11    0.22 
   5   9  -1    1.23    0.26 
  -4  -9   1    3.26    0.44 
  -4   9   1    4.02    0.38 
  -4   9   1    3.86    0.39 
   4   9  -1    4.00    0.44 
  -3  -9   1    9.89    0.73 
   3  -9  -1    9.95    0.70 
  -3   9   1    8.73    0.65 
   3   9  -1    8.93    0.68 
  -2  -9   1   28.36    1.78 
   2  -9  -1   28.67    1.76 
  -2   9   1   29.57    1.72 
   2   9  -1   27.42    1.73 
   1  -9  -1   11.31    0.75 
  -1  -9   1    9.92    0.74 
  -1   9   1   10.01    0.72 
   1   9  -1    9.99    0.73 
   0  -9  -1    1.67    0.27 
   0  -9   1    1.60    0.26 
   0   9   1    1.57    0.27 
   0   9  -1    1.52    0.27 
   1  -9   1    2.85    0.34 
  -1  -9  -1    2.19    0.33 
  -1   9  -1    1.77    0.29 
   1   9   1    2.18    0.31 
   2  -9   1    0.85    0.23 
  -2  -9  -1    0.35    0.21 
  -2   9  -1    0.40    0.20 
   2   9   1    0.34    0.20 
   3  -9   1    3.88    0.44 
  -3  -9  -1    3.28    0.43 
  -3   9  -1    3.89    0.39 
   3   9   1    3.86    0.42 
  -4  -9  -1    3.97    0.49 
  -4   9  -1    4.07    0.42 
   4   9   1    3.92    0.44 
  -4   9  -1    3.92    0.37 
  -5  -9  -1    0.16    0.27 
   5   9   1    0.02    0.19 
  -5   9  -1    0.11    0.18 
  -5   9  -1    0.16    0.15 
  -6  -9  -1    2.73    0.48 
   6   9   1    2.33    0.35 
  -6   9  -1    2.57    0.39 
  -7  -9  -1    5.33    0.71 
  -7   9  -1    7.06    0.64 
  -8  -9  -1    1.67    0.44 
  -8   9  -1    1.90    0.42 
  -7 -10   1    3.62    0.57 
  -7  10   1    3.34    0.44 
  -6 -10   1    2.43    0.45 
   6  10  -1    2.16    0.34 
  -6  10   1    1.58    0.33 
  -5 -10   1    2.78    0.44 
  -5  10   1    2.98    0.34 
   5  10  -1    2.65    0.38 
  -4 -10   1    8.98    0.73 
   4 -10  -1    7.83    0.66 
  -4  10   1    8.68    0.62 
   4  10  -1    7.54    0.63 
  -3 -10   1    0.23    0.22 
   3 -10  -1    0.57    0.23 
   3  10  -1    0.40    0.21 
  -3  10   1    0.23    0.19 
   2 -10  -1    0.70    0.22 
  -2 -10   1    0.80    0.26 
  -2  10   1    0.69    0.22 
   2  10  -1    0.08    0.19 
   1 -10  -1    1.05    0.24 
  -1 -10   1    1.42    0.28 
  -1  10   1    1.17    0.28 
   1  10  -1    1.31    0.27 
   0 -10   1    5.74    0.50 
   0 -10  -1    5.45    0.49 
   0  10   1    5.30    0.51 
   0  10  -1    6.29    0.51 
  -1 -10  -1    5.24    0.49 
   1 -10   1    5.47    0.51 
  -1  10  -1    5.50    0.48 
   1  10   1    5.49    0.49 
  -2 -10  -1    4.91    0.48 
   2 -10   1    5.14    0.48 
  -2  10  -1    5.07    0.45 
   2  10   1    4.61    0.49 
   3 -10   1   16.54    1.12 
  -3 -10  -1   15.81    1.14 
   3  10   1   17.01    1.11 
  -3  10  -1   16.52    1.06 
  -4 -10  -1    0.40    0.27 
   4 -10   1    0.37    0.24 
  -4  10  -1    0.28    0.18 
   4  10   1    0.45    0.22 
  -5 -10  -1    2.11    0.41 
  -5  10  -1    2.32    0.34 
   5  10   1    2.03    0.34 
  -5  10  -1    2.11    0.29 
  -6 -10  -1    2.61    0.48 
   6  10   1    3.10    0.40 
  -6  10  -1    2.73    0.39 
  -7 -10  -1    1.43    0.41 
  -7  10  -1    2.36    0.41 
  -7 -11   1   -0.48    0.23 
  -7  11   1   -0.26    0.24 
  -6 -11   1    3.85    0.57 
   6 -11  -1    4.68    0.50 
   6  11  -1    4.32    0.47 
  -5 -11   1    0.05    0.25 
   5 -11  -1    0.13    0.20 
  -5  11   1   -0.11    0.17 
   5  11  -1    0.53    0.25 
  -4 -11   1   13.62    0.97 
   4 -11  -1   12.09    0.92 
   4  11  -1   13.04    0.91 
  -4  11   1   13.15    0.88 
  -3 -11   1    0.28    0.23 
   3 -11  -1    0.08    0.20 
  -3  11   1    0.00    0.17 
   3  11  -1    0.20    0.23 
  -2 -11   1    0.04    0.22 
   2 -11  -1   -0.15    0.21 
   2  11  -1   -0.19    0.19 
  -2  11   1   -0.24    0.16 
  -1 -11   1    0.46    0.23 
   1 -11  -1    0.57    0.23 
  -1  11   1    0.06    0.20 
   1  11  -1    0.28    0.21 
   0 -11  -1   18.51    1.25 
   0 -11   1   18.06    1.26 
   0  11   1   21.01    1.25 
   0  11  -1   19.50    1.23 
   1 -11   1    0.55    0.22 
  -1 -11  -1    0.20    0.24 
   1  11   1    0.48    0.25 
  -1  11  -1    0.43    0.20 
  -2 -11  -1    6.81    0.60 
   2 -11   1    7.22    0.60 
  -2  11  -1    6.31    0.55 
   2  11   1    6.11    0.59 
  -3 -11  -1    0.09    0.21 
   3 -11   1   -0.08    0.22 
   3  11   1    0.00    0.19 
  -3  11  -1    0.12    0.19 
  -4 -11  -1    3.94    0.50 
   4 -11   1    3.69    0.46 
  -4  11  -1    4.80    0.44 
   4  11   1    4.86    0.51 
   5 -11   1    0.14    0.23 
  -5 -11  -1   -0.03    0.26 
   5  11   1   -0.28    0.21 
  -5  11  -1    0.13    0.18 
   6 -11   1    0.04    0.19 
  -6 -11  -1   -0.01    0.27 
   6  11   1    0.01    0.21 
   6 -12  -1    0.38    0.25 
  -6 -12   1    0.32    0.35 
   6  12  -1    0.88    0.28 
   5 -12  -1    0.71    0.26 
  -5 -12   1    0.83    0.34 
  -5  12   1    0.88    0.25 
   5  12  -1    0.65    0.27 
  -4 -12   1    2.73    0.45 
   4 -12  -1    2.61    0.38 
   4  12  -1    3.44    0.44 
  -4  12   1    2.37    0.35 
  -3 -12   1    0.00    0.21 
   3 -12  -1   -0.19    0.18 
  -3  12   1    0.15    0.18 
   3  12  -1   -0.08    0.19 
  -2 -12   1    0.21    0.24 
   2 -12  -1    0.07    0.21 
   2  12  -1    0.20    0.21 
  -2  12   1    0.02    0.20 
  -1 -12   1    0.02    0.20 
   1 -12  -1    0.33    0.23 
   1  12  -1    0.00    0.19 
  -1  12   1    0.05    0.19 
   0 -12   1    5.31    0.51 
   0 -12  -1    5.94    0.54 
   0  12   1    5.26    0.55 
   0  12  -1    5.80    0.54 
   1 -12   1    3.95    0.45 
  -1 -12  -1    3.28    0.43 
  -1  12  -1    3.53    0.42 
   1  12   1    2.86    0.41 
   2 -12   1    0.78    0.25 
  -2 -12  -1    0.90    0.29 
  -2  12  -1    0.69    0.23 
   2  12   1    0.74    0.26 
  -3 -12  -1    7.40    0.65 
   3 -12   1    7.71    0.64 
   3  12   1    6.59    0.63 
  -3  12  -1    7.21    0.59 
  -4 -12  -1    0.30    0.27 
   4 -12   1    0.19    0.25 
  -4  12  -1    0.14    0.18 
   4  12   1    0.16    0.21 
  -5 -12  -1    1.40    0.37 
   5 -12   1    0.69    0.26 
   5  12   1    0.46    0.25 
   6 -12   1    1.58    0.31 
   4 -13  -1    0.22    0.21 
  -4 -13   1   -0.30    0.25 
  -4  13   1    0.14    0.21 
   4  13  -1   -0.26    0.21 
  -3 -13   1    6.14    0.59 
   3 -13  -1    5.73    0.60 
   3  13  -1    6.48    0.65 
  -3  13   1    6.39    0.56 
  -2 -13   1    9.05    0.76 
   2 -13  -1    9.88    0.75 
   2  13  -1    9.24    0.75 
  -2  13   1    9.44    0.72 
   1 -13  -1    2.92    0.39 
  -1 -13   1    2.16    0.38 
  -1  13   1    1.96    0.34 
   1  13  -1    2.53    0.37 
   0 -13   1    0.14    0.23 
   0 -13  -1    0.23    0.24 
   0  13  -1    0.61    0.26 
   0  13   1    0.11    0.23 
  -1 -13  -1    0.76    0.26 
   1 -13   1    1.22    0.31 
   1  13   1    0.39    0.24 
  -1  13  -1    0.92    0.26 
  -2 -13  -1    0.22    0.25 
   2 -13   1    0.21    0.21 
   2  13   1   -0.05    0.20 
  -2  13  -1    0.00    0.21 
  -3 -13  -1    1.07    0.32 
   3 -13   1    0.90    0.30 
  -3  13  -1    1.09    0.26 
   3  13   1    1.51    0.32 
   4 -13   1    0.78    0.26 
  -4 -13  -1    1.15    0.33 
   4  13   1    1.23    0.32 
  -4  13  -1    0.83    0.25 
  -3 -14   1    1.45    0.35 
   3 -14  -1    1.48    0.33 
   3  14  -1    1.62    0.35 
  -3  14   1    1.13    0.27 
   2 -14  -1    0.05    0.24 
  -2 -14   1    0.29    0.24 
  -2  14   1    0.09    0.23 
   2  14  -1    0.05    0.25 
  -1 -14   1    2.12    0.38 
   1 -14  -1    2.04    0.35 
  -1  14   1    1.86    0.34 
   1  14  -1    2.07    0.38 
   0 -14   1   -0.04    0.23 
   0 -14  -1   -0.26    0.19 
   0  14  -1   -0.03    0.20 
   0  14   1   -0.17    0.22 
  -1 -14  -1    0.13    0.25 
   1 -14   1    0.41    0.23 
   1  14   1   -0.27    0.19 
  -1  14  -1    0.09    0.21 
   2 -14   1    2.58    0.39 
  -2 -14  -1    3.15    0.45 
  -2  14  -1    2.79    0.39 
   2  14   1    2.88    0.43 
   3 -14   1   -0.05    0.20 
   3  14   1   -0.07    0.24 
  -3  14  -1   -0.11    0.20 
  10   0  -2    0.75    0.24 
 -10   0   2    1.08    0.31 
  -9   0   2   -0.01    0.21 
   9   0  -2   -0.14    0.17 
  -8   0   2    0.08    0.22 
   8   0  -2    0.01    0.15 
   7   0  -2    0.16    0.14 
  -7   0   2    0.07    0.22 
  -6   0   2   14.69    1.00 
   6   0  -2   11.58    0.70 
   5   0  -2    0.10    0.14 
  -5   0   2   -0.03    0.22 
   5   0  -2    0.10    0.06 
  -4   0   2  177.90    9.64 
   4   0  -2  162.93    7.70 
   4   0  -2  160.81    9.19 
  -3   0   2    0.06    0.19 
   3   0  -2    0.09    0.10 
  -3   0   2   -0.03    0.09 
  -2   0   2   11.02    0.54 
   2   0  -2   10.19    0.69 
  -2   0   2   10.13    0.74 
   1   0  -2    0.28    0.17 
  -1   0   2   -0.08    0.04 
  -1   0   2    0.03    0.10 
   0   0   2    9.06    0.44 
   0   0   2    8.82    0.53 
   0   0  -2    8.95    0.53 
   1   0   2   -0.06    0.04 
  -1   0  -2    0.32    0.16 
  -1   0  -2    0.02    0.10 
  -2   0  -2   66.74    3.93 
  -2   0  -2   60.65    3.75 
   2   0   2   73.51    3.11 
  -3   0  -2    0.02    0.08 
   3   0   2   -0.03    0.07 
  -3   0  -2    0.26    0.24 
  -4   0  -2   62.20    3.95 
   4   0   2   68.92    3.09 
  -5   0  -2    0.05    0.28 
   5   0   2   -0.05    0.11 
  -6   0  -2   27.34    1.66 
   6   0   2   21.54    1.18 
   7   0   2    0.14    0.14 
  -7   0  -2    0.09    0.28 
  -8   0  -2    0.14    0.24 
   8   0   2    0.09    0.16 
  -9   0  -2   -0.02    0.27 
   9   0   2   -0.17    0.17 
  10   0   2    6.70    0.49 
 -10   0  -2    8.19    0.74 
  10  -1  -2    0.88    0.24 
 -10  -1   2    1.03    0.32 
  10   1  -2    1.10    0.24 
 -10   1   2    1.39    0.33 
   9  -1  -2    2.39    0.30 
  -9  -1   2    2.93    0.46 
  -9   1   2    2.35    0.41 
   9   1  -2    2.11    0.27 
  -8  -1   2    6.90    0.65 
   8  -1  -2    6.09    0.44 
   8   1  -2    6.72    0.45 
  -8   1   2    5.39    0.63 
   7  -1  -2    4.60    0.39 
  -7  -1   2    7.00    0.68 
   7   1  -2    5.82    0.41 
  -7   1   2    5.85    0.64 
  -6  -1   2   18.61    1.17 
   6  -1  -2   13.88    0.83 
  -6   1   2   17.66    1.15 
   6   1  -2   14.10    0.82 
   5  -1  -2   10.13    0.65 
  -5  -1   2   12.16    0.89 
   5  -1  -2   11.69    0.64 
  -5   1   2   10.89    0.90 
   5   1  -2   11.59    0.63 
   5   1  -2   12.21    0.66 
   4  -1  -2    0.01    0.11 
   4  -1  -2    0.04    0.11 
  -4  -1   2    0.03    0.21 
   4   1  -2    0.05    0.08 
  -4   1   2   -0.17    0.17 
   4   1  -2   -0.15    0.09 
  -3  -1   2   21.73    1.06 
   3  -1  -2   21.74    1.28 
  -3  -1   2   18.90    1.38 
   3   1  -2   23.98    1.26 
  -3   1   2   20.62    1.38 
  -3   1   2   22.53    1.07 
   2  -1  -2   14.79    0.88 
  -2  -1   2   14.81    0.72 
  -2  -1   2   14.08    0.92 
   2   1  -2   14.41    0.87 
  -2   1   2   13.90    0.73 
  -2   1   2   15.77    0.92 
  -1  -1   2   20.00    0.96 
  -1  -1   2   21.50    1.20 
   1   1  -2   20.19    1.19 
  -1   1   2   20.44    1.19 
  -1   1   2   20.17    0.97 
  -1   1   2   20.77    1.18 
   0  -1   2    9.96    0.47 
   0  -1  -2    9.80    0.58 
   0   1   2    9.74    0.60 
   0   1  -2   10.17    0.61 
   0   1   2   10.10    0.48 
  -1  -1  -2   74.08    4.11 
   1  -1   2   68.50    3.28 
  -1   1  -2   69.13    3.96 
   1   1   2   73.40    3.97 
  -1   1  -2   69.76    4.07 
   1   1   2   73.22    3.28 
  -2  -1  -2    0.32    0.21 
   2  -1   2    0.11    0.07 
   2   1   2   -0.11    0.06 
  -2   1  -2   -0.08    0.12 
   2   1   2    0.03    0.09 
  -2   1  -2   -0.01    0.06 
   3  -1   2   89.65    4.08 
  -3  -1  -2   80.07    5.16 
   3   1   2   87.76    4.07 
  -3   1  -2   89.28    5.12 
  -3   1  -2   91.52    4.85 
   4  -1   2    0.46    0.12 
  -4  -1  -2    0.40    0.26 
  -4  -1  -2    0.67    0.15 
   4   1   2    0.73    0.13 
  -4   1  -2    0.58    0.24 
  -5  -1  -2    5.10    0.64 
   5  -1   2    5.39    0.36 
   5   1   2    5.31    0.34 
  -5   1  -2    3.97    0.56 
   6  -1   2   19.72    1.03 
  -6  -1  -2   23.06    1.46 
  -6   1  -2   19.21    1.43 
   6   1   2   19.78    1.03 
  -7  -1  -2    1.64    0.39 
   7  -1   2    1.09    0.19 
   7   1   2    1.07    0.20 
  -7   1  -2    1.07    0.35 
  -8  -1  -2    0.94    0.32 
   8  -1   2    1.03    0.21 
   8   1   2    1.16    0.20 
  -8   1  -2    1.73    0.42 
   9  -1   2    0.09    0.17 
  -9  -1  -2    0.23    0.27 
   9   1   2    0.14    0.16 
  -9   1  -2    0.38    0.27 
 -10  -1  -2    1.67    0.38 
  10  -1   2    1.15    0.23 
  10   1   2    1.07    0.25 
 -10   1  -2    1.71    0.38 
 -10  -2   2    1.01    0.34 
  10  -2  -2    0.84    0.23 
  10   2  -2    0.53    0.22 
 -10   2   2    1.25    0.35 
  -9  -2   2    0.14    0.26 
   9  -2  -2   -0.03    0.16 
  -9   2   2    0.14    0.24 
   9   2  -2    0.05    0.17 
   8  -2  -2    5.39    0.44 
  -8  -2   2    5.35    0.63 
  -8   2   2    5.78    0.64 
   8   2  -2    4.95    0.42 
   7  -2  -2   12.44    0.73 
  -7  -2   2   13.85    1.00 
   7   2  -2   12.19    0.71 
  -7   2   2   12.89    1.01 
  -6  -2   2   21.17    1.43 
   6  -2  -2   21.29    1.08 
  -6   2   2   20.07    1.44 
   6   2  -2   20.66    1.06 
   5  -2  -2   -0.18    0.12 
  -5  -2   2    0.02    0.20 
   5  -2  -2   -0.12    0.11 
   5   2  -2    0.11    0.09 
   5   2  -2   -0.01    0.12 
  -5   2   2   -0.17    0.19 
   4  -2  -2    0.13    0.11 
  -4  -2   2   -0.29    0.17 
   4  -2  -2   -0.04    0.11 
  -4   2   2    0.07    0.17 
   4   2  -2   -0.09    0.10 
   4   2  -2   -0.12    0.08 
  -3  -2   2   25.52    1.53 
   3   2  -2   24.86    1.41 
  -3   2   2   23.26    1.19 
  -3   2   2   25.32    1.50 
  -3   2   2   23.97    1.40 
   3   2  -2   24.34    1.19 
  -2  -2   2   96.99    4.71 
  -2  -2   2  106.77    5.85 
  -2   2   2  101.84    4.72 
  -2   2   2  102.15    5.82 
   2   2  -2  101.62    5.66 
  -2   2   2  103.44    5.66 
  -1  -2   2  101.20    4.67 
  -1  -2   2  101.01    5.79 
  -1   2   2  102.73    5.78 
  -1   2   2   99.75    4.68 
  -1   2   2  102.50    5.64 
   1   2  -2  103.40    5.64 
   0  -2   2   27.33    1.62 
   0  -2   2   28.94    1.30 
   0  -2  -2   28.77    1.62 
   0   2  -2   27.26    1.60 
   0   2   2   27.13    1.59 
   0   2   2   28.71    1.31 
   1  -2   2   25.83    1.21 
  -1  -2  -2   26.02    1.52 
   1   2   2   26.03    1.21 
   1   2   2   25.84    1.48 
  -1   2  -2   26.01    1.51 
  -1   2  -2   25.63    1.47 
  -2  -2  -2   28.17    1.62 
   2  -2   2   25.93    1.24 
  -2   2  -2   26.47    1.49 
  -2   2  -2   25.63    1.56 
   2   2   2   27.04    1.51 
   2   2   2   25.23    1.24 
  -3  -2  -2   11.01    0.85 
   3  -2   2   11.24    0.58 
  -3   2  -2   11.98    0.66 
   3   2   2   10.77    0.57 
   3   2   2   11.45    0.69 
  -3   2  -2   10.41    0.75 
   4  -2   2    0.57    0.13 
  -4  -2  -2    0.14    0.22 
  -4   2  -2    0.67    0.08 
   4   2   2    0.52    0.12 
  -4   2  -2    0.61    0.24 
   4   2   2    0.59    0.13 
  -5  -2  -2    4.39    0.59 
  -5  -2  -2    4.68    0.35 
   5  -2   2    3.51    0.29 
   5   2   2    3.61    0.28 
  -5   2  -2    3.96    0.53 
  -6  -2  -2    6.54    0.71 
   6  -2   2    5.77    0.39 
   6   2   2    5.79    0.39 
  -6   2  -2    5.78    0.66 
  -7  -2  -2    8.40    0.75 
   7  -2   2    7.56    0.50 
  -7   2  -2    6.64    0.77 
   7   2   2    8.46    0.50 
   8  -2   2    7.71    0.52 
  -8  -2  -2    8.36    0.76 
   8   2   2    7.33    0.50 
  -8   2  -2    7.82    0.82 
  -9  -2  -2    1.41    0.35 
   9  -2   2    1.36    0.24 
   9   2   2    1.39    0.24 
  -9   2  -2    1.92    0.43 
 -10  -2  -2    0.29    0.29 
  10  -2   2   -0.02    0.19 
 -10   2  -2    0.75    0.33 
  10   2   2    0.51    0.19 
 -10  -3   2    0.78    0.31 
  10  -3  -2    1.74    0.27 
 -10   3   2    0.87    0.32 
  10   3  -2    1.05    0.23 
   9  -3  -2    9.39    0.63 
  -9  -3   2   10.52    0.88 
   9   3  -2   10.06    0.62 
  -9   3   2   11.02    0.88 
   8  -3  -2    1.03    0.21 
  -8  -3   2    1.01    0.34 
   8   3  -2    0.96    0.20 
  -8   3   2    0.91    0.34 
  -7  -3   2    0.50    0.28 
   7  -3  -2    0.15    0.16 
  -7   3   2    0.34    0.27 
   7   3  -2    0.73    0.18 
  -6  -3   2   15.34    1.33 
   6  -3  -2   20.88    1.02 
  -6   3   2   19.52    1.36 
   6   3  -2   20.08    1.00 
   6   3  -2   20.47    1.14 
   5  -3  -2    7.38    0.47 
   5  -3  -2    8.28    0.52 
  -5  -3   2    6.73    0.66 
  -5   3   2    6.58    0.64 
   5   3  -2    7.98    0.50 
   5   3  -2    7.20    0.45 
  -4  -3   2   -0.09    0.18 
   4  -3  -2    0.11    0.12 
  -4   3   2   -0.03    0.16 
   4   3  -2   -0.04    0.09 
  -4   3   2    0.01    0.09 
   4   3  -2   -0.01    0.10 
  -3  -3   2   19.58    1.20 
   3   3  -2   19.37    1.12 
  -3   3   2   18.65    0.94 
  -3   3   2   18.52    1.10 
  -3   3   2   18.59    1.16 
   3   3  -2   18.44    0.92 
  -2  -3   2   46.56    2.27 
  -2  -3   2   51.70    2.84 
  -2   3   2   47.38    2.28 
  -2   3   2   47.41    2.81 
   2   3  -2   48.49    2.75 
  -2   3   2   51.32    2.74 
  -1  -3   2   16.75    1.03 
  -1  -3   2   16.87    0.81 
   1   3  -2   17.27    1.02 
  -1   3   2   16.96    1.01 
  -1   3   2   17.66    0.82 
  -1   3   2   17.45    1.02 
   0  -3  -2    9.83    0.62 
   0  -3   2   10.03    0.63 
   0  -3   2   10.44    0.47 
   0   3   2   10.03    0.48 
   0   3  -2   10.01    0.62 
   0   3   2    9.03    0.61 
   1  -3   2  115.14    5.26 
  -1  -3  -2  111.44    6.54 
  -1   3  -2  117.41    6.35 
   1   3   2  118.36    5.26 
   1   3   2  112.89    6.36 
  -1   3  -2  112.60    6.52 
   2  -3   2   35.22    1.68 
  -2  -3  -2   36.24    2.14 
   2   3   2   35.37    2.05 
   2   3   2   35.09    1.68 
  -2   3  -2   36.81    2.03 
  -2   3  -2   37.37    2.11 
  -3  -3  -2    6.08    0.52 
   3  -3   2    5.62    0.33 
  -3   3  -2    5.16    0.43 
  -3   3  -2    6.36    0.38 
   3   3   2    5.57    0.33 
   3   3   2    5.89    0.41 
   4  -3   2   37.92    1.85 
  -4   3  -2   40.12    2.17 
   4   3   2   39.60    1.85 
  -4   3  -2   38.71    2.35 
   4   3   2   37.82    2.21 
  -5  -3  -2    8.71    0.87 
   5  -3   2   11.58    0.62 
   5   3   2   11.13    0.70 
   5   3   2   10.95    0.60 
  -5   3  -2   11.74    0.65 
  -5   3  -2   12.05    0.87 
   6  -3   2    0.44    0.16 
  -6  -3  -2    0.70    0.34 
   6   3   2    0.51    0.16 
  -6   3  -2    0.64    0.30 
  -7  -3  -2    4.97    0.62 
   7  -3   2    5.76    0.39 
  -7   3  -2    4.60    0.65 
   7   3   2    5.81    0.38 
  -8  -3  -2    0.03    0.25 
   8  -3   2    0.00    0.17 
  -8   3  -2   -0.23    0.29 
   8   3   2   -0.22    0.13 
   9  -3   2    3.05    0.32 
  -9  -3  -2    3.43    0.49 
  -9   3  -2    3.36    0.52 
   9   3   2    2.93    0.32 
  10  -3   2    0.10    0.17 
 -10  -3  -2    0.41    0.27 
  10   3   2    0.14    0.16 
 -10   3  -2    0.48    0.32 
  10  -4  -2    0.17    0.19 
 -10  -4   2   -0.13    0.26 
  10   4  -2    0.15    0.18 
 -10   4   2    0.17    0.27 
  -9  -4   2    2.04    0.44 
   9  -4  -2    1.83    0.28 
   9   4  -2    1.55    0.23 
  -9   4   2    1.43    0.40 
  -8  -4   2    0.22    0.27 
   8  -4  -2    0.27    0.16 
   8   4  -2    0.03    0.16 
  -8   4   2    0.15    0.26 
  -7  -4   2    0.10    0.26 
   7  -4  -2    0.36    0.18 
  -7   4   2    0.20    0.29 
   7   4  -2    0.12    0.15 
   6  -4  -2    1.23    0.22 
  -6  -4   2    1.00    0.32 
   6   4  -2    1.24    0.19 
   6   4  -2    1.46    0.20 
  -6   4   2    1.38    0.35 
   5  -4  -2   56.40    2.73 
  -5  -4   2   53.01    3.45 
   5   4  -2   60.50    3.25 
  -5   4   2   59.36    3.23 
   5   4  -2   56.55    2.71 
  -5   4   2   58.86    3.43 
  -4  -4   2    5.59    0.51 
   4  -4  -2    5.14    0.36 
   4   4  -2    5.36    0.33 
  -4   4   2    5.60    0.45 
   4   4  -2    5.36    0.41 
  -4   4   2    5.08    0.38 
  -3  -4   2   52.95    3.05 
   3   4  -2   51.17    2.94 
  -3   4   2   50.10    3.02 
   3   4  -2   52.92    2.42 
  -3   4   2   51.05    2.44 
  -3   4   2   53.01    2.92 
  -2  -4   2   15.57    1.00 
  -2   4   2   15.44    0.79 
   2   4  -2   15.39    0.97 
  -2   4   2   16.28    0.97 
  -2   4   2   16.12    0.96 
   2   4  -2   16.69    0.77 
  -1  -4   2    0.43    0.13 
  -1  -4   2    0.35    0.05 
   1  -4  -2    0.41    0.12 
  -1   4   2    0.32    0.11 
  -1   4   2    0.49    0.08 
   1   4  -2    0.05    0.11 
   0  -4  -2   -0.08    0.09 
   0  -4   2   -0.02    0.03 
   0  -4   2   -0.02    0.09 
   0   4   2    0.08    0.10 
   0   4   2   -0.06    0.04 
   0   4  -2   -0.14    0.09 
  -1  -4  -2   34.68    2.11 
   1  -4   2   36.33    1.67 
  -1   4  -2   35.62    2.05 
  -1   4  -2   36.97    2.10 
   1   4   2   34.64    2.06 
   1   4   2   37.13    1.67 
  -2  -4  -2    1.85    0.25 
   2  -4   2    1.71    0.14 
   2   4   2    1.79    0.22 
   2   4   2    1.54    0.13 
  -2   4  -2    1.53    0.18 
  -2   4  -2    1.43    0.19 
  -3  -4  -2    2.68    0.36 
   3  -4   2    3.24    0.22 
  -3   4  -2    3.08    0.30 
  -3   4  -2    2.79    0.24 
   3   4   2    2.68    0.20 
   3   4   2    3.10    0.28 
  -4  -4  -2    0.48    0.24 
   4  -4   2    0.13    0.11 
   4   4   2    0.11    0.10 
  -4   4  -2    0.00    0.08 
   4   4   2    0.18    0.13 
  -4   4  -2   -0.07    0.16 
  -5  -4  -2   44.58    3.11 
   5  -4   2   50.29    2.42 
  -5   4  -2   53.16    2.85 
   5   4   2   52.60    2.42 
  -5   4  -2   52.05    3.07 
   5   4   2   51.84    2.89 
   6  -4   2    3.49    0.31 
  -6  -4  -2    4.18    0.58 
  -6   4  -2    3.78    0.49 
   6   4   2    4.25    0.31 
   7  -4   2    1.38    0.20 
  -7  -4  -2    1.03    0.34 
  -7   4  -2    2.16    0.41 
   7   4   2    1.65    0.22 
  -8  -4  -2    3.65    0.54 
   8  -4   2    2.50    0.28 
  -8   4  -2    1.56    0.43 
   8   4   2    2.66    0.28 
   9  -4   2    1.93    0.28 
  -9  -4  -2    2.33    0.46 
  -9   4  -2    2.59    0.51 
   9   4   2    3.32    0.32 
 -10  -4  -2   -0.15    0.24 
  10  -4   2    0.00    0.16 
 -10   4  -2    0.60    0.34 
  10   4   2    0.28    0.19 
 -10  -5   2    2.29    0.44 
  10  -5  -2    2.33    0.29 
  10   5  -2    2.26    0.28 
 -10   5   2    2.65    0.46 
   9  -5  -2    1.38    0.25 
  -9  -5   2    2.52    0.48 
   9   5  -2    1.43    0.22 
  -9   5   2    2.10    0.44 
  -8  -5   2    2.04    0.45 
   8  -5  -2    2.45    0.27 
   8   5  -2    2.44    0.27 
  -8   5   2    1.39    0.38 
   7  -5  -2    0.70    0.19 
  -7  -5   2    1.01    0.36 
  -7   5   2    0.68    0.33 
   7   5  -2    0.88    0.18 
   6  -5  -2   12.23    0.68 
  -6  -5   2   11.37    0.96 
  -6   5   2   11.80    0.92 
   6   5  -2   12.70    0.78 
   6   5  -2   11.78    0.66 
   5  -5  -2   20.11    1.06 
  -5  -5   2   19.78    1.40 
   5   5  -2   20.75    1.26 
  -5   5   2   21.04    1.35 
   5   5  -2   21.29    1.04 
  -5   5   2   22.07    1.24 
  -4  -5   2    2.75    0.38 
   4  -5  -2    3.24    0.27 
   4   5  -2    2.67    0.30 
  -4   5   2    2.81    0.27 
  -4   5   2    3.42    0.35 
   4   5  -2    2.80    0.22 
   3  -5  -2   30.32    1.49 
  -3  -5   2   30.49    1.88 
   3   5  -2   30.77    1.81 
  -3   5   2   30.38    1.78 
   3   5  -2   32.29    1.46 
  -3   5   2   31.00    1.84 
  -2  -5   2   25.33    1.52 
   2   5  -2   25.61    1.17 
  -2   5   2   23.87    1.20 
  -2   5   2   24.73    1.49 
   2   5  -2   24.25    1.48 
  -2   5   2   25.91    1.47 
  -1  -5   2    0.84    0.17 
   1  -5  -2    0.98    0.17 
  -1   5   2    0.55    0.14 
  -1   5   2    0.77    0.10 
   1   5  -2    0.77    0.18 
   0  -5  -2    2.91    0.26 
   0  -5   2    2.27    0.26 
   0   5   2    2.53    0.28 
   0   5   2    2.70    0.16 
   0   5  -2    2.49    0.27 
   1  -5   2    9.65    0.64 
  -1  -5  -2    9.98    0.65 
   1  -5   2    9.25    0.46 
   1   5   2    9.36    0.64 
  -1   5  -2   10.68    0.64 
   1   5   2    9.55    0.47 
   2  -5   2   62.94    2.87 
  -2  -5  -2   60.27    3.61 
  -2   5  -2   62.66    3.49 
   2   5   2   59.72    3.50 
  -2   5  -2   63.41    3.59 
   2   5   2   62.47    2.87 
  -3  -5  -2   28.44    1.75 
   3  -5   2   28.08    1.34 
  -3   5  -2   27.91    1.69 
   3   5   2   28.49    1.65 
   3   5   2   27.52    1.33 
  -3   5  -2   28.33    1.62 
  -4  -5  -2   29.64    1.90 
   4  -5   2   31.07    1.45 
  -4   5  -2   30.22    1.73 
   4   5   2   30.55    1.44 
   4   5   2   31.22    1.77 
  -4   5  -2   28.17    1.83 
  -5  -5  -2    1.07    0.35 
   5  -5   2    1.34    0.18 
   5   5   2    1.67    0.23 
  -5   5  -2    1.37    0.28 
   5   5   2    1.63    0.18 
  -6  -5  -2    0.26    0.26 
   6  -5   2    0.13    0.14 
  -6   5  -2    0.03    0.22 
   6   5   2    0.12    0.12 
   7  -5   2    2.06    0.25 
  -7  -5  -2    1.86    0.42 
  -7   5  -2    1.89    0.44 
   7   5   2    2.85    0.27 
  -8  -5  -2   -0.18    0.28 
   8  -5   2    0.03    0.17 
   8   5   2    0.23    0.16 
  -8   5  -2   -0.17    0.31 
  -9  -5  -2    1.19    0.35 
   9  -5   2    1.50    0.23 
   9   5   2    1.21    0.22 
  -9   5  -2    1.09    0.42 
  -9  -6   2   -0.16    0.28 
   9  -6  -2   -0.04    0.17 
   9   6  -2    0.12    0.16 
  -9   6   2   -0.08    0.25 
   8  -6  -2    0.99    0.22 
  -8  -6   2    1.01    0.36 
  -8   6   2    1.34    0.40 
   8   6  -2    1.36    0.22 
   7  -6  -2   14.37    0.80 
  -7  -6   2   12.97    1.11 
  -7   6   2   14.38    1.07 
   7   6  -2   15.66    0.78 
  -6  -6   2    2.09    0.40 
   6  -6  -2    1.42    0.22 
   6   6  -2    2.46    0.29 
  -6   6   2    1.25    0.32 
   6   6  -2    2.16    0.22 
  -5  -6   2    1.99    0.36 
   5  -6  -2    1.60    0.21 
   5   6  -2    2.47    0.21 
  -5   6   2    2.35    0.26 
  -5   6   2    2.08    0.32 
   5   6  -2    2.32    0.29 
  -4  -6   2    2.97    0.40 
   4  -6  -2    3.84    0.28 
   4   6  -2    3.54    0.24 
   4   6  -2    3.79    0.35 
  -4   6   2    3.54    0.32 
  -4   6   2    3.75    0.36 
  -3  -6   2   16.38    1.07 
   3  -6  -2   15.79    0.81 
   3   6  -2   16.08    1.01 
   3   6  -2   16.84    0.78 
  -3   6   2   15.68    0.99 
  -3   6   2   15.94    1.02 
  -2  -6   2   21.75    1.34 
  -2   6   2   20.66    1.28 
   2   6  -2   19.94    1.30 
  -2   6   2   22.86    1.04 
   2   6  -2   21.89    1.00 
   1  -6  -2   66.33    3.73 
  -1  -6   2   63.91    3.74 
   1   6  -2   64.37    3.64 
  -1   6   2   62.59    2.98 
  -1   6   2   64.41    3.64 
   0  -6  -2    4.94    0.40 
   0  -6   2    4.64    0.40 
   0   6  -2    4.59    0.40 
   0   6   2    4.96    0.26 
   0   6   2    5.66    0.43 
   1  -6   2    1.13    0.08 
  -1  -6  -2    0.84    0.19 
   1  -6   2    0.98    0.21 
  -1   6  -2    0.91    0.18 
   1   6   2    1.19    0.10 
   1   6   2    1.22    0.21 
   2  -6   2   20.03    0.95 
  -2  -6  -2   18.96    1.26 
   2   6   2   21.59    0.95 
   2   6   2   19.34    1.22 
  -2   6  -2   20.05    1.23 
  -2   6  -2   19.37    1.20 
   3  -6   2    5.06    0.31 
  -3  -6  -2    5.80    0.49 
   3   6   2    5.51    0.45 
  -3   6  -2    5.22    0.43 
  -3   6  -2    5.66    0.42 
   3   6   2    5.70    0.31 
   4  -6   2    4.55    0.30 
  -4  -6  -2    4.29    0.49 
  -4   6  -2    4.80    0.42 
  -4   6  -2    4.49    0.35 
   4   6   2    3.93    0.39 
   4   6   2    4.59    0.28 
   5  -6   2    0.14    0.12 
  -5  -6  -2   -0.26    0.23 
  -5   6  -2   -0.09    0.10 
  -5   6  -2    0.02    0.20 
   5   6   2   -0.16    0.15 
   5   6   2   -0.02    0.11 
  -6  -6  -2    0.18    0.32 
   6  -6   2    0.00    0.13 
  -6   6  -2   -0.13    0.19 
   6   6   2    0.05    0.12 
   7  -6   2    9.90    0.57 
  -7  -6  -2    8.52    0.85 
  -7   6  -2    9.53    0.84 
   7   6   2    9.82    0.55 
  -8  -6  -2    2.96    0.53 
   8  -6   2    4.69    0.38 
   8   6   2    4.63    0.35 
  -8   6  -2    4.32    0.62 
  -9  -6  -2    3.13    0.54 
   9  -6   2    3.34    0.34 
  -9   6  -2    3.14    0.54 
   9   6   2    3.94    0.34 
   9  -7  -2    0.50    0.19 
  -9  -7   2    0.23    0.31 
  -9   7   2    0.52    0.32 
  -8  -7   2    6.35    0.80 
   8  -7  -2    9.80    0.57 
  -8   7   2    8.92    0.82 
   8   7  -2    9.28    0.56 
  -7  -7   2    0.50    0.34 
   7  -7  -2    0.70    0.19 
   7   7  -2    0.80    0.17 
  -7   7   2    0.90    0.32 
   6  -7  -2    1.70    0.23 
  -6  -7   2    2.00    0.39 
   6   7  -2    1.81    0.28 
   6   7  -2    2.36    0.22 
  -6   7   2    1.77    0.32 
   5  -7  -2    3.80    0.32 
  -5  -7   2    3.68    0.47 
   5   7  -2    4.36    0.40 
  -5   7   2    3.68    0.40 
   5   7  -2    4.23    0.28 
  -5   7   2    4.06    0.35 
   4  -7  -2    1.02    0.16 
  -4  -7   2    1.10    0.28 
  -4   7   2    1.11    0.20 
   4   7  -2    1.53    0.14 
  -4   7   2    0.99    0.23 
   4   7  -2    0.89    0.23 
   3  -7  -2    0.96    0.14 
  -3  -7   2    0.61    0.23 
  -3   7   2    0.68    0.18 
   3   7  -2    0.64    0.21 
  -3   7   2    0.67    0.18 
   3   7  -2    0.69    0.08 
   2  -7  -2    1.44    0.15 
  -2  -7   2    1.75    0.28 
   2  -7  -2    1.35    0.24 
   2   7  -2    1.55    0.25 
  -2   7   2    1.30    0.22 
  -1  -7   2    9.61    0.70 
   1  -7  -2    9.64    0.69 
  -1   7   2    9.65    0.70 
   1   7  -2   10.91    0.72 
  -1   7   2   10.62    0.51 
   0  -7   2   72.86    4.29 
   0  -7  -2   74.75    4.29 
   0   7  -2   73.43    4.19 
   0   7   2   76.02    4.20 
   0   7   2   73.42    3.41 
   1  -7   2    8.93    0.40 
   1  -7   2    8.07    0.61 
  -1  -7  -2    8.51    0.63 
   1   7   2    8.30    0.41 
   1   7   2    7.83    0.62 
  -1   7  -2    9.05    0.61 
   2  -7   2   17.85    1.15 
   2  -7   2   18.31    0.85 
  -2  -7  -2   17.55    1.15 
   2   7   2   18.69    0.85 
   2   7   2   17.07    1.12 
  -2   7  -2   16.86    1.09 
   3  -7   2    7.50    0.39 
  -3  -7  -2    7.24    0.60 
   3   7   2    6.85    0.54 
  -3   7  -2    7.05    0.54 
   3   7   2    6.96    0.37 
  -3   7  -2    6.84    0.51 
  -4  -7  -2    0.08    0.21 
   4  -7   2    0.16    0.10 
   4   7   2    0.27    0.10 
  -4   7  -2   -0.02    0.13 
  -4   7  -2    0.21    0.18 
   4   7   2   -0.33    0.15 
   5  -7   2    0.04    0.12 
  -5  -7  -2    0.11    0.27 
   5   7   2    0.16    0.11 
  -5   7  -2    0.23    0.18 
  -5   7  -2    0.16    0.13 
   5   7   2    0.08    0.18 
   6  -7   2   14.99    0.83 
  -6  -7  -2   14.76    1.19 
   6   7   2   16.88    1.06 
  -6   7  -2   16.31    1.10 
   6   7   2   16.41    0.82 
  -7  -7  -2    0.23    0.30 
   7  -7   2    0.21    0.16 
   7   7   2    0.45    0.15 
  -7   7  -2    0.51    0.28 
  -8  -7  -2   -0.11    0.23 
   8  -7   2   -0.10    0.14 
   8   7   2    0.11    0.15 
  -8   7  -2   -0.18    0.31 
   9  -7   2    0.08    0.18 
  -9  -7  -2    0.17    0.30 
  -9   7  -2   -0.22    0.33 
   9  -8  -2   -0.21    0.17 
  -9  -8   2   -0.21    0.24 
  -9   8   2   -0.07    0.30 
   8  -8  -2   -0.06    0.16 
  -8  -8   2    0.11    0.27 
  -8   8   2   -0.09    0.29 
   7  -8  -2    3.22    0.32 
  -7  -8   2    3.76    0.58 
  -7   8   2    3.27    0.44 
   6  -8  -2    1.52    0.22 
  -6  -8   2    1.68    0.36 
  -6   8   2    1.61    0.30 
   6   8  -2    1.85    0.29 
   5  -8  -2    2.37    0.24 
  -5  -8   2    2.15    0.40 
  -5   8   2    3.10    0.32 
   5   8  -2    2.80    0.35 
  -5   8   2    2.45    0.33 
   4  -8  -2   39.07    1.86 
  -4  -8   2   39.77    2.40 
  -4   8   2   37.90    2.33 
   4   8  -2   38.96    2.29 
  -4   8   2   39.91    2.27 
  -3  -8   2    7.37    0.63 
   3  -8  -2    7.38    0.59 
   3  -8  -2    7.75    0.42 
   3   8  -2    7.75    0.60 
  -3   8   2    7.24    0.55 
  -2  -8   2    1.61    0.28 
   2  -8  -2    1.98    0.16 
   2  -8  -2    1.89    0.29 
  -2   8   2    1.44    0.26 
   2   8  -2    2.29    0.31 
  -1  -8   2   19.03    1.15 
   1  -8  -2   17.84    1.14 
   1   8  -2   16.97    1.12 
  -1   8   2   17.15    1.12 
   0  -8  -2   -0.25    0.16 
   0  -8   2    0.24    0.18 
   0   8   2    0.22    0.17 
   0   8  -2    0.03    0.15 
   1  -8   2    0.32    0.19 
  -1  -8  -2    0.14    0.19 
  -1   8  -2    0.19    0.16 
   1   8   2    0.07    0.16 
  -2  -8  -2   36.51    2.13 
   2  -8   2   35.85    2.11 
  -2   8  -2   32.91    2.03 
   2   8   2   34.20    2.06 
  -3  -8  -2    0.83    0.26 
   3  -8   2    0.64    0.10 
  -3   8  -2    0.71    0.19 
   3   8   2    0.39    0.20 
  -3   8  -2    0.43    0.17 
  -4  -8  -2   11.07    0.89 
   4  -8   2   12.98    0.63 
  -4   8  -2   11.92    0.83 
  -4   8  -2   12.32    0.79 
   4   8   2   11.98    0.84 
   5  -8   2    1.65    0.18 
  -5  -8  -2    2.06    0.40 
  -5   8  -2    1.10    0.21 
   5   8   2    0.93    0.25 
  -5   8  -2    1.38    0.28 
  -6  -8  -2    6.43    0.75 
   6  -8   2    8.39    0.47 
   6   8   2    7.62    0.60 
  -6   8  -2    7.26    0.65 
  -7  -8  -2    2.46    0.48 
   7  -8   2    3.73    0.31 
  -7   8  -2    3.21    0.45 
  -8  -8  -2    0.40    0.31 
   8  -8   2    0.06    0.16 
  -8   8  -2    0.15    0.31 
  -8  -9   2    0.27    0.29 
  -8   9   2    0.31    0.30 
  -7  -9   2    1.76    0.44 
  -7   9   2    1.86    0.37 
  -6  -9   2    5.59    0.67 
   6   9  -2    7.44    0.58 
  -6   9   2    7.79    0.62 
  -5  -9   2    2.02    0.37 
  -5   9   2    2.68    0.35 
   5   9  -2    2.25    0.34 
  -5   9   2    2.12    0.29 
   4  -9  -2    0.36    0.21 
  -4  -9   2    0.15    0.25 
   4   9  -2    0.35    0.21 
  -4   9   2    0.18    0.17 
   3  -9  -2    8.70    0.66 
  -3  -9   2    8.34    0.70 
  -3   9   2    9.45    0.65 
   3   9  -2    8.45    0.66 
   2  -9  -2    8.29    0.64 
  -2  -9   2    8.64    0.66 
  -2   9   2    8.18    0.61 
   2   9  -2    8.04    0.63 
  -1  -9   2    3.41    0.38 
   1  -9  -2    2.84    0.34 
  -1   9   2    2.63    0.34 
   1   9  -2    2.34    0.34 
   0  -9  -2    1.16    0.25 
   0  -9   2    1.46    0.27 
   0   9   2    1.47    0.27 
   0   9  -2    1.96    0.29 
  -1  -9  -2    2.11    0.32 
   1  -9   2    1.48    0.28 
  -1   9  -2    1.59    0.27 
   1   9   2    1.55    0.28 
  -2  -9  -2    5.94    0.52 
   2  -9   2    4.98    0.51 
  -2   9  -2    5.95    0.49 
   2   9   2    6.55    0.52 
   3  -9   2   21.50    1.38 
  -3  -9  -2   21.42    1.41 
   3   9   2   22.08    1.36 
  -3   9  -2   21.19    1.32 
  -4  -9  -2    7.33    0.71 
   4   9   2    8.50    0.66 
  -4   9  -2    8.56    0.60 
  -4   9  -2    8.57    0.63 
  -5  -9  -2    2.65    0.46 
  -5   9  -2    2.49    0.29 
  -5   9  -2    2.22    0.32 
   5   9   2    1.64    0.31 
  -6  -9  -2    0.56    0.31 
   6   9   2    1.18    0.27 
  -6   9  -2    1.19    0.30 
  -7  -9  -2   -0.11    0.27 
  -7   9  -2    0.22    0.24 
  -8  -9  -2    0.10    0.27 
  -8   9  -2    0.22    0.27 
  -7 -10   2    0.55    0.34 
  -7  10   2    0.85    0.29 
  -6 -10   2    4.09    0.58 
   6  10  -2    5.98    0.52 
  -6  10   2    5.72    0.53 
  -5 -10   2    3.92    0.51 
   5 -10  -2    3.28    0.41 
  -5  10   2    3.60    0.39 
   5  10  -2    4.38    0.46 
  -4 -10   2    2.93    0.43 
   4 -10  -2    2.93    0.37 
   4  10  -2    2.90    0.38 
  -4  10   2    2.47    0.33 
   3 -10  -2    0.48    0.23 
  -3 -10   2    0.71    0.27 
  -3  10   2    0.41    0.19 
   3  10  -2    0.67    0.24 
   2 -10  -2   17.37    1.09 
  -2 -10   2   15.30    1.08 
  -2  10   2   16.62    1.06 
   2  10  -2   15.42    1.06 
  -1 -10   2    7.81    0.62 
   1 -10  -2    7.79    0.61 
   1  10  -2    7.20    0.60 
  -1  10   2    7.45    0.60 
   0 -10   2    3.02    0.37 
   0 -10  -2    3.56    0.39 
   0  10  -2    3.86    0.42 
   0  10   2    3.39    0.42 
  -1 -10  -2    3.60    0.43 
   1 -10   2    4.42    0.45 
   1  10   2    3.05    0.41 
  -1  10  -2    3.86    0.41 
   2 -10   2    2.60    0.37 
  -2 -10  -2    2.39    0.37 
   2  10   2    2.84    0.37 
  -2  10  -2    2.93    0.36 
   3 -10   2    0.46    0.22 
  -3 -10  -2    1.03    0.30 
   3  10   2    0.95    0.26 
  -3  10  -2    0.78    0.22 
  -4 -10  -2    0.08    0.25 
   4 -10   2   -0.12    0.17 
  -4  10  -2    0.00    0.16 
   4  10   2   -0.06    0.21 
  -5 -10  -2    6.87    0.73 
  -5  10  -2    6.86    0.54 
  -5  10  -2    7.28    0.59 
   5  10   2    6.48    0.59 
  -6 -10  -2    2.34    0.47 
   6  10   2    2.78    0.42 
  -6  10  -2    2.58    0.37 
  -7 -10  -2    0.65    0.37 
  -7  10  -2    0.82    0.31 
  -7 -11   2    0.70    0.38 
  -6 -11   2   -0.13    0.26 
   6 -11  -2    0.09    0.21 
   6  11  -2    0.07    0.21 
  -5 -11   2    0.45    0.31 
   5 -11  -2    0.38    0.25 
   5  11  -2    0.24    0.23 
  -5  11   2    0.24    0.21 
   4 -11  -2    0.11    0.19 
  -4 -11   2    0.01    0.25 
   4  11  -2    0.16    0.20 
  -4  11   2    0.31    0.21 
  -3 -11   2    4.17    0.47 
   3 -11  -2    3.33    0.40 
  -3  11   2    2.94    0.37 
   3  11  -2    2.76    0.41 
  -2 -11   2   -0.12    0.18 
   2 -11  -2    0.01    0.20 
   2  11  -2    0.03    0.19 
  -2  11   2    0.35    0.20 
  -1 -11   2    7.99    0.66 
   1 -11  -2    7.86    0.65 
   1  11  -2    7.89    0.66 
  -1  11   2    9.39    0.66 
   0 -11   2    0.40    0.23 
   0 -11  -2    0.60    0.23 
   0  11   2    0.43    0.22 
   0  11  -2    0.26    0.20 
  -1 -11  -2   23.11    1.45 
   1 -11   2   22.46    1.43 
  -1  11  -2   22.19    1.39 
   1  11   2   21.61    1.41 
  -2 -11  -2    0.33    0.21 
   2 -11   2    0.41    0.22 
  -2  11  -2    0.19    0.18 
   2  11   2   -0.15    0.18 
   3 -11   2    0.20    0.21 
  -3 -11  -2   -0.03    0.24 
   3  11   2    0.25    0.24 
  -3  11  -2    0.17    0.17 
  -4 -11  -2    0.19    0.27 
   4 -11   2    0.53    0.22 
   4  11   2    0.19    0.23 
  -4  11  -2    0.10    0.18 
   5 -11   2    4.19    0.52 
  -5 -11  -2    7.63    0.69 
  -5  11  -2    5.66    0.50 
   5  11   2    6.25    0.55 
   6 -11   2   -0.15    0.18 
  -6 -11  -2    0.23    0.32 
   6 -12  -2    2.11    0.36 
  -6 -12   2    2.04    0.44 
   6  12  -2    1.64    0.32 
  -5 -12   2    1.97    0.43 
   5 -12  -2    2.92    0.40 
  -5  12   2    2.56    0.37 
   5  12  -2    2.75    0.39 
   4 -12  -2    0.96    0.28 
  -4 -12   2    0.85    0.31 
   4  12  -2    1.02    0.27 
  -4  12   2    1.04    0.26 
  -3 -12   2    0.34    0.23 
   3 -12  -2    0.61    0.23 
   3  12  -2    0.21    0.25 
  -3  12   2    0.43    0.23 
   2 -12  -2    7.40    0.61 
  -2 -12   2    7.32    0.64 
   2  12  -2    6.17    0.64 
  -2  12   2    7.32    0.59 
   1 -12  -2    1.79    0.31 
  -1 -12   2    0.89    0.27 
  -1  12   2    1.87    0.31 
   1  12  -2    1.24    0.29 
   0 -12   2    1.98    0.34 
   0 -12  -2    2.55    0.37 
   0  12   2    2.67    0.37 
   0  12  -2    2.57    0.38 
  -1 -12  -2    2.72    0.40 
   1 -12   2    4.10    0.46 
  -1  12  -2    3.54    0.42 
   1  12   2    2.92    0.41 
  -2 -12  -2    0.55    0.25 
   2 -12   2    0.71    0.26 
   2  12   2    0.23    0.23 
  -2  12  -2    0.73    0.22 
   3 -12   2    0.10    0.20 
  -3 -12  -2   -0.23    0.23 
   3  12   2   -0.04    0.23 
  -3  12  -2   -0.15    0.18 
  -4 -12  -2    0.33    0.26 
   4 -12   2    0.47    0.26 
  -4  12  -2    0.45    0.21 
   4  12   2    0.49    0.24 
  -5 -12  -2    2.97    0.46 
   5 -12   2    2.34    0.36 
   5  12   2    2.59    0.39 
   4 -13  -2    0.58    0.26 
  -4 -13   2    0.31    0.29 
  -4  13   2    0.32    0.22 
   4  13  -2    0.47    0.24 
   3 -13  -2    3.16    0.42 
  -3 -13   2    2.72    0.42 
  -3  13   2    2.38    0.36 
   3  13  -2    2.26    0.40 
   2 -13  -2    2.50    0.37 
  -2 -13   2    2.00    0.34 
   2  13  -2    2.14    0.36 
  -2  13   2    2.12    0.34 
  -1 -13   2    0.51    0.26 
   1 -13  -2    0.66    0.23 
  -1  13   2    0.21    0.22 
   1  13  -2    0.02    0.20 
   0 -13   2    0.26    0.24 
   0 -13  -2    0.06    0.23 
   0  13   2    0.55    0.27 
   0  13  -2    0.51    0.23 
  -1 -13  -2   -0.04    0.23 
   1 -13   2    0.17    0.22 
  -1  13  -2    0.43    0.24 
   1  13   2    0.40    0.23 
   2 -13   2    1.69    0.34 
  -2 -13  -2    1.88    0.34 
  -2  13  -2    1.73    0.30 
   2  13   2    1.22    0.31 
   3 -13   2    7.54    0.65 
  -3 -13  -2    6.06    0.62 
  -3  13  -2    6.59    0.58 
   3  13   2    7.77    0.66 
   4 -13   2    4.47    0.52 
  -4 -13  -2    4.79    0.58 
   4  13   2    4.36    0.51 
  -4  13  -2    4.23    0.45 
   3 -14  -2    2.24    0.36 
  -3 -14   2    2.61    0.40 
  -3  14   2    2.50    0.38 
   3  14  -2    3.34    0.45 
  -2 -14   2   -0.03    0.20 
   2 -14  -2   -0.11    0.22 
   2  14  -2    0.27    0.23 
  -2  14   2   -0.17    0.21 
   1 -14  -2    2.78    0.39 
  -1 -14   2    2.23    0.40 
   1  14  -2    3.34    0.44 
  -1  14   2    2.59    0.41 
   0 -14  -2    0.14    0.23 
   0 -14   2   -0.14    0.20 
   0  14   2    0.27    0.23 
   0  14  -2    0.00    0.20 
  -1 -14  -2   -0.32    0.21 
   1 -14   2    0.23    0.25 
   1  14   2    0.10    0.24 
  -1  14  -2    0.04    0.20 
  -2 -14  -2    0.82    0.31 
   2 -14   2    1.51    0.33 
   2  14   2    1.55    0.35 
  -2  14  -2    1.46    0.29 
 -10   0   3    0.22    0.22 
  10   0  -3    0.12    0.19 
  -9   0   3    6.45    0.59 
   9   0  -3    5.66    0.44 
   8   0  -3    0.10    0.16 
  -8   0   3    0.28    0.23 
   7   0  -3    5.88    0.44 
  -7   0   3    7.38    0.63 
  -6   0   3    0.37    0.25 
   6   0  -3   -0.08    0.15 
   5   0  -3   36.90    2.22 
  -5   0   3   43.41    2.47 
   5   0  -3   39.96    1.92 
  -4   0   3   -0.08    0.20 
   4   0  -3   -0.07    0.11 
  -4   0   3    0.06    0.12 
   3   0  -3    4.24    0.38 
  -3   0   3    5.85    0.48 
  -3   0   3    4.23    0.29 
  -2   0   3   -0.10    0.07 
   2   0  -3   -0.18    0.18 
  -2   0   3    0.13    0.16 
   1   0  -3    3.15    0.41 
  -1   0   3    3.83    0.20 
  -1   0   3    2.70    0.26 
   0   0  -3   -0.10    0.20 
   0   0   3    0.08    0.05 
   0   0  -3   -0.01    0.02 
   0   0   3    0.01    0.04 
   1   0   3 1000.00   44.56 
  -1   0  -3  943.88   55.12 
  -2   0  -3   -0.15    0.14 
   2   0   3   -0.01    0.06 
  -2   0  -3    0.07    0.18 
   3   0   3    3.77    0.24 
  -3   0  -3    3.90    0.32 
  -3   0  -3    3.67    0.45 
  -4   0  -3   -0.01    0.21 
  -4   0  -3   -0.06    0.07 
   4   0   3   -0.07    0.09 
  -5   0  -3   10.17    0.84 
   5   0   3    9.50    0.54 
   6   0   3   -0.04    0.14 
  -6   0  -3    0.10    0.27 
  -7   0  -3    3.46    0.52 
   7   0   3    3.97    0.35 
   8   0   3    0.06    0.17 
  -8   0  -3   -0.17    0.23 
  -9   0  -3    3.33    0.52 
   9   0   3    2.45    0.30 
 -10   0  -3    0.07    0.27 
  10   0   3   -0.06    0.18 
  10  -1  -3    0.03    0.17 
 -10  -1   3    0.16    0.24 
  10   1  -3    0.05    0.18 
 -10   1   3    0.10    0.22 
   9  -1  -3    5.80    0.45 
  -9  -1   3    6.74    0.64 
   9   1  -3    5.84    0.46 
  -9   1   3    6.94    0.62 
  -8  -1   3    8.13    0.73 
   8  -1  -3    8.29    0.54 
   8   1  -3    8.15    0.53 
  -8   1   3    8.08    0.71 
   7  -1  -3    2.95    0.30 
  -7  -1   3    3.38    0.46 
   7   1  -3    3.01    0.30 
  -7   1   3    3.37    0.48 
  -6  -1   3   47.28    2.80 
   6  -1  -3   44.92    2.20 
  -6   1   3   46.82    2.81 
   6   1  -3   43.60    2.19 
   5  -1  -3    2.82    0.25 
  -5  -1   3    2.88    0.43 
   5  -1  -3    1.91    0.25 
  -5   1   3    2.58    0.40 
   5   1  -3    2.76    0.23 
   5   1  -3    2.28    0.24 
   4  -1  -3   14.36    0.86 
  -4  -1   3   13.04    0.71 
  -4  -1   3   13.62    0.97 
  -4   1   3   13.61    0.72 
   4   1  -3   13.48    0.82 
  -4   1   3   13.02    0.96 
  -3  -1   3   36.91    2.50 
  -3  -1   3   42.00    1.99 
   3  -1  -3   42.90    2.42 
  -3   1   3   45.76    2.00 
   3   1  -3   42.28    2.39 
  -3   1   3   41.58    2.51 
   2  -1  -3    8.28    0.55 
  -2  -1   3    7.30    0.40 
  -2  -1   3    8.23    0.54 
   2   1  -3    7.01    0.53 
  -2   1   3    7.97    0.42 
  -2   1   3    7.55    0.51 
  -1  -1   3   85.49    4.70 
  -1  -1   3   83.28    3.80 
   1  -1  -3   84.99    4.62 
   1   1  -3   77.74    4.63 
  -1   1   3   81.95    3.80 
  -1   1   3   81.06    4.68 
   0  -1  -3    1.59    0.13 
   0  -1   3    1.45    0.11 
   0   1  -3    1.75    0.26 
   0   1   3    1.34    0.12 
   0   1  -3    1.56    0.12 
  -1  -1  -3    8.92    0.64 
   1  -1   3    9.09    0.45 
  -1   1  -3    9.49    0.61 
   1   1   3    8.38    0.58 
   1   1   3    9.17    0.45 
  -1   1  -3    9.29    0.56 
   2  -1   3   22.75    1.09 
  -2  -1  -3   18.34    1.44 
  -2  -1  -3   25.71    1.39 
  -2   1  -3   23.74    1.33 
  -2   1  -3   23.48    1.38 
   2   1   3   23.14    1.10 
   3  -1   3   34.99    1.69 
  -3  -1  -3   36.99    2.08 
  -3  -1  -3   33.28    2.22 
  -3   1  -3   36.04    2.00 
  -3   1  -3   36.69    2.16 
   3   1   3   35.11    1.68 
   4  -1   3   20.44    1.02 
  -4  -1  -3   20.70    1.43 
  -4  -1  -3   21.25    1.25 
  -4   1  -3   20.81    1.16 
   4   1   3   20.16    1.02 
  -4   1  -3   20.61    1.37 
  -5  -1  -3   18.35    1.22 
  -5  -1  -3   16.51    0.93 
   5  -1   3   16.02    0.85 
  -5   1  -3   16.05    1.17 
   5   1   3   15.31    0.83 
   6  -1   3    5.92    0.41 
  -6  -1  -3    6.86    0.74 
  -6   1  -3    6.04    0.69 
   6   1   3    6.39    0.41 
  -7  -1  -3    1.65    0.40 
   7  -1   3    1.82    0.25 
   7   1   3    1.80    0.24 
  -7   1  -3    2.18    0.47 
   8  -1   3   10.17    0.65 
  -8  -1  -3   11.33    0.94 
   8   1   3   10.85    0.65 
  -8   1  -3   11.96    0.96 
  -9  -1  -3    1.80    0.41 
   9  -1   3    1.85    0.27 
  -9   1  -3    2.20    0.45 
   9   1   3    1.72    0.25 
  10  -1   3    1.19    0.25 
 -10  -1  -3    1.18    0.36 
  10   1   3    0.98    0.22 
 -10   1  -3    1.37    0.38 
  10  -2  -3    2.42    0.31 
 -10  -2   3    1.57    0.35 
  10   2  -3    1.96    0.28 
 -10   2   3    2.11    0.39 
  -9  -2   3    1.05    0.32 
   9  -2  -3    1.14    0.25 
  -9   2   3    1.30    0.33 
   9   2  -3    1.14    0.21 
   8  -2  -3    2.54    0.31 
  -8  -2   3    2.10    0.40 
  -8   2   3    3.60    0.50 
   8   2  -3    2.74    0.30 
  -7  -2   3    0.25    0.27 
   7  -2  -3    0.34    0.18 
  -7   2   3    0.26    0.28 
   7   2  -3    0.09    0.14 
   6  -2  -3    5.47    0.40 
  -6  -2   3    5.92    0.63 
   6   2  -3    6.00    0.38 
  -6   2   3    5.42    0.62 
   6   2  -3    5.24    0.38 
   5  -2  -3    1.54    0.23 
  -5  -2   3    0.90    0.30 
   5  -2  -3    0.94    0.19 
  -5   2   3    0.98    0.31 
   5   2  -3    1.23    0.18 
   5   2  -3    1.72    0.19 
   4  -2  -3    0.32    0.15 
  -4  -2   3    0.45    0.22 
  -4   2   3    0.32    0.13 
  -4   2   3    0.29    0.18 
   4   2  -3    0.22    0.12 
   4   2  -3    0.41    0.13 
  -3  -2   3   45.08    2.21 
  -3  -2   3   47.47    2.79 
   3  -2  -3   48.61    2.67 
   3   2  -3   46.99    2.66 
  -3   2   3   47.17    2.76 
  -3   2   3   47.15    2.23 
  -2  -2   3  110.31    5.17 
  -2  -2   3  116.32    6.41 
  -2   2   3  113.14    6.38 
  -2   2   3  110.33    6.22 
   2   2  -3  113.51    6.24 
  -2   2   3  109.29    5.18 
  -1  -2   3   90.49    4.19 
  -1  -2   3   92.58    5.20 
  -1   2   3   87.47    5.07 
  -1   2   3   94.99    5.18 
   1   2  -3   89.00    5.09 
  -1   2   3   92.20    4.20 
   0  -2   3    3.96    0.29 
   0  -2   3    4.22    0.22 
   0  -2  -3    4.34    0.29 
   0   2   3    4.09    0.32 
   0   2   3    4.53    0.23 
   0   2  -3    4.42    0.33 
  -1  -2  -3    1.75    0.19 
   1  -2   3    1.53    0.12 
   1   2   3    1.20    0.17 
   1   2   3    1.28    0.11 
  -1   2  -3    1.48    0.16 
  -1   2  -3    1.28    0.17 
   2  -2   3   -0.06    0.06 
  -2  -2  -3   -0.08    0.16 
  -2   2  -3    0.16    0.08 
   2   2   3    0.23    0.11 
   2   2   3    0.10    0.07 
  -2   2  -3    0.16    0.10 
   3  -2   3   20.87    1.00 
  -3  -2  -3   17.45    1.35 
  -3   2  -3   20.02    1.28 
   3   2   3   21.30    1.00 
   3   2   3   21.25    1.22 
  -3   2  -3   21.14    1.18 
   4  -2   3   44.71    2.10 
  -4  -2  -3   39.86    2.74 
   4   2   3   41.74    2.52 
  -4   2  -3   46.57    2.47 
   4   2   3   45.43    2.10 
  -4   2  -3   46.49    2.68 
  -5  -2  -3   13.86    0.79 
   5  -2   3   11.27    0.65 
  -5  -2  -3   12.86    1.00 
  -5   2  -3   11.84    0.91 
   5   2   3   10.98    0.65 
  -6  -2  -3    0.85    0.32 
   6  -2   3    0.46    0.15 
   6   2   3    0.57    0.15 
  -6   2  -3    0.19    0.28 
   7  -2   3    2.79    0.28 
  -7  -2  -3    3.45    0.52 
   7   2   3    2.70    0.29 
  -7   2  -3    2.54    0.47 
  -8  -2  -3    5.89    0.67 
   8  -2   3    6.55    0.44 
   8   2   3    5.62    0.42 
  -8   2  -3    6.81    0.77 
  -9  -2  -3    0.31    0.30 
   9  -2   3    0.25    0.19 
   9   2   3    0.61    0.20 
  -9   2  -3    0.69    0.32 
 -10  -2  -3    0.62    0.30 
  10  -2   3    0.40    0.19 
 -10   2  -3    0.31    0.31 
  10   2   3    0.07    0.18 
 -10  -3   3    4.07    0.53 
  10  -3  -3    3.68    0.37 
  10   3  -3    3.79    0.36 
 -10   3   3    3.96    0.50 
  -9  -3   3    0.70    0.32 
   9  -3  -3    0.17    0.17 
   9   3  -3    0.70    0.20 
  -9   3   3    0.90    0.33 
  -8  -3   3    2.73    0.46 
   8  -3  -3    2.53    0.29 
  -8   3   3    2.69    0.43 
   8   3  -3    2.49    0.28 
   7  -3  -3   16.91    0.91 
  -7  -3   3   15.70    1.20 
   7   3  -3   15.81    0.88 
  -7   3   3   18.88    1.24 
  -6  -3   3    2.87    0.48 
   6  -3  -3    3.28    0.31 
  -6   3   3    3.96    0.51 
   6   3  -3    3.46    0.29 
   6   3  -3    3.51    0.31 
   5  -3  -3   18.62    1.11 
  -5  -3   3   16.47    1.24 
   5  -3  -3   18.91    0.95 
   5   3  -3   17.53    0.92 
   5   3  -3   18.38    1.08 
  -5   3   3   18.71    1.23 
  -4  -3   3   61.32    3.54 
   4   3  -3   59.06    3.35 
   4   3  -3   58.69    2.80 
  -4   3   3   60.34    3.35 
  -4   3   3   58.21    3.49 
  -4   3   3   60.07    2.82 
  -3  -3   3    4.08    0.27 
  -3  -3   3    4.48    0.39 
  -3   3   3    3.96    0.34 
   3   3  -3    4.55    0.34 
  -3   3   3    4.85    0.34 
  -3   3   3    4.28    0.29 
  -2  -3   3   30.49    1.45 
  -2  -3   3   30.43    1.82 
  -2   3   3   31.36    1.47 
  -2   3   3   30.02    1.79 
  -2   3   3   31.82    1.77 
   2   3  -3   30.44    1.78 
  -1  -3   3    6.08    0.32 
  -1  -3   3    6.54    0.43 
  -1   3   3    6.29    0.33 
   1   3  -3    6.51    0.45 
  -1   3   3    6.54    0.44 
   0  -3   3   75.29    4.40 
   0  -3   3   78.49    3.54 
   0  -3  -3   79.07    4.40 
   0   3   3   79.10    3.55 
   0   3  -3   73.99    4.30 
   0   3   3   75.39    4.30 
  -1  -3  -3    0.31    0.12 
   1  -3   3    0.42    0.07 
  -1   3  -3    0.28    0.10 
   1   3   3    0.42    0.13 
   1   3   3    0.37    0.07 
  -1   3  -3    0.51    0.10 
   2  -3   3   20.10    0.97 
  -2  -3  -3   20.60    1.27 
   2   3   3   19.98    1.20 
  -2   3  -3   20.37    1.22 
   2   3   3   19.40    0.97 
  -2   3  -3   21.40    1.18 
  -3  -3  -3   22.15    1.45 
   3  -3   3   21.92    1.09 
   3   3   3   23.18    1.33 
   3   3   3   23.09    1.09 
  -3   3  -3   21.39    1.38 
  -3   3  -3   23.51    1.30 
  -4  -3  -3   11.62    0.96 
   4  -3   3   12.21    0.65 
   4   3   3   12.65    0.80 
   4   3   3   12.52    0.65 
  -4   3  -3   13.24    0.75 
  -4   3  -3   12.78    0.87 
  -5  -3  -3    7.15    0.80 
   5  -3   3    7.46    0.47 
   5   3   3    7.61    0.54 
   5   3   3    7.87    0.46 
  -5   3  -3    8.24    0.47 
  -5   3  -3    7.68    0.67 
  -6  -3  -3   28.71    1.98 
   6  -3   3   30.58    1.49 
  -6   3  -3   29.56    1.95 
   6   3   3   30.95    1.48 
   7  -3   3    4.91    0.38 
  -7  -3  -3    5.15    0.61 
   7   3   3    3.83    0.35 
  -7   3  -3    4.35    0.60 
  -8  -3  -3    0.99    0.36 
   8  -3   3    0.57    0.20 
  -8   3  -3    0.72    0.33 
   8   3   3    1.02    0.21 
  -9  -3  -3    4.25    0.57 
   9  -3   3    3.46    0.35 
  -9   3  -3    4.73    0.63 
   9   3   3    3.35    0.34 
 -10  -3  -3    0.48    0.29 
  10  -3   3   -0.20    0.18 
  10   3   3   -0.02    0.15 
 -10   3  -3    0.26    0.29 
  10  -4  -3    0.39    0.20 
 -10  -4   3   -0.07    0.23 
 -10   4   3    0.00    0.26 
  10   4  -3    0.27    0.18 
  -9  -4   3    0.13    0.25 
   9  -4  -3   -0.04    0.16 
  -9   4   3    0.02    0.23 
   9   4  -3   -0.24    0.15 
   8  -4  -3   12.26    0.72 
  -8  -4   3   12.90    1.03 
  -8   4   3   13.09    1.02 
   8   4  -3   12.88    0.72 
   7  -4  -3    1.07    0.21 
  -7  -4   3    0.29    0.26 
  -7   4   3    0.23    0.25 
   7   4  -3    0.65    0.16 
   6  -4  -3    0.75    0.20 
  -6  -4   3    0.82    0.30 
  -6   4   3    1.16    0.32 
   6   4  -3    0.92    0.17 
   6   4  -3    1.05    0.18 
  -5  -4   3   -0.19    0.23 
   5  -4  -3   -0.06    0.14 
   5   4  -3   -0.08    0.12 
  -5   4   3    0.01    0.12 
  -5   4   3   -0.02    0.19 
   5   4  -3   -0.11    0.11 
  -4  -4   3   27.26    1.68 
  -4   4   3   26.92    1.56 
  -4   4   3   26.20    1.62 
   4   4  -3   25.81    1.29 
  -4   4   3   26.53    1.32 
   4   4  -3   27.44    1.57 
  -3  -4   3   12.76    0.80 
  -3   4   3   12.20    0.74 
   3   4  -3   11.61    0.59 
   3   4  -3   11.00    0.74 
  -3   4   3   10.58    0.73 
  -3   4   3   11.48    0.62 
  -2  -4   3    0.04    0.12 
  -2  -4   3    0.20    0.07 
  -2   4   3    0.06    0.09 
  -2   4   3    0.01    0.10 
  -2   4   3   -0.02    0.08 
   2   4  -3    0.17    0.13 
   1  -4  -3    6.84    0.47 
  -1  -4   3    6.93    0.35 
  -1  -4   3    7.50    0.49 
   1   4  -3    7.19    0.50 
  -1   4   3    7.36    0.49 
  -1   4   3    6.75    0.37 
   0  -4  -3  107.84    6.34 
   0  -4   3  114.74    5.10 
   0  -4   3  113.76    6.35 
   0   4   3  110.99    5.11 
   0   4  -3  112.18    6.19 
   0   4   3  107.57    6.19 
   1  -4   3    1.77    0.13 
  -1  -4  -3    1.94    0.23 
   1   4   3    1.96    0.23 
  -1   4  -3    1.60    0.19 
  -1   4  -3    1.58    0.21 
   1   4   3    1.56    0.13 
   2  -4   3  105.29    4.81 
  -2  -4  -3  102.99    6.00 
   2   4   3  105.11    4.81 
   2   4   3  102.45    5.82 
  -2   4  -3  105.21    5.97 
  -2   4  -3  105.14    5.80 
   3  -4   3    2.79    0.21 
  -3  -4  -3    3.19    0.37 
   3   4   3    3.11    0.31 
  -3   4  -3    3.30    0.27 
   3   4   3    2.87    0.21 
  -3   4  -3    3.09    0.33 
   4  -4   3    4.56    0.29 
  -4  -4  -3    4.00    0.51 
  -4   4  -3    3.87    0.39 
   4   4   3    3.68    0.35 
   4   4   3    4.23    0.28 
  -4   4  -3    3.85    0.30 
  -5  -4  -3    1.66    0.40 
   5  -4   3    2.00    0.21 
   5   4   3    2.16    0.21 
   5   4   3    1.54    0.24 
  -5   4  -3    1.66    0.32 
  -5   4  -3    2.06    0.19 
   6  -4   3    1.71    0.22 
  -6  -4  -3    1.35    0.36 
   6   4   3    1.58    0.21 
  -6   4  -3    1.42    0.36 
   7  -4   3    0.75    0.19 
  -7  -4  -3    0.29    0.28 
   7   4   3    0.36    0.15 
  -7   4  -3    0.62    0.34 
   8  -4   3   -0.10    0.16 
  -8  -4  -3    0.06    0.29 
   8   4   3   -0.12    0.15 
  -8   4  -3   -0.35    0.29 
   9  -4   3    0.22    0.17 
  -9  -4  -3   -0.13    0.23 
  -9   4  -3    0.67    0.36 
   9   4   3    0.16    0.17 
 -10  -5   3    0.97    0.35 
  10  -5  -3    0.81    0.22 
 -10   5   3    0.70    0.33 
  10   5  -3    0.74    0.20 
   9  -5  -3    0.67    0.20 
  -9  -5   3    0.48    0.29 
  -9   5   3    0.64    0.33 
   9   5  -3    0.49    0.19 
   8  -5  -3   -0.09    0.14 
  -8  -5   3    0.23    0.30 
  -8   5   3    0.43    0.31 
   8   5  -3   -0.07    0.15 
  -7  -5   3   14.21    1.23 
   7  -5  -3   16.89    0.91 
  -7   5   3   18.63    1.25 
   7   5  -3   18.02    0.90 
   6  -5  -3    9.75    0.59 
  -6  -5   3    9.26    0.84 
   6   5  -3    9.68    0.66 
   6   5  -3    9.88    0.56 
  -6   5   3   10.65    0.78 
   5  -5  -3   12.17    0.66 
  -5  -5   3   11.34    0.89 
  -5   5   3   12.14    0.83 
   5   5  -3   12.21    0.63 
   5   5  -3   12.13    0.77 
  -5   5   3   10.44    0.74 
  -4  -5   3    4.75    0.48 
   4  -5  -3    4.63    0.34 
  -4   5   3    4.96    0.43 
  -4   5   3    5.34    0.40 
   4   5  -3    4.89    0.42 
   4   5  -3    5.88    0.33 
  -3  -5   3    3.52    0.38 
  -3   5   3    3.03    0.26 
   3   5  -3    3.57    0.36 
  -3   5   3    3.07    0.32 
   3   5  -3    3.65    0.23 
  -3   5   3    3.41    0.29 
  -2  -5   3    0.41    0.17 
  -2   5   3    0.53    0.13 
   2   5  -3    0.19    0.14 
  -2   5   3    0.39    0.14 
  -2   5   3    0.23    0.10 
  -1  -5   3   31.93    1.91 
  -1  -5   3   30.95    1.49 
   1  -5  -3   33.14    1.90 
   1   5  -3   32.47    1.88 
  -1   5   3   31.82    1.51 
  -1   5   3   33.26    1.87 
   0  -5   3   35.20    1.59 
   0  -5   3   32.93    2.03 
   0  -5  -3   34.61    2.03 
   0   5   3   34.78    1.61 
   0   5   3   32.08    1.99 
   0   5  -3   36.70    2.00 
  -1  -5  -3    1.18    0.20 
   1  -5   3    1.23    0.10 
   1  -5   3    1.40    0.21 
   1   5   3    1.01    0.19 
   1   5   3    1.18    0.11 
  -1   5  -3    1.18    0.20 
   2  -5   3   17.03    0.83 
  -2  -5  -3   17.45    1.10 
  -2   5  -3   17.73    1.07 
  -2   5  -3   16.30    1.03 
   2   5   3   17.18    0.83 
   2   5   3   17.69    1.06 
   3  -5   3   47.26    2.20 
  -3  -5  -3   46.77    2.81 
   3   5   3   46.40    2.19 
   3   5   3   46.22    2.69 
  -3   5  -3   47.16    2.66 
  -3   5  -3   47.58    2.75 
  -4  -5  -3    0.78    0.28 
   4  -5   3    1.09    0.15 
  -4   5  -3    1.03    0.16 
   4   5   3    1.52    0.24 
  -4   5  -3    1.12    0.25 
   4   5   3    1.36    0.16 
   5  -5   3    5.98    0.36 
  -5  -5  -3    5.18    0.61 
   5   5   3    4.75    0.43 
  -5   5  -3    5.87    0.38 
  -5   5  -3    5.24    0.50 
   5   5   3    5.12    0.34 
   6  -5   3    2.00    0.22 
  -6  -5  -3    2.08    0.45 
   6   5   3    2.03    0.21 
  -6   5  -3    2.62    0.42 
  -7  -5  -3    2.88    0.49 
   7  -5   3    3.34    0.32 
  -7   5  -3    3.11    0.51 
   7   5   3    4.00    0.32 
   8  -5   3    2.36    0.28 
  -8  -5  -3    1.36    0.38 
   8   5   3    2.30    0.27 
  -8   5  -3    2.09    0.48 
  -9  -5  -3    5.13    0.64 
   9  -5   3    4.24    0.39 
   9   5   3    4.67    0.39 
  -9   5  -3    5.14    0.67 
   9  -6  -3    0.21    0.18 
  -9  -6   3   -0.16    0.27 
  -9   6   3    0.29    0.31 
   9   6  -3    0.19    0.16 
   8  -6  -3    0.30    0.17 
  -8  -6   3   -0.08    0.24 
   8   6  -3   -0.25    0.14 
  -8   6   3   -0.09    0.28 
  -7  -6   3    1.88    0.43 
   7  -6  -3    1.58    0.23 
  -7   6   3    1.69    0.37 
   7   6  -3    1.87    0.22 
   6  -6  -3    0.66    0.18 
  -6  -6   3    0.35    0.27 
   6   6  -3    0.82    0.20 
  -6   6   3    0.58    0.27 
   6   6  -3    0.81    0.17 
   5  -6  -3    5.17    0.37 
  -5  -6   3    4.38    0.54 
   5   6  -3    5.92    0.45 
   5   6  -3    5.22    0.34 
  -5   6   3    5.32    0.42 
  -5   6   3    5.39    0.48 
   4  -6  -3    5.53    0.38 
  -4  -6   3    6.27    0.55 
  -4   6   3    5.86    0.47 
  -4   6   3    5.79    0.45 
   4   6  -3    5.90    0.35 
   4   6  -3    6.25    0.48 
  -3  -6   3    3.32    0.38 
   3   6  -3    3.28    0.36 
  -3   6   3    3.26    0.27 
  -3   6   3    3.38    0.34 
  -3   6   3    3.33    0.31 
   3   6  -3    3.41    0.21 
   2  -6  -3   60.60    3.56 
  -2  -6   3   63.22    3.59 
  -2   6   3   59.25    3.47 
   2   6  -3   61.17    3.49 
   2   6  -3   64.34    2.83 
  -2   6   3   58.91    2.86 
  -1  -6   3   19.07    1.15 
   1  -6  -3   17.31    1.12 
   1   6  -3   18.05    1.13 
  -1   6   3   18.53    0.88 
  -1   6   3   17.95    1.12 
   0  -6   3    8.93    0.63 
   0  -6  -3    8.49    0.62 
   0  -6   3    9.34    0.42 
   0   6  -3    9.05    0.62 
   0   6   3    8.87    0.45 
   0   6   3    9.22    0.63 
   1  -6   3    9.21    0.65 
  -1  -6  -3    9.93    0.67 
   1  -6   3    9.25    0.46 
  -1   6  -3    8.83    0.63 
   1   6   3    9.70    0.47 
   1   6   3    9.58    0.65 
  -2  -6  -3    0.81    0.20 
   2  -6   3    0.85    0.10 
  -2   6  -3    0.89    0.19 
   2   6   3    0.83    0.10 
  -2   6  -3    0.94    0.18 
   2   6   3    1.00    0.21 
  -3  -6  -3    7.15    0.58 
   3  -6   3    6.63    0.36 
  -3   6  -3    6.55    0.47 
   3   6   3    6.35    0.35 
   3   6   3    6.28    0.50 
  -3   6  -3    6.11    0.50 
  -4  -6  -3   19.54    1.30 
   4  -6   3   19.71    0.96 
  -4   6  -3   18.97    1.23 
   4   6   3   18.89    1.20 
   4   6   3   20.12    0.96 
  -4   6  -3   19.35    1.16 
   5  -6   3    2.94    0.26 
  -5  -6  -3    2.80    0.47 
  -5   6  -3    3.34    0.40 
   5   6   3    3.18    0.36 
   5   6   3    2.93    0.24 
  -5   6  -3    2.92    0.27 
   6  -6   3    0.46    0.15 
  -6  -6  -3    0.51    0.29 
  -6   6  -3    0.60    0.26 
   6   6   3    0.81    0.16 
  -7  -6  -3    1.93    0.42 
   7  -6   3    2.86    0.28 
  -7   6  -3    2.93    0.48 
   7   6   3    2.64    0.26 
   8  -6   3    2.83    0.29 
  -8  -6  -3    2.47    0.49 
  -8   6  -3    1.97    0.46 
   8   6   3    2.09    0.26 
  -9  -6  -3   -0.13    0.28 
   9  -6   3    0.19    0.18 
  -9   6  -3    0.78    0.37 
   9   6   3    0.43    0.18 
  -9  -7   3    4.65    0.66 
   9  -7  -3    6.81    0.46 
  -9   7   3    6.98    0.73 
  -8  -7   3    0.04    0.27 
   8  -7  -3   -0.11    0.16 
  -8   7   3    0.33    0.31 
   7  -7  -3    0.08    0.15 
  -7  -7   3    0.41    0.33 
  -7   7   3    0.16    0.27 
   7   7  -3    0.46    0.15 
  -6  -7   3    3.93    0.52 
   6  -7  -3    4.50    0.35 
  -6   7   3    4.67    0.50 
   6   7  -3    4.47    0.41 
   6   7  -3    4.59    0.32 
  -5  -7   3    4.02    0.48 
   5  -7  -3    3.37    0.30 
  -5   7   3    3.77    0.40 
   5   7  -3    3.30    0.38 
  -5   7   3    4.22    0.37 
   5   7  -3    3.90    0.27 
  -4  -7   3    3.22    0.41 
   4  -7  -3    3.31    0.28 
   4   7  -3    3.33    0.23 
   4   7  -3    3.19    0.37 
  -4   7   3    3.65    0.36 
  -4   7   3    3.33    0.35 
  -3  -7   3   50.64    3.05 
   3  -7  -3   50.38    2.42 
   3   7  -3   53.42    2.38 
  -3   7   3   49.74    2.99 
   3   7  -3   50.84    2.96 
  -3   7   3   52.53    2.94 
  -2  -7   3    1.15    0.23 
   2  -7  -3    0.76    0.19 
   2   7  -3    0.74    0.21 
  -2   7   3    0.86    0.20 
  -2   7   3    1.01    0.14 
   1  -7  -3    0.89    0.19 
  -1  -7   3    0.90    0.20 
  -1   7   3    1.46    0.14 
   1   7  -3    0.83    0.21 
  -1   7   3    1.02    0.23 
   0  -7   3    2.56    0.31 
   0  -7  -3    2.54    0.30 
   0   7   3    2.89    0.33 
   0   7   3    3.20    0.19 
   0   7  -3    3.21    0.36 
   1  -7   3    3.16    0.17 
   1  -7   3    3.03    0.35 
  -1  -7  -3    3.30    0.36 
  -1   7  -3    2.72    0.33 
   1   7   3    3.20    0.19 
   1   7   3    3.40    0.36 
   2  -7   3    4.87    0.43 
   2  -7   3    4.33    0.25 
  -2  -7  -3    4.80    0.45 
  -2   7  -3    3.96    0.38 
   2   7   3    4.57    0.25 
   2   7   3    4.56    0.43 
  -3  -7  -3    0.03    0.20 
   3  -7   3   -0.02    0.08 
  -3   7  -3   -0.01    0.13 
   3   7   3    0.10    0.08 
  -3   7  -3    0.02    0.13 
   3   7   3    0.00    0.15 
   4  -7   3    3.35    0.24 
  -4  -7  -3    3.11    0.44 
   4   7   3    3.32    0.37 
  -4   7  -3    3.32    0.32 
  -4   7  -3    2.41    0.33 
   4   7   3    3.52    0.23 
  -5  -7  -3   26.81    1.91 
   5  -7   3   31.14    1.45 
   5   7   3   28.99    1.43 
  -5   7  -3   30.67    1.84 
   5   7   3   29.44    1.79 
  -5   7  -3   30.79    1.73 
   6  -7   3    3.11    0.28 
  -6  -7  -3    2.32    0.48 
  -6   7  -3    2.39    0.38 
   6   7   3    2.90    0.25 
  -7  -7  -3    2.30    0.47 
   7  -7   3    3.61    0.31 
  -7   7  -3    2.98    0.46 
   7   7   3    4.17    0.32 
   8  -7   3    1.01    0.21 
  -8  -7  -3    0.88    0.35 
   8   7   3    0.97    0.20 
  -8   7  -3    1.07    0.41 
   9  -8  -3    1.41    0.24 
  -9  -8   3    1.42    0.39 
  -9   8   3    1.33    0.39 
   8  -8  -3    0.13    0.17 
  -8  -8   3    0.10    0.29 
  -8   8   3    0.47    0.30 
   7  -8  -3    2.28    0.27 
  -7  -8   3    3.22    0.51 
  -7   8   3    2.97    0.43 
   6  -8  -3    0.31    0.15 
  -6  -8   3    0.22    0.24 
  -6   8   3    0.29    0.22 
   6   8  -3    0.16    0.18 
  -5  -8   3   12.68    0.93 
   5  -8  -3   11.98    0.66 
  -5   8   3   11.81    0.83 
   5   8  -3   11.26    0.83 
  -5   8   3   13.13    0.82 
  -4  -8   3    0.46    0.25 
   4  -8  -3    0.55    0.14 
   4   8  -3    0.10    0.19 
  -4   8   3    0.52    0.16 
  -4   8   3    0.10    0.16 
  -3  -8   3    0.99    0.25 
   3  -8  -3    1.49    0.17 
   3  -8  -3    1.37    0.26 
  -3   8   3    1.07    0.23 
   3   8  -3    1.06    0.26 
  -2  -8   3    7.37    0.60 
   2  -8  -3    7.78    0.59 
   2   8  -3    7.96    0.61 
  -2   8   3    8.03    0.58 
   1  -8  -3   -0.15    0.15 
  -1  -8   3   -0.11    0.15 
   1   8  -3    0.16    0.19 
  -1   8   3    0.07    0.16 
  -1   8   3    0.08    0.08 
   0  -8  -3   13.58    0.93 
   0  -8   3   14.81    0.94 
   0   8   3   13.90    0.92 
   0   8  -3   13.46    0.91 
  -1  -8  -3   50.91    2.93 
   1  -8   3   48.87    2.92 
  -1   8  -3   47.19    2.84 
   1   8   3   50.80    2.87 
   2  -8   3    9.45    0.73 
  -2  -8  -3   10.53    0.75 
   2   8   3   10.23    0.72 
  -2   8  -3    9.79    0.69 
   3  -8   3    0.09    0.09 
  -3  -8  -3    0.09    0.22 
   3   8   3    0.01    0.19 
  -3   8  -3    0.10    0.13 
  -3   8  -3    0.05    0.14 
  -4  -8  -3    2.24    0.38 
   4  -8   3    2.01    0.18 
  -4   8  -3    1.73    0.25 
   4   8   3    2.09    0.31 
  -4   8  -3    1.66    0.29 
   5  -8   3    0.41    0.14 
  -5  -8  -3    0.90    0.33 
  -5   8  -3    0.58    0.23 
  -5   8  -3    0.70    0.18 
   5   8   3    0.61    0.22 
  -6  -8  -3    0.38    0.30 
   6  -8   3   -0.17    0.13 
  -6   8  -3    0.11    0.23 
   7  -8   3    2.00    0.25 
  -7  -8  -3    2.28    0.46 
  -7   8  -3    2.17    0.38 
  -8  -8  -3    0.53    0.32 
   8  -8   3    0.78    0.19 
  -8   8  -3    0.71    0.34 
  -8  -9   3    0.34    0.31 
  -8   9   3    0.78    0.32 
  -7  -9   3    7.50    0.83 
  -7   9   3    7.91    0.69 
  -6  -9   3    9.36    0.82 
  -6   9   3   10.05    0.73 
   6   9  -3    9.43    0.70 
  -5  -9   3    2.60    0.43 
  -5   9   3    3.71    0.38 
  -5   9   3    3.90    0.41 
   5   9  -3    3.10    0.38 
   4  -9  -3    2.19    0.33 
  -4  -9   3    2.17    0.37 
  -4   9   3    2.29    0.31 
   4   9  -3    2.79    0.36 
  -3  -9   3    1.68    0.31 
   3  -9  -3    1.11    0.27 
   3   9  -3    1.23    0.27 
  -3   9   3    1.41    0.25 
  -2  -9   3    1.94    0.31 
   2  -9  -3    1.66    0.28 
  -2   9   3    1.85    0.30 
   2   9  -3    1.73    0.31 
  -1  -9   3    1.52    0.28 
   1  -9  -3    1.36    0.26 
  -1   9   3    1.43    0.27 
   1   9  -3    1.30    0.27 
   0  -9   3    1.95    0.28 
   0  -9  -3    1.62    0.28 
   0   9   3    1.88    0.30 
   0   9  -3    1.98    0.29 
   1  -9   3   -0.03    0.16 
  -1  -9  -3    0.06    0.20 
  -1   9  -3   -0.02    0.18 
   1   9   3    0.11    0.20 
   2  -9   3    6.16    0.53 
  -2  -9  -3    6.36    0.54 
  -2   9  -3    5.98    0.51 
   2   9   3    6.45    0.54 
   3  -9   3    5.17    0.46 
  -3  -9  -3    4.49    0.51 
   3   9   3    3.96    0.45 
  -3   9  -3    4.38    0.39 
  -4  -9  -3    3.69    0.48 
   4   9   3    4.27    0.47 
  -4   9  -3    5.01    0.44 
  -4   9  -3    4.20    0.39 
  -5  -9  -3    0.53    0.31 
  -5   9  -3    0.20    0.16 
  -5   9  -3    0.38    0.21 
   5   9   3    0.22    0.22 
  -6  -9  -3    0.88    0.34 
  -6   9  -3    1.05    0.27 
  -7  -9  -3    0.57    0.36 
  -7   9  -3    0.91    0.31 
  -8  -9  -3    2.79    0.53 
  -8   9  -3    3.21    0.50 
  -7 -10   3    0.21    0.30 
  -7  10   3    0.14    0.26 
  -6 -10   3    0.49    0.30 
  -6  10   3    0.27    0.20 
   6  10  -3    0.36    0.22 
  -5 -10   3    0.25    0.26 
   5 -10  -3   -0.08    0.17 
   5  10  -3    0.18    0.22 
  -5  10   3   -0.04    0.18 
   4 -10  -3    2.19    0.33 
  -4 -10   3    2.40    0.39 
   4  10  -3    1.71    0.31 
  -4  10   3    2.65    0.34 
   3 -10  -3    5.82    0.51 
  -3 -10   3    5.97    0.55 
  -3  10   3    5.69    0.50 
   3  10  -3    4.88    0.52 
  -2 -10   3    5.99    0.53 
   2 -10  -3    6.12    0.52 
   2  10  -3    5.46    0.52 
  -2  10   3    6.16    0.53 
  -1 -10   3   17.31    1.14 
   1 -10  -3   17.26    1.12 
   1  10  -3   16.63    1.12 
  -1  10   3   17.46    1.12 
   0 -10   3    2.72    0.36 
   0 -10  -3    2.50    0.35 
   0  10   3    3.31    0.41 
   0  10  -3    3.17    0.39 
  -1 -10  -3    2.17    0.32 
   1 -10   3    1.32    0.27 
  -1  10  -3    1.67    0.28 
   1  10   3    1.18    0.28 
  -2 -10  -3    4.79    0.49 
   2 -10   3    4.07    0.45 
   2  10   3    4.96    0.51 
  -2  10  -3    3.84    0.42 
   3 -10   3    8.52    0.68 
  -3 -10  -3    8.98    0.72 
   3  10   3    8.59    0.69 
  -3  10  -3    8.01    0.63 
   4 -10   3    4.07    0.46 
   4  10   3    4.80    0.51 
  -4  10  -3    4.47    0.41 
  -5 -10  -3    1.11    0.36 
  -5  10  -3    1.35    0.28 
  -5  10  -3    1.00    0.22 
   5  10   3    1.20    0.31 
  -6 -10  -3   -0.58    0.26 
  -6  10  -3    0.62    0.26 
  -7 -10  -3    0.95    0.39 
  -7  10  -3    0.83    0.28 
  -7 -11   3    0.31    0.33 
   7 -11  -3    0.23    0.24 
  -6 -11   3    0.35    0.29 
   6 -11  -3    0.26    0.23 
   6  11  -3    0.60    0.24 
   5 -11  -3    0.22    0.23 
  -5 -11   3    0.52    0.31 
  -5  11   3   -0.03    0.19 
   5  11  -3    0.07    0.23 
   4 -11  -3   15.31    1.08 
  -4 -11   3   16.51    1.14 
  -4  11   3   16.12    1.05 
   4  11  -3   16.04    1.09 
  -3 -11   3    0.19    0.24 
   3 -11  -3    0.15    0.21 
   3  11  -3    0.23    0.22 
  -3  11   3    0.15    0.19 
  -2 -11   3    2.86    0.40 
   2 -11  -3    4.07    0.43 
  -2  11   3    4.07    0.44 
   2  11  -3    3.08    0.41 
  -1 -11   3    0.72    0.24 
   1 -11  -3    0.41    0.22 
  -1  11   3    0.27    0.21 
   1  11  -3    0.45    0.22 
   0 -11  -3    6.90    0.59 
   0 -11   3    7.41    0.61 
   0  11   3    7.46    0.62 
   0  11  -3    6.70    0.57 
  -1 -11  -3    0.22    0.22 
   1 -11   3    0.00    0.20 
   1  11   3    0.09    0.20 
  -1  11  -3    0.01    0.18 
  -2 -11  -3    0.87    0.27 
   2 -11   3    1.24    0.30 
  -2  11  -3    0.94    0.25 
   2  11   3    0.86    0.28 
  -3 -11  -3    0.59    0.27 
   3 -11   3    0.38    0.22 
  -3  11  -3    0.28    0.18 
   3  11   3    0.34    0.23 
   4 -11   3    2.62    0.38 
  -4 -11  -3    2.96    0.45 
   4  11   3    2.72    0.39 
  -4  11  -3    2.85    0.33 
   5 -11   3    0.37    0.23 
  -5 -11  -3    0.15    0.28 
   5  11   3   -0.19    0.22 
  -6 -11  -3    9.29    0.85 
   6 -11   3    8.59    0.71 
   6 -12  -3    0.45    0.25 
  -6 -12   3    0.22    0.31 
   6  12  -3    0.30    0.23 
  -5 -12   3    0.33    0.30 
   5 -12  -3    0.03    0.21 
  -5  12   3    0.04    0.20 
   5  12  -3    0.26    0.25 
  -4 -12   3    1.76    0.36 
   4 -12  -3    0.87    0.28 
  -4  12   3    1.53    0.30 
   4  12  -3    1.10    0.29 
   3 -12  -3    1.71    0.32 
  -3 -12   3    2.32    0.37 
   3  12  -3    2.51    0.39 
  -3  12   3    1.88    0.32 
  -2 -12   3    1.21    0.31 
   2 -12  -3    1.19    0.29 
  -2  12   3    1.48    0.30 
   2  12  -3    1.05    0.31 
   1 -12  -3    6.27    0.56 
  -1 -12   3    5.88    0.55 
   1  12  -3    5.78    0.55 
  -1  12   3    6.79    0.59 
   0 -12   3    2.05    0.33 
   0 -12  -3    2.76    0.38 
   0  12  -3    2.58    0.38 
   0  12   3    2.11    0.35 
   1 -12   3    5.47    0.52 
  -1 -12  -3    5.23    0.55 
   1  12   3    5.09    0.55 
  -1  12  -3    6.26    0.53 
  -2 -12  -3    3.31    0.43 
   2 -12   3    3.16    0.41 
  -2  12  -3    2.84    0.37 
   2  12   3    3.10    0.43 
   3 -12   3    1.67    0.32 
  -3 -12  -3    2.22    0.39 
  -3  12  -3    1.72    0.30 
   3  12   3    2.46    0.38 
  -4 -12  -3    1.20    0.35 
   4 -12   3    1.80    0.34 
  -4  12  -3    1.41    0.27 
   4  12   3    1.61    0.32 
   5 -12   3    0.40    0.22 
  -5 -12  -3    0.15    0.30 
   5  12   3    0.42    0.26 
  -4 -13   3    0.31    0.28 
   4 -13  -3   -0.11    0.21 
   4  13  -3    0.01    0.23 
  -4  13   3    0.06    0.20 
  -3 -13   3    0.64    0.27 
   3 -13  -3   -0.09    0.21 
   3  13  -3    0.38    0.25 
  -3  13   3    0.43    0.24 
  -2 -13   3    0.29    0.22 
   2 -13  -3   -0.08    0.20 
   2  13  -3    0.10    0.24 
  -2  13   3   -0.18    0.18 
   1 -13  -3    2.23    0.37 
  -1 -13   3    2.39    0.38 
  -1  13   3    1.88    0.35 
   1  13  -3    2.26    0.38 
   0 -13  -3    1.29    0.32 
   0 -13   3    2.23    0.36 
   0  13  -3    2.00    0.34 
   0  13   3    1.57    0.32 
  -1 -13  -3    0.05    0.21 
   1 -13   3    0.13    0.24 
  -1  13  -3    0.10    0.22 
   1  13   3    0.04    0.23 
   2 -13   3    2.50    0.38 
  -2 -13  -3    2.63    0.39 
  -2  13  -3    3.10    0.39 
   2  13   3    2.65    0.42 
   3 -13   3    4.03    0.49 
  -3 -13  -3    3.72    0.50 
  -3  13  -3    3.51    0.42 
   3  13   3    3.18    0.45 
  -4 -13  -3    0.21    0.31 
   4 -13   3    0.38    0.26 
   4  13   3    0.25    0.27 
  -4  13  -3    0.53    0.22 
  -2 -14   3    2.82    0.42 
   2 -14  -3    3.02    0.41 
   2  14  -3    2.69    0.41 
  -2  14   3    3.54    0.43 
  -1 -14   3   -0.01    0.24 
   1 -14  -3   -0.16    0.22 
   1  14  -3   -0.11    0.23 
  -1  14   3    0.05    0.24 
   0 -14   3    1.66    0.35 
   0 -14  -3    2.05    0.37 
   0  14  -3    1.60    0.31 
   0  14   3    1.73    0.34 
  -1 -14  -3    4.14    0.49 
   1 -14   3    4.80    0.53 
   1  14   3    4.19    0.51 
  -1  14  -3    3.36    0.43 
  -2 -14  -3    0.63    0.30 
   2 -14   3    0.88    0.27 
  -2  14  -3    0.96    0.25 
   2  14   3    0.70    0.29 
 -10   0   4    2.79    0.41 
  10   0  -4    2.04    0.28 
  -9   0   4    0.01    0.22 
   9   0  -4    0.07    0.17 
   8   0  -4   34.14    1.76 
  -8   0   4   36.93    2.24 
  -7   0   4   -0.09    0.23 
   7   0  -4   -0.24    0.16 
   6   0  -4    0.80    0.18 
   6   0  -4    0.46    0.12 
  -6   0   4    0.53    0.26 
   5   0  -4   -0.09    0.11 
  -5   0   4    0.15    0.19 
  -5   0   4    0.17    0.15 
  -4   0   4   17.85    1.14 
   4   0  -4   15.30    1.01 
  -4   0   4   16.73    0.86 
  -3   0   4   -0.09    0.15 
   3   0  -4    0.28    0.19 
  -3   0   4   -0.02    0.10 
  -2   0   4   76.14    4.47 
  -2   0   4   78.75    3.59 
   2   0  -4   77.15    4.41 
  -1   0   4    0.03    0.09 
  -1   0   4   -0.13    0.05 
   1   0  -4    0.03    0.25 
   0   0  -4  189.78    9.51 
   0   0   4  151.45    9.52 
   0   0  -4  141.95    9.39 
   0   0   4  186.06    7.71 
   1   0   4    0.16    0.07 
  -1   0  -4    0.04    0.07 
  -1   0  -4   -0.21    0.21 
   2   0   4   28.51    1.34 
  -2   0  -4   28.85    1.71 
  -2   0  -4   26.94    1.73 
   3   0   4   -0.12    0.07 
  -3   0  -4    0.10    0.20 
  -3   0  -4    0.13    0.16 
  -4   0  -4    0.74    0.29 
   4   0   4    1.04    0.15 
  -4   0  -4    0.77    0.15 
   5   0   4   -0.08    0.13 
  -5   0  -4   -0.13    0.26 
  -6   0  -4   41.83    2.58 
   6   0   4   39.61    1.95 
   7   0   4   -0.02    0.14 
  -7   0  -4    0.17    0.26 
   8   0   4    4.26    0.37 
  -8   0  -4    4.20    0.59 
   9   0   4   -0.08    0.15 
  -9   0  -4   -0.10    0.25 
  10   0   4    1.27    0.25 
 -10   0  -4    0.39    0.31 
  10  -1  -4    2.41    0.31 
 -10  -1   4    3.12    0.45 
  10   1  -4    2.81    0.32 
 -10   1   4    3.54    0.47 
  -9  -1   4    2.66    0.43 
   9  -1  -4    2.43    0.30 
  -9   1   4    2.08    0.39 
   9   1  -4    2.00    0.28 
   8  -1  -4    1.90    0.26 
  -8  -1   4    2.29    0.40 
  -8   1   4    2.11    0.39 
   8   1  -4    1.99    0.27 
  -7  -1   4    3.12    0.44 
   7  -1  -4    3.26    0.32 
   7   1  -4    3.04    0.32 
  -7   1   4    2.74    0.43 
   6  -1  -4    2.92    0.31 
  -6  -1   4    3.66    0.47 
   6   1  -4    3.22    0.26 
  -6   1   4    2.52    0.42 
   6   1  -4    3.20    0.30 
  -5  -1   4   15.14    1.11 
   5  -1  -4   16.15    0.98 
  -5   1   4   16.05    0.85 
   5   1  -4   15.70    0.96 
  -5   1   4   16.77    1.12 
  -4  -1   4   50.46    3.17 
   4  -1  -4   55.32    3.04 
  -4  -1   4   55.17    2.52 
  -4   1   4   54.46    2.52 
   4   1  -4   52.09    3.00 
  -4   1   4   50.23    3.16 
  -3  -1   4   12.68    0.67 
   3  -1  -4   14.39    0.88 
  -3  -1   4   11.88    0.87 
  -3   1   4   13.12    0.86 
   3   1  -4   12.71    0.84 
  -2  -1   4    2.06    0.23 
   2  -1  -4    1.70    0.30 
  -2  -1   4    1.84    0.17 
  -2   1   4    2.07    0.21 
  -2   1   4    2.14    0.18 
   2   1  -4    1.89    0.30 
  -1  -1   4  151.15    6.85 
   1  -1  -4  149.75    8.31 
  -1  -1   4  153.74    8.45 
  -1   1   4  149.58    6.85 
  -1   1   4  141.47    8.44 
   0  -1  -4    5.95    0.38 
   0  -1  -4    5.47    0.49 
   0  -1   4    5.72    0.31 
   0   1   4    6.00    0.31 
   0   1  -4    5.40    0.51 
  -1  -1  -4   37.21    2.16 
   1  -1   4   36.76    1.71 
  -1   1  -4   36.13    2.11 
   1   1   4   36.61    1.71 
  -1   1  -4   36.02    2.14 
  -2  -1  -4   19.27    1.18 
  -2  -1  -4   14.66    1.18 
   2  -1   4   18.28    0.88 
  -2   1  -4   18.35    1.10 
   2   1   4   19.09    0.88 
  -2   1  -4   17.94    1.10 
  -3  -1  -4   -0.06    0.23 
  -3  -1  -4    0.13    0.21 
   3  -1   4   -0.02    0.08 
  -3   1  -4   -0.01    0.15 
   3   1   4    0.06    0.09 
  -3   1  -4    0.10    0.10 
  -4  -1  -4    3.87    0.53 
   4  -1   4    4.07    0.29 
  -4  -1  -4    5.25    0.47 
  -4   1  -4    4.27    0.48 
  -4   1  -4    4.43    0.30 
   4   1   4    4.28    0.29 
  -5  -1  -4    0.24    0.14 
   5  -1   4    0.67    0.15 
  -5  -1  -4    0.20    0.27 
   5   1   4    0.27    0.13 
  -5   1  -4    0.37    0.26 
  -6  -1  -4    3.51    0.50 
   6  -1   4    2.79    0.28 
   6   1   4    2.20    0.25 
  -6   1  -4    3.23    0.48 
  -7  -1  -4    8.13    0.75 
   7  -1   4    7.78    0.50 
   7   1   4    7.69    0.49 
  -7   1  -4    7.51    0.74 
  -8  -1  -4    4.01    0.55 
   8  -1   4    2.82    0.30 
  -8   1  -4    3.70    0.57 
   8   1   4    2.99    0.32 
   9  -1   4    2.91    0.32 
  -9  -1  -4    3.53    0.52 
   9   1   4    3.38    0.34 
  -9   1  -4    4.01    0.54 
  10  -1   4    0.73    0.23 
 -10  -1  -4    0.98    0.35 
  10   1   4    0.69    0.21 
 -10   1  -4    1.28    0.37 
  10  -2  -4    3.64    0.35 
 -10  -2   4    2.69    0.43 
  10   2  -4    3.36    0.33 
 -10   2   4    3.04    0.44 
  -9  -2   4   -0.13    0.23 
   9  -2  -4    0.26    0.19 
   9   2  -4    0.18    0.16 
  -9   2   4    0.62    0.28 
  -8  -2   4    1.34    0.33 
   8  -2  -4    1.81    0.27 
  -8   2   4    1.63    0.36 
   8   2  -4    1.14    0.23 
   7  -2  -4    4.04    0.35 
  -7  -2   4    3.35    0.49 
  -7   2   4    4.65    0.55 
   7   2  -4    3.63    0.33 
   6  -2  -4   17.44    0.86 
  -6  -2   4   13.96    1.09 
  -6   2   4   15.69    1.11 
   6   2  -4   15.02    0.92 
   6   2  -4   14.95    0.82 
  -5  -2   4   15.01    1.18 
   5  -2  -4   16.64    1.09 
   5   2  -4   17.48    1.04 
  -5   2   4   19.91    0.93 
  -5   2   4   16.22    1.17 
   5   2  -4   18.28    0.91 
  -4  -2   4    9.15    0.51 
   4  -2  -4    9.39    0.65 
  -4  -2   4    8.14    0.70 
  -4   2   4    9.42    0.52 
  -4   2   4    9.92    0.69 
   4   2  -4    8.63    0.60 
  -3  -2   4   13.94    0.88 
  -3  -2   4   13.12    0.68 
   3  -2  -4   13.34    0.85 
  -3   2   4   12.18    0.68 
  -3   2   4   13.70    0.84 
   3   2  -4   12.70    0.84 
  -2  -2   4   17.77    1.06 
  -2  -2   4   16.68    0.84 
   2   2  -4   17.62    1.08 
  -2   2   4   17.25    0.85 
  -2   2   4   17.53    1.03 
  -1  -2   4    0.06    0.07 
  -1  -2   4    0.07    0.05 
  -1   2   4   -0.08    0.10 
  -1   2   4   -0.03    0.05 
  -1   2   4    0.08    0.05 
   1   2  -4    0.00    0.14 
   0  -2   4    5.77    0.38 
   0  -2   4    6.11    0.31 
   0  -2  -4    6.03    0.38 
   0   2  -4    5.99    0.46 
   0   2   4    5.73    0.31 
   0   2   4    6.11    0.44 
  -1  -2  -4   19.29    1.16 
   1  -2   4   18.82    0.90 
   1   2   4   18.85    1.15 
  -1   2  -4   17.84    1.11 
   1   2   4   20.11    0.91 
  -1   2  -4   18.59    1.14 
   2  -2   4   27.62    1.33 
  -2  -2  -4   28.61    1.75 
   2   2   4   26.72    1.64 
   2   2   4   28.02    1.33 
  -2   2  -4   27.89    1.65 
  -2   2  -4   29.02    1.62 
   3  -2   4   48.28    2.18 
  -3  -2  -4   37.25    2.80 
  -3   2  -4   47.76    2.73 
   3   2   4   50.16    2.19 
  -3   2  -4   48.31    2.61 
   3   2   4   44.63    2.66 
  -4  -2  -4   60.85    3.22 
   4  -2   4   55.18    2.62 
  -4  -2  -4   53.91    3.40 
  -4   2  -4   53.39    3.30 
   4   2   4   55.69    2.62 
  -4   2  -4   55.47    3.11 
  -5  -2  -4   12.67    0.84 
  -5  -2  -4   12.36    1.02 
   5  -2   4   12.81    0.68 
   5   2   4   12.08    0.67 
  -5   2  -4   12.53    0.94 
   6  -2   4    0.19    0.14 
  -6  -2  -4    0.01    0.29 
  -6   2  -4   -0.11    0.27 
   6   2   4   -0.04    0.12 
   7  -2   4    0.94    0.19 
  -7  -2  -4    1.11    0.35 
   7   2   4    1.03    0.20 
  -7   2  -4    1.18    0.39 
   8  -2   4    1.61    0.24 
  -8  -2  -4    1.34    0.36 
   8   2   4    1.76    0.24 
  -8   2  -4    1.03    0.37 
   9  -2   4    2.02    0.27 
  -9  -2  -4    1.19    0.34 
  -9   2  -4    1.97    0.44 
   9   2   4    1.62    0.24 
  10  -2   4    0.71    0.22 
 -10  -2  -4    0.42    0.26 
  10   2   4    0.37    0.21 
 -10   2  -4    0.44    0.32 
 -10  -3   4    1.30    0.35 
  10  -3  -4    0.92    0.24 
  10   3  -4    1.24    0.23 
 -10   3   4    1.58    0.34 
  -9  -3   4    0.94    0.32 
   9  -3  -4    0.57    0.19 
  -9   3   4    0.74    0.30 
   9   3  -4    0.85    0.21 
   8  -3  -4   -0.12    0.15 
  -8  -3   4   -0.36    0.23 
   8   3  -4    0.04    0.14 
  -8   3   4   -0.11    0.24 
   7  -3  -4    5.77    0.43 
  -7  -3   4    4.10    0.57 
   7   3  -4    5.59    0.39 
  -7   3   4    6.18    0.65 
   6  -3  -4    1.88    0.25 
  -6  -3   4    1.17    0.32 
  -6   3   4    1.54    0.34 
   6   3  -4    2.19    0.24 
   6   3  -4    2.12    0.23 
   5  -3  -4   21.81    1.28 
  -5  -3   4   18.21    1.38 
   5   3  -4   20.46    1.05 
  -5   3   4   21.55    1.36 
   5   3  -4   20.56    1.24 
  -5   3   4   21.67    1.08 
  -4  -3   4    9.01    0.69 
  -4  -3   4    8.83    0.50 
   4  -3  -4    8.38    0.62 
  -4   3   4    9.64    0.52 
   4   3  -4    8.64    0.60 
  -4   3   4    8.90    0.64 
  -3  -3   4   56.14    2.59 
  -3  -3   4   58.87    3.23 
  -3   3   4   55.00    3.12 
  -3   3   4   54.16    3.19 
   3   3  -4   53.52    3.13 
  -3   3   4   53.01    2.59 
  -2  -3   4   73.96    3.42 
  -2  -3   4   72.65    4.25 
  -2   3   4   72.62    3.43 
  -2   3   4   73.08    4.15 
  -2   3   4   75.31    4.22 
   2   3  -4   75.55    4.17 
  -1  -3   4   16.75    0.81 
   1  -3  -4   17.39    1.01 
  -1  -3   4   16.86    1.02 
   1   3  -4   16.50    1.04 
  -1   3   4   17.41    1.04 
  -1   3   4   16.77    0.82 
   0  -3   4   38.06    2.25 
   0  -3   4   39.61    1.80 
   0  -3  -4   39.68    2.24 
   0   3   4   39.55    2.23 
   0   3  -4   37.41    2.23 
   0   3   4   38.53    1.81 
  -1  -3  -4   51.57    2.99 
   1  -3   4   51.76    2.39 
   1   3   4   50.65    2.93 
  -1   3  -4   49.83    2.97 
  -1   3  -4   53.55    2.93 
   1   3   4   52.48    2.40 
   2  -3   4    0.62    0.10 
  -2  -3  -4    0.43    0.18 
  -2   3  -4    0.45    0.13 
   2   3   4    0.52    0.10 
   2   3   4    0.57    0.16 
  -2   3  -4    0.47    0.13 
  -3  -3  -4    8.88    0.73 
   3  -3   4    8.71    0.47 
  -3   3  -4    8.94    0.56 
   3   3   4    9.53    0.48 
  -3   3  -4    8.75    0.62 
   3   3   4    8.24    0.61 
   4  -3   4    4.24    0.28 
  -4  -3  -4    2.74    0.47 
  -4   3  -4    3.41    0.39 
   4   3   4    3.81    0.37 
   4   3   4    4.40    0.29 
  -4   3  -4    4.12    0.29 
  -5  -3  -4   12.98    1.15 
  -5  -3  -4   18.71    1.06 
   5  -3   4   16.04    0.83 
  -5   3  -4   15.81    0.93 
   5   3   4   16.20    0.83 
  -5   3  -4   16.34    1.10 
  -6  -3  -4    0.92    0.37 
   6  -3   4    0.64    0.18 
  -6   3  -4    0.81    0.31 
   6   3   4    0.70    0.17 
   7  -3   4    0.04    0.16 
  -7  -3  -4    0.13    0.30 
  -7   3  -4   -0.02    0.29 
   7   3   4    0.08    0.15 
  -8  -3  -4    9.90    0.83 
   8  -3   4    8.97    0.54 
   8   3   4    8.17    0.54 
  -8   3  -4    7.82    0.79 
  -9  -3  -4   -0.35    0.24 
   9  -3   4   -0.02    0.16 
   9   3   4   -0.01    0.15 
  -9   3  -4   -0.21    0.30 
  10  -4  -4    0.16    0.19 
 -10  -4   4   -0.25    0.21 
 -10   4   4    0.10    0.25 
  10   4  -4    0.14    0.17 
   9  -4  -4   11.80    0.70 
  -9  -4   4   12.35    0.98 
   9   4  -4   11.53    0.69 
  -9   4   4   12.16    0.94 
   8  -4  -4    0.50    0.20 
  -8  -4   4    0.16    0.26 
   8   4  -4    0.19    0.16 
  -8   4   4    0.26    0.29 
  -7  -4   4    7.92    0.83 
   7  -4  -4   10.79    0.62 
  -7   4   4   10.42    0.84 
   7   4  -4   10.92    0.59 
  -6  -4   4    6.15    0.70 
   6  -4  -4    6.55    0.45 
   6   4  -4    7.56    0.45 
  -6   4   4    7.05    0.63 
   6   4  -4    7.11    0.50 
  -5  -4   4    0.88    0.27 
   5  -4  -4    0.37    0.18 
   5   4  -4    0.59    0.17 
   5   4  -4    0.60    0.15 
  -5   4   4    0.40    0.21 
  -4  -4   4    9.01    0.65 
   4   4  -4    7.49    0.45 
  -4   4   4    7.42    0.55 
  -4   4   4    7.71    0.57 
  -4   4   4    8.26    0.47 
   4   4  -4    7.65    0.56 
  -3  -4   4   46.48    2.74 
  -3  -4   4   46.20    2.19 
  -3   4   4   47.65    2.21 
   3   4  -4   46.49    2.67 
  -3   4   4   44.35    2.70 
  -3   4   4   47.67    2.65 
  -2  -4   4    4.19    0.34 
  -2  -4   4    4.34    0.25 
  -2   4   4    3.77    0.35 
  -2   4   4    3.78    0.26 
  -2   4   4    3.84    0.30 
   2   4  -4    4.45    0.37 
  -1  -4   4   10.05    0.50 
   1  -4  -4   10.50    0.65 
  -1  -4   4   11.10    0.67 
  -1   4   4    9.63    0.52 
   1   4  -4   10.12    0.69 
  -1   4   4   10.19    0.68 
   0  -4   4    7.88    0.53 
   0  -4  -4    7.88    0.52 
   0  -4   4    7.72    0.39 
   0   4   4    7.63    0.55 
   0   4  -4    7.43    0.54 
   0   4   4    8.35    0.41 
  -1  -4  -4   82.37    4.78 
   1  -4   4   84.64    3.84 
  -1   4  -4   83.12    4.66 
   1   4   4   83.75    4.68 
  -1   4  -4   82.39    4.76 
   1   4   4   83.14    3.84 
   2  -4   4    0.73    0.10 
  -2  -4  -4    0.78    0.20 
   2   4   4    0.99    0.20 
  -2   4  -4    0.58    0.15 
  -2   4  -4    0.83    0.16 
   2   4   4    0.59    0.10 
   3  -4   4    0.58    0.11 
  -3  -4  -4    0.66    0.23 
  -3   4  -4    0.49    0.17 
  -3   4  -4    0.47    0.14 
   3   4   4    0.37    0.11 
   3   4   4    0.17    0.15 
   4  -4   4    7.85    0.45 
  -4  -4  -4    8.73    0.75 
   4   4   4    8.29    0.45 
   4   4   4    7.26    0.57 
  -4   4  -4    8.30    0.52 
  -4   4  -4    8.05    0.60 
   5  -4   4   12.81    0.67 
  -5  -4  -4    8.83    0.92 
  -5   4  -4   12.47    0.89 
   5   4   4   12.63    0.65 
   5   4   4   12.30    0.81 
  -5   4  -4   13.29    0.74 
   6  -4   4    1.51    0.20 
  -6  -4  -4    1.72    0.42 
   6   4   4    1.60    0.21 
  -6   4  -4    1.73    0.37 
  -7  -4  -4   19.36    1.36 
   7  -4   4   17.82    0.95 
  -7   4  -4   18.43    1.32 
   7   4   4   17.62    0.95 
   8  -4   4    0.10    0.15 
  -8  -4  -4   -0.18    0.28 
  -8   4  -4   -0.41    0.27 
   8   4   4   -0.05    0.16 
  -9  -4  -4    0.76    0.32 
   9  -4   4    0.41    0.18 
  -9   4  -4    0.19    0.30 
   9   4   4    0.65    0.20 
 -10  -5   4    1.60    0.40 
  10  -5  -4    1.89    0.26 
 -10   5   4    2.36    0.41 
  10   5  -4    2.27    0.27 
   9  -5  -4    0.11    0.18 
  -9  -5   4    0.09    0.29 
  -9   5   4    0.35    0.30 
   9   5  -4    0.09    0.16 
   8  -5  -4    1.80    0.26 
  -8  -5   4    1.88    0.43 
   8   5  -4    2.25    0.25 
  -8   5   4    1.40    0.38 
   7  -5  -4    4.04    0.36 
  -7  -5   4    2.97    0.49 
  -7   5   4    4.61    0.54 
   7   5  -4    4.05    0.33 
  -6  -5   4    7.82    0.75 
   6  -5  -4    7.83    0.52 
   6   5  -4    9.02    0.50 
   6   5  -4    8.58    0.59 
  -6   5   4    8.54    0.70 
  -5  -5   4    1.55    0.34 
   5  -5  -4    1.55    0.23 
   5   5  -4    1.77    0.26 
  -5   5   4    1.92    0.26 
  -5   5   4    1.61    0.28 
   5   5  -4    1.71    0.20 
  -4  -5   4    1.36    0.27 
  -4   5   4    1.10    0.20 
  -4   5   4    0.93    0.17 
   4   5  -4    0.98    0.15 
   4   5  -4    1.19    0.23 
  -4   5   4    1.16    0.21 
  -3  -5   4    6.41    0.53 
  -3  -5   4    5.75    0.37 
  -3   5   4    6.26    0.48 
   3   5  -4    7.14    0.52 
  -3   5   4    7.04    0.47 
  -3   5   4    7.35    0.41 
  -2  -5   4   42.16    2.48 
  -2  -5   4   42.14    1.96 
  -2   5   4   41.51    2.44 
   2   5  -4   42.15    2.43 
  -2   5   4   42.03    1.98 
  -2   5   4   41.64    2.42 
   1  -5  -4   40.66    2.41 
  -1  -5   4   43.31    2.44 
  -1  -5   4   39.74    1.92 
  -1   5   4   42.84    2.39 
   1   5  -4   39.95    2.39 
  -1   5   4   42.23    1.94 
   0  -5   4   64.28    3.83 
   0  -5   4   68.67    3.06 
   0  -5  -4   68.17    3.83 
   0   5   4   66.54    3.08 
   0   5   4   63.12    3.76 
   0   5  -4   67.44    3.76 
  -1  -5  -4    5.52    0.43 
   1  -5   4    5.63    0.41 
   1  -5   4    5.44    0.29 
   1   5   4    5.17    0.44 
   1   5   4    5.38    0.30 
  -1   5  -4    5.31    0.43 
   2  -5   4    0.25    0.08 
  -2  -5  -4    0.30    0.17 
  -2   5  -4    0.12    0.14 
   2   5   4    0.47    0.17 
   2   5   4    0.17    0.08 
  -2   5  -4    0.25    0.13 
  -3  -5  -4    0.77    0.23 
   3  -5   4    0.55    0.12 
  -3   5  -4    0.68    0.18 
   3   5   4    0.76    0.21 
  -3   5  -4    0.99    0.18 
   3   5   4    0.93    0.12 
  -4  -5  -4    0.56    0.26 
   4  -5   4    0.69    0.13 
   4   5   4    0.63    0.20 
  -4   5  -4    0.84    0.22 
   4   5   4    0.86    0.14 
  -4   5  -4    1.13    0.17 
  -5  -5  -4    9.66    0.90 
   5  -5   4   11.49    0.61 
   5   5   4   11.05    0.76 
  -5   5  -4   11.00    0.80 
   5   5   4   11.26    0.60 
  -5   5  -4   11.68    0.69 
   6  -5   4   -0.07    0.13 
  -6  -5  -4    0.00    0.23 
  -6   5  -4   -0.07    0.22 
   6   5   4   -0.01    0.13 
  -7  -5  -4    4.50    0.62 
   7  -5   4    3.82    0.34 
  -7   5  -4    5.35    0.62 
   7   5   4    4.52    0.34 
   8  -5   4    6.10    0.43 
  -8  -5  -4    5.45    0.67 
   8   5   4    5.83    0.42 
  -8   5  -4    6.46    0.73 
   9  -5   4    0.59    0.20 
  -9  -5  -4    1.10    0.36 
   9   5   4    0.98    0.22 
  -9   5  -4    0.60    0.39 
  -9  -6   4    1.14    0.37 
   9  -6  -4    1.13    0.23 
  -9   6   4    2.25    0.43 
   9   6  -4    1.14    0.21 
   8  -6  -4    0.83    0.20 
  -8  -6   4    0.52    0.32 
  -8   6   4    0.65    0.28 
   8   6  -4    0.77    0.18 
  -7  -6   4    4.90    0.69 
   7  -6  -4    8.61    0.52 
  -7   6   4    8.06    0.70 
   7   6  -4    8.71    0.49 
   6  -6  -4    9.67    0.58 
  -6  -6   4    9.39    0.82 
   6   6  -4    9.23    0.55 
   6   6  -4    9.55    0.67 
  -6   6   4   10.02    0.66 
  -6   6   4    9.95    0.75 
  -5  -6   4   14.12    1.06 
   5  -6  -4   14.85    0.81 
   5   6  -4   15.57    0.79 
  -5   6   4   15.57    0.97 
   5   6  -4   15.73    0.98 
  -5   6   4   15.62    1.01 
  -4  -6   4    0.68    0.23 
  -4   6   4    0.56    0.17 
  -4   6   4    0.64    0.19 
  -4   6   4    0.43    0.15 
   4   6  -4    0.66    0.13 
   4   6  -4    0.86    0.22 
  -3  -6   4    1.74    0.28 
  -3   6   4    1.36    0.18 
   3   6  -4    1.42    0.14 
  -3   6   4    1.14    0.23 
  -3   6   4    1.27    0.20 
   3   6  -4    1.11    0.23 
  -2  -6   4   12.20    0.60 
   2  -6  -4   11.83    0.79 
  -2  -6   4   12.97    0.83 
  -2   6   4   12.61    0.81 
   2   6  -4   11.78    0.81 
  -2   6   4   11.99    0.63 
  -1  -6   4    0.60    0.07 
   1  -6  -4    0.72    0.17 
  -1  -6   4    0.24    0.15 
  -1   6   4    0.34    0.09 
  -1   6   4    0.51    0.17 
   1   6  -4    0.29    0.18 
   0  -6   4   12.03    0.57 
   0  -6   4   11.56    0.79 
   0  -6  -4   11.90    0.78 
   0   6   4   11.74    0.79 
   0   6  -4   11.62    0.79 
   0   6   4   12.49    0.59 
   1  -6   4    0.95    0.09 
   1  -6   4    1.05    0.21 
  -1  -6  -4    0.66    0.20 
   1   6   4    0.58    0.09 
   1   6   4    0.85    0.20 
  -1   6  -4    0.64    0.18 
  -2  -6  -4    1.17    0.25 
   2  -6   4    1.38    0.13 
  -2   6  -4    1.65    0.22 
   2   6   4    1.56    0.14 
  -2   6  -4    1.33    0.22 
   2   6   4    1.45    0.24 
  -3  -6  -4   50.44    3.02 
   3  -6   4   50.38    2.37 
   3   6   4   50.67    2.37 
   3   6   4   50.20    2.92 
  -3   6  -4   51.15    2.97 
  -3   6  -4   50.89    2.88 
  -4  -6  -4   11.94    0.89 
   4  -6   4   12.37    0.61 
   4   6   4   10.55    0.78 
  -4   6  -4   10.82    0.73 
  -4   6  -4   11.58    0.79 
   4   6   4   11.54    0.60 
  -5  -6  -4   10.02    0.86 
   5  -6   4   10.31    0.56 
   5   6   4   10.40    0.55 
  -5   6  -4    9.21    0.74 
   5   6   4   10.28    0.72 
  -5   6  -4    9.82    0.64 
   6  -6   4    0.84    0.18 
  -6  -6  -4    0.65    0.33 
  -6   6  -4    0.95    0.31 
   6   6   4    0.75    0.16 
  -7  -6  -4   -0.14    0.27 
   7  -6   4   -0.08    0.15 
  -7   6  -4    0.17    0.25 
   7   6   4    0.28    0.15 
  -8  -6  -4    0.25    0.31 
   8  -6   4   -0.15    0.16 
   8   6   4    0.16    0.17 
  -8   6  -4   -0.14    0.28 
   9  -6   4    2.25    0.27 
  -9  -6  -4    2.01    0.44 
   9   6   4    2.13    0.28 
  -9   6  -4    1.78    0.45 
  -9  -7   4   -0.09    0.27 
   9  -7  -4    0.51    0.19 
  -9   7   4    0.29    0.26 
   8  -7  -4    1.63    0.25 
  -8  -7   4    1.56    0.41 
  -8   7   4    1.54    0.37 
   7  -7  -4    1.03    0.21 
  -7  -7   4    0.70    0.31 
   7   7  -4    1.26    0.19 
  -7   7   4    0.82    0.29 
  -6  -7   4    0.13    0.26 
   6  -7  -4    0.27    0.16 
  -6   7   4    0.02    0.20 
  -6   7   4    0.34    0.17 
   6   7  -4    0.20    0.17 
   6   7  -4    0.12    0.13 
   5  -7  -4    1.92    0.24 
  -5  -7   4    2.21    0.36 
  -5   7   4    2.45    0.30 
  -5   7   4    2.43    0.31 
   5   7  -4    2.60    0.23 
   5   7  -4    2.35    0.33 
   4  -7  -4   46.91    2.34 
  -4  -7   4   49.02    2.95 
   4   7  -4   48.87    2.85 
  -4   7   4   48.96    2.83 
  -4   7   4   49.03    2.89 
   4   7  -4   52.25    2.31 
  -3  -7   4    0.99    0.23 
   3   7  -4    0.61    0.23 
  -3   7   4    0.92    0.22 
  -3   7   4    0.90    0.15 
   3   7  -4    1.00    0.11 
   2  -7  -4    2.07    0.27 
  -2  -7   4    2.82    0.33 
   2   7  -4    2.35    0.33 
  -2   7   4    2.36    0.21 
  -2   7   4    1.82    0.28 
   1  -7  -4    8.44    0.60 
  -1  -7   4    7.90    0.62 
  -1   7   4    8.51    0.45 
  -1   7   4    8.63    0.62 
   1   7  -4    8.67    0.62 
   0  -7   4    5.11    0.43 
   0  -7  -4    5.15    0.44 
   0   7   4    5.55    0.30 
   0   7   4    5.18    0.45 
   0   7  -4    5.08    0.44 
   1  -7   4    4.21    0.41 
  -1  -7  -4    4.39    0.41 
   1  -7   4    4.06    0.23 
   1   7   4    4.67    0.45 
   1   7   4    4.20    0.25 
  -1   7  -4    4.06    0.41 
   2  -7   4   34.34    1.63 
   2  -7   4   35.67    2.11 
  -2  -7  -4   35.60    2.12 
  -2   7  -4   34.38    2.04 
   2   7   4   32.66    2.06 
   2   7   4   36.76    1.64 
   3  -7   4    2.74    0.21 
  -3  -7  -4    2.38    0.37 
  -3   7  -4    3.28    0.34 
  -3   7  -4    3.04    0.32 
   3   7   4    2.74    0.21 
   3   7   4    2.19    0.32 
   4  -7   4    1.66    0.18 
  -4  -7  -4    1.63    0.33 
   4   7   4    1.85    0.17 
   4   7   4    1.98    0.30 
  -4   7  -4    1.91    0.27 
  -4   7  -4    1.93    0.25 
  -5  -7  -4    0.06    0.26 
   5  -7   4    0.17    0.12 
   5   7   4    0.13    0.11 
  -5   7  -4    0.05    0.17 
   5   7   4    0.07    0.19 
  -5   7  -4   -0.02    0.13 
  -6  -7  -4    3.78    0.56 
   6  -7   4    4.60    0.34 
   6   7   4    5.35    0.33 
  -6   7  -4    4.48    0.50 
   7  -7   4    2.30    0.25 
  -7  -7  -4    1.23    0.40 
   7   7   4    2.37    0.25 
  -7   7  -4    2.53    0.42 
   8  -7   4   -0.10    0.15 
  -8  -7  -4   -0.20    0.27 
  -8   7  -4    0.06    0.27 
   8   7   4   -0.02    0.16 
   8  -8  -4    4.44    0.37 
  -8  -8   4    3.55    0.58 
  -8   8   4    4.93    0.56 
   7  -8  -4    4.48    0.35 
  -7  -8   4    2.91    0.49 
  -7   8   4    3.86    0.46 
  -6  -8   4    0.15    0.26 
   6  -8  -4    0.02    0.14 
  -6   8   4    0.22    0.20 
   6   8  -4    0.02    0.18 
   5  -8  -4    6.01    0.40 
  -5  -8   4    6.66    0.61 
  -5   8   4    6.64    0.51 
   5   8  -4    5.42    0.51 
  -5   8   4    5.57    0.50 
   4  -8  -4    3.99    0.32 
  -4  -8   4    5.72    0.54 
  -4   8   4    4.14    0.39 
   4   8  -4    4.74    0.43 
  -4   8   4    3.90    0.38 
  -3  -8   4   -0.11    0.18 
   3  -8  -4   -0.06    0.16 
   3   8  -4    0.29    0.21 
  -3   8   4    0.04    0.17 
  -3   8   4   -0.05    0.11 
  -2  -8   4   12.78    0.89 
   2  -8  -4   12.68    0.86 
  -2   8   4   13.05    0.67 
   2   8  -4   12.68    0.88 
  -2   8   4   13.68    0.88 
  -1  -8   4    1.02    0.24 
   1  -8  -4    1.02    0.22 
  -1   8   4    0.75    0.22 
  -1   8   4    1.73    0.16 
   1   8  -4    1.52    0.28 
   0  -8  -4   45.49    2.71 
   0  -8   4   43.88    2.71 
   0   8   4   48.89    2.14 
   0   8   4   46.12    2.67 
   0   8  -4   44.33    2.66 
   1  -8   4    1.07    0.23 
  -1  -8  -4    1.02    0.24 
   1   8   4    0.93    0.26 
   1   8   4    1.00    0.11 
  -1   8  -4    1.16    0.23 
  -2  -8  -4    3.62    0.42 
   2  -8   4    4.18    0.42 
   2   8   4    3.28    0.40 
   2   8   4    4.05    0.24 
  -2   8  -4    4.14    0.40 
  -3  -8  -4   13.08    0.93 
  -3   8  -4   13.10    0.85 
  -3   8  -4   12.66    0.87 
   3   8   4   13.27    0.65 
   3   8   4   12.90    0.90 
   4  -8   4    1.13    0.15 
  -4  -8  -4    1.06    0.31 
  -4   8  -4    1.28    0.22 
   4   8   4    0.86    0.14 
   4   8   4    0.91    0.26 
  -4   8  -4    1.32    0.25 
  -5  -8  -4    4.86    0.58 
   5  -8   4    4.36    0.30 
  -5   8  -4    4.05    0.36 
   5   8   4    4.25    0.30 
  -5   8  -4    4.00    0.44 
   5   8   4    3.75    0.45 
   6  -8   4   11.78    0.64 
  -6  -8  -4   10.06    0.96 
  -6   8  -4   12.03    0.86 
   7  -8   4    0.50    0.17 
  -7  -8  -4   -0.19    0.26 
  -7   8  -4    0.66    0.27 
   8  -8   4    0.75    0.20 
  -8  -8  -4    0.88    0.36 
  -8   8  -4    0.72    0.36 
  -8  -9   4    0.01    0.30 
  -8   9   4   -0.08    0.26 
  -7  -9   4    3.73    0.54 
   7  -9  -4    3.31    0.34 
  -7   9   4    2.96    0.43 
   6  -9  -4    1.48    0.23 
  -6  -9   4    1.67    0.38 
   6   9  -4    1.56    0.29 
  -6   9   4    2.00    0.32 
  -5  -9   4    0.66    0.27 
   5   9  -4    0.68    0.24 
  -5   9   4    0.73    0.20 
  -5   9   4    0.64    0.22 
  -4  -9   4    0.22    0.22 
   4  -9  -4    0.80    0.24 
   4   9  -4    0.49    0.24 
  -4   9   4    1.18    0.25 
   3  -9  -4    4.26    0.41 
  -3  -9   4    3.97    0.44 
   3   9  -4    4.90    0.48 
  -3   9   4    3.51    0.41 
  -2  -9   4    6.73    0.57 
   2  -9  -4    7.28    0.56 
  -2   9   4    7.38    0.57 
   2   9  -4    7.16    0.58 
  -1  -9   4   23.80    1.48 
   1  -9  -4   23.32    1.46 
   1   9  -4   23.72    1.46 
  -1   9   4   23.34    1.46 
   0  -9  -4   11.11    0.78 
   0  -9   4   11.11    0.80 
   0   9   4   11.96    0.81 
   0   9  -4   11.37    0.79 
   1  -9   4    0.94    0.23 
  -1  -9  -4    0.95    0.25 
   1   9   4    1.37    0.29 
  -1   9  -4    1.31    0.26 
  -2  -9  -4    2.42    0.35 
   2  -9   4    4.03    0.42 
  -2   9  -4    2.86    0.35 
   2   9   4    2.32    0.35 
  -3  -9  -4   -0.06    0.22 
   3  -9   4   -0.01    0.20 
  -3   9  -4    0.10    0.17 
   3   9   4    0.00    0.17 
  -4  -9  -4    0.94    0.28 
   4   9   4    0.48    0.23 
  -4   9  -4    0.77    0.20 
  -4   9  -4    1.38    0.24 
  -5  -9  -4    0.77    0.32 
   5   9   4    0.48    0.26 
  -5   9  -4    0.87    0.23 
  -5   9  -4    1.26    0.24 
  -6  -9  -4   -0.11    0.28 
  -6   9  -4    0.16    0.20 
  -7  -9  -4    1.02    0.37 
  -7   9  -4    1.60    0.36 
  -7 -10   4   -0.10    0.30 
  -7  10   4    0.13    0.25 
  -6 -10   4    3.87    0.55 
   6  10  -4    3.45    0.42 
  -5 -10   4    3.27    0.48 
   5 -10  -4    2.78    0.39 
   5  10  -4    3.36    0.42 
  -5  10   4    3.45    0.39 
   4 -10  -4    2.50    0.33 
  -4 -10   4    2.18    0.37 
  -4  10   4    3.24    0.37 
   4  10  -4    1.71    0.33 
  -3 -10   4    6.34    0.58 
   3 -10  -4    6.60    0.57 
   3  10  -4    7.48    0.62 
  -3  10   4    7.47    0.57 
  -2 -10   4    1.76    0.32 
   2 -10  -4    1.91    0.30 
  -2  10   4    1.90    0.32 
   2  10  -4    1.52    0.30 
   1 -10  -4    0.10    0.18 
  -1 -10   4    0.21    0.19 
   1  10  -4   -0.16    0.19 
  -1  10   4    0.18    0.20 
   0 -10  -4    0.22    0.18 
   0 -10   4    0.06    0.17 
   0  10   4    0.11    0.21 
   0  10  -4    0.30    0.19 
   1 -10   4    5.89    0.50 
  -1 -10  -4    5.18    0.51 
  -1  10  -4    5.04    0.51 
   1  10   4    6.42    0.56 
   2 -10   4    6.08    0.55 
  -2 -10  -4    6.85    0.57 
  -2  10  -4    5.28    0.51 
   2  10   4    6.54    0.58 
   3 -10   4    2.40    0.35 
  -3 -10  -4    3.05    0.43 
  -3  10  -4    2.45    0.31 
   3  10   4    3.10    0.41 
  -4 -10  -4   12.44    0.95 
   4 -10   4   11.87    0.88 
  -4  10  -4   12.47    0.82 
   4  10   4   11.77    0.87 
  -5 -10  -4   -0.01    0.24 
   5  10   4    0.13    0.22 
  -6 -10  -4    0.96    0.36 
  -6  10  -4    1.79    0.33 
  -7 -10  -4    1.22    0.41 
  -7  10  -4    1.59    0.33 
   7 -11  -4    1.76    0.33 
  -6 -11   4    0.24    0.30 
   6 -11  -4    0.25    0.23 
   6  11  -4    0.00    0.21 
   5 -11  -4    5.51    0.55 
  -5 -11   4    5.58    0.63 
   5  11  -4    6.32    0.55 
  -5  11   4    7.15    0.57 
   4 -11  -4    0.41    0.23 
  -4 -11   4    0.11    0.22 
   4  11  -4    0.36    0.24 
  -4  11   4    0.12    0.18 
  -3 -11   4   17.55    1.20 
   3 -11  -4   17.32    1.18 
   3  11  -4   18.17    1.19 
  -3  11   4   18.68    1.17 
  -2 -11   4    0.23    0.23 
   2 -11  -4    0.24    0.20 
   2  11  -4    0.02    0.21 
  -2  11   4    0.09    0.21 
   1 -11  -4    0.15    0.19 
  -1 -11   4    0.25    0.21 
   1  11  -4   -0.05    0.19 
  -1  11   4    0.02    0.21 
   0 -11  -4    0.40    0.24 
   0 -11   4    0.31    0.22 
   0  11  -4    0.51    0.23 
   0  11   4    0.43    0.23 
  -1 -11  -4   10.95    0.82 
   1 -11   4   10.77    0.82 
   1  11   4   11.96    0.83 
  -1  11  -4   10.96    0.79 
   2 -11   4    0.24    0.23 
  -2 -11  -4    0.45    0.24 
  -2  11  -4   -0.04    0.19 
   2  11   4    0.26    0.22 
  -3 -11  -4    3.60    0.47 
   3 -11   4    3.86    0.45 
  -3  11  -4    3.27    0.38 
   3  11   4    3.42    0.45 
  -4 -11  -4   -0.14    0.24 
   4 -11   4    0.04    0.22 
   4  11   4   -0.09    0.22 
  -4  11  -4   -0.08    0.17 
  -5 -11  -4    3.91    0.58 
   5 -11   4    3.74    0.45 
   5  11   4    5.21    0.55 
  -6 -11  -4    0.08    0.31 
   6 -11   4    0.14    0.20 
   6 -12  -4    3.13    0.42 
  -6 -12   4    3.37    0.52 
   6  12  -4    3.34    0.44 
   5 -12  -4    1.11    0.29 
  -5 -12   4    1.09    0.33 
  -5  12   4    1.88    0.32 
   5  12  -4    1.42    0.32 
   4 -12  -4    0.40    0.22 
  -4 -12   4    0.52    0.28 
  -4  12   4    0.39    0.23 
   4  12  -4    0.67    0.26 
   3 -12  -4    1.89    0.32 
  -3 -12   4    2.05    0.37 
  -3  12   4    2.42    0.37 
   3  12  -4    1.87    0.34 
   2 -12  -4    0.17    0.20 
  -2 -12   4    0.01    0.20 
  -2  12   4    0.00    0.19 
   2  12  -4    0.06    0.21 
   1 -12  -4    0.24    0.21 
  -1 -12   4    0.02    0.22 
   1  12  -4    0.07    0.23 
  -1  12   4    0.22    0.23 
   0 -12  -4    0.10    0.21 
   0 -12   4    0.05    0.19 
   0  12   4    0.14    0.21 
   0  12  -4    0.11    0.20 
  -1 -12  -4    5.85    0.59 
   1 -12   4    6.27    0.55 
  -1  12  -4    5.88    0.55 
   1  12   4    5.51    0.59 
   2 -12   4    3.64    0.42 
  -2 -12  -4    2.53    0.40 
   2  12   4    2.23    0.38 
  -2  12  -4    2.89    0.36 
  -3 -12  -4    0.48    0.28 
   3 -12   4    0.23    0.22 
  -3  12  -4    0.23    0.21 
   3  12   4    0.24    0.26 
  -4 -12  -4    3.98    0.55 
   4 -12   4    6.21    0.59 
  -4  12  -4    5.77    0.48 
   4  12   4    4.88    0.55 
  -5 -12  -4    0.03    0.25 
   5 -12   4   -0.04    0.22 
   5  12   4    0.15    0.25 
  -4 -13   4    0.19    0.23 
   4 -13  -4   -0.20    0.19 
   4  13  -4   -0.26    0.22 
  -4  13   4   -0.06    0.21 
   3 -13  -4   -0.01    0.21 
  -3 -13   4    0.19    0.24 
   3  13  -4   -0.03    0.21 
  -3  13   4    0.24    0.23 
  -2 -13   4    5.19    0.56 
   2 -13  -4    4.66    0.50 
   2  13  -4    5.41    0.56 
  -1 -13   4    9.02    0.75 
   1 -13  -4    9.46    0.74 
   1  13  -4    8.74    0.75 
  -1  13   4   10.50    0.78 
   0 -13   4    3.08    0.41 
   0 -13  -4    2.04    0.36 
   0  13  -4    2.16    0.36 
   0  13   4    1.91    0.36 
  -1 -13  -4    0.17    0.23 
   1 -13   4    0.49    0.26 
   1  13   4    0.17    0.23 
  -1  13  -4    0.24    0.22 
   2 -13   4    1.24    0.29 
  -2 -13  -4    0.65    0.28 
   2  13   4    0.67    0.27 
  -2  13  -4    0.90    0.27 
   3 -13   4    0.32    0.25 
  -3 -13  -4    0.08    0.23 
   3  13   4    0.19    0.27 
  -3  13  -4   -0.10    0.20 
  -4 -13  -4    0.44    0.31 
   4 -13   4    0.43    0.25 
   4  13   4   -0.01    0.25 
  -4  13  -4    0.21    0.20 
  -2 -14   4    0.98    0.30 
   2 -14  -4    1.21    0.30 
  -2  14   4    1.36    0.33 
   2  14  -4    1.18    0.31 
  -1 -14   4   -0.12    0.22 
   1 -14  -4   -0.18    0.22 
   1  14  -4   -0.08    0.23 
  -1  14   4    0.01    0.24 
   0 -14  -4    1.89    0.36 
   0 -14   4    2.37    0.37 
   0  14   4    2.14    0.37 
   0  14  -4    2.40    0.39 
  -1 -14  -4    0.25    0.25 
   1 -14   4    0.01    0.25 
   1  14   4   -0.18    0.21 
  -1  14  -4    0.10    0.23 
 -10   0   5    0.30    0.23 
  10   0  -5    0.28    0.19 
   9   0  -5    3.19    0.33 
  -9   0   5    3.01    0.42 
  -8   0   5    0.10    0.20 
   8   0  -5    0.12    0.18 
   7   0  -5    1.08    0.20 
  -7   0   5    1.46    0.33 
   6   0  -5    0.14    0.12 
   6   0  -5    0.31    0.17 
  -6   0   5   -0.05    0.20 
  -5   0   5   13.64    0.95 
  -5   0   5   12.64    0.72 
   5   0  -5   13.27    0.84 
  -4   0   5    0.10    0.19 
   4   0  -5    0.02    0.18 
  -4   0   5    0.04    0.11 
  -3   0   5  168.03    8.14 
   3   0  -5  172.79    9.85 
  -3   0   5  189.44   10.12 
  -2   0   5    0.17    0.09 
  -2   0   5   -0.18    0.11 
   2   0  -5   -0.26    0.20 
   1   0  -5    7.08    0.39 
   1   0  -5    7.15    0.70 
  -1   0   5    6.26    0.41 
  -1   0   5    6.43    0.36 
   0   0   5    0.02    0.06 
   0   0  -5    0.02    0.03 
   0   0  -5    0.09    0.27 
  -1   0  -5    0.05    0.27 
   1   0   5   -0.04    0.07 
  -1   0  -5   -0.09    0.07 
  -2   0  -5    0.10    0.13 
   2   0   5    0.06    0.07 
  -2   0  -5   -0.30    0.24 
  -3   0  -5   21.29    1.31 
   3   0   5   20.15    0.99 
  -3   0  -5   19.14    1.27 
  -4   0  -5   -0.17    0.21 
  -4   0  -5   -0.03    0.14 
   4   0   5    0.08    0.10 
   5   0   5   36.61    1.77 
  -5   0  -5   38.09    2.07 
  -5   0  -5   34.51    2.32 
  -6   0  -5   -0.10    0.23 
   6   0   5    0.00    0.13 
   7   0   5   16.11    0.85 
  -7   0  -5   15.02    1.18 
   8   0   5   -0.05    0.16 
  -8   0  -5    0.10    0.30 
  -9   0  -5    0.50    0.32 
   9   0   5   -0.11    0.18 
 -10  -1   5    5.12    0.58 
  10  -1  -5    5.74    0.44 
  10   1  -5    6.97    0.47 
  -9  -1   5    0.45    0.25 
   9  -1  -5    0.55    0.19 
   9   1  -5    1.16    0.23 
  -9   1   5    1.39    0.31 
   8  -1  -5    2.73    0.32 
  -8  -1   5    2.75    0.41 
   8   1  -5    2.79    0.30 
  -8   1   5    3.99    0.48 
   7  -1  -5    9.36    0.60 
  -7  -1   5   10.27    0.81 
  -7   1   5   10.60    0.81 
   7   1  -5   10.31    0.61 
   6  -1  -5    3.52    0.32 
  -6  -1   5    3.44    0.45 
   6  -1  -5    4.50    0.37 
  -6   1   5    3.40    0.45 
   6   1  -5    3.45    0.33 
   6   1  -5    3.29    0.30 
  -5  -1   5   20.60    1.36 
   5  -1  -5   20.67    1.25 
  -5  -1   5   20.30    1.04 
   5   1  -5   19.70    1.22 
  -5   1   5   19.53    1.04 
  -5   1   5   21.41    1.35 
  -4  -1   5    5.97    0.54 
  -4  -1   5    6.88    0.40 
   4  -1  -5    5.39    0.52 
  -4   1   5    5.73    0.52 
  -4   1   5    6.30    0.40 
   4   1  -5    6.19    0.49 
  -3  -1   5    2.84    0.22 
   3  -1  -5    2.47    0.37 
  -3  -1   5    2.69    0.33 
   3   1  -5    3.12    0.37 
  -3   1   5    2.86    0.31 
  -3   1   5    3.19    0.24 
  -2  -1   5   37.35    2.15 
   2  -1  -5   35.56    2.20 
  -2  -1   5   37.57    1.73 
   2   1  -5   34.82    2.18 
  -2   1   5   37.04    1.74 
  -2   1   5   36.78    2.12 
   1  -1  -5   13.50    0.92 
   1  -1  -5   12.91    0.76 
  -1  -1   5   12.42    0.63 
  -1  -1   5   13.39    0.76 
  -1   1   5   13.49    0.64 
   1   1  -5   10.75    0.90 
   0  -1   5   27.60    1.33 
   0  -1  -5   29.35    1.75 
   0  -1   5   28.89    1.62 
   0  -1  -5   26.90    1.62 
   0   1   5   28.34    1.33 
  -1  -1  -5    9.36    0.75 
   1  -1   5   10.10    0.50 
  -1  -1  -5    9.05    0.65 
  -1   1  -5    9.21    0.74 
  -1   1  -5   10.12    0.60 
   1   1   5    9.88    0.50 
   2  -1   5   34.24    1.59 
  -2  -1  -5   29.89    2.06 
  -2  -1  -5   32.97    2.05 
   2   1   5   34.47    1.60 
  -2   1  -5   34.82    1.99 
  -2   1  -5   34.48    1.98 
  -3  -1  -5    0.48    0.26 
  -3  -1  -5    0.33    0.24 
   3  -1   5    0.65    0.12 
  -3   1  -5    0.92    0.18 
  -3   1  -5    0.74    0.20 
   3   1   5    0.67    0.12 
  -4  -1  -5   33.72    2.23 
   4  -1   5   34.72    1.70 
  -4  -1  -5   36.07    2.11 
  -4   1  -5   36.66    2.01 
  -4   1  -5   36.62    2.18 
   4   1   5   34.36    1.70 
  -5  -1  -5    1.78    0.24 
   5  -1   5    1.57    0.20 
  -5  -1  -5    1.86    0.42 
  -5   1  -5    1.89    0.35 
   5   1   5    1.82    0.21 
  -6  -1  -5    1.35    0.36 
   6  -1   5    2.03    0.24 
   6   1   5    1.52    0.21 
  -6   1  -5    1.34    0.38 
   7  -1   5    8.05    0.51 
  -7  -1  -5    9.51    0.81 
   7   1   5    7.85    0.50 
  -7   1  -5    6.21    0.75 
  -8  -1  -5    0.33    0.30 
   8  -1   5   -0.08    0.15 
   8   1   5    0.00    0.15 
  -8   1  -5    0.11    0.31 
  -9  -1  -5    0.75    0.33 
   9  -1   5    0.63    0.21 
  -9   1  -5    0.58    0.35 
   9   1   5    0.22    0.19 
  10  -2  -5    0.72    0.22 
 -10  -2   5    0.26    0.26 
  10   2  -5    0.24    0.19 
 -10   2   5    0.25    0.24 
  -9  -2   5    0.50    0.28 
   9  -2  -5    1.15    0.23 
  -9   2   5    0.85    0.29 
   9   2  -5    0.92    0.19 
  -8  -2   5   -0.14    0.23 
   8  -2  -5    0.04    0.16 
  -8   2   5    0.23    0.25 
   8   2  -5    0.12    0.17 
   7  -2  -5    9.22    0.57 
  -7  -2   5    9.35    0.76 
  -7   2   5    9.36    0.76 
   7   2  -5    9.07    0.57 
  -6  -2   5   20.06    1.38 
   6  -2  -5   21.39    1.24 
   6  -2  -5   19.26    1.07 
  -6   2   5   21.29    1.38 
   6   2  -5   20.51    1.06 
   6   2  -5   20.20    1.21 
  -5  -2   5   31.68    2.27 
  -5  -2   5   40.28    1.81 
   5  -2  -5   36.72    2.19 
  -5   2   5   40.35    1.82 
   5   2  -5   37.11    2.14 
  -5   2   5   35.78    2.27 
   4  -2  -5    0.38    0.20 
  -4  -2   5    0.30    0.13 
  -4  -2   5    0.19    0.20 
  -4   2   5    0.66    0.16 
  -4   2   5    0.38    0.18 
   4   2  -5    0.37    0.17 
   3  -2  -5   -0.08    0.16 
  -3  -2   5   -0.28    0.08 
  -3  -2   5    0.08    0.14 
  -3   2   5    0.02    0.10 
  -3   2   5    0.11    0.10 
   3   2  -5    0.07    0.14 
   2  -2  -5   10.83    0.78 
  -2  -2   5   12.44    0.73 
  -2  -2   5   11.25    0.58 
  -2   2   5   11.24    0.59 
  -2   2   5   11.23    0.69 
   2   2  -5   11.71    0.81 
  -1  -2   5   57.24    3.38 
   1  -2  -5   61.09    3.36 
   1  -2  -5   62.08    3.39 
  -1  -2   5   59.21    2.74 
  -1   2   5   58.20    2.75 
   1   2  -5   56.36    3.40 
   0  -2   5   54.56    2.46 
   0  -2  -5   56.21    3.03 
   0  -2   5   53.59    3.03 
   0   2  -5   52.03    3.06 
   0   2   5   49.37    3.02 
   0   2   5   51.16    2.46 
   1  -2   5    6.73    0.36 
  -1  -2  -5    6.64    0.51 
   1   2   5    6.62    0.36 
  -1   2  -5    6.49    0.51 
  -1   2  -5    6.87    0.43 
  -2  -2  -5    9.96    0.90 
  -2  -2  -5   14.88    0.92 
  -2   2  -5   12.73    0.81 
  -2   2  -5   13.85    0.83 
   2   2   5   13.63    0.66 
  -3  -2  -5   20.16    1.44 
  -3  -2  -5   21.93    1.38 
   3  -2   5   21.51    1.05 
  -3   2  -5   20.95    1.32 
   3   2   5   21.87    1.05 
  -3   2  -5   21.74    1.26 
  -4  -2  -5   11.84    0.85 
   4  -2   5   11.29    0.61 
  -4  -2  -5   11.00    0.92 
  -4   2  -5   10.55    0.79 
  -4   2  -5   11.40    0.69 
   4   2   5   11.61    0.60 
  -5  -2  -5    0.20    0.27 
  -5  -2  -5    0.07    0.18 
   5  -2   5    0.25    0.14 
   5   2   5   -0.02    0.12 
  -5   2  -5    0.10    0.20 
   6  -2   5    1.19    0.19 
  -6  -2  -5    1.02    0.37 
  -6   2  -5    0.93    0.30 
   6   2   5    0.76    0.17 
  -7  -2  -5    3.49    0.52 
   7  -2   5    2.92    0.29 
   7   2   5    2.63    0.29 
  -7   2  -5    2.39    0.46 
   8  -2   5    2.39    0.28 
  -8  -2  -5    2.82    0.49 
   8   2   5    3.44    0.32 
  -8   2  -5    2.84    0.51 
   9  -2   5    3.62    0.36 
  -9  -2  -5    3.05    0.49 
   9   2   5    3.85    0.36 
  -9   2  -5    3.28    0.55 
  10  -3  -5    0.35    0.18 
 -10  -3   5    0.48    0.29 
 -10   3   5    0.14    0.24 
  10   3  -5    0.46    0.20 
  -9  -3   5    1.70    0.35 
   9  -3  -5    1.25    0.23 
  -9   3   5    2.13    0.39 
   9   3  -5    1.89    0.25 
   8  -3  -5   13.59    0.77 
  -8  -3   5   12.03    0.99 
   8   3  -5   13.31    0.75 
  -8   3   5   14.52    1.02 
  -7  -3   5    0.97    0.32 
   7  -3  -5    1.03    0.22 
   7   3  -5    1.52    0.22 
  -7   3   5    1.22    0.31 
  -6  -3   5    0.53    0.28 
   6  -3  -5    0.85    0.24 
   6  -3  -5    0.78    0.19 
  -6   3   5    0.77    0.26 
   6   3  -5    1.08    0.20 
   6   3  -5    0.87    0.18 
  -5  -3   5   15.79    1.13 
  -5  -3   5   16.85    0.85 
   5  -3  -5   15.52    1.05 
  -5   3   5   16.61    1.08 
   5   3  -5   15.57    1.00 
  -5   3   5   15.86    0.85 
   4  -3  -5   20.08    1.21 
  -4  -3   5   19.33    1.25 
  -4  -3   5   19.42    0.97 
   4   3  -5   18.45    1.18 
  -4   3   5   18.20    1.19 
  -4   3   5   19.62    0.99 
  -3  -3   5    0.96    0.14 
  -3  -3   5    1.30    0.22 
   3  -3  -5    0.71    0.21 
  -3   3   5    0.96    0.15 
  -3   3   5    0.65    0.13 
   3   3  -5    1.43    0.25 
  -2  -3   5   10.66    0.53 
  -2  -3   5   10.15    0.67 
  -2   3   5    9.50    0.69 
   2   3  -5   10.32    0.73 
  -2   3   5   10.37    0.63 
  -2   3   5   10.40    0.54 
   1  -3  -5   54.35    3.05 
  -1  -3   5   52.33    2.47 
  -1  -3   5   51.37    3.06 
  -1   3   5   55.95    3.05 
  -1   3   5   53.14    2.48 
   1   3  -5   52.59    3.06 
   0  -3  -5   11.75    0.74 
   0  -3   5   11.83    0.75 
   0  -3   5   12.69    0.60 
   0   3   5   11.97    0.61 
   0   3  -5   12.66    0.82 
   0   3   5   12.69    0.81 
   1  -3   5   10.90    0.51 
  -1  -3  -5   10.15    0.67 
   1   3   5   10.45    0.70 
  -1   3  -5    9.72    0.63 
  -1   3  -5    9.27    0.67 
   1   3   5   10.00    0.52 
   2  -3   5   72.16    3.28 
  -2  -3  -5   70.99    4.14 
   2   3   5   70.04    3.28 
   2   3   5   70.82    4.01 
  -2   3  -5   71.54    4.07 
  -2   3  -5   68.41    3.97 
   3  -3   5   17.87    0.88 
  -3  -3  -5   15.42    1.21 
   3   3   5   18.34    0.88 
   3   3   5   17.08    1.12 
  -3   3  -5   18.55    1.11 
  -3   3  -5   18.01    1.06 
  -4  -3  -5    2.57    0.37 
  -4  -3  -5    2.42    0.44 
   4  -3   5    2.09    0.21 
   4   3   5    2.19    0.21 
  -4   3  -5    2.47    0.23 
  -4   3  -5    2.62    0.32 
  -5  -3  -5   14.73    1.20 
   5  -3   5   16.83    0.84 
  -5  -3  -5   18.06    1.09 
  -5   3  -5   15.68    1.10 
   5   3   5   15.03    0.83 
  -6  -3  -5    2.51    0.48 
   6  -3   5    2.14    0.25 
  -6   3  -5    1.36    0.33 
   6   3   5    2.11    0.25 
   7  -3   5   -0.24    0.14 
  -7  -3  -5    0.29    0.28 
  -7   3  -5   -0.23    0.23 
   7   3   5   -0.31    0.12 
  -8  -3  -5    2.99    0.49 
   8  -3   5    2.14    0.27 
  -8   3  -5    1.83    0.45 
   8   3   5    1.90    0.27 
   9  -3   5   -0.01    0.18 
  -9  -3  -5    0.44    0.30 
  -9   3  -5   -0.12    0.26 
   9   3   5    0.13    0.18 
  10  -4  -5    0.76    0.20 
 -10  -4   5    0.56    0.29 
 -10   4   5    0.71    0.28 
  10   4  -5    0.64    0.20 
   9  -4  -5   -0.14    0.16 
  -9  -4   5   -0.18    0.20 
  -9   4   5    0.47    0.27 
   9   4  -5    0.06    0.16 
   8  -4  -5    5.18    0.39 
  -8  -4   5    4.08    0.56 
  -8   4   5    4.57    0.54 
   8   4  -5    4.99    0.38 
  -7  -4   5    0.54    0.30 
   7  -4  -5    0.33    0.17 
  -7   4   5    0.53    0.27 
   7   4  -5    0.32    0.15 
   6  -4  -5    0.06    0.14 
   6  -4  -5   -0.13    0.17 
  -6  -4   5   -0.10    0.22 
  -6   4   5   -0.11    0.20 
   6   4  -5    0.13    0.15 
   6   4  -5    0.09    0.12 
  -5  -4   5    2.25    0.37 
   5  -4  -5    3.06    0.36 
  -5   4   5    2.02    0.24 
   5   4  -5    2.68    0.31 
  -5   4   5    2.90    0.35 
   5   4  -5    2.34    0.24 
  -4  -4   5   61.42    3.40 
  -4  -4   5   57.79    2.70 
  -4   4   5   56.12    3.26 
   4   4  -5   55.32    3.27 
  -4   4   5   57.66    2.72 
  -4   4   5   55.97    3.34 
  -3  -4   5    4.27    0.29 
  -3  -4   5    4.31    0.40 
  -3   4   5    4.82    0.32 
  -3   4   5    4.17    0.39 
  -3   4   5    4.53    0.34 
   3   4  -5    4.69    0.41 
  -2  -4   5   50.90    2.45 
  -2  -4   5   53.30    3.06 
  -2   4   5   54.06    3.01 
   2   4  -5   53.05    3.03 
  -2   4   5   51.91    3.02 
  -2   4   5   52.45    2.46 
  -1  -4   5   10.44    0.50 
   1  -4  -5    9.61    0.63 
  -1  -4   5   10.56    0.66 
  -1   4   5    9.73    0.68 
   1   4  -5   10.35    0.70 
  -1   4   5    9.62    0.52 
   0  -4   5    3.51    0.29 
   0  -4   5    3.09    0.20 
   0  -4  -5    3.48    0.28 
   0   4   5    3.59    0.22 
   0   4  -5    3.43    0.35 
   0   4   5    2.78    0.33 
   1  -4   5   -0.05    0.07 
  -1  -4  -5    0.25    0.13 
   1   4   5    0.11    0.14 
  -1   4  -5    0.06    0.09 
   1   4   5    0.03    0.07 
  -1   4  -5   -0.05    0.13 
   2  -4   5    8.72    0.46 
  -2  -4  -5    9.56    0.65 
  -2   4  -5    8.45    0.59 
   2   4   5    8.36    0.62 
   2   4   5    8.66    0.46 
  -2   4  -5    8.64    0.58 
   3  -4   5    0.05    0.10 
  -3  -4  -5   -0.04    0.22 
   3   4   5    0.07    0.08 
   3   4   5    0.06    0.17 
  -3   4  -5   -0.03    0.11 
  -3   4  -5    0.13    0.13 
   4  -4   5    0.51    0.12 
  -4  -4  -5    0.15    0.24 
  -4   4  -5    0.48    0.20 
  -4   4  -5    0.50    0.14 
   4   4   5    0.69    0.14 
   4   4   5    0.31    0.19 
   5  -4   5    0.21    0.13 
  -5  -4  -5   -0.10    0.25 
  -5   4  -5    0.08    0.18 
   5   4   5    0.22    0.13 
  -5   4  -5    0.19    0.11 
  -6  -4  -5   28.93    2.05 
   6  -4   5   32.01    1.54 
  -6   4  -5   33.46    1.99 
   6   4   5   30.87    1.54 
  -7  -4  -5    2.51    0.46 
   7  -4   5    1.78    0.23 
   7   4   5    2.19    0.25 
  -7   4  -5    1.68    0.37 
  -8  -4  -5    0.85    0.36 
   8  -4   5    1.23    0.23 
   8   4   5    1.60    0.25 
  -8   4  -5    0.83    0.36 
   9  -4   5    1.03    0.23 
  -9  -4  -5    0.77    0.31 
  -9   4  -5    1.00    0.37 
   9   4   5    1.33    0.24 
  10  -5  -5    1.04    0.23 
 -10  -5   5    1.18    0.36 
 -10   5   5    0.87    0.31 
  10   5  -5    0.96    0.20 
   9  -5  -5    3.75    0.35 
  -9  -5   5    3.47    0.53 
   9   5  -5    4.40    0.36 
  -9   5   5    3.82    0.52 
   8  -5  -5    2.47    0.29 
  -8  -5   5    2.19    0.45 
  -8   5   5    4.00    0.51 
   8   5  -5    2.47    0.27 
  -7  -5   5    0.98    0.34 
   7  -5  -5    1.68    0.25 
  -7   5   5    1.61    0.35 
   7   5  -5    1.94    0.23 
   6  -5  -5    0.46    0.18 
   6  -5  -5    0.66    0.21 
  -6  -5   5    0.48    0.29 
  -6   5   5    0.29    0.22 
   6   5  -5    0.65    0.16 
   6   5  -5    0.43    0.18 
  -5  -5   5    8.96    0.74 
   5   5  -5    8.12    0.63 
   5   5  -5    9.43    0.52 
  -5   5   5    8.82    0.53 
  -5   5   5    9.93    0.67 
  -4  -5   5   28.74    1.70 
  -4   5   5   27.41    1.63 
   4   5  -5   26.49    1.63 
  -4   5   5   26.58    1.62 
  -4   5   5   26.67    1.34 
  -3  -5   5    6.84    0.39 
  -3  -5   5    7.12    0.54 
  -3   5   5    7.33    0.42 
  -3   5   5    6.99    0.53 
   3   5  -5    6.74    0.54 
  -3   5   5    6.34    0.47 
  -2  -5   5   30.45    1.45 
  -2  -5   5   30.95    1.84 
   2  -5  -5   29.35    1.81 
  -2   5   5   32.07    1.82 
   2   5  -5   30.84    1.83 
  -2   5   5   30.46    1.47 
  -1  -5   5   36.64    1.76 
   1  -5  -5   38.73    2.21 
  -1  -5   5   39.59    2.23 
  -1   5   5   37.92    2.21 
   1   5  -5   36.62    2.21 
  -1   5   5   37.36    1.78 
   0  -5   5    1.22    0.11 
   0  -5   5    1.26    0.19 
   0  -5  -5    1.41    0.20 
   0   5   5    1.15    0.13 
   0   5  -5    1.14    0.22 
   0   5   5    1.42    0.23 
   1  -5   5    4.25    0.24 
  -1  -5  -5    3.78    0.36 
   1  -5   5    4.40    0.36 
   1   5   5    4.26    0.39 
   1   5   5    4.04    0.25 
  -1   5  -5    3.98    0.36 
  -2  -5  -5    9.16    0.62 
   2  -5   5    7.58    0.42 
  -2   5  -5    7.82    0.56 
   2   5   5    7.93    0.43 
  -2   5  -5    8.04    0.55 
   2   5   5    7.82    0.59 
  -3  -5  -5   30.52    1.86 
   3  -5   5   28.78    1.42 
   3   5   5   29.53    1.77 
  -3   5  -5   30.73    1.73 
   3   5   5   29.69    1.42 
  -3   5  -5   29.00    1.78 
   4  -5   5   14.09    0.70 
  -4  -5  -5   12.44    1.00 
  -4   5  -5   13.37    0.83 
   4   5   5   13.50    0.69 
  -4   5  -5   13.76    0.91 
   4   5   5   13.07    0.89 
  -5  -5  -5    9.94    0.98 
   5  -5   5   13.46    0.70 
  -5   5  -5   14.79    0.82 
   5   5   5   13.78    0.89 
   5   5   5   13.37    0.70 
  -5   5  -5   13.36    0.92 
   6  -5   5    0.30    0.14 
  -6  -5  -5    0.37    0.30 
  -6   5  -5    0.09    0.25 
   6   5   5    0.46    0.15 
   7  -5   5    0.32    0.15 
  -7  -5  -5    0.38    0.32 
   7   5   5    0.32    0.16 
  -7   5  -5    0.72    0.32 
   8  -5   5    0.96    0.22 
  -8  -5  -5    1.20    0.37 
  -8   5  -5    1.37    0.41 
   8   5   5    1.54    0.23 
  -9  -5  -5    0.27    0.31 
   9  -5   5    0.27    0.19 
  -9   5  -5    0.38    0.35 
   9   5   5    0.15    0.18 
   9  -6  -5    1.00    0.22 
  -9  -6   5    1.34    0.38 
  -9   6   5    1.45    0.36 
   9   6  -5    1.46    0.23 
  -8  -6   5    0.56    0.31 
   8  -6  -5    0.33    0.18 
  -8   6   5    0.02    0.26 
   8   6  -5    0.27    0.16 
  -7  -6   5    1.34    0.34 
   7  -6  -5    1.42    0.24 
  -7   6   5    1.22    0.32 
   7   6  -5    2.28    0.24 
  -6  -6   5   24.38    1.65 
   6  -6  -5   25.71    1.26 
   6  -6  -5   25.57    1.52 
   6   6  -5   23.98    1.49 
  -6   6   5   25.57    1.58 
   6   6  -5   23.98    1.23 
  -5  -6   5    2.92    0.41 
   5   6  -5    3.19    0.37 
  -5   6   5    3.57    0.34 
  -5   6   5    3.14    0.36 
  -5   6   5    3.25    0.31 
   5   6  -5    3.94    0.28 
  -4  -6   5    4.76    0.49 
  -4   6   5    4.87    0.34 
  -4   6   5    4.38    0.38 
  -4   6   5    4.70    0.42 
   4   6  -5    4.94    0.31 
   4   6  -5    4.60    0.47 
  -3  -6   5    4.35    0.44 
  -3  -6   5    4.91    0.30 
  -3   6   5    5.02    0.37 
  -3   6   5    4.32    0.42 
  -3   6   5    4.72    0.33 
   3   6  -5    5.04    0.44 
  -2  -6   5   10.72    0.72 
   2  -6  -5   10.16    0.68 
  -2  -6   5   10.18    0.52 
  -2   6   5   10.22    0.55 
  -2   6   5    9.89    0.70 
   2   6  -5    9.95    0.73 
  -1  -6   5   13.81    0.89 
   1  -6  -5   13.00    0.87 
  -1  -6   5   14.20    0.66 
  -1   6   5   14.34    0.69 
   1   6  -5   13.40    0.91 
  -1   6   5   13.37    0.90 
   0  -6  -5   35.63    2.18 
   0  -6   5   36.57    2.18 
   0  -6   5   38.54    1.72 
   0   6   5   35.45    2.17 
   0   6   5   37.06    1.74 
   0   6  -5   37.73    2.17 
  -1  -6  -5    4.61    0.38 
   1  -6   5    3.87    0.23 
   1  -6   5    3.54    0.36 
  -1   6  -5    4.21    0.39 
   1   6   5    4.07    0.25 
   1   6   5    4.76    0.45 
  -2  -6  -5    2.71    0.34 
   2  -6   5    2.75    0.20 
  -2   6  -5    3.18    0.34 
   2   6   5    3.25    0.22 
  -2   6  -5    3.37    0.31 
   2   6   5    3.13    0.38 
  -3  -6  -5   12.51    0.96 
   3  -6   5   14.08    0.70 
   3   6   5   13.69    0.70 
  -3   6  -5   13.80    0.90 
  -3   6  -5   14.31    0.87 
   3   6   5   14.09    0.93 
   4  -6   5    7.40    0.43 
  -4  -6  -5    7.89    0.69 
   4   6   5    7.33    0.58 
  -4   6  -5    6.78    0.56 
  -4   6  -5    7.97    0.53 
   4   6   5    7.38    0.42 
   5  -6   5    1.14    0.18 
  -5  -6  -5    0.68    0.29 
   5   6   5    1.16    0.17 
   5   6   5    1.17    0.26 
  -5   6  -5    1.03    0.26 
  -5   6  -5    1.05    0.18 
   6  -6   5   -0.07    0.13 
  -6  -6  -5    0.20    0.28 
   6   6   5   -0.05    0.13 
  -6   6  -5    0.00    0.23 
   7  -6   5    0.16    0.16 
  -7  -6  -5    0.06    0.28 
   7   6   5    0.23    0.16 
  -7   6  -5    0.01    0.23 
   8  -6   5    5.20    0.39 
  -8  -6  -5    4.41    0.60 
  -8   6  -5    5.22    0.62 
   8   6   5    4.27    0.37 
   9  -7  -5    3.95    0.37 
  -9  -7   5    3.64    0.57 
  -9   7   5    4.85    0.57 
  -8  -7   5    0.56    0.33 
   8  -7  -5    0.26    0.17 
  -8   7   5    0.41    0.29 
   7  -7  -5   11.83    0.67 
  -7  -7   5   10.00    0.93 
  -7   7   5   12.26    0.87 
   6  -7  -5    0.33    0.16 
  -6  -7   5    0.11    0.23 
  -6   7   5    0.32    0.20 
  -6   7   5    0.47    0.19 
   6   7  -5    0.43    0.14 
   6   7  -5    0.49    0.21 
   5  -7  -5    3.83    0.33 
  -5  -7   5    3.42    0.44 
  -5   7   5    3.89    0.39 
  -5   7   5    4.33    0.42 
   5   7  -5    3.91    0.42 
   5   7  -5    4.06    0.28 
  -4  -7   5    3.56    0.42 
   4   7  -5    3.10    0.24 
   4   7  -5    3.73    0.41 
  -4   7   5    2.27    0.32 
  -4   7   5    3.33    0.29 
  -4   7   5    3.58    0.33 
   3  -7  -5   -0.07    0.14 
  -3  -7   5    0.17    0.17 
   3   7  -5   -0.01    0.08 
  -3   7   5    0.02    0.14 
   3   7  -5   -0.07    0.19 
  -3   7   5    0.21    0.13 
   2  -7  -5    1.56    0.24 
  -2  -7   5    1.57    0.27 
   2   7  -5    1.37    0.29 
  -2   7   5    1.66    0.18 
  -2   7   5    1.52    0.26 
   1  -7  -5    0.68    0.18 
  -1  -7   5    0.66    0.21 
  -1   7   5    0.73    0.21 
   1   7  -5    0.67    0.22 
  -1   7   5    0.71    0.12 
   0  -7   5    9.83    0.68 
   0  -7   5    9.90    0.47 
   0  -7  -5   10.18    0.68 
   0   7  -5    8.72    0.68 
   0   7   5   10.24    0.51 
   0   7   5    9.14    0.69 
  -1  -7  -5   57.27    3.46 
   1  -7   5   59.53    2.73 
   1  -7   5   58.22    3.45 
   1   7   5   61.80    2.75 
   1   7   5   58.76    3.39 
  -1   7  -5   58.33    3.37 
   2  -7   5    6.38    0.50 
  -2  -7  -5    6.29    0.53 
   2  -7   5    6.06    0.33 
   2   7   5    6.09    0.35 
  -2   7  -5    6.06    0.49 
   2   7   5    6.37    0.52 
   3  -7   5   14.33    0.71 
  -3  -7  -5   12.93    0.98 
   3   7   5   14.24    0.96 
   3   7   5   14.56    0.71 
  -3   7  -5   14.59    0.90 
  -3   7  -5   13.58    0.91 
   4  -7   5    3.99    0.26 
  -4  -7  -5    3.08    0.45 
  -4   7  -5    3.48    0.34 
   4   7   5    3.17    0.25 
  -4   7  -5    3.29    0.37 
   4   7   5    3.13    0.40 
   5  -7   5    0.74    0.15 
  -5  -7  -5    0.34    0.28 
  -5   7  -5    0.54    0.18 
  -5   7  -5    1.07    0.26 
   5   7   5    0.68    0.14 
   5   7   5    0.82    0.24 
  -6  -7  -5    0.12    0.27 
   6  -7   5   -0.06    0.13 
   6   7   5   -0.13    0.11 
  -6   7  -5   -0.14    0.21 
   7  -7   5    6.11    0.40 
  -7  -7  -5    3.96    0.60 
  -7   7  -5    5.34    0.58 
   7   7   5    5.73    0.38 
  -8  -7  -5    0.12    0.29 
   8  -7   5    0.01    0.16 
  -8   7  -5   -0.01    0.29 
   8   7   5    0.12    0.15 
   8  -8  -5    0.42    0.18 
  -8  -8   5    0.12    0.29 
  -8   8   5    0.17    0.26 
   7  -8  -5    0.15    0.15 
  -7  -8   5   -0.08    0.25 
  -7   8   5    0.01    0.22 
   6  -8  -5    6.62    0.43 
  -6  -8   5    5.58    0.62 
  -6   8   5    5.59    0.51 
   6   8  -5    6.23    0.52 
  -6   8   5    6.38    0.54 
   5  -8  -5    1.60    0.22 
  -5  -8   5    1.24    0.33 
  -5   8   5    1.39    0.26 
  -5   8   5    2.00    0.28 
   5   8  -5    1.48    0.29 
  -4  -8   5    3.42    0.42 
   4  -8  -5    2.57    0.34 
  -4   8   5    3.46    0.37 
  -4   8   5    2.90    0.27 
   4   8  -5    2.52    0.37 
   3  -8  -5   41.73    2.53 
  -3  -8   5   44.90    2.58 
  -3   8   5   44.14    2.04 
  -3   8   5   41.25    2.49 
   3   8  -5   41.58    2.51 
   2  -8  -5    5.43    0.46 
  -2  -8   5    5.11    0.49 
   2   8  -5    5.70    0.53 
  -2   8   5    6.08    0.36 
  -2   8   5    5.75    0.51 
   1  -8  -5    2.30    0.29 
  -1  -8   5    2.61    0.33 
  -1   8   5    2.27    0.20 
   1   8  -5    2.55    0.36 
  -1   8   5    2.53    0.34 
   0  -8   5   11.62    0.82 
   0  -8  -5   12.23    0.82 
   0   8   5   13.03    0.62 
   0   8  -5   11.96    0.83 
   0   8   5   11.21    0.83 
  -1  -8  -5    0.65    0.22 
   1  -8   5    0.61    0.21 
   1   8   5    1.02    0.24 
   1   8   5    0.73    0.11 
  -1   8  -5    0.55    0.20 
   2  -8   5    0.68    0.21 
  -2  -8  -5    0.27    0.21 
   2   8   5    0.44    0.21 
   2   8   5    0.63    0.11 
  -2   8  -5    0.45    0.19 
  -3  -8  -5   16.19    1.16 
   3   8   5   17.37    1.13 
  -3   8  -5   17.40    1.08 
   3   8   5   17.64    0.85 
   4  -8   5    1.49    0.17 
  -4  -8  -5    1.33    0.33 
  -4   8  -5    1.33    0.26 
  -4   8  -5    1.10    0.22 
   4   8   5    0.60    0.26 
   4   8   5    1.49    0.16 
   5  -8   5    6.42    0.40 
  -5  -8  -5    7.72    0.76 
  -5   8  -5    6.28    0.56 
   5   8   5    7.29    0.59 
   5   8   5    6.75    0.40 
  -6  -8  -5    1.42    0.40 
   6  -8   5    1.30    0.19 
  -6   8  -5    1.34    0.30 
  -7  -8  -5    3.81    0.60 
   7  -8   5    5.29    0.39 
  -7   8  -5    6.67    0.59 
   8  -8   5    1.05    0.23 
  -8  -8  -5    0.51    0.35 
  -8   8  -5    1.31    0.33 
  -8  -9   5   -0.29    0.27 
  -8   9   5    0.08    0.26 
  -7  -9   5    0.50    0.34 
   7  -9  -5    0.82    0.19 
  -7   9   5    0.61    0.26 
  -6  -9   5    1.49    0.36 
   6  -9  -5    1.53    0.22 
  -6   9   5    1.20    0.27 
   6   9  -5    1.58    0.30 
   5  -9  -5    6.81    0.45 
  -5  -9   5    6.85    0.62 
  -5   9   5    6.95    0.56 
   5   9  -5    6.41    0.57 
   4  -9  -5    0.85    0.23 
  -4  -9   5    1.32    0.31 
   4   9  -5    1.70    0.30 
  -4   9   5    1.44    0.26 
  -3  -9   5    0.18    0.21 
   3  -9  -5    0.43    0.19 
  -3   9   5    0.24    0.21 
   3   9  -5    0.11    0.21 
   2  -9  -5   11.96    0.84 
  -2  -9   5   12.21    0.86 
  -2   9   5   13.05    0.87 
   2   9  -5   12.66    0.89 
   1  -9  -5   11.31    0.77 
  -1  -9   5   10.55    0.78 
   1   9  -5   11.14    0.79 
  -1   9   5   10.72    0.78 
   0  -9   5    4.93    0.43 
   0  -9  -5    4.36    0.42 
   0   9   5    4.72    0.50 
   0   9  -5    4.87    0.49 
  -1  -9  -5    1.23    0.26 
   1  -9   5    0.27    0.20 
   1   9   5    0.63    0.23 
  -1   9  -5    0.53    0.21 
  -2  -9  -5    0.72    0.23 
   2  -9   5    0.90    0.23 
   2   9   5    1.06    0.27 
  -2   9  -5    1.01    0.22 
   3  -9   5    1.65    0.31 
  -3  -9  -5    2.36    0.37 
  -3   9  -5    2.20    0.29 
   3   9   5    2.05    0.34 
  -4  -9  -5   11.08    0.89 
   4   9   5   11.09    0.84 
  -4   9  -5   11.02    0.76 
  -4   9  -5   11.66    0.79 
  -5  -9  -5    4.74    0.58 
   5   9   5    4.33    0.50 
  -5   9  -5    4.52    0.47 
  -6  -9  -5    0.81    0.36 
  -6   9  -5    0.74    0.27 
  -7  -9  -5    0.30    0.31 
  -7   9  -5    0.54    0.26 
  -7 -10   5    1.08    0.37 
  -7  10   5    1.28    0.32 
   6 -10  -5    0.84    0.26 
  -6 -10   5    0.94    0.33 
   6  10  -5    1.13    0.28 
  -5 -10   5    8.90    0.75 
   5 -10  -5    8.62    0.66 
   5  10  -5    7.35    0.66 
  -5  10   5    8.37    0.64 
  -4 -10   5    3.31    0.43 
   4 -10  -5    3.62    0.42 
   4  10  -5    3.58    0.44 
  -4  10   5    3.96    0.42 
  -3 -10   5    1.80    0.32 
   3 -10  -5    2.75    0.34 
   3  10  -5    2.78    0.38 
  -3  10   5    3.31    0.40 
  -2 -10   5    1.38    0.29 
   2 -10  -5    0.68    0.22 
  -2  10   5    0.79    0.24 
   2  10  -5    1.04    0.27 
   1 -10  -5   11.41    0.79 
  -1 -10   5    9.96    0.78 
  -1  10   5   11.92    0.81 
   1  10  -5   11.10    0.82 
   0 -10   5    8.08    0.61 
   0 -10  -5    7.59    0.60 
   0  10  -5    6.70    0.59 
   0  10   5    7.52    0.64 
  -1 -10  -5    1.50    0.30 
   1 -10   5    1.33    0.28 
  -1  10  -5    1.40    0.28 
   1  10   5    0.77    0.28 
  -2 -10  -5    2.00    0.34 
   2 -10   5    1.48    0.29 
  -2  10  -5    1.50    0.28 
   2  10   5    1.38    0.30 
   3 -10   5    3.74    0.43 
  -3 -10  -5    4.38    0.50 
   3  10   5    3.23    0.45 
  -3  10  -5    3.58    0.40 
  -4 -10  -5    1.35    0.34 
   4 -10   5    0.71    0.26 
   4  10   5    0.62    0.28 
  -4  10  -5    1.05    0.23 
   5 -10   5    0.71    0.23 
  -5 -10  -5    0.31    0.31 
   5  10   5    0.69    0.29 
  -6 -10  -5    4.53    0.64 
  -6  10  -5    4.56    0.50 
   6 -11  -5    0.40    0.23 
  -6 -11   5    0.84    0.31 
   6  11  -5    0.56    0.25 
   5 -11  -5   -0.01    0.20 
  -5 -11   5   -0.31    0.24 
   5  11  -5    0.26    0.21 
  -5  11   5   -0.06    0.19 
   4 -11  -5    1.63    0.30 
  -4 -11   5    1.56    0.33 
  -4  11   5    2.40    0.35 
   4  11  -5    1.77    0.35 
   3 -11  -5   -0.05    0.18 
  -3 -11   5    0.09    0.21 
   3  11  -5    0.01    0.22 
  -3  11   5    0.08    0.19 
  -2 -11   5    1.98    0.34 
   2 -11  -5    1.29    0.28 
  -2  11   5    1.49    0.32 
   2  11  -5    1.34    0.30 
  -1 -11   5    0.15    0.21 
   1 -11  -5   -0.18    0.16 
   1  11  -5   -0.23    0.19 
  -1  11   5    0.07    0.19 
   0 -11  -5    7.44    0.61 
   0 -11   5    6.92    0.60 
   0  11  -5    6.79    0.61 
   0  11   5    8.21    0.66 
   1 -11   5    0.29    0.21 
  -1 -11  -5    0.69    0.26 
  -1  11  -5    0.70    0.25 
   1  11   5    0.60    0.25 
   2 -11   5   17.85    1.23 
  -2 -11  -5   18.15    1.25 
  -2  11  -5   18.90    1.20 
   2  11   5   19.45    1.26 
  -3 -11  -5   -0.05    0.23 
   3 -11   5    0.02    0.19 
  -3  11  -5   -0.10    0.17 
   3  11   5    0.25    0.25 
  -4 -11  -5   -0.19    0.24 
   4 -11   5    0.11    0.22 
   4  11   5    0.10    0.25 
  -4  11  -5   -0.07    0.17 
  -5 -11  -5   -0.36    0.26 
   5 -11   5    0.10    0.20 
   5  11   5   -0.20    0.23 
  -6 -11  -5    1.18    0.39 
   6 -11   5    1.41    0.29 
  -5 -12   5    2.35    0.42 
   5 -12  -5    2.33    0.37 
   5  12  -5    2.75    0.40 
  -5  12   5    3.01    0.40 
  -4 -12   5    2.42    0.42 
   4 -12  -5    2.46    0.36 
  -4  12   5    2.61    0.39 
   4  12  -5    2.86    0.42 
  -3 -12   5    1.43    0.31 
   3 -12  -5    0.80    0.26 
   3  12  -5    0.90    0.30 
  -3  12   5    1.33    0.30 
  -2 -12   5    0.94    0.26 
   2 -12  -5    0.85    0.24 
  -2  12   5    0.67    0.27 
   2  12  -5    0.65    0.27 
  -1 -12   5    4.44    0.50 
   1 -12  -5    4.91    0.50 
  -1  12   5    4.84    0.52 
   1  12  -5    4.58    0.52 
   0 -12   5    1.12    0.27 
   0 -12  -5    1.48    0.31 
   0  12  -5    1.52    0.30 
   0  12   5    1.47    0.31 
  -1 -12  -5    1.09    0.29 
   1 -12   5    1.61    0.31 
   1  12   5    1.27    0.33 
  -1  12  -5    0.59    0.25 
   2 -12   5    1.93    0.34 
  -2 -12  -5    1.21    0.31 
   2  12   5    1.19    0.31 
  -2  12  -5    1.39    0.28 
  -3 -12  -5    1.93    0.37 
   3 -12   5    1.00    0.30 
  -3  12  -5    0.40    0.20 
   3  12   5    0.98    0.32 
   4 -12   5    0.35    0.25 
  -4 -12  -5   -0.15    0.24 
  -4  12  -5    0.18    0.19 
   4  12   5    0.06    0.26 
   5 -12   5    0.58    0.26 
  -5 -12  -5    0.79    0.36 
   5  12   5    0.06    0.25 
  -4 -13   5    0.79    0.30 
   4 -13  -5    0.61    0.24 
   4  13  -5    1.01    0.32 
  -4  13   5    0.82    0.28 
   3 -13  -5    0.48    0.23 
  -3 -13   5    0.43    0.26 
   3  13  -5    0.69    0.28 
  -3  13   5    0.89    0.28 
   2 -13  -5    3.57    0.45 
  -2 -13   5    3.84    0.49 
   2  13  -5    4.45    0.51 
  -2  13   5    4.60    0.52 
   1 -13  -5    2.81    0.39 
  -1 -13   5    3.77    0.46 
  -1  13   5    3.47    0.45 
   1  13  -5    2.93    0.42 
   0 -13  -5    0.36    0.24 
   0 -13   5    0.44    0.25 
   0  13  -5    0.47    0.26 
   0  13   5    0.40    0.28 
   1 -13   5    0.07    0.23 
  -1 -13  -5    0.11    0.21 
  -1  13  -5    0.26    0.24 
   1  13   5    0.50    0.28 
  -2 -13  -5    0.29    0.24 
   2 -13   5    0.32    0.24 
  -2  13  -5    0.06    0.19 
   2  13   5    0.13    0.25 
   3 -13   5    0.89    0.30 
  -3 -13  -5    0.99    0.33 
   3  13   5    0.75    0.31 
  -3  13  -5    0.74    0.23 
  -1 -14   5    0.11    0.23 
   1 -14  -5   -0.08    0.22 
  -1  14   5   -0.09    0.21 
   1  14  -5    0.08    0.22 
   0 -14   5    1.47    0.32 
   0 -14  -5    1.63    0.33 
   0  14  -5    1.12    0.29 
   0  14   5    2.05    0.37 
  -1 -14  -5    0.10    0.22 
   1 -14   5   -0.06    0.24 
   1  14   5   -0.11    0.22 
  -1  14  -5    0.53    0.23 
  10   0  -6    0.94    0.23 
 -10   0   6    0.57    0.26 
   9   0  -6    0.24    0.19 
  -9   0   6    0.27    0.22 
  -8   0   6    4.18    0.50 
   8   0  -6    4.24    0.39 
  -7   0   6    0.24    0.21 
   7   0  -6    0.14    0.17 
  -6   0   6    6.24    0.43 
  -6   0   6    7.03    0.58 
   6   0  -6    5.52    0.45 
  -5   0   6    0.07    0.13 
   5   0  -6    0.34    0.20 
  -5   0   6    0.27    0.22 
   4   0  -6   62.73    3.60 
  -4   0   6   68.30    3.70 
  -4   0   6   57.59    2.95 
  -3   0   6    0.19    0.10 
  -3   0   6   -0.06    0.14 
   3   0  -6    0.02    0.21 
   2   0  -6   -0.23    0.23 
  -2   0   6   -0.02    0.08 
  -2   0   6    0.11    0.12 
  -1   0   6   -0.10    0.07 
   1   0  -6    0.10    0.29 
   0   0  -6    1.05    0.38 
   0   0   6    1.26    0.13 
   1   0   6    0.12    0.09 
  -1   0  -6    0.35    0.32 
  -1   0  -6    0.06    0.07 
   2   0   6  320.04   14.41 
  -2   0  -6  330.46   17.88 
  -2   0  -6  290.87   17.46 
  -3   0  -6   -0.22    0.23 
  -3   0  -6   -0.12    0.14 
   3   0   6    0.08    0.10 
   4   0   6    2.12    0.22 
  -4   0  -6    1.95    0.29 
  -4   0  -6    1.46    0.32 
  -5   0  -6   -0.21    0.11 
   5   0   6    0.02    0.13 
  -5   0  -6   -0.19    0.22 
  -6   0  -6    7.64    0.72 
   6   0   6    7.37    0.46 
   7   0   6   -0.11    0.15 
  -7   0  -6   -0.38    0.26 
  -8   0  -6    0.52    0.32 
   8   0   6    0.21    0.19 
  -9   0  -6    0.28    0.30 
   9   0   6   -0.30    0.18 
 -10  -1   6    0.09    0.22 
  10  -1  -6   -0.03    0.18 
 -10   1   6    0.15    0.23 
  10   1  -6   -0.02    0.17 
  -9  -1   6    0.07    0.21 
   9  -1  -6    0.27    0.19 
   9   1  -6    0.60    0.19 
  -9   1   6    0.65    0.26 
  -8  -1   6    8.88    0.76 
   8  -1  -6    9.08    0.60 
   8   1  -6    9.44    0.59 
  -8   1   6   10.59    0.78 
   7  -1  -6   12.93    0.72 
  -7  -1   6   12.17    0.89 
  -7   1   6   11.67    0.90 
   7   1  -6   11.93    0.70 
  -6  -1   6    3.43    0.44 
   6  -1  -6    4.21    0.39 
  -6  -1   6    3.11    0.31 
   6   1  -6    3.35    0.32 
  -6   1   6    4.08    0.47 
  -6   1   6    3.61    0.34 
  -5  -1   6   52.31    2.54 
  -5  -1   6   54.41    3.20 
   5  -1  -6   53.91    3.08 
   5   1  -6   51.92    3.05 
  -5   1   6   52.07    2.55 
  -5   1   6   56.24    3.20 
   4  -1  -6    1.29    0.31 
  -4  -1   6    0.89    0.25 
  -4  -1   6    0.76    0.15 
  -4   1   6    1.02    0.18 
  -4   1   6    0.76    0.21 
   4   1  -6    1.17    0.26 
  -3  -1   6    7.94    0.62 
   3  -1  -6    9.31    0.73 
  -3  -1   6    9.67    0.50 
   3   1  -6    9.05    0.70 
  -3   1   6    8.77    0.60 
  -3   1   6    8.25    0.49 
   2  -1  -6   36.96    2.47 
  -2  -1   6   41.07    1.95 
  -2  -1   6   41.62    2.41 
  -2   1   6   41.64    2.37 
   2   1  -6   42.00    2.48 
  -2   1   6   43.29    1.96 
   1  -1  -6    1.37    0.32 
  -1  -1   6    1.32    0.14 
  -1  -1   6    1.34    0.13 
  -1   1   6    0.98    0.12 
   1   1  -6    1.39    0.35 
   0  -1   6   34.64    1.60 
   0  -1  -6   33.75    2.12 
   0  -1   6   36.19    1.95 
   0   1  -6   27.47    2.08 
   0   1   6   34.87    1.61 
   1  -1   6    0.10    0.08 
  -1  -1  -6   -0.05    0.28 
  -1  -1  -6    0.14    0.11 
  -1   1  -6   -0.04    0.23 
  -1   1  -6    0.06    0.07 
   1   1   6    0.10    0.08 
   2  -1   6   11.99    0.60 
  -2  -1  -6   11.77    0.80 
  -2  -1  -6    9.22    0.90 
   2   1   6   11.96    0.60 
  -2   1  -6   11.71    0.74 
  -2   1  -6   11.86    0.84 
   3  -1   6   19.33    0.95 
  -3  -1  -6   18.76    1.26 
  -3  -1  -6   17.01    1.29 
  -3   1  -6   19.23    1.19 
  -3   1  -6   20.21    1.20 
   3   1   6   19.02    0.94 
  -4  -1  -6   13.73    1.06 
  -4  -1  -6   14.81    1.04 
   4  -1   6   14.11    0.76 
  -4   1  -6   14.84    0.91 
  -4   1  -6   16.28    1.02 
   4   1   6   14.95    0.76 
  -5  -1  -6   10.14    0.93 
  -5  -1  -6   13.20    0.80 
   5  -1   6   11.65    0.65 
   5   1   6   11.85    0.65 
  -5   1  -6   12.36    0.91 
  -6  -1  -6    6.01    0.69 
   6  -1   6    5.77    0.40 
  -6   1  -6    6.17    0.67 
   6   1   6    6.07    0.40 
   7  -1   6    3.09    0.30 
  -7  -1  -6    2.26    0.46 
   7   1   6    2.52    0.29 
  -7   1  -6    2.57    0.49 
   8  -1   6    1.02    0.23 
  -8  -1  -6    0.81    0.34 
  -8   1  -6    0.86    0.37 
   8   1   6    0.69    0.19 
   9  -1   6    3.12    0.34 
  -9  -1  -6    4.63    0.58 
   9   1   6    3.00    0.32 
  -9   1  -6    2.75    0.52 
 -10  -2   6    4.73    0.57 
  10  -2  -6    5.01    0.45 
 -10   2   6    6.03    0.56 
  10   2  -6    5.30    0.44 
  -9  -2   6    2.68    0.42 
   9  -2  -6    1.60    0.26 
   9   2  -6    1.81    0.26 
  -9   2   6    3.28    0.43 
   8  -2  -6    1.12    0.22 
  -8  -2   6    0.85    0.30 
   8   2  -6    0.56    0.20 
  -8   2   6    1.22    0.29 
  -7  -2   6    5.21    0.57 
   7  -2  -6    5.14    0.43 
   7   2  -6    5.12    0.40 
  -7   2   6    5.54    0.57 
  -6  -2   6    2.28    0.40 
   6  -2  -6    2.51    0.34 
  -6  -2   6    2.85    0.28 
  -6   2   6    2.98    0.30 
  -6   2   6    3.01    0.41 
   6   2  -6    3.00    0.31 
   5  -2  -6    2.19    0.36 
  -5  -2   6    1.90    0.22 
  -5  -2   6    1.35    0.30 
  -5   2   6    1.93    0.25 
  -5   2   6    2.02    0.32 
   5   2  -6    2.16    0.28 
   4  -2  -6    0.19    0.22 
  -4  -2   6    0.17    0.18 
  -4  -2   6   -0.05    0.10 
   4   2  -6    0.07    0.18 
  -4   2   6    0.02    0.12 
  -4   2   6    0.17    0.16 
  -3  -2   6    0.14    0.14 
  -3  -2   6    0.01    0.10 
   3  -2  -6    0.40    0.23 
   3   2  -6    0.08    0.20 
  -3   2   6    0.18    0.11 
  -3   2   6    0.22    0.10 
  -2  -2   6   44.59    2.53 
  -2  -2   6   43.50    2.05 
   2  -2  -6   43.25    2.57 
  -2   2   6   44.49    2.50 
  -2   2   6   45.31    2.06 
   2   2  -6   39.42    2.57 
   1  -2  -6   83.19    4.53 
  -1  -2   6   80.53    4.55 
   1  -2  -6   80.66    4.55 
  -1  -2   6   82.98    3.69 
   1   2  -6   69.40    4.55 
  -1   2   6   79.77    3.70 
   0  -2  -6   71.11    4.03 
   0  -2   6   68.92    3.99 
   0  -2   6   67.80    3.24 
   0  -2  -6   74.86    4.01 
   0   2   6   69.66    3.25 
   0   2  -6   67.06    4.03 
   1  -2   6    3.69    0.22 
  -1  -2  -6    3.26    0.37 
  -1  -2  -6    3.23    0.45 
  -1   2  -6    3.07    0.25 
   1   2   6    3.34    0.22 
  -1   2  -6    3.78    0.41 
  -2  -2  -6    0.27    0.22 
  -2  -2  -6    0.44    0.24 
   2  -2   6    0.25    0.09 
  -2   2  -6    0.32    0.12 
   2   2   6    0.43    0.11 
  -2   2  -6    0.07    0.17 
  -3  -2  -6    0.54    0.28 
  -3  -2  -6    0.76    0.33 
   3  -2   6    0.94    0.14 
  -3   2  -6    0.94    0.18 
   3   2   6    1.04    0.14 
  -3   2  -6    0.61    0.18 
   4  -2   6    5.22    0.33 
  -4  -2  -6    4.91    0.60 
  -4  -2  -6    4.59    0.57 
  -4   2  -6    5.10    0.38 
  -4   2  -6    4.35    0.42 
   4   2   6    4.90    0.33 
   5  -2   6   15.69    0.84 
  -5  -2  -6   15.91    1.09 
  -5  -2  -6   19.02    1.24 
  -5   2  -6   17.16    1.11 
   5   2   6   15.24    0.84 
  -6  -2  -6    3.54    0.51 
   6  -2   6    2.89    0.29 
   6   2   6    2.53    0.27 
  -6   2  -6    3.50    0.48 
  -7  -2  -6    0.55    0.33 
   7  -2   6    0.41    0.16 
  -7   2  -6    0.47    0.32 
   7   2   6    0.50    0.17 
  -8  -2  -6    1.95    0.43 
   8  -2   6    1.80    0.25 
   8   2   6    2.14    0.28 
  -8   2  -6    2.41    0.47 
   9  -2   6    2.85    0.31 
  -9  -2  -6    2.49    0.45 
   9   2   6    2.84    0.31 
  -9   2  -6    3.66    0.54 
 -10  -3   6    0.05    0.23 
  10  -3  -6   -0.08    0.16 
  10   3  -6   -0.03    0.17 
 -10   3   6    0.49    0.25 
  -9  -3   6    6.24    0.66 
   9  -3  -6    5.40    0.47 
   9   3  -6    5.55    0.43 
  -9   3   6    6.61    0.60 
   8  -3  -6    1.34    0.24 
  -8  -3   6    1.56    0.35 
   8   3  -6    1.38    0.23 
  -8   3   6    1.41    0.33 
  -7  -3   6    6.42    0.63 
   7  -3  -6    6.75    0.47 
  -7   3   6    7.51    0.64 
   7   3  -6    6.61    0.46 
   6  -3  -6   24.04    1.50 
  -6  -3   6   21.52    1.58 
   6   3  -6   24.30    1.23 
   6   3  -6   25.61    1.45 
  -6   3   6   24.71    1.56 
  -6   3   6   24.45    1.24 
  -5  -3   6    6.17    0.40 
  -5  -3   6    5.25    0.58 
   5  -3  -6    4.85    0.54 
   5   3  -6    6.54    0.49 
  -5   3   6    6.00    0.40 
  -5   3   6    5.71    0.50 
  -4  -3   6   20.49    1.29 
  -4  -3   6   19.24    1.00 
   4  -3  -6   19.43    1.27 
  -4   3   6   21.03    1.23 
   4   3  -6   19.31    1.24 
   3  -3  -6   46.49    2.63 
  -3  -3   6   44.35    2.12 
  -3  -3   6   46.77    2.64 
   3   3  -6   42.01    2.61 
  -3   3   6   46.12    2.13 
  -3   3   6   43.18    2.59 
  -2  -3   6    0.86    0.16 
  -2  -3   6    1.08    0.13 
   2  -3  -6    1.58    0.28 
  -2   3   6    1.06    0.14 
   2   3  -6    1.03    0.28 
  -2   3   6    1.07    0.13 
  -1  -3   6   20.22    0.95 
  -1  -3   6   18.99    1.17 
   1  -3  -6   19.76    1.15 
   1   3  -6   19.65    1.27 
  -1   3   6   19.82    0.96 
  -1   3   6   19.33    1.22 
   0  -3   6    0.87    0.11 
   0  -3   6    0.75    0.13 
   0  -3  -6    1.01    0.14 
   0   3   6    0.95    0.12 
   0   3   6    0.94    0.22 
   0   3  -6    0.82    0.23 
  -1  -3  -6   56.17    3.15 
   1  -3   6   54.54    2.52 
   1   3   6   53.53    3.11 
  -1   3  -6   52.76    3.10 
  -1   3  -6   53.56    3.10 
   1   3   6   53.19    2.52 
  -2  -3  -6    1.06    0.28 
   2  -3   6    0.88    0.12 
  -2   3  -6    0.68    0.20 
  -2   3  -6    0.84    0.15 
   2   3   6    0.94    0.23 
   2   3   6    0.76    0.12 
  -3  -3  -6    2.42    0.44 
  -3  -3  -6    4.08    0.48 
   3  -3   6    3.91    0.25 
   3   3   6    3.47    0.25 
  -3   3  -6    3.67    0.34 
  -3   3  -6    3.82    0.32 
   4  -3   6   15.82    0.81 
  -4  -3  -6   16.27    1.11 
  -4  -3  -6   14.48    1.16 
  -4   3  -6   16.97    0.96 
  -4   3  -6   15.58    1.03 
   4   3   6   15.00    0.80 
  -5  -3  -6    5.93    0.56 
   5  -3   6    4.34    0.33 
  -5  -3  -6    4.97    0.60 
  -5   3  -6    4.85    0.49 
   5   3   6    3.47    0.30 
  -6  -3  -6    4.77    0.61 
   6  -3   6    4.02    0.33 
  -6   3  -6    4.91    0.54 
   6   3   6    4.36    0.35 
   7  -3   6   13.97    0.75 
  -7  -3  -6   13.95    1.05 
  -7   3  -6   13.29    1.01 
   7   3   6   12.43    0.74 
  -8  -3  -6    2.45    0.45 
   8  -3   6    1.44    0.24 
   8   3   6    1.46    0.25 
  -8   3  -6    1.36    0.40 
  -9  -3  -6    0.76    0.32 
   9  -3   6    0.30    0.20 
   9   3   6    0.65    0.19 
  -9   3  -6    0.03    0.32 
 -10  -4   6    1.35    0.36 
  10  -4  -6    0.92    0.21 
  10   4  -6    1.36    0.23 
 -10   4   6    1.69    0.33 
  -9  -4   6   -0.20    0.24 
   9  -4  -6    0.44    0.19 
   9   4  -6   -0.03    0.15 
  -9   4   6   -0.05    0.22 
   8  -4  -6    0.05    0.16 
  -8  -4   6   -0.21    0.24 
   8   4  -6    0.26    0.15 
  -8   4   6    0.12    0.23 
  -7  -4   6   10.48    0.91 
   7  -4  -6   12.80    0.70 
   7   4  -6   11.73    0.66 
  -7   4   6   11.31    0.88 
   6  -4  -6    0.80    0.24 
  -6  -4   6    0.44    0.26 
   6   4  -6    0.31    0.16 
   6   4  -6    0.39    0.17 
  -6   4   6    0.63    0.24 
  -6   4   6    0.53    0.17 
  -5  -4   6    1.64    0.20 
   5  -4  -6    1.49    0.30 
  -5  -4   6    1.99    0.35 
   5   4  -6    1.92    0.28 
  -5   4   6    1.77    0.22 
  -5   4   6    1.52    0.27 
   4  -4  -6    0.06    0.20 
  -4  -4   6    0.26    0.20 
  -4  -4   6    0.02    0.12 
   4   4  -6    0.26    0.19 
  -4   4   6   -0.11    0.12 
  -4   4   6   -0.03    0.13 
  -3  -4   6   43.45    2.51 
  -3  -4   6   42.21    2.01 
  -3   4   6   41.93    2.47 
  -3   4   6   43.14    2.03 
   3   4  -6   42.26    2.49 
  -3   4   6   41.92    2.46 
  -2  -4   6   12.26    0.65 
  -2  -4   6   12.86    0.83 
   2  -4  -6   12.62    0.80 
   2   4  -6   13.00    0.90 
  -2   4   6   13.45    0.67 
  -2   4   6   14.47    0.88 
   1  -4  -6    0.49    0.12 
  -1  -4   6    0.62    0.10 
  -1  -4   6    0.45    0.14 
  -1   4   6    0.57    0.11 
  -1   4   6    0.40    0.18 
   1   4  -6    0.60    0.21 
   0  -4   6    5.85    0.31 
   0  -4  -6    5.39    0.40 
   0  -4   6    5.08    0.40 
   0   4   6    5.78    0.32 
   0   4  -6    5.66    0.48 
   0   4   6    5.59    0.47 
   1  -4   6   46.27    2.14 
  -1  -4  -6   44.66    2.68 
  -1   4  -6   46.01    2.65 
   1   4   6   46.62    2.66 
   1   4   6   45.52    2.14 
  -1   4  -6   45.51    2.64 
  -2  -4  -6    1.09    0.26 
   2  -4   6    1.23    0.14 
  -2   4  -6    1.25    0.22 
   2   4   6    1.05    0.25 
  -2   4  -6    1.26    0.19 
   2   4   6    1.23    0.15 
   3  -4   6   51.26    2.34 
  -3  -4  -6   46.96    3.01 
  -3   4  -6   48.59    2.91 
   3   4   6   52.54    2.35 
  -3   4  -6   47.83    2.83 
   3   4   6   51.37    2.90 
   4  -4   6    1.10    0.15 
  -4  -4  -6    0.36    0.27 
  -4   4  -6    1.00    0.18 
   4   4   6    0.91    0.25 
  -4   4  -6    1.22    0.23 
   4   4   6    0.90    0.15 
  -5  -4  -6    4.83    0.52 
  -5  -4  -6    4.16    0.56 
   5  -4   6    4.83    0.32 
   5   4   6    4.08    0.31 
  -5   4  -6    4.47    0.48 
   6  -4   6    0.85    0.18 
  -6  -4  -6    0.03    0.29 
   6   4   6    0.33    0.16 
  -6   4  -6    0.20    0.24 
   7  -4   6   -0.02    0.16 
  -7  -4  -6    0.04    0.28 
   7   4   6   -0.11    0.15 
  -7   4  -6    0.15    0.27 
  -8  -4  -6    0.40    0.30 
   8  -4   6    0.34    0.19 
   8   4   6    0.73    0.20 
  -8   4  -6    0.49    0.32 
   9  -4   6    0.05    0.18 
  -9  -4  -6    0.29    0.30 
  -9   4  -6    0.31    0.34 
   9   4   6   -0.07    0.17 
   9  -5  -6    0.80    0.22 
  -9  -5   6    0.60    0.31 
   9   5  -6    1.05    0.21 
  -9   5   6    1.52    0.36 
   8  -5  -6    1.29    0.23 
  -8  -5   6    1.30    0.37 
   8   5  -6    1.61    0.23 
  -8   5   6    2.15    0.39 
   7  -5  -6    0.29    0.16 
  -7  -5   6    0.01    0.24 
  -7   5   6    0.20    0.24 
   7   5  -6    0.07    0.14 
  -6  -5   6   20.35    1.50 
   6  -5  -6   22.84    1.41 
  -6   5   6   22.58    1.16 
   6   5  -6   24.36    1.38 
   6   5  -6   22.10    1.13 
  -6   5   6   22.36    1.44 
   5  -5  -6   13.99    0.92 
  -5  -5   6   12.89    0.96 
  -5   5   6   13.51    0.89 
   5   5  -6   14.22    0.73 
  -5   5   6   13.15    0.74 
   5   5  -6   12.95    0.89 
  -4  -5   6   10.91    0.58 
  -4  -5   6   10.66    0.77 
  -4   5   6   10.44    0.60 
   4   5  -6   10.23    0.75 
  -4   5   6   11.15    0.75 
  -4   5   6   10.50    0.70 
  -3  -5   6    5.03    0.42 
  -3  -5   6    4.56    0.30 
  -3   5   6    4.33    0.41 
  -3   5   6    4.62    0.32 
  -3   5   6    4.88    0.36 
   3   5  -6    4.50    0.47 
  -2  -5   6    0.46    0.17 
   2  -5  -6    0.50    0.14 
  -2  -5   6    0.37    0.09 
   2   5  -6    0.43    0.21 
  -2   5   6    0.42    0.21 
  -2   5   6    0.34    0.11 
   1  -5  -6    1.72    0.21 
  -1  -5   6    1.76    0.15 
  -1  -5   6    2.00    0.24 
  -1   5   6    2.06    0.29 
   1   5  -6    1.70    0.30 
  -1   5   6    2.26    0.18 
   0  -5  -6   10.76    0.69 
   0  -5   6   10.22    0.52 
   0  -5   6   10.45    0.69 
   0   5   6   10.63    0.54 
   0   5   6   10.41    0.74 
   0   5  -6   10.63    0.74 
   1  -5   6   22.50    1.06 
  -1  -5  -6   22.50    1.36 
   1  -5   6   21.96    1.35 
   1   5   6   21.90    1.07 
  -1   5  -6   23.41    1.36 
   1   5   6   21.02    1.37 
   2  -5   6    2.12    0.18 
  -2  -5  -6    1.73    0.30 
  -2   5  -6    2.30    0.25 
   2   5   6    2.38    0.20 
   2   5   6    2.83    0.35 
  -2   5  -6    2.28    0.27 
   3  -5   6    6.35    0.38 
  -3  -5  -6    6.58    0.60 
  -3   5  -6    6.94    0.49 
   3   5   6    7.32    0.57 
  -3   5  -6    6.05    0.48 
   3   5   6    6.74    0.39 
  -4  -5  -6   26.28    1.88 
   4  -5   6   30.70    1.42 
   4   5   6   29.89    1.41 
   4   5   6   29.45    1.78 
  -4   5  -6   30.48    1.70 
  -4   5  -6   27.64    1.77 
   5  -5   6    1.11    0.18 
  -5  -5  -6    0.63    0.33 
   5   5   6    1.48    0.29 
  -5   5  -6    1.48    0.28 
   5   5   6    1.36    0.18 
  -6  -5  -6    2.30    0.48 
   6  -5   6    3.58    0.30 
  -6   5  -6    3.49    0.43 
   6   5   6    3.40    0.29 
  -7  -5  -6    0.94    0.37 
   7  -5   6    1.02    0.20 
   7   5   6    0.90    0.20 
  -7   5  -6    1.43    0.34 
   8  -5   6    0.80    0.21 
  -8  -5  -6    1.53    0.39 
   8   5   6    1.17    0.20 
  -8   5  -6    0.86    0.34 
  -9  -6   6    5.35    0.64 
   9  -6  -6    3.93    0.38 
   9   6  -6    5.13    0.38 
  -9   6   6    5.25    0.59 
  -8  -6   6   -0.25    0.21 
   8  -6  -6    0.38    0.18 
  -8   6   6    0.16    0.26 
   8   6  -6    0.33    0.16 
   7  -6  -6   -0.02    0.14 
  -7  -6   6    0.56    0.30 
  -7   6   6    0.18    0.24 
   7   6  -6    0.23    0.14 
  -6  -6   6    3.78    0.51 
   6  -6  -6    3.58    0.42 
   6  -6  -6    3.40    0.32 
  -6   6   6    3.61    0.41 
   6   6  -6    4.13    0.31 
   6   6  -6    3.23    0.38 
  -5  -6   6    0.18    0.22 
  -5   6   6   -0.15    0.15 
   5   6  -6    0.15    0.19 
   5   6  -6   -0.09    0.12 
  -5   6   6   -0.06    0.15 
  -5   6   6    0.05    0.14 
  -4  -6   6    4.58    0.31 
  -4  -6   6    3.82    0.44 
   4   6  -6    4.74    0.48 
  -4   6   6    4.31    0.41 
  -4   6   6    4.68    0.37 
  -4   6   6    4.40    0.34 
  -3  -6   6    8.39    0.63 
  -3  -6   6    8.52    0.47 
  -3   6   6    8.29    0.50 
  -3   6   6    8.82    0.64 
   3   6  -6    8.98    0.68 
   2  -6  -6    2.40    0.26 
  -2  -6   6    2.31    0.29 
  -2  -6   6    2.28    0.18 
  -2   6   6    2.04    0.31 
   2   6  -6    2.21    0.34 
  -2   6   6    2.40    0.21 
  -1  -6   6   54.29    2.49 
   1  -6  -6   53.61    3.11 
  -1  -6   6   52.98    3.13 
  -1   6   6   53.23    2.51 
  -1   6   6   53.53    3.10 
   1   6  -6   54.10    3.11 
   0  -6   6   17.01    0.77 
   0  -6  -6   16.05    1.01 
   0  -6   6   14.72    1.00 
   0   6   6   16.18    0.79 
   0   6  -6   15.94    1.04 
   0   6   6   15.46    1.04 
   1  -6   6    9.60    0.48 
  -1  -6  -6    9.74    0.67 
   1  -6   6    9.30    0.65 
   1   6   6    9.86    0.70 
  -1   6  -6    8.90    0.67 
   1   6   6    9.82    0.50 
  -2  -6  -6    6.05    0.50 
   2  -6   6    5.45    0.32 
   2   6   6    6.22    0.34 
  -2   6  -6    5.02    0.44 
  -2   6  -6    5.34    0.43 
   2   6   6    5.32    0.48 
   3  -6   6    0.23    0.10 
  -3  -6  -6   -0.10    0.21 
  -3   6  -6   -0.09    0.14 
  -3   6  -6    0.17    0.16 
   3   6   6    0.12    0.10 
   3   6   6    0.49    0.22 
   4  -6   6    2.18    0.21 
  -4  -6  -6    1.56    0.36 
  -4   6  -6    2.45    0.30 
   4   6   6    1.80    0.20 
  -4   6  -6    2.23    0.26 
   4   6   6    1.88    0.32 
  -5  -6  -6    3.90    0.57 
   5  -6   6    5.16    0.36 
   5   6   6    5.71    0.50 
  -5   6  -6    6.26    0.49 
   5   6   6    5.24    0.34 
  -6  -6  -6    0.95    0.36 
   6  -6   6    2.02    0.23 
  -6   6  -6    1.37    0.31 
   6   6   6    1.55    0.20 
   7  -6   6   -0.19    0.15 
  -7  -6  -6    0.21    0.30 
  -7   6  -6    0.29    0.27 
   7   6   6    0.00    0.14 
  -8  -6  -6    1.17    0.37 
   8  -6   6    1.41    0.21 
   8   6   6    1.23    0.22 
  -8   6  -6    0.76    0.36 
   9  -7  -6    0.28    0.18 
  -9  -7   6    0.02    0.26 
  -9   7   6    0.72    0.30 
   8  -7  -6   11.28    0.67 
  -8  -7   6   10.18    0.91 
  -8   7   6   12.64    0.89 
   7  -7  -6    0.20    0.16 
  -7  -7   6    0.23    0.29 
  -7   7   6    0.39    0.24 
  -6  -7   6    0.42    0.28 
   6  -7  -6    1.45    0.21 
   6  -7  -6    0.92    0.26 
   6   7  -6    0.58    0.22 
  -6   7   6    0.87    0.24 
   6   7  -6    1.10    0.19 
  -5  -7   6    5.59    0.58 
  -5   7   6    5.07    0.48 
   5   7  -6    5.62    0.36 
  -5   7   6    5.96    0.41 
   5   7  -6    5.45    0.50 
  -5   7   6    6.15    0.47 
  -4  -7   6    1.85    0.31 
  -4   7   6    1.94    0.23 
  -4   7   6    1.39    0.27 
   4   7  -6    1.55    0.30 
  -4   7   6    1.69    0.23 
   4   7  -6    2.03    0.19 
   3  -7  -6    2.02    0.27 
  -3  -7   6    2.00    0.19 
  -3  -7   6    2.49    0.33 
   3   7  -6    1.97    0.35 
  -3   7   6    2.25    0.33 
  -3   7   6    2.17    0.23 
  -2  -7   6   39.50    2.30 
  -2  -7   6   38.95    1.80 
   2  -7  -6   36.92    2.26 
   2   7  -6   36.16    2.27 
  -2   7   6   37.09    2.26 
  -2   7   6   40.84    1.83 
  -1  -7   6    0.24    0.17 
   1  -7  -6    0.14    0.14 
  -1  -7   6    0.18    0.07 
   1   7  -6    0.48    0.22 
  -1   7   6   -0.07    0.18 
  -1   7   6    0.11    0.10 
   0  -7   6    1.78    0.14 
   0  -7   6    1.64    0.25 
   0  -7  -6    2.17    0.28 
   0   7   6    2.02    0.31 
   0   7  -6    1.70    0.29 
   0   7   6    2.10    0.18 
   1  -7   6    1.46    0.24 
   1  -7   6    1.49    0.13 
  -1  -7  -6    1.33    0.24 
  -1   7  -6    1.12    0.24 
   1   7   6    1.12    0.26 
   1   7   6    1.53    0.15 
   2  -7   6    7.39    0.39 
   2  -7   6    6.93    0.56 
  -2  -7  -6    7.88    0.59 
   2   7   6    7.67    0.59 
  -2   7  -6    7.12    0.55 
   2   7   6    6.71    0.40 
  -3  -7  -6    2.94    0.40 
   3  -7   6    2.78    0.21 
  -3   7  -6    2.66    0.32 
   3   7   6    3.04    0.23 
   3   7   6    3.29    0.40 
  -3   7  -6    2.61    0.32 
  -4  -7  -6   -0.08    0.23 
   4  -7   6    0.20    0.11 
  -4   7  -6    0.17    0.16 
   4   7   6    0.02    0.20 
  -4   7  -6    0.14    0.17 
   4   7   6    0.11    0.11 
  -5  -7  -6    2.09    0.42 
   5  -7   6    2.68    0.24 
   5   7   6    2.35    0.36 
   5   7   6    2.41    0.23 
  -5   7  -6    2.41    0.34 
  -6  -7  -6    9.10    0.97 
   6  -7   6   13.61    0.69 
  -6   7  -6   13.39    0.91 
   6   7   6   12.95    0.68 
   7  -7   6    2.01    0.24 
  -7  -7  -6    0.52    0.33 
  -7   7  -6    1.26    0.31 
   7   7   6    1.49    0.20 
  -8  -7  -6    1.68    0.41 
   8  -7   6    1.78    0.25 
   8   7   6    1.76    0.24 
  -8   7  -6    2.84    0.47 
   8  -8  -6    0.86    0.20 
  -8  -8   6    1.06    0.36 
  -8   8   6    1.02    0.31 
  -7  -8   6   -0.34    0.21 
   7  -8  -6    0.10    0.16 
  -7   8   6   -0.08    0.21 
   6  -8  -6    3.61    0.32 
  -6  -8   6    3.59    0.50 
  -6   8   6    4.40    0.43 
   6   8  -6    3.33    0.39 
  -6   8   6    2.94    0.38 
  -5  -8   6   -0.12    0.22 
   5  -8  -6   -0.04    0.14 
   5   8  -6    0.01    0.20 
  -5   8   6    0.00    0.16 
  -5   8   6    0.20    0.18 
  -4  -8   6   17.41    1.15 
   4  -8  -6   16.46    1.09 
   4   8  -6   15.81    1.11 
  -4   8   6   17.88    0.89 
  -4   8   6   17.19    1.10 
  -3  -8   6    0.78    0.25 
   3  -8  -6    1.00    0.22 
   3   8  -6    0.86    0.28 
  -3   8   6    0.89    0.24 
  -3   8   6    1.36    0.19 
  -2  -8   6    3.27    0.39 
   2  -8  -6    4.18    0.37 
   2   8  -6    3.67    0.43 
  -2   8   6    3.28    0.40 
  -2   8   6    3.71    0.28 
   1  -8  -6    7.42    0.57 
  -1  -8   6    7.80    0.59 
  -1   8   6    7.16    0.61 
   1   8  -6    7.72    0.62 
  -1   8   6    8.55    0.44 
   0  -8   6   -0.06    0.16 
   0  -8  -6   -0.04    0.16 
   0   8  -6   -0.08    0.17 
   0   8   6   -0.06    0.09 
   0   8   6   -0.05    0.17 
   1  -8   6    9.57    0.69 
  -1  -8  -6    9.63    0.72 
   1   8   6    9.70    0.73 
   1   8   6   10.44    0.51 
  -1   8  -6    9.08    0.71 
   2  -8   6   28.75    1.75 
  -2  -8  -6   27.74    1.77 
   2   8   6   30.11    1.36 
   2   8   6   27.73    1.74 
  -2   8  -6   27.45    1.70 
   3  -8   6    4.92    0.46 
  -3  -8  -6    4.62    0.51 
  -3   8  -6    4.41    0.41 
   3   8   6    4.38    0.29 
   3   8   6    5.32    0.54 
   4  -8   6    0.03    0.11 
  -4  -8  -6   -0.25    0.22 
  -4   8  -6    0.09    0.16 
   4   8   6    0.24    0.11 
  -4   8  -6   -0.04    0.17 
   4   8   6   -0.20    0.19 
   5  -8   6    0.63    0.15 
  -5  -8  -6    0.39    0.31 
  -5   8  -6    0.46    0.22 
   5   8   6    0.68    0.26 
   5   8   6    0.53    0.15 
  -6  -8  -6    1.24    0.37 
   6  -8   6    1.41    0.21 
  -6   8  -6    1.19    0.29 
   7  -8   6    0.15    0.18 
  -7  -8  -6    0.17    0.28 
  -7   8  -6    0.47    0.27 
  -8  -9   6    0.14    0.30 
  -8   9   6    0.32    0.27 
  -7  -9   6    0.66    0.34 
   7  -9  -6    1.00    0.20 
  -7   9   6    0.83    0.28 
   6  -9  -6    7.59    0.49 
  -6  -9   6    8.29    0.73 
  -6   9   6    7.67    0.61 
   6   9  -6    7.47    0.61 
  -6   9   6    7.47    0.61 
   5  -9  -6   11.03    0.61 
   5  -9  -6   10.54    0.75 
  -5  -9   6   10.09    0.81 
  -5   9   6   10.62    0.75 
   5   9  -6    9.31    0.75 
   4  -9  -6    4.66    0.44 
  -4  -9   6    3.16    0.44 
  -4   9   6    4.64    0.35 
   4   9  -6    5.41    0.54 
  -4   9   6    5.80    0.49 
  -3  -9   6    1.20    0.26 
   3  -9  -6    1.56    0.26 
   3   9  -6    1.32    0.30 
  -3   9   6    1.35    0.27 
  -3   9   6    1.39    0.20 
  -2  -9   6    2.01    0.32 
   2  -9  -6    1.69    0.26 
  -2   9   6    2.67    0.37 
   2   9  -6    1.62    0.34 
   1  -9  -6    0.23    0.17 
  -1  -9   6   -0.02    0.16 
  -1   9   6    0.38    0.21 
   1   9  -6    0.02    0.20 
   0  -9   6    0.26    0.19 
   0  -9  -6    0.26    0.20 
   0   9  -6    0.31    0.21 
   0   9   6    0.26    0.22 
   1  -9   6    0.44    0.21 
  -1  -9  -6    0.43    0.21 
   1   9   6    0.41    0.22 
  -1   9  -6    0.41    0.20 
   2  -9   6    0.08    0.19 
  -2  -9  -6    0.03    0.21 
  -2   9  -6   -0.19    0.17 
   2   9   6    0.03    0.23 
  -3  -9  -6    6.47    0.57 
   3  -9   6    5.57    0.51 
   3   9   6    5.42    0.56 
  -3   9  -6    4.42    0.45 
   4  -9   6    3.82    0.43 
  -4  -9  -6    3.45    0.50 
  -4   9  -6    4.34    0.39 
   4   9   6    4.34    0.50 
  -5  -9  -6    3.13    0.51 
  -5   9  -6    3.69    0.40 
   5   9   6    3.28    0.44 
  -6  -9  -6    0.39    0.30 
  -6   9  -6    0.09    0.19 
  -7  -9  -6    0.00    0.27 
  -7   9  -6    0.18    0.25 
  -7 -10   6    0.89    0.36 
  -6 -10   6    0.54    0.31 
   6 -10  -6    0.26    0.22 
   6  10  -6    0.92    0.27 
   5 -10  -6    0.26    0.21 
  -5 -10   6    0.44    0.28 
   5  10  -6   -0.19    0.19 
  -5  10   6    0.41    0.23 
  -4 -10   6    0.15    0.22 
   4 -10  -6   -0.13    0.18 
  -4  10   6    0.13    0.19 
   4  10  -6    0.02    0.20 
   3 -10  -6    2.94    0.36 
  -3 -10   6    2.97    0.39 
   3  10  -6    3.33    0.44 
  -3  10   6    2.63    0.37 
   2 -10  -6    6.70    0.53 
  -2 -10   6    6.17    0.54 
  -2  10   6    6.23    0.58 
   2  10  -6    6.45    0.60 
  -1 -10   6    5.12    0.48 
   1 -10  -6    4.82    0.45 
   1  10  -6    5.11    0.53 
  -1  10   6    4.96    0.52 
   0 -10  -6   13.86    0.93 
   0 -10   6   12.72    0.91 
   0  10   6   14.66    0.98 
   0  10  -6   13.38    0.93 
   1 -10   6    1.03    0.25 
  -1 -10  -6    1.48    0.28 
  -1  10  -6    0.78    0.24 
   1  10   6    0.66    0.28 
   2 -10   6    0.85    0.23 
  -2 -10  -6    1.18    0.29 
  -2  10  -6    0.35    0.20 
   2  10   6    0.76    0.26 
   3 -10   6    3.39    0.40 
  -3 -10  -6    3.57    0.47 
  -3  10  -6    3.25    0.38 
   3  10   6    3.67    0.46 
   4 -10   6    2.66    0.37 
  -4 -10  -6    2.61    0.44 
   4  10   6    2.81    0.43 
  -4  10  -6    3.53    0.37 
   5 -10   6    2.12    0.34 
  -5 -10  -6    1.65    0.40 
   5  10   6    2.48    0.40 
  -6 -10  -6    0.04    0.31 
  -6  10  -6    0.66    0.23 
  -6 -11   6   -0.01    0.27 
   6 -11  -6    0.18    0.21 
   6  11  -6    0.37    0.24 
   5 -11  -6    0.13    0.20 
  -5 -11   6    0.16    0.24 
  -5  11   6    0.31    0.22 
   5  11  -6    0.06    0.24 
   4 -11  -6    0.42    0.22 
  -4 -11   6   -0.07    0.22 
   4  11  -6    0.21    0.22 
  -4  11   6    0.07    0.21 
  -3 -11   6   11.21    0.84 
   3 -11  -6   11.25    0.83 
   3  11  -6   11.85    0.86 
  -3  11   6   12.03    0.86 
  -2 -11   6   -0.11    0.18 
   2 -11  -6    0.22    0.19 
   2  11  -6    0.05    0.21 
  -2  11   6    0.01    0.23 
   1 -11  -6    2.34    0.33 
  -1 -11   6    1.97    0.32 
  -1  11   6    1.44    0.33 
   1  11  -6    2.20    0.37 
   0 -11  -6    0.07    0.20 
   0 -11   6    0.37    0.22 
   0  11   6    0.29    0.26 
   0  11  -6    0.03    0.21 
   1 -11   6    8.81    0.68 
  -1 -11  -6    8.68    0.68 
  -1  11  -6    7.84    0.67 
   1  11   6    9.15    0.74 
   2 -11   6   -0.06    0.20 
  -2 -11  -6    0.37    0.25 
   2  11   6   -0.11    0.21 
  -2  11  -6    0.08    0.20 
   3 -11   6    0.27    0.21 
  -3 -11  -6   -0.23    0.22 
   3  11   6    0.07    0.22 
  -3  11  -6   -0.13    0.18 
  -4 -11  -6    0.21    0.28 
   4 -11   6    0.15    0.23 
  -4  11  -6    0.36    0.20 
   4  11   6    0.41    0.27 
  -5 -11  -6    1.44    0.41 
   5 -11   6    1.40    0.30 
   5  11   6    1.75    0.37 
   5 -12  -6    0.62    0.24 
  -5 -12   6    0.05    0.24 
   5  12  -6    0.74    0.26 
  -5  12   6    0.01    0.22 
   4 -12  -6   -0.12    0.19 
  -4 -12   6    0.04    0.24 
  -4  12   6    0.13    0.22 
   4  12  -6    0.10    0.25 
   3 -12  -6    1.59    0.30 
  -3 -12   6    1.56    0.33 
  -3  12   6    1.11    0.30 
   3  12  -6    1.58    0.36 
   2 -12  -6    2.12    0.32 
  -2 -12   6    2.32    0.36 
  -2  12   6    1.93    0.37 
   2  12  -6    2.18    0.37 
   1 -12  -6    0.69    0.24 
  -1 -12   6    0.59    0.25 
   1  12  -6    0.63    0.29 
  -1  12   6    0.74    0.27 
   0 -12  -6    5.17    0.55 
   0 -12   6    6.00    0.55 
   0  12   6    5.43    0.60 
   0  12  -6    6.20    0.57 
  -1 -12  -6    1.27    0.29 
   1 -12   6    1.03    0.26 
   1  12   6    1.37    0.34 
  -1  12  -6    1.67    0.32 
   2 -12   6    3.12    0.41 
  -2 -12  -6    3.07    0.44 
   2  12   6    3.17    0.45 
  -2  12  -6    2.97    0.39 
   3 -12   6    2.76    0.39 
  -3 -12  -6    2.37    0.41 
   3  12   6    2.22    0.41 
  -3  12  -6    1.95    0.33 
  -4 -12  -6    0.27    0.28 
   4 -12   6    0.92    0.28 
  -4  12  -6    0.58    0.22 
   4  12   6    0.35    0.28 
  -4 -13   6    0.89    0.29 
   4 -13  -6    0.99    0.28 
  -4  13   6    1.56    0.33 
   4  13  -6    1.32    0.32 
  -3 -13   6    0.21    0.24 
   3 -13  -6    0.16    0.22 
  -3  13   6    0.21    0.25 
   3  13  -6   -0.13    0.25 
   2 -13  -6    0.31    0.23 
  -2 -13   6    0.43    0.23 
  -2  13   6    0.69    0.29 
   2  13  -6    0.52    0.29 
  -1 -13   6   -0.04    0.21 
   1 -13  -6   -0.12    0.20 
   1  13  -6    0.29    0.27 
  -1  13   6    0.29    0.24 
   0 -13  -6    0.60    0.27 
   0 -13   6    0.77    0.26 
   0  13   6    0.53    0.27 
   0  13  -6    0.39    0.25 
   1 -13   6    0.48    0.24 
  -1 -13  -6    0.43    0.26 
  -1  13  -6    0.36    0.24 
   1  13   6    0.61    0.27 
  -2 -13  -6    0.25    0.25 
   2 -13   6    0.24    0.23 
   2  13   6    0.32    0.27 
  -2  13  -6    0.06    0.21 
   3 -13   6    2.07    0.36 
  -3 -13  -6    1.98    0.41 
   3  13   6    2.43    0.41 
  -3  13  -6    2.40    0.34 
 -10   0   7   -0.17    0.20 
  10   0  -7   -0.05    0.16 
   9   0  -7    3.18    0.34 
  -9   0   7    3.89    0.46 
   8   0  -7   -0.06    0.17 
  -8   0   7    0.02    0.19 
  -7   0   7   49.11    2.99 
   7   0  -7   50.19    2.41 
   6   0  -7   -0.02    0.16 
  -6   0   7   -0.21    0.17 
  -6   0   7    0.05    0.15 
  -5   0   7   -0.06    0.17 
  -5   0   7    0.34    0.14 
   5   0  -7   -0.18    0.19 
  -4   0   7   -0.03    0.16 
   4   0  -7   -0.07    0.23 
  -4   0   7    0.12    0.13 
  -3   0   7    3.69    0.34 
   3   0  -7    4.05    0.53 
  -3   0   7    3.10    0.25 
   2   0  -7   -0.13    0.29 
  -2   0   7   -0.13    0.08 
  -2   0   7    0.04    0.09 
  -1   0   7   29.53    1.38 
   1   0  -7   27.32    1.89 
   0   0   7   -0.06    0.03 
   0   0  -7   -0.35    0.31 
   0   0   7   -0.08    0.07 
  -1   0  -7   95.54    6.20 
  -1   0  -7  112.16    6.13 
   1   0   7  112.69    4.99 
  -2   0  -7    0.04    0.10 
  -2   0  -7    0.15    0.32 
   2   0   7    0.03    0.09 
  -3   0  -7   25.86    1.57 
  -3   0  -7   24.13    1.49 
   3   0   7   23.29    1.18 
   4   0   7    0.08    0.11 
  -4   0  -7   -0.15    0.17 
  -4   0  -7    0.00    0.20 
   5   0   7    0.10    0.13 
  -5   0  -7    0.22    0.25 
  -5   0  -7    0.10    0.15 
  -6   0  -7   -0.18    0.25 
   6   0   7   -0.06    0.13 
   7   0   7   12.97    0.72 
  -7   0  -7   12.63    1.02 
   8   0   7   -0.12    0.17 
  -8   0  -7    0.14    0.31 
   9   0   7    1.91    0.27 
  -9   0  -7    2.38    0.45 
 -10  -1   7    1.56    0.32 
  10  -1  -7    0.94    0.22 
 -10   1   7    1.27    0.29 
  10   1  -7    0.98    0.23 
   9  -1  -7    4.17    0.40 
  -9  -1   7    4.40    0.54 
  -9   1   7    5.44    0.55 
   9   1  -7    4.88    0.42 
   8  -1  -7    1.11    0.24 
  -8  -1   7    0.98    0.29 
  -8   1   7    1.79    0.33 
   8   1  -7    1.33    0.23 
  -7  -1   7    1.00    0.28 
   7   1  -7    1.14    0.22 
  -7   1   7    1.76    0.31 
   6  -1  -7    8.34    0.62 
  -6  -1   7    7.81    0.52 
  -6  -1   7    8.49    0.67 
  -6   1   7    7.47    0.51 
  -6   1   7    9.39    0.68 
   6   1  -7    8.24    0.59 
  -5  -1   7    3.67    0.43 
   5  -1  -7    3.53    0.44 
  -5  -1   7    4.12    0.34 
  -5   1   7    3.51    0.31 
  -5   1   7    3.61    0.42 
   5   1  -7    3.29    0.40 
   4  -1  -7   23.83    1.47 
  -4  -1   7   21.02    1.42 
  -4  -1   7   21.22    1.12 
   4   1  -7   24.70    1.44 
  -4   1   7   22.12    1.39 
  -4   1   7   22.79    1.13 
  -3  -1   7   37.41    2.62 
  -3  -1   7   46.67    2.12 
   3  -1  -7   42.37    2.67 
  -3   1   7   45.45    2.13 
   3   1  -7   49.19    2.68 
  -3   1   7   47.50    2.60 
  -2  -1   7   10.65    0.71 
  -2  -1   7   11.89    0.59 
   2  -1  -7   10.18    0.86 
  -2   1   7   11.09    0.66 
  -2   1   7   11.44    0.60 
   2   1  -7   12.55    0.91 
  -1  -1   7    1.81    0.15 
  -1  -1   7    1.69    0.16 
   1  -1  -7    1.61    0.39 
   1   1  -7    1.44    0.41 
  -1   1   7    1.66    0.17 
   0  -1   7   74.03    3.34 
   0  -1  -7   66.60    4.22 
   0  -1   7   79.74    4.09 
   0   1   7   73.46    3.35 
   0   1  -7   60.34    4.19 
  -1  -1  -7    6.63    0.45 
   1  -1   7    7.49    0.39 
  -1  -1  -7    5.09    0.71 
   1   1   7    7.24    0.39 
  -1   1  -7    5.38    0.67 
  -1   1  -7    7.17    0.44 
  -2  -1  -7    9.91    0.68 
  -2  -1  -7    7.49    0.90 
   2  -1   7    9.66    0.53 
  -2   1  -7   10.72    0.81 
   2   1   7   10.05    0.53 
  -2   1  -7   10.61    0.64 
  -3  -1  -7   11.07    0.97 
   3  -1   7   11.59    0.62 
  -3  -1  -7   11.90    0.83 
  -3   1  -7   13.70    0.85 
  -3   1  -7   10.99    0.77 
   3   1   7   11.69    0.62 
   4  -1   7    1.04    0.17 
  -4  -1  -7    1.10    0.33 
  -4  -1  -7    0.79    0.28 
   4   1   7    0.52    0.14 
  -4   1  -7    0.79    0.20 
  -4   1  -7    0.88    0.23 
   5  -1   7    1.44    0.19 
  -5  -1  -7    1.49    0.34 
  -5  -1  -7    2.01    0.30 
  -5   1  -7    1.37    0.31 
   5   1   7    1.20    0.19 
   6  -1   7   -0.02    0.14 
  -6  -1  -7    0.20    0.25 
  -6   1  -7   -0.30    0.23 
   6   1   7    0.13    0.14 
  -7  -1  -7    2.20    0.44 
   7  -1   7    2.50    0.27 
   7   1   7    2.16    0.26 
  -7   1  -7    1.69    0.41 
  -8  -1  -7    3.74    0.54 
   8  -1   7    3.91    0.37 
  -8   1  -7    3.12    0.52 
   8   1   7    3.70    0.34 
   9  -1   7    1.19    0.23 
  -9  -1  -7    0.96    0.34 
  -9   1  -7    1.13    0.36 
   9   1   7    1.28    0.25 
  10  -2  -7    5.10    0.44 
 -10  -2   7    6.34    0.58 
 -10   2   7    5.02    0.54 
  10   2  -7    5.02    0.44 
   9  -2  -7    7.43    0.51 
  -9  -2   7    6.87    0.65 
   9   2  -7    7.31    0.49 
  -9   2   7    7.56    0.64 
  -8  -2   7    0.64    0.26 
   8  -2  -7    0.73    0.22 
  -8   2   7    0.14    0.22 
   8   2  -7    0.64    0.20 
  -7  -2   7    1.68    0.34 
   7   2  -7    2.09    0.27 
  -7   2   7    1.75    0.33 
  -6  -2   7    2.43    0.26 
  -6  -2   7    2.60    0.40 
   6  -2  -7    3.55    0.40 
   6   2  -7    2.69    0.31 
  -6   2   7    2.27    0.27 
  -6   2   7    3.05    0.40 
  -5  -2   7   11.47    0.63 
  -5  -2   7    9.43    0.80 
   5  -2  -7   11.19    0.83 
   5   2  -7   11.95    0.77 
  -5   2   7   10.70    0.63 
  -5   2   7   10.50    0.77 
  -4  -2   7   15.92    0.80 
  -4  -2   7   14.06    1.02 
   4  -2  -7   13.51    1.05 
  -4   2   7   15.82    0.97 
   4   2  -7   15.94    1.03 
  -4   2   7   15.90    0.81 
   3  -2  -7    4.42    0.53 
  -3  -2   7    5.15    0.42 
  -3  -2   7    5.04    0.31 
  -3   2   7    4.93    0.35 
   3   2  -7    5.26    0.54 
  -3   2   7    4.75    0.33 
  -2  -2   7   15.05    0.94 
  -2  -2   7   14.99    0.77 
   2  -2  -7   13.60    1.05 
   2   2  -7   15.82    1.09 
  -2   2   7   16.12    0.89 
  -2   2   7   15.55    0.78 
  -1  -2   7   24.11    1.39 
  -1  -2   7   24.63    1.15 
   1  -2  -7   23.92    1.54 
  -1   2   7   24.23    1.15 
   1   2  -7   20.92    1.53 
   0  -2  -7    3.31    0.30 
   0  -2  -7    4.98    0.56 
   0  -2   7    3.95    0.24 
   0  -2   7    4.44    0.29 
   0   2   7    3.71    0.26 
   0   2  -7    4.49    0.54 
  -1  -2  -7    0.21    0.16 
   1  -2   7    0.42    0.10 
  -1  -2  -7    0.29    0.26 
   1   2   7    0.31    0.11 
  -1   2  -7    0.23    0.09 
  -1   2  -7    0.15    0.23 
  -2  -2  -7    6.82    0.73 
  -2  -2  -7    5.84    0.54 
   2  -2   7    6.14    0.36 
  -2   2  -7    6.05    0.43 
  -2   2  -7    6.74    0.55 
   2   2   7    6.17    0.36 
  -3  -2  -7   11.06    1.01 
   3  -2   7   12.74    0.66 
  -3  -2  -7   12.85    0.95 
  -3   2  -7   13.40    0.83 
   3   2   7   12.55    0.67 
  -3   2  -7   13.03    0.84 
  -4  -2  -7   21.35    1.49 
  -4  -2  -7   22.79    1.50 
   4  -2   7   21.19    1.10 
  -4   2  -7   22.85    1.39 
   4   2   7   21.68    1.10 
  -4   2  -7   23.56    1.33 
   5  -2   7   24.51    1.21 
  -5  -2  -7   25.65    1.55 
  -5  -2  -7   23.19    1.62 
   5   2   7   23.30    1.21 
  -5   2  -7   25.10    1.55 
   6  -2   7    5.17    0.37 
  -6  -2  -7    5.61    0.64 
   6   2   7    5.58    0.37 
  -6   2  -7    4.35    0.54 
  -7  -2  -7    0.16    0.29 
   7  -2   7    0.00    0.15 
  -7   2  -7    0.01    0.25 
   7   2   7    0.07    0.16 
  -8  -2  -7    0.96    0.34 
   8  -2   7    0.96    0.22 
  -8   2  -7    0.54    0.32 
   8   2   7    1.08    0.22 
  -9  -2  -7    0.09    0.27 
   9  -2   7    0.35    0.20 
  -9   2  -7    0.21    0.31 
   9   2   7    0.01    0.19 
  10  -3  -7    0.33    0.19 
 -10  -3   7    0.06    0.24 
 -10   3   7   -0.04    0.20 
  10   3  -7    0.16    0.17 
  -9  -3   7    0.66    0.28 
   9  -3  -7    1.13    0.24 
   9   3  -7    0.69    0.18 
  -9   3   7    0.78    0.28 
  -8  -3   7    1.81    0.36 
   8  -3  -7    1.76    0.26 
   8   3  -7    2.00    0.25 
  -8   3   7    2.82    0.39 
  -7  -3   7    0.39    0.25 
   7  -3  -7    0.30    0.17 
   7   3  -7    0.13    0.17 
  -7   3   7    0.31    0.23 
  -6  -3   7    4.18    0.35 
  -6  -3   7    3.57    0.49 
   6  -3  -7    5.43    0.53 
   6   3  -7    4.27    0.39 
  -6   3   7    3.79    0.34 
  -6   3   7    4.76    0.48 
   5  -3  -7    3.53    0.45 
  -5  -3   7    3.16    0.44 
  -5  -3   7    3.84    0.32 
  -5   3   7    4.09    0.38 
   5   3  -7    4.42    0.40 
  -5   3   7    3.29    0.31 
  -4  -3   7   22.58    1.42 
  -4  -3   7   22.66    1.11 
   4  -3  -7   21.49    1.43 
  -4   3   7   22.21    1.13 
   4   3  -7   21.71    1.39 
  -4   3   7   22.21    1.34 
   3  -3  -7    9.56    0.75 
  -3  -3   7    9.28    0.53 
  -3  -3   7   10.22    0.68 
  -3   3   7   10.06    0.55 
  -3   3   7   10.09    0.61 
   3   3  -7    9.11    0.73 
   2  -3  -7   54.29    3.00 
  -2  -3   7   52.30    3.03 
  -2  -3   7   52.36    2.46 
   2  -3  -7   53.13    3.07 
   2   3  -7   48.11    3.07 
  -2   3   7   53.25    2.47 
  -1  -3   7   44.98    2.12 
   1  -3  -7   47.26    2.68 
  -1  -3   7   45.20    2.61 
   1  -3  -7   44.63    2.58 
  -1   3   7   44.81    2.13 
   1   3  -7   44.38    2.69 
   0  -3   7   11.19    0.59 
   0  -3  -7   12.10    0.73 
   0  -3  -7   11.31    0.85 
   0  -3   7   11.87    0.73 
   0   3  -7   11.17    0.85 
   0   3   7   12.04    0.60 
  -1  -3  -7   23.12    1.41 
  -1  -3  -7   21.89    1.34 
   1  -3   7   20.82    1.03 
  -1   3  -7   21.00    1.26 
  -1   3  -7   20.87    1.35 
   1   3   7   21.30    1.04 
   2  -3   7   15.20    0.74 
  -2  -3  -7   11.91    1.00 
  -2  -3  -7   14.47    1.05 
  -2   3  -7   15.21    0.90 
  -2   3  -7   15.04    0.96 
   2   3   7   14.30    0.73 
  -3  -3  -7   -0.13    0.23 
   3  -3   7   -0.23    0.10 
  -3  -3  -7   -0.32    0.25 
   3   3   7   -0.01    0.10 
  -3   3  -7    0.25    0.14 
  -3   3  -7   -0.05    0.15 
  -4  -3  -7    4.24    0.55 
  -4  -3  -7    3.83    0.55 
   4  -3   7    4.42    0.31 
  -4   3  -7    3.90    0.37 
  -4   3  -7    4.14    0.35 
   4   3   7    3.90    0.30 
  -5  -3  -7    0.30    0.25 
   5  -3   7    0.35    0.15 
  -5  -3  -7    0.46    0.30 
   5   3   7    0.26    0.13 
  -5   3  -7    0.00    0.16 
   6  -3   7    8.72    0.53 
  -6  -3  -7    8.13    0.79 
  -6   3  -7    8.51    0.71 
   6   3   7    8.75    0.53 
   7  -3   7    0.47    0.19 
  -7  -3  -7    0.73    0.33 
   7   3   7    0.36    0.18 
  -7   3  -7    0.99    0.33 
   8  -3   7    0.13    0.19 
  -8  -3  -7    0.46    0.30 
  -8   3  -7    0.26    0.32 
   8   3   7    0.11    0.18 
   9  -3   7    3.10    0.34 
  -9  -3  -7    4.88    0.58 
   9   3   7    3.86    0.36 
  -9   3  -7    3.86    0.58 
  10  -4  -7    0.17    0.19 
 -10  -4   7    0.17    0.24 
 -10   4   7    0.22    0.24 
  10   4  -7    0.26    0.17 
   9  -4  -7    0.06    0.18 
  -9  -4   7   -0.26    0.23 
  -9   4   7    0.30    0.25 
   9   4  -7    0.11    0.14 
   8  -4  -7   14.31    0.84 
  -8  -4   7   14.95    1.11 
  -8   4   7   15.81    1.07 
   8   4  -7   15.09    0.82 
  -7  -4   7    0.03    0.24 
   7  -4  -7    0.59    0.20 
   7   4  -7    0.43    0.17 
  -7   4   7    0.03    0.22 
  -6  -4   7   10.21    0.96 
   6  -4  -7   12.08    0.92 
  -6   4   7   13.62    0.74 
   6   4  -7   13.95    0.88 
   6   4  -7   13.83    0.73 
  -6   4   7   15.17    0.93 
  -5  -4   7    7.18    0.61 
  -5  -4   7    7.34    0.44 
   5  -4  -7    6.06    0.60 
  -5   4   7    6.24    0.44 
  -5   4   7    7.24    0.53 
   5   4  -7    6.49    0.54 
  -4  -4   7    0.27    0.19 
   4  -4  -7    0.02    0.23 
  -4  -4   7    0.29    0.13 
  -4   4   7    0.17    0.12 
   4   4  -7    0.58    0.21 
  -4   4   7    0.27    0.15 
  -3  -4   7    6.76    0.49 
  -3  -4   7    6.25    0.37 
   3  -4  -7    6.79    0.57 
   3   4  -7    5.44    0.53 
  -3   4   7    5.99    0.38 
  -3   4   7    5.83    0.41 
  -2  -4   7   17.64    1.12 
   2  -4  -7   18.32    1.09 
  -2  -4   7   18.27    0.90 
   2   4  -7   18.50    1.22 
  -2   4   7   18.23    1.17 
  -2   4   7   18.52    0.91 
  -1  -4   7    3.57    0.24 
  -1  -4   7    3.74    0.32 
   1  -4  -7    3.82    0.29 
  -1   4   7    4.19    0.27 
   1   4  -7    3.58    0.45 
  -1   4   7    3.60    0.42 
   0  -4   7    7.67    0.40 
   0  -4   7    7.34    0.51 
   0  -4  -7    7.53    0.51 
   0   4  -7    7.79    0.62 
   0   4   7    7.35    0.41 
   0   4   7    7.52    0.60 
  -1  -4  -7    4.86    0.40 
   1  -4   7    3.85    0.27 
  -1   4  -7    3.93    0.45 
   1   4   7    4.61    0.28 
   1   4   7    5.19    0.52 
   2  -4   7   58.92    2.74 
  -2  -4  -7   59.52    3.48 
   2   4   7   59.02    3.40 
  -2   4  -7   58.48    3.35 
  -2   4  -7   58.99    3.39 
   2   4   7   57.42    2.74 
  -3  -4  -7    0.84    0.31 
   3  -4   7    0.60    0.13 
  -3   4  -7    0.59    0.18 
  -3   4  -7    0.47    0.17 
   3   4   7    0.67    0.14 
   4  -4   7    0.79    0.16 
  -4  -4  -7    0.56    0.30 
  -4  -4  -7    0.77    0.31 
  -4   4  -7    0.77    0.19 
   4   4   7    0.72    0.15 
  -4   4  -7    0.76    0.18 
   5  -4   7    3.49    0.29 
  -5  -4  -7    3.64    0.49 
  -5  -4  -7    3.64    0.55 
   5   4   7    3.61    0.29 
  -5   4  -7    2.82    0.38 
  -6  -4  -7    3.39    0.54 
   6  -4   7    3.53    0.32 
  -6   4  -7    3.71    0.44 
   6   4   7    3.69    0.32 
   7  -4   7    0.43    0.18 
  -7  -4  -7    0.68    0.32 
  -7   4  -7    0.20    0.27 
   7   4   7    0.63    0.19 
   8  -4   7    6.47    0.46 
  -8  -4  -7    7.26    0.75 
  -8   4  -7    5.19    0.65 
   8   4   7    6.68    0.44 
   9  -5  -7    1.66    0.26 
  -9  -5   7    1.14    0.34 
   9   5  -7    1.66    0.23 
  -9   5   7    1.84    0.35 
  -8  -5   7    0.20    0.27 
   8  -5  -7    0.56    0.20 
   8   5  -7    0.51    0.17 
  -8   5   7    0.76    0.28 
   7  -5  -7    4.18    0.36 
  -7  -5   7    3.52    0.52 
   7   5  -7    4.12    0.34 
  -7   5   7    3.86    0.46 
  -6  -5   7    5.09    0.58 
   6  -5  -7    4.53    0.52 
   6   5  -7    4.80    0.36 
  -6   5   7    5.07    0.47 
  -6   5   7    5.52    0.40 
   6   5  -7    5.36    0.45 
  -5  -5   7   16.30    0.87 
   5  -5  -7   16.40    1.13 
  -5  -5   7   16.50    1.15 
  -5   5   7   18.48    1.08 
  -5   5   7   16.82    0.90 
   5   5  -7   16.55    1.09 
  -4  -5   7    1.24    0.25 
   4  -5  -7    0.76    0.29 
  -4  -5   7    1.15    0.17 
  -4   5   7    0.90    0.17 
   4   5  -7    0.60    0.22 
  -4   5   7    0.68    0.16 
  -3  -5   7    2.79    0.23 
  -3  -5   7    2.87    0.33 
  -3   5   7    2.56    0.25 
  -3   5   7    2.87    0.26 
   3   5  -7    2.49    0.37 
  -3   5   7    2.44    0.35 
  -2  -5   7    7.18    0.54 
   2  -5  -7    7.73    0.51 
  -2  -5   7    6.88    0.40 
  -2   5   7    7.84    0.60 
  -2   5   7    8.32    0.44 
   2   5  -7    6.81    0.61 
   1  -5  -7   26.91    1.58 
  -1  -5   7   25.84    1.27 
  -1  -5   7   26.97    1.60 
   1   5  -7   28.74    1.67 
  -1   5   7   25.92    1.63 
  -1   5   7   26.66    1.29 
   0  -5   7   26.26    1.22 
   0  -5  -7   25.44    1.53 
   0  -5   7   25.17    1.53 
   0   5  -7   25.54    1.57 
   0   5   7   24.79    1.57 
   0   5   7   25.63    1.23 
  -1  -5  -7   32.68    1.95 
   1  -5   7   32.77    1.54 
   1  -5   7   31.82    1.93 
   1   5   7   31.30    1.55 
   1   5   7   34.53    1.98 
  -1   5  -7   33.66    1.95 
  -2  -5  -7    2.02    0.32 
   2  -5   7    2.15    0.18 
   2   5   7    1.96    0.18 
   2   5   7    1.81    0.31 
  -2   5  -7    1.61    0.21 
  -2   5  -7    1.79    0.28 
  -3  -5  -7    0.94    0.31 
   3  -5   7    1.05    0.14 
   3   5   7    1.11    0.29 
  -3   5  -7    1.23    0.19 
   3   5   7    1.30    0.17 
  -3   5  -7    0.95    0.21 
  -4  -5  -7    0.95    0.33 
   4  -5   7    1.52    0.18 
  -4   5  -7    1.63    0.23 
  -4   5  -7    1.45    0.24 
   4   5   7    1.74    0.33 
   4   5   7    1.17    0.18 
  -5  -5  -7   -0.11    0.25 
  -5  -5  -7    0.18    0.27 
   5  -5   7    0.08    0.13 
   5   5   7    0.01    0.12 
  -5   5  -7    0.23    0.20 
   6  -5   7    3.97    0.33 
  -6  -5  -7    4.47    0.59 
  -6   5  -7    3.54    0.45 
   6   5   7    4.02    0.33 
   7  -5   7    0.19    0.17 
  -7  -5  -7    0.17    0.28 
  -7   5  -7    0.05    0.22 
   7   5   7    0.03    0.15 
  -8  -5  -7    1.69    0.40 
   8  -5   7    1.17    0.23 
  -8   5  -7    1.12    0.37 
   8   5   7    1.48    0.24 
  -9  -6   7    0.18    0.27 
   9  -6  -7    0.45    0.17 
   9   6  -7    0.46    0.18 
  -9   6   7    0.48    0.27 
  -8  -6   7    1.54    0.40 
   8  -6  -7    2.40    0.29 
  -8   6   7    2.40    0.38 
   8   6  -7    2.36    0.25 
  -7  -6   7    1.45    0.36 
   7  -6  -7    1.52    0.22 
  -7   6   7    1.45    0.31 
   7   6  -7    1.68    0.22 
  -6  -6   7    6.91    0.68 
   6  -6  -7    6.70    0.61 
  -6   6   7    8.41    0.60 
   6   6  -7    7.75    0.47 
  -6   6   7    7.62    0.50 
   6   6  -7    7.25    0.58 
  -5  -6   7    8.87    0.72 
   5  -6  -7    8.50    0.70 
   5   6  -7    8.38    0.67 
   5   6  -7    9.29    0.51 
  -5   6   7    9.31    0.55 
  -5   6   7    8.63    0.62 
  -4  -6   7   10.80    0.75 
  -4  -6   7    9.91    0.55 
  -4   6   7   10.39    0.58 
  -4   6   7    9.96    0.72 
   4   6  -7    9.69    0.74 
  -4   6   7    9.75    0.67 
   3  -6  -7    1.00    0.19 
  -3  -6   7    0.93    0.14 
  -3  -6   7    0.76    0.21 
   3   6  -7    1.45    0.29 
  -3   6   7    1.32    0.18 
  -3   6   7    1.02    0.26 
   2  -6  -7    3.02    0.28 
  -2  -6   7    2.80    0.31 
  -2  -6   7    2.48    0.19 
   2   6  -7    2.71    0.38 
  -2   6   7    1.99    0.32 
  -2   6   7    2.10    0.22 
   1  -6  -7   12.74    0.80 
  -1  -6   7   12.39    0.62 
  -1  -6   7   12.13    0.81 
   1   6  -7   13.61    0.89 
  -1   6   7   11.34    0.85 
  -1   6   7   12.34    0.64 
   0  -6   7    3.71    0.35 
   0  -6   7    4.26    0.24 
   0  -6  -7    3.58    0.35 
   0   6   7    3.85    0.26 
   0   6   7    3.56    0.43 
   0   6  -7    4.44    0.46 
   1  -6   7    4.61    0.38 
  -1  -6  -7    4.87    0.42 
   1  -6   7    4.52    0.26 
  -1   6  -7    4.62    0.42 
   1   6   7    4.26    0.46 
   1   6   7    3.93    0.28 
   2  -6   7    0.95    0.13 
  -2  -6  -7    1.19    0.26 
  -2   6  -7    0.60    0.21 
  -2   6  -7    1.24    0.18 
   2   6   7    0.76    0.13 
   2   6   7    0.46    0.22 
  -3  -6  -7    0.51    0.26 
   3  -6   7    0.27    0.11 
   3   6   7    0.47    0.12 
  -3   6  -7    0.38    0.15 
   3   6   7   -0.03    0.20 
  -3   6  -7    0.29    0.17 
  -4  -6  -7   23.27    1.65 
   4  -6   7   25.33    1.22 
  -4   6  -7   26.19    1.54 
   4   6   7   26.11    1.58 
  -4   6  -7   23.54    1.48 
   4   6   7   25.12    1.22 
  -5  -6  -7    3.75    0.59 
   5  -6   7    5.75    0.37 
  -5   6  -7    5.14    0.48 
   5   6   7    5.44    0.36 
   5   6   7    6.60    0.55 
  -6  -6  -7    3.85    0.57 
   6  -6   7    4.28    0.34 
  -6   6  -7    4.27    0.47 
   6   6   7    4.28    0.32 
  -7  -6  -7    0.37    0.31 
   7  -6   7    0.45    0.17 
  -7   6  -7    0.31    0.26 
   7   6   7    0.16    0.15 
   8  -6   7   -0.20    0.16 
  -8  -6  -7    0.20    0.28 
  -8   6  -7   -0.33    0.25 
   8   6   7    0.08    0.16 
  -9  -7   7   -0.02    0.27 
   9  -7  -7    0.75    0.19 
  -9   7   7    0.80    0.29 
   8  -7  -7    0.25    0.17 
  -8  -7   7    0.18    0.27 
  -8   7   7    0.19    0.23 
  -7  -7   7    0.24    0.28 
   7  -7  -7    0.43    0.18 
  -7   7   7    0.44    0.23 
  -6  -7   7    1.71    0.36 
   6  -7  -7    1.58    0.33 
  -6   7   7    1.90    0.29 
   6   7  -7    1.97    0.31 
  -5  -7   7    0.21    0.22 
  -5   7   7    0.52    0.17 
   5   7  -7    0.44    0.14 
   5   7  -7    0.56    0.22 
  -5   7   7    0.52    0.18 
  -5   7   7    0.30    0.20 
   4  -7  -7    3.37    0.35 
  -4  -7   7    2.94    0.38 
   4   7  -7    2.94    0.39 
  -4   7   7    2.93    0.38 
  -4   7   7    3.70    0.31 
  -3  -7   7   48.83    2.26 
  -3  -7   7   49.17    2.84 
   3  -7  -7   45.57    2.79 
  -3   7   7   47.13    2.79 
   3   7  -7   47.55    2.81 
  -3   7   7   47.93    2.28 
  -2  -7   7    0.89    0.21 
  -2  -7   7    1.18    0.13 
   2  -7  -7    0.76    0.19 
   2   7  -7    0.98    0.27 
  -2   7   7    0.80    0.24 
  -2   7   7    1.16    0.16 
  -1  -7   7    3.70    0.36 
   1  -7  -7    3.48    0.33 
  -1  -7   7    3.14    0.21 
   1   7  -7    3.17    0.41 
  -1   7   7    3.10    0.41 
  -1   7   7    3.36    0.25 
   0  -7  -7    6.18    0.48 
   0  -7   7    6.08    0.33 
   0  -7   7    5.87    0.47 
   0   7   7    6.36    0.53 
   0   7   7    5.54    0.35 
   0   7  -7    5.95    0.54 
   1  -7   7    0.64    0.10 
   1  -7   7    0.81    0.20 
  -1  -7  -7    0.66    0.21 
   1   7   7    0.19    0.20 
  -1   7  -7    0.57    0.21 
   1   7   7    0.83    0.13 
   2  -7   7    1.63    0.15 
  -2  -7  -7    1.68    0.29 
   2  -7   7    1.58    0.26 
   2   7   7    1.57    0.17 
   2   7   7    1.42    0.31 
  -2   7  -7    1.58    0.27 
   3  -7   7   13.75    0.68 
  -3  -7  -7   12.05    0.95 
   3   7   7   13.00    0.68 
  -3   7  -7   13.74    0.87 
  -3   7  -7   13.46    0.87 
   3   7   7   12.73    0.92 
  -4  -7  -7    0.68    0.29 
   4  -7   7    0.48    0.13 
   4   7   7    0.70    0.14 
  -4   7  -7    0.48    0.20 
   4   7   7    0.50    0.24 
  -4   7  -7    0.72    0.19 
   5  -7   7    1.23    0.19 
  -5  -7  -7    0.75    0.35 
   5   7   7    2.00    0.34 
  -5   7  -7    1.66    0.26 
   5   7   7    1.50    0.19 
  -6  -7  -7    0.20    0.28 
   6  -7   7    0.36    0.16 
   6   7   7   -0.26    0.13 
  -6   7  -7    0.56    0.24 
   7  -7   7    3.77    0.32 
  -7  -7  -7    2.49    0.50 
  -7   7  -7    3.47    0.45 
   7   7   7    3.71    0.31 
  -8  -8   7    1.06    0.35 
   8  -8  -7    0.97    0.21 
  -8   8   7    0.94    0.29 
   7  -8  -7    7.33    0.47 
  -7  -8   7    6.16    0.71 
  -7   8   7    7.10    0.60 
  -6  -8   7    2.87    0.46 
   6  -8  -7    3.74    0.34 
   6  -8  -7    5.09    0.51 
  -6   8   7    4.25    0.43 
   6   8  -7    4.84    0.47 
  -5  -8   7   -0.08    0.21 
   5   8  -7    0.04    0.22 
  -5   8   7   -0.18    0.15 
  -5   8   7   -0.34    0.16 
   4  -8  -7    4.37    0.42 
  -4  -8   7    4.73    0.50 
  -4   8   7    5.04    0.35 
   4   8  -7    4.36    0.49 
  -4   8   7    4.23    0.47 
  -3  -8   7    0.73    0.25 
   3  -8  -7    1.24    0.23 
  -3   8   7    0.97    0.25 
   3   8  -7    1.11    0.29 
  -3   8   7    1.02    0.18 
  -2  -8   7    0.40    0.20 
   2  -8  -7    0.22    0.15 
  -2   8   7    0.00    0.20 
  -2   8   7    0.15    0.13 
   2   8  -7    0.13    0.24 
  -1  -8   7    7.64    0.58 
   1  -8  -7    7.58    0.56 
  -1   8   7    6.73    0.61 
   1   8  -7    7.31    0.62 
  -1   8   7    8.41    0.44 
   0  -8   7    1.69    0.26 
   0  -8  -7    2.50    0.31 
   0   8  -7    1.99    0.34 
   0   8   7    2.07    0.33 
   0   8   7    2.53    0.21 
   1  -8   7   29.27    1.79 
  -1  -8  -7   30.12    1.81 
   1   8   7   29.68    1.82 
  -1   8  -7   27.88    1.77 
   1   8   7   30.40    1.41 
  -2  -8  -7    1.21    0.27 
   2  -8   7    0.98    0.22 
   2   8   7    0.91    0.26 
  -2   8  -7    0.96    0.24 
   2   8   7    1.20    0.15 
  -3  -8  -7    5.47    0.56 
   3  -8   7    4.27    0.44 
   3   8   7    4.10    0.50 
   3   8   7    4.22    0.29 
  -3   8  -7    4.28    0.43 
  -4  -8  -7    5.25    0.62 
  -4   8  -7    5.75    0.49 
   4   8   7    6.70    0.60 
   4   8   7    6.57    0.38 
  -4   8  -7    6.31    0.52 
  -5  -8  -7    0.37    0.32 
   5   8   7    0.46    0.26 
   5   8   7    0.54    0.14 
  -5   8  -7    0.73    0.23 
  -6  -8  -7    1.61    0.40 
  -6   8  -7    1.82    0.31 
  -7  -8  -7    4.18    0.59 
  -7   8  -7    4.21    0.49 
   8  -9  -7    0.13    0.16 
  -8  -9   7   -0.10    0.26 
  -8   9   7   -0.24    0.22 
  -7  -9   7   -0.48    0.25 
   7  -9  -7    0.09    0.16 
  -7   9   7   -0.05    0.21 
  -6  -9   7    4.17    0.54 
   6  -9  -7    5.49    0.38 
   6   9  -7    5.38    0.50 
   5  -9  -7    3.01    0.37 
   5  -9  -7    2.39    0.27 
  -5  -9   7    2.24    0.40 
  -5   9   7    3.85    0.43 
   5   9  -7    2.73    0.39 
   4  -9  -7    2.20    0.30 
  -4  -9   7    1.97    0.35 
  -4   9   7    2.28    0.25 
  -4   9   7    2.30    0.35 
   4   9  -7    2.01    0.35 
  -3  -9   7    0.50    0.22 
   3  -9  -7    0.68    0.20 
  -3   9   7    0.55    0.17 
   3   9  -7    0.33    0.27 
  -3   9   7    0.46    0.24 
  -2  -9   7    3.78    0.41 
   2  -9  -7    2.82    0.34 
  -2   9   7    4.08    0.32 
  -2   9   7    2.40    0.37 
   2   9  -7    3.06    0.44 
  -1  -9   7    3.36    0.38 
   1  -9  -7    3.77    0.39 
   1   9  -7    4.46    0.48 
  -1   9   7    3.66    0.44 
   0  -9  -7   16.17    0.99 
   0  -9   7   12.71    0.94 
   0   9   7   15.01    1.01 
   0   9  -7   14.79    1.00 
  -1  -9  -7    7.88    0.63 
   1  -9   7    8.26    0.62 
  -1   9  -7    8.01    0.63 
   1   9   7    8.12    0.67 
   2  -9   7    0.21    0.18 
  -2  -9  -7    0.27    0.23 
   2   9   7    0.38    0.23 
  -2   9  -7    0.12    0.17 
  -3  -9  -7    1.61    0.33 
   3  -9   7    1.94    0.32 
  -3   9  -7    1.74    0.27 
   3   9   7    2.33    0.36 
   4  -9   7    0.08    0.17 
  -4  -9  -7    0.21    0.28 
   4   9   7    0.36    0.23 
  -4   9  -7    0.40    0.20 
  -5  -9  -7    0.13    0.30 
  -5   9  -7    0.14    0.20 
   5   9   7    0.12    0.24 
  -6  -9  -7   -0.02    0.24 
  -6   9  -7    0.03    0.20 
   7 -10  -7    1.37    0.28 
  -7 -10   7    0.74    0.33 
   6 -10  -7    0.28    0.21 
  -6 -10   7   -0.10    0.23 
  -6  10   7    0.31    0.23 
   6  10  -7   -0.04    0.21 
   5 -10  -7    2.70    0.36 
  -5 -10   7    2.73    0.43 
  -5  10   7    3.19    0.40 
   5  10  -7    2.82    0.41 
   4 -10  -7    3.87    0.43 
  -4 -10   7    3.99    0.47 
  -4  10   7    3.49    0.45 
   4  10  -7    4.61    0.52 
   3 -10  -7    1.80    0.29 
  -3 -10   7    1.41    0.28 
  -3  10   7    1.90    0.32 
   3  10  -7    2.00    0.39 
  -2 -10   7    4.47    0.46 
   2 -10  -7    3.90    0.41 
  -2  10   7    3.46    0.44 
   2  10  -7    3.82    0.49 
  -1 -10   7    3.63    0.41 
   1 -10  -7    4.00    0.41 
   1  10  -7    3.48    0.44 
  -1  10   7    3.30    0.44 
   0 -10  -7   -0.05    0.19 
   0 -10   7    0.11    0.18 
   0  10   7   -0.27    0.19 
   0  10  -7    0.17    0.21 
  -1 -10  -7   -0.01    0.20 
   1 -10   7    0.14    0.19 
  -1  10  -7    0.04    0.19 
   1  10   7    0.28    0.23 
   2 -10   7    4.41    0.45 
  -2 -10  -7    4.05    0.47 
  -2  10  -7    4.11    0.43 
   2  10   7    3.93    0.49 
  -3 -10  -7    3.81    0.49 
   3 -10   7    4.06    0.45 
   3  10   7    4.22    0.51 
  -3  10  -7    3.84    0.42 
  -4 -10  -7    0.47    0.31 
   4 -10   7    1.66    0.31 
   4  10   7    0.62    0.29 
  -4  10  -7    1.63    0.26 
   5 -10   7    6.16    0.54 
  -5 -10  -7    4.42    0.63 
   5  10   7    6.22    0.64 
  -6 -10  -7   -0.50    0.22 
  -6  10  -7   -0.02    0.18 
   6 -11  -7    1.57    0.31 
  -6 -11   7    1.86    0.40 
   6  11  -7    1.69    0.33 
  -5 -11   7   -0.15    0.26 
   5 -11  -7    0.00    0.19 
  -5  11   7   -0.02    0.20 
   5  11  -7    0.40    0.25 
   4 -11  -7    6.25    0.55 
  -4 -11   7    7.04    0.63 
   4  11  -7    6.05    0.60 
  -4  11   7    7.37    0.61 
   3 -11  -7    0.13    0.19 
  -3 -11   7    0.37    0.23 
   3  11  -7    0.35    0.26 
  -3  11   7    0.34    0.25 
  -2 -11   7   17.65    1.22 
   2 -11  -7   18.54    1.21 
  -2  11   7   20.67    1.27 
   2  11  -7   17.78    1.24 
  -1 -11   7    0.07    0.20 
   1 -11  -7    0.23    0.21 
   1  11  -7   -0.21    0.20 
  -1  11   7    0.27    0.23 
   0 -11   7    0.08    0.20 
   0 -11  -7    0.04    0.21 
   0  11  -7   -0.17    0.18 
   0  11   7    0.12    0.22 
   1 -11   7    0.18    0.20 
  -1 -11  -7    0.38    0.24 
   1  11   7    0.50    0.25 
  -1  11  -7    0.03    0.19 
   2 -11   7    4.13    0.47 
  -2 -11  -7    3.96    0.49 
  -2  11  -7    4.03    0.45 
   2  11   7    4.53    0.54 
   3 -11   7    0.12    0.22 
  -3 -11  -7    0.01    0.25 
  -3  11  -7    0.00    0.19 
   3  11   7   -0.02    0.25 
   4 -11   7    1.18    0.27 
  -4 -11  -7    1.27    0.37 
   4  11   7    1.52    0.38 
  -4  11  -7    1.50    0.27 
  -5 -11  -7   -0.36    0.26 
   5 -11   7   -0.14    0.19 
   5  11   7    0.03    0.25 
  -5 -12   7    2.73    0.45 
   5 -12  -7    2.47    0.36 
  -5  12   7    2.62    0.39 
   5  12  -7    2.24    0.39 
   4 -12  -7    1.75    0.31 
  -4 -12   7    2.20    0.38 
  -4  12   7    1.53    0.34 
   4  12  -7    1.98    0.38 
  -3 -12   7    0.02    0.22 
   3 -12  -7    0.21    0.20 
  -3  12   7    0.40    0.26 
   3  12  -7    0.15    0.25 
   2 -12  -7    0.72    0.25 
  -2 -12   7    0.63    0.24 
   2  12  -7    1.01    0.32 
  -2  12   7    1.15    0.30 
  -1 -12   7    0.65    0.24 
   1 -12  -7    0.40    0.23 
  -1  12   7    0.13    0.27 
   1  12  -7    0.38    0.24 
   0 -12  -7   -0.08    0.21 
   0 -12   7   -0.07    0.20 
   0  12   7    0.24    0.26 
   0  12  -7   -0.20    0.19 
   1 -12   7    0.52    0.22 
  -1 -12  -7    0.44    0.25 
  -1  12  -7    0.34    0.23 
   1  12   7    0.59    0.30 
   2 -12   7    5.59    0.51 
  -2 -12  -7    5.31    0.57 
  -2  12  -7    3.80    0.46 
   2  12   7    4.79    0.56 
   3 -12   7    1.21    0.28 
  -3 -12  -7    2.19    0.39 
   3  12   7    1.86    0.40 
  -3  12  -7    1.74    0.30 
   4 -12   7    0.02    0.20 
  -4 -12  -7    0.07    0.29 
  -4  12  -7    0.00    0.20 
   4  12   7    0.18    0.28 
   3 -13  -7    0.09    0.21 
  -3 -13   7   -0.43    0.18 
   3  13  -7   -0.11    0.24 
  -3  13   7   -0.12    0.24 
  -2 -13   7    0.16    0.22 
   2 -13  -7   -0.10    0.20 
   2  13  -7   -0.08    0.26 
  -2  13   7    0.04    0.22 
  -1 -13   7    4.43    0.49 
   1 -13  -7    4.22    0.47 
  -1  13   7    4.12    0.53 
   1  13  -7    3.08    0.47 
   0 -13  -7    5.98    0.57 
   0 -13   7    6.30    0.57 
   0  13   7    6.71    0.68 
   0  13  -7    6.23    0.58 
  -1 -13  -7    1.37    0.33 
   1 -13   7    1.23    0.30 
   1  13   7    1.37    0.37 
  -1  13  -7    1.64    0.33 
  -2 -13  -7   -0.06    0.24 
   2 -13   7   -0.01    0.21 
  -2  13  -7    0.20    0.20 
   2  13   7    0.12    0.24 
 -10   0   8    1.22    0.29 
  10   0  -8    0.89    0.23 
  -9   0   8   -0.14    0.20 
   9   0  -8   -0.26    0.17 
   8   0  -8    8.62    0.56 
  -8   0   8    7.79    0.65 
  -7   0   8   -0.22    0.13 
  -7   0   8    0.07    0.19 
   6   0  -8    5.36    0.48 
  -6   0   8    4.61    0.40 
  -6   0   8    5.22    0.48 
  -5   0   8    0.01    0.12 
  -5   0   8    0.03    0.17 
   5   0  -8   -0.08    0.21 
  -4   0   8    9.07    0.64 
   4   0  -8    9.01    0.75 
  -4   0   8    8.25    0.52 
   3   0  -8    0.40    0.29 
  -3   0   8    0.17    0.11 
  -3   0   8   -0.20    0.11 
  -2   0   8  118.44    5.59 
  -2   0   8  117.09    6.83 
   2   0  -8  128.36    6.92 
   1   0  -8   -0.05    0.32 
  -1   0   8    0.11    0.10 
   0   0   8    1.51    0.16 
   0   0  -8    2.05    0.50 
  -1   0  -8    0.84    0.44 
   2   0   8    1.84    0.19 
  -2   0  -8    2.27    0.22 
  -2   0  -8    1.60    0.48 
   3   0   8    0.02    0.10 
  -3   0  -8   -0.02    0.30 
  -3   0  -8    0.02    0.14 
  -4   0  -8    4.27    0.46 
   4   0   8    3.61    0.29 
  -4   0  -8    3.91    0.42 
  -5   0  -8   -0.22    0.20 
   5   0   8   -0.03    0.13 
  -6   0  -8   16.74    1.13 
   6   0   8   14.77    0.83 
   7   0   8   -0.23    0.16 
  -7   0  -8    0.50    0.30 
  -8   0  -8    6.76    0.76 
   8   0   8    8.55    0.54 
  -9   0  -8    0.21    0.28 
   9   0   8   -0.06    0.19 
 -10  -1   8    0.35    0.22 
  10  -1  -8    0.37    0.20 
 -10   1   8    0.57    0.23 
  10   1  -8    0.44    0.19 
   9  -1  -8   10.94    0.67 
   9   1  -8    9.87    0.65 
   8  -1  -8    0.61    0.22 
  -8  -1   8    0.46    0.23 
  -8   1   8    0.26    0.22 
   8   1  -8    0.47    0.19 
  -7  -1   8    2.51    0.38 
  -7  -1   8    2.34    0.29 
  -7   1   8    2.72    0.37 
  -7   1   8    2.03    0.26 
  -6  -1   8   11.31    0.82 
  -6  -1   8   10.86    0.65 
   6  -1  -8   11.41    0.79 
   6   1  -8   11.35    0.76 
  -6   1   8   11.14    0.81 
  -6   1   8   10.59    0.64 
   5  -1  -8    0.30    0.26 
  -5  -1   8    0.21    0.16 
  -5  -1   8    0.48    0.21 
   5   1  -8    0.87    0.25 
  -5   1   8    0.37    0.15 
  -5   1   8    0.38    0.20 
   4  -1  -8   16.73    1.19 
  -4  -1   8   18.59    1.12 
  -4  -1   8   16.69    0.88 
   4   1  -8   18.25    1.17 
  -4   1   8   16.85    0.89 
  -4   1   8   15.84    1.06 
  -3  -1   8    2.38    0.28 
   3  -1  -8    2.09    0.42 
  -3  -1   8    1.84    0.20 
  -3   1   8    2.16    0.20 
  -3   1   8    1.49    0.20 
   3   1  -8    2.38    0.41 
   2  -1  -8    6.65    0.72 
  -2  -1   8    6.36    0.36 
  -2  -1   8    5.34    0.41 
   2   1  -8    6.55    0.72 
  -2   1   8    5.83    0.36 
  -1  -1   8   29.78    1.46 
   1  -1  -8   28.81    1.97 
  -1  -1   8   31.04    1.75 
  -1   1   8   29.41    1.46 
   1   1  -8   34.06    2.02 
   0  -1  -8    6.08    0.79 
   0  -1   8    8.39    0.45 
   0  -1   8    8.73    0.50 
   0   1   8    8.08    0.45 
   0   1  -8    8.22    0.88 
  -1  -1  -8   17.52    1.47 
  -1  -1  -8   21.93    1.23 
   1  -1   8   21.61    1.03 
  -1   1  -8   20.04    1.48 
   1   1   8   20.19    1.03 
  -1   1  -8   21.96    1.23 
  -2  -1  -8    7.46    0.50 
   2  -1   8    7.35    0.41 
  -2  -1  -8    6.82    0.81 
   2   1   8    6.34    0.41 
  -2   1  -8    6.32    0.69 
  -2   1  -8    6.91    0.47 
   3  -1   8   11.85    0.63 
  -3  -1  -8   13.81    1.05 
  -3  -1  -8   12.57    0.82 
   3   1   8   11.77    0.63 
  -3   1  -8   11.09    0.77 
  -3   1  -8   11.55    0.86 
  -4  -1  -8    1.08    0.32 
  -4  -1  -8    1.17    0.28 
   4  -1   8    0.53    0.14 
  -4   1  -8    0.80    0.22 
  -4   1  -8    0.65    0.20 
   4   1   8    0.70    0.15 
  -5  -1  -8   11.15    0.83 
  -5  -1  -8   11.23    0.77 
   5  -1   8   10.12    0.58 
  -5   1  -8   10.39    0.77 
   5   1   8    9.58    0.58 
  -6  -1  -8    1.43    0.35 
   6  -1   8    1.49    0.21 
   6   1   8    1.33    0.22 
  -6   1  -8    1.54    0.33 
   7  -1   8    0.04    0.17 
  -7  -1  -8    0.47    0.30 
  -7   1  -8    0.23    0.28 
   7   1   8    0.18    0.16 
   8  -1   8    2.18    0.28 
  -8  -1  -8    1.96    0.43 
  -8   1  -8    2.28    0.43 
   8   1   8    2.19    0.27 
   9  -1   8    0.15    0.20 
  -9  -1  -8    0.19    0.28 
  -9   1  -8   -0.09    0.26 
   9   1   8    0.18    0.20 
 -10  -2   8    0.90    0.28 
  10  -2  -8    1.04    0.24 
  10   2  -8    0.59    0.19 
 -10   2   8    1.02    0.27 
   9  -2  -8    0.02    0.20 
  -9  -2   8   -0.03    0.21 
  -9   2   8   -0.06    0.20 
   9   2  -8    0.22    0.17 
  -8  -2   8   -0.02    0.20 
   8  -2  -8   -0.04    0.19 
   8   2  -8    0.24    0.18 
  -8   2   8    0.04    0.20 
  -7  -2   8   -0.15    0.20 
  -7  -2   8    0.23    0.16 
  -7   2   8    0.14    0.20 
  -7   2   8    0.12    0.15 
  -6  -2   8   10.67    0.82 
  -6  -2   8    9.74    0.61 
   6  -2  -8   11.59    0.82 
  -6   2   8   11.72    0.80 
  -6   2   8   10.91    0.64 
   6   2  -8   10.79    0.74 
   5  -2  -8   20.51    1.40 
  -5  -2   8   19.15    1.37 
  -5  -2   8   22.43    1.09 
   5   2  -8   22.44    1.35 
  -5   2   8   21.52    1.10 
  -5   2   8   21.72    1.34 
  -4  -2   8   36.36    2.49 
   4  -2  -8   41.21    2.54 
  -4  -2   8   43.47    2.01 
  -4   2   8   43.29    2.02 
   4   2  -8   43.90    2.50 
  -4   2   8   42.92    2.45 
  -3  -2   8    1.21    0.17 
   3  -2  -8    0.87    0.30 
  -3  -2   8    1.35    0.22 
   3   2  -8    0.66    0.31 
  -3   2   8    1.52    0.15 
  -3   2   8    1.18    0.17 
  -2  -2   8    0.16    0.09 
   2  -2  -8    0.08    0.05 
  -2  -2   8    0.11    0.11 
   2  -2  -8   -0.13    0.23 
  -2   2   8    0.14    0.10 
   2   2  -8    0.00    0.27 
   1  -2  -8    1.54    0.37 
  -1  -2   8    1.76    0.17 
  -1  -2   8    1.94    0.17 
   1   2  -8    1.59    0.44 
  -1   2   8    1.46    0.16 
   0  -2  -8   19.12    1.34 
   0  -2   8   19.52    0.93 
   0  -2   8   19.58    1.12 
   0   2   8   18.95    0.94 
   0   2  -8   16.49    1.31 
  -1  -2  -8   22.45    1.52 
  -1  -2  -8   21.44    1.28 
   1  -2   8   21.44    1.05 
   1   2   8   21.25    1.05 
  -1   2  -8   20.95    1.42 
  -1   2  -8   21.06    1.25 
  -2  -2  -8    0.88    0.22 
  -2  -2  -8    0.98    0.36 
   2  -2   8    0.91    0.14 
  -2   2  -8    1.06    0.16 
   2   2   8    0.83    0.14 
  -2   2  -8    0.80    0.28 
  -3  -2  -8    7.05    0.57 
   3  -2   8    6.32    0.38 
  -3  -2  -8    5.00    0.69 
  -3   2  -8    6.23    0.47 
   3   2   8    6.17    0.38 
  -3   2  -8    6.28    0.53 
  -4  -2  -8   14.64    1.07 
   4  -2   8   12.19    0.69 
  -4  -2  -8   12.49    0.95 
   4   2   8   13.28    0.69 
  -4   2  -8   14.56    0.86 
  -4   2  -8   12.31    0.87 
   5  -2   8    7.41    0.45 
  -5  -2  -8    8.58    0.72 
  -5  -2  -8    7.16    0.70 
  -5   2  -8    7.48    0.60 
   5   2   8    6.87    0.45 
   6  -2   8    0.48    0.18 
  -6  -2  -8    0.72    0.30 
   6   2   8    0.58    0.16 
  -6   2  -8    0.49    0.25 
  -7  -2  -8    0.25    0.28 
   7  -2   8    0.17    0.16 
   7   2   8    0.26    0.18 
  -7   2  -8    0.50    0.27 
   8  -2   8    0.40    0.19 
  -8  -2  -8    1.42    0.36 
   8   2   8    0.67    0.20 
  -8   2  -8    0.70    0.34 
 -10  -3   8    3.13    0.45 
  10  -3  -8    3.50    0.37 
 -10   3   8    4.65    0.48 
  10   3  -8    4.05    0.35 
  -9  -3   8    0.31    0.25 
   9  -3  -8    0.75    0.22 
  -9   3   8    0.42    0.23 
   9   3  -8    0.13    0.15 
  -8  -3   8    2.01    0.37 
   8  -3  -8    2.32    0.28 
   8   3  -8    2.28    0.28 
  -8   3   8    1.90    0.34 
  -7  -3   8   12.54    0.95 
   7   3  -8   12.48    0.72 
  -7   3   8   12.72    0.73 
  -7   3   8   13.34    0.91 
   6  -3  -8    0.26    0.25 
  -6  -3   8    0.24    0.15 
  -6  -3   8   -0.08    0.20 
  -6   3   8    0.05    0.15 
  -6   3   8    0.09    0.18 
   6   3  -8    0.22    0.17 
  -5  -3   8    0.66    0.17 
   5  -3  -8    0.52    0.26 
  -5  -3   8    0.63    0.23 
  -5   3   8    0.35    0.16 
   5   3  -8    1.12    0.26 
  -5   3   8    0.72    0.19 
  -4  -3   8    7.89    0.46 
   4  -3  -8    7.22    0.68 
  -4  -3   8    6.91    0.60 
  -4   3   8    7.74    0.51 
   4   3  -8    7.21    0.64 
  -4   3   8    7.65    0.47 
  -3  -3   8   26.35    1.55 
  -3  -3   8   24.32    1.23 
   3  -3  -8   25.02    1.63 
   3   3  -8   24.72    1.61 
  -3   3   8   25.79    1.26 
  -3   3   8   25.60    1.48 
   2  -3  -8    1.31    0.35 
   2  -3  -8    2.13    0.19 
  -2  -3   8    2.32    0.24 
  -2  -3   8    2.44    0.21 
   2   3  -8    2.55    0.43 
  -2   3   8    2.19    0.21 
   1  -3  -8    2.91    0.23 
  -1  -3   8    3.14    0.26 
  -1  -3   8    3.19    0.22 
   1  -3  -8    2.28    0.40 
  -1   3   8    3.51    0.23 
   1   3  -8    2.79    0.47 
   0  -3  -8   34.48    2.07 
   0  -3   8   33.64    1.93 
   0  -3   8   32.55    1.57 
   0  -3  -8   32.55    1.94 
   0   3  -8   33.74    2.07 
   0   3   8   32.32    1.58 
   1  -3   8    6.46    0.34 
  -1  -3  -8    4.95    0.49 
  -1  -3  -8    6.79    0.67 
   1   3   8    4.94    0.34 
  -1   3  -8    6.74    0.57 
  -1   3  -8    6.09    0.40 
  -2  -3  -8    4.97    0.55 
   2  -3   8    5.77    0.35 
  -2  -3  -8    6.41    0.69 
  -2   3  -8    5.96    0.41 
  -2   3  -8    6.24    0.53 
   2   3   8    5.05    0.34 
  -3  -3  -8   28.84    2.10 
   3  -3   8   34.70    1.63 
  -3  -3  -8   34.26    2.17 
  -3   3  -8   37.23    2.02 
   3   3   8   34.43    1.64 
  -3   3  -8   33.90    2.01 
   4  -3   8    6.04    0.38 
  -4  -3  -8    6.54    0.72 
  -4  -3  -8    6.30    0.65 
  -4   3  -8    5.35    0.47 
   4   3   8    5.52    0.37 
  -4   3  -8    6.40    0.47 
   5  -3   8    0.83    0.18 
  -5  -3  -8    0.28    0.29 
  -5  -3  -8    0.25    0.27 
  -5   3  -8    0.89    0.23 
   5   3   8    0.58    0.16 
  -6  -3  -8    5.41    0.62 
   6  -3   8    5.03    0.36 
  -6   3  -8    4.20    0.49 
   6   3   8    4.69    0.37 
   7  -3   8    0.31    0.18 
  -7  -3  -8    0.33    0.30 
  -7   3  -8   -0.03    0.23 
   7   3   8   -0.21    0.15 
  -8  -3  -8    0.10    0.27 
   8  -3   8    0.14    0.19 
  -8   3  -8   -0.14    0.24 
   8   3   8    0.12    0.16 
  -9  -4   8    1.02    0.31 
   9  -4  -8    1.70    0.25 
   9   4  -8    1.24    0.21 
  -9   4   8    1.67    0.33 
   8  -4  -8    0.29    0.20 
  -8  -4   8    0.22    0.26 
  -8   4   8   -0.03    0.21 
   8   4  -8    0.39    0.18 
  -7  -4   8    7.93    0.81 
  -7   4   8   10.73    0.64 
  -7   4   8   11.78    0.80 
   7   4  -8   11.07    0.62 
   6  -4  -8    0.85    0.27 
  -6  -4   8    1.00    0.18 
  -6  -4   8    1.01    0.30 
   6   4  -8    1.04    0.24 
  -6   4   8    1.23    0.25 
  -6   4   8    0.51    0.18 
  -5  -4   8    0.12    0.21 
   5  -4  -8    0.11    0.23 
  -5  -4   8    0.01    0.14 
   5   4  -8   -0.16    0.18 
  -5   4   8    0.17    0.16 
  -5   4   8    0.51    0.17 
  -4  -4   8    3.02    0.26 
  -4  -4   8    2.38    0.34 
   4  -4  -8    2.70    0.40 
  -4   4   8    2.83    0.28 
   4   4  -8    2.60    0.39 
  -4   4   8    2.79    0.26 
  -3  -4   8   39.72    1.82 
  -3  -4   8   37.73    2.25 
   3  -4  -8   38.38    2.31 
   3   4  -8   34.65    2.28 
  -3   4   8   38.29    1.83 
  -3   4   8   38.51    2.20 
  -2  -4   8    2.68    0.27 
  -2  -4   8    2.46    0.21 
   2  -4  -8    2.34    0.22 
   2  -4  -8    3.20    0.43 
   2   4  -8    2.23    0.40 
  -2   4   8    2.31    0.22 
  -1  -4   8   37.09    2.12 
   1  -4  -8   35.16    2.09 
  -1  -4   8   36.12    1.71 
   1  -4  -8   36.21    2.21 
  -1   4   8   35.84    1.73 
   1   4  -8   37.02    2.23 
   0  -4  -8    3.54    0.31 
   0  -4   8    3.30    0.24 
   0  -4  -8    4.30    0.51 
   0  -4   8    3.41    0.30 
   0   4  -8    3.73    0.47 
   0   4   8    3.49    0.24 
   1  -4   8    5.48    0.40 
   1  -4   8    5.10    0.31 
  -1  -4  -8    6.90    0.59 
  -1  -4  -8    4.85    0.47 
   1   4   8    5.43    0.33 
  -1   4  -8    4.46    0.50 
  -2  -4  -8    0.07    0.23 
   2  -4   8    0.18    0.10 
  -2  -4  -8    0.02    0.24 
  -2   4  -8    0.00    0.11 
   2   4   8   -0.07    0.10 
  -2   4  -8   -0.09    0.16 
  -3  -4  -8    0.72    0.31 
  -3  -4  -8    0.53    0.27 
   3  -4   8    0.60    0.14 
  -3   4  -8    0.64    0.17 
  -3   4  -8    0.55    0.19 
   3   4   8    0.98    0.16 
  -4  -4  -8    0.05    0.26 
  -4  -4  -8    0.05    0.27 
   4  -4   8   -0.02    0.11 
   4   4   8    0.15    0.13 
  -4   4  -8    0.21    0.15 
  -4   4  -8    0.21    0.17 
  -5  -4  -8   -0.10    0.27 
   5  -4   8    0.11    0.12 
  -5  -4  -8    0.03    0.26 
  -5   4  -8    0.16    0.18 
   5   4   8   -0.04    0.11 
  -6  -4  -8    0.33    0.29 
   6  -4   8    0.27    0.17 
   6   4   8    0.34    0.15 
  -6   4  -8    0.12    0.22 
  -7  -4  -8   14.04    1.08 
   7  -4   8   14.32    0.78 
  -7   4  -8   14.30    1.03 
   7   4   8   13.52    0.77 
   8  -4   8    0.75    0.21 
  -8  -4  -8    0.78    0.32 
  -8   4  -8    0.70    0.32 
   8   4   8    0.29    0.19 
   9  -5  -8    1.62    0.26 
  -9  -5   8    1.27    0.36 
   9   5  -8    1.93    0.24 
  -9   5   8    1.63    0.34 
   8  -5  -8    4.83    0.41 
  -8  -5   8    4.25    0.57 
   8   5  -8    4.96    0.39 
  -8   5   8    4.93    0.52 
  -7  -5   8    2.15    0.42 
  -7   5   8    3.02    0.32 
  -7   5   8    2.85    0.39 
   7   5  -8    3.48    0.30 
   7   5  -8    3.57    0.41 
  -6  -5   8    0.57    0.27 
   6  -5  -8    0.36    0.25 
  -6   5   8    0.72    0.19 
   6   5  -8    0.65    0.22 
  -6   5   8    0.33    0.20 
  -5  -5   8    0.07    0.13 
   5  -5  -8   -0.07    0.23 
  -5  -5   8    0.12    0.22 
   5   5  -8    0.08    0.20 
  -5   5   8    0.16    0.15 
  -5   5   8    0.18    0.16 
   4  -5  -8    4.40    0.52 
  -4  -5   8    4.09    0.42 
  -4  -5   8    3.87    0.29 
  -4   5   8    3.53    0.32 
  -4   5   8    3.66    0.33 
   4   5  -8    4.36    0.49 
  -3  -5   8   23.19    1.16 
   3  -5  -8   25.45    1.54 
   3  -5  -8   24.21    1.42 
  -3  -5   8   23.95    1.46 
  -3   5   8   23.30    1.19 
   3   5  -8   23.16    1.52 
  -2  -5   8    7.80    0.56 
  -2  -5   8    7.73    0.43 
   2  -5  -8    8.41    0.53 
  -2   5   8    8.17    0.46 
  -2   5   8    7.23    0.62 
   2   5  -8    7.52    0.66 
  -1  -5   8   20.68    1.29 
  -1  -5   8   21.77    1.03 
   1  -5  -8   21.34    1.27 
  -1   5   8   21.86    1.05 
  -1   5   8   21.74    1.36 
   1   5  -8   18.94    1.36 
   0  -5   8   33.76    1.58 
   0  -5  -8   33.95    1.97 
   0  -5   8   32.50    1.97 
   0   5   8   34.18    2.03 
   0   5  -8   32.62    2.02 
   0   5   8   32.90    1.59 
   1  -5   8    1.28    0.14 
   1  -5   8    1.32    0.20 
  -1  -5  -8    1.33    0.24 
   1   5   8    1.05    0.28 
   1   5   8    1.56    0.16 
  -1   5  -8    1.06    0.26 
   2  -5   8    3.33    0.24 
  -2  -5  -8    2.94    0.40 
  -2   5  -8    3.59    0.30 
   2   5   8    3.14    0.25 
  -2   5  -8    3.16    0.38 
   2   5   8    3.26    0.44 
  -3  -5  -8    3.35    0.47 
   3  -5   8    3.29    0.26 
  -3   5  -8    3.49    0.38 
   3   5   8    4.31    0.28 
  -3   5  -8    3.80    0.34 
  -4  -5  -8    7.75    0.79 
  -4  -5  -8    8.59    0.78 
   4  -5   8   10.20    0.53 
  -4   5  -8    9.79    0.65 
  -4   5  -8    9.77    0.67 
   4   5   8    9.27    0.53 
  -5  -5  -8    5.80    0.63 
  -5  -5  -8    4.72    0.61 
   5  -5   8    4.80    0.35 
  -5   5  -8    4.68    0.45 
   5   5   8    4.97    0.35 
   6  -5   8    4.49    0.35 
  -6  -5  -8    3.78    0.57 
   6   5   8    4.82    0.34 
  -6   5  -8    3.96    0.47 
   7  -5   8   -0.27    0.16 
  -7  -5  -8   -0.02    0.29 
   7   5   8   -0.03    0.14 
  -7   5  -8   -0.05    0.22 
   8  -5   8    0.11    0.19 
  -8  -5  -8    0.92    0.32 
  -8   5  -8    0.57    0.30 
   8   5   8    0.15    0.17 
   9  -6  -8    0.16    0.17 
  -9  -6   8   -0.09    0.24 
   9   6  -8    0.19    0.15 
  -9   6   8    0.20    0.23 
  -8  -6   8    0.70    0.30 
   8  -6  -8    1.60    0.24 
  -8   6   8    1.74    0.32 
   8   6  -8    1.40    0.21 
   7  -6  -8    0.87    0.22 
  -7  -6   8    0.31    0.28 
   7   6  -8    0.89    0.18 
   7   6  -8    0.79    0.22 
  -7   6   8    0.86    0.25 
   6  -6  -8    1.50    0.33 
  -6  -6   8    0.92    0.30 
  -6   6   8    1.30    0.25 
  -6   6   8    1.31    0.22 
   6   6  -8    1.70    0.21 
   6   6  -8    1.78    0.29 
  -5  -6   8   27.99    1.80 
   5  -6  -8   29.26    1.80 
  -5  -6   8   29.89    1.41 
   5   6  -8   28.33    1.75 
  -5   6   8   27.96    1.43 
  -5   6   8   28.51    1.72 
  -4  -6   8    4.71    0.45 
  -4  -6   8    4.36    0.32 
   4  -6  -8    4.65    0.53 
  -4   6   8    4.58    0.36 
  -4   6   8    4.52    0.35 
   4   6  -8    4.63    0.52 
   3  -6  -8    5.08    0.39 
  -3  -6   8    4.57    0.44 
  -3  -6   8    5.10    0.32 
  -3   6   8    5.10    0.35 
  -3   6   8    5.15    0.48 
   3   6  -8    4.86    0.54 
   2  -6  -8    4.83    0.38 
  -2  -6   8    4.35    0.29 
  -2  -6   8    4.55    0.41 
  -2   6   8    5.24    0.33 
   2   6  -8    4.33    0.51 
  -2   6   8    5.13    0.52 
   1  -6  -8    3.29    0.32 
  -1  -6   8    3.18    0.33 
  -1  -6   8    3.51    0.23 
   1   6  -8    2.75    0.40 
  -1   6   8    3.47    0.25 
  -1   6   8    2.92    0.40 
   0  -6   8    5.56    0.32 
   0  -6  -8    5.97    0.45 
   0  -6   8    5.77    0.44 
   0   6  -8    5.07    0.55 
   0   6   8    6.17    0.35 
   0   6   8    5.40    0.52 
   1  -6   8   13.43    0.65 
  -1  -6  -8   13.42    0.87 
   1  -6   8   12.02    0.83 
   1   6   8   12.03    0.90 
  -1   6  -8   13.78    0.89 
   1   6   8   12.71    0.66 
   2  -6   8    3.52    0.34 
   2  -6   8    2.84    0.22 
  -2  -6  -8    3.42    0.41 
   2   6   8    2.51    0.23 
   2   6   8    3.93    0.46 
  -2   6  -8    2.40    0.34 
   3  -6   8    3.28    0.25 
  -3  -6  -8    3.37    0.47 
   3   6   8    3.61    0.47 
  -3   6  -8    3.52    0.34 
  -3   6  -8    3.50    0.38 
   3   6   8    3.73    0.27 
  -4  -6  -8    6.40    0.72 
   4  -6   8    6.50    0.41 
  -4   6  -8    7.61    0.54 
   4   6   8    6.12    0.61 
  -4   6  -8    7.50    0.54 
   4   6   8    7.13    0.42 
  -5  -6  -8    6.44    0.65 
   5  -6   8    5.35    0.37 
  -5  -6  -8    4.87    0.63 
  -5   6  -8    5.85    0.49 
   5   6   8    5.40    0.37 
  -6  -6  -8    0.03    0.29 
   6  -6   8   -0.05    0.14 
   6   6   8    0.32    0.16 
  -6   6  -8    0.12    0.21 
   7  -6   8   -0.06    0.15 
  -7  -6  -8    0.38    0.29 
   7   6   8   -0.01    0.14 
  -7   6  -8   -0.10    0.22 
   8  -6   8   -0.04    0.15 
  -8  -6  -8    0.19    0.27 
   8   6   8    0.32    0.17 
  -8   6  -8    0.39    0.28 
  -8  -7   8    3.76    0.54 
   8  -7  -8    4.53    0.39 
  -8   7   8    5.48    0.52 
   7  -7  -8    0.02    0.16 
  -7  -7   8   -0.33    0.23 
   7   7  -8    0.57    0.22 
  -7   7   8    0.57    0.23 
  -6  -7   8    9.09    0.82 
   6  -7  -8   11.04    0.81 
  -6   7   8   11.36    0.74 
   6   7  -8    9.71    0.75 
  -6   7   8   10.52    0.62 
   5  -7  -8    0.37    0.24 
  -5  -7   8   -0.03    0.21 
  -5   7   8    0.07    0.15 
   5   7  -8   -0.23    0.19 
  -5   7   8    0.03    0.14 
   4  -7  -8    6.45    0.50 
  -4  -7   8    6.70    0.54 
  -4   7   8    6.16    0.42 
   4   7  -8    6.41    0.60 
  -4   7   8    5.82    0.54 
   3  -7  -8    2.10    0.25 
  -3  -7   8    1.33    0.26 
  -3   7   8    1.69    0.21 
  -3   7   8    1.78    0.34 
   3   7  -8    1.80    0.37 
  -2  -7   8    2.37    0.30 
  -2  -7   8    2.18    0.19 
   2  -7  -8    2.34    0.26 
   2   7  -8    2.03    0.36 
  -2   7   8    2.46    0.23 
  -2   7   8    1.43    0.31 
  -1  -7   8    1.49    0.24 
  -1  -7   8    1.55    0.15 
   1  -7  -8    2.21    0.26 
  -1   7   8    1.23    0.29 
  -1   7   8    1.61    0.18 
   1   7  -8    1.38    0.30 
   0  -7  -8    0.25    0.16 
   0  -7   8    0.17    0.14 
   0  -7   8    0.24    0.09 
   0   7  -8    0.27    0.21 
   0   7   8    0.10    0.20 
   0   7   8    0.42    0.12 
  -1  -7  -8    6.28    0.53 
   1  -7   8    6.15    0.50 
   1  -7   8    6.63    0.36 
  -1   7  -8    7.01    0.56 
   1   7   8    6.60    0.39 
   1   7   8    6.91    0.58 
   2  -7   8   31.33    1.89 
  -2  -7  -8   32.00    1.94 
   2  -7   8   30.96    1.49 
   2   7   8   31.68    1.93 
  -2   7  -8   31.61    1.88 
   2   7   8   30.61    1.50 
   3  -7   8    3.30    0.24 
  -3  -7  -8    4.20    0.49 
   3   7   8    2.78    0.41 
  -3   7  -8    3.43    0.35 
   3   7   8    3.58    0.26 
  -3   7  -8    2.93    0.35 
   4  -7   8    8.11    0.45 
  -4  -7  -8    7.34    0.77 
  -4   7  -8    8.10    0.59 
   4   7   8    7.95    0.46 
  -4   7  -8    7.39    0.59 
   4   7   8    8.12    0.69 
   5  -7   8    0.95    0.17 
  -5  -7  -8    0.61    0.31 
   5   7   8    1.13    0.18 
  -5   7  -8    1.32    0.26 
  -6  -7  -8    0.60    0.32 
   6  -7   8    0.76    0.18 
   6   7   8    1.15    0.19 
  -6   7  -8    0.44    0.22 
   7  -7   8   -0.09    0.15 
  -7  -7  -8    0.17    0.29 
  -7   7  -8   -0.14    0.21 
   7   7   8    0.04    0.15 
   8  -8  -8    3.86    0.35 
  -8  -8   8    3.52    0.53 
  -8   8   8    4.75    0.49 
   7  -8  -8    0.93    0.20 
  -7  -8   8    0.12    0.27 
  -7   8   8    0.56    0.23 
   7   8  -8    0.46    0.23 
   6  -8  -8   -0.28    0.23 
  -6  -8   8    0.03    0.25 
   6   8  -8    0.20    0.21 
  -6   8   8    0.30    0.20 
   5  -8  -8    7.50    0.57 
  -5  -8   8    7.35    0.64 
  -5   8   8    6.76    0.47 
   5   8  -8    6.99    0.60 
  -4  -8   8    1.14    0.27 
   4  -8  -8    0.66    0.20 
  -4   8   8    0.57    0.26 
  -4   8   8    1.01    0.19 
   4   8  -8    1.41    0.33 
  -3  -8   8    1.95    0.31 
   3  -8  -8    2.13    0.28 
  -3   8   8    2.81    0.39 
  -3   8   8    2.48    0.25 
   3   8  -8    1.93    0.36 
  -2  -8   8   32.38    1.95 
   2  -8  -8   31.59    1.92 
   2   8  -8   31.65    1.97 
  -2   8   8   33.77    1.56 
  -2   8   8   30.32    1.95 
   1  -8  -8    3.22    0.34 
  -1  -8   8    2.60    0.33 
  -1   8   8    3.12    0.43 
  -1   8   8    2.73    0.24 
   1   8  -8    3.10    0.42 
   0  -8  -8    1.94    0.28 
   0  -8   8    1.66    0.25 
   0   8   8    1.87    0.19 
   0   8  -8    1.94    0.33 
   0   8   8    1.70    0.33 
   1  -8   8    4.86    0.45 
  -1  -8  -8    5.08    0.48 
  -1   8  -8    5.44    0.49 
   1   8   8    5.64    0.33 
   1   8   8    5.28    0.57 
  -2  -8  -8    2.12    0.34 
   2  -8   8    1.98    0.30 
   2   8   8    2.41    0.21 
  -2   8  -8    1.97    0.32 
   2   8   8    2.70    0.41 
  -3  -8  -8    0.46    0.28 
   3  -8   8    1.15    0.24 
  -3   8  -8    0.51    0.22 
   3   8   8    1.04    0.15 
   3   8   8    0.65    0.26 
  -4  -8  -8    4.98    0.64 
   4   8   8    6.55    0.61 
   4   8   8    5.46    0.37 
  -4   8  -8    6.42    0.50 
  -4   8  -8    6.58    0.51 
  -5  -8  -8    0.68    0.33 
   5   8   8    1.42    0.19 
  -5   8  -8    1.05    0.25 
   5   8   8    1.62    0.34 
  -6  -8  -8    2.16    0.45 
  -6   8  -8    2.81    0.37 
  -7  -8  -8    0.55    0.31 
  -7   8  -8    0.53    0.26 
  -7  -9   8   -0.09    0.26 
   7  -9  -8    0.03    0.15 
  -7   9   8    0.13    0.22 
   6  -9  -8    0.85    0.19 
   6  -9  -8    1.19    0.34 
   6  -9  -8    0.84    0.24 
  -6  -9   8    0.52    0.29 
   6   9  -8    1.11    0.28 
   5  -9  -8    0.46    0.22 
  -5  -9   8    0.35    0.24 
  -5   9   8    0.34    0.18 
   5   9  -8    0.16    0.21 
  -5   9   8    0.40    0.23 
   4  -9  -8    4.84    0.43 
  -4  -9   8    4.13    0.47 
   4   9  -8    3.16    0.46 
  -4   9   8    4.77    0.36 
  -4   9   8    3.59    0.47 
   3  -9  -8    0.30    0.17 
  -3  -9   8    0.17    0.19 
  -3   9   8    0.23    0.23 
  -3   9   8    0.41    0.15 
   3   9  -8    0.25    0.24 
   2  -9  -8    0.46    0.19 
  -2  -9   8    0.63    0.22 
   2   9  -8    0.14    0.23 
  -2   9   8    0.35    0.25 
  -2   9   8    0.34    0.14 
  -1  -9   8   11.97    0.84 
   1  -9  -8   12.64    0.84 
   1   9  -8   12.26    0.90 
  -1   9   8   12.33    0.90 
   0  -9  -8   10.33    0.73 
   0  -9   8    9.35    0.71 
   0   9   8   11.28    0.80 
   0   9  -8   10.17    0.77 
  -1  -9  -8    4.52    0.48 
   1  -9   8    4.33    0.43 
   1   9   8    4.63    0.53 
  -1   9  -8    6.05    0.51 
   2  -9   8    0.20    0.17 
  -2  -9  -8   -0.14    0.20 
  -2   9  -8    0.21    0.21 
   2   9   8    0.08    0.21 
   3  -9   8    0.30    0.20 
  -3  -9  -8    0.39    0.26 
   3   9   8    0.32    0.26 
  -3   9  -8    0.15    0.19 
  -4  -9  -8    0.56    0.30 
   4  -9   8    0.53    0.22 
   4   9   8    0.48    0.27 
  -4   9  -8    0.33    0.19 
  -5  -9  -8    2.92    0.50 
   5   9   8    4.43    0.52 
  -6  -9  -8    1.27    0.37 
  -6   9  -8    1.58    0.30 
  -7 -10   8    0.33    0.30 
  -6 -10   8    0.97    0.32 
   6  10  -8    1.97    0.34 
  -5 -10   8    0.89    0.31 
   5 -10  -8    0.93    0.25 
  -5  10   8    0.54    0.27 
   5  10  -8    0.84    0.29 
   4 -10  -8    9.12    0.68 
  -4 -10   8    8.98    0.74 
   4  10  -8    9.45    0.75 
  -4  10   8    9.57    0.75 
   3 -10  -8    3.55    0.38 
  -3 -10   8    3.01    0.40 
  -3  10   8    3.17    0.42 
   3  10  -8    2.43    0.42 
  -2 -10   8    1.67    0.30 
   2 -10  -8    1.60    0.28 
   2  10  -8    1.98    0.36 
  -2  10   8    1.77    0.34 
  -1 -10   8    0.94    0.24 
   1 -10  -8    1.44    0.27 
   1  10  -8    1.00    0.31 
  -1  10   8    1.42    0.34 
   0 -10   8    4.21    0.44 
   0 -10  -8    4.58    0.46 
   0  10  -8    4.35    0.51 
   0  10   8    4.38    0.53 
  -1 -10  -8    5.96    0.54 
   1 -10   8    5.84    0.49 
   1  10   8    4.72    0.56 
  -1  10  -8    5.24    0.50 
  -2 -10  -8    0.03    0.22 
   2 -10   8    0.21    0.19 
  -2  10  -8    0.47    0.22 
   2  10   8    0.17    0.26 
   3 -10   8    0.24    0.21 
  -3 -10  -8    0.42    0.28 
  -3  10  -8    0.36    0.21 
   3  10   8    0.27    0.28 
   4 -10   8    3.33    0.39 
  -4 -10  -8    2.55    0.46 
  -4  10  -8    2.89    0.35 
   4  10   8    2.19    0.41 
   5 -10   8    0.49    0.23 
  -5 -10  -8    0.06    0.30 
   5  10   8    0.84    0.32 
  -6 -11   8   -0.12    0.26 
   6  11  -8    0.03    0.22 
  -5 -11   8    0.40    0.29 
  -5  11   8    0.71    0.27 
   5  11  -8    0.50    0.27 
   4 -11  -8    0.17    0.19 
  -4 -11   8   -0.04    0.21 
   4  11  -8   -0.01    0.25 
  -4  11   8    0.03    0.19 
   3 -11  -8    3.81    0.40 
  -3 -11   8    3.70    0.43 
   3  11  -8    2.84    0.47 
  -3  11   8    2.88    0.42 
  -2 -11   8   -0.10    0.19 
   2 -11  -8   -0.16    0.17 
  -2  11   8   -0.13    0.23 
   2  11  -8   -0.16    0.22 
   1 -11  -8    0.27    0.22 
  -1 -11   8    0.23    0.20 
   1  11  -8    0.23    0.27 
  -1  11   8   -0.08    0.22 
   0 -11   8    0.06    0.18 
   0 -11  -8   -0.11    0.21 
   0  11  -8    0.18    0.25 
   0  11   8   -0.14    0.21 
   1 -11   8    4.28    0.45 
  -1 -11  -8    5.10    0.51 
  -1  11  -8    3.30    0.43 
   1  11   8    3.73    0.48 
   2 -11   8    0.39    0.22 
  -2 -11  -8    0.56    0.28 
  -2  11  -8    0.09    0.21 
   2  11   8    0.61    0.28 
  -3 -11  -8   10.27    0.88 
   3 -11   8   12.04    0.83 
  -3  11  -8   11.40    0.80 
   3  11   8   11.05    0.90 
  -4 -11  -8   -0.27    0.26 
   4 -11   8    0.16    0.20 
   4  11   8    0.08    0.25 
  -4  11  -8   -0.26    0.17 
  -4 -12   8    3.62    0.45 
  -4  12   8    3.31    0.44 
   4  12  -8    2.47    0.43 
  -3 -12   8    1.61    0.32 
  -3  12   8    1.28    0.32 
   3  12  -8    1.29    0.34 
   2 -12  -8    0.75    0.24 
  -2 -12   8    0.21    0.22 
  -2  12   8    0.72    0.29 
   2  12  -8    0.75    0.32 
  -1 -12   8    1.01    0.27 
   1 -12  -8    1.31    0.29 
  -1  12   8    0.86    0.30 
   1  12  -8    0.93    0.32 
   0 -12  -8    1.83    0.33 
   0 -12   8    2.05    0.32 
   0  12   8    2.05    0.38 
   0  12  -8    1.66    0.35 
  -1 -12  -8    1.26    0.31 
   1 -12   8    1.69    0.31 
   1  12   8    1.37    0.36 
  -1  12  -8    1.33    0.31 
   2 -12   8    0.33    0.21 
  -2 -12  -8    0.04    0.26 
  -2  12  -8    0.20    0.23 
   2  12   8    0.16    0.25 
   3 -12   8    0.86    0.26 
  -3 -12  -8    0.47    0.30 
  -3  12  -8   -0.01    0.21 
   3  12   8    0.80    0.33 
  -2 -13   8    0.61    0.25 
  -2  13   8    0.63    0.28 
   2  13  -8    0.80    0.31 
  -1 -13   8    2.97    0.41 
   1  13  -8    4.50    0.52 
  -1  13   8    3.48    0.48 
   0 -13   8    2.74    0.39 
   0  13   8    3.13    0.46 
   0  13  -8    3.19    0.45 
   1 -13   8    0.95    0.27 
  -1  13  -8    0.84    0.29 
   1  13   8    0.82    0.31 
  10   0  -9   -0.11    0.18 
 -10   0   9   -0.13    0.19 
   9   0  -9    0.11    0.20 
  -9   0   9    0.76    0.24 
  -8   0   9    0.31    0.20 
   8   0  -9    0.29    0.21 
  -7   0   9    1.79    0.24 
  -7   0   9    1.18    0.27 
  -6   0   9   -0.02    0.16 
  -6   0   9   -0.10    0.17 
   6   0  -9   -0.03    0.19 
   5   0  -9    3.05    0.43 
  -5   0   9    3.69    0.33 
  -5   0   9    4.16    0.41 
  -4   0   9    0.04    0.13 
   4   0  -9   -0.39    0.27 
  -4   0   9    0.31    0.15 
  -3   0   9   63.44    3.66 
   3   0  -9   67.82    3.79 
  -3   0   9   61.54    3.01 
  -2   0   9   -0.03    0.11 
   2   0  -9    0.15    0.31 
  -1   0   9    3.57    0.26 
   1   0  -9    4.48    0.65 
   0   0   9    0.04    0.09 
   0   0  -9   -0.17    0.35 
   1   0   9    0.26    0.12 
  -1   0  -9    0.01    0.43 
  -1   0  -9    0.30    0.08 
  -2   0  -9    0.05    0.09 
   2   0   9   -0.01    0.10 
  -2   0  -9    0.63    0.42 
   3   0   9   99.26    4.83 
  -3   0  -9  108.57    5.97 
  -3   0  -9  104.72    5.96 
   4   0   9   -0.13    0.11 
  -4   0  -9   -0.37    0.22 
  -4   0  -9   -0.07    0.16 
  -5   0  -9    0.72    0.25 
   5   0   9    0.67    0.16 
  -6   0  -9    0.04    0.24 
   6   0   9   -0.28    0.13 
  -7   0  -9    5.63    0.62 
   7   0   9    5.57    0.42 
   8   0   9   -0.13    0.15 
  -8   0  -9   -0.04    0.27 
 -10  -1   9    2.35    0.35 
  10  -1  -9    1.67    0.28 
  10   1  -9    1.49    0.26 
 -10   1   9    1.67    0.31 
   9  -1  -9   -0.03    0.17 
  -9  -1   9    0.03    0.20 
  -9   1   9    0.09    0.20 
   9   1  -9    0.37    0.20 
   8  -1  -9    1.25    0.24 
  -8  -1   9    1.50    0.29 
  -8   1   9    1.31    0.28 
   8   1  -9    0.77    0.21 
  -7  -1   9   10.29    0.65 
  -7  -1   9   11.77    0.82 
  -7   1   9   10.43    0.65 
  -7   1   9   11.78    0.81 
   6  -1  -9   12.70    0.89 
  -6  -1   9   12.75    0.88 
  -6  -1   9   12.37    0.71 
   6   1  -9   12.30    0.87 
  -6   1   9   13.14    0.87 
  -6   1   9   12.29    0.71 
   5  -1  -9    2.48    0.39 
  -5  -1   9    1.95    0.24 
  -5  -1   9    2.23    0.32 
   5   1  -9    2.06    0.35 
  -5   1   9    1.71    0.23 
  -5   1   9    2.33    0.29 
  -4  -1   9   40.47    1.97 
  -4  -1   9   42.84    2.44 
   4  -1  -9   40.41    2.50 
  -4   1   9   39.33    1.98 
  -4   1   9   40.42    2.39 
   4   1  -9   42.28    2.47 
   3  -1  -9   -0.10    0.28 
  -3  -1   9    0.07    0.14 
  -3  -1   9   -0.09    0.10 
  -3   1   9   -0.06    0.11 
   3   1  -9    0.42    0.33 
  -3   1   9    0.11    0.07 
  -2  -1   9    3.69    0.27 
  -2  -1   9    3.67    0.29 
   2  -1  -9    3.05    0.54 
   2   1  -9    4.88    0.61 
  -2   1   9    3.76    0.27 
   1  -1  -9   22.76    1.69 
  -1  -1   9   25.37    1.21 
  -1   1   9   24.00    1.21 
   1   1  -9   28.01    1.74 
   0  -1   9    0.05    0.11 
   0  -1   9    0.29    0.07 
   0  -1  -9    0.16    0.37 
   0   1   9    0.19    0.11 
   0   1  -9   -0.13    0.34 
  -1  -1  -9   11.91    1.20 
   1  -1   9   11.80    0.63 
  -1  -1  -9   12.04    0.71 
  -1   1  -9   12.42    0.72 
   1   1   9   11.67    0.63 
  -1   1  -9   11.41    1.05 
  -2  -1  -9    1.36    0.18 
   2  -1   9    0.96    0.15 
  -2  -1  -9    1.14    0.46 
  -2   1  -9    0.95    0.38 
   2   1   9    0.77    0.15 
  -2   1  -9    1.01    0.16 
  -3  -1  -9    9.07    0.64 
   3  -1   9    8.88    0.50 
  -3  -1  -9    9.37    0.94 
   3   1   9    8.85    0.50 
  -3   1  -9    9.82    0.75 
  -3   1  -9    8.32    0.60 
  -4  -1  -9   11.02    0.87 
  -4  -1  -9    9.86    0.74 
   4  -1   9    9.91    0.57 
   4   1   9    9.78    0.57 
  -4   1  -9    9.62    0.72 
  -4   1  -9   10.38    0.71 
  -5  -1  -9    5.43    0.55 
   5  -1   9    5.07    0.36 
  -5   1  -9    4.99    0.48 
   5   1   9    5.09    0.37 
  -6  -1  -9    5.02    0.59 
   6  -1   9    6.56    0.42 
   6   1   9    5.89    0.40 
  -6   1  -9    4.88    0.55 
  -7  -1  -9    1.92    0.39 
   7  -1   9    1.27    0.23 
  -7   1  -9    1.36    0.34 
   7   1   9    1.15    0.21 
   8  -1   9    0.51    0.18 
  -8  -1  -9    0.86    0.32 
  -8   1  -9    0.42    0.30 
   8   1   9    0.52    0.21 
  10  -2  -9    1.76    0.29 
 -10  -2   9    2.09    0.34 
  10   2  -9    1.48    0.25 
  -9  -2   9    5.38    0.55 
   9  -2  -9    6.47    0.47 
  -9   2   9    6.54    0.55 
   9   2  -9    5.65    0.46 
  -8  -2   9    2.13    0.35 
   8  -2  -9    2.30    0.30 
  -8   2   9    2.75    0.37 
   8   2  -9    1.90    0.29 
  -7  -2   9    0.46    0.18 
  -7  -2   9    0.12    0.22 
  -7   2   9    0.42    0.21 
  -7   2   9    0.55    0.19 
   6  -2  -9    7.02    0.65 
  -6  -2   9    7.46    0.48 
  -6  -2   9    7.01    0.60 
   6   2  -9    7.35    0.59 
  -6   2   9    7.70    0.58 
  -6   2   9    7.11    0.48 
  -5  -2   9    7.62    0.48 
   5  -2  -9    7.64    0.69 
  -5  -2   9    7.11    0.61 
  -5   2   9    7.94    0.56 
  -5   2   9    7.53    0.49 
   5   2  -9    7.28    0.63 
  -4  -2   9   -0.03    0.13 
   4  -2  -9   -0.15    0.23 
  -4  -2   9    0.15    0.17 
  -4   2   9    0.13    0.11 
   4   2  -9   -0.16    0.25 
  -4   2   9    0.18    0.16 
  -3  -2   9    0.36    0.16 
  -3  -2   9    0.27    0.12 
   3  -2  -9    0.40    0.31 
  -3   2   9    0.30    0.08 
   3   2  -9    0.28    0.29 
  -3   2   9    0.20    0.14 
  -2  -2   9    0.06    0.11 
   2  -2  -9   -0.13    0.28 
  -2  -2   9    0.03    0.10 
   2   2  -9    0.08    0.31 
  -2   2   9   -0.01    0.10 
  -1  -2   9   24.73    1.18 
   1  -2  -9   23.70    1.64 
  -1  -2   9   25.11    1.42 
  -1   2   9   24.47    1.19 
   1   2  -9   21.47    1.63 
   0  -2   9   38.23    1.79 
   0  -2   9   42.19    2.17 
   0  -2  -9   35.68    2.38 
   0   2   9   36.36    1.79 
   0   2  -9   31.61    2.36 
  -1  -2  -9   31.65    2.27 
  -1  -2  -9   36.95    2.06 
   1  -2   9   35.43    1.69 
   1   2   9   34.58    1.69 
  -1   2  -9   35.60    2.24 
  -1   2  -9   36.63    2.05 
  -2  -2  -9    2.94    0.30 
  -2  -2  -9    1.89    0.52 
   2  -2   9    2.28    0.21 
  -2   2  -9    2.70    0.41 
   2   2   9    2.19    0.22 
  -2   2  -9    2.33    0.23 
  -3  -2  -9   -0.23    0.31 
   3  -2   9    0.11    0.11 
  -3  -2  -9    0.06    0.17 
  -3   2  -9    0.00    0.12 
   3   2   9    0.15    0.12 
  -3   2  -9    0.20    0.22 
  -4  -2  -9    1.26    0.40 
   4  -2   9    0.79    0.17 
  -4  -2  -9    1.00    0.28 
  -4   2  -9    1.06    0.24 
  -4   2  -9    1.44    0.23 
   4   2   9    1.10    0.18 
   5  -2   9    0.24    0.16 
  -5  -2  -9    0.41    0.25 
  -5  -2  -9    0.72    0.33 
   5   2   9    0.31    0.13 
  -5   2  -9    0.22    0.18 
  -6  -2  -9    3.91    0.53 
   6  -2   9    5.68    0.37 
  -6   2  -9    4.76    0.51 
   6   2   9    4.70    0.37 
  -7  -2  -9    0.57    0.30 
   7  -2   9    0.66    0.20 
  -7   2  -9    0.58    0.27 
   7   2   9    0.70    0.19 
   8  -2   9    0.19    0.17 
  -8  -2  -9    0.24    0.29 
  -8   2  -9    0.11    0.27 
   8   2   9   -0.09    0.18 
  -9  -3   9    0.79    0.27 
   9  -3  -9    0.33    0.21 
   9   3  -9    0.70    0.21 
  -9   3   9    0.68    0.24 
   8  -3  -9    7.48    0.52 
  -8  -3   9    6.43    0.62 
   8   3  -9    7.25    0.49 
  -8   3   9    6.52    0.59 
  -7  -3   9    1.41    0.32 
  -7  -3   9    1.43    0.22 
  -7   3   9    1.40    0.23 
   7   3  -9    1.80    0.27 
  -7   3   9    2.74    0.34 
   6  -3  -9   10.35    0.82 
  -6  -3   9    9.73    0.61 
  -6  -3   9   10.12    0.80 
   6   3  -9   10.88    0.75 
  -6   3   9   11.29    0.64 
  -6   3   9   10.30    0.73 
  -5  -3   9   21.61    1.07 
   5  -3  -9   18.95    1.38 
  -5  -3   9   16.58    1.32 
  -5   3   9   21.85    1.27 
  -5   3   9   21.57    1.08 
   5   3  -9   23.55    1.35 
  -4  -3   9    7.21    0.42 
  -4  -3   9    6.08    0.54 
   4  -3  -9    5.28    0.64 
  -4   3   9    6.01    0.42 
   4   3  -9    6.98    0.60 
  -4   3   9    6.85    0.44 
  -3  -3   9   14.78    0.92 
  -3  -3   9   14.57    0.74 
   3  -3  -9   12.98    1.06 
  -3   3   9   14.37    0.76 
  -3   3   9   13.96    0.84 
   3   3  -9   13.72    1.03 
   2  -3  -9   22.05    1.51 
   2  -3  -9   22.74    1.29 
  -2  -3   9   21.68    1.10 
  -2  -3   9   23.52    1.34 
  -2   3   9   22.89    1.12 
   2   3  -9   19.58    1.50 
  -1  -3   9    0.08    0.10 
   1  -3  -9   -0.27    0.24 
  -1  -3   9    0.18    0.11 
   1   3  -9   -0.15    0.30 
  -1   3   9    0.02    0.10 
   0  -3   9    8.25    0.52 
   0  -3   9    8.95    0.44 
   0  -3  -9    7.01    0.51 
   0  -3  -9    7.97    0.75 
   0   3   9    7.25    0.44 
   0   3  -9    9.56    0.80 
   1  -3   9    0.02    0.10 
  -1  -3  -9    0.21    0.16 
   1  -3   9    0.28    0.11 
  -1  -3  -9    0.32    0.31 
  -1   3  -9    0.14    0.25 
   1   3   9    0.27    0.11 
  -2  -3  -9   28.18    1.90 
   2  -3   9   28.59    1.39 
  -2  -3  -9   27.07    1.77 
  -2   3  -9   31.81    1.80 
   2   3   9   28.28    1.40 
  -2   3  -9   29.52    1.70 
  -3  -3  -9    1.39    0.30 
   3  -3   9    0.83    0.14 
  -3  -3  -9    0.51    0.35 
  -3   3  -9    0.54    0.22 
  -3   3  -9    0.94    0.18 
   3   3   9    0.89    0.15 
  -4  -3  -9    0.22    0.32 
  -4  -3  -9   -0.14    0.22 
   4  -3   9    0.29    0.13 
  -4   3  -9    0.11    0.15 
   4   3   9    0.20    0.12 
  -4   3  -9    0.49    0.18 
  -5  -3  -9    8.78    0.78 
   5  -3   9    8.17    0.50 
  -5  -3  -9    8.74    0.73 
  -5   3  -9    7.87    0.62 
   5   3   9    7.60    0.49 
  -6  -3  -9    0.80    0.32 
   6  -3   9    1.56    0.22 
  -6   3  -9    1.31    0.29 
   6   3   9    1.12    0.20 
   7  -3   9    1.35    0.23 
  -7  -3  -9    1.27    0.36 
  -7   3  -9    1.85    0.36 
   7   3   9    1.21    0.21 
  -8  -3  -9    4.13    0.55 
   8  -3   9    5.17    0.41 
  -8   3  -9    4.11    0.54 
   8   3   9    4.55    0.39 
  -9  -4   9    1.08    0.31 
   9  -4  -9    1.13    0.25 
   9   4  -9    1.34    0.22 
  -8  -4   9   -0.04    0.23 
   8  -4  -9    0.25    0.18 
  -8   4   9    0.48    0.23 
   8   4  -9    0.55    0.19 
  -7  -4   9    0.10    0.23 
  -7   4   9    0.25    0.21 
  -7   4   9    0.27    0.18 
   7   4  -9    0.13    0.18 
   7   4  -9    0.44    0.17 
  -6  -4   9    5.99    0.62 
  -6  -4   9    8.15    0.47 
   6  -4  -9    7.15    0.71 
   6   4  -9    7.12    0.57 
  -6   4   9    6.78    0.55 
  -6   4   9    7.58    0.48 
  -5  -4   9    0.08    0.21 
  -5  -4   9    0.36    0.16 
   5  -4  -9   -0.19    0.22 
   5   4  -9    0.34    0.23 
  -5   4   9    0.21    0.16 
  -5   4   9    0.24    0.14 
   4  -4  -9    2.47    0.41 
  -4  -4   9    2.43    0.24 
  -4  -4   9    2.60    0.34 
  -4   4   9    2.07    0.22 
  -4   4   9    2.23    0.25 
   4   4  -9    2.49    0.40 
  -3  -4   9    0.42    0.12 
   3  -4  -9    0.11    0.25 
  -3  -4   9    0.60    0.18 
   3  -4  -9    0.52    0.12 
   3   4  -9    0.77    0.30 
  -3   4   9    0.41    0.14 
   2  -4  -9   45.54    2.55 
  -2  -4   9   45.07    2.10 
   2  -4  -9   42.25    2.67 
  -2  -4   9   45.82    2.58 
   2   4  -9   40.96    2.67 
  -2   4   9   44.07    2.11 
   1  -4  -9    8.63    0.76 
  -1  -4   9    8.83    0.48 
   1  -4  -9    8.65    0.56 
  -1  -4   9    9.01    0.58 
  -1   4   9    8.82    0.49 
   1   4  -9    8.74    0.79 
   0  -4   9    1.00    0.16 
   0  -4  -9    0.77    0.32 
   0  -4  -9    0.71    0.19 
   0  -4   9    0.94    0.13 
   0   4   9    1.01    0.15 
   0   4  -9    0.58    0.29 
  -1  -4  -9    3.55    0.40 
  -1  -4  -9    4.51    0.56 
   1  -4   9    2.93    0.28 
   1  -4   9    2.94    0.23 
  -1   4  -9    3.48    0.44 
   1   4   9    2.94    0.23 
  -2  -4  -9   14.41    1.11 
   2  -4   9   15.31    0.75 
  -2   4  -9   15.37    1.00 
   2   4   9   14.18    0.75 
  -2   4  -9   14.22    0.90 
  -3  -4  -9    0.57    0.31 
   3  -4   9    0.39    0.12 
  -3  -4  -9    0.02    0.23 
  -3   4  -9    0.38    0.15 
  -3   4  -9    0.21    0.19 
   3   4   9    0.26    0.14 
  -4  -4  -9   18.70    1.34 
   4  -4   9   19.54    0.98 
  -4  -4  -9   18.80    1.38 
  -4   4  -9   20.32    1.20 
   4   4   9   18.79    0.99 
  -4   4  -9   19.97    1.22 
  -5  -4  -9    0.00    0.26 
   5  -4   9   -0.08    0.13 
  -5  -4  -9    0.17    0.28 
   5   4   9    0.05    0.15 
  -5   4  -9    0.12    0.18 
   6  -4   9    3.04    0.28 
  -6  -4  -9    2.85    0.47 
   6   4   9    2.35    0.27 
  -6   4  -9    3.52    0.41 
  -7  -4  -9    0.32    0.28 
   7  -4   9    0.09    0.15 
   7   4   9    0.06    0.16 
  -7   4  -9    0.47    0.25 
   8  -4   9    0.42    0.19 
  -8  -4  -9   -0.07    0.24 
   8   4   9    0.15    0.17 
  -8   4  -9    0.24    0.26 
  -9  -5   9    2.76    0.43 
   9  -5  -9    2.20    0.30 
   9   5  -9    2.11    0.26 
  -8  -5   9    0.71    0.30 
   8  -5  -9    0.68    0.20 
   8   5  -9    0.64    0.19 
  -8   5   9    0.86    0.25 
  -7  -5   9    2.03    0.40 
  -7   5   9    3.14    0.37 
   7   5  -9    2.85    0.35 
  -7   5   9    2.40    0.28 
   7   5  -9    2.95    0.28 
  -6  -5   9    0.21    0.15 
   6  -5  -9    0.65    0.26 
  -6  -5   9    0.11    0.22 
  -6   5   9    0.56    0.19 
   6   5  -9    0.75    0.22 
  -6   5   9    0.43    0.20 
  -5  -5   9   20.44    1.31 
   5  -5  -9   18.12    1.32 
  -5  -5   9   20.52    1.01 
  -5   5   9   19.41    1.03 
   5   5  -9   19.91    1.28 
  -5   5   9   19.69    1.21 
  -4  -5   9   14.43    0.72 
   4  -5  -9   13.88    1.00 
  -4  -5   9   12.41    0.91 
  -4   5   9   13.73    0.84 
  -4   5   9   13.94    0.75 
   4   5  -9   12.60    0.95 
   3  -5  -9    6.97    0.70 
  -3  -5   9    7.20    0.52 
   3  -5  -9    6.78    0.46 
  -3  -5   9    6.59    0.40 
   3   5  -9    6.15    0.68 
  -3   5   9    6.45    0.41 
   2  -5  -9    3.62    0.29 
  -2  -5   9    3.07    0.32 
   2  -5  -9    4.15    0.53 
  -2  -5   9    3.26    0.25 
  -2   5   9    3.55    0.26 
   2   5  -9    3.19    0.49 
  -1  -5   9    0.17    0.10 
   1  -5  -9    0.41    0.30 
   1  -5  -9    0.28    0.12 
  -1  -5   9    0.21    0.14 
   1   5  -9    0.43    0.26 
  -1   5   9    0.09    0.10 
   0  -5  -9    2.55    0.45 
   0  -5   9    2.84    0.28 
   0  -5   9    2.74    0.21 
   0  -5  -9    2.68    0.29 
   0   5  -9    2.85    0.41 
   0   5   9    2.56    0.22 
  -1  -5  -9    2.04    0.30 
  -1  -5  -9    1.12    0.33 
   1  -5   9    1.61    0.21 
   1  -5   9    1.58    0.16 
   1   5   9    1.65    0.18 
  -1   5  -9    1.78    0.31 
  -2  -5  -9    9.29    0.79 
  -2  -5  -9   10.54    0.86 
   2  -5   9    9.78    0.54 
  -2   5  -9   11.23    0.76 
   2   5   9   10.41    0.55 
  -2   5  -9   10.04    0.66 
  -3  -5  -9    1.59    0.35 
   3  -5   9    1.97    0.20 
  -3  -5  -9    1.72    0.39 
  -3   5  -9    2.30    0.31 
  -3   5  -9    2.30    0.26 
   3   5   9    1.87    0.20 
  -4  -5  -9    1.97    0.40 
   4  -5   9    1.98    0.22 
  -4  -5  -9    1.41    0.39 
  -4   5  -9    1.70    0.25 
   4   5   9    1.94    0.22 
  -4   5  -9    2.43    0.29 
  -5  -5  -9   14.72    1.10 
  -5  -5  -9   14.40    1.09 
   5  -5   9   14.42    0.76 
   5   5   9   13.87    0.76 
  -5   5  -9   14.21    0.95 
   6  -5   9    0.88    0.18 
  -6  -5  -9    1.18    0.36 
   6   5   9    0.93    0.18 
  -6   5  -9    1.02    0.25 
  -7  -5  -9    1.01    0.35 
   7  -5   9    1.42    0.22 
  -7   5  -9    1.38    0.31 
   7   5   9    1.32    0.22 
   8  -5   9    0.23    0.18 
   8   5   9    0.21    0.17 
  -8   5  -9    0.34    0.28 
   9  -6  -9    1.53    0.24 
  -9  -6   9    1.08    0.34 
   8  -6  -9    4.16    0.39 
  -8  -6   9    3.49    0.52 
   8   6  -9    4.93    0.35 
  -7  -6   9    0.47    0.27 
  -7   6   9    0.48    0.18 
  -7   6   9    0.49    0.21 
   7   6  -9    0.60    0.16 
   7   6  -9    0.17    0.20 
   6  -6  -9    0.94    0.30 
  -6  -6   9    0.93    0.31 
   6   6  -9    1.19    0.27 
   6   6  -9    1.05    0.18 
  -6   6   9    0.67    0.19 
  -6   6   9    0.91    0.21 
   5  -6  -9    4.63    0.57 
  -5  -6   9    5.40    0.36 
  -5  -6   9    4.97    0.52 
  -5   6   9    4.65    0.37 
  -5   6   9    4.96    0.40 
   5   6  -9    4.54    0.50 
   4  -6  -9    1.70    0.23 
  -4  -6   9    2.01    0.21 
  -4  -6   9    1.40    0.26 
   4  -6  -9    1.28    0.36 
   4   6  -9    1.26    0.30 
  -4   6   9    1.56    0.22 
  -3  -6   9    2.68    0.24 
   3  -6  -9    2.51    0.42 
  -3  -6   9    2.53    0.32 
   3  -6  -9    2.94    0.28 
   3   6  -9    2.70    0.41 
  -3   6   9    2.72    0.26 
   2  -6  -9    7.76    0.52 
  -2  -6   9    7.62    0.42 
  -2  -6   9    7.82    0.56 
  -2   6   9    7.48    0.63 
  -2   6   9    6.71    0.44 
   2   6  -9    7.62    0.67 
   1  -6  -9    0.91    0.18 
  -1  -6   9    1.17    0.21 
  -1  -6   9    1.00    0.14 
  -1   6   9    0.91    0.15 
  -1   6   9    1.49    0.30 
   1   6  -9    1.01    0.29 
   0  -6   9   32.08    1.50 
   0  -6   9   31.45    1.87 
   0  -6  -9   31.65    1.88 
   0   6   9   31.41    1.51 
   0   6   9   31.77    1.94 
   0   6  -9   30.07    1.93 
   1  -6   9    9.05    0.63 
  -1  -6  -9    8.93    0.67 
   1  -6   9    8.95    0.48 
   1   6   9    9.24    0.50 
   1   6   9   10.57    0.77 
  -1   6  -9    8.73    0.69 
   2  -6   9    5.36    0.33 
   2  -6   9    5.87    0.44 
  -2  -6  -9    5.74    0.55 
  -2   6  -9    5.47    0.50 
   2   6   9    5.09    0.57 
   2   6   9    5.30    0.34 
  -3  -6  -9    2.32    0.42 
   3  -6   9    2.51    0.23 
  -3  -6  -9    2.40    0.45 
  -3   6  -9    2.72    0.33 
  -3   6  -9    2.81    0.30 
   3   6   9    2.96    0.25 
  -4  -6  -9    0.28    0.27 
   4  -6   9    0.63    0.15 
  -4  -6  -9    0.54    0.32 
  -4   6  -9    0.61    0.19 
   4   6   9    0.59    0.15 
  -4   6  -9    0.99    0.22 
  -5  -6  -9    0.55    0.31 
   5  -6   9    0.24    0.14 
  -5  -6  -9    0.37    0.31 
  -5   6  -9    0.56    0.21 
   5   6   9    0.46    0.16 
  -6  -6  -9    1.62    0.40 
   6  -6   9    1.35    0.20 
   6   6   9    0.86    0.19 
  -6   6  -9    1.13    0.25 
  -7  -6  -9    0.36    0.30 
   7  -6   9    0.67    0.19 
  -7   6  -9    0.78    0.27 
   7   6   9    0.63    0.19 
  -8  -7   9    0.45    0.29 
   8  -7  -9    0.93    0.20 
   7  -7  -9   14.76    0.79 
  -7  -7   9   11.76    1.04 
   7   7  -9   15.14    0.95 
   6  -7  -9    0.29    0.26 
  -6  -7   9    0.38    0.25 
  -6   7   9    0.34    0.18 
   6   7  -9    0.40    0.24 
  -6   7   9    0.01    0.17 
   5  -7  -9    1.99    0.39 
   5  -7  -9    1.67    0.25 
  -5  -7   9    1.35    0.31 
  -5   7   9    1.02    0.21 
   5   7  -9    1.14    0.31 
  -4  -7   9    4.15    0.46 
   4  -7  -9    5.74    0.61 
   4  -7  -9    5.00    0.41 
   4   7  -9    4.41    0.52 
  -4   7   9    4.67    0.36 
  -3  -7   9    0.01    0.17 
   3  -7  -9    0.20    0.15 
   3   7  -9    0.18    0.24 
  -3   7   9    0.19    0.14 
  -3   7   9    0.22    0.22 
   2  -7  -9    0.87    0.19 
  -2  -7   9    0.93    0.14 
  -2  -7   9    0.62    0.20 
   2   7  -9    1.05    0.31 
  -2   7   9    0.94    0.16 
  -2   7   9    0.67    0.26 
   1  -7  -9   19.62    1.25 
  -1  -7   9   20.36    1.27 
  -1  -7   9   21.34    0.99 
  -1   7   9   20.52    1.02 
  -1   7   9   19.32    1.33 
   1   7  -9   20.32    1.35 
   0  -7  -9   -0.21    0.14 
   0  -7   9    0.00    0.14 
   0  -7   9   -0.07    0.08 
   0   7   9    0.38    0.23 
   0   7   9    0.07    0.10 
   0   7  -9   -0.02    0.21 
   1  -7   9    2.40    0.19 
   1  -7   9    2.10    0.27 
  -1  -7  -9    2.01    0.32 
   1   7   9    2.81    0.42 
  -1   7  -9    2.09    0.34 
   1   7   9    2.03    0.20 
   2  -7   9    0.07    0.16 
  -2  -7  -9   -0.11    0.21 
   2  -7   9    0.18    0.10 
   2   7   9    0.01    0.11 
   2   7   9   -0.03    0.24 
  -2   7  -9    0.27    0.21 
  -3  -7  -9    5.86    0.65 
   3  -7   9    6.85    0.40 
   3  -7   9    7.32    0.54 
  -3   7  -9    6.74    0.55 
   3   7   9    6.67    0.41 
   3   7   9    6.86    0.69 
  -4  -7  -9    1.15    0.36 
   4  -7   9    0.94    0.16 
  -4  -7  -9    1.32    0.36 
  -4   7  -9    1.39    0.24 
   4   7   9    1.07    0.17 
  -4   7  -9    0.81    0.22 
  -5  -7  -9   -0.13    0.24 
  -5  -7  -9    0.32    0.30 
   5  -7   9   -0.03    0.13 
  -5   7  -9    0.28    0.18 
   5   7   9   -0.05    0.13 
  -6  -7  -9    1.18    0.36 
   6  -7   9    0.93    0.18 
  -6   7  -9    1.28    0.27 
   6   7   9    1.35    0.21 
  -7  -7  -9    5.03    0.62 
   7  -7   9    4.75    0.37 
   7   7   9    4.83    0.37 
  -7   7  -9    5.12    0.53 
  -8  -8   9    0.76    0.32 
   8  -8  -9    0.82    0.20 
  -7  -8   9    0.06    0.26 
   7  -8  -9    0.12    0.17 
   7   8  -9    0.41    0.22 
   6  -8  -9   -0.01    0.25 
  -6  -8   9   -0.14    0.22 
   6   8  -9    0.02    0.21 
  -6   8   9   -0.23    0.15 
   5  -8  -9    3.25    0.48 
  -5  -8   9    2.88    0.41 
   5   8  -9    2.14    0.38 
  -5   8   9    2.98    0.30 
   4  -8  -9    0.39    0.20 
  -4  -8   9    0.23    0.21 
  -4   8   9    0.14    0.23 
  -4   8   9    0.23    0.15 
   4   8  -9    0.31    0.25 
   3  -8  -9   15.95    1.02 
  -3  -8   9   16.47    1.07 
  -3   8   9   14.82    1.08 
   3   8  -9   15.34    1.13 
  -3   8   9   16.84    0.85 
  -2  -8   9    1.14    0.26 
   2  -8  -9    1.89    0.25 
  -2   8   9    1.16    0.33 
   2   8  -9    1.01    0.34 
  -2   8   9    1.38    0.19 
  -1  -8   9    4.67    0.41 
   1  -8  -9    4.13    0.39 
  -1   8   9    3.28    0.46 
   1   8  -9    4.47    0.52 
  -1   8   9    4.56    0.32 
   0  -8   9    5.06    0.44 
   0  -8  -9    5.80    0.47 
   0   8  -9    5.26    0.56 
   0   8   9    4.80    0.55 
   0   8   9    5.57    0.34 
  -1  -8  -9    0.13    0.19 
   1  -8   9    0.10    0.15 
   1   8   9   -0.09    0.23 
  -1   8  -9   -0.01    0.20 
   1   8   9    0.02    0.11 
  -2  -8  -9    4.45    0.51 
   2  -8   9    4.66    0.43 
   2   8   9    5.03    0.58 
  -2   8  -9    4.85    0.49 
   2   8   9    4.82    0.32 
  -3  -8  -9   10.74    0.89 
   3  -8   9   11.17    0.80 
  -3   8  -9   11.72    0.81 
   3   8   9   12.33    0.62 
   3   8   9   11.34    0.88 
  -4  -8  -9    1.39    0.39 
   4   8   9    1.51    0.36 
  -4   8  -9    1.59    0.27 
   4   8   9    1.32    0.18 
  -5  -8  -9   -0.02    0.24 
  -5  -8  -9   -0.09    0.28 
  -5   8  -9   -0.01    0.18 
   5   8   9   -0.10    0.12 
  -6  -8  -9   -0.09    0.27 
  -6   8  -9   -0.06    0.19 
  -7  -9   9   -0.06    0.25 
   7  -9  -9    0.74    0.19 
   7   9  -9    0.47    0.24 
   6  -9  -9    0.54    0.31 
  -6  -9   9    1.22    0.35 
   6   9  -9    1.15    0.29 
  -5  -9   9    6.19    0.60 
   5  -9  -9    6.48    0.68 
  -5   9   9    6.94    0.45 
   5   9  -9    5.97    0.63 
  -4  -9   9    8.54    0.70 
  -4   9   9    8.40    0.70 
  -4   9   9    9.40    0.54 
   4   9  -9    8.03    0.71 
  -3  -9   9    3.74    0.44 
  -3   9   9    4.51    0.35 
   3   9  -9    3.73    0.53 
  -3   9   9    4.73    0.53 
   2  -9  -9    0.77    0.23 
  -2  -9   9    0.74    0.23 
  -2   9   9    0.85    0.17 
   2   9  -9    0.41    0.27 
  -2   9   9    0.48    0.24 
   1  -9  -9    2.41    0.31 
  -1  -9   9    1.64    0.28 
  -1   9   9    2.22    0.22 
   1   9  -9    1.62    0.35 
  -1   9   9    1.88    0.37 
   0  -9   9    0.25    0.17 
   0  -9  -9    0.45    0.21 
   0   9  -9    0.33    0.23 
   0   9   9    0.30    0.14 
   0   9   9   -0.06    0.24 
   1  -9   9    0.08    0.18 
  -1  -9  -9   -0.23    0.19 
  -1   9  -9   -0.23    0.21 
   1   9   9    0.15    0.24 
   2  -9   9    0.15    0.18 
  -2  -9  -9    0.13    0.24 
  -2   9  -9    0.21    0.21 
   2   9   9   -0.04    0.24 
   3  -9   9    0.03    0.18 
  -3  -9  -9    0.03    0.25 
   3   9   9    0.23    0.24 
  -3   9  -9   -0.22    0.18 
   4  -9   9    3.33    0.38 
  -4  -9  -9    2.94    0.49 
   4   9   9    2.67    0.44 
  -4   9  -9    3.26    0.37 
   5  -9   9    2.02    0.32 
  -5  -9  -9    1.40    0.39 
  -6  -9  -9    1.76    0.43 
  -6   9  -9    2.01    0.32 
  -6 -10   9    0.44    0.31 
   6 -10  -9    0.94    0.35 
   6  10  -9    0.99    0.26 
  -5 -10   9    1.61    0.34 
   5  10  -9    1.66    0.35 
  -4 -10   9    0.36    0.24 
  -4  10   9   -0.19    0.22 
   4  10  -9    0.26    0.25 
  -3 -10   9    0.54    0.24 
  -3  10   9    0.73    0.29 
   3  10  -9    0.65    0.29 
  -2 -10   9    3.19    0.38 
  -2  10   9    2.94    0.42 
   2  10  -9    2.81    0.44 
  -1 -10   9    5.12    0.46 
  -1  10   9    4.17    0.54 
   1  10  -9    5.08    0.56 
   0 -10   9    2.32    0.32 
   0  10  -9    3.31    0.43 
   0  10   9    2.68    0.42 
  -1 -10  -9    8.66    0.66 
   1 -10   9    7.38    0.60 
   1  10   9    8.38    0.70 
  -1  10  -9    6.99    0.62 
  -2 -10  -9    0.04    0.23 
   2 -10   9    0.23    0.20 
  -2  10  -9   -0.02    0.19 
   2  10   9    0.21    0.24 
  -3 -10  -9    0.19    0.27 
   3 -10   9   -0.12    0.18 
  -3  10  -9    0.27    0.22 
   3  10   9    0.34    0.25 
   4 -10   9    1.69    0.30 
  -4  10  -9    1.49    0.28 
   4  10   9    1.92    0.40 
   5 -10   9    0.54    0.23 
  -5 -11   9   -0.16    0.23 
  -5  11   9    0.26    0.24 
   5  11  -9    0.14    0.26 
  -4 -11   9   -0.16    0.22 
   4  11  -9   -0.17    0.27 
  -4  11   9    0.26    0.25 
  -3 -11   9    0.47    0.23 
  -3  11   9    0.08    0.25 
   3  11  -9   -0.41    0.21 
  -2 -11   9    6.86    0.58 
   2  11  -9    7.51    0.68 
  -2  11   9    5.38    0.61 
  -1 -11   9    0.08    0.19 
  -1  11   9   -0.15    0.21 
   1  11  -9    0.14    0.24 
   0 -11   9    0.96    0.25 
   0  11   9    0.89    0.30 
   0  11  -9    0.98    0.28 
   1 -11   9    0.37    0.21 
   1  11   9    0.15    0.27 
  -1  11  -9   -0.10    0.23 
   2 -11   9    6.53    0.57 
   2  11   9    7.34    0.66 
  -2  11  -9    6.74    0.57 
   3 -11   9    0.19    0.21 
  -3  11  -9   -0.28    0.18 
   3  11   9    0.39    0.27 
   4 -11   9   -0.04    0.20 
   4  11   9    0.14    0.29 
  -4  11  -9    0.15    0.22 
  -4 -12   9    0.37    0.25 
  -4  12   9    0.26    0.27 
   4  12  -9    0.39    0.27 
  -3 -12   9   -0.03    0.20 
  -3  12   9   -0.09    0.20 
   3  12  -9    0.29    0.30 
  -2 -12   9    1.49    0.30 
   2  12  -9    1.34    0.35 
  -2  12   9    1.47    0.37 
  -1 -12   9    1.84    0.31 
  -1  12   9    2.68    0.43 
   1  12  -9    1.20    0.34 
   0 -12   9    0.27    0.20 
   0  12   9   -0.18    0.25 
   0  12  -9    0.44    0.25 
   1 -12   9    3.92    0.44 
   1  12   9    3.30    0.49 
  -1  12  -9    3.77    0.44 
   2 -12   9    0.10    0.20 
  -2  12  -9    0.37    0.24 
   2  12   9    0.23    0.28 
   9   0 -10    0.24    0.21 
  -8   0  10    3.58    0.42 
  -8   0  10    3.85    0.37 
  -7   0  10    0.18    0.17 
  -7   0  10    0.25    0.19 
  -6   0  10   44.30    2.23 
   6   0 -10   47.16    2.72 
  -6   0  10   46.56    2.73 
   5   0 -10   -0.03    0.24 
  -5   0  10   -0.11    0.14 
  -5   0  10    0.04    0.16 
   4   0 -10   -0.01    0.29 
  -4   0  10    0.19    0.13 
  -4   0  10    0.06    0.13 
  -3   0  10    0.17    0.13 
   3   0 -10   -0.25    0.32 
  -2   0  10    0.07    0.11 
   2   0 -10    0.41    0.35 
  -1   0  10    0.03    0.11 
   1   0 -10    0.17    0.37 
   0   0  10    7.20    0.43 
   0   0 -10    8.56    0.94 
  -1   0 -10   -0.60    0.36 
  -1   0 -10    0.03    0.06 
   1   0  10    0.11    0.11 
  -2   0 -10   53.31    3.22 
   2   0  10   49.50    2.45 
  -2   0 -10   53.32    2.99 
  -3   0 -10   -0.04    0.30 
   3   0  10    0.12    0.12 
  -3   0 -10   -0.09    0.11 
  -4   0 -10   13.38    0.99 
   4   0  10   13.96    0.74 
  -4   0 -10   13.92    0.91 
   5   0  10   -0.10    0.12 
  -5   0 -10    0.04    0.19 
  -6   0 -10   -0.03    0.21 
   6   0  10    0.13    0.14 
  -7   0 -10   -0.03    0.22 
   7   0  10    0.04    0.15 
   8   0  10    3.00    0.33 
  -8   0 -10    3.25    0.46 
   9  -1 -10   -0.02    0.18 
   9   1 -10    0.49    0.21 
  -8  -1  10    5.22    0.40 
  -8  -1  10    4.98    0.48 
  -8   1  10    4.57    0.40 
  -7  -1  10    0.25    0.16 
  -7  -1  10    0.17    0.20 
  -7   1  10   -0.03    0.16 
  -7   1  10    0.19    0.19 
   7   1 -10    0.46    0.22 
  -6  -1  10    0.37    0.19 
  -6  -1  10    0.52    0.20 
   6  -1 -10    0.49    0.26 
  -6   1  10    0.12    0.18 
   6   1 -10    0.11    0.21 
  -6   1  10    0.15    0.17 
  -5  -1  10   12.45    0.80 
   5  -1 -10   10.48    0.86 
  -5  -1  10   10.62    0.66 
  -5   1  10   11.90    0.67 
  -5   1  10   11.83    0.77 
   5   1 -10   11.58    0.87 
   4  -1 -10    2.92    0.49 
  -4  -1  10    2.94    0.28 
  -4  -1  10    3.61    0.33 
  -4   1  10    2.84    0.28 
   4   1 -10    2.80    0.46 
  -3  -1  10   22.83    1.29 
   3  -1 -10   22.04    1.49 
  -3  -1  10   20.76    1.08 
  -3   1  10   20.52    1.08 
   3   1 -10   20.78    1.46 
  -2  -1  10   30.21    1.44 
   2  -1 -10   28.73    1.95 
   2   1 -10   30.26    1.96 
  -2   1  10   29.24    1.44 
   1  -1 -10    5.97    0.77 
  -1  -1  10    5.62    0.36 
  -1   1  10    5.82    0.36 
   1   1 -10    7.14    0.83 
   0  -1 -10    1.52    0.54 
   0  -1  10    1.21    0.11 
   0  -1  10    1.19    0.16 
   0   1 -10    1.00    0.49 
   0   1  10    1.19    0.16 
  -1  -1 -10   27.73    1.93 
   1  -1  10   26.25    1.32 
  -1   1 -10   28.64    1.57 
   1   1  10   26.77    1.32 
  -1   1 -10   25.10    1.84 
  -2  -1 -10    6.37    0.44 
   2  -1  10    6.66    0.40 
  -2  -1 -10    6.66    0.89 
   2   1  10    6.50    0.40 
  -2   1 -10    6.55    0.76 
  -2   1 -10    6.22    0.43 
  -3  -1 -10    2.12    0.26 
   3  -1  10    1.98    0.22 
  -3  -1 -10    3.62    0.59 
  -3   1 -10    2.54    0.43 
  -3   1 -10    2.06    0.24 
   3   1  10    1.60    0.20 
  -4  -1 -10    4.57    0.59 
   4  -1  10    4.31    0.32 
  -4  -1 -10    4.89    0.43 
   4   1  10    4.08    0.33 
  -4   1 -10    4.05    0.48 
  -4   1 -10    4.42    0.40 
   5  -1  10    1.08    0.19 
  -5  -1 -10    1.45    0.29 
   5   1  10    1.08    0.20 
  -5   1 -10    1.58    0.27 
   6  -1  10    0.62    0.19 
  -6  -1 -10    0.43    0.25 
  -6   1 -10    0.73    0.24 
   6   1  10    0.15    0.15 
  -7  -1 -10    0.15    0.27 
   7  -1  10    0.42    0.19 
   7   1  10    0.37    0.18 
  -7   1 -10    0.47    0.26 
   8  -1  10    1.31    0.24 
  -8  -1 -10    0.93    0.31 
  -8   1 -10    1.22    0.32 
   8   1  10    0.98    0.21 
   9  -2 -10    7.61    0.54 
  -9  -2  10    6.82    0.63 
   9   2 -10    8.31    0.53 
  -8  -2  10    9.46    0.75 
  -8   2  10    9.42    0.60 
   8   2 -10   10.25    0.61 
  -7  -2  10    0.28    0.21 
  -7  -2  10    0.52    0.17 
  -7   2  10    0.36    0.17 
   7   2 -10    0.35    0.19 
  -6  -2  10    0.68    0.23 
   6  -2 -10    0.66    0.29 
  -6  -2  10    0.74    0.20 
  -6   2  10    0.77    0.20 
   6   2 -10    0.65    0.25 
   5  -2 -10    1.43    0.36 
  -5  -2  10    1.06    0.20 
  -5  -2  10    1.85    0.29 
   5   2 -10    1.26    0.32 
  -5   2  10    1.69    0.24 
   4  -2 -10    5.66    0.65 
  -4  -2  10    4.50    0.43 
  -4  -2  10    4.90    0.36 
   4   2 -10    5.70    0.59 
  -4   2  10    4.83    0.36 
  -3  -2  10    6.95    0.57 
  -3  -2  10    9.14    0.49 
   3  -2 -10    5.98    0.76 
   3   2 -10   10.44    0.80 
  -3   2  10    9.57    0.51 
   2  -2 -10    1.01    0.39 
  -2  -2  10    1.26    0.16 
  -2  -2  10    1.58    0.19 
  -2   2  10    1.48    0.19 
   2   2 -10    1.48    0.46 
  -1  -2  10    9.53    0.55 
   1  -2 -10    8.69    0.89 
  -1  -2  10   11.10    0.63 
   1   2 -10   11.52    0.98 
  -1   2  10   10.47    0.56 
   0  -2  10   20.19    0.98 
   0  -2  10   20.83    1.16 
   0  -2 -10   17.74    1.43 
   0   2  10   19.41    0.98 
   0   2 -10   17.97    1.45 
  -1  -2 -10    4.60    0.69 
   1  -2  10    5.39    0.33 
   1   2  10    5.44    0.35 
  -1   2 -10    5.49    0.71 
   2  -2  10    0.38    0.13 
  -2  -2 -10    0.08    0.11 
  -2  -2 -10    0.11    0.38 
  -2   2 -10    0.20    0.11 
  -2   2 -10   -0.29    0.26 
   2   2  10    0.57    0.14 
  -3  -2 -10    2.92    0.32 
   3  -2  10    2.44    0.24 
  -3  -2 -10    2.03    0.53 
   3   2  10    2.11    0.24 
  -3   2 -10    2.85    0.41 
  -3   2 -10    3.08    0.29 
  -4  -2 -10    5.16    0.67 
   4  -2  10    4.16    0.32 
  -4  -2 -10    4.48    0.47 
   4   2  10    4.35    0.32 
  -4   2 -10    4.72    0.47 
  -4   2 -10    4.39    0.40 
   5  -2  10    7.87    0.47 
  -5  -2 -10    7.22    0.65 
  -5   2 -10    8.25    0.61 
   5   2  10    7.55    0.48 
  -6  -2 -10    9.07    0.73 
   6  -2  10    8.79    0.53 
   6   2  10    7.79    0.51 
  -6   2 -10    8.64    0.67 
   7  -2  10    2.23    0.26 
  -7  -2 -10    2.19    0.40 
  -7   2 -10    1.69    0.33 
   7   2  10    2.27    0.27 
  -8  -2 -10    0.20    0.26 
   8  -2  10   -0.08    0.18 
  -8   2 -10    0.00    0.24 
   8   2  10   -0.01    0.15 
   9  -3 -10   -0.19    0.19 
  -9  -3  10    0.06    0.20 
   9   3 -10   -0.13    0.17 
  -8  -3  10    0.22    0.22 
   8   3 -10    0.37    0.17 
  -8   3  10    0.05    0.19 
  -7  -3  10    4.63    0.38 
  -7  -3  10    4.49    0.50 
  -7   3  10    3.83    0.37 
   7   3 -10    4.37    0.44 
  -6  -3  10    0.99    0.19 
   6  -3 -10    1.26    0.34 
  -6  -3  10    0.56    0.23 
  -6   3  10    0.84    0.19 
   6   3 -10    1.51    0.28 
  -5  -3  10    2.29    0.24 
  -5  -3  10    1.72    0.31 
   5  -3 -10    2.18    0.43 
   5   3 -10    3.17    0.42 
  -5   3  10    1.86    0.25 
  -4  -3  10    5.01    0.35 
   4  -3 -10    4.35    0.59 
  -4  -3  10    4.25    0.45 
   4   3 -10    4.65    0.56 
  -4   3  10    5.38    0.38 
   3  -3 -10   15.75    1.22 
  -3  -3  10   17.43    0.88 
  -3  -3  10   16.78    1.08 
   3   3 -10   18.58    1.25 
  -3   3  10   17.66    0.90 
  -2  -3  10    7.05    0.47 
  -2  -3  10    6.86    0.40 
   2  -3 -10    5.54    0.72 
   2   3 -10    5.91    0.72 
  -2   3  10    6.46    0.41 
  -1  -3  10   32.86    1.56 
   1  -3 -10   30.81    2.08 
  -1  -3  10   35.04    1.89 
  -1   3  10   31.89    1.57 
   1   3 -10   28.93    2.08 
   0  -3  10   19.27    1.05 
   0  -3  10   17.10    0.87 
   0  -3 -10   16.30    1.28 
   0   3 -10   17.46    1.30 
   0   3  10   16.01    0.87 
   1  -3  10    5.98    0.38 
  -1  -3 -10    6.84    0.77 
   1  -3  10    6.30    0.44 
   1   3  10    6.85    0.39 
  -1   3 -10    6.22    0.70 
  -2  -3 -10    5.82    0.79 
  -2  -3 -10    8.48    0.57 
   2  -3  10    7.29    0.45 
  -2   3 -10    8.26    0.52 
  -2   3 -10    8.64    0.68 
   2   3  10    7.78    0.45 
   3  -3  10    2.45    0.24 
  -3  -3 -10    1.63    0.46 
  -3  -3 -10    3.15    0.36 
  -3   3 -10    2.56    0.37 
   3   3  10    2.64    0.24 
  -3   3 -10    2.27    0.26 
  -4  -3 -10    0.35    0.36 
   4  -3  10    0.41    0.15 
  -4  -3 -10    0.23    0.22 
  -4   3 -10    0.37    0.21 
  -4   3 -10    0.61    0.18 
   4   3  10    0.69    0.17 
  -5  -3 -10    0.93    0.29 
   5  -3  10    0.96    0.19 
   5   3  10    1.19    0.19 
  -5   3 -10    1.40    0.26 
   6  -3  10    0.15    0.15 
  -6  -3 -10   -0.21    0.23 
   6   3  10    0.03    0.14 
  -6   3 -10    0.06    0.21 
  -7  -3 -10    3.35    0.48 
   7  -3  10    4.69    0.36 
  -7   3 -10    3.83    0.47 
   7   3  10    2.87    0.32 
   8  -3  10    0.16    0.16 
  -8  -3 -10    0.44    0.28 
   8   3  10    0.20    0.18 
  -8   3 -10    0.16    0.25 
  -9  -4  10   -0.05    0.22 
   9  -4 -10    0.05    0.20 
   9   4 -10    0.31    0.17 
  -8  -4  10    0.17    0.22 
   8   4 -10    0.30    0.17 
  -8   4  10   -0.25    0.15 
  -7  -4  10   12.53    0.95 
  -7  -4  10   12.61    0.73 
   7   4 -10   12.71    0.86 
  -7   4  10   13.84    0.76 
   6  -4 -10   -0.06    0.23 
  -6  -4  10    0.60    0.17 
  -6  -4  10    0.45    0.22 
  -6   4  10    0.01    0.15 
   6   4 -10    0.32    0.20 
  -5  -4  10   10.85    0.62 
   5  -4 -10    9.28    0.85 
  -5  -4  10   10.99    0.81 
   5   4 -10   11.64    0.81 
  -5   4  10   10.84    0.63 
   4  -4 -10    3.08    0.52 
  -4  -4  10    3.80    0.31 
  -4  -4  10    4.09    0.42 
  -4   4  10    3.64    0.33 
   4   4 -10    4.95    0.56 
   3  -4 -10    1.06    0.34 
  -3  -4  10    0.89    0.16 
  -3  -4  10    1.07    0.21 
   3   4 -10    1.25    0.35 
  -3   4  10    1.27    0.18 
  -2  -4  10    2.94    0.25 
   2  -4 -10    3.07    0.49 
  -2  -4  10    3.25    0.30 
  -2   4  10    2.90    0.27 
   2   4 -10    2.59    0.47 
  -1  -4  10    3.94    0.31 
  -1  -4  10    3.41    0.26 
   1  -4 -10    2.86    0.49 
   1   4 -10    3.42    0.53 
  -1   4  10    3.83    0.28 
   0  -4  10    2.87    0.23 
   0  -4 -10    2.99    0.48 
   0  -4  10    2.76    0.26 
   0   4  10    2.36    0.23 
   0   4 -10    2.50    0.46 
  -1  -4 -10    2.82    0.50 
   1  -4  10    3.29    0.28 
   1  -4  10    3.11    0.24 
   1   4  10    3.24    0.26 
  -1   4 -10    2.96    0.44 
   2  -4  10    1.85    0.19 
  -2  -4 -10    2.23    0.33 
  -2  -4 -10    1.83    0.43 
  -2   4 -10    2.74    0.40 
  -2   4 -10    2.32    0.24 
   2   4  10    2.18    0.22 
  -3  -4 -10   29.45    1.87 
  -3  -4 -10   28.34    1.97 
   3  -4  10   29.25    1.45 
  -3   4 -10   30.97    1.78 
  -3   4 -10   30.79    1.81 
   3   4  10   29.80    1.46 
   4  -4  10    0.25    0.14 
  -4  -4 -10    0.60    0.37 
  -4  -4 -10    0.13    0.24 
  -4   4 -10    0.35    0.20 
  -4   4 -10    0.23    0.16 
   4   4  10    0.62    0.16 
   5  -4  10    0.41    0.15 
  -5  -4 -10    0.19    0.35 
  -5  -4 -10    0.66    0.28 
   5   4  10    0.31    0.15 
  -5   4 -10    0.39    0.20 
  -6  -4 -10    0.89    0.31 
   6  -4  10    1.08    0.20 
   6   4  10    1.01    0.21 
  -6   4 -10    1.76    0.30 
  -7  -4 -10    0.72    0.31 
   7  -4  10    0.60    0.18 
  -7   4 -10    0.47    0.25 
   7   4  10    0.33    0.17 
   9  -5 -10    0.39    0.20 
  -9  -5  10   -0.10    0.23 
   9   5 -10    0.27    0.16 
   8  -5 -10    1.17    0.24 
  -8  -5  10    0.43    0.27 
   8   5 -10    0.87    0.20 
  -7  -5  10    0.56    0.27 
   7   5 -10    0.78    0.24 
  -7   5  10    1.15    0.22 
   7   5 -10    0.91    0.20 
   6  -5 -10    4.79    0.60 
  -6  -5  10    5.78    0.39 
  -6  -5  10    4.73    0.56 
  -6   5  10    5.90    0.43 
   6   5 -10    5.75    0.51 
   5  -5 -10    4.64    0.59 
  -5  -5  10    4.39    0.51 
  -5  -5  10    5.18    0.38 
   5   5 -10    5.80    0.56 
  -5   5  10    5.02    0.38 
  -4  -5  10   20.75    1.02 
  -4  -5  10   19.53    1.28 
   4  -5 -10   19.88    1.37 
   4   5 -10   19.58    1.33 
  -4   5  10   20.16    1.04 
  -3  -5  10    0.21    0.16 
   3  -5 -10   -0.09    0.24 
  -3  -5  10    0.18    0.12 
  -3   5  10    0.14    0.14 
   3   5 -10    0.29    0.28 
  -2  -5  10    2.67    0.22 
   2  -5 -10    2.77    0.47 
  -2  -5  10    2.45    0.27 
  -2   5  10    2.18    0.24 
   2   5 -10    2.56    0.44 
  -1  -5  10    5.70    0.41 
  -1  -5  10    5.11    0.33 
   1  -5 -10    4.33    0.58 
   1   5 -10    5.45    0.65 
  -1   5  10    5.22    0.35 
   0  -5  10   10.44    0.57 
   0  -5  10   11.15    0.71 
   0  -5 -10   11.34    0.89 
   0   5  10   10.72    0.58 
   0   5 -10   10.96    0.87 
  -1  -5 -10   12.63    0.98 
   1  -5  10   12.67    0.65 
   1  -5  10   12.13    0.80 
  -1   5 -10   12.57    0.93 
   1   5  10   12.75    0.66 
  -2  -5 -10   11.39    0.97 
  -2  -5 -10    8.69    0.87 
   2  -5  10   12.61    0.77 
   2  -5  10   11.96    0.62 
   2   5  10   11.84    0.63 
  -2   5 -10   13.06    0.85 
  -3  -5 -10    0.64    0.27 
  -3  -5 -10    0.54    0.33 
   3  -5  10    0.26    0.11 
  -3   5 -10    0.21    0.20 
   3   5  10    0.38    0.14 
  -3   5 -10    0.51    0.16 
   4  -5  10    1.72    0.20 
  -4  -5 -10    1.97    0.45 
  -4  -5 -10    1.06    0.33 
   4   5  10    1.60    0.21 
  -4   5 -10    1.98    0.26 
  -4   5 -10    1.58    0.26 
  -5  -5 -10    1.08    0.34 
   5  -5  10    0.85    0.19 
  -5  -5 -10    0.66    0.35 
  -5   5 -10    0.98    0.23 
   5   5  10    1.35    0.20 
  -6  -5 -10    0.56    0.30 
   6  -5  10    0.14    0.15 
  -6   5 -10    0.37    0.21 
   6   5  10    0.26    0.16 
   7  -5  10    1.15    0.21 
  -7  -5 -10    1.54    0.36 
  -7   5 -10    1.51    0.31 
   7   5  10    1.08    0.21 
  -8  -6  10    0.10    0.24 
   8  -6 -10    0.41    0.21 
   8   6 -10    0.59    0.17 
  -7  -6  10    2.44    0.41 
   7   6 -10    2.34    0.34 
  -7   6  10    2.31    0.29 
   7   6 -10    2.77    0.27 
  -6  -6  10    2.22    0.25 
  -6  -6  10    2.43    0.41 
   6  -6 -10    1.70    0.38 
   6   6 -10    2.19    0.34 
  -6   6  10    2.52    0.30 
   5  -6 -10    3.30    0.51 
  -5  -6  10    4.20    0.32 
  -5  -6  10    3.02    0.42 
  -5   6  10    3.70    0.34 
   5   6 -10    4.05    0.47 
   4  -6 -10    4.46    0.57 
  -4  -6  10    5.36    0.35 
  -4  -6  10    5.31    0.48 
  -4   6  10    4.42    0.38 
   4   6 -10    4.52    0.55 
   3  -6 -10    4.48    0.56 
  -3  -6  10    4.10    0.38 
  -3  -6  10    3.50    0.29 
  -3   6  10    4.37    0.33 
   3   6 -10    4.38    0.56 
  -2  -6  10    1.27    0.16 
   2  -6 -10    1.31    0.36 
  -2  -6  10    1.53    0.23 
   2   6 -10    0.73    0.31 
  -2   6  10    1.10    0.17 
   1  -6 -10    2.92    0.49 
  -1  -6  10    3.20    0.24 
  -1  -6  10    3.49    0.32 
   1   6 -10    2.60    0.44 
  -1   6  10    2.72    0.25 
   0  -6 -10    8.02    0.73 
   0  -6  10    7.09    0.41 
   0  -6  10    7.34    0.52 
   0   6 -10    7.14    0.65 
   0   6  10    7.00    0.42 
   1  -6  10    5.59    0.44 
   1  -6  10    5.70    0.33 
  -1  -6 -10    5.14    0.62 
   1   6  10    5.65    0.35 
  -1   6 -10    5.06    0.55 
   2  -6  10    1.16    0.16 
   2  -6  10    1.73    0.23 
  -2  -6 -10    1.18    0.38 
  -2   6 -10    1.11    0.28 
   2   6  10    1.00    0.16 
  -3  -6 -10    0.17    0.25 
  -3  -6 -10    0.62    0.34 
   3  -6  10    0.59    0.14 
  -3   6 -10    0.47    0.17 
   3   6  10    0.59    0.14 
  -3   6 -10    0.81    0.24 
  -4  -6 -10    0.49    0.33 
   4  -6  10   -0.07    0.13 
  -4  -6 -10    0.49    0.29 
  -4   6 -10    0.06    0.17 
  -4   6 -10    0.02    0.16 
   4   6  10   -0.06    0.12 
   5  -6  10    9.27    0.55 
  -5  -6 -10    8.59    0.80 
  -5  -6 -10   10.46    0.87 
  -5   6 -10    9.42    0.68 
   5   6  10    9.75    0.55 
   6  -6  10    2.26    0.25 
   6   6  10    2.04    0.25 
  -6   6 -10    2.52    0.34 
   7  -6  10    1.62    0.23 
   7   6  10    1.44    0.22 
  -7   6 -10    1.20    0.29 
   8  -7 -10    1.80    0.25 
  -8  -7  10    0.99    0.32 
  -7  -7  10    0.10    0.24 
   7   7 -10    0.16    0.19 
  -7   7  10   -0.13    0.17 
   6  -7 -10    0.08    0.25 
  -6  -7  10   -0.10    0.23 
   6   7 -10   -0.04    0.18 
  -6   7  10   -0.10    0.16 
   5  -7 -10    1.27    0.37 
  -5  -7  10    1.78    0.33 
  -5   7  10    1.77    0.25 
   5   7 -10    2.15    0.37 
   4  -7 -10    0.67    0.30 
  -4  -7  10    0.35    0.21 
   4   7 -10    0.67    0.28 
  -4   7  10    0.62    0.18 
  -3  -7  10    2.44    0.32 
   3  -7 -10    3.56    0.53 
   3   7 -10    1.99    0.43 
  -3   7  10    2.65    0.26 
  -2  -7  10   34.41    2.05 
   2   7 -10   34.29    2.14 
  -2   7  10   33.80    1.66 
  -1  -7  10    0.49    0.13 
  -1  -7  10    0.65    0.18 
  -1   7  10    0.76    0.30 
  -1   7  10    0.41    0.14 
   1   7 -10    0.62    0.29 
   0  -7  10    3.31    0.34 
   0  -7  10    3.39    0.24 
   0   7 -10    3.07    0.46 
   0   7  10    3.31    0.27 
   0   7  10    2.23    0.42 
   1  -7  10    2.41    0.20 
   1  -7  10    2.40    0.28 
   1   7  10    1.79    0.20 
  -1   7 -10    2.31    0.36 
   1   7  10    2.31    0.39 
   2  -7  10    0.01    0.15 
   2  -7  10    0.24    0.11 
  -2   7 -10    0.10    0.19 
   2   7  10   -0.02    0.11 
  -3  -7 -10    0.76    0.31 
   3  -7  10    0.28    0.12 
   3  -7  10    0.37    0.18 
  -3   7 -10    0.14    0.20 
   3   7  10    0.36    0.14 
   4  -7  10    2.96    0.27 
  -4  -7 -10    3.08    0.53 
  -4   7 -10    3.59    0.39 
  -4   7 -10    3.50    0.37 
   4   7  10    3.51    0.29 
  -5  -7 -10   -0.18    0.30 
   5  -7  10   -0.15    0.13 
   5   7  10   -0.06    0.13 
  -5   7 -10    0.33    0.19 
   6  -7  10    0.87    0.19 
  -6   7 -10    0.88    0.25 
   6   7  10    0.87    0.19 
   7  -8 -10    1.45    0.23 
  -7  -8  10    1.20    0.36 
   7   8 -10    1.43    0.29 
  -6  -8  10    5.56    0.63 
   6  -8 -10    6.66    0.70 
   6   8 -10    6.89    0.60 
  -6   8  10    6.90    0.47 
   5  -8 -10    2.00    0.44 
  -5  -8  10    2.61    0.40 
  -5   8  10    2.79    0.30 
   5   8 -10    2.42    0.38 
   4  -8 -10   -0.04    0.29 
  -4  -8  10   -0.03    0.20 
  -4   8  10    0.02    0.15 
   4   8 -10   -0.08    0.27 
  -3  -8  10    2.43    0.33 
  -3   8  10    3.13    0.29 
   3   8 -10    1.77    0.39 
  -2  -8  10   -0.04    0.17 
  -2   8  10    0.12    0.23 
  -2   8  10   -0.11    0.12 
   2   8 -10   -0.25    0.23 
  -1  -8  10    0.19    0.17 
  -1   8  10    0.36    0.13 
   1   8 -10    0.22    0.29 
  -1   8  10    0.34    0.28 
   0  -8  10    3.17    0.35 
   0   8  10    3.48    0.26 
   0   8 -10    3.70    0.49 
   0   8  10    1.97    0.42 
   1  -8  10    2.51    0.30 
   1   8  10    1.87    0.38 
  -1   8 -10    2.09    0.36 
   1   8  10    2.20    0.22 
   2  -8  10   14.64    0.94 
   2   8  10   15.30    1.06 
   2   8  10   13.17    0.74 
  -2   8 -10   14.70    0.97 
   3  -8  10    1.05    0.24 
   3   8  10    1.03    0.17 
  -3   8 -10    1.06    0.26 
   3   8  10    1.32    0.34 
  -4  -8 -10    2.37    0.47 
   4  -8  10    2.58    0.34 
  -4   8 -10    3.04    0.36 
   4   8  10    3.24    0.27 
  -5  -8 -10    2.18    0.47 
  -5   8 -10    2.42    0.34 
   5   8  10    2.43    0.25 
  -6   8 -10    0.30    0.20 
   7  -9 -10    0.19    0.16 
  -7  -9  10    0.10    0.27 
   7   9 -10   -0.08    0.19 
   6  -9 -10    0.32    0.30 
  -6  -9  10    0.01    0.25 
  -6   9  10    0.38    0.19 
   6   9 -10    0.56    0.26 
  -5  -9  10    6.68    0.62 
   5  -9 -10    7.34    0.74 
   5   9 -10    6.32    0.65 
  -5   9  10    6.68    0.48 
  -4  -9  10    3.39    0.43 
   4  -9 -10    3.63    0.52 
  -4   9  10    4.15    0.35 
   4   9 -10    2.46    0.43 
  -3  -9  10    3.35    0.40 
  -3   9  10    3.58    0.32 
   3   9 -10    3.15    0.48 
  -3   9  10    3.15    0.47 
  -2  -9  10    0.06    0.19 
  -2   9  10    0.24    0.24 
   2   9 -10   -0.04    0.25 
  -2   9  10    0.10    0.14 
  -1  -9  10    1.71    0.27 
  -1   9  10    1.27    0.19 
  -1   9  10    1.56    0.37 
   1   9 -10    1.10    0.34 
   0  -9  10    1.08    0.23 
   0   9  10    0.93    0.30 
   0   9  10    1.11    0.18 
   0   9 -10    1.28    0.32 
   1  -9  10    5.35    0.46 
   1   9  10    5.95    0.64 
  -1   9 -10    4.85    0.54 
   2  -9  10    4.20    0.41 
   2   9  10    4.03    0.54 
  -2   9 -10    3.60    0.44 
   3  -9  10    0.09    0.19 
  -3   9 -10   -0.04    0.20 
   3   9  10   -0.02    0.27 
  -4  -9 -10    0.89    0.36 
   4  -9  10    1.38    0.27 
  -4   9 -10    1.24    0.26 
   5  -9  10    0.64    0.23 
  -6 -10  10    0.24    0.29 
   6 -10 -10    0.42    0.31 
   6  10 -10    0.45    0.23 
  -5 -10  10    0.00    0.23 
   5 -10 -10    0.01    0.25 
   5  10 -10    0.22    0.26 
  -4 -10  10    1.81    0.34 
  -4  10  10    1.14    0.31 
   4  10 -10    1.29    0.36 
  -3 -10  10    3.24    0.41 
   3  10 -10    4.16    0.54 
  -3  10  10    3.27    0.46 
  -2 -10  10    0.89    0.24 
   2  10 -10    0.72    0.31 
  -2  10  10    0.38    0.28 
  -1 -10  10    1.24    0.27 
  -1  10  10    1.57    0.37 
   1  10 -10    1.90    0.40 
   0 -10  10    3.87    0.41 
   0  10  10    3.84    0.51 
   0  10 -10    4.26    0.52 
   1 -10  10    0.01    0.17 
   1  10  10    0.04    0.29 
  -1  10 -10   -0.01    0.20 
   2 -10  10    0.56    0.22 
  -2  10 -10    0.44    0.25 
   2  10  10    0.70    0.30 
   3 -10  10    2.28    0.32 
   3  10  10    2.07    0.43 
  -3  10 -10    2.09    0.34 
   4 -10  10    2.21    0.33 
   4  10  10    1.76    0.39 
  -4  10 -10    1.77    0.33 
  -5 -11  10    0.59    0.28 
   5 -11 -10    0.81    0.35 
   5  11 -10    0.58    0.27 
  -4 -11  10    0.25    0.24 
  -4  11  10    0.09    0.26 
   4  11 -10   -0.17    0.24 
  -3 -11  10    5.03    0.52 
   3  11 -10    5.19    0.62 
  -3  11  10    4.36    0.56 
  -2 -11  10    0.10    0.20 
  -2  11  10   -0.07    0.27 
   2  11 -10   -0.06    0.26 
  -1 -11  10   11.53    0.84 
   1  11 -10   12.27    0.93 
  -1  11  10   12.37    0.95 
   0 -11  10    0.06    0.18 
   0  11 -10   -0.30    0.22 
   0  11  10    0.00    0.26 
   1 -11  10    0.14    0.18 
  -1  11 -10   -0.08    0.22 
   1  11  10    0.16    0.25 
   2 -11  10    0.17    0.20 
  -2  11 -10    0.53    0.23 
   2  11  10    0.66    0.31 
   3 -11  10    0.70    0.24 
   3  11  10    0.57    0.30 
  -3  11 -10    1.13    0.27 
  -3 -12  10    1.86    0.34 
  -3  12  10    1.63    0.36 
   3  12 -10    1.28    0.37 
  -2 -12  10   -0.12    0.18 
  -2  12  10    0.05    0.24 
   2  12 -10   -0.15    0.25 
  -1 -12  10    0.09    0.20 
   1  12 -10   -0.39    0.26 
  -1  12  10    0.12    0.26 
   0 -12  10    1.00    0.24 
   0  12  10    0.63    0.32 
   0  12 -10    0.31    0.25 
   1 -12  10    0.12    0.19 
  -1  12 -10    0.21    0.22 
   1  12  10    0.29    0.29 
   9   0 -11    0.62    0.23 
  -8   0  11    0.03    0.16 
  -7   0  11   11.16    0.68 
   7   0 -11   11.86    0.83 
  -6   0  11    0.23    0.18 
   6   0 -11   -0.02    0.23 
   5   0 -11    8.62    0.72 
  -5   0  11    7.56    0.50 
   4   0 -11    0.44    0.28 
  -4   0  11    0.16    0.15 
  -3   0  11    3.61    0.31 
   3   0 -11    3.88    0.57 
  -2   0  11   -0.08    0.10 
   2   0 -11    0.12    0.37 
   1   0 -11   57.84    3.33 
  -1   0  11   50.66    2.51 
   0   0  11   -0.02    0.10 
   0   0 -11    0.27    0.40 
   1   0  11    0.38    0.13 
  -1   0 -11    0.13    0.41 
  -2   0 -11   -0.56    0.36 
   2   0  11    0.09    0.11 
   3   0  11    3.37    0.30 
  -3   0 -11    3.46    0.56 
  -4   0 -11    0.08    0.15 
   4   0  11    0.06    0.14 
  -4   0 -11    0.23    0.29 
  -5   0 -11    0.70    0.22 
   5   0  11    0.71    0.17 
  -6   0 -11    0.04    0.20 
   6   0  11   -0.23    0.13 
  -7   0 -11    5.33    0.53 
   7   0  11    3.86    0.37 
   9  -1 -11    0.66    0.25 
   9   1 -11    0.23    0.21 
  -8  -1  11    9.19    0.60 
  -8   1  11    9.51    0.61 
   7  -1 -11    0.14    0.24 
  -7  -1  11   -0.16    0.15 
  -7   1  11    0.23    0.17 
   7   1 -11   -0.01    0.20 
  -6  -1  11    0.74    0.20 
   6  -1 -11    1.48    0.34 
  -6   1  11    0.89    0.21 
   6   1 -11    1.39    0.30 
  -5  -1  11    7.36    0.51 
   5  -1 -11    8.62    0.75 
   5   1 -11    9.27    0.71 
  -5   1  11    8.90    0.53 
   4  -1 -11    0.19    0.26 
  -4  -1  11    0.33    0.14 
  -4   1  11    0.25    0.14 
   4   1 -11    0.00    0.25 
   3  -1 -11    9.02    0.96 
  -3  -1  11   10.51    0.60 
  -3   1  11   11.23    0.61 
   3   1 -11   11.27    0.90 
  -2  -1  11    0.13    0.11 
   2  -1 -11    0.29    0.39 
  -2   1  11    0.12    0.13 
   2   1 -11   -0.24    0.32 
  -1  -1  11    6.57    0.40 
   1  -1 -11    8.00    0.88 
  -1   1  11    6.29    0.40 
   1   1 -11    9.53    0.94 
   0  -1  11   17.90    0.93 
   0  -1 -11   20.16    1.47 
   0   1 -11   20.26    1.45 
   0   1  11   17.67    0.93 
   1  -1  11    4.03    0.30 
  -1  -1 -11    5.11    0.79 
  -1   1 -11    3.29    0.62 
   1   1  11    4.27    0.30 
  -2  -1 -11   10.59    1.12 
   2  -1  11   11.73    0.63 
   2   1  11   11.28    0.63 
  -2   1 -11   11.99    0.98 
   3  -1  11    2.82    0.26 
  -3  -1 -11    3.48    0.61 
   3   1  11    2.56    0.25 
  -3   1 -11    3.28    0.28 
  -3   1 -11    2.45    0.44 
   4  -1  11    3.31    0.29 
  -4  -1 -11    4.31    0.57 
  -4  -1 -11    3.80    0.41 
  -4   1 -11    3.84    0.47 
   4   1  11    3.06    0.29 
  -4   1 -11    3.93    0.38 
  -5  -1 -11    0.69    0.23 
   5  -1  11    0.15    0.15 
  -5   1 -11    0.62    0.20 
   5   1  11    0.42    0.17 
  -6  -1 -11    2.20    0.37 
   6  -1  11    2.00    0.25 
  -6   1 -11    2.87    0.36 
   6   1  11    2.11    0.27 
   7  -1  11    0.85    0.19 
   7   1  11    0.72    0.19 
  -7   1 -11    1.09    0.29 
   9  -2 -11    3.18    0.36 
   9   2 -11    2.40    0.32 
  -8  -2  11    0.07    0.18 
  -8   2  11    0.17    0.19 
  -7  -2  11   -0.09    0.16 
   7   2 -11    0.29    0.21 
  -7   2  11    0.21    0.19 
  -6  -2  11    0.09    0.15 
   6  -2 -11    0.17    0.26 
  -6   2  11    0.23    0.18 
   6   2 -11    0.15    0.22 
   5  -2 -11    7.94    0.82 
  -5  -2  11    9.40    0.55 
   5   2 -11    9.89    0.77 
  -5   2  11    9.05    0.57 
   4  -2 -11   16.28    1.24 
  -4  -2  11   18.11    0.92 
   4   2 -11   18.34    1.23 
  -4   2  11   17.40    0.93 
  -3  -2  11   33.39    1.63 
   3  -2 -11   33.51    2.15 
   3   2 -11   36.06    2.15 
  -3   2  11   32.28    1.64 
  -2  -2  11    1.04    0.17 
   2  -2 -11    1.12    0.40 
   2   2 -11    1.50    0.44 
  -2   2  11    1.32    0.18 
  -1  -2  11    0.16    0.10 
   1  -2 -11    0.08    0.33 
   1   2 -11    0.69    0.39 
  -1   2  11    0.12    0.11 
   0  -2 -11    0.67    0.45 
   0  -2  11    0.00    0.11 
   0   2  11   -0.21    0.11 
   0   2 -11   -0.25    0.33 
   1  -2  11    3.52    0.27 
  -1  -2 -11    4.55    0.70 
  -1   2 -11    4.94    0.67 
   1   2  11    3.60    0.29 
   2  -2  11    7.84    0.45 
  -2  -2 -11    6.18    0.85 
  -2   2 -11    7.55    0.79 
   2   2  11    7.32    0.45 
  -2   2 -11    7.79    0.50 
  -3  -2 -11    0.14    0.41 
   3  -2  11    0.09    0.12 
  -3   2 -11    0.15    0.13 
   3   2  11   -0.02    0.13 
  -3   2 -11   -0.24    0.23 
   4  -2  11    2.10    0.24 
  -4  -2 -11    2.71    0.54 
  -4   2 -11    2.18    0.35 
  -4   2 -11    3.07    0.31 
   4   2  11    2.55    0.26 
   5  -2  11    6.38    0.42 
   5   2  11    6.13    0.43 
  -5   2 -11    6.30    0.52 
   6  -2  11    3.59    0.33 
   6   2  11    4.41    0.37 
  -6   2 -11    3.99    0.44 
   7  -2  11    0.09    0.16 
   7   2  11    0.22    0.17 
  -7   2 -11    0.68    0.25 
   9  -3 -11    3.75    0.39 
   9   3 -11    4.43    0.39 
   8   3 -11    0.07    0.16 
  -8   3  11    0.01    0.16 
  -7  -3  11    1.56    0.24 
  -7   3  11    1.89    0.27 
   7   3 -11    1.71    0.29 
   6  -3 -11    7.53    0.72 
  -6  -3  11    8.13    0.52 
   6   3 -11    7.91    0.65 
  -6   3  11    8.57    0.55 
   5  -3 -11   -0.31    0.26 
  -5  -3  11   -0.06    0.15 
   5   3 -11    0.20    0.25 
  -5   3  11   -0.05    0.16 
  -4  -3  11    0.46    0.14 
   4  -3 -11    0.62    0.35 
   4   3 -11    0.04    0.24 
  -4   3  11    0.22    0.17 
   3  -3 -11    1.08    0.36 
  -3  -3  11    1.71    0.21 
  -3   3  11    1.94    0.22 
   3   3 -11    2.22    0.43 
   2  -3 -11   18.69    1.45 
  -2  -3  11   21.69    1.05 
   2   3 -11   21.20    1.49 
  -2   3  11   21.49    1.06 
  -1  -3  11    2.42    0.22 
   1  -3 -11    2.11    0.48 
   1   3 -11    1.75    0.48 
  -1   3  11    2.43    0.23 
   0  -3  11    0.38    0.13 
   0  -3 -11    0.43    0.32 
   0  -3  11    0.46    0.12 
   0   3  11    0.61    0.15 
   0   3 -11    0.59    0.37 
  -1  -3 -11   15.43    1.28 
   1  -3  11   16.06    0.85 
   1  -3  11   17.45    1.01 
  -1   3 -11   16.37    1.24 
   1   3  11   17.01    0.86 
  -2  -3 -11    0.91    0.39 
   2  -3  11    1.59    0.20 
  -2   3 -11    2.30    0.22 
  -2   3 -11    2.18    0.41 
   2   3  11    1.39    0.19 
   3  -3  11    1.93    0.22 
  -3  -3 -11    2.48    0.52 
  -3   3 -11    2.54    0.26 
   3   3  11    2.26    0.24 
  -3   3 -11    2.63    0.39 
   4  -3  11   12.36    0.71 
  -4  -3 -11   12.45    1.10 
   4   3  11   13.38    0.72 
  -4   3 -11   13.37    0.90 
  -4   3 -11   14.16    0.87 
   5  -3  11    1.04    0.21 
  -5   3 -11    2.14    0.29 
   5   3  11    1.82    0.24 
   6  -3  11    0.26    0.18 
  -6   3 -11    0.50    0.21 
   6   3  11    0.45    0.19 
   7  -3  11    1.12    0.22 
  -7   3 -11    1.23    0.29 
   7   3  11    1.05    0.22 
   9  -4 -11    0.27    0.21 
   9   4 -11    0.39    0.18 
  -8   4  11    2.23    0.30 
   8   4 -11    2.16    0.27 
  -7  -4  11    0.10    0.16 
  -7   4  11    0.24    0.19 
   7   4 -11    0.17    0.20 
  -6  -4  11   11.43    0.95 
  -6  -4  11   13.84    0.75 
   6  -4 -11   13.06    1.02 
   6   4 -11   14.71    0.95 
  -6   4  11   14.75    0.79 
   5  -4 -11    0.83    0.33 
  -5  -4  11    1.42    0.20 
  -5  -4  11    0.92    0.26 
   5   4 -11    0.82    0.29 
  -5   4  11    0.96    0.22 
  -4  -4  11    0.25    0.20 
   4  -4 -11    0.00    0.29 
  -4  -4  11    0.47    0.15 
   4   4 -11    0.59    0.30 
  -4   4  11    0.30    0.16 
  -3  -4  11    2.59    0.29 
   3  -4 -11    1.30    0.40 
  -3  -4  11    2.18    0.23 
   3   4 -11    2.31    0.43 
  -3   4  11    2.11    0.25 
  -2  -4  11   15.71    0.81 
  -2  -4  11   16.40    0.98 
   2  -4 -11   15.09    1.18 
  -2   4  11   15.34    0.83 
   2   4 -11   16.04    1.19 
  -1  -4  11    1.04    0.16 
  -1  -4  11    0.49    0.13 
   1  -4 -11    0.28    0.34 
   1   4 -11    0.85    0.36 
  -1   4  11    0.62    0.14 
   0  -4 -11   14.99    1.23 
   0  -4  11   16.69    0.84 
   0  -4  11   17.79    1.01 
   0   4 -11   15.24    1.23 
   0   4  11   16.29    0.85 
   1  -4  11    0.90    0.16 
  -1  -4 -11    0.52    0.34 
   1  -4  11    0.84    0.14 
  -1   4 -11    0.37    0.28 
   1   4  11    0.46    0.14 
   2  -4  11    4.46    0.31 
  -2  -4 -11    4.25    0.66 
   2   4  11    4.11    0.30 
  -2   4 -11    4.76    0.52 
   3  -4  11    0.03    0.13 
  -3  -4 -11    0.21    0.35 
  -3   4 -11   -0.15    0.12 
  -3   4 -11   -0.07    0.20 
   3   4  11    0.29    0.14 
   4  -4  11    0.10    0.14 
  -4  -4 -11    0.23    0.34 
  -4   4 -11   -0.11    0.13 
  -4   4 -11   -0.09    0.17 
   4   4  11   -0.04    0.14 
   5  -4  11    0.17    0.14 
  -5   4 -11    0.06    0.17 
   5   4  11    0.18    0.14 
   6  -4  11   -0.15    0.13 
  -6   4 -11   -0.08    0.17 
   6   4  11    0.05    0.16 
   7  -4  11   -0.31    0.15 
  -7   4 -11   -0.02    0.20 
   7   4  11    0.05    0.16 
   8   5 -11    2.15    0.26 
  -8   5  11    2.00    0.29 
  -7  -5  11    3.91    0.33 
   7   5 -11    3.07    0.39 
  -7   5  11    2.74    0.31 
   6  -5 -11    2.10    0.42 
  -6  -5  11    2.08    0.37 
  -6  -5  11    2.80    0.28 
  -6   5  11    3.07    0.32 
   6   5 -11    2.78    0.38 
  -5  -5  11   -0.34    0.12 
  -5  -5  11   -0.09    0.19 
   5  -5 -11    0.13    0.27 
   5   5 -11    0.07    0.24 
  -5   5  11    0.08    0.17 
  -4  -5  11   -0.25    0.12 
  -4  -5  11   -0.01    0.17 
   4  -5 -11   -0.23    0.27 
  -4   5  11    0.02    0.16 
   4   5 -11   -0.13    0.22 
  -3  -5  11    1.17    0.22 
  -3  -5  11    0.78    0.16 
   3  -5 -11    0.43    0.30 
   3   5 -11    0.99    0.33 
  -3   5  11    0.71    0.18 
  -2  -5  11   16.94    0.80 
   2  -5 -11   16.97    1.19 
  -2  -5  11   14.73    0.97 
  -2   5  11   14.58    0.81 
   2   5 -11   15.16    1.18 
   1  -5 -11    5.34    0.68 
  -1  -5  11    6.66    0.38 
  -1  -5  11    6.25    0.47 
   1   5 -11    6.13    0.71 
  -1   5  11    6.57    0.40 
   0  -5 -11   10.55    0.86 
   0  -5  11    9.11    0.51 
   0  -5  11    9.86    0.64 
   0   5 -11    9.04    0.84 
   0   5  11    9.47    0.53 
   1  -5  11   20.22    1.23 
  -1  -5 -11   19.49    1.42 
   1  -5  11   20.07    1.00 
  -1   5 -11   20.49    1.37 
   1   5  11   20.77    1.02 
   2  -5  11    0.75    0.14 
  -2  -5 -11    1.70    0.42 
   2  -5  11    1.03    0.18 
  -2   5 -11    0.84    0.27 
   2   5  11    0.68    0.14 
   3  -5  11    1.60    0.20 
  -3  -5 -11    0.88    0.36 
  -3   5 -11    1.25    0.21 
   3   5  11    1.50    0.19 
  -4  -5 -11    1.69    0.46 
   4  -5  11    1.97    0.22 
  -4   5 -11    1.50    0.27 
  -4   5 -11    2.33    0.27 
   4   5  11    1.35    0.19 
   5  -5  11    2.20    0.25 
   5   5  11    2.24    0.25 
  -5   5 -11    2.64    0.32 
   6  -5  11    1.54    0.22 
  -6   5 -11    1.77    0.29 
   6   5  11    1.41    0.21 
   7  -5  11    1.11    0.22 
  -7   5 -11    1.23    0.28 
   7   5  11    1.12    0.22 
  -7  -6  11    0.58    0.27 
   7   6 -11    1.15    0.20 
  -7   6  11    0.99    0.21 
   7   6 -11    1.17    0.27 
  -6  -6  11    1.47    0.21 
  -6  -6  11    1.32    0.33 
   6  -6 -11    1.19    0.35 
  -6   6  11    0.99    0.21 
   6   6 -11    1.69    0.33 
   5  -6 -11    0.85    0.35 
  -5  -6  11    1.24    0.20 
  -5  -6  11    0.66    0.24 
  -5   6  11    1.04    0.22 
   5   6 -11    1.37    0.33 
   4  -6 -11   22.64    1.55 
  -4  -6  11   22.25    1.13 
  -4  -6  11   22.21    1.41 
   4   6 -11   23.26    1.49 
  -4   6  11   21.77    1.15 
  -3  -6  11    4.14    0.41 
   3  -6 -11    4.17    0.60 
  -3  -6  11    4.40    0.31 
  -3   6  11    4.20    0.34 
   3   6 -11    3.23    0.51 
  -2  -6  11    3.70    0.28 
   2  -6 -11    3.55    0.54 
  -2  -6  11    3.35    0.34 
  -2   6  11    3.33    0.30 
   2   6 -11    3.78    0.56 
  -1  -6  11    3.48    0.33 
  -1  -6  11    3.17    0.24 
   1  -6 -11    2.58    0.50 
   1   6 -11    3.52    0.52 
  -1   6  11    2.66    0.26 
   0  -6  11    0.29    0.15 
   0  -6  11    0.13    0.11 
   0  -6 -11    0.50    0.32 
   0   6  11    0.08    0.12 
   0   6 -11    0.47    0.31 
   1  -6  11    2.11    0.25 
   1  -6  11    1.68    0.18 
  -1  -6 -11    1.78    0.43 
   1   6  11    1.66    0.20 
  -1   6 -11    1.19    0.32 
   2  -6  11    3.02    0.31 
  -2  -6 -11    3.46    0.52 
   2  -6  11    2.64    0.23 
  -2   6 -11    2.70    0.38 
   2   6  11    3.16    0.27 
   3  -6  11    1.45    0.18 
  -3  -6 -11    1.21    0.38 
   3  -6  11    1.73    0.25 
   3   6  11    1.51    0.19 
  -3   6 -11    1.59    0.29 
  -4  -6 -11    2.28    0.48 
   4  -6  11    2.97    0.26 
   4   6  11    2.61    0.26 
  -4   6 -11    2.89    0.35 
  -4   6 -11    2.49    0.31 
   5  -6  11    2.34    0.26 
  -5   6 -11    2.93    0.34 
   5   6  11    2.67    0.27 
   6  -6  11    3.07    0.29 
   6   6  11    2.90    0.28 
  -6   6 -11    3.01    0.36 
   8  -7 -11    1.19    0.23 
  -7  -7  11    2.35    0.42 
   7   7 -11    3.07    0.38 
  -7   7  11    3.22    0.33 
   6  -7 -11    0.52    0.29 
  -6  -7  11    0.85    0.28 
   6   7 -11    0.54    0.26 
  -6   7  11    0.43    0.19 
   5  -7 -11    4.91    0.62 
  -5  -7  11    5.89    0.56 
  -5   7  11    5.85    0.43 
   5   7 -11    5.79    0.60 
   4  -7 -11    0.13    0.30 
  -4  -7  11   -0.17    0.18 
  -4   7  11   -0.06    0.15 
   4   7 -11    0.03    0.25 
   3  -7 -11    5.56    0.66 
  -3  -7  11    6.12    0.50 
  -3   7  11    6.02    0.41 
   3   7 -11    4.89    0.63 
  -2  -7  11    0.55    0.19 
   2  -7 -11    0.30    0.34 
   2   7 -11    0.40    0.28 
  -2   7  11    0.93    0.17 
   1  -7 -11    4.07    0.54 
  -1  -7  11    3.35    0.27 
  -1  -7  11    4.11    0.37 
   1   7 -11    3.08    0.49 
  -1   7  11    3.01    0.28 
   0  -7  11    1.01    0.21 
   0  -7  11    1.13    0.15 
   0  -7 -11    0.82    0.36 
   0   7  11    0.80    0.15 
   0   7 -11    0.74    0.29 
  -1  -7 -11    0.36    0.31 
   1  -7  11   -0.02    0.10 
   1  -7  11    0.08    0.15 
   1   7  11   -0.12    0.10 
  -1   7 -11    0.34    0.27 
   2  -7  11    3.19    0.24 
  -2  -7 -11    2.91    0.51 
   2  -7  11    2.78    0.32 
   2   7  11    3.33    0.27 
  -2   7 -11    2.96    0.42 
   3  -7  11   12.90    0.83 
  -3  -7 -11   11.61    1.00 
   3  -7  11   12.16    0.65 
  -3   7 -11   12.06    0.86 
   3   7  11   12.42    0.66 
   4  -7  11    1.23    0.18 
  -4  -7 -11    1.26    0.38 
  -4   7 -11    1.09    0.25 
   4   7  11    1.23    0.19 
   5  -7  11    3.10    0.29 
   5   7  11    3.49    0.30 
  -5   7 -11    3.24    0.37 
   6  -7  11    0.14    0.16 
  -6   7 -11    0.23    0.21 
   6   7  11    0.10    0.15 
  -7  -8  11    4.42    0.57 
   7   8 -11    4.52    0.48 
  -7   8  11    4.81    0.40 
  -6  -8  11    0.92    0.31 
   6  -8 -11    0.38    0.31 
   6   8 -11    0.39    0.26 
  -6   8  11    0.92    0.21 
  -5  -8  11    0.56    0.26 
   5  -8 -11    0.82    0.34 
   5   8 -11    0.95    0.32 
  -5   8  11    0.74    0.20 
   4  -8 -11    6.59    0.74 
  -4  -8  11    5.92    0.56 
   4   8 -11    7.12    0.70 
  -4   8  11    6.75    0.45 
   3  -8 -11    0.40    0.30 
  -3  -8  11    0.16    0.20 
   3   8 -11    0.17    0.27 
  -3   8  11    0.28    0.16 
  -2  -8  11    0.63    0.20 
   2  -8 -11    1.32    0.40 
   2   8 -11    0.87    0.33 
  -2   8  11    0.62    0.17 
   1  -8 -11   18.05    1.30 
  -1  -8  11   18.80    1.17 
  -1   8  11   17.99    0.94 
   1   8 -11   18.64    1.29 
   0  -8  11    0.41    0.18 
   0   8  11    0.77    0.16 
   0   8 -11    1.06    0.31 
  -1  -8 -11    1.53    0.38 
   1  -8  11    1.47    0.24 
   1   8  11    1.62    0.19 
  -1   8 -11    1.56    0.36 
   2  -8  11    1.73    0.26 
  -2  -8 -11    0.98    0.39 
   2   8  11    1.58    0.19 
  -2   8 -11    1.60    0.33 
   3  -8  11    1.83    0.28 
  -3  -8 -11    2.44    0.45 
  -3   8 -11    2.18    0.32 
   3   8  11    1.98    0.22 
   4  -8  11    0.45    0.21 
  -4  -8 -11    0.40    0.34 
  -4   8 -11    0.61    0.23 
   4   8  11    0.34    0.14 
   5  -8  11    1.73    0.29 
   5   8  11    1.60    0.22 
  -6  -9  11   -0.14    0.23 
   6  -9 -11    0.07    0.28 
  -6   9  11   -0.04    0.16 
   6   9 -11    0.01    0.22 
  -5  -9  11    0.70    0.28 
   5  -9 -11    1.62    0.41 
   5   9 -11    1.16    0.33 
  -5   9  11    1.48    0.24 
  -4  -9  11   -0.08    0.20 
   4  -9 -11    0.38    0.34 
  -4   9  11    0.00    0.16 
   4   9 -11   -0.10    0.23 
  -3  -9  11    1.34    0.28 
   3  -9 -11    1.81    0.46 
  -3   9  11    1.70    0.23 
   3   9 -11    2.00    0.41 
  -2  -9  11    0.12    0.18 
  -2   9  11    0.12    0.14 
   2   9 -11    0.17    0.31 
  -1  -9  11    0.41    0.20 
  -1   9  11    0.05    0.28 
   1   9 -11    0.52    0.30 
  -1   9  11    0.05    0.14 
   0  -9  11    7.79    0.60 
   0   9  11    8.81    0.49 
   0   9 -11    8.28    0.72 
   0   9  11    7.85    0.72 
   1  -9  11    6.08    0.51 
  -1   9 -11    7.18    0.63 
   1   9  11    6.05    0.69 
   2  -9  11    3.21    0.35 
  -2   9 -11    3.16    0.42 
   3  -9  11    0.21    0.18 
  -3  -9 -11   -0.25    0.28 
  -3   9 -11    0.07    0.20 
  -4  -9 -11    0.04    0.31 
   4  -9  11   -0.01    0.18 
  -5 -10  11    1.66    0.35 
   5 -10 -11    1.17    0.40 
   5  10 -11    1.23    0.35 
  -4 -10  11    0.89    0.28 
   4 -10 -11    0.76    0.37 
   4  10 -11    1.59    0.38 
  -3 -10  11    7.72    0.65 
   3 -10 -11    8.77    0.78 
   3  10 -11    7.07    0.78 
  -2 -10  11    1.02    0.25 
  -2  10  11    1.82    0.37 
   2  10 -11    1.49    0.38 
  -1 -10  11    0.75    0.23 
  -1  10  11    0.77    0.32 
   1  10 -11    1.25    0.35 
   0 -10  11    1.45    0.26 
   0  10 -11    0.81    0.30 
   0  10  11    1.01    0.34 
   1 -10  11    1.46    0.26 
  -1  10 -11    1.44    0.33 
   1  10  11    1.63    0.39 
   2 -10  11    3.20    0.38 
   2  10  11    3.17    0.48 
  -2  10 -11    3.26    0.41 
   3 -10  11    0.13    0.19 
  -3 -10 -11    0.28    0.31 
  -3  10 -11   -0.07    0.20 
   4 -10  11    0.37    0.21 
  -4 -10 -11    0.35    0.33 
  -4 -11  11    0.24    0.24 
   4 -11 -11    0.10    0.29 
   4  11 -11    0.35    0.28 
  -3 -11  11   -0.21    0.19 
  -3  11  11    0.15    0.25 
   3  11 -11   -0.30    0.27 
  -2 -11  11    4.99    0.46 
   2  11 -11    3.13    0.53 
  -2  11  11    4.54    0.55 
  -1 -11  11   -0.31    0.18 
   1  11 -11    0.26    0.28 
  -1  11  11   -0.22    0.23 
   0 -11  11   -0.06    0.18 
   0  11 -11    0.21    0.26 
   0  11  11    0.39    0.31 
   1 -11  11   -0.21    0.17 
   1  11  11   -0.04    0.25 
  -1  11 -11    0.16    0.26 
   2 -11  11    1.13    0.26 
  -2  11 -11    1.43    0.33 
   2  11  11    2.00    0.42 
  -1 -12  11    0.15    0.21 
  -1  12  11    0.33    0.31 
   1  12 -11   -0.04    0.26 
   0  12  11    0.61    0.33 
   0  12 -11    0.79    0.31 
   9   0 -12   -0.01    0.19 
  -8   0  12   -0.08    0.16 
   7   0 -12    0.18    0.23 
  -7   0  12    0.36    0.20 
   6   0 -12   -0.08    0.24 
  -6   0  12   -0.15    0.16 
   5   0 -12   -0.14    0.25 
  -5   0  12   -0.11    0.16 
  -4   0  12    0.85    0.18 
   4   0 -12    1.47    0.39 
   3   0 -12    0.16    0.32 
  -3   0  12    0.16    0.14 
   2   0 -12   44.82    2.69 
  -2   0  12   41.05    2.03 
  -1   0  12   -0.27    0.11 
   1   0 -12    0.53    0.41 
   0   0  12    3.57    0.28 
   0   0 -12    5.55    0.79 
  -1   0 -12    0.02    0.39 
   1   0  12    0.02    0.11 
  -2   0 -12    0.13    0.40 
   2   0  12    0.04    0.13 
  -3   0 -12   -0.47    0.30 
   3   0  12   -0.18    0.13 
   4   0  12   24.72    1.33 
  -4   0 -12   30.26    1.75 
   5   0  12   -0.04    0.16 
   6   0  12   -0.03    0.17 
   7   0  12    0.19    0.16 
   9  -1 -12    3.26    0.37 
   9   1 -12    2.47    0.33 
  -8  -1  12    0.01    0.16 
  -8   1  12   -0.03    0.18 
   7  -1 -12    1.97    0.37 
  -7  -1  12    1.89    0.27 
   7   1 -12    2.29    0.36 
  -7   1  12    1.91    0.27 
   6  -1 -12   10.37    0.79 
  -6  -1  12    9.42    0.59 
  -6   1  12    8.90    0.58 
   6   1 -12    9.30    0.76 
   5  -1 -12    7.80    0.74 
  -5  -1  12    8.00    0.53 
  -5   1  12    8.79    0.53 
   5   1 -12    7.87    0.72 
  -4  -1  12    0.84    0.17 
   4  -1 -12    0.69    0.33 
  -4   1  12    0.71    0.17 
   4   1 -12    0.92    0.35 
   3  -1 -12   19.78    1.45 
  -3  -1  12   19.36    1.03 
   3   1 -12   24.20    1.47 
  -3   1  12   19.64    1.04 
  -2  -1  12    0.54    0.14 
   2  -1 -12    0.12    0.33 
  -2   1  12    0.47    0.15 
   2   1 -12    0.58    0.38 
   1  -1 -12    0.92    0.43 
  -1  -1  12    0.35    0.14 
  -1   1  12    1.00    0.16 
   1   1 -12    0.49    0.41 
   0  -1 -12   12.82    1.07 
   0  -1  12   10.13    0.57 
   0   1 -12   11.54    1.14 
   0   1  12    9.94    0.57 
  -1  -1 -12    1.05    0.53 
   1  -1  12    0.92    0.16 
  -1   1 -12    1.19    0.48 
   1   1  12    1.57    0.20 
   2  -1  12    3.24    0.27 
  -2  -1 -12    3.29    0.62 
   2   1  12    3.04    0.27 
  -2   1 -12    3.54    0.57 
   3  -1  12    0.91    0.17 
  -3  -1 -12    0.87    0.45 
  -3   1 -12    1.39    0.39 
   3   1  12    0.89    0.16 
  -4  -1 -12    4.89    0.65 
   4  -1  12    4.88    0.35 
  -4   1 -12    5.22    0.56 
   4   1  12    4.68    0.36 
   5  -1  12    4.47    0.36 
   5   1  12    4.00    0.35 
   6  -1  12    1.02    0.22 
   6   1  12    1.07    0.21 
   7  -1  12    2.20    0.28 
   9  -2 -12    1.33    0.28 
   9   2 -12    1.66    0.27 
  -8  -2  12    3.73    0.35 
  -8   2  12    3.65    0.37 
  -7  -2  12    1.73    0.26 
   7  -2 -12    1.60    0.34 
   7   2 -12    1.46    0.30 
  -7   2  12    1.77    0.28 
   6  -2 -12   -0.24    0.25 
  -6  -2  12    0.17    0.17 
  -6   2  12    0.01    0.18 
   6   2 -12    0.21    0.21 
   5  -2 -12    6.54    0.72 
  -5  -2  12    6.62    0.47 
   5   2 -12    6.65    0.63 
  -5   2  12    7.98    0.50 
   4  -2 -12    9.65    0.89 
  -4  -2  12    9.84    0.58 
   4   2 -12   11.01    0.85 
  -4   2  12   10.10    0.59 
   3  -2 -12    0.41    0.33 
  -3  -2  12    1.04    0.18 
  -3   2  12    0.77    0.18 
   3   2 -12    0.25    0.35 
   2  -2 -12    0.73    0.37 
  -2  -2  12    0.78    0.16 
   2   2 -12    0.83    0.43 
  -2   2  12    0.69    0.15 
   1  -2 -12   -0.03    0.31 
  -1  -2  12   -0.06    0.12 
  -1   2  12   -0.09    0.10 
   1   2 -12   -0.57    0.29 
   0  -2 -12   10.09    1.07 
   0  -2  12    9.70    0.54 
   0   2  12    8.97    0.53 
   0   2 -12    9.90    1.05 
   1  -2  12   14.75    0.74 
  -1  -2 -12   13.84    1.21 
   1   2  12   13.18    0.74 
  -1   2 -12   14.60    1.18 
   2  -2  12   12.80    0.70 
  -2  -2 -12   14.78    1.21 
   2   2  12   12.21    0.70 
  -2   2 -12   16.08    1.11 
   3  -2  12    0.91    0.17 
  -3  -2 -12    0.40    0.43 
  -3   2 -12    1.13    0.33 
   3   2  12    0.94    0.17 
  -4  -2 -12    0.29    0.37 
   4  -2  12    0.28    0.15 
  -4   2 -12   -0.15    0.21 
   4   2  12    0.05    0.15 
   5  -2  12    0.82    0.20 
   5   2  12    0.56    0.18 
   6  -2  12    0.04    0.16 
   6   2  12    0.18    0.17 
   7  -2  12    1.10    0.22 
   7   2  12    0.95    0.22 
   9  -3 -12   -0.17    0.18 
   9   3 -12    0.05    0.17 
  -8  -3  12    1.05    0.21 
  -8   3  12    1.06    0.22 
  -7  -3  12    6.77    0.47 
   7   3 -12    6.63    0.56 
  -7   3  12    5.64    0.46 
   6  -3 -12    1.15    0.37 
  -6  -3  12    1.19    0.23 
   6   3 -12    1.32    0.32 
  -6   3  12    1.68    0.26 
  -5  -3  12    9.44    0.58 
   5  -3 -12    8.15    0.84 
  -5   3  12   10.95    0.62 
   5   3 -12   11.61    0.82 
   4  -3 -12   11.01    1.01 
  -4  -3  12   13.97    0.74 
   4   3 -12   14.26    1.02 
  -4   3  12   13.66    0.75 
  -3  -3  12    6.08    0.38 
   3  -3 -12    4.85    0.67 
  -3   3  12    5.87    0.41 
   3   3 -12    5.32    0.67 
  -2  -3  12    6.14    0.38 
   2  -3 -12    4.16    0.65 
   2   3 -12    6.08    0.73 
  -2   3  12    6.41    0.39 
   1  -3 -12    4.42    0.67 
  -1  -3  12    6.19    0.37 
  -1   3  12    5.92    0.39 
   1   3 -12    5.75    0.75 
   0  -3 -12    0.13    0.32 
   0  -3  12    0.43    0.14 
   0   3 -12    0.65    0.43 
   0   3  12    0.49    0.13 
  -1  -3 -12    2.20    0.52 
   1  -3  12    3.00    0.25 
  -1   3 -12    3.88    0.59 
   1   3  12    2.25    0.25 
   2  -3  12    0.65    0.15 
  -2  -3 -12    0.80    0.43 
  -2   3 -12    0.82    0.35 
   2   3  12    0.53    0.15 
   3  -3  12   12.41    0.68 
  -3  -3 -12   12.70    1.14 
  -3   3 -12   13.07    0.93 
   3   3  12   12.35    0.68 
  -4  -3 -12    0.53    0.40 
   4  -3  12    0.67    0.16 
  -4   3 -12    0.69    0.25 
   4   3  12    0.72    0.18 
   5  -3  12   -0.15    0.15 
   5   3  12   -0.13    0.14 
   6  -3  12    3.26    0.31 
   6   3  12    2.71    0.30 
   7  -3  12    0.08    0.15 
   7   3  12    0.22    0.18 
   8   4 -12    0.90    0.21 
  -8   4  12    0.51    0.21 
  -7  -4  12    1.34    0.23 
  -7   4  12    1.62    0.27 
   7   4 -12    1.99    0.32 
   6  -4 -12   -0.22    0.25 
  -6  -4  12   -0.08    0.16 
  -6   4  12   -0.22    0.17 
   6   4 -12    0.14    0.23 
   5  -4 -12    2.35    0.48 
  -5  -4  12    3.01    0.29 
  -5   4  12    2.34    0.29 
   5   4 -12    3.27    0.46 
   4  -4 -12   -0.01    0.28 
  -4  -4  12    0.24    0.15 
  -4   4  12    0.06    0.14 
   4   4 -12   -0.03    0.25 
   3  -4 -12    1.15    0.39 
  -3  -4  12    1.43    0.20 
   3   4 -12    1.31    0.37 
  -3   4  12    1.30    0.20 
  -2  -4  12    0.70    0.15 
   2  -4 -12    0.44    0.31 
   2   4 -12    1.13    0.42 
  -2   4  12    0.70    0.16 
  -1  -4  12   27.81    1.34 
   1  -4 -12   26.40    1.86 
  -1   4  12   28.01    1.35 
   1   4 -12   27.38    1.88 
   0  -4  12    3.59    0.28 
   0  -4 -12    3.97    0.62 
   0   4 -12    4.94    0.65 
   0   4  12    3.71    0.30 
   1  -4  12    0.92    0.15 
  -1  -4 -12    0.41    0.41 
   1   4  12    0.73    0.15 
  -1   4 -12    0.53    0.32 
  -2  -4 -12    1.47    0.46 
   2  -4  12    1.38    0.18 
  -2   4 -12    1.78    0.38 
   2   4  12    1.28    0.19 
   3  -4  12    2.94    0.26 
  -3  -4 -12    2.75    0.56 
  -3   4 -12    2.95    0.41 
   3   4  12    2.76    0.27 
   4  -4  12    0.10    0.14 
  -4  -4 -12    0.06    0.35 
  -4   4 -12   -0.04    0.19 
   4   4  12   -0.03    0.12 
   5  -4  12    6.36    0.42 
   5   4  12    5.69    0.40 
   6  -4  12    0.08    0.16 
   6   4  12   -0.09    0.15 
   8   5 -12    4.35    0.37 
  -8   5  12    4.03    0.39 
  -7  -5  12    0.24    0.16 
   7   5 -12    0.45    0.23 
  -7   5  12    0.38    0.19 
   6  -5 -12    2.90    0.48 
  -6  -5  12    2.92    0.29 
  -6   5  12    2.93    0.32 
   6   5 -12    2.20    0.36 
  -5  -5  12    0.94    0.18 
   5  -5 -12    0.75    0.36 
  -5   5  12    0.42    0.19 
   5   5 -12    0.30    0.27 
  -4  -5  12   13.10    0.68 
   4  -5 -12   10.20    0.96 
  -4   5  12   11.94    0.69 
   4   5 -12   12.80    0.95 
   3  -5 -12    9.33    0.88 
  -3  -5  12    9.51    0.55 
   3   5 -12   10.98    0.90 
  -3   5  12    9.85    0.58 
   2  -5 -12    3.07    0.54 
  -2  -5  12    2.23    0.22 
  -2   5  12    2.12    0.23 
   2   5 -12    1.60    0.43 
   1  -5 -12    1.60    0.44 
  -1  -5  12    1.17    0.17 
  -1   5  12    1.21    0.17 
   1   5 -12    0.91    0.43 
   0  -5 -12    0.88    0.37 
   0  -5  12    0.57    0.13 
   0   5  12    1.00    0.17 
   0   5 -12    1.38    0.40 
   1  -5  12    1.86    0.20 
  -1  -5 -12    1.60    0.44 
  -1   5 -12    2.24    0.44 
   1   5  12    2.28    0.23 
  -2  -5 -12    0.14    0.34 
   2  -5  12    0.20    0.12 
  -2   5 -12    0.49    0.27 
   2   5  12    0.05    0.12 
  -3  -5 -12    3.28    0.60 
   3  -5  12    4.18    0.31 
  -3   5 -12    4.40    0.48 
   3   5  12    4.07    0.32 
   4  -5  12    1.09    0.18 
  -4  -5 -12    1.26    0.42 
   4   5  12    0.95    0.18 
  -4   5 -12    1.10    0.26 
   5  -5  12    0.25    0.14 
   5   5  12    0.11    0.14 
   6  -5  12    5.36    0.40 
   6   5  12    5.39    0.40 
  -8   6  12    1.16    0.23 
  -7   6  12    3.00    0.33 
   7   6 -12    2.52    0.38 
   6  -6 -12    0.33    0.29 
  -6  -6  12    0.54    0.18 
  -6   6  12    0.80    0.22 
   6   6 -12    0.68    0.28 
   5  -6 -12    1.83    0.42 
  -5  -6  12    1.86    0.23 
  -5   6  12    2.00    0.27 
   5   6 -12    1.25    0.31 
  -4  -6  12    5.19    0.34 
   4  -6 -12    3.78    0.60 
  -4   6  12    3.60    0.34 
   4   6 -12    3.52    0.51 
  -3  -6  12    3.21    0.28 
   3  -6 -12    3.00    0.55 
   3   6 -12    3.00    0.50 
  -3   6  12    3.00    0.28 
  -2  -6  12    1.41    0.19 
   2  -6 -12    1.54    0.41 
   2   6 -12    1.14    0.39 
  -2   6  12    1.34    0.20 
  -1  -6  12    5.36    0.32 
   1  -6 -12    3.57    0.57 
   1   6 -12    4.54    0.62 
  -1   6  12    4.04    0.31 
   0  -6 -12    0.64    0.35 
   0  -6  12    0.16    0.11 
   0   6 -12    0.03    0.27 
   0   6  12    0.20    0.11 
  -1  -6 -12   14.33    1.11 
   1  -6  12   13.01    0.69 
   1  -6  12   13.98    0.85 
   1   6  12   12.75    0.70 
  -1   6 -12   12.68    1.00 
   2  -6  12    4.15    0.30 
   2  -6  12    4.33    0.37 
  -2  -6 -12    3.66    0.58 
   2   6  12    4.55    0.32 
  -2   6 -12    4.56    0.52 
  -3  -6 -12    1.64    0.45 
   3  -6  12    2.56    0.23 
   3  -6  12    2.34    0.29 
   3   6  12    2.57    0.25 
  -3   6 -12    2.40    0.36 
   4  -6  12    0.52    0.16 
  -4  -6 -12    0.39    0.37 
  -4   6 -12    0.83    0.21 
   4   6  12    0.69    0.17 
  -4   6 -12    0.62    0.22 
   5  -6  12    0.48    0.16 
   5   6  12    0.68    0.17 
   6  -6  12    0.14    0.16 
   6   6  12   -0.12    0.14 
   7   7 -12    1.24    0.28 
  -7   7  12    0.82    0.22 
   6  -7 -12   10.71    0.98 
  -6   7  12   13.29    0.75 
   6   7 -12   13.97    0.94 
   5  -7 -12   -0.06    0.29 
   5   7 -12    0.07    0.26 
  -5   7  12    0.12    0.17 
   4  -7 -12    0.92    0.36 
  -4   7  12    1.23    0.22 
   4   7 -12    1.37    0.37 
   3  -7 -12    3.31    0.55 
  -3   7  12    2.70    0.28 
   3   7 -12    2.90    0.51 
   2  -7 -12    0.67    0.35 
  -2   7  12    0.32    0.15 
   2   7 -12    0.23    0.33 
   1  -7 -12    0.11    0.29 
  -1  -7  12    0.17    0.16 
   1   7 -12    0.19    0.29 
  -1   7  12    0.32    0.14 
   0  -7 -12    7.77    0.81 
   0  -7  12    7.58    0.44 
   0  -7  12    7.10    0.54 
   0   7  12    7.33    0.45 
   0   7 -12    7.82    0.70 
   1  -7  12    0.46    0.16 
   1  -7  12    0.36    0.12 
  -1  -7 -12    0.94    0.38 
  -1   7 -12    0.26    0.28 
   1   7  12    0.05    0.12 
  -2  -7 -12    0.98    0.39 
   2  -7  12    1.21    0.17 
   2  -7  12    1.18    0.21 
  -2   7 -12    1.05    0.31 
   2   7  12    1.54    0.20 
  -3  -7 -12   -0.04    0.32 
   3  -7  12    0.02    0.12 
   3  -7  12   -0.01    0.15 
   3   7  12   -0.01    0.13 
  -3   7 -12   -0.18    0.19 
  -4  -7 -12    3.08    0.57 
   4  -7  12    5.08    0.34 
   4  -7  12    4.73    0.43 
  -4   7 -12    4.31    0.46 
   4   7  12    4.92    0.34 
   5  -7  12    0.27    0.15 
   5   7  12    0.43    0.15 
   6  -8 -12   -0.09    0.27 
   6   8 -12    0.32    0.25 
  -6   8  12    0.06    0.18 
   5  -8 -12    0.64    0.36 
  -5   8  12    0.18    0.18 
   5   8 -12    0.45    0.26 
   4  -8 -12    1.58    0.45 
   4   8 -12    2.17    0.43 
  -4   8  12    2.15    0.26 
   3  -8 -12    0.32    0.32 
   3   8 -12    0.30    0.30 
  -3   8  12    0.66    0.18 
   2  -8 -12   11.02    0.93 
  -2  -8  12   10.83    0.75 
  -2   8  12   10.44    0.60 
   2   8 -12    9.02    0.87 
   1  -8 -12    0.79    0.34 
  -1  -8  12    0.98    0.22 
   1   8 -12    1.21    0.36 
  -1   8  12    0.91    0.17 
   0  -8  12    3.61    0.36 
   0  -8 -12    3.03    0.54 
   0   8 -12    2.96    0.48 
   0   8  12    3.15    0.28 
  -1  -8 -12    3.07    0.53 
   1  -8  12    2.47    0.29 
   1   8  12    2.30    0.24 
  -1   8 -12    2.55    0.41 
   2  -8  12   -0.09    0.15 
  -2  -8 -12   -0.01    0.31 
  -2   8 -12    0.08    0.21 
   2   8  12    0.06    0.12 
   3  -8  12    1.39    0.25 
  -3  -8 -12    0.97    0.38 
  -3   8 -12    2.65    0.36 
   3   8  12    1.61    0.21 
  -4  -8 -12    4.09    0.62 
   4  -8  12    3.66    0.39 
   4   8  12    3.52    0.30 
   5  -8  12    0.13    0.19 
   5   8  12    0.19    0.14 
   6  -9 -12   -0.01    0.28 
  -6   9  12    0.38    0.19 
   6   9 -12    0.21    0.26 
   5  -9 -12    0.51    0.32 
   5   9 -12    0.52    0.31 
  -5   9  12    0.62    0.20 
   4  -9 -12    2.83    0.52 
  -4   9  12    3.53    0.33 
   4   9 -12    3.16    0.50 
   3  -9 -12    5.02    0.67 
   3   9 -12    4.77    0.64 
  -3   9  12    5.08    0.38 
  -2  -9  12    2.85    0.35 
   2  -9 -12    2.02    0.49 
   2   9 -12    2.31    0.46 
  -2   9  12    3.54    0.30 
   1  -9 -12    0.05    0.29 
  -1  -9  12   -0.05    0.17 
  -1   9  12   -0.02    0.14 
   1   9 -12    0.27    0.30 
   0  -9 -12    1.61    0.43 
   0  -9  12    1.43    0.25 
   0   9  12    1.46    0.21 
   0   9 -12    1.35    0.36 
  -1  -9 -12    0.64    0.32 
   1  -9  12    0.77    0.20 
  -1   9 -12    0.85    0.32 
   2  -9  12    0.34    0.18 
  -2  -9 -12    0.36    0.31 
  -2   9 -12    0.02    0.23 
  -3  -9 -12   -0.12    0.30 
   3  -9  12   -0.09    0.16 
  -3   9 -12    0.11    0.22 
   4  -9  12    0.07    0.18 
  -4  -9 -12   -0.08    0.32 
   5 -10 -12    0.35    0.35 
   5  10 -12    0.45    0.30 
   4 -10 -12    2.49    0.52 
   4  10 -12    2.74    0.48 
   3 -10 -12   -0.29    0.32 
   3  10 -12   -0.05    0.28 
   2 -10 -12    0.82    0.38 
  -2 -10  12    0.89    0.24 
   2  10 -12    0.92    0.39 
   1 -10 -12    2.50    0.51 
  -1 -10  12    1.60    0.28 
   1  10 -12    2.34    0.47 
   0 -10 -12    3.18    0.52 
   0 -10  12    2.24    0.32 
   0  10 -12    3.72    0.51 
  -1 -10 -12    1.83    0.42 
   1 -10  12    1.63    0.27 
  -1  10 -12    1.15    0.32 
  -2 -10 -12    3.73    0.58 
   2 -10  12    3.36    0.38 
  -2  10 -12    3.41    0.44 
  -3 -10 -12   -0.06    0.31 
   3 -10  12   -0.13    0.18 
  -3  10 -12   -0.23    0.20 
   3 -11 -12    0.14    0.34 
   3  11 -12   -0.18    0.26 
  -2 -11  12   -0.22    0.17 
   2 -11 -12    0.17    0.33 
   2  11 -12   -0.07    0.27 
   1 -11 -12    2.50    0.47 
  -1 -11  12    2.38    0.34 
   1  11 -12    2.53    0.46 
   0 -11  12    0.13    0.19 
   0  11 -12    0.13    0.26 
   1 -11  12    0.21    0.19 
  -1 -11 -12    0.11    0.31 
  -1  11 -12    0.02    0.26 
  -8   0  13    0.01    0.17 
   7   0 -13    3.08    0.42 
  -7   0  13    2.55    0.31 
  -6   0  13    0.03    0.16 
   6   0 -13    0.11    0.25 
   5   0 -13   31.62    1.97 
  -5   0  13   30.60    1.56 
  -4   0  13    0.05    0.14 
   4   0 -13   -0.23    0.29 
   3   0 -13    0.70    0.36 
  -3   0  13    0.37    0.14 
   2   0 -13    0.04    0.33 
  -2   0  13   -0.16    0.13 
  -1   0  13    1.22    0.19 
   1   0 -13    1.35    0.51 
   0   0 -13    0.11    0.38 
   0   0  13    0.19    0.13 
   1   0  13    1.85    0.23 
  -1   0 -13    1.87    0.56 
  -2   0 -13   -0.24    0.34 
   2   0  13    0.02    0.13 
  -3   0 -13   22.43    1.46 
   3   0  13   18.46    1.00 
   4   0  13    0.03    0.14 
  -4   0 -13   -0.31    0.28 
   5   0  13    5.31    0.40 
   6   0  13    0.05    0.17 
  -8  -1  13   -0.18    0.17 
  -8   1  13    0.25    0.20 
  -7  -1  13    4.42    0.40 
   7  -1 -13    5.03    0.55 
   7   1 -13    5.45    0.54 
  -7   1  13    4.62    0.43 
   6  -1 -13    0.33    0.29 
  -6  -1  13    0.11    0.15 
  -6   1  13   -0.10    0.18 
   6   1 -13   -0.08    0.23 
   5  -1 -13    0.00    0.28 
  -5  -1  13   -0.16    0.16 
   5   1 -13   -0.45    0.25 
  -5   1  13    0.02    0.16 
   4  -1 -13    8.71    0.84 
  -4  -1  13    8.76    0.55 
   4   1 -13    9.28    0.80 
  -4   1  13    9.46    0.55 
   3  -1 -13    1.85    0.44 
  -3  -1  13    1.61    0.22 
   3   1 -13    1.88    0.48 
  -3   1  13    1.16    0.20 
   2  -1 -13   15.22    1.11 
  -2  -1  13   11.56    0.68 
   2   1 -13   14.03    1.09 
  -2   1  13   12.35    0.69 
   1  -1 -13   14.20    1.16 
  -1  -1  13   12.92    0.71 
  -1   1  13   12.62    0.70 
   1   1 -13   15.01    1.21 
   0  -1 -13    3.06    0.61 
   0  -1  13    1.71    0.20 
   0   1  13    2.02    0.22 
   0   1 -13    2.95    0.63 
   1  -1  13    0.71    0.15 
  -1  -1 -13    0.31    0.43 
  -1   1 -13    0.69    0.47 
   1   1  13    0.69    0.17 
  -2  -1 -13    6.83    0.87 
   2  -1  13    6.78    0.43 
  -2   1 -13    7.51    0.85 
   2   1  13    7.49    0.45 
   3  -1  13    3.48    0.32 
  -3  -1 -13    5.29    0.71 
  -3   1 -13    3.09    0.55 
   3   1  13    4.18    0.32 
   4  -1  13    0.16    0.16 
  -4  -1 -13    0.21    0.33 
   4   1  13    0.12    0.15 
  -4   1 -13    0.21    0.26 
   5  -1  13    1.18    0.20 
   5   1  13    0.93    0.20 
   6  -1  13    0.64    0.19 
   6   1  13    0.97    0.20 
  -8  -2  13    6.62    0.49 
  -8   2  13    7.31    0.52 
  -7  -2  13    9.25    0.58 
   7  -2 -13    9.59    0.78 
  -7   2  13    9.04    0.61 
   7   2 -13    9.39    0.73 
   6  -2 -13    0.43    0.29 
  -6  -2  13    0.42    0.17 
  -6   2  13    0.47    0.18 
   6   2 -13    0.40    0.27 
  -5  -2  13   -0.04    0.14 
   5  -2 -13    0.04    0.29 
  -5   2  13    0.25    0.19 
   5   2 -13    0.33    0.26 
   4  -2 -13    0.34    0.31 
  -4  -2  13    0.10    0.15 
  -4   2  13    0.11    0.16 
   4   2 -13    0.12    0.31 
   3  -2 -13    1.21    0.40 
  -3  -2  13    1.22    0.20 
   3   2 -13    1.27    0.39 
  -3   2  13    1.02    0.18 
   2  -2 -13    4.00    0.61 
  -2  -2  13    2.77    0.26 
  -2   2  13    3.49    0.30 
   2   2 -13    4.76    0.69 
   1  -2 -13   -0.19    0.37 
  -1  -2  13    0.14    0.13 
  -1   2  13    0.20    0.12 
   1   2 -13    0.66    0.45 
   0  -2  13    5.51    0.37 
   0  -2 -13    8.03    0.91 
   0   2 -13    6.00    0.80 
   0   2  13    5.81    0.38 
   1  -2  13   11.29    0.63 
  -1  -2 -13   13.69    1.15 
   1   2  13   10.93    0.64 
  -1   2 -13   12.27    1.04 
  -2  -2 -13    4.71    0.74 
   2  -2  13    4.21    0.32 
  -2   2 -13    4.62    0.64 
   2   2  13    4.08    0.33 
   3  -2  13    0.50    0.15 
  -3  -2 -13    0.88    0.41 
   3   2  13    0.41    0.16 
  -3   2 -13    0.29    0.30 
  -4  -2 -13    1.00    0.43 
   4  -2  13    0.89    0.19 
   4   2  13    0.65    0.18 
  -4   2 -13    0.89    0.30 
   5  -2  13    1.08    0.19 
   5   2  13    0.99    0.21 
   6  -2  13    1.84    0.25 
   6   2  13    2.05    0.26 
  -8  -3  13   -0.29    0.14 
  -8   3  13    0.05    0.19 
   7  -3 -13   -0.07    0.26 
  -7  -3  13   -0.12    0.16 
  -7   3  13    0.21    0.21 
   7   3 -13    0.13    0.21 
  -6  -3  13    5.45    0.42 
   6  -3 -13    4.47    0.60 
   6   3 -13    6.33    0.57 
  -6   3  13    5.61    0.43 
   5  -3 -13    1.63    0.42 
  -5  -3  13    1.70    0.24 
  -5   3  13    1.46    0.24 
   5   3 -13    1.24    0.32 
  -4  -3  13    1.13    0.19 
   4  -3 -13    1.02    0.37 
  -4   3  13    0.57    0.17 
   4   3 -13    0.85    0.35 
  -3  -3  13    4.14    0.32 
   3  -3 -13    4.35    0.66 
  -3   3  13    3.69    0.33 
   3   3 -13    4.11    0.60 
   2  -3 -13    6.72    0.86 
  -2  -3  13    8.51    0.50 
  -2   3  13    8.26    0.51 
   2   3 -13   11.40    0.95 
  -1  -3  13    3.31    0.28 
   1  -3 -13    3.08    0.61 
  -1   3  13    3.54    0.28 
   1   3 -13    3.02    0.62 
   0  -3 -13   15.38    1.31 
   0  -3  13   15.35    0.81 
   0   3  13   16.50    0.83 
   0   3 -13   15.29    1.26 
   1  -3  13    5.55    0.35 
  -1  -3 -13    4.52    0.76 
   1   3  13    5.41    0.36 
  -1   3 -13    4.51    0.67 
  -2  -3 -13    3.51    0.67 
   2  -3  13    2.75    0.27 
   2   3  13    3.07    0.28 
  -2   3 -13    3.57    0.51 
   3  -3  13    2.45    0.23 
  -3  -3 -13    2.36    0.60 
  -3   3 -13    2.03    0.40 
   3   3  13    1.72    0.22 
   4  -3  13   -0.05    0.14 
  -4  -3 -13   -0.25    0.34 
   4   3  13    0.13    0.14 
  -4   3 -13    0.07    0.22 
   5  -3  13    0.85    0.19 
   5   3  13    0.47    0.18 
   6  -3  13    0.19    0.18 
   6   3  13    0.56    0.19 
  -8  -4  13    0.24    0.19 
  -8   4  13   -0.03    0.18 
  -7  -4  13    0.29    0.18 
   7   4 -13    0.32    0.23 
  -7   4  13    0.16    0.18 
  -6  -4  13    9.10    0.55 
   6  -4 -13    8.20    0.78 
  -6   4  13    8.06    0.55 
   6   4 -13    8.98    0.72 
  -5  -4  13   -0.12    0.15 
   5  -4 -13   -0.04    0.33 
   5   4 -13   -0.05    0.22 
  -5   4  13   -0.04    0.15 
   4  -4 -13    5.60    0.74 
  -4  -4  13    7.20    0.47 
  -4   4  13    7.62    0.49 
   4   4 -13    8.12    0.72 
   3  -4 -13    1.16    0.40 
  -3  -4  13    1.14    0.19 
  -3   4  13    1.58    0.22 
   3   4 -13    1.98    0.43 
   2  -4 -13    2.33    0.49 
  -2  -4  13    2.30    0.23 
   2   4 -13    2.66    0.51 
  -2   4  13    2.09    0.24 
  -1  -4  13    0.89    0.16 
   1  -4 -13    1.06    0.41 
   1   4 -13    1.01    0.42 
  -1   4  13    0.97    0.16 
   0  -4 -13   -0.13    0.28 
   0  -4  13   -0.01    0.11 
   0   4  13    0.13    0.12 
   0   4 -13   -0.21    0.31 
  -1  -4 -13    1.49    0.48 
   1  -4  13    1.45    0.18 
   1   4  13    1.09    0.19 
  -1   4 -13    1.23    0.39 
  -2  -4 -13    0.98    0.45 
   2  -4  13    1.59    0.20 
   2   4  13    1.46    0.20 
  -2   4 -13    1.00    0.33 
   3  -4  13    0.83    0.17 
  -3  -4 -13    0.94    0.46 
  -3   4 -13    0.77    0.29 
   3   4  13    0.89    0.18 
  -4  -4 -13   12.15    1.09 
   4  -4  13   12.18    0.66 
  -4   4 -13   12.91    0.87 
   4   4  13   11.35    0.67 
   5  -4  13    0.05    0.15 
   5   4  13    0.12    0.16 
   6  -4  13   -0.05    0.14 
   6   4  13    0.10    0.17 
   8   5 -13    0.01    0.16 
  -8   5  13   -0.06    0.19 
  -7  -5  13    0.12    0.16 
   7   5 -13    0.17    0.22 
  -7   5  13    0.31    0.20 
   6  -5 -13    0.77    0.35 
  -6  -5  13    0.74    0.20 
  -6   5  13    0.46    0.21 
   6   5 -13    0.87    0.28 
  -5  -5  13    5.59    0.43 
   5  -5 -13    5.56    0.71 
   5   5 -13    7.26    0.64 
  -5   5  13    5.88    0.45 
  -4  -5  13    3.32    0.30 
   4  -5 -13    2.09    0.47 
   4   5 -13    3.07    0.48 
  -4   5  13    3.45    0.33 
   3  -5 -13   13.06    1.21 
  -3  -5  13   16.96    0.84 
  -3   5  13   16.09    0.86 
   3   5 -13   16.48    1.23 
  -2  -5  13   -0.02    0.12 
   2  -5 -13   -0.08    0.27 
  -2   5  13   -0.08    0.13 
   2   5 -13   -0.10    0.34 
   1  -5 -13    0.98    0.42 
  -1  -5  13    1.32    0.18 
  -1   5  13    1.53    0.19 
   1   5 -13    1.25    0.42 
   0  -5  13    2.92    0.25 
   0  -5 -13    3.09    0.56 
   0   5  13    3.47    0.26 
   0   5 -13    3.32    0.58 
   1  -5  13    3.47    0.27 
  -1  -5 -13    1.52    0.49 
  -1   5 -13    3.20    0.51 
   1   5  13    2.79    0.26 
   2  -5  13    4.59    0.30 
  -2  -5 -13    3.46    0.61 
  -2   5 -13    3.59    0.49 
   2   5  13    3.92    0.30 
  -3  -5 -13    2.06    0.53 
   3  -5  13    2.68    0.25 
   3   5  13    2.82    0.27 
  -3   5 -13    3.19    0.42 
  -4  -5 -13    0.01    0.36 
   4  -5  13    0.00    0.14 
   4   5  13   -0.16    0.13 
  -4   5 -13   -0.24    0.18 
   5  -5  13    1.13    0.20 
   5   5  13    0.91    0.20 
   6  -5  13    0.47    0.18 
   6   5  13    0.46    0.18 
  -7   6  13    0.75    0.21 
   7   6 -13    0.88    0.27 
   6  -6 -13    2.87    0.50 
  -6  -6  13    2.96    0.29 
  -6   6  13    2.10    0.29 
   6   6 -13    1.87    0.36 
   5  -6 -13    1.55    0.42 
  -5  -6  13    2.17    0.26 
   5   6 -13    2.26    0.39 
  -5   6  13    2.66    0.29 
   4  -6 -13    0.58    0.34 
  -4  -6  13    0.88    0.19 
   4   6 -13    1.22    0.38 
  -4   6  13    1.02    0.20 
  -3  -6  13    2.07    0.23 
   3  -6 -13    1.65    0.48 
   3   6 -13    1.86    0.47 
  -3   6  13    2.17    0.25 
  -2  -6  13    0.52    0.15 
   2  -6 -13    0.68    0.36 
   2   6 -13    0.06    0.35 
  -2   6  13    0.86    0.17 
  -1  -6  13    0.93    0.16 
   1  -6 -13    1.22    0.43 
  -1   6  13    0.59    0.17 
   1   6 -13    0.26    0.34 
   0  -6  13    2.27    0.21 
   0  -6 -13    2.00    0.47 
   0   6  13    1.58    0.21 
   0   6 -13    2.13    0.45 
  -1  -6 -13    2.43    0.51 
   1  -6  13    2.83    0.25 
  -1   6 -13    3.37    0.51 
   1   6  13    3.70    0.29 
  -2  -6 -13    3.05    0.59 
   2  -6  13    3.88    0.28 
   2   6  13    3.57    0.30 
  -2   6 -13    3.68    0.49 
  -3  -6 -13    0.19    0.35 
   3  -6  13    0.35    0.14 
   3   6  13    0.14    0.15 
  -3   6 -13    0.05    0.21 
  -4  -6 -13    0.37    0.35 
   4  -6  13    0.04    0.14 
   4   6  13    0.16    0.14 
  -4   6 -13    0.19    0.25 
   5  -6  13    0.04    0.15 
   5   6  13   -0.08    0.14 
   7   7 -13    1.66    0.32 
  -7   7  13    2.11    0.28 
   6  -7 -13    0.22    0.28 
  -6   7  13   -0.16    0.17 
   6   7 -13   -0.17    0.23 
   5  -7 -13    0.13    0.31 
  -5   7  13    0.46    0.19 
   5   7 -13    0.19    0.25 
   4  -7 -13    1.53    0.46 
   4   7 -13    1.77    0.40 
  -4   7  13    2.34    0.29 
   3  -7 -13    0.17    0.31 
   3   7 -13    0.60    0.33 
  -3   7  13    0.67    0.18 
   2  -7 -13    1.40    0.42 
  -2   7  13    1.92    0.23 
   2   7 -13    1.00    0.38 
   1  -7 -13   16.32    1.25 
   1   7 -13   16.18    1.20 
  -1   7  13   15.30    0.83 
   0  -7 -13    0.00    0.29 
   0   7 -13    0.34    0.29 
   0   7  13    0.41    0.15 
  -1  -7 -13    1.44    0.40 
  -1   7 -13    1.66    0.36 
   1   7  13    1.32    0.19 
  -2  -7 -13    0.89    0.41 
   2  -7  13    0.63    0.14 
  -2   7 -13    0.38    0.25 
   2   7  13    0.78    0.17 
   3  -7  13    0.15    0.12 
  -3  -7 -13    0.71    0.38 
  -3   7 -13    0.12    0.23 
   3   7  13    0.40    0.16 
  -4  -7 -13    0.19    0.32 
   4  -7  13    0.17    0.14 
   4   7  13    0.15    0.14 
   5   7  13    0.77    0.18 
   6  -8 -13    1.53    0.40 
   6   8 -13    1.24    0.30 
  -6   8  13    0.69    0.22 
   5  -8 -13    3.99    0.61 
   5   8 -13    5.03    0.60 
  -5   8  13    5.70    0.42 
   4  -8 -13    1.22    0.42 
  -4   8  13    0.70    0.20 
   4   8 -13    0.31    0.33 
   3  -8 -13   -0.05    0.30 
   3   8 -13    0.08    0.29 
  -3   8  13    0.33    0.17 
   2  -8 -13    0.34    0.32 
  -2   8  13    0.75    0.18 
   2   8 -13    0.55    0.36 
   1  -8 -13    0.46    0.36 
  -1   8  13    0.59    0.16 
   1   8 -13    0.27    0.31 
   0  -8 -13    0.24    0.31 
   0   8 -13    0.43    0.31 
   0   8  13    0.37    0.15 
  -1  -8 -13    0.89    0.36 
   1   8  13    0.90    0.17 
  -1   8 -13    1.06    0.35 
  -2  -8 -13    0.99    0.41 
   2   8  13    1.24    0.19 
  -2   8 -13    1.36    0.34 
  -3  -8 -13    4.96    0.68 
   3   8  13    5.58    0.38 
  -3   8 -13    4.79    0.52 
  -4  -8 -13    0.93    0.39 
   4   8  13    0.43    0.16 
   5  -9 -13    0.35    0.33 
  -5   9  13    0.76    0.21 
   5   9 -13    0.25    0.26 
   4  -9 -13    4.72    0.68 
   4   9 -13    5.59    0.67 
  -4   9  13    6.48    0.45 
   3  -9 -13    3.44    0.57 
  -3   9  13    4.51    0.36 
   3   9 -13    2.08    0.51 
   2  -9 -13    2.96    0.54 
  -2   9  13    3.22    0.31 
   2   9 -13    3.24    0.54 
   1   9 -13    0.03    0.30 
  -1   9  13   -0.05    0.14 
   0  -9 -13    0.29    0.31 
   0   9 -13    0.38    0.31 
   0   9  13    0.51    0.16 
  -1  -9 -13   -0.12    0.28 
  -1   9 -13    0.33    0.29 
  -2  -9 -13    1.06    0.38 
  -2   9 -13    1.76    0.36 
  -3  -9 -13    2.29    0.51 
  -3   9 -13    2.09    0.35 
   4 -10 -13   -0.58    0.29 
   4  10 -13   -0.17    0.29 
   3 -10 -13    0.38    0.37 
   3  10 -13    0.17    0.32 
   2 -10 -13    2.49    0.53 
   2  10 -13    2.43    0.49 
   1 -10 -13   -0.06    0.30 
   1  10 -13    0.24    0.34 
   0 -10 -13    0.95    0.41 
   0  10 -13    0.61    0.32 
  -1 -10 -13    2.23    0.49 
  -1  10 -13    2.08    0.40 
  -2 -10 -13    0.09    0.33 
  -2  10 -13   -0.08    0.22 
  -8   0  14    0.08    0.19 
  -7   0  14   -0.11    0.18 
   7   0 -14   -0.24    0.22 
   6   0 -14   11.57    0.89 
  -6   0  14   11.01    0.67 
  -5   0  14   -0.02    0.15 
   5   0 -14   -0.16    0.28 
  -4   0  14    7.12    0.48 
   4   0 -14    8.49    0.78 
  -3   0  14    0.04    0.13 
   3   0 -14   -0.11    0.32 
  -2   0  14    0.38    0.16 
   2   0 -14    1.11    0.41 
   1   0 -14    0.45    0.42 
  -1   0  14    0.01    0.13 
   0   0 -14   19.25    1.42 
   0   0  14   16.69    0.90 
   1   0  14   -0.05    0.14 
  -1   0 -14   -0.34    0.40 
  -2   0 -14   -0.03    0.40 
   2   0  14   -0.12    0.13 
   3   0  14    0.05    0.14 
  -3   0 -14    0.34    0.38 
   4   0  14    2.17    0.25 
  -4   0 -14    2.32    0.44 
   5   0  14   -0.07    0.16 
   6   0  14   -0.07    0.17 
  -8  -1  14    0.24    0.18 
  -8   1  14    0.27    0.21 
  -7  -1  14    8.19    0.52 
   7  -1 -14    7.21    0.66 
  -7   1  14    6.82    0.53 
   7   1 -14    7.52    0.65 
  -6  -1  14   -0.15    0.15 
   6  -1 -14    0.07    0.27 
  -6   1  14    0.01    0.17 
   6   1 -14   -0.13    0.24 
   5  -1 -14    0.09    0.27 
  -5  -1  14    0.26    0.18 
   5   1 -14   -0.02    0.28 
  -5   1  14    0.28    0.18 
  -4  -1  14    4.19    0.35 
   4  -1 -14    3.22    0.55 
  -4   1  14    3.56    0.33 
   4   1 -14    4.16    0.59 
  -3  -1  14    1.58    0.23 
   3  -1 -14    1.39    0.42 
  -3   1  14    1.17    0.20 
   3   1 -14    1.18    0.39 
  -2  -1  14    4.37    0.32 
   2  -1 -14    4.34    0.64 
  -2   1  14    3.36    0.31 
   2   1 -14    5.24    0.68 
  -1  -1  14    0.14    0.14 
   1  -1 -14    0.23    0.36 
   1   1 -14    0.34    0.38 
  -1   1  14    0.30    0.15 
   0  -1 -14    5.43    0.77 
   0  -1  14    4.93    0.36 
   0   1 -14    4.98    0.76 
   0   1  14    5.08    0.36 
  -1  -1 -14   10.21    1.08 
   1  -1  14    8.70    0.53 
   1   1  14    9.38    0.54 
  -1   1 -14    9.10    1.01 
  -2  -1 -14    1.14    0.51 
   2  -1  14    0.89    0.17 
  -2   1 -14    0.68    0.45 
   2   1  14    1.15    0.19 
   3  -1  14    4.23    0.34 
  -3  -1 -14    4.67    0.70 
   3   1  14    4.22    0.33 
  -3   1 -14    5.13    0.63 
   4  -1  14    0.90    0.19 
  -4  -1 -14    0.61    0.37 
   4   1  14    0.81    0.18 
  -4   1 -14    0.54    0.31 
   5  -1  14    0.62    0.17 
   5   1  14    0.87    0.21 
   6  -1  14    0.22    0.16 
   6   1  14    0.20    0.16 
  -8  -2  14    3.49    0.35 
  -8   2  14    3.57    0.37 
  -7  -2  14    0.28    0.20 
   7  -2 -14    0.13    0.27 
   7   2 -14    0.15    0.24 
  -7   2  14    0.57    0.22 
  -6  -2  14    0.10    0.15 
   6  -2 -14    0.34    0.29 
   6   2 -14    0.13    0.23 
  -6   2  14    0.03    0.17 
   5  -2 -14    0.15    0.27 
  -5  -2  14   -0.01    0.17 
   5   2 -14    0.15    0.28 
  -5   2  14    0.08    0.18 
   4  -2 -14    4.70    0.63 
  -4  -2  14    5.04    0.36 
   4   2 -14    4.10    0.56 
  -4   2  14    3.42    0.34 
   3  -2 -14    8.20    0.92 
  -3  -2  14   10.83    0.59 
  -3   2  14    9.12    0.58 
   3   2 -14   11.94    0.93 
  -2  -2  14   15.91    0.87 
   2  -2 -14   17.28    1.31 
   2   2 -14   22.40    1.39 
  -2   2  14   15.96    0.88 
  -1  -2  14    0.87    0.17 
   1  -2 -14    1.24    0.44 
   1   2 -14    0.55    0.40 
  -1   2  14    0.21    0.15 
   0  -2 -14    0.27    0.39 
   0  -2  14    0.24    0.12 
   0   2  14    0.02    0.11 
   0   2 -14    0.54    0.46 
   1  -2  14    0.41    0.13 
  -1  -2 -14    0.17    0.46 
   1   2  14    0.18    0.15 
  -1   2 -14    0.64    0.44 
  -2  -2 -14    0.36    0.46 
   2  -2  14    0.30    0.15 
   2   2  14    0.33    0.14 
  -2   2 -14   -0.05    0.36 
   3  -2  14    1.93    0.23 
  -3  -2 -14    1.98    0.55 
  -3   2 -14    1.44    0.40 
   3   2  14    2.27    0.25 
  -4  -2 -14    0.04    0.36 
   4  -2  14    0.05    0.15 
   4   2  14    0.16    0.16 
  -4   2 -14   -0.18    0.23 
   5  -2  14    0.73    0.18 
   5   2  14    0.69    0.19 
   6  -2  14    2.42    0.28 
   6   2  14    2.56    0.30 
  -8  -3  14    2.79    0.32 
  -8   3  14    3.16    0.34 
   7  -3 -14    0.07    0.26 
  -7  -3  14   -0.31    0.16 
  -7   3  14    0.23    0.20 
   7   3 -14    0.27    0.24 
  -6  -3  14    0.93    0.22 
   6  -3 -14    0.77    0.33 
   6   3 -14    1.02    0.32 
  -6   3  14    0.39    0.22 
  -5  -3  14    3.31    0.32 
   5  -3 -14    3.49    0.53 
   5   3 -14    3.53    0.50 
  -5   3  14    3.70    0.36 
   4  -3 -14    0.14    0.31 
  -4  -3  14    0.28    0.16 
  -4   3  14    0.00    0.15 
   4   3 -14    0.71    0.33 
  -3  -3  14    0.32    0.14 
   3  -3 -14    0.23    0.34 
  -3   3  14    0.31    0.17 
   3   3 -14   -0.05    0.34 
  -2  -3  14    0.28    0.13 
   2  -3 -14    0.36    0.36 
  -2   3  14   -0.04    0.12 
   2   3 -14    0.60    0.37 
  -1  -3  14   12.15    0.67 
   1  -3 -14   14.51    1.16 
  -1   3  14   11.90    0.67 
   1   3 -14   12.78    1.14 
   0  -3 -14    2.05    0.55 
   0  -3  14    1.49    0.20 
   0   3 -14    1.77    0.49 
   0   3  14    1.46    0.20 
   1  -3  14   -0.01    0.13 
  -1  -3 -14   -0.42    0.33 
   1   3  14    0.01    0.11 
  -1   3 -14    0.07    0.34 
   2  -3  14    6.83    0.44 
  -2  -3 -14    9.77    1.01 
   2   3  14    6.56    0.45 
  -2   3 -14    7.29    0.76 
  -3  -3 -14    0.77    0.47 
   3  -3  14    0.59    0.16 
  -3   3 -14    0.60    0.31 
   3   3  14    0.27    0.15 
   4  -3  14    0.44    0.16 
  -4  -3 -14    1.44    0.48 
   4   3  14    0.38    0.17 
  -4   3 -14    0.48    0.26 
   5  -3  14    3.43    0.32 
   5   3  14    3.63    0.32 
  -7  -4  14    2.16    0.28 
   7   4 -14    2.26    0.37 
  -7   4  14    2.32    0.30 
  -6  -4  14    0.40    0.18 
   6  -4 -14    0.30    0.31 
  -6   4  14    0.63    0.20 
   6   4 -14    0.35    0.26 
   5  -4 -14   12.04    1.04 
  -5  -4  14   11.92    0.71 
  -5   4  14   12.53    0.74 
   5   4 -14   13.81    0.99 
  -4  -4  14    1.13    0.20 
   4  -4 -14    0.94    0.43 
   4   4 -14    0.94    0.38 
  -4   4  14    1.15    0.22 
  -3  -4  14    0.38    0.15 
   3  -4 -14    0.26    0.36 
  -3   4  14    0.14    0.14 
   3   4 -14    0.66    0.34 
   2  -4 -14    1.33    0.47 
  -2  -4  14    1.27    0.18 
  -2   4  14    0.92    0.18 
   2   4 -14    1.28    0.43 
  -1  -4  14    4.19    0.30 
   1  -4 -14    2.50    0.54 
  -1   4  14    3.52    0.31 
   1   4 -14    3.77    0.66 
   0  -4  14    0.32    0.13 
   0  -4 -14    0.15    0.32 
   0   4 -14    0.09    0.38 
   0   4  14    0.02    0.14 
  -1  -4 -14    7.01    0.87 
   1  -4  14    5.63    0.38 
   1   4  14    5.86    0.38 
  -1   4 -14    5.56    0.73 
   2  -4  14   -0.02    0.13 
  -2  -4 -14    0.99    0.44 
  -2   4 -14   -0.05    0.30 
   2   4  14    0.01    0.12 
  -3  -4 -14    2.13    0.58 
   3  -4  14    2.41    0.25 
  -3   4 -14    2.85    0.43 
   3   4  14    2.50    0.26 
  -4  -4 -14    0.18    0.38 
   4  -4  14   -0.18    0.13 
  -4   4 -14    0.10    0.21 
   4   4  14   -0.10    0.14 
   5  -4  14    0.07    0.16 
   5   4  14    0.19    0.14 
  -7  -5  14    1.00    0.21 
   7   5 -14    1.22    0.28 
  -7   5  14    1.37    0.25 
  -6  -5  14    1.64    0.25 
   6  -5 -14    1.87    0.44 
   6   5 -14    2.25    0.40 
  -6   5  14    1.75    0.28 
   5  -5 -14    1.40    0.44 
  -5  -5  14    1.61    0.24 
  -5   5  14    1.47    0.23 
   5   5 -14    1.72    0.39 
   4  -5 -14   -0.22    0.29 
  -4  -5  14    0.92    0.19 
  -4   5  14    0.48    0.19 
   4   5 -14    0.38    0.29 
   3  -5 -14   -0.03    0.30 
  -3  -5  14   -0.14    0.13 
  -3   5  14   -0.02    0.15 
   3   5 -14    0.57    0.35 
  -2  -5  14    0.25    0.13 
   2  -5 -14   -0.18    0.26 
  -2   5  14   -0.02    0.13 
   2   5 -14   -0.25    0.30 
  -1  -5  14    6.37    0.40 
   1  -5 -14    4.63    0.72 
  -1   5  14    6.70    0.41 
   1   5 -14    4.78    0.75 
   0  -5  14    3.62    0.29 
   0  -5 -14    2.96    0.56 
   0   5 -14    3.69    0.63 
   0   5  14    3.86    0.29 
  -1  -5 -14    3.22    0.60 
   1  -5  14    3.35    0.27 
   1   5  14    2.86    0.27 
  -1   5 -14    3.24    0.53 
   2  -5  14    8.61    0.50 
  -2  -5 -14    6.43    0.87 
   2   5  14    8.62    0.50 
  -2   5 -14    9.67    0.79 
   3  -5  14    0.57    0.15 
  -3  -5 -14    0.39    0.43 
  -3   5 -14    0.57    0.27 
   3   5  14    0.24    0.16 
  -4  -5 -14    0.71    0.43 
   4  -5  14    0.40    0.16 
   4   5  14    0.46    0.17 
   5  -5  14    0.92    0.19 
   5   5  14    0.61    0.17 
   7   6 -14    0.89    0.28 
  -7   6  14    1.37    0.26 
   6  -6 -14    0.69    0.35 
  -6   6  14    0.50    0.21 
   6   6 -14    0.66    0.29 
   5  -6 -14    0.72    0.39 
  -5  -6  14    1.53    0.23 
  -5   6  14    1.37    0.24 
   5   6 -14    1.79    0.39 
  -4  -6  14    0.90    0.19 
   4  -6 -14   -0.11    0.28 
  -4   6  14    0.37    0.18 
   4   6 -14    1.01    0.36 
   3  -6 -14   10.37    1.02 
  -3  -6  14   12.96    0.67 
  -3   6  14   11.35    0.68 
   3   6 -14   12.47    1.03 
  -2  -6  14    2.92    0.26 
   2  -6 -14    2.16    0.49 
   2   6 -14    1.61    0.47 
  -2   6  14    2.48    0.26 
   1  -6 -14    0.66    0.42 
  -1  -6  14    1.54    0.20 
  -1   6  14    1.86    0.23 
   1   6 -14    1.77    0.50 
   0  -6  14    1.77    0.20 
   0  -6 -14    1.48    0.47 
   0   6  14    1.59    0.21 
   0   6 -14    1.83    0.46 
  -1  -6 -14   -0.17    0.33 
   1  -6  14   -0.09    0.11 
   1   6  14    0.74    0.16 
  -1   6 -14    0.22    0.31 
   2  -6  14    0.20    0.13 
  -2  -6 -14    0.53    0.35 
  -2   6 -14    0.45    0.29 
   2   6  14    0.45    0.16 
  -3  -6 -14    0.24    0.35 
   3  -6  14    0.42    0.14 
   3   6  14    0.15    0.13 
  -3   6 -14    0.31    0.24 
  -4  -6 -14    0.31    0.36 
   4  -6  14    0.56    0.16 
   4   6  14    0.46    0.16 
   6  -7 -14    1.78    0.44 
  -6   7  14    1.50    0.25 
   6   7 -14    1.63    0.33 
   5  -7 -14    0.09    0.31 
  -5   7  14   -0.27    0.16 
   5   7 -14    0.06    0.27 
   4  -7 -14    1.43    0.42 
   4   7 -14    2.99    0.49 
  -4   7  14    2.70    0.29 
   3  -7 -14   -0.01    0.30 
   3   7 -14    0.43    0.36 
  -3   7  14    0.14    0.16 
   2  -7 -14    2.58    0.55 
   2   7 -14    3.61    0.57 
  -2   7  14    4.56    0.34 
   1  -7 -14    0.02    0.29 
  -1   7  14   -0.12    0.13 
   1   7 -14   -0.38    0.27 
   0  -7 -14    3.42    0.60 
   0   7  14    2.74    0.27 
   0   7 -14    3.31    0.53 
  -1  -7 -14    0.75    0.40 
  -1   7 -14    0.12    0.30 
   1   7  14    0.54    0.16 
  -2  -7 -14    0.10    0.31 
   2   7  14   -0.05    0.12 
  -2   7 -14   -0.06    0.26 
  -3  -7 -14    1.00    0.39 
   3   7  14    0.85    0.18 
  -3   7 -14    1.52    0.33 
  -4  -7 -14    2.46    0.56 
   4   7  14    4.33    0.32 
   5  -8 -14    0.71    0.37 
  -5   8  14    0.87    0.21 
   5   8 -14    1.27    0.34 
   4  -8 -14    0.45    0.34 
  -4   8  14    0.53    0.18 
   4   8 -14    0.58    0.32 
   3  -8 -14    3.11    0.57 
   3   8 -14    3.81    0.61 
  -3   8  14    3.35    0.32 
   2  -8 -14    0.07    0.31 
  -2   8  14   -0.20    0.14 
   2   8 -14   -0.19    0.30 
   1  -8 -14   -0.45    0.31 
  -1   8  14    0.36    0.16 
   1   8 -14    0.40    0.34 
   0  -8 -14    6.46    0.80 
   0   8  14    6.87    0.44 
   0   8 -14    6.05    0.72 
  -1  -8 -14    0.25    0.35 
  -1   8 -14   -0.03    0.29 
   1   8  14    0.29    0.14 
  -2  -8 -14    0.36    0.33 
  -2   8 -14    0.07    0.27 
   2   8  14    0.64    0.16 
  -3  -8 -14    0.40    0.38 
   3   8  14    0.23    0.15 
  -3   8 -14    0.29    0.24 
   4  -9 -14    2.07    0.50 
  -4   9  14    1.09    0.24 
   4   9 -14    1.23    0.41 
   3  -9 -14   -0.52    0.30 
   3   9 -14    0.10    0.31 
  -3   9  14   -0.23    0.15 
   2  -9 -14    0.05    0.31 
   2   9 -14    0.53    0.35 
  -2   9  14    0.32    0.17 
   1  -9 -14   -0.20    0.33 
   1   9 -14    0.08    0.31 
  -1   9  14    0.01    0.14 
   0  -9 -14    0.01    0.35 
   0   9 -14   -0.29    0.25 
   0   9  14    0.21    0.16 
  -1  -9 -14    3.75    0.61 
  -1   9 -14    4.38    0.57 
  -2  -9 -14    2.53    0.55 
  -2   9 -14    3.20    0.45 
   2 -10 -14    3.18    0.58 
   2  10 -14    2.79    0.54 
   1 -10 -14    0.28    0.32 
   1  10 -14    0.96    0.41 
   0 -10 -14    0.07    0.30 
   0  10 -14    0.01    0.33 
   7   0 -15   -0.11    0.24 
  -7   0  15    0.25    0.18 
  -6   0  15   -0.20    0.17 
   6   0 -15   -0.46    0.23 
  -5   0  15    0.45    0.18 
   5   0 -15    0.49    0.30 
  -4   0  15    0.23    0.17 
   4   0 -15   -0.28    0.25 
  -3   0  15    0.36    0.16 
   3   0 -15    0.55    0.34 
  -2   0  15    0.01    0.12 
   2   0 -15   -0.37    0.29 
   1   0 -15   23.25    1.54 
  -1   0  15   18.44    1.01 
   0   0  15    0.19    0.14 
   0   0 -15   -0.11    0.36 
  -1   0 -15    2.45    0.59 
   1   0  15    2.48    0.26 
   2   0  15   -0.02    0.13 
  -2   0 -15   -0.66    0.37 
   3   0  15   -0.16    0.12 
  -3   0 -15    0.29    0.38 
  -4   0 -15   -0.08    0.29 
   4   0  15    0.15    0.16 
  -7  -1  15    0.15    0.19 
   7  -1 -15   -0.02    0.25 
   7   1 -15   -0.21    0.23 
  -7   1  15   -0.14    0.20 
   6  -1 -15    2.61    0.44 
  -6  -1  15    2.22    0.30 
  -6   1  15    2.20    0.31 
   6   1 -15    2.64    0.44 
  -5  -1  15    5.50    0.42 
   5  -1 -15    5.66    0.66 
  -5   1  15    4.64    0.42 
   5   1 -15    5.91    0.64 
  -4  -1  15    3.07    0.31 
   4  -1 -15    2.63    0.49 
   4   1 -15    2.82    0.50 
  -4   1  15    4.32    0.36 
   3  -1 -15    0.42    0.36 
  -3  -1  15    0.16    0.16 
   3   1 -15    0.37    0.37 
  -3   1  15    0.15    0.16 
   2  -1 -15    7.47    0.84 
  -2  -1  15    6.68    0.44 
  -2   1  15    6.80    0.46 
   2   1 -15    9.68    0.85 
  -1  -1  15    0.76    0.16 
   1  -1 -15    0.84    0.42 
   1   1 -15    1.07    0.46 
  -1   1  15    0.83    0.18 
   0  -1  15   -0.13    0.13 
   0  -1 -15    0.15    0.39 
   0   1 -15    0.10    0.37 
   0   1  15    0.23    0.15 
   1  -1  15    3.91    0.32 
  -1  -1 -15    4.63    0.74 
  -1   1 -15    3.53    0.69 
   1   1  15    3.01    0.30 
  -2  -1 -15    0.99    0.50 
   2  -1  15    1.20    0.20 
   2   1  15    1.28    0.20 
  -2   1 -15    1.09    0.48 
   3  -1  15    0.75    0.18 
  -3  -1 -15    1.38    0.47 
   3   1  15    0.42    0.16 
  -3   1 -15    1.01    0.40 
  -4  -1 -15    0.86    0.41 
   4  -1  15    0.80    0.17 
  -4   1 -15    0.69    0.33 
   4   1  15    0.67    0.18 
   5  -1  15    1.83    0.25 
   5   1  15    1.95    0.25 
   7  -2 -15    2.70    0.44 
  -7  -2  15    1.88    0.28 
   7   2 -15    2.25    0.38 
  -7   2  15    2.34    0.30 
  -6  -2  15    0.37    0.20 
   6  -2 -15    0.71    0.30 
   6   2 -15    0.25    0.28 
  -6   2  15    0.75    0.21 
  -5  -2  15    0.08    0.17 
   5  -2 -15    0.02    0.30 
   5   2 -15    0.04    0.25 
  -5   2  15   -0.23    0.16 
   4  -2 -15    4.17    0.61 
  -4  -2  15    4.66    0.37 
   4   2 -15    4.88    0.60 
  -4   2  15    4.39    0.38 
  -3  -2  15    8.67    0.54 
   3  -2 -15    9.65    0.88 
   3   2 -15   11.08    0.90 
  -3   2  15    8.88    0.56 
   2  -2 -15    1.37    0.48 
  -2  -2  15    1.12    0.19 
  -2   2  15    0.80    0.19 
   2   2 -15    1.70    0.49 
   1  -2 -15    0.83    0.43 
  -1  -2  15    0.84    0.16 
  -1   2  15    0.64    0.15 
   1   2 -15    0.98    0.45 
   0  -2 -15   -0.16    0.41 
   0  -2  15    0.16    0.14 
   0   2 -15   -0.03    0.42 
   0   2  15    0.13    0.13 
  -1  -2 -15    3.09    0.63 
   1  -2  15    2.19    0.23 
  -1   2 -15    3.07    0.62 
   1   2  15    2.29    0.24 
   2  -2  15    3.07    0.29 
  -2  -2 -15    5.21    0.79 
  -2   2 -15    5.20    0.68 
   2   2  15    4.08    0.33 
   3  -2  15    3.35    0.30 
  -3  -2 -15    3.91    0.67 
  -3   2 -15    4.97    0.60 
   3   2  15    3.59    0.32 
   4  -2  15    0.20    0.14 
  -4  -2 -15    0.28    0.36 
   4   2  15    0.12    0.14 
   5  -2  15    0.03    0.14 
   5   2  15   -0.16    0.14 
  -7  -3  15    1.20    0.24 
   7  -3 -15    0.90    0.32 
  -7   3  15    0.76    0.24 
   7   3 -15    0.99    0.29 
   6  -3 -15    3.98    0.56 
  -6  -3  15    4.56    0.38 
   6   3 -15    4.98    0.55 
  -6   3  15    3.92    0.38 
   5  -3 -15    0.69    0.36 
  -5  -3  15    0.99    0.21 
   5   3 -15    1.21    0.33 
  -5   3  15    0.99    0.23 
   4  -3 -15    5.44    0.72 
  -4  -3  15    6.26    0.44 
   4   3 -15    7.83    0.78 
  -4   3  15    6.45    0.44 
  -3  -3  15    5.09    0.39 
   3  -3 -15    6.04    0.74 
   3   3 -15    5.83    0.70 
  -3   3  15    5.52    0.39 
   2  -3 -15    2.83    0.60 
  -2  -3  15    2.91    0.27 
   2   3 -15    3.85    0.61 
  -2   3  15    3.28    0.29 
   1  -3 -15    2.12    0.58 
  -1  -3  15    2.10    0.23 
  -1   3  15    2.11    0.23 
   1   3 -15    3.07    0.62 
   0  -3  15    1.16    0.17 
   0  -3 -15    1.33    0.51 
   0   3  15    0.88    0.17 
   0   3 -15    1.46    0.51 
  -1  -3 -15    0.38    0.42 
   1  -3  15    0.64    0.16 
  -1   3 -15    0.40    0.43 
   1   3  15    0.58    0.17 
  -2  -3 -15    0.59    0.42 
   2  -3  15    1.13    0.18 
   2   3  15    0.37    0.15 
  -2   3 -15    1.13    0.41 
   3  -3  15    0.67    0.17 
  -3  -3 -15    0.56    0.46 
   3   3  15    0.97    0.18 
  -3   3 -15    0.43    0.32 
  -4  -3 -15    4.66    0.67 
   4  -3  15    3.30    0.30 
   4   3  15    4.10    0.34 
   5  -3  15    0.17    0.17 
   5   3  15    0.43    0.17 
  -7  -4  15    0.11    0.18 
  -7   4  15    0.63    0.23 
   7   4 -15    0.29    0.24 
  -6  -4  15    2.55    0.29 
   6  -4 -15    1.89    0.43 
   6   4 -15    2.70    0.40 
  -6   4  15    1.77    0.29 
  -5  -4  15   -0.13    0.15 
   5  -4 -15   -0.28    0.30 
   5   4 -15   -0.03    0.28 
  -5   4  15   -0.24    0.17 
   4  -4 -15    0.09    0.32 
  -4  -4  15    0.21    0.17 
   4   4 -15    0.55    0.34 
  -4   4  15    0.04    0.15 
  -3  -4  15   -0.08    0.13 
   3  -4 -15   -0.13    0.31 
   3   4 -15    0.27    0.36 
  -3   4  15   -0.11    0.14 
   2  -4 -15    0.66    0.43 
  -2  -4  15    0.72    0.16 
   2   4 -15    0.46    0.38 
  -2   4  15    0.62    0.17 
  -1  -4  15    0.46    0.15 
   1  -4 -15   -0.18    0.34 
  -1   4  15    0.26    0.15 
   1   4 -15    0.37    0.39 
   0  -4  15   13.63    0.70 
   0  -4 -15   13.23    1.20 
   0   4 -15   14.16    1.15 
   0   4  15   12.10    0.70 
   1  -4  15    1.52    0.20 
  -1  -4 -15    1.62    0.51 
  -1   4 -15    2.28    0.52 
   1   4  15    1.65    0.22 
  -2  -4 -15   -0.40    0.39 
   2  -4  15    0.35    0.15 
   2   4  15    0.33    0.14 
  -2   4 -15    0.51    0.35 
   3  -4  15    0.59    0.16 
  -3  -4 -15    0.36    0.43 
  -3   4 -15    0.42    0.29 
   3   4  15    0.36    0.15 
  -4  -4 -15    0.59    0.42 
   4  -4  15    0.70    0.17 
   4   4  15    0.46    0.18 
  -6  -5  15    0.41    0.19 
   6  -5 -15    0.08    0.32 
   6   5 -15    0.53    0.27 
  -6   5  15    0.13    0.19 
   5  -5 -15    2.27    0.49 
  -5  -5  15    1.75    0.26 
  -5   5  15    1.93    0.26 
   5   5 -15    2.15    0.39 
  -4  -5  15    0.58    0.19 
   4  -5 -15    0.39    0.38 
   4   5 -15    1.01    0.35 
  -4   5  15    0.75    0.20 
  -3  -5  15    4.44    0.35 
   3  -5 -15    3.76    0.65 
  -3   5  15    4.70    0.37 
   3   5 -15    6.28    0.71 
   2  -5 -15    2.83    0.57 
  -2  -5  15    4.51    0.33 
   2   5 -15    4.67    0.68 
  -2   5  15    4.25    0.32 
  -1  -5  15    0.46    0.15 
   1  -5 -15    0.17    0.32 
   1   5 -15    0.47    0.37 
  -1   5  15    0.44    0.15 
   0  -5  15    0.57    0.15 
   0  -5 -15    0.50    0.37 
   0   5  15    0.62    0.17 
   0   5 -15    0.31    0.37 
   1  -5  15    1.35    0.19 
  -1  -5 -15    0.89    0.44 
  -1   5 -15    1.24    0.40 
   1   5  15    1.09    0.18 
  -2  -5 -15    1.35    0.45 
   2  -5  15    0.86    0.16 
   2   5  15    1.04    0.19 
  -2   5 -15    0.94    0.34 
   3  -5  15    0.18    0.14 
  -3  -5 -15    0.47    0.41 
   3   5  15    0.20    0.15 
  -3   5 -15    0.54    0.28 
  -4  -5 -15    1.49    0.51 
   4  -5  15    1.33    0.20 
   4   5  15    0.94    0.19 
   6  -6 -15    1.38    0.41 
  -6   6  15    1.27    0.25 
   6   6 -15    0.96    0.30 
   5  -6 -15    0.28    0.37 
  -5   6  15    0.54    0.18 
   5   6 -15    0.19    0.25 
   4  -6 -15    1.53    0.48 
  -4  -6  15    2.76    0.28 
   4   6 -15    1.99    0.42 
  -4   6  15    1.85    0.26 
  -3  -6  15    2.69    0.27 
   3  -6 -15    2.26    0.52 
  -3   6  15    2.57    0.27 
   3   6 -15    2.39    0.50 
   2  -6 -15    1.61    0.51 
  -2  -6  15    3.12    0.28 
  -2   6  15    2.64    0.27 
   2   6 -15    2.85    0.59 
  -1  -6  15    0.28    0.14 
   1  -6 -15    0.21    0.36 
   1   6 -15    0.15    0.35 
  -1   6  15    0.54    0.15 
   0  -6  15    1.80    0.21 
   0  -6 -15    1.87    0.51 
   0   6 -15    1.44    0.47 
   0   6  15    1.88    0.22 
  -1  -6 -15   -0.05    0.34 
   1  -6  15    0.17    0.12 
   1   6  15   -0.08    0.13 
  -1   6 -15    0.05    0.32 
   2  -6  15    3.96    0.32 
  -2  -6 -15    3.85    0.66 
  -2   6 -15    4.59    0.57 
   2   6  15    4.73    0.34 
  -3  -6 -15    1.75    0.52 
   3  -6  15    1.44    0.20 
  -3   6 -15    1.25    0.32 
   3   6  15    1.61    0.21 
   5  -7 -15    6.98    0.92 
  -5   7  15    9.60    0.60 
   5   7 -15   10.39    0.83 
   4  -7 -15    0.20    0.35 
  -4   7  15    0.10    0.17 
   4   7 -15    0.42    0.32 
   3  -7 -15    0.68    0.43 
   3   7 -15    0.66    0.35 
  -3   7  15    0.50    0.18 
   2  -7 -15    0.57    0.38 
  -2   7  15    1.29    0.21 
   2   7 -15    0.83    0.43 
   1  -7 -15    1.05    0.42 
   1   7 -15    0.07    0.37 
  -1   7  15    0.52    0.17 
   0  -7 -15   -0.30    0.32 
   0   7  15   -0.02    0.14 
   0   7 -15   -0.40    0.31 
  -1  -7 -15    1.66    0.46 
   1   7  15    1.68    0.22 
  -1   7 -15    1.76    0.40 
  -2  -7 -15    0.15    0.34 
   2   7  15    0.11    0.14 
  -2   7 -15    0.10    0.27 
  -3  -7 -15    0.53    0.37 
   3   7  15    0.57    0.16 
  -3   7 -15    0.38    0.26 
   4  -8 -15    0.35    0.36 
   4   8 -15    0.75    0.35 
  -4   8  15    0.47    0.19 
   3  -8 -15    0.59    0.41 
  -3   8  15    0.70    0.20 
   3   8 -15    1.23    0.43 
   2  -8 -15    0.62    0.38 
   2   8 -15    0.70    0.39 
  -2   8  15    0.56    0.17 
   1  -8 -15    3.93    0.65 
   1   8 -15    5.20    0.71 
  -1   8  15    5.02    0.36 
   0  -8 -15    0.84    0.42 
   0   8 -15    0.16    0.36 
   0   8  15    0.48    0.17 
  -1  -8 -15    1.14    0.43 
  -1   8 -15    2.34    0.43 
   1   8  15    1.66    0.22 
  -2  -8 -15    0.56    0.38 
  -2   8 -15    0.60    0.30 
   2   8  15    0.98    0.18 
   2  -9 -15    1.26    0.44 
  -2   9  15    1.82    0.24 
   2   9 -15    1.74    0.46 
   1  -9 -15    1.71    0.48 
   1   9 -15    1.11    0.42 
  -1   9  15    0.82    0.20 
   0  -9 -15   -0.28    0.33 
   0   9 -15   -0.16    0.29 
  -7   0  16   -0.05    0.18 
   7   0 -16   -0.32    0.23 
   6   0 -16    1.28    0.35 
  -6   0  16    0.48    0.21 
   5   0 -16    0.18    0.27 
  -5   0  16    0.13    0.18 
  -4   0  16   14.13    0.79 
   4   0 -16   13.94    1.10 
   3   0 -16    0.08    0.30 
  -3   0  16   -0.06    0.14 
  -2   0  16    0.81    0.19 
   2   0 -16    1.30    0.43 
   1   0 -16   -0.12    0.34 
  -1   0  16   -0.12    0.14 
   0   0  16    1.35    0.20 
   0   0 -16    1.83    0.57 
  -1   0 -16   -0.20    0.41 
   1   0  16    0.07    0.15 
  -2   0 -16   -0.33    0.33 
   2   0  16    0.36    0.17 
  -3   0 -16   -0.20    0.34 
   3   0  16   -0.14    0.12 
   4   0  16    5.25    0.40 
  -7  -1  16   -0.03    0.19 
   7  -1 -16    0.19    0.27 
   7   1 -16   -0.18    0.22 
  -7   1  16    0.26    0.21 
   6  -1 -16    3.75    0.51 
  -6  -1  16    3.03    0.34 
  -6   1  16    2.89    0.35 
   6   1 -16    3.57    0.49 
   5  -1 -16    0.03    0.26 
  -5  -1  16    0.12    0.18 
  -5   1  16    0.06    0.18 
   5   1 -16    0.18    0.31 
   4  -1 -16    0.16    0.30 
  -4  -1  16    0.33    0.17 
   4   1 -16    0.40    0.30 
  -4   1  16   -0.07    0.14 
   3  -1 -16    5.38    0.73 
  -3  -1  16    6.27    0.43 
   3   1 -16    7.16    0.79 
  -3   1  16    5.53    0.41 
  -2  -1  16    0.78    0.18 
   2  -1 -16    1.45    0.47 
   2   1 -16    1.12    0.47 
  -2   1  16    0.89    0.18 
  -1  -1  16    5.47    0.39 
   1  -1 -16    4.78    0.76 
  -1   1  16    5.17    0.37 
   1   1 -16    5.89    0.77 
   0  -1  16    4.32    0.33 
   0  -1 -16    4.03    0.68 
   0   1  16    4.29    0.35 
   0   1 -16    5.46    0.80 
   1  -1  16    0.41    0.16 
  -1  -1 -16    0.22    0.41 
   1   1  16    0.22    0.16 
  -1   1 -16    0.63    0.49 
   2  -1  16    0.31    0.16 
  -2  -1 -16    0.15    0.42 
  -2   1 -16    0.34    0.38 
   2   1  16    0.05    0.15 
  -3  -1 -16    1.54    0.48 
   3  -1  16    0.84    0.20 
   3   1  16    1.55    0.20 
  -3   1 -16    1.04    0.41 
   4  -1  16    1.37    0.22 
   4   1  16    1.51    0.22 
  -7  -2  16    4.82    0.42 
   7  -2 -16    4.71    0.56 
  -7   2  16    3.82    0.40 
   7   2 -16    4.24    0.52 
  -6  -2  16    5.53    0.46 
   6  -2 -16    6.80    0.71 
  -6   2  16    6.20    0.45 
   6   2 -16    4.76    0.58 
   5  -2 -16    0.16    0.31 
  -5  -2  16    0.25    0.18 
   5   2 -16   -0.02    0.25 
  -5   2  16    0.06    0.16 
  -4  -2  16   -0.01    0.15 
   4  -2 -16    0.32    0.36 
   4   2 -16   -0.21    0.29 
  -4   2  16    0.10    0.17 
  -3  -2  16    0.23    0.16 
   3  -2 -16   -0.27    0.28 
  -3   2  16    0.19    0.15 
   3   2 -16    0.02    0.35 
  -2  -2  16    0.06    0.13 
   2  -2 -16    0.49    0.41 
   2   2 -16   -0.30    0.34 
  -2   2  16    0.24    0.14 
   1  -2 -16    1.17    0.50 
  -1  -2  16    1.17    0.19 
  -1   2  16    0.63    0.17 
   1   2 -16    1.25    0.46 
   0  -2 -16   -0.38    0.35 
   0  -2  16   -0.14    0.13 
   0   2 -16   -0.11    0.42 
   0   2  16    0.08    0.13 
   1  -2  16    2.19    0.24 
  -1  -2 -16    2.98    0.65 
   1   2  16    2.01    0.23 
  -1   2 -16    1.72    0.54 
   2  -2  16    4.54    0.34 
  -2  -2 -16    4.60    0.77 
  -2   2 -16    5.24    0.72 
   2   2  16    5.09    0.36 
  -3  -2 -16    3.15    0.62 
   3  -2  16    1.98    0.23 
  -3   2 -16    2.47    0.49 
   3   2  16    1.90    0.24 
   4  -2  16    0.50    0.18 
   4   2  16   -0.12    0.15 
  -6  -3  16    0.46    0.19 
   6  -3 -16    0.44    0.32 
  -6   3  16    0.34    0.19 
   6   3 -16    0.74    0.31 
   5  -3 -16    4.72    0.62 
  -5  -3  16    4.34    0.39 
   5   3 -16    5.24    0.62 
  -5   3  16    5.33    0.40 
  -4  -3  16    1.19    0.20 
   4  -3 -16    0.84    0.38 
   4   3 -16    1.47    0.41 
  -4   3  16    1.02    0.20 
  -3  -3  16    0.42    0.17 
   3  -3 -16   -0.21    0.34 
  -3   3  16    0.11    0.16 
   3   3 -16    0.50    0.38 
   2  -3 -16    1.77    0.49 
  -2  -3  16    2.34    0.25 
   2   3 -16    2.69    0.57 
  -2   3  16    2.02    0.25 
  -1  -3  16    2.97    0.27 
   1  -3 -16    3.51    0.63 
   1   3 -16    4.75    0.70 
  -1   3  16    2.58    0.27 
   0  -3 -16    1.04    0.51 
   0  -3  16    0.77    0.17 
   0   3 -16    0.66    0.44 
   0   3  16    1.14    0.18 
  -1  -3 -16    6.20    0.81 
   1  -3  16    4.76    0.36 
  -1   3 -16    5.21    0.72 
   1   3  16    5.29    0.37 
   2  -3  16    0.56    0.15 
  -2  -3 -16    0.78    0.45 
   2   3  16    1.14    0.20 
  -2   3 -16    0.82    0.41 
  -3  -3 -16    0.76    0.48 
   3  -3  16    1.26    0.19 
  -3   3 -16    1.32    0.38 
   3   3  16    1.43    0.22 
   4  -3  16    0.43    0.18 
   4   3  16    0.38    0.18 
  -6  -4  16    0.32    0.18 
   6  -4 -16    0.22    0.30 
   6   4 -16   -0.08    0.23 
  -6   4  16    0.08    0.20 
  -5  -4  16    3.58    0.34 
   5  -4 -16    3.58    0.59 
   5   4 -16    4.12    0.56 
  -5   4  16    3.74    0.37 
   4  -4 -16   -0.73    0.31 
  -4  -4  16    0.06    0.15 
  -4   4  16   -0.17    0.13 
   4   4 -16    0.22    0.29 
  -3  -4  16    3.37    0.30 
   3  -4 -16    3.08    0.57 
  -3   4  16    2.74    0.29 
   3   4 -16    3.08    0.55 
   2  -4 -16   -0.31    0.38 
  -2  -4  16    0.18    0.15 
   2   4 -16    0.74    0.43 
  -2   4  16    0.11    0.14 
   1  -4 -16    1.53    0.52 
  -1  -4  16    1.88    0.22 
   1   4 -16    2.18    0.58 
  -1   4  16    1.92    0.24 
   0  -4  16    0.42    0.15 
   0  -4 -16    0.44    0.46 
   0   4  16    0.29    0.15 
   0   4 -16    0.39    0.42 
   1  -4  16    0.00    0.13 
  -1  -4 -16   -0.19    0.33 
   1   4  16    0.31    0.14 
  -1   4 -16   -0.04    0.37 
  -2  -4 -16    0.06    0.39 
   2  -4  16    0.67    0.15 
  -2   4 -16    1.25    0.41 
   2   4  16    0.60    0.16 
   3  -4  16    0.39    0.15 
  -3  -4 -16    0.21    0.42 
   3   4  16    0.09    0.16 
  -3   4 -16    0.18    0.29 
   4  -4  16    0.19    0.15 
   4   4  16    0.29    0.17 
   6  -5 -16   -0.10    0.30 
  -6  -5  16    0.09    0.17 
  -6   5  16    0.12    0.19 
   6   5 -16   -0.21    0.24 
   5  -5 -16    0.55    0.38 
  -5  -5  16    1.03    0.21 
   5   5 -16    0.98    0.32 
  -5   5  16    0.45    0.20 
  -4  -5  16    3.78    0.34 
   4  -5 -16    3.39    0.63 
   4   5 -16    3.29    0.54 
  -4   5  16    4.31    0.37 
   3  -5 -16    0.96    0.41 
   3   5 -16    1.17    0.40 
  -3   5  16    0.99    0.20 
  -2  -5  16    8.24    0.50 
   2  -5 -16    8.45    0.99 
   2   5 -16    8.33    0.93 
  -2   5  16    8.58    0.51 
   1  -5 -16   -0.33    0.36 
  -1  -5  16    0.31    0.14 
  -1   5  16    0.09    0.15 
   1   5 -16   -0.18    0.39 
   0  -5  16    0.65    0.15 
   0  -5 -16    0.39    0.43 
   0   5  16    0.33    0.14 
   0   5 -16    0.89    0.46 
  -1  -5 -16    0.68    0.44 
   1  -5  16    1.57    0.20 
   1   5  16    1.55    0.22 
  -1   5 -16    1.27    0.43 
  -2  -5 -16   -0.54    0.35 
   2  -5  16    0.51    0.15 
   2   5  16    0.38    0.16 
  -2   5 -16    0.69    0.35 
  -3  -5 -16    1.90    0.53 
   3  -5  16    1.16    0.20 
   3   5  16    1.08    0.19 
   5  -6 -16    1.92    0.46 
   5   6 -16    0.64    0.34 
  -5   6  16    1.00    0.22 
   4  -6 -16    0.83    0.41 
  -4   6  16    1.47    0.24 
   4   6 -16    2.04    0.45 
  -3  -6  16    0.07    0.14 
   3  -6 -16   -0.16    0.38 
   3   6 -16   -0.25    0.28 
  -3   6  16    0.00    0.15 
   2  -6 -16    0.58    0.35 
  -2  -6  16    0.50    0.17 
   2   6 -16    0.59    0.42 
  -2   6  16    0.50    0.18 
   1  -6 -16    0.35    0.34 
  -1  -6  16   -0.12    0.13 
   1   6 -16    0.19    0.40 
  -1   6  16   -0.22    0.14 
   0  -6  16    0.41    0.14 
   0  -6 -16    0.21    0.32 
   0   6  16    0.40    0.16 
   0   6 -16    0.30    0.40 
   1  -6  16    0.98    0.17 
  -1  -6 -16    1.45    0.48 
   1   6  16    1.22    0.20 
  -1   6 -16    0.92    0.38 
   2  -6  16    1.23    0.19 
  -2  -6 -16    0.42    0.41 
  -2   6 -16    1.24    0.37 
   2   6  16    1.22    0.19 
   4  -7 -16    1.21    0.46 
  -4   7  16    0.94    0.22 
   4   7 -16    0.62    0.31 
   3  -7 -16    0.32    0.35 
   3   7 -16    1.06    0.42 
  -3   7  16    1.31    0.22 
   2  -7 -16    0.23    0.36 
  -2   7  16    0.29    0.16 
   2   7 -16    0.02    0.36 
   1  -7 -16    1.11    0.45 
   1   7 -16    0.37    0.41 
  -1   7  16    0.43    0.16 
   0  -7 -16    3.09    0.63 
   0   7 -16    5.30    0.72 
   0   7  16    5.03    0.36 
  -1  -7 -16    0.23    0.32 
   1   7  16   -0.14    0.13 
  -1   7 -16   -0.01    0.27 
   2  -8 -16    0.32    0.34 
   2   8 -16    0.29    0.36 
  -2   8  16    0.59    0.18 
   1  -8 -16    0.23    0.36 
  -1   8  16    0.01    0.15 
   1   8 -16    0.14    0.35 
   0  -8 -16    0.85    0.41 
   0   8  16    0.17    0.15 
   0   8 -16    0.71    0.39 
   6   0 -17    0.03    0.26 
  -6   0  17    0.03    0.19 
  -5   0  17    7.76    0.53 
  -4   0  17   -0.19    0.15 
   4   0 -17   -0.67    0.23 
  -3   0  17    3.46    0.32 
   3   0 -17    4.95    0.65 
  -2   0  17    0.06    0.15 
   2   0 -17    0.12    0.33 
  -1   0  17   -0.02    0.13 
   1   0 -17    0.06    0.40 
   0   0  17    0.08    0.15 
   0   0 -17   -0.10    0.37 
   1   0  17    4.10    0.34 
  -1   0 -17    3.66    0.67 
   2   0  17   -0.05    0.14 
  -2   0 -17   -0.15    0.41 
  -3   0 -17    0.17    0.37 
   3   0  17   -0.11    0.13 
   6  -1 -17    3.17    0.51 
  -6  -1  17    3.37    0.36 
   6   1 -17    3.55    0.48 
  -6   1  17    3.96    0.36 
  -5  -1  17    0.05    0.16 
   5  -1 -17    0.13    0.31 
  -5   1  17   -0.04    0.18 
   5   1 -17   -0.05    0.29 
   4  -1 -17   -0.05    0.31 
  -4  -1  17   -0.11    0.14 
  -4   1  17    0.15    0.18 
   4   1 -17   -0.19    0.27 
  -3  -1  17    1.17    0.23 
   3  -1 -17    1.77    0.44 
  -3   1  17    1.66    0.23 
   3   1 -17    1.34    0.42 
  -2  -1  17    1.58    0.23 
   2  -1 -17    2.01    0.49 
  -2   1  17    2.14    0.25 
   2   1 -17    1.31    0.44 
  -1  -1  17    1.16    0.20 
   1  -1 -17    1.47    0.50 
  -1   1  17    1.37    0.21 
   1   1 -17    1.07    0.49 
   0  -1 -17    1.26    0.48 
   0  -1  17    0.10    0.15 
   0   1  17    0.35    0.15 
   0   1 -17    0.70    0.48 
  -1  -1 -17    2.77    0.63 
   1  -1  17    2.48    0.26 
  -1   1 -17    2.34    0.60 
   1   1  17    1.96    0.25 
   2  -1  17    2.43    0.25 
  -2  -1 -17    2.45    0.58 
  -2   1 -17    2.84    0.56 
   2   1  17    2.26    0.26 
  -3  -1 -17    0.97    0.46 
   3  -1  17    0.59    0.18 
   3   1  17    0.46    0.17 
  -3   1 -17    0.44    0.36 
  -6  -2  17    0.88    0.22 
   6  -2 -17    0.07    0.31 
   6   2 -17    1.18    0.31 
  -6   2  17    0.92    0.24 
   5  -2 -17    0.17    0.33 
  -5  -2  17    0.36    0.19 
   5   2 -17    0.19    0.30 
  -5   2  17   -0.01    0.18 
   4  -2 -17   -0.25    0.28 
  -4  -2  17   -0.30    0.14 
  -4   2  17    0.00    0.14 
   4   2 -17    0.26    0.33 
   3  -2 -17    1.92    0.48 
  -3  -2  17    1.56    0.22 
  -3   2  17    1.44    0.22 
   3   2 -17    1.30    0.44 
   2  -2 -17    3.87    0.65 
  -2  -2  17    3.31    0.31 
  -2   2  17    3.19    0.32 
   2   2 -17    4.07    0.64 
   1  -2 -17    3.92    0.67 
  -1  -2  17    5.14    0.36 
  -1   2  17    5.42    0.39 
   1   2 -17    6.02    0.78 
   0  -2  17    0.16    0.13 
   0  -2 -17    0.71    0.48 
   0   2 -17    0.07    0.37 
   0   2  17    0.16    0.15 
   1  -2  17   -0.04    0.13 
  -1  -2 -17   -0.04    0.37 
  -1   2 -17    0.26    0.40 
   1   2  17    0.01    0.15 
  -2  -2 -17    0.16    0.44 
   2  -2  17    0.54    0.17 
   2   2  17   -0.04    0.15 
  -2   2 -17   -0.19    0.36 
   3  -2  17    0.17    0.14 
  -3  -2 -17    0.37    0.39 
  -3   2 -17   -0.13    0.30 
   3   2  17   -0.21    0.14 
   5  -3 -17   -0.14    0.32 
  -5  -3  17    0.13    0.17 
  -5   3  17    0.28    0.17 
   5   3 -17    0.36    0.31 
  -4  -3  17    0.84    0.20 
   4  -3 -17    1.09    0.40 
  -4   3  17    0.66    0.20 
   4   3 -17    1.12    0.41 
  -3  -3  17    0.06    0.15 
   3  -3 -17    0.07    0.38 
  -3   3  17   -0.13    0.16 
   3   3 -17    0.26    0.33 
   2  -3 -17    0.00    0.38 
  -2  -3  17   -0.05    0.14 
  -2   3  17   -0.06    0.15 
   2   3 -17   -0.07    0.33 
   1  -3 -17   -0.07    0.35 
  -1  -3  17    0.27    0.15 
  -1   3  17   -0.01    0.15 
   1   3 -17   -0.34    0.35 
   0  -3  17    5.54    0.39 
   0  -3 -17    5.75    0.78 
   0   3  17    5.86    0.40 
   0   3 -17    6.20    0.81 
  -1  -3 -17    1.15    0.46 
   1  -3  17    0.68    0.17 
  -1   3 -17    0.88    0.43 
   1   3  17    0.66    0.18 
   2  -3  17    0.06    0.14 
  -2  -3 -17   -0.55    0.33 
   2   3  17    0.28    0.16 
  -2   3 -17   -0.77    0.30 
  -3  -3 -17    2.55    0.58 
   3  -3  17    2.03    0.24 
   3   3  17    2.18    0.26 
  -3   3 -17    2.53    0.46 
   5  -4 -17    0.44    0.36 
  -5  -4  17    0.22    0.16 
  -5   4  17    0.23    0.19 
   5   4 -17   -0.03    0.25 
   4  -4 -17    6.69    0.85 
  -4  -4  17    8.13    0.52 
  -4   4  17    7.91    0.53 
   4   4 -17    9.68    0.80 
   3  -4 -17    0.24    0.40 
  -3  -4  17    0.64    0.18 
  -3   4  17    0.57    0.19 
   3   4 -17    0.68    0.39 
  -2  -4  17    0.33    0.15 
   2  -4 -17    0.11    0.36 
   2   4 -17    0.59    0.38 
  -2   4  17    0.28    0.17 
  -1  -4  17    0.22    0.14 
   1  -4 -17    0.56    0.45 
  -1   4  17    0.68    0.18 
   1   4 -17    1.61    0.52 
   0  -4 -17    0.52    0.46 
   0  -4  17    0.43    0.15 
   0   4 -17    1.02    0.48 
   0   4  17    0.38    0.16 
  -1  -4 -17    0.10    0.41 
   1  -4  17    0.17    0.14 
  -1   4 -17   -0.18    0.33 
   1   4  17   -0.06    0.14 
   2  -4  17    1.54    0.21 
  -2  -4 -17    1.46    0.51 
  -2   4 -17    0.73    0.40 
   2   4  17    0.82    0.18 
   4  -5 -17   -0.12    0.32 
  -4  -5  17    0.99    0.20 
  -4   5  17    0.64    0.20 
   4   5 -17    0.74    0.37 
   3  -5 -17    1.05    0.48 
  -3  -5  17    1.12    0.20 
   3   5 -17    0.76    0.38 
  -3   5  17    0.92    0.21 
  -2  -5  17    0.18    0.15 
   2  -5 -17   -0.45    0.35 
  -2   5  17   -0.13    0.14 
   2   5 -17   -0.17    0.39 
  -1  -5  17    0.11    0.14 
   1  -5 -17   -0.43    0.37 
  -1   5  17   -0.09    0.14 
   1   5 -17    0.18    0.43 
   0  -5 -17    1.98    0.54 
   0  -5  17    2.68    0.25 
   0   5 -17    1.93    0.55 
   0   5  17    2.96    0.28 
   1  -5  17    1.54    0.20 
  -1  -5 -17    1.76    0.56 
   1   5  17    1.41    0.21 
  -1   5 -17    1.43    0.44 
   2  -5  17    1.10    0.19 
  -2  -5 -17    1.17    0.51 
  -2   5 -17    0.99    0.39 
   2   5  17    1.22    0.21 
   4  -6 -17    0.70    0.39 
  -4   6  17    0.77    0.20 
   4   6 -17    1.17    0.39 
   3  -6 -17    0.22    0.40 
  -3   6  17    0.21    0.16 
   3   6 -17    0.05    0.36 
   2  -6 -17    3.50    0.68 
  -2   6  17    4.38    0.34 
   2   6 -17    3.59    0.62 
  -1  -6  17    0.91    0.19 
   1  -6 -17    1.74    0.54 
  -1   6  17    1.14    0.21 
   1   6 -17    1.07    0.45 
   0  -6 -17   -0.15    0.38 
   0  -6  17    0.75    0.16 
   0   6 -17    0.55    0.42 
   0   6  17    0.52    0.17 
   1  -6  17    0.28    0.14 
  -1  -6 -17    0.00    0.38 
  -1   6 -17    0.63    0.39 
   1   6  17    0.51    0.17 
   1  -7 -17    1.42    0.44 
  -1   7  17    2.00    0.24 
   1   7 -17    1.58    0.51 
  -5   0  18   -0.39    0.16 
   5   0 -18   -0.42    0.27 
  -4   0  18    0.91    0.20 
   4   0 -18    1.33    0.42 
  -3   0  18   -0.03    0.17 
   3   0 -18   -0.24    0.29 
   2   0 -18    0.06    0.33 
  -2   0  18    0.20    0.17 
   1   0 -18    0.14    0.41 
  -1   0  18    0.17    0.16 
   0   0 -18    7.93    0.95 
   0   0  18    7.25    0.48 
   1   0  18    0.09    0.16 
  -1   0 -18   -0.48    0.39 
  -2   0 -18    0.53    0.45 
   2   0  18    1.22    0.21 
   5  -1 -18    0.84    0.37 
  -5  -1  18    1.06    0.23 
  -5   1  18    1.39    0.25 
   5   1 -18    1.04    0.37 
   4  -1 -18    1.58    0.45 
  -4  -1  18    1.99    0.26 
   4   1 -18    2.01    0.46 
  -4   1  18    1.68    0.24 
   3  -1 -18    1.33    0.45 
  -3  -1  18    0.95    0.19 
  -3   1  18    0.74    0.21 
   3   1 -18    1.15    0.42 
  -2  -1  18   -0.19    0.15 
   2  -1 -18    0.37    0.40 
  -2   1  18    0.00    0.16 
   2   1 -18    0.13    0.34 
  -1  -1  18    1.51    0.21 
   1  -1 -18    2.22    0.53 
  -1   1  18    1.79    0.23 
   1   1 -18    2.21    0.56 
   0  -1 -18    0.32    0.40 
   0  -1  18    0.33    0.16 
   0   1 -18    1.40    0.52 
   0   1  18    0.64    0.18 
  -1  -1 -18    0.07    0.44 
   1  -1  18    0.00    0.15 
  -1   1 -18   -0.48    0.38 
   1   1  18   -0.30    0.14 
   2  -1  18    1.05    0.20 
  -2  -1 -18    0.61    0.45 
   2   1  18    0.55    0.18 
  -2   1 -18    0.63    0.40 
   5  -2 -18    0.20    0.32 
  -5  -2  18    0.39    0.18 
   5   2 -18    0.44    0.29 
  -5   2  18    0.20    0.17 
   4  -2 -18    0.58    0.37 
  -4  -2  18   -0.15    0.14 
  -4   2  18    0.22    0.17 
   4   2 -18   -0.07    0.26 
   3  -2 -18    3.35    0.57 
  -3  -2  18    1.98    0.25 
  -3   2  18    1.52    0.25 
   3   2 -18    3.04    0.54 
   2  -2 -18    6.24    0.77 
  -2  -2  18    4.26    0.37 
   2   2 -18    5.64    0.72 
  -2   2  18    4.53    0.39 
   1  -2 -18    1.85    0.50 
  -1  -2  18    0.84    0.19 
   1   2 -18    1.54    0.52 
  -1   2  18    0.43    0.16 
   0  -2  18    0.75    0.18 
   0  -2 -18    0.34    0.44 
   0   2 -18    1.06    0.50 
   0   2  18    0.73    0.19 
  -1  -2 -18   -0.51    0.38 
   1  -2  18    0.01    0.14 
   1   2  18    0.23    0.16 
  -1   2 -18   -0.28    0.39 
   2  -2  18    0.22    0.14 
  -2  -2 -18    0.37    0.44 
   2   2  18    0.43    0.17 
  -2   2 -18    0.32    0.41 
   4  -3 -18   -0.15    0.31 
  -4  -3  18    0.10    0.16 
   4   3 -18    0.39    0.31 
  -4   3  18    0.34    0.16 
  -3  -3  18    2.10    0.26 
   3  -3 -18    2.73    0.53 
   3   3 -18    5.33    0.65 
  -3   3  18    2.63    0.28 
   2  -3 -18    1.65    0.46 
  -2  -3  18    1.80    0.23 
   2   3 -18    1.48    0.45 
  -2   3  18    1.13    0.20 
   1  -3 -18    1.58    0.52 
  -1  -3  18    1.81    0.23 
   1   3 -18    1.48    0.50 
  -1   3  18    1.61    0.23 
   0  -3 -18    0.90    0.43 
   0  -3  18    0.42    0.14 
   0   3  18    0.64    0.17 
   0   3 -18    0.27    0.40 
  -1  -3 -18   -0.21    0.40 
   1  -3  18   -0.20    0.14 
  -1   3 -18    0.11    0.39 
   1   3  18    0.02    0.15 
  -4  -4  18    0.06    0.15 
   4  -4 -18   -0.39    0.27 
  -4   4  18    0.01    0.16 
   4   4 -18    0.12    0.29 
   3  -4 -18   -0.27    0.30 
  -3  -4  18   -0.04    0.14 
  -3   4  18   -0.03    0.14 
   3   4 -18    0.06    0.34 
  -2  -4  18   -0.15    0.12 
   2  -4 -18    0.16    0.35 
  -2   4  18    0.00    0.15 
   2   4 -18   -0.12    0.37 
   1  -4 -18    0.13    0.39 
  -1  -4  18   -0.03    0.14 
   1   4 -18   -0.09    0.39 
  -1   4  18    0.25    0.15 
   0  -4  18    0.07    0.14 
   0  -4 -18    0.30    0.41 
   0   4 -18    0.12    0.42 
   0   4  18    0.21    0.16 
   1  -4  18    5.33    0.38 
  -1  -4 -18    5.59    0.81 
   1   4  18    5.68    0.39 
  -1   4 -18    5.73    0.77 
  -2  -5  18    1.28    0.21 
   2  -5 -18    1.37    0.50 
   2   5 -18    1.80    0.53 
  -2   5  18    1.19    0.20 
   1  -5 -18    1.57    0.53 
  -1  -5  18    1.97    0.22 
  -1   5  18    1.33    0.21 
   1   5 -18    2.05    0.55 
   0  -5  18   -0.12    0.13 
   0  -5 -18   -0.49    0.29 
   0   5 -18    0.20    0.40 
   0   5  18    0.02    0.15 
   3   0 -19    5.68    0.71 
   2   0 -19    0.40    0.39 
  -2   0  19    0.19    0.17 
   1   0 -19    0.40    0.38 
  -1   0  19    0.88    0.20 
   0   0  19    0.02    0.14 
   0   0 -19   -0.07    0.35 
  -3  -1  19    0.23    0.17 
   3  -1 -19    0.23    0.32 
   3   1 -19    0.17    0.30 
  -3   1  19    0.38    0.18 
  -2  -1  19    2.29    0.26 
   2  -1 -19    3.41    0.60 
   2   1 -19    3.56    0.60 
  -2   1  19    1.84    0.25 
   1  -1 -19    0.53    0.39 
  -1  -1  19    0.50    0.18 
   1   1 -19    0.66    0.45 
  -1   1  19    0.40    0.16 
   0  -1 -19    1.80    0.54 
   0  -1  19    1.39    0.22 
   0   1  19    1.65    0.23 
   0   1 -19    3.51    0.65 
  -3  -2  19   -0.15    0.13 
   3  -2 -19   -0.11    0.33 
  -3   2  19   -0.02    0.14 
   3   2 -19    0.51    0.36 
   2  -2 -19   -0.23    0.36 
  -2  -2  19   -0.03    0.13 
   2   2 -19   -0.20    0.35 
  -2   2  19    0.14    0.16 
   1  -2 -19    0.07    0.35 
  -1  -2  19    0.01    0.15 
   1   2 -19    0.04    0.37 
  -1   2  19    0.10    0.15 
   0  -2  19    0.42    0.15 
   0  -2 -19   -0.20    0.35 
   0   2  19    0.10    0.16 
   0   2 -19    0.34    0.42 
   0   0   0    0.00    0.00 
;
_shelx_hkl_checksum              68861
loop_
_space_group_symop_operation_xyz
'x, y, z'
'-x+1/2, y+1/2, -z+1/2'
'-x, -y, -z'
'x-1/2, -y-1/2, z-1/2'
loop_
_atom_site_label
_atom_site_type_symbol
_atom_site_fract_x
_atom_site_fract_y
_atom_site_fract_z
_atom_site_U_iso_or_equiv
_atom_site_adp_type
_atom_site_occupancy
_atom_site_site_symmetry_order
_atom_site_calc_flag
_atom_site_refinement_flags_posn
_atom_site_refinement_flags_adp
_atom_site_refinement_flags_occupancy
_atom_site_disorder_assembly
_atom_site_disorder_group
Br1 Br 0.41656(4) 0.81687(3) 0.35389(2) 0.02647(7) Uani 1 1 d . . . . .
Se1 Se 0.20890(3) 0.54720(2) 0.41820(2) 0.02200(7) Uani 1 1 d . . . . .
N1 N 0.3563(3) 0.2998(2) 0.38690(17) 0.0225(4) Uani 1 1 d . . . . .
N2 N 0.1005(3) 0.3855(2) 0.45974(17) 0.0246(4) Uani 1 1 d . . . . .
C1 C 0.3906(4) 0.4365(3) 0.36728(19) 0.0222(4) Uani 1 1 d . . . . .
C2 C 0.5470(4) 0.4720(3) 0.3178(2) 0.0258(5) Uani 1 1 d . . . . .
H2 H 0.5733 0.5662 0.3041 0.031 Uiso 1 1 calc R U . . .
C3 C 0.6636(4) 0.3673(3) 0.2890(2) 0.0294(5) Uani 1 1 d . . . . .
H3 H 0.7706 0.3894 0.2552 0.035 Uiso 1 1 calc R U . . .
C4 C 0.6228(4) 0.2297(3) 0.3099(2) 0.0320(6) Uani 1 1 d . . . . .
H4 H 0.7023 0.1583 0.2896 0.038 Uiso 1 1 calc R U . . .
C5 C 0.4707(4) 0.1961(3) 0.3589(2) 0.0280(5) Uani 1 1 d . . . . .
H5 H 0.4444 0.1022 0.3735 0.034 Uiso 1 1 calc R U . . .
C6 C 0.1923(3) 0.2777(3) 0.43692(19) 0.0227(4) Uani 1 1 d . . . . .
C7 C 0.1347(4) 0.1347(3) 0.4602(2) 0.0303(5) Uani 1 1 d . . . . .
H7A H 0.0181 0.1376 0.4931 0.046 Uiso 1 1 calc R U . . .
H7B H 0.2363 0.0905 0.5087 0.046 Uiso 1 1 calc R U . . .
H7C H 0.1115 0.0815 0.3944 0.046 Uiso 1 1 calc R U . . .
loop_
_atom_site_aniso_label
_atom_site_aniso_U_11
_atom_site_aniso_U_22
_atom_site_aniso_U_33
_atom_site_aniso_U_23
_atom_site_aniso_U_13
_atom_site_aniso_U_12
Br1 0.02699(13) 0.02357(12) 0.02895(13) 0.00171(9) 0.00426(9) -0.00213(9)
Se1 0.02060(12) 0.02105(12) 0.02553(13) 0.00029(8) 0.00732(8) 0.00079(8)
N1 0.0216(9) 0.0213(9) 0.0248(10) -0.0008(7) 0.0043(7) 0.0001(7)
N2 0.0225(10) 0.0247(10) 0.0281(11) 0.0032(8) 0.0088(8) -0.0019(8)
C1 0.0228(11) 0.0235(11) 0.0207(10) 0.0017(8) 0.0044(8) 0.0011(8)
C2 0.0259(12) 0.0270(12) 0.0265(12) -0.0007(9) 0.0106(9) 0.0007(9)
C3 0.0248(12) 0.0354(14) 0.0298(13) 0.0000(10) 0.0106(10) 0.0010(10)
C4 0.0322(14) 0.0303(13) 0.0353(14) -0.0037(11) 0.0106(11) 0.0082(11)
C5 0.0302(12) 0.0233(12) 0.0306(13) -0.0016(9) 0.0051(10) 0.0026(9)
C6 0.0210(10) 0.0229(11) 0.0242(11) 0.0010(9) 0.0035(8) -0.0012(8)
C7 0.0299(13) 0.0241(11) 0.0373(15) 0.0021(10) 0.0060(11) -0.0042(10)
loop_
_atom_type_symbol
_atom_type_description
_atom_type_scat_dispersion_real
_atom_type_scat_dispersion_imag
_atom_type_scat_source
C C 0.0033 0.0016 'International Tables Vol C Tables 4.2.6.8 and 6.1.1.4'
H H 0.0000 0.0000 'International Tables Vol C Tables 4.2.6.8 and 6.1.1.4'
N N 0.0061 0.0033 'International Tables Vol C Tables 4.2.6.8 and 6.1.1.4'
Se Se -0.0929 2.2259 'International Tables Vol C Tables 4.2.6.8 and 6.1.1.4'
Br Br -0.2901 2.4595 'International Tables Vol C Tables 4.2.6.8 and 6.1.1.4'
loop_
_geom_angle_atom_site_label_1
_geom_angle_atom_site_label_2
_geom_angle_atom_site_label_3
_geom_angle
_geom_angle_site_symmetry_1
_geom_angle_site_symmetry_3
_geom_angle_publ_flag
N2 Se1 C1 87.29(10) . . ?
C5 N1 C1 122.0(2) . . ?
C5 N1 C6 124.1(2) . . ?
C1 N1 C6 113.9(2) . . ?
C6 N2 Se1 111.94(17) . . ?
N1 C1 C2 119.5(2) . . ?
N1 C1 Se1 109.82(17) . . ?
C2 C1 Se1 130.71(19) . . ?
C3 C2 C1 118.9(2) . . ?
C3 C2 H2 120.5 . . ?
C1 C2 H2 120.5 . . ?
C2 C3 C4 119.7(2) . . ?
C2 C3 H3 120.1 . . ?
C4 C3 H3 120.1 . . ?
C5 C4 C3 121.0(2) . . ?
C5 C4 H4 119.5 . . ?
C3 C4 H4 119.5 . . ?
C4 C5 N1 118.9(2) . . ?
C4 C5 H5 120.5 . . ?
N1 C5 H5 120.5 . . ?
N2 C6 N1 117.1(2) . . ?
N2 C6 C7 123.1(2) . . ?
N1 C6 C7 119.8(2) . . ?
C6 C7 H7A 109.5 . . ?
C6 C7 H7B 109.5 . . ?
H7A C7 H7B 109.5 . . ?
C6 C7 H7C 109.5 . . ?
H7A C7 H7C 109.5 . . ?
H7B C7 H7C 109.5 . . ?
loop_
_geom_bond_atom_site_label_1
_geom_bond_atom_site_label_2
_geom_bond_distance
_geom_bond_site_symmetry_2
_geom_bond_publ_flag
Se1 N2 1.852(2) . ?
Se1 C1 1.862(2) . ?
N1 C5 1.369(3) . ?
N1 C1 1.372(3) . ?
N1 C6 1.422(3) . ?
N2 C6 1.284(3) . ?
C1 C2 1.396(3) . ?
C2 C3 1.389(4) . ?
C2 H2 0.9500 . ?
C3 C4 1.394(4) . ?
C3 H3 0.9500 . ?
C4 C5 1.363(4) . ?
C4 H4 0.9500 . ?
C5 H5 0.9500 . ?
C6 C7 1.483(4) . ?
C7 H7A 0.9800 . ?
C7 H7B 0.9800 . ?
C7 H7C 0.9800 . ?
loop_
_geom_torsion_atom_site_label_1
_geom_torsion_atom_site_label_2
_geom_torsion_atom_site_label_3
_geom_torsion_atom_site_label_4
_geom_torsion
_geom_torsion_site_symmetry_1
_geom_torsion_site_symmetry_2
_geom_torsion_site_symmetry_3
_geom_torsion_site_symmetry_4
_geom_torsion_publ_flag
C1 Se1 N2 C6 0.19(19) . . . . ?
C5 N1 C1 C2 -0.3(4) . . . . ?
C6 N1 C1 C2 -179.6(2) . . . . ?
C5 N1 C1 Se1 -179.03(19) . . . . ?
C6 N1 C1 Se1 1.7(3) . . . . ?
N2 Se1 C1 N1 -1.07(17) . . . . ?
N2 Se1 C1 C2 -179.6(3) . . . . ?
N1 C1 C2 C3 0.5(4) . . . . ?
Se1 C1 C2 C3 178.8(2) . . . . ?
C1 C2 C3 C4 -0.1(4) . . . . ?
C2 C3 C4 C5 -0.5(4) . . . . ?
C3 C4 C5 N1 0.6(4) . . . . ?
C1 N1 C5 C4 -0.2(4) . . . . ?
C6 N1 C5 C4 179.0(2) . . . . ?
Se1 N2 C6 N1 0.7(3) . . . . ?
Se1 N2 C6 C7 -179.2(2) . . . . ?
C5 N1 C6 N2 179.1(2) . . . . ?
C1 N1 C6 N2 -1.7(3) . . . . ?
C5 N1 C6 C7 -1.0(4) . . . . ?
C1 N1 C6 C7 178.3(2) . . . . ?
