#------------------------------------------------------------------------------
#$Date: 2021-09-06 14:01:32 +0300 (Mon, 06 Sep 2021) $
#$Revision: 268730 $
#$URL: file:///home/coder/svn-repositories/cod/cif/7/70/75/7707586.cif $
#------------------------------------------------------------------------------
#
# This file is available in the Crystallography Open Database (COD),
# http://www.crystallography.net/
#
# All data on this site have been placed in the public domain by the
# contributors.
#
data_7707586
loop_
_publ_author_name
'Cesari, Cristiana'
'Bortoluzzi, Marco'
'Femoni, Cristina'
'Iapalucci, Maria Carmela'
'Zacchini, Stefano'
_publ_section_title
;
 One-pot atmospheric pressure synthesis of
 [H<sub>3</sub>Ru<sub>4</sub>(CO)<sub>12</sub>]<sup/>.
;
_journal_issue                   27
_journal_name_full
'Dalton transactions (Cambridge, England : 2003)'
_journal_page_first              9610
_journal_page_last               9622
_journal_paper_doi               10.1039/d1dt01517f
_journal_volume                  50
_journal_year                    2021
_chemical_formula_sum            'C14 H6 Cu N O12 Ru4'
_chemical_formula_weight         848.02
_space_group_crystal_system      triclinic
_space_group_IT_number           2
_space_group_name_Hall           '-P 1'
_space_group_name_H-M_alt        'P -1'
_atom_sites_solution_hydrogens   mixed
_audit_creation_method           SHELXL-2014/7
_audit_update_record
;
2021-05-06 deposited with the CCDC.	2021-06-04 downloaded from the CCDC.
;
_cell_angle_alpha                86.3950(10)
_cell_angle_beta                 71.6300(10)
_cell_angle_gamma                85.3670(10)
_cell_formula_units_Z            2
_cell_length_a                   8.5369(3)
_cell_length_b                   10.0317(4)
_cell_length_c                   13.1229(5)
_cell_measurement_reflns_used    9950
_cell_measurement_temperature    100(2)
_cell_measurement_theta_max      32.0815
_cell_measurement_theta_min      2.519
_cell_volume                     1062.25(7)
_computing_cell_refinement       'APEX2 (Bruker AXS, 2006)'
_computing_data_collection       'APEX2 (Bruker AXS, 2006)'
_computing_data_reduction        'SAINT (Bruker AXS, 2004)'
_computing_molecular_graphics    'SCHAKAL99 (Keller, 1999)'
_computing_publication_material  'XCIF (Bruker AXS, 2001)'
_computing_structure_refinement  'SHELXL-2014/7 (Sheldrick, 2014)'
_computing_structure_solution    'SHELXL-2014/7 (Sheldrick, 2014)'
_diffrn_ambient_temperature      100(2)
_diffrn_measured_fraction_theta_full 0.999
_diffrn_measured_fraction_theta_max 0.999
_diffrn_measurement_device_type  'PHOTON2 area detector'
_diffrn_measurement_method       'phi and omega scans'
_diffrn_radiation_type           MoK\a
_diffrn_radiation_wavelength     0.71073
_diffrn_reflns_av_R_equivalents  0.0428
_diffrn_reflns_av_unetI/netI     0.0274
_diffrn_reflns_Laue_measured_fraction_full 0.999
_diffrn_reflns_Laue_measured_fraction_max 0.999
_diffrn_reflns_limit_h_max       10
_diffrn_reflns_limit_h_min       -10
_diffrn_reflns_limit_k_max       12
_diffrn_reflns_limit_k_min       -12
_diffrn_reflns_limit_l_max       16
_diffrn_reflns_limit_l_min       -16
_diffrn_reflns_number            20903
_diffrn_reflns_point_group_measured_fraction_full 0.999
_diffrn_reflns_point_group_measured_fraction_max 0.999
_diffrn_reflns_theta_full        25.242
_diffrn_reflns_theta_max         27.000
_diffrn_reflns_theta_min         1.636
_diffrn_source                   'fine-focus sealed tube'
_exptl_absorpt_coefficient_mu    3.825
_exptl_absorpt_correction_T_max  0.4343
_exptl_absorpt_correction_T_min  0.3097
_exptl_absorpt_correction_type   empirical
_exptl_absorpt_process_details
;
 Data were corrected for Lorentz polarization and absorption
 effects (empirical absorption corrections SADABS).
 R(int) = 0.1194 (selected reflections only, before parameter refinement)
 R(int) = 0.0472 (selected reflections only, after parameter refinement)
;
_exptl_crystal_colour            red
_exptl_crystal_density_diffrn    2.651
_exptl_crystal_description       prism
_exptl_crystal_F_000             796
_exptl_crystal_size_max          0.210
_exptl_crystal_size_mid          0.180
_exptl_crystal_size_min          0.140
_refine_diff_density_max         1.082
_refine_diff_density_min         -0.501
_refine_diff_density_rms         0.105
_refine_ls_extinction_method     none
_refine_ls_goodness_of_fit_ref   1.179
_refine_ls_hydrogen_treatment    mixed
_refine_ls_matrix_type           full
_refine_ls_number_parameters     299
_refine_ls_number_reflns         4626
_refine_ls_number_restraints     0
_refine_ls_restrained_S_all      1.179
_refine_ls_R_factor_all          0.0235
_refine_ls_R_factor_gt           0.0170
_refine_ls_shift/su_max          0.002
_refine_ls_shift/su_mean         0.000
_refine_ls_structure_factor_coef Fsqd
_refine_ls_weighting_details
'w=1/[\s^2^(Fo^2^)+(0.0067P)^2^+0.7710P] where P=(Fo^2^+2Fc^2^)/3'
_refine_ls_weighting_scheme      calc
_refine_ls_wR_factor_gt          0.0388
_refine_ls_wR_factor_ref         0.0399
_reflns_Friedel_coverage         0.000
_reflns_number_gt                4272
_reflns_number_total             4626
_reflns_threshold_expression     'I > 2\s(I)'
_cod_data_source_file            d1dt01517f3.cif
_cod_data_source_block           7
_cod_depositor_comments
'Adding full bibliography for 7707576--7707590.cif.'
_cod_database_code               7707586
_shelx_shelxl_version_number     2014/7
_shelx_space_group_comment
;
The symmetry employed for this shelxl refinement is uniquely defined
by the following loop, which should always be used as a source of
symmetry information in preference to the above space-group names.
They are only intended as comments.
;
_shelx_estimated_absorpt_t_min   0.501
_shelx_estimated_absorpt_t_max   0.617
_shelx_res_file
;

    p-1_a.res created by SHELXL-2014/7


TITL p-1_a.res in P-1
CELL  0.71073   8.5369  10.0317  13.1229   86.395   71.630   85.367
ZERR    2.000   0.0003   0.0004   0.0005    0.001    0.001    0.001
LATT 1
SFAC C  H  Cu N  O  Ru
UNIT 28  12  2  2  24  8
OMIT -3 54
L.S. 10
ACTA
BOND $H
FMAP 2
PLAN 20
size 0.21 0.18 0.14
TEMP -173

WGHT    0.006700    0.771000
FVAR       0.30075
RU1   6    0.476253    0.266655    0.849774    11.00000    0.01216    0.01412 =
         0.00844   -0.00088   -0.00069   -0.00214
RU2   6    0.661295    0.435737    0.686503    11.00000    0.01058    0.01117 =
         0.01102   -0.00111   -0.00190   -0.00220
H1    2    0.835814    0.314664    0.641103    11.00000   -1.20000
RU3   6    0.765168    0.151102    0.709751    11.00000    0.01108    0.01216 =
         0.01063   -0.00030   -0.00268   -0.00083
H2    2    0.673154    0.140097    0.613450    11.00000   -1.20000
RU4   6    0.466652    0.228534    0.643527    11.00000    0.01042    0.01333 =
         0.01059   -0.00134   -0.00271   -0.00261
H3    2    0.595152    0.372696    0.582853    11.00000   -1.20000
CU1   3    0.777520    0.272319    0.515217    11.00000    0.01707    0.02524 =
         0.01123   -0.00145   -0.00017   -0.00288
C1    1    0.547636    0.312549    0.964957    11.00000    0.01799    0.02000 =
         0.01428   -0.00058   -0.00115   -0.00269
C2    1    0.276114    0.375078    0.895858    11.00000    0.01835    0.02079 =
         0.01192   -0.00074   -0.00195   -0.00243
C3    1    0.382213    0.110845    0.924893    11.00000    0.01983    0.02351 =
         0.01195   -0.00153   -0.00468   -0.00237
C4    1    0.742756    0.486768    0.795376    11.00000    0.01609    0.01690 =
         0.01620   -0.00079   -0.00304   -0.00197
C5    1    0.476982    0.560977    0.729329    11.00000    0.01636    0.01538 =
         0.01545    0.00028   -0.00491   -0.00360
C6    1    0.794048    0.552752    0.575897    11.00000    0.01380    0.01729 =
         0.01694   -0.00267   -0.00393   -0.00030
C7    1    0.851218    0.179198    0.823115    11.00000    0.02110    0.01465 =
         0.01843    0.00170   -0.00461   -0.00174
C8    1    0.690219   -0.018666    0.767331    11.00000    0.01789    0.02190 =
         0.01721    0.00198   -0.00746   -0.00044
C9    1    0.976775    0.090375    0.611835    11.00000    0.01781    0.01412 =
         0.01560   -0.00130   -0.00618   -0.00126
C10   1    0.350588    0.079135    0.714620    11.00000    0.01543    0.02039 =
         0.01932   -0.00297   -0.00586   -0.00266
C11   1    0.268776    0.339368    0.678104    11.00000    0.01555    0.02216 =
         0.01525   -0.00180   -0.00551   -0.00542
C12   1    0.466407    0.188259    0.500969    11.00000    0.01316    0.01649 =
         0.01650   -0.00061   -0.00336   -0.00206
O1    5    0.583863    0.340195    1.037542    11.00000    0.03137    0.03887 =
         0.01572   -0.00519   -0.00730   -0.00957
O2    5    0.154077    0.437765    0.925596    11.00000    0.02192    0.03441 =
         0.01926   -0.00373   -0.00204    0.00615
O3    5    0.321113    0.020408    0.974390    11.00000    0.03435    0.02736 =
         0.02162    0.00666   -0.00598   -0.01250
O4    5    0.796716    0.523070    0.857265    11.00000    0.02788    0.02951 =
         0.02291   -0.00438   -0.01012   -0.00869
O5    5    0.369575    0.640078    0.752191    11.00000    0.02153    0.02585 =
         0.02130   -0.00205   -0.00474    0.00508
O6    5    0.867298    0.632565    0.520768    11.00000    0.02020    0.02264 =
         0.02365    0.00606   -0.00458   -0.00545
O7    5    0.913012    0.193161    0.886839    11.00000    0.02877    0.03108 =
         0.02243   -0.00089   -0.01405   -0.00604
O8    5    0.649131   -0.122656    0.798089    11.00000    0.03144    0.01932 =
         0.03297    0.00793   -0.01211   -0.00742
O9    5    1.107688    0.054121    0.564478    11.00000    0.01595    0.02674 =
         0.02420   -0.00585   -0.00278    0.00033
O10   5    0.275833   -0.010566    0.752365    11.00000    0.02771    0.02635 =
         0.02285    0.00325   -0.00631   -0.01360
O11   5    0.149461    0.406333    0.696394    11.00000    0.01829    0.03200 =
         0.02531   -0.00586   -0.00741    0.00408
O12   5    0.450542    0.158156    0.423025    11.00000    0.02665    0.02793 =
         0.01614   -0.00443   -0.00806   -0.00330
N1    4    0.888593    0.259894    0.366048    11.00000    0.01584    0.01810 =
         0.01744    0.00029   -0.00362   -0.00168
C101  1    0.933696    0.249380    0.275377    11.00000    0.01406    0.01855 =
         0.01845    0.00062   -0.00349   -0.00154
C102  1    0.986156    0.235591    0.159619    11.00000    0.02299    0.03235 =
         0.01316   -0.00192   -0.00040   -0.00542
AFIX 137
H10A  2    0.924055    0.167097    0.142202    11.00000   -1.50000
H10B  2    1.104649    0.209075    0.134063    11.00000   -1.50000
H10C  2    0.965118    0.321308    0.124586    11.00000   -1.50000
AFIX   0
HKLF 4

REM  p-1_a.res in P-1
REM R1 =  0.0170 for    4272 Fo > 4sig(Fo)  and  0.0235 for all    4626 data
REM    299 parameters refined using      0 restraints

END

WGHT      0.0067      0.7710

REM Highest difference peak  1.082,  deepest hole -0.501,  1-sigma level  0.105
Q1    1   0.5188  0.4675  0.5087  11.00000  0.05    1.08
Q2    1   0.7491  0.2054  0.6701  11.00000  0.05    0.66
Q3    1   0.6513  0.4988  0.6438  11.00000  0.05    0.62
Q4    1   0.4705  0.2922  0.6066  11.00000  0.05    0.60
Q5    1   0.5648  0.2247  0.5965  11.00000  0.05    0.53
Q6    1   0.7473  0.3455  0.4776  11.00000  0.05    0.53
Q7    1   0.6655  0.4171  0.6009  11.00000  0.05    0.49
Q8    1   0.8054  0.2540  0.5886  11.00000  0.05    0.48
Q9    1   0.4518  0.3291  0.8177  11.00000  0.05    0.48
Q10   1   0.4027  0.3683  0.7573  11.00000  0.05    0.46
Q11   1   0.7539  0.4642  0.5916  11.00000  0.05    0.45
Q12   1   0.4659  0.1686  0.6939  11.00000  0.05    0.44
Q13   1   0.6856  0.2806  0.8381  11.00000  0.05    0.43
Q14   1   0.6782  0.4524  0.7428  11.00000  0.05    0.43
Q15   1   0.7186  0.2695  0.6157  11.00000  0.05    0.42
Q16   1   0.5022  0.1608  0.8449  11.00000  0.05    0.41
Q17   1   0.6599  0.3744  0.7419  11.00000  0.05    0.40
Q18   1   0.8965  0.1716  0.6019  11.00000  0.05    0.39
Q19   1   0.8935  0.2384  0.1340  11.00000  0.05    0.39
Q20   1   0.5097  0.0893  0.7825  11.00000  0.05    0.39
;
_shelx_res_checksum              50489
_shelx_hkl_file
;
  -1   0   0 3498.45  117.89
  -2   0   0   81.89    3.70
  -2   0   0   82.39    2.80
  -2   0   0   80.19    3.10
  -2   0   0   79.99   15.40
   2   0   0   79.79    2.70
   2   0   0   90.89    3.10
   2   0   0   79.69    3.30
   2   0   0   81.69    2.70
  -3   0   0  806.82   26.00
  -3   0   0  937.71   65.49
  -3   0   0  912.91   25.80
   3   0   0  916.31   26.60
   3   0   0  937.81   26.10
   3   0   0  883.31   25.60
  -4   0   0 1018.60   79.29
  -4   0   0 1077.19   30.90
   4   0   0 1056.59   31.90
   4   0   0 1099.89   31.30
  -5   0   0  246.48    8.10
  -5   0   0  293.67   45.60
   5   0   0  246.38    9.30
   5   0   0  245.98    8.50
   5   0   0  240.58   38.30
  -6   0   0   96.39   34.00
  -6   0   0  144.19    5.40
   6   0   0  142.79    6.60
   6   0   0  117.19   32.40
   6   0   0  141.99    5.80
  -7   0   0  728.53   22.00
  -7   0   0  660.83   86.99
  -7   0   0  711.53   22.00
   7   0   0  734.33   23.90
   7   0   0  702.63   22.20
   7   0   0  746.13   83.79
  -8   0   0  145.79   47.90
  -8   0   0  133.09    5.60
  -8   0   0  129.19    5.80
   8   0   0   90.29   35.70
   8   0   0  126.89    5.80
  -9   0   0  511.35   16.80
  -9   0   0  514.65   17.00
  -9   0   0  358.46   70.29
   9   0   0  667.93   92.99
   9   0   0  517.35   17.00
   9   0   0  510.25   19.00
 -10   0   0  245.98    9.80
 -10   0   0  247.68    9.70
  10   0   0  254.57   13.00
  10   0   0  244.18   72.29
  10   0   0  246.98   11.50
 -11   0   0   12.20    2.40
 -11   0   0   12.30    2.30
  11   0   0   19.10    3.10
 -12   0   0    5.60    1.70
 -12   1   0   60.19    4.20
 -12   1   0   69.49    4.80
  11  -1   0  248.58   13.90
 -11   1   0  236.58    9.60
 -11   1   0  229.68   10.00
  10  -1   0  553.74   18.00
  10  -1   0  397.96   95.09
  10  -1   0  553.04   20.00
 -10   1   0  529.95   18.30
 -10   1   0  542.85   17.90
 -10   1   0  431.76   84.29
   9  -1   0  125.59    7.00
   9  -1   0  128.19    5.90
   9  -1   0  154.78   57.69
  -9   1   0   64.49   29.30
  -9   1   0  121.39    5.60
   8  -1   0  -11.90   21.60
   8  -1   0    1.80    1.30
   8  -1   0    3.90    1.50
  -8   1   0    2.70    1.00
  -8   1   0   20.10   21.90
   7  -1   0 1093.59   32.40
   7  -1   0 1164.78  113.89
   7  -1   0 1062.09   33.80
  -7   1   0 1090.49   32.00
  -7   1   0 1040.20  111.69
  -7   1   0 1051.49   33.10
   6  -1   0 3499.05  189.08
   6  -1   0 3457.05   97.89
   6  -1   0 3359.46   99.19
  -6   1   0 3367.36  191.48
  -6   1   0 3486.05   97.49
  -6   1   0 3425.66   97.89
   5  -1   0   71.69    3.40
   5  -1   0   97.79   32.00
   5  -1   0   71.39    3.90
  -5   1   0   73.89    3.60
  -5   1   0   72.99   28.20
  -5   1   0   71.59    3.10
   4  -1   0   13.80    1.40
   4  -1   0   12.20    1.40
   4  -1   0    5.60    9.50
  -4   1   0   12.50    1.50
  -4   1   0    7.90    8.60
  -4   1   0   11.30    1.00
   3  -1   0 1256.87   37.80
   3  -1   0 1251.17   36.90
   3  -1   0 1296.07   77.89
   3  -1   0 1320.27   37.30
  -3   1   0 1303.27   36.90
  -3   1   0 1344.37   37.30
  -3   1   0 1320.77   79.69
   2  -1   0  288.57   28.50
   2  -1   0  297.57    8.80
   2  -1   0  311.67    9.10
   2  -1   0  293.67    9.40
   2  -1   0  301.97    9.10
  -2   1   0  307.47    8.80
  -2   1   0  309.67   29.80
  -2   1   0  300.87    9.20
  -2   1   0  309.27    9.20
  -2   1   0  285.87    9.40
   1  -1   0  538.95   31.10
   1  -1   0  519.25   15.00
   1  -1   0  504.75   14.70
  -1   1   0  539.15   15.00
  -1   1   0  518.85   14.70
  -1   1   0  542.85   31.50
  -1   1   0  506.35   14.90
  -1   1   0  495.75   15.00
   0  -1   0  131.29   11.00
   0  -1   0  143.19    4.30
   0  -1   0  127.79    4.10
   0  -1   0  153.98    4.30
   0   1   0  158.98    4.50
   0   1   0  139.99    4.10
   0   1   0  149.39    4.30
   0   1   0  147.49   11.50
  -1  -1   0 1651.13   47.90
   1   1   0 1680.83   67.69
   1   1   0 1702.63   48.00
  -2  -1   0  808.62   22.50
  -2  -1   0  776.22   23.60
  -2  -1   0  796.42   55.89
  -2  -1   0  775.92   22.60
   2   1   0  780.82   23.50
   2   1   0  787.22   22.50
  -3  -1   0 1322.97   39.70
  -3  -1   0 1449.65   39.80
  -3  -1   0 1513.75   90.69
   3   1   0 1422.86   41.20
   3   1   0 1402.66   40.40
   3   1   0 1363.16   40.00
  -4  -1   0 1166.98   36.20
  -4  -1   0 1305.47   36.70
  -4  -1   0 1256.47   92.49
  -4  -1   0 1300.97   36.40
   4   1   0 1324.87   37.10
   4   1   0 1275.87   37.90
  -5  -1   0   49.00    2.50
  -5  -1   0   47.40   21.70
  -5  -1   0   51.69    2.50
   5   1   0   47.40    3.30
   5   1   0   48.30    3.00
  -6  -1   0  526.75   71.19
  -6  -1   0  559.94   17.30
  -6  -1   0  568.74   17.10
   6   1   0  551.84   18.80
   6   1   0  571.04   17.70
  -7  -1   0  716.33   88.19
  -7  -1   0  684.23   20.70
  -7  -1   0  702.83   21.10
   7   1   0  683.13   22.80
   7   1   0  707.13   21.50
   7   1   0  487.45   75.29
  -8  -1   0   82.89    4.20
  -8  -1   0   68.19   40.60
  -8  -1   0   86.69    4.30
   8   1   0   84.09    4.50
   8   1   0   81.19    5.30
  -9  -1   0  166.88   61.89
  -9  -1   0  237.08    8.90
  -9  -1   0  229.78    8.60
   9   1   0  227.48    9.10
   9   1   0  223.68   10.50
 -10  -1   0  934.21   29.30
 -10  -1   0  954.40   29.80
  10   1   0  970.90   32.30
 -11  -1   0  312.77   11.60
 -11  -1   0  320.27   12.10
  11   1   0  326.67   14.30
 -12  -1   0    2.60    1.40
  11  -2   0   15.50    2.20
 -11   2   0   10.30    2.00
  10  -2   0    6.80    2.50
  10  -2   0  -60.29   44.70
  10  -2   0    4.00    1.70
 -10   2   0  -30.90   30.20
 -10   2   0    4.20    1.40
 -10   2   0    4.20    2.30
   9  -2   0  -13.80   31.10
  -9   2   0   -1.70   26.10
   8  -2   0  260.97   10.10
   8  -2   0  273.67   12.20
   8  -2   0  320.07   59.79
  -8   2   0  277.17   10.60
  -8   2   0  422.46   63.79
   7  -2   0  612.54   20.50
   7  -2   0  634.64   91.99
   7  -2   0  624.14   19.40
  -7   2   0  609.44   19.70
  -7   2   0  529.15   80.59
  -7   2   0  617.94   18.90
   6  -2   0   50.09    3.40
   6  -2   0   49.20   25.10
   6  -2   0   51.19    3.10
  -6   2   0   54.49    3.60
  -6   2   0   52.69    2.60
  -6   2   0   99.49   34.20
   5  -2   0  173.38    7.10
   5  -2   0  200.98   32.70
   5  -2   0  181.98    6.60
  -5   2   0  176.98    6.80
  -5   2   0  180.28    6.10
  -5   2   0  216.38   40.00
   4  -2   0  974.40   29.30
   4  -2   0  950.20   29.10
   4  -2   0  976.20   75.79
  -4   2   0  975.80   28.10
  -4   2   0 1012.60   28.90
  -4   2   0  953.90   76.79
   3  -2   0 7003.60  245.08
  -3   2   0 5747.62  259.17
   2  -2   0 8955.20  295.77
  -2   2   0 8943.11  297.17
   1  -2   0  521.25   15.20
   1  -2   0  518.45   15.10
   1  -2   0  540.95   15.10
   1  -2   0  527.45   35.60
  -1   2   0  529.55   15.20
  -1   2   0  481.55   15.10
  -1   2   0  548.45   36.30
  -1   2   0  499.45   15.10
   0  -2   0 2204.68   84.89
   0   2   0 2165.78   84.09
  -1  -2   0 1017.90   57.99
  -1  -2   0 1219.28   34.00
   1   2   0 1221.68   34.20
   1   2   0 1075.79   58.79
   1   2   0 1234.38   33.20
  -2  -2   0    0.60    1.70
  -2  -2   0    0.80    0.40
  -2  -2   0    2.00    0.40
   2   2   0   -1.10    5.80
   2   2   0    2.00    0.50
   2   2   0    1.40    1.50
   2   2   0   -3.70    6.30
  -3  -2   0  680.13   20.10
  -3  -2   0  681.63   20.00
   3   2   0  682.73   21.50
   3   2   0  698.23   61.79
  -4  -2   0 2944.81  163.38
   4   2   0 2917.81   85.89
   4   2   0 3139.99  159.58
   4   2   0 2939.91   84.69
  -5  -2   0  547.35   16.50
  -5  -2   0  545.55   68.99
   5   2   0  555.94   67.79
   5   2   0  527.65   18.20
   5   2   0  538.45   17.00
  -6  -2   0  120.39    4.90
  -6  -2   0  111.79   63.29
   6   2   0  120.29    6.30
   6   2   0  120.29    5.40
  -7  -2   0   46.30    2.80
  -7  -2   0   53.29   30.90
  -7  -2   0   44.70    2.60
   7   2   0   44.10    3.40
   7   2   0   42.30    3.70
  -8  -2   0   -7.60   20.90
  -8  -2   0    3.40    1.30
   8   2   0    3.70    1.90
   8   2   0    5.00    1.80
  -9  -2   0    0.90    1.00
  -9  -2   0    0.90    1.00
   9   2   0    3.50    1.70
 -10  -2   0   13.30    1.90
  10   2   0   17.50    3.90
 -11  -2   0    2.50    1.10
  11   2   0    3.20    1.60
  11   2   0    5.00    1.30
  12   2   0   41.00    3.30
  11  -3   0    3.10    1.30
 -11   3   0    3.20    2.00
 -11   3   0    1.10    1.00
  10  -3   0  365.06   14.30
  10  -3   0  294.37   96.19
  10  -3   0  363.76   13.00
 -10   3   0  364.36   12.70
 -10   3   0  366.06   14.30
   9  -3   0  692.93  111.59
   9  -3   0  821.02   27.20
   9  -3   0  829.42   25.80
  -9   3   0  840.52   27.00
  -9   3   0  744.63  105.59
  -9   3   0  847.22   25.40
   8  -3   0  381.36   67.79
   8  -3   0  372.96   12.70
  -8   3   0  371.76   69.99
  -8   3   0  362.46   13.60
  -8   3   0  368.16   12.30
   7  -3   0  303.07   67.19
   7  -3   0  296.07   10.50
   7  -3   0  286.27   11.20
  -7   3   0  277.17   53.79
  -7   3   0  306.97   11.30
  -7   3   0  305.17   10.00
   6  -3   0  533.95   17.80
   6  -3   0  514.15   66.99
   6  -3   0  547.75   17.10
  -6   3   0  535.35   16.40
  -6   3   0  516.25   68.89
  -6   3   0  554.44   17.70
   5  -3   0  359.16   12.30
   5  -3   0  342.87   50.29
   5  -3   0  355.06   11.80
  -5   3   0  459.45   58.39
  -5   3   0  362.26   12.30
   4  -3   0   56.49   19.00
   4  -3   0   39.10    2.30
   4  -3   0   41.20    2.40
  -4   3   0   37.50   19.00
  -4   3   0   42.10    1.90
  -4   3   0   41.70    2.80
   3  -3   0   98.39   26.40
   3  -3   0   83.89    3.50
   3  -3   0   90.29    3.50
   3  -3   0   83.69    2.90
  -3   3   0   84.49    3.00
  -3   3   0   91.29    4.10
   2  -3   0 2844.02  126.39
   2  -3   0 2759.22   81.19
  -2   3   0 3044.40  130.09
   1  -3   0   36.50    1.70
   1  -3   0   32.10   10.90
   1  -3   0   39.20    1.70
  -1   3   0   49.80   14.90
  -1   3   0   35.00    1.70
  -1   3   0   38.10    2.10
   0  -3   0  452.05   13.10
   0  -3   0  449.86   12.60
   0  -3   0  464.35   36.00
   0  -3   0  460.65   13.10
   0   3   0  470.35   13.70
   0   3   0  421.16   13.10
   0   3   0  452.25   13.20
   0   3   0  423.76   34.30
   0   3   0  433.76   12.70
   0   3   0  403.66   13.00
  -1  -3   0   40.60    3.00
  -1  -3   0   27.20   11.80
  -1  -3   0   37.30    1.70
  -1  -3   0   39.10    1.70
   1   3   0   43.00    3.20
   1   3   0   37.10    1.50
   1   3   0   37.20    1.80
   1   3   0   35.70    1.60
   1   3   0   36.90   12.80
  -2  -3   0 1411.86   81.89
  -2  -3   0 1457.45   42.10
   2   3   0 1470.75   85.09
   2   3   0 1533.25   43.90
  -3  -3   0  569.64   16.60
  -3  -3   0  543.35   16.70
   3   3   0  546.65   59.59
   3   3   0  567.84   18.70
   3   3   0  554.84   53.69
  -4  -3   0  266.87    8.90
  -4  -3   0  278.27    8.80
   4   3   0  267.97   10.70
   4   3   0  280.67   40.90
   4   3   0  259.47   43.40
  -5  -3   0   50.29    2.70
   5   3   0   48.40   22.30
   5   3   0   45.50    4.10
   5   3   0   42.20   23.30
  -6  -3   0  351.06   11.40
   6   3   0  346.47   12.00
   6   3   0  285.17   49.50
   6   3   0  406.86   61.99
   6   3   0  337.47   13.40
  -7  -3   0 1617.14   48.10
   7   3   0 1669.63   48.60
   7   3   0 1580.94   50.29
   7   3   0 1631.84  138.59
   7   3   0 1800.12  132.69
  -8  -3   0  768.82   24.10
   8   3   0  831.02  104.19
   8   3   0  771.92   26.40
   8   3   0  688.43   84.19
   8   3   0  787.92   24.50
  -9  -3   0  111.99    5.50
   9   3   0  115.39    7.00
   9   3   0   97.19   53.49
   9   3   0   44.40   31.90
 -10  -3   0    6.60    1.80
  10   3   0    4.80    1.80
 -11  -3   0   38.50    3.40
  11   3   0   48.10    4.70
  11  -4   0   28.60    2.60
 -11   4   0   19.60    4.40
  10  -4   0  122.69    6.60
  10  -4   0  110.59    5.60
 -10   4   0  107.69    5.20
 -10   4   0  111.39    7.20
   9  -4   0   24.30    2.50
   9  -4   0   -3.30   42.70
   9  -4   0   24.80    2.70
  -9   4   0   23.80    3.70
  -9   4   0   23.00    2.10
   8  -4   0  263.97   63.69
   8  -4   0  231.18    9.80
   8  -4   0  236.48    9.10
  -8   4   0  244.18   10.30
  -8   4   0  245.88    8.60
  -8   4   0  240.48   51.89
   7  -4   0   60.69    3.80
   7  -4   0   59.49    3.80
   7  -4   0   56.29   36.40
  -7   4   0   60.09    3.00
  -7   4   0   40.20   27.20
  -7   4   0   60.29    4.50
   6  -4   0  266.47   10.00
   6  -4   0  270.37    9.60
   6  -4   0  316.97   51.89
  -6   4   0  281.27   10.50
  -6   4   0  265.77    8.80
  -6   4   0  262.07   50.49
   5  -4   0  886.31   82.49
   5  -4   0  900.01   27.10
   5  -4   0  887.31   27.30
  -5   4   0  898.81   26.20
  -5   4   0  920.01   27.80
  -5   4   0  929.71   88.09
   4  -4   0 2314.37  131.59
   4  -4   0 2170.98   64.19
   4  -4   0 2252.57   64.19
  -4   4   0 2253.47   63.29
  -4   4   0 2193.38  131.99
  -4   4   0 2249.57   64.69
   3  -4   0 1036.60   29.50
   3  -4   0 1007.10   76.59
   3  -4   0 1004.80   29.50
   3  -4   0  975.30   28.50
  -3   4   0  916.41   87.59
  -3   4   0 1022.70   29.90
  -3   4   0 1009.40   28.60
   2  -4   0  280.57    9.00
   2  -4   0  272.17    9.40
   2  -4   0  303.67   36.80
  -2   4   0  281.47   10.40
  -2   4   0  279.47   35.20
   1  -4   0   12.50    9.40
   1  -4   0   10.40    1.00
   1  -4   0   13.90    1.00
  -1   4   0   12.90    1.50
  -1   4   0   13.30   10.30
   0  -4   0  706.23   20.30
   0  -4   0  675.03   19.70
   0  -4   0  720.53   52.29
   0   4   0  713.43   21.10
   0   4   0  694.43   20.50
   0   4   0  666.03   19.70
   0   4   0  674.13   50.29
  -1  -4   0 1842.72   97.29
  -1  -4   0 1817.82   51.79
   1   4   0 1707.33   51.59
   1   4   0 1970.80   53.59
   1   4   0 1820.72   51.99
   1   4   0 1812.02   94.89
  -2  -4   0 2039.00   56.89
  -2  -4   0 1823.02  105.89
   2   4   0 2078.59   58.99
   2   4   0 1974.00  108.39
  -3  -4   0  473.55   14.80
  -3  -4   0  483.35   14.60
   3   4   0  440.66   50.79
   3   4   0  508.25   17.30
   4   4   0   -6.20    9.10
   4   4   0    1.10    2.50
   4   4   0    0.60   10.00
  -5  -4   0   27.10    1.90
  -5  -4   0   22.70    1.90
   5   4   0   49.50   25.10
   5   4   0   23.30    3.90
   5   4   0   27.40   24.50
  -6  -4   0   79.69    3.80
   6   4   0   80.89    4.60
   6   4   0   99.19   37.30
   6   4   0   35.80   23.10
   6   4   0   70.69    5.60
   7   4   0   -1.00   22.80
   7   4   0   31.10    3.10
   7   4   0   31.00    3.90
   7   4   0   32.00   22.80
  -8  -4   0   34.20    2.60
   8   4   0   30.80    3.40
   8   4   0   26.80    3.70
   8   4   0   26.20   22.80
   9   4   0  -21.60   22.60
 -10  -4   0   11.50    2.20
  10   4   0   17.00    4.20
 -11  -4   0  284.37   11.40
  11   4   0  285.27   13.40
  11  -5   0  155.58    7.10
 -11   5   0  169.98    9.20
 -11   5   0  149.79    6.80
  10  -5   0  264.57   10.20
  10  -5   0  227.88   11.90
 -10   5   0  224.38   11.00
 -10   5   0  221.78    8.80
   9  -5   0  126.69   49.70
   9  -5   0  225.88    9.60
   9  -5   0  233.78    9.10
  -9   5   0  217.98   10.40
  -9   5   0  227.88    8.30
   8  -5   0  175.98    7.80
   8  -5   0  182.08   50.19
   8  -5   0  173.78    7.30
  -8   5   0  172.18    6.60
  -8   5   0  175.18    8.60
  -8   5   0  182.18   49.99
   7  -5   0   47.20    3.20
   7  -5   0   49.00    3.30
   7  -5   0   26.30   27.30
  -7   5   0   50.29   26.90
  -7   5   0   47.40    4.30
  -7   5   0   50.49    2.60
   6  -5   0   30.60    2.40
   6  -5   0   26.80    2.30
   6  -5   0   28.60   26.30
  -6   5   0   30.40    1.80
  -6   5   0   -0.30   21.00
  -6   5   0   32.20    3.60
   5  -5   0  293.07   10.00
   5  -5   0  281.27   10.10
   5  -5   0  286.57   49.99
  -5   5   0  233.38   53.19
  -5   5   0  286.87   10.90
  -5   5   0  293.87    9.00
   4  -5   0 1323.27   38.90
   4  -5   0 1349.77   38.90
   4  -5   0 1360.76  100.79
   4  -5   0 1221.28   37.60
  -4   5   0 1343.07   39.70
  -4   5   0 1364.06   37.80
  -4   5   0 1363.46  103.79
   3  -5   0   63.19    3.00
   3  -5   0   49.20   19.10
   3  -5   0   59.39    2.90
  -3   5   0   57.59   24.90
  -3   5   0   59.19    3.70
   2  -5   0   50.59   19.70
   2  -5   0   50.89    2.80
   2  -5   0   57.19    2.70
  -2   5   0   57.59   21.60
  -2   5   0   54.79    3.30
   1  -5   0    9.80    9.00
   1  -5   0    1.90    0.60
   1  -5   0    1.10    0.50
  -1   5   0    2.20    1.50
  -1   5   0    1.80    6.60
   0  -5   0   82.09    3.30
   0  -5   0   80.49   22.80
   0  -5   0   80.19    2.70
   0   5   0   81.39    3.60
   0   5   0   82.89    4.40
   0   5   0   73.89    2.90
   0   5   0   87.89   23.90
  -1  -5   0   59.59   19.90
  -1  -5   0   53.19    2.10
  -1  -5   0   56.89    2.60
   1   5   0   56.89    4.20
   1   5   0   37.50   15.20
   1   5   0   54.09    2.30
   1   5   0   51.29    2.60
  -2  -5   0    6.30    0.90
  -2  -5   0    5.40    0.80
  -2  -5   0    3.70   10.10
  -2  -5   0    7.10    0.90
   2   5   0    7.80    2.80
   2   5   0    1.20    9.40
   2   5   0    8.00    1.10
  -3  -5   0    5.10    1.00
  -3  -5   0    3.80    0.90
  -3  -5   0   16.60    9.80
   3   5   0    5.70    3.10
   3   5   0    9.50   11.20
  -4  -5   0  442.16   14.30
  -4  -5   0  475.15   14.10
   4   5   0  460.05   17.40
   4   5   0  402.86   55.99
   4   5   0  426.46   66.19
  -5  -5   0 1667.33   49.40
  -5  -5   0 1703.93   49.10
   5   5   0 1857.01  142.69
   5   5   0 1636.04  177.58
   5   5   0 1670.53   52.49
  -6  -5   0  467.55   14.90
  -6  -5   0  455.15   14.60
   6   5   0  416.46   64.69
   6   5   0  445.86   17.60
   6   5   0  427.86   72.09
  -7  -5   0   11.30    1.60
   7   5   0   13.30    2.60
   7   5   0   13.00    3.40
   7   5   0   10.50   27.30
   7   5   0   23.20   20.40
  -8  -5   0   25.30    2.30
   8   5   0   19.70   25.10
   8   5   0   27.00    4.00
   8   5   0   27.90    3.30
   8   5   0   -3.30   31.30
  -9  -5   0  121.39    6.00
   9   5   0  134.49    8.20
   9   5   0  130.29   54.29
   9   5   0  131.39    6.90
 -10  -5   0   31.90    3.00
  10   5   0   37.20    4.20
 -11  -5   0   72.39    4.80
  10  -6   0   94.49    5.30
  10  -6   0  110.89    5.80
 -10   6   0   91.59    7.00
   9  -6   0   13.90    2.90
   9  -6   0   10.20    2.10
  -9   6   0   11.80    1.60
  -9   6   0   14.40    3.70
   8  -6   0   30.30   41.00
   8  -6   0  105.29    5.50
   8  -6   0  111.29    5.40
  -8   6   0   77.09   40.60
  -8   6   0  113.69    7.00
  -8   6   0  103.59    4.40
   7  -6   0  100.79   38.90
   7  -6   0  104.99    5.10
  -7   6   0   51.69   35.20
  -7   6   0  108.09    6.50
  -7   6   0  104.39    4.20
   6  -6   0  568.54   18.50
   6  -6   0  600.64   18.60
   6  -6   0  508.55   76.59
  -6   6   0  536.15   75.79
  -6   6   0  575.74   19.70
   5  -6   0  390.56   13.00
   5  -6   0  387.96   13.10
   5  -6   0  379.16   60.39
  -5   6   0  395.86   11.80
  -5   6   0  379.66   14.20
  -5   6   0  420.26   62.69
   4  -6   0    0.10   14.90
   4  -6   0    6.00    1.30
   4  -6   0    3.20    1.00
  -4   6   0    4.50   16.00
  -4   6   0    7.20    2.10
   3  -6   0   13.00   15.30
   3  -6   0    8.30    1.20
   3  -6   0   10.40    1.30
  -3   6   0    9.40   10.60
  -3   6   0   14.50    2.70
   2  -6   0  907.41   27.20
   2  -6   0  909.21   76.09
   2  -6   0  915.41   27.30
  -2   6   0  933.51   28.00
  -2   6   0  919.01   76.59
   1  -6   0 1916.41  112.69
   1  -6   0 1844.42   53.79
  -1   6   0 1943.81  113.09
  -1   6   0 1870.41   54.79
  -1   6   0 1831.82   54.29
   0  -6   0  557.14   17.00
   0  -6   0  551.04   16.00
   0  -6   0  596.34   57.49
   0   6   0  574.74   17.40
   0   6   0  561.44   18.30
   0   6   0  611.24   57.19
   0   6   0  512.05   16.20
  -1  -6   0   30.70    1.50
  -1  -6   0   45.70   20.70
  -1  -6   0   31.40    2.00
   1   6   0   26.70   16.20
   1   6   0   34.90    4.10
   1   6   0   39.70    2.50
  -2  -6   0  458.05   56.39
  -2  -6   0  573.14   17.10
   2   6   0  542.75   58.79
   2   6   0  569.04   19.60
   2   6   0  546.85   16.70
  -3  -6   0  320.37   10.70
  -3  -6   0  331.77   10.30
  -3  -6   0  317.77   50.49
   3   6   0  325.87   51.19
   3   6   0  315.17   13.60
   4   6   0   -9.60   10.10
   4   6   0   -1.80    3.50
  -5  -6   0   54.19    3.10
  -5  -6   0   50.19    2.80
   5   6   0   11.20   19.40
   5   6   0   51.79    6.20
   5   6   0   35.30   28.80
  -6  -6   0  576.94   18.60
  -6  -6   0  583.24   18.20
   6   6   0  620.34   87.19
   6   6   0  528.85   77.49
   6   6   0  575.34   21.80
  -7  -6   0   83.99    4.60
  -7  -6   0   85.99    4.30
   7   6   0   81.99    6.70
   7   6   0   27.90   30.60
   7   6   0   87.59   39.90
  -8  -6   0  311.07   11.10
   8   6   0  309.97   12.00
   8   6   0  213.48   59.79
   8   6   0  292.27   13.90
   9   6   0  146.99    7.60
   9   6   0  157.88    9.30
 -10  -6   0   55.49    4.00
  10   6   0   57.29    5.70
 -11  -6   0    2.40    1.30
  11   6   0    2.30    1.60
  10  -7   0    5.50    1.60
 -10   7   0    7.20    3.10
   9  -7   0    2.50    1.20
  -9   7   0    4.00    2.80
   8  -7   0  189.28    8.20
   8  -7   0  190.48    8.10
  -8   7   0  206.28    7.10
   7  -7   0  577.34   18.90
   7  -7   0  575.34   18.90
   7  -7   0  541.55  132.69
  -7   7   0  602.64   20.70
  -7   7   0  573.14   17.40
  -7   7   0  376.66  106.89
   6  -7   0  181.18   44.10
   6  -7   0  205.18    8.00
   6  -7   0  191.88    7.80
  -6   7   0  171.38   50.39
  -6   7   0  203.38    9.40
   5  -7   0   12.00    1.60
   5  -7   0   10.50    1.50
   5  -7   0    4.00   21.00
  -5   7   0    2.80   14.50
  -5   7   0   12.50    2.80
   4  -7   0  264.77   57.19
   4  -7   0  241.18    8.90
   4  -7   0  241.18    8.80
  -4   7   0  249.48   11.10
  -4   7   0  250.97   47.00
   3  -7   0   25.60    2.00
   3  -7   0   29.80    2.20
   3  -7   0   17.60   16.00
  -3   7   0   43.60   23.20
  -3   7   0   25.40    3.30
   2  -7   0  207.08   40.50
   2  -7   0  189.28    7.00
   2  -7   0  186.38    7.00
  -2   7   0  193.48    7.90
  -2   7   0  157.38   38.00
   1  -7   0  173.98    6.60
   1  -7   0  214.58   46.20
  -1   7   0  136.09   32.80
  -1   7   0  173.28    7.20
  -1   7   0  181.38    8.00
   0  -7   0  868.01   77.59
   0  -7   0  889.91   24.60
   0  -7   0  850.51   25.80
   0   7   0  915.91   77.09
   0   7   0  899.21   26.30
   0   7   0  918.31   27.70
   0   7   0  731.23   24.70
  -1  -7   0    2.90    0.70
  -1  -7   0    1.80    9.90
  -1  -7   0    7.10    1.30
   1   7   0    1.50    1.40
   1   7   0    0.00    3.00
   1   7   0   13.60   14.00
  -2  -7   0 1679.63  118.79
  -2  -7   0 1526.25   47.20
   2   7   0 1667.63   47.10
   2   7   0 1575.24  111.69
   2   7   0 1685.93   50.39
  -3  -7   0  163.08   42.90
  -3  -7   0  206.68    7.50
  -3  -7   0  206.68    6.90
   3   7   0  196.18   10.70
   3   7   0  178.18   42.90
  -4  -7   0    1.70    0.80
  -4  -7   0  -12.20   12.70
   4   7   0   -1.90    3.60
   4   7   0   -3.10   13.00
  -5  -7   0   90.59    4.40
  -5  -7   0   87.89    4.10
   5   7   0   84.09   37.70
   5   7   0   49.90   36.00
   5   7   0   88.59    7.70
  -6  -7   0   82.79    4.30
  -6  -7   0   77.99    3.90
   6   7   0   51.49   30.70
   6   7   0   77.49   43.40
   6   7   0   73.89    6.80
  -7  -7   0   70.59    3.90
  -7  -7   0   73.19    4.20
   7   7   0   47.50   33.80
   7   7   0   65.39    6.60
   7   7   0   45.10   30.80
  -8  -7   0   53.89    3.60
   8   7   0   50.79    5.80
   8   7   0   52.09    4.60
   8   7   0   19.00   39.10
  -9  -7   0  750.52   24.20
   9   7   0  756.62   25.00
   9   7   0  734.83   27.60
 -10  -7   0  194.08    8.70
  10   7   0  200.28   11.10
 -11  -7   0  116.39    7.60
   9  -8   0  114.69    5.50
   9  -8   0   93.89    5.40
  -9   8   0   91.79    7.30
   8  -8   0  275.77   11.10
   8  -8   0  285.27   10.90
  -8   8   0  282.77   12.90
   7  -8   0  -21.60   37.90
  -7   8   0   35.70    4.80
   6  -8   0  207.48    8.50
   6  -8   0  210.98    8.40
   6  -8   0  315.07   60.19
  -6   8   0  218.68   10.20
  -6   8   0  202.38   54.39
   5  -8   0  164.78    7.00
   5  -8   0  150.58   40.90
   5  -8   0  160.68    6.80
  -5   8   0  187.38   50.69
  -5   8   0  176.78    8.50
   4  -8   0  805.52   24.40
   4  -8   0  785.82   24.20
   4  -8   0  670.43   81.59
  -4   8   0  806.52   25.70
  -4   8   0  729.43   84.89
   3  -8   0    4.50    1.20
   3  -8   0   14.60   19.20
  -3   8   0    2.60   15.40
  -3   8   0    2.30    2.10
   2  -8   0    5.20   15.90
   2  -8   0   19.60    1.80
  -2   8   0   24.90    3.70
  -2   8   0   18.50    2.90
   1  -8   0  682.83   21.20
   1  -8   0  673.43   72.69
  -1   8   0  688.13   22.80
  -1   8   0  743.43   75.19
  -1   8   0  670.83   21.90
   0  -8   0   96.09    4.30
   0  -8   0   83.69   31.60
   0  -8   0   90.49    3.20
   0   8   0   89.69    6.50
   0   8   0   95.59    5.00
   0   8   0  106.89   34.70
  -1  -8   0  186.68   44.20
  -1  -8   0  202.68    6.50
  -1  -8   0  215.38    7.70
   1   8   0  180.28   41.00
   1   8   0  196.88   10.10
   1   8   0  199.78    7.80
  -2  -8   0  157.58   44.10
  -2  -8   0  134.29    4.80
  -2  -8   0  137.49    5.60
   2   8   0  132.59    8.80
   2   8   0  129.19    5.50
   2   8   0  103.89   33.30
  -3  -8   0 1229.88  109.79
  -3  -8   0 1285.77   38.00
   3   8   0 1267.47  107.89
   3   8   0 1270.57   37.10
   3   8   0 1294.97   41.90
  -4  -8   0  106.69   36.90
  -4  -8   0  113.49    5.10
  -4  -8   0  110.89    4.60
   4   8   0  110.49    8.80
   4   8   0   82.69   31.70
  -5  -8   0  152.88    6.60
  -5  -8   0  145.09    6.40
   5   8   0  208.08   76.39
   5   8   0  146.49   50.69
   5   8   0  140.19    9.80
  -6  -8   0    2.10    1.00
  -6  -8   0    1.60    0.90
   6   8   0   10.60   18.00
   6   8   0    0.10    3.60
   6   8   0   -6.30   21.40
  -7  -8   0   42.10    3.20
  -7  -8   0   44.70    3.10
   7   8   0   -0.70   23.40
   7   8   0   40.00    6.00
  -8  -8   0   30.20    2.70
  -8  -8   0   26.00    2.70
   8   8   0   36.50    9.40
  -9  -8   0    0.60    1.00
   9   8   0    2.50    2.70
   9   8   0    4.50    2.60
 -10  -8   0  100.29    5.80
  10   8   0  101.09    6.70
  10   8   0  118.59    8.00
   8  -9   0  136.69    6.80
   8  -9   0  159.98    6.90
  -8   9   0  139.29    9.00
   7  -9   0  284.67   11.50
   7  -9   0  299.97   11.20
  -7   9   0  300.27   13.30
   6  -9   0    6.60    1.60
   6  -9   0    3.40    1.40
   6  -9   0   36.50   40.80
  -6   9   0    5.60    2.90
   5  -9   0   93.99    5.00
   5  -9   0   95.39    4.80
   5  -9   0   59.69   30.90
  -5   9   0   92.39    6.40
  -5   9   0  129.69   40.30
   4  -9   0   77.59   38.60
   4  -9   0  125.09    5.80
   4  -9   0  119.19    5.60
  -4   9   0  106.59   39.80
  -4   9   0  125.29    7.10
   3  -9   0  896.41   93.49
   3  -9   0  830.02   25.80
  -3   9   0  817.02   27.00
  -3   9   0  829.72   90.89
  -3   9   0  825.92   27.00
   2  -9   0    2.20    0.90
   2  -9   0    1.30   20.10
  -2   9   0    1.40    1.90
  -2   9   0   -3.00   13.20
  -2   9   0    0.70    2.60
   1  -9   0  182.88    7.30
   1  -9   0  202.68   50.29
  -1   9   0  184.78    9.20
  -1   9   0  191.48   47.30
  -1   9   0  180.08    8.10
   0  -9   0    3.10    1.00
   0  -9   0   10.10   13.80
   0   9   0   11.80   13.10
   0   9   0    2.20    1.90
   0   9   0    2.20    3.10
  -1  -9   0   77.59    3.60
  -1  -9   0   84.09    4.20
  -1  -9   0   62.49   34.30
   1   9   0   74.89    6.80
   1   9   0   86.59   33.30
   1   9   0   78.69    4.40
  -2  -9   0  335.07   11.60
  -2  -9   0  330.77   60.19
  -2  -9   0  321.57   10.40
   2   9   0  337.07   11.40
   2   9   0  296.97   53.19
   2   9   0  335.07   15.00
  -3  -9   0    8.30   16.80
   3   9   0    6.20   16.40
   3   9   0   14.60    4.80
  -4  -9   0  322.17   53.39
  -4  -9   0  269.77   10.00
  -4  -9   0  268.47    9.20
   4   9   0  191.28   51.79
   4   9   0  265.07   14.00
  -5  -9   0    2.00    1.00
  -5  -9   0    5.40    1.30
   5   9   0   -0.40    3.70
  -6  -9   0  730.73   22.40
  -6  -9   0  727.93   23.20
   6   9   0  692.63   27.30
   6   9   0  684.03   89.29
  -7  -9   0  198.58    8.50
  -7  -9   0  198.68    8.00
   7   9   0  194.08   12.00
  -8  -9   0   17.10    2.80
  -8  -9   0   15.60    2.10
   8   9   0   15.80    4.40
   9   9   0    5.50    2.70
 -10  -9   0    2.40    1.20
  10   9   0   -0.20    2.40
   7 -10   0   47.00    3.20
   7 -10   0   37.50    3.30
  -7  10   0   41.80    5.40
   6 -10   0    2.50    1.20
   6 -10   0    1.10    1.20
  -6  10   0    5.60    2.90
   5 -10   0   85.49    4.80
   5 -10   0   85.29    4.60
  -5  10   0   81.79    6.40
   4 -10   0  279.87   10.70
   4 -10   0  265.37   64.19
  -4  10   0  290.17   12.20
  -4  10   0  283.07   12.20
  -4  10   0  184.28   56.09
   3 -10   0    1.00    1.10
   3 -10   0  -21.70   28.60
  -3  10   0    5.60   19.50
  -3  10   0    0.60    2.70
  -3  10   0    5.00    2.40
   2 -10   0  172.18    7.20
   2 -10   0  120.09   43.00
  -2  10   0  128.59   45.70
  -2  10   0  170.78    8.20
  -2  10   0  163.78    9.10
   1 -10   0   95.29    4.80
   1 -10   0   97.59   55.19
  -1  10   0   87.19    7.10
  -1  10   0   94.29    5.80
   0 -10   0  686.93   78.29
   0 -10   0  692.43   21.80
   0  10   0  685.03   24.60
   0  10   0  682.23   22.30
   0  10   0  611.24   78.39
  -1 -10   0   80.59   26.70
  -1 -10   0   54.99    3.40
  -1 -10   0   52.29    2.30
   1  10   0   52.09   21.30
   1  10   0   54.29    3.90
   1  10   0   52.19    6.60
  -2 -10   0    1.60   16.20
  -2 -10   0    7.50    0.90
  -2 -10   0    6.80    1.60
   2  10   0    1.70   18.10
   2  10   0    6.50    1.80
   2  10   0    6.10    4.50
  -3 -10   0   44.00   34.30
  -3 -10   0   79.29    4.40
  -3 -10   0   78.69    3.50
   3  10   0   72.69    8.10
   3  10   0   44.80   31.30
  -4 -10   0    9.50   25.00
   4  10   0   10.90    5.10
   4  10   0  -38.00   21.40
  -5 -10   0   64.69    4.00
  -5 -10   0   64.29    3.50
   5  10   0   52.69    7.70
   5  10   0    5.80   33.50
  -6 -10   0    5.00    1.40
  -6 -10   0    3.20    1.40
   6  10   0    1.50    4.00
  -7 -10   0  275.87   10.00
  -7 -10   0  257.97   10.50
   7  10   0  242.48   14.10
  -8 -10   0   46.50    5.00
  -8 -10   0   46.20    3.50
   8  10   0   49.30    6.60
  -9 -10   0   81.79    5.40
  -9 -10   0   92.29    5.30
   9  10   0  104.49    7.90
   9  10   0   90.89    6.80
   7 -11   0   37.30    3.40
   7 -11   0   50.99    3.40
  -7  11   0   34.60    5.20
   6 -11   0  178.28    8.20
  -6  11   0  186.18   12.40
  -6  11   0  170.68    9.90
   5 -11   0   30.60    2.80
  -5  11   0   31.80    5.30
  -5  11   0   33.70    4.80
  -4  11   0   21.90    4.80
  -4  11   0   17.10    3.90
   3 -11   0   -1.30   44.50
   3 -11   0   25.80    2.50
  -3  11   0   27.00    4.30
  -3  11   0   24.70    4.80
   2 -11   0   52.89    3.60
   2 -11   0   17.80   39.00
  -2  11   0   19.40   23.00
  -2  11   0   54.29    4.90
  -2  11   0   50.69    6.30
   1 -11   0  196.18   57.99
   1 -11   0  246.98    9.30
  -1  11   0  157.38   46.50
  -1  11   0  226.98   11.90
  -1  11   0  225.48   10.10
   0 -11   0   27.80    2.50
   0 -11   0   24.20   30.90
   0  11   0   29.60    6.10
   0  11   0   26.70    3.40
   0  11   0  -18.40   20.10
  -1 -11   0  250.27    7.90
  -1 -11   0  195.98   56.19
  -1 -11   0  265.27    9.90
   1  11   0  160.78   47.00
   1  11   0  248.08   13.40
   1  11   0  248.78   10.00
  -2 -11   0   25.50    2.50
  -2 -11   0   27.00    1.80
  -2 -11   0   36.00   33.00
   2  11   0   26.90    2.70
   2  11   0   35.10    7.10
  -3 -11   0   57.89    3.80
  -3 -11   0   65.19    3.10
  -3 -11   0   26.90   43.10
   3  11   0   66.29    3.50
   3  11   0   56.89    7.90
   3  11   0   26.50   30.40
  -4 -11   0   92.49    5.10
  -4 -11   0   48.10   39.90
   4  11   0   96.09    9.80
  -5 -11   0   17.90    2.00
  -5 -11   0   15.70    2.10
   5  11   0   15.90   10.10
  -6 -11   0   17.60    2.80
  -6 -11   0   11.00    2.00
   6  11   0    3.40    4.30
  -7 -11   0   16.40    2.10
  -7 -11   0   16.20    2.70
   7  11   0   11.80    4.50
  -8 -11   0   87.99    5.60
  -8 -11   0   87.79    5.00
   8  11   0   93.19    8.50
   6 -12   0    1.40    1.40
  -6  12   0    8.30    3.00
   5 -12   0   69.59    4.70
  -5  12   0   71.49    6.50
  -5  12   0   69.09    7.90
   4 -12   0    1.80    1.20
  -4  12   0    1.10    2.40
  -4  12   0   -1.20    4.10
   3 -12   0   70.69    4.60
  -3  12   0   83.59    7.80
  -3  12   0   83.89    9.30
   2 -12   0   42.50    3.40
  -2  12   0   44.90    7.00
  -2  12   0   41.70    4.90
   1 -12   0   20.90    2.50
  -1  12   0   25.90    3.90
  -1  12   0   24.20    5.90
   0 -12   0   56.59    4.00
   0  12   0   72.99    5.00
   0  12   0   49.30    7.40
  -1 -12   0    4.50    1.40
  -1 -12   0    8.30    0.90
   1  12   0    8.30    2.00
   1  12   0    6.50    5.30
  -2 -12   0   49.20    3.70
  -2 -12   0   51.79    2.60
   2  12   0   49.80    8.30
   2  12   0   66.79    3.90
  -3 -12   0   51.19    3.80
  -3 -12   0   52.39    2.70
   3  12   0   48.70    8.80
  -4 -12   0  100.49    4.60
   4  12   0   95.09   10.30
  -5 -12   0  111.19    6.00
   5  12   0  110.99   10.70
  -6 -12   0    3.50    1.60
  -6 -12   0    5.40    1.40
   6  12   0    6.50    4.60
  -7 -12   0   62.09    4.60
  -7 -12   0   60.09    4.00
   7  12   0   74.99    8.30
   5 -13   0    0.40    1.30
  -5  13   0    0.20    4.10
  -5  13   0    6.90    3.00
   4 -13   0  108.19    6.10
  -4  13   0  105.19    9.00
  -4  13   0  115.69    7.80
   3 -13   0   29.70    3.10
  -3  13   0   32.90    6.70
  -3  13   0   35.30    4.80
   2 -13   0  108.09    6.00
  -2  13   0  116.69    7.40
   1 -13   0   72.69    4.80
  -1  13   0   85.79    6.10
   0  13   0    5.00    2.00
  -1 -13   0   19.40    2.40
   1  13   0   24.00    7.20
  -2 -13   0   37.80    3.30
   2  13   0   35.50    7.70
  -3 -13   0    1.50    1.10
  -3 -13   0    3.40    1.20
   3  13   0    5.90    5.70
  -4 -13   0   15.30    2.60
  -4 -13   0   19.50    1.90
   4  13   0   14.10    6.50
  -5 -13   0   90.09    4.50
  -5 -13   0   83.09    5.30
   5  13   0   90.99   10.40
  -6 -13   0  125.89    6.80
   6  13   0  118.89   10.80
   3 -14   0   24.50    3.00
  -3  14   0   20.10    6.40
   2 -14   0   23.90    2.80
  -2  14   0   23.30    7.00
   1 -14   0   71.09    5.00
  -1  14   0   77.69   10.00
  -1  14   0   91.19    6.20
   0 -14   0  145.79    7.60
   0  14   0  144.49   12.70
   0  14   0  187.28   11.20
  -1 -14   0    3.60    1.40
   1  14   0   -2.40    6.00
  -2 -14   0  121.99    6.70
   2  14   0  118.49   12.20
   3  14   0    4.20    5.70
  -4 -14   0   41.60    3.90
   4  14   0   61.39    9.60
   4  14  -1   28.10    7.40
  -4 -14   1   22.10    3.00
   3  14  -1   38.70    8.60
  -3 -14   1   51.79    4.20
   1  14  -1  158.98   13.50
  -1 -14   1  170.18    8.20
   0  14  -1  211.88   12.70
   0  14  -1  178.98   13.80
   0 -14   1  173.88    8.60
  -1  14  -1   26.70    7.50
   1 -14   1   19.90    2.70
  -2  14  -1  102.59   10.70
  -2  14  -1  112.79    7.00
   2 -14   1   82.99    5.60
  -3  14  -1    5.70    5.30
   3 -14   1    2.10    1.30
   6  13  -1   47.90    7.20
  -6 -13   1   41.80    3.10
  -6 -13   1   33.50    3.50
   5  13  -1   74.49    9.50
  -5 -13   1   73.29    4.90
   4  13  -1  128.39   11.90
  -4 -13   1  111.09    6.30
  -4 -13   1  125.79    5.40
   3  13  -1   21.10    7.50
  -3 -13   1   24.50    2.00
  -3 -13   1   19.70    2.50
   2  13  -1  116.79   11.50
   2  13  -1  152.68    6.20
  -2 -13   1  125.09    5.00
  -2 -13   1  115.89    6.50
   1  13  -1  122.69    6.20
   1  13  -1  113.39   11.40
  -1 -13   1  109.39    6.00
   0  13  -1    8.00    2.10
   0  13  -1    4.40    7.20
   0 -13   1    1.80    1.30
  -1  13  -1    1.40    5.10
  -1  13  -1    5.50    2.20
   1 -13   1   -0.20    1.00
  -2  13  -1  245.78   14.40
  -2  13  -1  256.27   11.70
   2 -13   1  246.98   10.40
  -3  13  -1  412.06   16.40
  -3  13  -1  375.96   21.30
   3 -13   1  400.86   15.00
  -4  13  -1   10.90    5.00
  -4  13  -1   17.00    3.60
   4 -13   1   11.20    2.30
  -5  13  -1   16.30    4.00
   5 -13   1   12.80    2.70
   7  12  -1   89.29    8.90
  -7 -12   1   87.39    4.90
  -7 -12   1   72.79    5.00
   6  12  -1   31.20    7.00
  -6 -12   1   34.00    3.30
  -6 -12   1   28.40    2.70
   5  12  -1    2.90    4.80
  -5 -12   1    4.10    1.30
  -5 -12   1    4.50    1.70
   4  12  -1  160.68   12.50
  -4 -12   1  190.08    9.80
  -4 -12   1  182.88    7.00
   3  12  -1  387.56   19.90
   3  12  -1  410.46   13.60
  -3 -12   1  407.06   14.70
  -3 -12   1  403.96   13.10
   2  12  -1   22.90    6.50
  -2 -12   1   20.00    2.40
  -2 -12   1   22.10    1.60
   1  12  -1    7.30    5.20
   1  12  -1   11.50    2.40
  -1 -12   1    7.40    1.90
  -1 -12   1   11.40    1.10
   0  12  -1    6.30    2.10
   0  12  -1   -2.20    4.30
   0 -12   1    3.00    1.30
  -1  12  -1   34.00    6.50
  -1  12  -1   37.90    4.20
   1 -12   1   33.10    3.00
  -2  12  -1   61.09    7.80
  -2  12  -1   72.89    5.80
   2 -12   1   69.29    4.50
  -3  12  -1   14.10    5.20
   3 -12   1    8.00    2.00
  -4  12  -1   38.10    6.40
  -4  12  -1   38.40    5.10
   4 -12   1   36.50    3.20
  -5  12  -1   37.40    5.20
   5 -12   1   28.20    3.10
  -6  12  -1  297.27   14.00
   6 -12   1  307.67   12.30
   8  11  -1    4.50    3.10
  -8 -11   1    3.10    1.40
  -8 -11   1    2.40    1.70
   7  11  -1    4.10    3.50
  -7 -11   1    1.20    1.30
  -7 -11   1    2.50    1.10
   6  11  -1   37.20    7.30
  -6 -11   1   26.40    2.50
  -6 -11   1   23.10    2.70
   5  11  -1  202.28   14.20
  -5 -11   1  208.88    8.80
  -5 -11   1  200.58    7.90
   4  11  -1   92.19    9.40
  -4 -11   1   93.79    5.10
   3  11  -1   21.10    1.80
   3  11  -1   14.90    5.90
   3  11  -1    9.20   26.10
  -3 -11   1   11.10    2.30
  -3 -11   1   16.90    1.60
   2  11  -1    1.70    1.20
   2  11  -1   10.60    4.70
   2  11  -1   -3.50   16.90
  -2 -11   1    2.10   32.30
  -2 -11   1    1.20    0.70
  -2 -11   1    0.70    0.70
   1  11  -1  273.37   14.40
   1  11  -1  262.97   11.30
   1  11  -1  280.27   54.59
  -1 -11   1  267.67    8.70
  -1 -11   1  284.27   63.29
  -1 -11   1  275.67   10.40
   0  11  -1  381.86   64.79
   0  11  -1  529.55   18.20
   0  11  -1  522.55   21.10
   0 -11   1  537.65   17.70
   0 -11   1  563.44   88.79
  -1  11  -1  306.77   12.10
  -1  11  -1  301.57   14.20
  -1  11  -1  203.98   51.59
   1 -11   1  299.77   11.20
   1 -11   1  272.37   62.89
  -2  11  -1    4.00    2.30
  -2  11  -1  -21.10   20.50
  -2  11  -1    3.80    3.90
   2 -11   1    4.50    1.50
   2 -11   1  -23.00   31.30
  -3  11  -1  -42.60   39.70
   3 -11   1   20.60   31.70
  -4  11  -1   35.50    4.60
  -4  11  -1   39.10    6.00
  -5  11  -1   20.80    4.30
   5 -11   1   19.70    2.50
  -6  11  -1   87.29    7.00
   6 -11   1   82.09    5.10
  -7  11  -1  190.98   10.70
  -7  11  -1  202.98   10.30
   7 -11   1  197.18    8.90
   9  10  -1   13.10    3.40
   9  10  -1   10.40    3.10
  -9 -10   1    6.60    1.90
   8  10  -1    7.20    3.30
  -8 -10   1    4.10    1.50
   7  10  -1   91.39    8.30
  -7 -10   1   81.99    5.50
  -7 -10   1   81.79    4.90
   6  10  -1  371.56   25.20
  -6 -10   1  383.06   14.00
  -6 -10   1  399.96   13.50
   5  10  -1  268.17   73.89
   5  10  -1  341.27   17.00
  -5 -10   1  342.67   11.80
  -5 -10   1  342.17   12.50
   4  10  -1   92.69   42.60
   4  10  -1  104.29    9.30
  -4 -10   1   97.19    5.10
  -4 -10   1  101.79    4.60
  -4 -10   1  143.59   54.89
   3  10  -1   48.50   30.60
   3  10  -1   72.39    8.20
   3  10  -1   80.69    3.90
  -3 -10   1   82.69    4.50
   2  10  -1    7.70    1.80
   2  10  -1    4.60    4.30
   2  10  -1    0.40   17.50
  -2 -10   1    7.50    1.60
  -2 -10   1    3.30    1.00
  -2 -10   1    5.20   26.40
   1  10  -1   18.70    5.20
   1  10  -1   15.40   24.80
   1  10  -1   19.20    2.50
  -1 -10   1  -27.60   20.20
  -1 -10   1   16.30    2.00
  -1 -10   1   16.70    1.30
   0  10  -1   10.50    2.70
   0  10  -1   11.10    4.40
   0  10  -1  -12.20   18.50
   0 -10   1   12.80    2.00
  -1  10  -1  192.28    8.80
  -1  10  -1  199.88   10.50
  -1  10  -1  148.79   41.90
   1 -10   1  207.08    8.10
   1 -10   1  208.58   53.49
  -2  10  -1   15.80   25.10
  -2  10  -1   59.39    4.80
  -2  10  -1   66.59    6.20
   2 -10   1   62.69    3.80
   2 -10   1    8.60   29.00
  -3  10  -1  230.68   10.90
  -3  10  -1  226.88   59.99
  -3  10  -1  220.28   10.20
   3 -10   1  226.48    9.00
   3 -10   1  204.58   53.89
  -4  10  -1  312.17   12.90
  -4  10  -1  314.57   13.00
  -4  10  -1  232.08   61.29
   4 -10   1  314.47   11.60
   4 -10   1  245.88   67.69
  -5  10  -1  187.78    9.70
   5 -10   1  187.78    8.10
   5 -10   1  217.18   59.59
  -6  10  -1   36.80    4.90
   6 -10   1   35.00    2.80
   6 -10   1   33.80    3.10
  -7  10  -1  102.49    7.60
   7 -10   1  104.79    5.90
   7 -10   1  114.09    5.40
  -8  10  -1   46.70    5.60
   8 -10   1   35.90    3.50
   9   9  -1    8.10    3.10
  -9  -9   1    5.10    1.60
   8   9  -1   16.50    4.50
  -8  -9   1   17.20    2.20
  -8  -9   1   18.10    2.80
   7   9  -1  151.58   14.70
  -7  -9   1  164.98    7.00
  -7  -9   1  154.78    7.20
   6   9  -1  -52.49   28.90
   6   9  -1    3.90    3.70
  -6  -9   1    4.30    1.40
   5   9  -1  133.99   10.00
   5   9  -1  109.99   47.90
  -5  -9   1  136.09    5.70
  -5  -9   1  133.79    6.10
   4   9  -1   31.40   30.60
   4   9  -1   45.00    6.80
  -4  -9   1   40.70   30.90
  -4  -9   1   50.79    3.20
  -4  -9   1   56.59    3.40
   3   9  -1  536.45   77.29
   3   9  -1  696.03   21.20
   3   9  -1  707.03   26.30
  -3  -9   1  726.23   86.19
  -3  -9   1  722.43   22.10
   2   9  -1  542.25   74.09
   2   9  -1  592.14   22.50
   2   9  -1  568.24   18.50
  -2  -9   1  582.64   17.60
  -2  -9   1  610.24   18.90
  -2  -9   1  522.35   78.59
   1   9  -1  155.58   43.90
   1   9  -1  206.88    8.20
   1   9  -1  208.28   11.00
  -1  -9   1  167.88   44.20
  -1  -9   1  202.48    7.90
  -1  -9   1  203.18    6.70
   0   9  -1   64.19    4.30
   0   9  -1   66.99    6.40
   0   9  -1   37.30   24.00
   0  -9   1   65.49    2.60
   0  -9   1   64.99   30.80
   0  -9   1   66.39    3.70
  -1   9  -1  603.54   19.90
  -1   9  -1  515.25   69.49
  -1   9  -1  598.14   21.10
   1  -9   1  593.54   19.10
   1  -9   1  649.34   78.99
  -2   9  -1   21.50    4.00
  -2   9  -1   20.50    3.50
  -2   9  -1   13.30   20.10
   2  -9   1   -3.20   16.60
   2  -9   1   21.30    2.00
  -3   9  -1   40.70    4.60
  -3   9  -1   31.30    3.90
  -3   9  -1    8.30   15.20
   3  -9   1   39.00    2.80
   3  -9   1   51.89   25.40
  -4   9  -1 1259.67   40.20
  -4   9  -1 1291.97   42.20
  -4   9  -1 1254.27  116.99
   4  -9   1 1424.36  117.59
   4  -9   1 1285.47   39.00
  -5   9  -1  793.22   97.39
  -5   9  -1  870.21   28.40
   5  -9   1  731.03   93.49
   5  -9   1  870.31   27.00
   5  -9   1  849.41   26.80
  -6   9  -1  128.19   64.19
  -6   9  -1    6.20    2.90
   6  -9   1    4.90    1.50
   6  -9   1    8.40   53.89
   6  -9   1    5.80    1.70
  -7   9  -1   31.90    5.00
   7  -9   1   27.30    2.80
   7  -9   1   26.70    2.40
  -8   9  -1   21.20    4.30
   8  -9   1   21.80    2.60
  -9   9  -1   24.70    4.80
   9  -9   1   21.40    2.80
  10   8  -1   40.80    7.00
 -10  -8   1   36.50    3.50
   9   8  -1  314.77   15.00
  -9  -8   1  303.07   11.80
   8   8  -1  286.47   14.20
  -8  -8   1  281.47   10.90
  -8  -8   1  276.67   11.50
   7   8  -1  169.28   56.09
   7   8  -1  173.48   10.50
  -7  -8   1  168.68    7.20
  -7  -8   1  172.88    7.40
   6   8  -1  536.85   94.09
   6   8  -1  381.36   74.99
   6   8  -1  458.85   19.60
  -6  -8   1  490.55   16.00
  -6  -8   1  473.25   15.60
   5   8  -1  259.67   99.49
   5   8  -1  378.26   16.90
   5   8  -1  358.26   66.29
  -5  -8   1  393.76   12.80
   4   8  -1   19.10   21.40
   4   8  -1    9.10    4.30
  -4  -8   1   -1.10   21.20
  -4  -8   1   12.70    1.80
  -4  -8   1   11.70    1.90
   3   8  -1    9.50   19.30
   3   8  -1   24.70    1.80
   3   8  -1   19.80    5.20
  -3  -8   1   44.00   24.80
  -3  -8   1   24.30    2.10
  -3  -8   1   24.00    1.80
   2   8  -1  842.92   28.90
   2   8  -1  814.62   86.39
   2   8  -1  801.82   25.00
  -2  -8   1  809.02   88.59
  -2  -8   1  840.02   25.30
   1   8  -1 1079.89   95.59
   1   8  -1 1090.29   32.20
   1   8  -1 1038.10   34.70
  -1  -8   1 1071.59   31.90
  -1  -8   1 1084.69   98.59
  -1  -8   1 1051.69   30.80
   0   8  -1   69.89    6.10
   0   8  -1   72.09   29.10
   0   8  -1   70.09    4.30
   0  -8   1   65.79    2.70
   0  -8   1   69.19    3.50
   0  -8   1  119.19   37.70
  -1   8  -1  131.99    6.40
  -1   8  -1  147.89    7.70
  -1   8  -1  181.78   45.00
   1  -8   1  125.99    4.50
   1  -8   1  134.99    4.40
   1  -8   1  140.49    5.70
   1  -8   1  163.98   44.90
  -2   8  -1    2.00    2.00
  -2   8  -1    1.80    2.60
  -2   8  -1   10.50   14.90
   2  -8   1    2.80    1.00
   2  -8   1   -8.40   14.90
  -3   8  -1  399.56   15.90
  -3   8  -1  387.56   14.30
  -3   8  -1  359.66   58.29
   3  -8   1  405.26   13.50
   3  -8   1  458.15   59.99
  -4   8  -1  185.28    8.50
  -4   8  -1  135.89   40.70
   4  -8   1  130.49   43.50
   4  -8   1  181.38    7.30
   4  -8   1  178.78    6.90
  -5   8  -1   -7.70   19.90
  -5   8  -1    0.10    2.00
   5  -8   1    1.50    1.00
   5  -8   1   20.00   20.60
   5  -8   1    3.20    1.20
  -6   8  -1   11.20   26.30
   6  -8   1  -20.70   25.80
  -7   8  -1  449.06   80.39
  -7   8  -1  449.36   17.20
   7  -8   1  426.56   14.80
   7  -8   1  524.95   88.39
   7  -8   1  432.76   15.30
  -8   8  -1  775.22   27.30
   8  -8   1  782.82   24.70
   8  -8   1  785.12   25.30
  -9   8  -1   70.49    6.40
   9  -8   1   70.99    4.70
   9  -8   1   94.59    4.30
  10   7  -1  126.09    6.70
  10   7  -1  130.89    8.60
 -10  -7   1  119.79    6.40
   9   7  -1   15.50    4.20
  -9  -7   1   12.50    2.40
   8   7  -1  330.87   15.20
  -8  -7   1  327.67   12.00
   7   7  -1   43.00    5.30
   7   7  -1  -17.50   42.70
   7   7  -1   31.00   23.60
  -7  -7   1   42.40    3.00
  -7  -7   1   40.70    2.90
   6   7  -1  543.05   98.99
   6   7  -1  438.86   18.60
   6   7  -1  418.86   74.49
  -6  -7   1  454.55   15.10
  -6  -7   1  457.55   14.90
   5   7  -1   83.99   35.90
   5   7  -1  170.08   58.49
   5   7  -1  137.59    9.10
  -5  -7   1  150.28    6.10
   4   7  -1   89.49   34.40
   4   7  -1  112.29    8.50
  -4  -7   1  124.79    4.90
  -4  -7   1  116.09    5.10
  -4  -7   1   85.99   35.20
   3   7  -1  862.11   88.19
   3   7  -1  917.91   27.30
   3   7  -1  932.71   31.70
  -3  -7   1  963.40   27.50
  -3  -7   1  934.81   28.00
  -3  -7   1  921.31   91.39
   2   7  -1  740.93  110.79
   2   7  -1  733.93   25.70
   2   7  -1  727.13   22.20
  -2  -7   1  732.13   22.40
  -2  -7   1  814.22   96.99
   1   7  -1   16.20    3.90
   1   7  -1   15.80   16.90
   1   7  -1   17.80    2.20
  -1  -7   1   17.80    1.60
  -1  -7   1   -5.30   14.90
  -1  -7   1   17.50    1.30
   0   7  -1   11.80    2.30
   0   7  -1   10.50    3.40
   0  -7   1    9.70    0.90
   0  -7   1   44.00   28.20
   0  -7   1    8.50    1.20
  -1   7  -1 2879.41   81.79
  -1   7  -1 2811.72   81.09
  -1   7  -1 2745.33  154.08
   1  -7   1 2823.32   79.09
   1  -7   1 2604.74   79.29
   1  -7   1 2896.61   80.49
   1  -7   1 2950.60  157.58
  -2   7  -1 2715.43   78.69
  -2   7  -1 2616.74   78.59
  -2   7  -1 2753.12  155.68
   2  -7   1 2674.73   77.89
   2  -7   1 2909.61  158.78
  -3   7  -1  329.47   12.30
  -3   7  -1  278.87   49.80
   3  -7   1  343.57   11.50
   3  -7   1  329.47   49.99
   3  -7   1  341.77   11.10
  -4   7  -1   96.99   34.10
   4  -7   1  119.69    5.00
   4  -7   1   75.29   29.50
   4  -7   1  120.69    5.40
  -5   7  -1  491.35   17.10
  -5   7  -1  473.25   68.69
   5  -7   1  483.45   15.80
   5  -7   1  456.75   63.99
   5  -7   1  461.05   15.30
  -6   7  -1   27.80   22.50
  -6   7  -1   31.50    3.90
  -6   7  -1   27.40    1.70
   6  -7   1    3.60   23.70
   6  -7   1   23.30    2.10
   6  -7   1   27.90    2.50
  -7   7  -1   67.29   30.40
  -7   7  -1   62.59    3.00
  -7   7  -1   73.99    5.60
   7  -7   1   62.49    4.30
   7  -7   1  114.89   43.30
   7  -7   1   64.19    4.00
  -8   7  -1  246.58    8.60
  -8   7  -1  243.58   11.50
  -8   7  -1  216.38   56.59
   8  -7   1  220.98   73.89
   8  -7   1  250.07    9.80
   8  -7   1  249.78    9.50
  -9   7  -1  250.17   12.10
   9  -7   1  258.67    9.90
   9  -7   1  269.07   10.40
 -10   7  -1   31.60    4.80
  10  -7   1   29.60    3.00
  11   6  -1   38.30    4.90
 -11  -6   1   34.80    3.40
  10   6  -1  147.99    9.00
  10   6  -1  151.98    7.30
 -10  -6   1  136.79    6.90
   9   6  -1 1104.29   38.00
  -9  -6   1 1099.69   34.10
   8   6  -1  516.75   90.79
   8   6  -1  553.44   21.60
  -8  -6   1  577.04   18.60
   7   6  -1   43.30   32.20
   7   6  -1   26.60    4.90
   7   6  -1   28.20   21.40
  -7  -6   1   20.70    2.10
  -7  -6   1   22.20    2.20
   6   6  -1   84.39    6.80
   6   6  -1   87.19   39.10
   6   6  -1   53.39   34.30
  -6  -6   1   88.39    4.30
  -6  -6   1   90.89    4.40
   5   6  -1 1295.57  129.89
   5   6  -1 1269.97   41.60
   5   6  -1 1301.47  116.39
  -5  -6   1 1325.87   38.00
  -5  -6   1 1268.77   38.20
   4   6  -1 1057.09   34.80
   4   6  -1 1066.99  100.09
  -4  -6   1 1023.00   31.20
  -4  -6   1 1070.69   31.00
   3   6  -1  327.97   56.29
   3   6  -1  411.76   16.50
  -3  -6   1  384.36   55.19
  -3  -6   1  429.36   13.40
  -3  -6   1  436.76   13.00
   2   6  -1   53.69    2.70
   2   6  -1   60.39   24.40
   2   6  -1   54.69    5.60
  -2  -6   1   58.19    2.80
  -2  -6   1   54.09    2.50
  -2  -6   1   46.40   21.10
   1   6  -1  712.43   21.70
   1   6  -1  710.83   67.49
   1   6  -1  714.93   23.70
  -1  -6   1  801.92   72.39
  -1  -6   1  711.13   21.50
  -1  -6   1  696.63   20.80
   0   6  -1  681.03   21.10
   0   6  -1  688.73   22.20
   0   6  -1  731.53   65.79
   0  -6   1  666.23   19.80
   0  -6   1  693.93   20.70
   0  -6   1  692.93   65.29
  -1   6  -1  965.20   29.40
  -1   6  -1 1014.80   29.90
   1  -6   1 1027.60   86.49
   1  -6   1  915.01   28.00
   1  -6   1 1003.70   28.90
   1  -6   1  970.30   27.80
  -2   6  -1 1064.49   83.59
  -2   6  -1  937.91   29.50
   2  -6   1  955.60   28.70
   2  -6   1 1017.00   80.49
   2  -6   1  964.70   27.70
   2  -6   1  986.40   29.00
  -3   6  -1   68.29   26.50
  -3   6  -1   72.29    4.50
   3  -6   1   71.29    3.30
   3  -6   1   62.39   23.50
   3  -6   1   74.09    3.50
  -4   6  -1  844.12   83.49
  -4   6  -1  795.52   25.50
  -4   6  -1  836.42   23.60
   4  -6   1  810.92   24.30
   4  -6   1  782.62   77.89
   4  -6   1  823.92   24.70
   4  -6   1  777.42   23.20
  -5   6  -1  692.23   20.60
  -5   6  -1  725.23   78.89
   5  -6   1  689.63   21.80
   5  -6   1  773.72   82.69
   5  -6   1  686.03   21.40
  -6   6  -1  219.88    9.60
  -6   6  -1  220.58    7.40
  -6   6  -1  286.57   47.70
   6  -6   1  209.38    8.10
   6  -6   1  252.37   54.19
   6  -6   1  219.68    8.50
  -7   6  -1  221.78   54.39
  -7   6  -1  248.58   10.70
  -7   6  -1  244.38    8.20
   7  -6   1  244.88    9.40
   7  -6   1  204.38   57.29
   7  -6   1  233.48    9.00
  -8   6  -1  484.85   18.00
  -8   6  -1  524.75   86.79
  -8   6  -1  486.95   15.50
   8  -6   1  476.25   16.60
   8  -6   1  473.55   16.40
   8  -6   1  679.33   86.49
   9  -6   1   82.89    4.50
 -10   6  -1    3.70    1.20
 -10   6  -1    6.20    2.80
  10  -6   1    6.20    1.70
  11   5  -1  240.58   11.50
  11   5  -1  188.68    8.50
 -11  -5   1  185.28    8.90
  10   5  -1   69.79    6.10
  10   5  -1   66.49    4.50
 -10  -5   1   63.59    4.30
   9   5  -1   14.20    2.50
   9   5  -1   15.30    3.50
  -9  -5   1   15.60    3.00
   8   5  -1   38.90    4.50
   8   5  -1    6.60   32.30
   8   5  -1   43.80   33.90
  -8  -5   1   45.50    3.20
   7   5  -1    4.80    2.30
   7   5  -1   27.90   28.80
   7   5  -1    5.40   17.40
  -7  -5   1    6.50    1.40
   6   5  -1 1170.28  111.59
   6   5  -1 1009.10  115.69
   6   5  -1 1103.49   36.10
  -6  -5   1 1106.69   32.70
  -6  -5   1 1057.19   32.60
   5   5  -1  474.95   73.19
   5   5  -1  393.46   16.00
   5   5  -1  435.36   64.49
  -5  -5   1  416.96   13.20
  -5  -5   1  400.36   13.20
   4   5  -1  376.36   55.99
   4   5  -1  317.77   91.09
   4   5  -1  362.66   14.70
  -4  -5   1  356.36   11.80
  -4  -5   1  378.36   11.70
   3   5  -1   56.69    5.40
  -3  -5   1   67.59    2.90
  -3  -5   1   68.79   28.40
  -3  -5   1   64.09    3.00
   2   5  -1 2392.36   69.99
   2   5  -1 2321.37  132.69
   2   5  -1 2361.76   67.19
  -2  -5   1 2355.76   67.09
  -2  -5   1 2287.57  132.39
  -2  -5   1 2422.96   67.39
   1   5  -1 1869.11   54.29
   1   5  -1 1934.41   56.29
   1   5  -1 1810.32  107.29
  -1  -5   1 1891.11   54.49
  -1  -5   1 1950.90  112.49
   0   5  -1  751.82   22.50
   0   5  -1  740.83   60.39
   0   5  -1  712.13   21.50
   0   5  -1  664.33   20.60
   0  -5   1  732.73   21.20
   0  -5   1  727.13   60.89
   0  -5   1  696.33   20.50
  -1   5  -1 4943.71  202.78
  -1   5  -1 5012.80  140.09
   1  -5   1 5315.57  206.88
   1  -5   1 4568.54  138.69
  -2   5  -1 2046.50  114.59
  -2   5  -1 1939.71   56.59
   2  -5   1 2078.29  114.09
   2  -5   1 1952.80   55.19
   2  -5   1 1895.21   55.79
   2  -5   1 1899.21   55.99
  -3   5  -1   21.00    2.50
  -3   5  -1   23.50    1.20
  -3   5  -1   24.20   16.30
   3  -5   1   20.70    1.00
   3  -5   1   20.20    1.50
   3  -5   1   23.30   15.10
   3  -5   1   22.10    1.70
  -4   5  -1   -3.40    9.70
  -4   5  -1    1.30    0.50
  -4   5  -1    1.20    1.50
   4  -5   1    2.20    0.60
   4  -5   1    5.00   12.10
   4  -5   1    0.30    0.70
  -5   5  -1  723.53   23.30
  -5   5  -1  693.73   76.59
  -5   5  -1  728.03   21.40
   5  -5   1  712.83   22.10
   5  -5   1  861.61   81.39
   5  -5   1  719.23   22.50
  -6   5  -1 1184.48  109.89
  -6   5  -1 1185.98   37.40
  -6   5  -1 1148.69   33.70
   6  -5   1 1135.59   34.70
   6  -5   1 1199.88  106.39
   6  -5   1 1138.39   34.50
  -7   5  -1   55.29   31.10
  -7   5  -1   68.49    5.00
  -7   5  -1   65.29    3.10
   7  -5   1   70.59   33.00
   7  -5   1   67.59    3.90
   7  -5   1   62.69    3.70
  -8   5  -1   32.50    2.20
  -8   5  -1   32.80    4.10
  -8   5  -1   33.10   26.90
   8  -5   1   33.20    2.80
   8  -5   1   41.70   22.40
   8  -5   1   28.60    2.90
  -9   5  -1    4.70    1.20
  -9   5  -1   32.40   29.80
  -9   5  -1    2.90    2.60
   9  -5   1    2.70    1.20
   9  -5   1    4.70    1.60
 -10   5  -1   45.90    3.20
 -10   5  -1   48.60    5.20
  10  -5   1   51.49    3.80
  10  -5   1   62.29    4.10
 -11   5  -1   84.49    4.50
 -11   5  -1   83.89    6.50
  11  -5   1   81.99    5.00
  11   4  -1  346.67   12.90
  11   4  -1  367.36   15.80
 -11  -4   1  340.27   13.40
  10   4  -1    2.60    1.70
  10   4  -1    3.10    1.80
 -10  -4   1    0.70    0.80
   9   4  -1   30.90   38.90
   9   4  -1  135.49    6.40
   9   4  -1  133.49    8.00
  -9  -4   1  128.39    6.10
   8   4  -1  612.14   86.89
   8   4  -1  680.23   24.10
   8   4  -1  717.83  128.79
  -8  -4   1  675.73   21.50
   7   4  -1  320.77  100.29
   7   4  -1  354.06   14.40
   7   4  -1  322.47   61.09
  -7  -4   1  357.56   12.10
   6   4  -1  624.14   76.79
   6   4  -1  649.14   84.29
   6   4  -1  621.14   22.20
  -6  -4   1  643.94   19.70
   5   4  -1 2214.48   66.99
   5   4  -1 2160.68  205.48
   5   4  -1 2362.86  148.89
  -5  -4   1 2241.18   64.29
  -5  -4   1 2215.88   64.19
   4   4  -1  298.37   54.99
   4   4  -1  311.37   12.40
   4   4  -1  322.37   50.29
  -4  -4   1  299.17    9.90
  -4  -4   1  306.97    9.90
   3   4  -1   63.49   28.40
   3   4  -1   60.89    4.90
  -3  -4   1   56.99    2.60
  -3  -4   1   55.89    2.60
   2   4  -1  169.08    5.60
   2   4  -1  169.48   30.50
   2   4  -1  174.08    8.80
  -2  -4   1  174.28    5.70
  -2  -4   1  204.48   33.70
  -2  -4   1  170.88    5.70
  -2  -4   1  168.28    5.80
   1   4  -1  320.37   10.20
   1   4  -1  331.27   11.80
   1   4  -1  326.27   38.20
  -1  -4   1  360.76   41.40
  -1  -4   1  323.67   10.00
  -1  -4   1  315.77   10.10
  -1  -4   1  329.67   10.20
   0   4  -1  774.72   23.10
   0   4  -1  800.02   57.79
   0   4  -1  741.53   22.40
   0   4  -1  726.63   21.70
   0  -4   1  791.62   57.69
   0  -4   1  758.72   22.10
   0  -4   1  742.43   21.60
  -1   4  -1  118.49    4.70
  -1   4  -1  119.69    4.70
  -1   4  -1  125.99   22.80
   1  -4   1  117.19    4.30
   1  -4   1  113.79    3.80
   1  -4   1  111.39   21.90
   1  -4   1  119.09    3.70
  -2   4  -1  220.58    6.80
  -2   4  -1  210.28   38.50
   2  -4   1  218.18    6.60
   2  -4   1  242.48   32.50
   2  -4   1  218.98    7.10
  -3   4  -1  328.97   41.20
  -3   4  -1  323.07    9.70
  -3   4  -1  317.07   10.80
   3  -4   1  323.77   40.70
   3  -4   1  328.67   10.40
   3  -4   1  318.87   10.10
   3  -4   1  317.57    9.50
  -4   4  -1  908.61   26.60
  -4   4  -1 1034.50   84.19
  -4   4  -1  908.21   28.00
   4  -4   1  961.20   77.89
   4  -4   1  906.41   27.20
   4  -4   1  905.41   27.40
  -5   4  -1  918.21   27.80
  -5   4  -1  911.91   26.30
  -5   4  -1  956.40   87.49
   5  -4   1  876.61   27.10
   5  -4   1  938.01   82.89
   5  -4   1  865.81   26.90
  -6   4  -1   14.70    2.60
  -6   4  -1   14.40    1.30
  -6   4  -1   19.50   18.10
   6  -4   1   14.10    1.80
   6  -4   1   15.10    1.60
   6  -4   1    2.50   11.30
  -7   4  -1   76.99    5.00
  -7   4  -1   75.39    3.50
  -7   4  -1   43.40   26.70
   7  -4   1   75.79    4.10
   7  -4   1   76.99    5.70
   7  -4   1   60.39   29.80
  -8   4  -1  372.96   12.30
  -8   4  -1  371.76   14.00
  -8   4  -1  279.77   65.49
   8  -4   1  386.56   13.20
   8  -4   1  370.16   13.40
   8  -4   1  408.76   65.69
  -9   4  -1  637.94   20.00
  -9   4  -1  635.14   21.80
  -9   4  -1  599.34   94.89
   9  -4   1  644.14   21.40
   9  -4   1  553.64   98.79
   9  -4   1  642.94   20.80
 -10   4  -1  357.36   14.40
 -10   4  -1  344.37   12.50
  10  -4   1  357.76   13.10
  10  -4   1  321.07  146.99
  10  -4   1  375.16   13.80
 -11   4  -1   53.69    5.10
 -11   4  -1   50.59    3.60
  11  -4   1   54.69    3.90
  11   3  -1  389.26   16.20
  11   3  -1  354.86   13.10
 -11  -3   1  349.37   13.50
 -10  -3   1    6.30    1.80
   9   3  -1  240.18   11.40
   9   3  -1  246.08    9.50
   9   3  -1  381.86  152.08
   9   3  -1  196.18   56.49
  -9  -3   1  246.38    9.50
   8   3  -1   -8.80   20.50
   8   3  -1   11.90    1.60
   7   3  -1   18.40   19.30
   7   3  -1    2.40    1.80
   6   3  -1    1.10   12.00
   6   3  -1    0.80    1.50
   6   3  -1   -0.60    1.70
  -6  -3   1    1.80    1.00
   5   3  -1  229.58   43.10
   5   3  -1  232.78    9.90
  -5  -3   1  225.78    7.90
   4   3  -1  607.94   20.40
   4   3  -1  596.34   62.09
  -4  -3   1  607.74   18.40
  -4  -3   1  618.94   18.30
   3   3  -1  861.71   84.69
   3   3  -1  879.81   27.60
  -3  -3   1  836.22   25.40
  -3  -3   1  906.21   25.90
   2   3  -1 5147.89  139.19
   2   3  -1 5028.70  199.88
   2   3  -1 4793.92  136.99
   2   3  -1 4740.93  136.99
  -2  -3   1 4664.13  193.68
   1   3  -1 9765.62  330.87
  -1  -3   1 9999.00  332.47
   0   3  -1  197.78    6.10
   0   3  -1  202.88    6.50
   0   3  -1  193.98   24.90
   0   3  -1  209.68    7.10
   0   3  -1  169.78    6.10
   0  -3   1  201.78    6.40
   0  -3   1  194.88    6.70
   0  -3   1  223.38   26.40
   0  -3   1  200.78    6.20
  -1   3  -1  577.74   16.70
  -1   3  -1  598.24   44.50
  -1   3  -1  518.95   16.20
   1  -3   1  547.45   16.20
   1  -3   1  549.45   16.00
   1  -3   1  582.14   43.60
   1  -3   1  565.74   16.40
   1  -3   1  545.25   16.00
  -2   3  -1  785.82   22.50
  -2   3  -1  815.92   23.40
  -2   3  -1  887.71   59.59
  -2   3  -1  723.43   22.90
   2  -3   1  789.32   22.80
   2  -3   1  740.23   65.89
   2  -3   1  797.12   22.40
  -3   3  -1 2160.48  113.49
  -3   3  -1 2063.89   58.49
   3  -3   1 2032.80   58.39
   3  -3   1 2091.69   59.29
   3  -3   1 2119.69  110.39
   3  -3   1 2005.20   58.89
  -4   3  -1 2026.20  120.69
  -4   3  -1 2049.20   59.39
  -4   3  -1 2085.49   58.39
   4  -3   1 2153.38  119.49
   4  -3   1 2032.20   58.99
   4  -3   1 2030.30   59.09
  -5   3  -1  174.58    7.00
  -5   3  -1  175.38    6.30
  -5   3  -1  178.28   43.30
   5  -3   1  173.78    6.60
   5  -3   1  123.09   32.80
   5  -3   1  173.98    6.60
  -6   3  -1   48.10   28.60
  -6   3  -1   64.39    4.10
  -6   3  -1   63.79    3.00
   6  -3   1   65.19    3.60
   6  -3   1   59.99    3.50
   6  -3   1   66.19   29.30
  -7   3  -1  -23.00   13.60
   7  -3   1    8.90   15.90
  -8   3  -1   49.80    4.10
  -8   3  -1   37.30   25.30
  -8   3  -1   50.89    2.90
   8  -3   1   50.29   29.20
   8  -3   1   50.49    3.40
   8  -3   1   51.19    3.60
  -9   3  -1   22.40    3.60
  -9   3  -1  -24.80   28.30
  -9   3  -1   21.90    2.10
   9  -3   1   15.80   39.60
   9  -3   1   23.20    2.60
   9  -3   1   19.90    2.40
 -10   3  -1  -51.89   39.40
  10  -3   1    5.40   57.09
 -11   3  -1   16.20    3.80
  11  -3   1   14.90    2.60
  11   2  -1  114.19    7.40
  11   2  -1  114.99    5.70
 -11  -2   1   99.19    5.80
  10   2  -1  208.38    8.30
  10   2  -1  201.48   10.40
 -10  -2   1  192.28    8.60
   9   2  -1  331.97   96.49
   9   2  -1  286.17   12.60
  -9  -2   1  291.77   10.70
  -9  -2   1  279.37   10.00
   8   2  -1 1271.67   40.20
   8   2  -1  981.70  114.49
  -8  -2   1 1321.87   37.30
  -8  -2   1 1308.77   38.00
   7   2  -1 1209.08   38.00
  -7  -2   1 1204.28   36.00
  -7  -2   1 1208.88   35.30
   5   2  -1    3.80   10.20
   5   2  -1   20.50    2.60
  -5  -2   1   22.10    1.60
  -5  -2   1   22.50    1.70
   4   2  -1   94.49    5.00
  -4  -2   1   95.89    3.30
  -4  -2   1   93.79    3.70
  -4  -2   1   87.19    3.40
   3   2  -1  810.62   24.60
   3   2  -1  849.72   26.40
   3   2  -1  922.31   69.39
   3   2  -1  853.71   24.60
  -3  -2   1  885.71   24.90
  -3  -2   1  861.11   24.90
   2   2  -1 1573.14   45.50
   2   2  -1 1536.15   43.90
   2   2  -1 1581.24   85.79
   2   2  -1 1565.24   43.90
  -2  -2   1 1552.44   44.00
  -2  -2   1 1510.35   44.00
   1   2  -1   38.40    2.90
   1   2  -1   34.50    1.40
   1   2  -1   37.50    1.60
   1   2  -1   42.80   14.60
   1   2  -1   35.50    1.50
  -1  -2   1   41.60    2.90
  -1  -2   1   47.20   15.40
  -1  -2   1   34.40    1.50
  -1  -2   1   37.40    1.50
  -1  -2   1   36.50    1.60
   0   2  -1   23.30    1.40
   0   2  -1   23.00    1.00
   0   2  -1   25.30    1.90
   0   2  -1   35.90   11.30
   0  -2   1   25.20    1.70
   0  -2   1   39.50   11.40
   0  -2   1   24.30    1.10
   0  -2   1   25.00    1.30
  -1   2  -1  603.94   17.60
  -1   2  -1  611.24   40.00
  -1   2  -1  549.95   17.10
  -1   2  -1  619.04   17.10
   1  -2   1  594.44   17.00
   1  -2   1  625.04   39.30
   1  -2   1  588.74   17.10
   1  -2   1  597.84   17.30
   1  -2   1  605.94   17.50
  -2   2  -1  149.49   22.00
  -2   2  -1  131.69    4.60
  -2   2  -1  139.59    4.30
  -2   2  -1  141.89    5.00
   2  -2   1  142.49    4.80
   2  -2   1  144.69    5.30
   2  -2   1  142.59   20.60
   2  -2   1  133.39    4.50
   2  -2   1  137.39    4.30
  -3   2  -1  386.06   11.70
  -3   2  -1  343.57   11.60
  -3   2  -1  386.26   11.10
  -3   2  -1  391.16   40.80
   3  -2   1  394.56   11.70
   3  -2   1  370.66   11.40
   3  -2   1  355.86   11.00
   3  -2   1  340.97   37.00
  -4   2  -1   15.70   10.80
  -4   2  -1    9.70    0.90
   4  -2   1   14.00    1.30
   4  -2   1    0.10    6.00
   4  -2   1   11.20    1.30
  -5   2  -1   97.19    4.50
  -5   2  -1   59.99   22.70
  -5   2  -1   99.79    3.80
   5  -2   1  141.59   35.80
   5  -2   1  100.59    5.00
   5  -2   1   99.29    4.40
  -6   2  -1  977.80   92.29
  -6   2  -1  984.50   28.80
  -6   2  -1  992.60   29.70
   6  -2   1  991.40   29.50
   6  -2   1  981.10   88.59
   6  -2   1  952.60   29.90
  -7   2  -1  893.71   26.60
  -7   2  -1  894.61   27.50
  -7   2  -1  855.91   93.79
   7  -2   1  902.81   27.20
   7  -2   1  879.31   27.90
   7  -2   1  865.01   88.49
  -8   2  -1  271.67    9.50
  -8   2  -1  268.57   10.30
  -8   2  -1  317.07   61.39
   8  -2   1  243.48   56.89
   8  -2   1  251.87   10.50
   8  -2   1  271.67   10.90
  -9   2  -1  113.59    5.10
  -9   2  -1   95.09   34.00
  -9   2  -1  105.89    6.00
   9  -2   1  111.49    5.60
   9  -2   1  104.69    6.00
   9  -2   1  101.09   38.10
 -10   2  -1   66.49   36.90
 -10   2  -1   94.89    5.00
  10  -2   1   52.89   53.79
  10  -2   1  104.09    5.50
  10  -2   1  118.69    6.50
 -11   2  -1   14.60    2.10
  11  -2   1   16.80    3.20
 -12   2  -1    2.80    1.30
  11   1  -1   29.00    3.90
 -11  -1   1   16.20    2.30
 -11  -1   1   19.20    2.60
  10   1  -1  -52.19   38.10
  10   1  -1    4.60    2.00
   9   1  -1   16.10   26.50
   9   1  -1   26.10    3.40
  -9  -1   1   19.60    2.20
  -9  -1   1   21.00    2.70
  -9  -1   1   15.90   30.90
   8   1  -1   18.60    3.40
   8   1  -1    3.90   19.80
  -8  -1   1   12.60   27.00
  -8  -1   1   14.20    2.20
  -8  -1   1   15.30    1.80
   7   1  -1   29.40   26.10
   7   1  -1   12.80    2.20
  -7  -1   1   14.90    2.10
  -7  -1   1   12.50    1.60
  -7  -1   1    1.10   19.50
   6   1  -1  175.48   45.30
   6   1  -1  177.88    7.90
  -6  -1   1  180.08    6.40
  -6  -1   1  180.18    6.60
  -6  -1   1  127.79   43.20
   5   1  -1  623.14   69.99
   5   1  -1  608.94   20.30
  -5  -1   1  631.34   18.90
  -5  -1   1  658.63   18.70
  -5  -1   1  530.05   67.09
   4   1  -1 3206.18  164.58
   4   1  -1 3179.28   91.59
  -4  -1   1 3181.58  167.88
   3   1  -1 4277.97  118.19
   3   1  -1 4471.75  186.98
  -3  -1   1 4321.07  188.68
  -3  -1   1 3829.82  118.09
   2   1  -1    1.50    0.40
   2   1  -1    2.40    0.40
   2   1  -1    3.90    1.30
   2   1  -1   -0.20    5.20
  -2  -1   1    2.20    1.20
  -2  -1   1    1.50    0.40
  -2  -1   1   -1.80    4.30
  -2  -1   1    1.90    0.50
  -2  -1   1    1.80    0.40
   1   1  -1  187.78    5.40
   1   1  -1  174.38    5.60
   1   1  -1  185.98    5.50
   1   1  -1  205.48   21.20
   1   1  -1  191.08    6.30
  -1  -1   1  183.78    6.40
  -1  -1   1  191.88    5.60
  -1  -1   1  183.88    5.80
  -1  -1   1  171.18    5.60
   0   1  -1 4372.46  141.99
  -2   1  -1  807.72   24.10
  -2   1  -1  828.12   50.39
  -2   1  -1  851.41   24.00
  -2   1  -1  845.02   23.70
  -2   1  -1  792.22   23.90
   2  -1   1  815.72   23.90
   2  -1   1  845.92   24.10
   2  -1   1  867.01   24.00
  -3   1  -1  521.45   15.40
  -3   1  -1  490.95   15.60
  -3   1  -1  512.95   45.50
  -3   1  -1  522.25   15.10
   3  -1   1  480.55   15.00
   3  -1   1  545.25   15.60
   3  -1   1  536.25   15.60
   3  -1   1  503.95   15.60
  -4   1  -1  613.74   17.80
  -4   1  -1  613.74   18.20
  -4   1  -1  586.24   56.69
   4  -1   1  614.94   18.30
   4  -1   1  576.64   18.50
  -5   1  -1   20.10    2.40
  -5   1  -1   26.40   17.30
  -5   1  -1   22.20    1.50
   5  -1   1   19.00    1.80
   5  -1   1   19.90    1.90
  -6   1  -1  308.87   10.40
  -6   1  -1  303.87   50.59
  -6   1  -1  305.37   10.00
   6  -1   1  311.37   10.60
   6  -1   1  288.77   11.00
  -7   1  -1  129.89   38.30
  -7   1  -1  155.78    6.10
   7  -1   1  157.18    7.30
   7  -1   1  165.98    6.70
  -8   1  -1  484.95   76.69
  -8   1  -1  538.55   17.50
   8  -1   1  519.05   17.10
   8  -1   1  502.05   18.10
  -9   1  -1   62.89    3.60
  -9   1  -1   23.10   27.90
   9  -1   1   63.49    4.10
   9  -1   1   49.10   25.60
   9  -1   1   62.89    4.50
 -10   1  -1  257.47   10.30
 -10   1  -1  148.39   55.89
 -10   1  -1  263.57    9.90
  10  -1   1  254.77   10.10
  10  -1   1  150.78   55.19
  10  -1   1  264.57   11.30
 -11   1  -1   25.10    3.20
 -11   1  -1   16.70    2.30
  11  -1   1   18.00    2.90
 -12   1  -1   51.79    3.80
  12  -1   1   44.70    3.50
  11   0  -1  315.37   13.80
  11   0  -1  309.97   11.20
 -11   0   1  301.97   11.70
 -11   0   1  294.57   11.80
  10   0  -1 1027.60   32.90
  10   0  -1  934.81  148.39
  10   0  -1  890.91   29.50
 -10   0   1  973.60   30.20
 -10   0   1  845.22  124.19
 -10   0   1  993.00   30.10
   9   0  -1  663.33   99.49
   9   0  -1  558.04   20.50
  -9   0   1  540.55   18.00
  -9   0   1  548.35   18.20
  -9   0   1  503.95  109.99
   8   0  -1  -19.60   25.40
   8   0  -1    2.40    1.20
  -8   0   1   -4.90   20.30
   7   0  -1   46.50    3.80
   7   0  -1   45.60   30.50
  -7   0   1   51.99   37.10
  -7   0   1   44.20    2.70
   6   0  -1 1364.56  113.39
   6   0  -1 1191.68   37.60
  -6   0   1 1210.28   35.80
  -6   0   1 1205.68  108.99
   5   0  -1  513.65   62.49
   5   0  -1  472.85   16.00
  -5   0   1  391.26   56.19
  -5   0   1  489.15   14.60
   4   0  -1  113.19   28.60
   4   0  -1  145.39    6.80
  -4   0   1  195.68   43.80
   3   0  -1  898.71   67.69
   3   0  -1  890.61   25.60
  -3   0   1  792.62   75.89
  -3   0   1  788.72   24.40
  -3   0   1  880.71   24.50
  -3   0   1  830.02   24.70
   2   0  -1  261.07    8.20
   2   0  -1  292.27    8.30
   2   0  -1  283.97    9.00
   2   0  -1  302.17   32.00
  -2   0   1  267.77    8.30
  -2   0   1  282.37    8.30
  -2   0   1  266.67    9.10
  -2   0   1  268.07    8.30
  -2   0   1  280.37    8.30
  -2   0   1  273.27   30.90
   1   0  -1  700.83   20.40
   1   0  -1  782.52   42.50
   1   0  -1  761.12   20.30
   1   0  -1  731.43   20.90
   1   0  -1  710.03   20.50
  -1   0   1  701.33   20.30
  -1   0   1  679.53   20.40
  -1   0   1  750.62   41.90
  -1   0   1  680.63   20.80
   0   0   1  871.91   33.10
  -1   0  -1 1331.77   51.79
   1   0   1 1404.96   51.99
  -2   0  -1  294.67    9.10
  -2   0  -1  310.37    8.80
  -2   0  -1  294.37    9.30
  -2   0  -1  326.87   28.20
   2   0   1  300.27    8.80
   2   0   1  234.58   25.40
   2   0   1  292.87    8.80
   2   0   1  304.97    9.20
  -3   0  -1 2539.65   73.49
  -3   0  -1 2543.25  118.39
   3   0   1 2644.44  117.39
  -4   0  -1  804.12   67.99
  -4   0  -1  960.90   27.10
   4   0   1  961.80   27.60
   4   0   1  941.21   27.90
  -5   0  -1  158.58    5.60
  -5   0  -1  157.38    5.60
  -5   0  -1  212.28   46.30
   5   0   1  157.08    6.10
  -6   0  -1  771.32   23.10
  -6   0  -1  773.12   23.00
  -6   0  -1  767.92   81.59
   6   0   1  751.32   24.30
   6   0   1  772.12   23.60
  -7   0  -1  667.63   83.79
  -7   0  -1  690.23   21.10
  -7   0  -1  698.73   21.00
   7   0   1  661.93   22.40
   7   0   1  685.33   21.50
  -8   0  -1    6.20   18.80
  -8   0  -1    5.60    1.40
  -8   0  -1    5.10    1.60
   8   0   1    5.00    1.70
   8   0   1    7.70    2.10
  -9   0  -1   27.00   29.50
  -9   0  -1   59.59    3.70
  -9   0  -1   58.79    3.90
   9   0   1   65.59    4.10
   9   0   1   63.89    4.70
 -10   0  -1  437.56   15.40
 -10   0  -1  450.75   15.30
  10   0   1  455.45   15.70
  10   0   1  437.86   17.10
 -11   0  -1  511.25   17.70
 -11   0  -1  520.55   17.90
  11   0   1  521.85   17.90
  11   0   1  529.55   19.80
 -12   0  -1    3.80    1.50
 -11   1   1    2.30    1.80
 -11   1   1    3.00    1.30
  10  -1  -1   33.90    4.10
  10  -1  -1  -31.50   48.20
 -10   1   1   32.00    2.70
 -10   1   1  113.49   47.10
   9  -1  -1  148.59   52.59
   9  -1  -1  178.48    8.90
  -9   1   1  163.88   64.79
  -9   1   1  183.78    7.30
   8  -1  -1   30.30    3.20
   8  -1  -1   14.40   30.40
  -8   1   1   31.80    3.50
  -8   1   1   18.10   22.30
  -8   1   1   29.00    2.30
   7  -1  -1 1103.89  106.09
   7  -1  -1  949.21   31.70
  -7   1   1 1006.80  105.09
  -7   1   1 1009.90   30.40
  -7   1   1 1012.10   29.90
   6  -1  -1  710.83   80.69
   6  -1  -1  681.73   23.20
  -6   1   1  725.13   21.40
  -6   1   1  716.23   21.80
  -6   1   1  719.83   81.89
   5  -1  -1   21.10   15.80
   5  -1  -1    8.80    1.50
  -5   1   1    5.40   14.00
  -5   1   1    8.40    1.60
  -5   1   1    7.20    1.10
   4  -1  -1   73.99    4.40
   4  -1  -1   85.79   24.30
  -4   1   1   69.39    3.20
  -4   1   1   59.19   22.40
  -4   1   1   68.59    2.80
   3  -1  -1 1977.20   55.89
   3  -1  -1 2064.49  106.29
  -3   1   1 2013.40   54.99
  -3   1   1 1735.53   54.89
  -3   1   1 1899.11  103.69
   2  -1  -1  215.18   26.00
   2  -1  -1  189.88    6.10
   2  -1  -1  199.88    6.80
   2  -1  -1  193.38    6.30
  -2   1   1  209.48    6.40
  -2   1   1  202.98    6.00
  -2   1   1  189.88   24.90
  -2   1   1  220.68    6.60
  -2   1   1  182.38    6.70
   1  -1  -1  600.74   16.80
   1  -1  -1  585.54   17.40
   1  -1  -1  607.14   17.10
   1  -1  -1  588.84   34.90
  -1   1   1  609.64   35.50
  -1   1   1  594.84   17.00
  -1   1   1  620.44   17.10
  -1   1   1  551.74   17.40
  -1   1   1  593.44   16.90
   0  -1  -1 4646.24  140.49
   0   1   1 4707.03  140.49
   1   1   1 2999.10  101.49
   1   1   1 3175.68  106.89
  -2  -1  -1 1034.20   30.00
  -2  -1  -1 1024.70   58.99
   2   1   1 1049.00   30.00
   2   1   1 1043.60   57.19
   2   1   1 1090.39   30.80
   2   1   1 1038.00   29.80
  -3  -1  -1  275.57    8.00
  -3  -1  -1  258.57    9.50
  -3  -1  -1  271.17   34.20
  -3  -1  -1  276.87    8.30
   3   1   1  247.68   31.20
   3   1   1  271.37    8.80
   3   1   1  268.67    9.30
  -4  -1  -1 1230.88   35.40
  -4  -1  -1 1272.47   89.39
   4   1   1 1205.48   35.20
   4   1   1 1263.67   36.30
   4   1   1 1268.17   84.59
   4   1   1 1233.78   36.90
  -5  -1  -1 1033.40   29.60
  -5  -1  -1 1015.00   29.30
  -5  -1  -1 1041.40   88.99
   5   1   1 1025.30   83.89
   5   1   1  998.00   30.10
   5   1   1  975.40   30.80
  -6  -1  -1    9.70    1.50
  -6  -1  -1   24.70   18.30
  -6  -1  -1   11.20    1.70
   6   1   1   11.50   16.90
   6   1   1   10.40    2.10
   6   1   1   11.80    2.50
  -7  -1  -1    0.40    0.80
  -7  -1  -1   -0.90   16.70
  -7  -1  -1    0.90    1.20
   7   1   1    0.00    1.00
   7   1   1   -0.90    1.40
   7   1   1   14.20   12.30
  -8  -1  -1   39.20    2.80
  -8  -1  -1   31.10   23.50
  -8  -1  -1   43.00    2.80
   8   1   1   29.60   27.80
   8   1   1   44.40    3.70
   8   1   1   38.20    3.30
  -9  -1  -1   61.49    3.70
  -9  -1  -1   64.49    3.70
  -9  -1  -1   23.90   34.20
   9   1   1   63.19    4.80
   9   1   1   78.49   36.50
   9   1   1   61.69    4.20
 -10  -1  -1  234.18    9.40
 -10  -1  -1  228.38    9.00
  10   1   1  249.08   11.30
  10   1   1  249.08    9.80
 -11  -1  -1   65.59    4.30
  11   1   1   67.99    4.70
  11   1   1   65.09    5.60
 -12  -1  -1  167.68    8.10
  12   1   1  186.48    8.00
 -11   2   1    1.20    1.10
  10  -2  -1   72.49    5.70
 -10   2   1   68.69    4.10
 -10   2   1   72.29    5.30
   9  -2  -1  178.68   64.99
   9  -2  -1  279.47   11.90
  -9   2   1  281.77   10.00
  -9   2   1  273.17   11.00
  -9   2   1  253.47   66.29
   8  -2  -1   14.80    2.30
   8  -2  -1   10.30   21.00
   8  -2  -1   16.80    3.40
  -8   2   1   14.30    1.70
  -8   2   1   16.20    2.90
  -8   2   1   18.50   18.30
   7  -2  -1  124.79   44.00
   7  -2  -1  112.89    6.10
   7  -2  -1  113.29    5.00
  -7   2   1  117.49   36.60
  -7   2   1  116.39    4.80
  -7   2   1  113.59    5.60
   6  -2  -1 1435.56  114.39
   6  -2  -1 1297.37   40.30
   6  -2  -1 1301.97   38.90
  -6   2   1 1328.97  112.49
  -6   2   1 1327.07   38.60
  -6   2   1 1340.97   39.50
   5  -2  -1  733.93   22.70
   5  -2  -1  751.52   23.90
   5  -2  -1  827.22   77.79
  -5   2   1  772.12   23.20
  -5   2   1  765.52   22.40
  -5   2   1  739.13   75.39
   4  -2  -1  574.24   17.50
   4  -2  -1  558.34   18.40
   4  -2  -1  630.14   60.99
  -4   2   1  585.94   17.20
  -4   2   1  593.64   17.90
  -4   2   1  619.64   61.09
   3  -2  -1  126.09    5.00
   3  -2  -1  126.89    4.40
   3  -2  -1   95.29   23.10
   3  -2  -1  117.09    4.00
  -3   2   1  127.49    4.10
  -3   2   1  126.99    4.70
  -3   2   1  119.49   23.30
   2  -2  -1 2169.18   61.29
   2  -2  -1 2271.77  102.09
   2  -2  -1 2145.19   60.79
  -2   2   1 2204.88  101.29
  -2   2   1 2005.10   60.89
   1  -2  -1  326.87   27.40
   1  -2  -1  328.07   10.00
   1  -2  -1  337.27    9.80
   1  -2  -1  338.47    9.70
  -1   2   1  343.07    9.90
  -1   2   1  309.97   10.00
  -1   2   1  311.27   26.80
  -1   2   1  321.67    9.70
   0  -2  -1  517.05   29.50
   0  -2  -1  482.85   14.50
   0  -2  -1  479.75   14.30
   0  -2  -1  501.45   14.40
   0   2   1  492.35   14.40
   0   2   1  524.65   29.30
  -1  -2  -1    2.80    0.90
  -1  -2  -1    4.10    4.70
   1   2   1    3.50    1.10
   1   2   1    2.30    0.40
   1   2   1    4.10    4.50
   1   2   1    2.80    0.50
  -2  -2  -1    6.90    0.60
  -2  -2  -1    7.00    1.80
  -2  -2  -1    7.20    0.70
   2   2   1    0.00    5.70
   2   2   1    4.10    0.60
   2   2   1    4.90    0.60
   2   2   1   11.90    8.10
   2   2   1    8.30    2.10
  -3  -2  -1 2148.69   63.59
   3   2   1 2253.77   65.09
   3   2   1 2351.86  116.19
  -4  -2  -1 1295.17   37.20
  -4  -2  -1 1273.87   37.50
  -4  -2  -1 1406.96   99.99
   4   2   1 1255.67   37.80
   4   2   1 1295.17   89.29
   4   2   1 1287.67   38.90
  -5  -2  -1  211.88   48.60
  -5  -2  -1  245.58    8.10
   5   2   1  238.88    9.60
   5   2   1  241.18    8.80
   5   2   1  283.17   44.00
  -6  -2  -1  320.47   58.09
  -6  -2  -1  376.26   12.10
   6   2   1  421.66   60.49
   6   2   1  383.86   12.90
   6   2   1  367.26   13.70
  -7  -2  -1  471.65   75.49
  -7  -2  -1  602.84   18.50
   7   2   1  605.44   19.20
   7   2   1  555.54   72.79
   7   2   1  595.34   20.30
  -8  -2  -1  432.26   14.00
  -8  -2  -1  249.58   65.49
   8   2   1  415.26   14.40
   8   2   1  479.65   71.89
  -9  -2  -1    9.60   21.00
  -9  -2  -1   12.60    2.10
   9   2   1   12.30    2.90
   9   2   1   -9.60   26.80
   9   2   1   12.40    2.50
 -10  -2  -1   29.20    2.70
  10   2   1   34.60    3.90
  10   2   1   29.50    3.20
 -11  -2  -1  136.09    6.80
  11   2   1  143.29    7.10
  12   2   1   46.80    4.60
 -11   3   1   15.30    3.20
 -11   3   1   13.20    2.30
  10  -3  -1  258.07   11.50
 -10   3   1  254.27   11.30
 -10   3   1  267.37    9.90
   9  -3  -1  -61.29   38.00
   9  -3  -1   34.70    2.80
   9  -3  -1   30.00    3.50
  -9   3   1   30.10    2.40
  -9   3   1   32.10    4.00
   8  -3  -1   50.09    3.20
   8  -3  -1   94.69   33.30
   8  -3  -1   48.30    3.90
  -8   3   1   49.90    4.30
  -8   3   1   65.39   35.10
  -8   3   1   55.09    3.10
   7  -3  -1  223.58   57.79
   7  -3  -1  226.88    8.50
   7  -3  -1  234.48    9.80
  -7   3   1  246.28   10.50
  -7   3   1  215.98   57.59
  -7   3   1  242.08    8.20
   6  -3  -1  100.39    4.40
   6  -3  -1   80.69   32.30
   6  -3  -1   99.79    5.30
  -6   3   1  101.09    5.30
  -6   3   1  101.89   35.20
  -6   3   1  103.19    4.10
   5  -3  -1   66.29    3.80
   5  -3  -1   63.79    3.20
   5  -3  -1   64.99   28.50
  -5   3   1   71.99    4.10
  -5   3   1   70.99    2.90
  -5   3   1   58.09   24.80
   4  -3  -1   52.89    2.60
   4  -3  -1   66.49   21.50
   4  -3  -1   54.09    3.10
  -4   3   1   57.29    2.30
  -4   3   1   47.40   20.50
  -4   3   1   54.69    3.20
   3  -3  -1 3788.22  107.29
   3  -3  -1 3507.75  106.59
   3  -3  -1 4114.29  171.88
   3  -3  -1 3731.33  107.89
  -3   3   1 3972.80  170.88
   2  -3  -1 1558.74   84.09
   2  -3  -1 1506.95   43.10
   2  -3  -1 1449.46   43.40
  -2   3   1 1545.55   84.59
  -2   3   1 1505.75   42.50
  -2   3   1 1521.75   43.50
   1  -3  -1 1669.83   79.99
   1  -3  -1 1573.14   45.40
   1  -3  -1 1539.35   45.60
  -1   3   1 1608.34   45.60
  -1   3   1 1620.34   78.09
   0  -3  -1  147.59    4.90
   0  -3  -1  157.18    4.90
   0  -3  -1  152.08    5.00
   0  -3  -1  164.78   20.00
   0   3   1  138.69    5.00
   0   3   1  156.98    5.00
   0   3   1  142.89   18.30
  -1  -3  -1 2584.44  108.79
   1   3   1 2666.43  107.49
   1   3   1 2627.14   75.49
   1   3   1 2740.03   75.89
  -2  -3  -1   57.69    2.20
  -2  -3  -1   57.89    2.40
  -2  -3  -1   47.90   14.30
   2   3   1   57.39    3.90
   2   3   1   59.59    2.40
   2   3   1   58.79   18.50
  -3  -3  -1  143.69    4.80
  -3  -3  -1  139.09    5.10
   3   3   1  155.18    7.00
   3   3   1  142.19   26.10
   3   3   1   97.99   25.10
  -4  -3  -1  516.65   19.30
  -4  -3  -1  613.64   17.60
   4   3   1  623.74   63.59
   4   3   1  602.64   19.80
   4   3   1  612.94   57.89
  -5  -3  -1  362.66   12.10
  -5  -3  -1  381.36   11.80
   5   3   1  347.47   51.79
   5   3   1  372.06   14.00
   5   3   1  376.36   49.50
  -6  -3  -1  258.47    8.90
   6   3   1  262.57   50.49
   6   3   1  254.17   10.90
   6   3   1  262.17    9.80
   7   3   1  391.16   15.30
   7   3   1  418.46   14.30
   7   3   1  437.66   66.99
  -8  -3  -1  189.58    7.50
   8   3   1  191.68    9.30
   8   3   1  198.48    8.30
   8   3   1  102.69   39.30
  -9  -3  -1  248.98    9.40
   9   3   1  131.79   44.80
   9   3   1  187.48   53.09
   9   3   1  241.38    9.80
   9   3   1  247.78   11.10
  10   3   1    3.70    2.00
  10   3   1    4.80    1.80
 -11  -3  -1   47.40    3.70
  11   3   1   64.99    5.60
  11   3   1   53.49    4.40
 -11   4   1   18.30    2.30
 -11   4   1   26.80    4.20
  10  -4  -1   75.39    4.40
  10  -4  -1   87.49    5.70
 -10   4   1   77.59    6.20
 -10   4   1   84.79    4.40
   9  -4  -1  649.83   21.30
   9  -4  -1  670.13   23.10
   9  -4  -1  724.23  112.99
  -9   4   1  672.03   21.00
  -9   4   1  678.83   23.10
  -9   4   1  697.33  105.99
   8  -4  -1  208.88   55.69
   8  -4  -1  259.47   10.60
   8  -4  -1  244.88    9.20
  -8   4   1  240.68    8.70
  -8   4   1  209.58   57.29
  -8   4   1  248.48   10.50
   7  -4  -1   38.10   28.30
   7  -4  -1   27.00    2.20
   7  -4  -1   22.70    2.50
  -7   4   1   27.10    1.80
  -7   4   1   26.60    3.40
  -7   4   1    4.40   17.40
   6  -4  -1   76.59   28.50
   6  -4  -1   76.29    3.80
   6  -4  -1   76.89    4.40
  -6   4   1   80.09    3.30
  -6   4   1   81.39    4.90
  -6   4   1   81.99   30.60
   5  -4  -1  226.78    8.10
   5  -4  -1  194.38   44.10
   5  -4  -1  224.98    8.70
  -5   4   1  195.68   44.50
  -5   4   1  235.58    7.40
  -5   4   1  240.18    9.00
   4  -4  -1   58.99    3.20
   4  -4  -1   63.99   24.90
   4  -4  -1   59.29    2.90
  -4   4   1   60.09    3.70
  -4   4   1   60.29    2.30
  -4   4   1   48.60   21.80
   3  -4  -1  145.49    5.60
   3  -4  -1  147.89    5.30
   3  -4  -1  132.09   30.90
  -3   4   1  143.29    4.50
  -3   4   1  153.18   29.40
  -3   4   1  152.58    5.90
   2  -4  -1  978.00   28.90
   2  -4  -1 1017.20   70.09
   2  -4  -1  960.20   29.10
  -2   4   1 1006.00   29.40
  -2   4   1 1042.90   71.09
   1  -4  -1   96.49    3.60
   1  -4  -1   97.19    3.80
   1  -4  -1  105.49   19.80
  -1   4   1   96.59    4.00
  -1   4   1   96.09   18.30
   0  -4  -1  991.80   29.10
   0  -4  -1 1001.70   29.30
   0  -4  -1 1010.30   61.79
   0   4   1 1012.60   29.20
   0   4   1 1033.60   60.79
  -1  -4  -1  525.65   15.30
  -1  -4  -1  518.05   43.90
  -1  -4  -1  506.35   14.70
  -1  -4  -1  501.85   14.90
   1   4   1  465.15   40.70
   1   4   1  528.35   16.30
   1   4   1  500.85   14.70
   1   4   1  521.25   15.10
  -2  -4  -1  295.77   36.10
  -2  -4  -1  316.37    9.70
  -2  -4  -1  325.17   10.10
   2   4   1  287.17   35.80
   2   4   1  341.67   11.90
  -3  -4  -1   24.20    1.40
   3   4   1   39.60   17.70
   3   4   1   27.20    4.00
  -4  -4  -1   11.10    1.10
  -4  -4  -1   11.30    1.20
   4   4   1   17.20   13.10
   4   4   1   13.00    3.20
   4   4   1    8.10   11.70
  -5  -4  -1   44.10    2.60
  -5  -4  -1   41.50    2.40
   5   4   1   45.40   25.30
   5   4   1   40.30    4.70
   5   4   1    7.60   13.50
  -6  -4  -1   30.30    2.40
  -6  -4  -1   30.90    2.20
   6   4   1   50.99   26.50
   6   4   1   32.00    4.40
   6   4   1   54.09   26.90
  -7  -4  -1  229.78    8.40
   7   4   1  227.78    9.30
   7   4   1  227.98   10.70
   7   4   1  191.18   48.60
   7   4   1  218.88   57.49
  -8  -4  -1  176.68    7.10
   8   4   1  127.39   47.60
   8   4   1  166.68    9.00
   8   4   1  205.88   55.89
   9   4   1   34.10   27.10
   9   4   1    5.80    2.20
 -10  -4  -1  143.49    6.80
  10   4   1  154.88    8.70
  10   4   1  145.89    7.40
 -11  -4  -1    1.20    1.10
  11   4   1    2.20    2.10
 -12  -4  -1   67.89    4.80
  10  -5  -1   33.70    4.30
 -10   5   1   26.40    4.60
 -10   5   1   23.90    2.20
   9  -5  -1    2.70    1.60
   9  -5  -1    3.20    1.40
  -9   5   1    1.80    2.40
  -9   5   1    5.30    1.10
   8  -5  -1  105.19   48.80
   8  -5  -1  154.28    7.40
   8  -5  -1  147.19    6.50
  -8   5   1  154.28    5.90
  -8   5   1  174.88   41.90
  -8   5   1  151.18    7.90
   7  -5  -1    2.00    0.90
   7  -5  -1  -20.10   16.30
  -7   5   1    0.10    2.20
  -7   5   1   14.80   25.60
  -7   5   1    1.20    0.60
   6  -5  -1  490.55   15.80
   6  -5  -1  486.95   68.39
   6  -5  -1  484.65   16.40
  -6   5   1  416.06   65.29
  -6   5   1  483.35   14.80
  -6   5   1  508.15   17.00
   5  -5  -1  411.16   14.00
   5  -5  -1  457.75   59.69
   5  -5  -1  412.96   13.50
  -5   5   1  412.76   12.50
  -5   5   1  378.56   59.29
  -5   5   1  425.36   14.50
   4  -5  -1   30.70   20.30
   4  -5  -1   30.30    1.40
   4  -5  -1   30.40    2.10
   4  -5  -1   33.90    2.30
  -4   5   1   32.40    1.50
  -4   5   1   29.80    3.10
  -4   5   1   26.90   18.60
   3  -5  -1  150.38    5.80
   3  -5  -1  127.59   33.60
   3  -5  -1  153.08    5.60
  -3   5   1  154.48    6.30
  -3   5   1  126.29   30.60
   2  -5  -1   22.10   12.60
   2  -5  -1   27.80    1.80
   2  -5  -1   29.20    1.80
  -2   5   1   55.69   21.50
  -2   5   1   28.10    2.40
   1  -5  -1    1.70    5.90
   1  -5  -1    4.50    0.80
  -1   5   1   -5.00    5.20
  -1   5   1    5.50    1.40
   0  -5  -1  110.89    4.20
   0  -5  -1  145.99   30.50
   0   5   1  115.19   21.70
   0   5   1  109.69    4.40
  -1  -5  -1  846.32   64.19
  -1  -5  -1  864.21   24.60
  -1  -5  -1  882.21   25.30
   1   5   1  797.02   24.60
   1   5   1  866.31   26.60
   1   5   1  891.61   63.39
   1   5   1  884.11   25.20
  -2  -5  -1  380.76   12.10
  -2  -5  -1  358.66   43.90
   2   5   1  407.36   44.60
   2   5   1  389.86   14.00
   2   5   1  381.86   11.60
  -3  -5  -1   31.10    1.70
  -3  -5  -1   33.70    2.00
  -3  -5  -1   41.50   19.90
   3   5   1   29.60    4.40
   3   5   1   23.50   14.90
  -4  -5  -1  360.36   12.00
  -4  -5  -1  365.56   11.60
   4   5   1  343.97   55.99
   4   5   1  386.96   15.10
   4   5   1  378.06   52.79
  -5  -5  -1    7.60    1.40
  -5  -5  -1    7.10    1.30
   5   5   1   16.20   16.20
   5   5   1    6.30    3.60
   5   5   1    9.90   16.00
  -6  -5  -1  302.17   10.90
  -6  -5  -1  318.87   10.60
   6   5   1  296.87   54.89
   6   5   1  344.77   64.09
   6   5   1  310.17   13.60
  -7  -5  -1  124.19    5.30
   7   5   1  121.79    6.30
   7   5   1  116.89    7.60
   7   5   1   87.89   35.60
   7   5   1   62.89   27.60
  -8  -5  -1   12.10    2.00
   8   5   1   14.90    2.80
   8   5   1  -14.10   20.30
   8   5   1    7.70    2.90
   8   5   1    4.50   27.60
   9   5   1  -24.00   30.00
 -10  -5  -1   56.69    3.90
  10   5   1   52.39    4.70
 -11  -5  -1   69.19    4.60
  11   5   1   68.49    6.00
   9  -6  -1   17.70    2.30
   9  -6  -1   22.80    3.00
  -9   6   1   24.50    4.50
  -9   6   1   20.90    2.00
   8  -6  -1   43.90   48.20
   8  -6  -1   25.80    2.90
   8  -6  -1   25.60    2.40
  -8   6   1   23.80    4.10
  -8   6   1    0.00   52.19
  -8   6   1   24.70    1.90
   7  -6  -1    2.60    0.90
   7  -6  -1    4.00    1.50
  -7   6   1    5.20    1.00
  -7   6   1   -5.60   22.60
  -7   6   1    9.60    3.10
   6  -6  -1   63.49    3.90
   6  -6  -1   67.49    3.70
   6  -6  -1   56.09   26.70
  -6   6   1   68.19    2.80
  -6   6   1   46.70   26.50
  -6   6   1   66.49    5.00
   5  -6  -1  324.67   11.10
   5  -6  -1  322.87   11.50
   5  -6  -1  372.16   60.89
  -5   6   1  340.77   12.40
  -5   6   1  263.37   49.99
   4  -6  -1  327.47   10.90
   4  -6  -1  333.37   51.99
   4  -6  -1  305.47   11.00
  -4   6   1  299.37   49.10
  -4   6   1  333.57   11.90
   3  -6  -1   71.69    3.50
   3  -6  -1   58.49   25.50
   3  -6  -1   71.79    3.60
  -3   6   1   64.29   22.90
  -3   6   1   78.09    4.50
   2  -6  -1  268.27   39.70
   2  -6  -1  270.37    8.90
   2  -6  -1  261.27    9.10
  -2   6   1  228.78   37.30
  -2   6   1  271.47    9.70
   1  -6  -1    4.20    0.80
   1  -6  -1    6.00    1.00
   1  -6  -1   -4.40    5.60
  -1   6   1    7.30    1.70
  -1   6   1    2.90    9.00
   0  -6  -1    4.20    1.00
   0  -6  -1   -7.50    8.10
   0   6   1    3.30    1.30
   0   6   1    4.70    2.10
   0   6   1    4.10    9.30
  -1  -6  -1  194.58    6.10
  -1  -6  -1  183.88   32.50
  -1  -6  -1  206.08    6.90
   1   6   1  198.68   31.90
   1   6   1  200.08    6.90
   1   6   1  196.28    8.40
   1   6   1  182.28    6.10
  -2  -6  -1    8.20   12.10
  -2  -6  -1   10.60    0.90
   2   6   1   10.10    2.90
   2   6   1   10.80    1.50
   2   6   1   16.00   10.70
  -3  -6  -1   10.70    1.20
  -3  -6  -1   10.40    1.10
  -3  -6  -1   20.50   19.90
   3   6   1   20.40   16.40
   3   6   1   12.30    3.80
  -4  -6  -1   41.30    2.30
  -4  -6  -1   38.50    2.50
   4   6   1   36.60   23.40
   4   6   1   39.30    5.80
  -5  -6  -1  338.77   11.00
  -5  -6  -1  324.17   11.50
   5   6   1  334.97   63.59
   5   6   1  381.86   58.19
   5   6   1  339.17   14.90
  -6  -6  -1   24.00    2.20
   6   6   1   44.10   25.00
   6   6   1   33.60    5.70
   6   6   1   10.00   19.90
  -7  -6  -1   86.39    4.20
  -7  -6  -1   83.19    5.10
   7   6   1   63.99   32.70
   7   6   1   78.19    6.80
   7   6   1   81.49   40.10
  -8  -6  -1  167.28    6.90
   8   6   1  154.68    9.40
   8   6   1  160.18    7.90
   8   6   1   80.79   35.80
  -9  -6  -1    2.60    1.30
   9   6   1    1.90    2.20
   9   6   1    2.30    2.20
 -10  -6  -1   70.49    4.40
  10   6   1   79.59    6.40
  10   6   1   70.39    5.40
  10  -7  -1   52.69    3.60
 -10   7   1   47.30    5.50
   9  -7  -1   17.50    2.20
  -9   7   1   22.90    4.50
   8  -7  -1  101.39    5.20
   8  -7  -1  106.59    5.80
  -8   7   1  106.99    7.20
   7  -7  -1   47.10    3.30
   7  -7  -1   40.00   41.10
   7  -7  -1   49.10    3.60
  -7   7   1   47.80    4.90
  -7   7   1   11.50   29.30
   6  -7  -1   34.00    2.60
   6  -7  -1   39.60    3.00
   6  -7  -1    7.00   28.10
  -6   7   1   34.80    4.20
  -6   7   1   33.20   28.50
   5  -7  -1   92.59    4.70
   5  -7  -1   98.79   41.10
   5  -7  -1   85.09    4.40
  -5   7   1   92.09    5.70
   4  -7  -1    2.40    1.00
   4  -7  -1    2.40    1.00
   4  -7  -1   20.80   13.20
  -4   7   1    3.40    2.20
  -4   7   1    1.10   16.40
   3  -7  -1   35.60   19.30
   3  -7  -1   16.60    1.70
   3  -7  -1   17.80    1.70
  -3   7   1   18.70    3.10
  -3   7   1    4.50   12.00
   2  -7  -1  134.29   37.00
   2  -7  -1  139.49    5.50
   2  -7  -1  138.19    5.70
  -2   7   1  145.49   36.60
  -2   7   1  144.29    6.50
   1  -7  -1  703.93   21.90
   1  -7  -1  719.13   21.80
   1  -7  -1  770.72   71.49
  -1   7   1  700.33   22.90
  -1   7   1  696.23   67.19
  -1   7   1  722.13   22.30
   0  -7  -1   55.79    2.80
   0  -7  -1   40.40   21.20
   0   7   1   47.20    4.40
   0   7   1   47.80    3.30
   0   7   1   42.30   19.70
  -1  -7  -1  169.78    6.50
  -1  -7  -1  201.68   37.70
  -1  -7  -1  172.38    5.60
   1   7   1  181.98   33.90
   1   7   1  177.28    8.60
   1   7   1  178.98    6.70
  -2  -7  -1  541.75   17.00
  -2  -7  -1  544.15   16.10
  -2  -7  -1  500.35   60.39
   2   7   1  556.14   60.99
   2   7   1  536.05   19.50
   2   7   1  547.25   16.70
  -3  -7  -1  224.78    7.90
  -3  -7  -1  154.78   37.50
   3   7   1  214.98   41.80
   3   7   1  211.68   11.00
  -4  -7  -1  274.37   50.59
  -4  -7  -1  310.47   10.20
  -4  -7  -1  318.77   10.90
   4   7   1  320.87   14.40
   4   7   1  291.77   52.39
  -5  -7  -1    1.10    0.80
  -5  -7  -1    2.20    1.00
   5   7   1   -5.60   16.40
   5   7   1    4.50    4.20
   5   7   1   -3.00   13.50
  -6  -7  -1   36.40    2.50
   6   7   1   34.70    5.80
   6   7   1   22.70   23.30
   6   7   1   42.70   23.10
  -7  -7  -1    3.20    1.30
  -7  -7  -1    3.70    1.30
   7   7   1   -0.20   30.30
   7   7   1    8.10   22.10
   7   7   1    6.90    3.60
  -8  -7  -1  261.17   10.40
  -8  -7  -1  269.17   10.00
   8   7   1  255.77   13.20
  -9  -7  -1   90.19    5.10
   9   7   1   93.89    6.30
 -10  -7  -1  192.18    8.50
  10   7   1  193.48    9.60
  10   7   1  204.38   11.40
 -11  -7  -1  206.38    9.60
  11   7   1  219.28   10.30
  11   7   1  261.67   12.60
   9  -8  -1   23.10    2.60
  -9   8   1   19.20    4.30
   8  -8  -1   37.70    3.40
   8  -8  -1   44.40    3.50
  -8   8   1   37.90    5.20
   7  -8  -1  353.36   13.30
   7  -8  -1  355.26   13.00
  -7   8   1  400.76   20.90
   6  -8  -1  -32.20   31.60
   6  -8  -1   18.00    2.20
   6  -8  -1   20.60    2.20
  -6   8   1   18.80   27.50
  -6   8   1   20.50    3.70
   5  -8  -1  170.58   50.59
   5  -8  -1  260.07    9.40
   5  -8  -1  257.87    9.50
  -5   8   1  153.58   43.10
  -5   8   1  246.18   10.70
   4  -8  -1   66.29   25.40
   4  -8  -1   50.49    3.10
   4  -8  -1   47.80    3.20
  -4   8   1   17.00   20.80
  -4   8   1   47.80    4.30
   3  -8  -1  110.29    5.10
   3  -8  -1  114.99    5.00
   3  -8  -1   90.69   32.00
  -3   8   1  129.39   42.00
  -3   8   1  107.99    6.00
   2  -8  -1    4.00    1.20
   2  -8  -1    3.70    1.10
   2  -8  -1    3.70   16.00
  -2   8   1   19.70   16.20
  -2   8   1    3.20    2.10
   1  -8  -1   -2.50   13.80
   1  -8  -1    3.30    1.00
  -1   8   1    4.00   10.00
  -1   8   1    0.10    2.50
  -1   8   1   -0.80    1.60
   0  -8  -1  235.38    8.30
   0  -8  -1  258.37   45.90
   0   8   1  230.58   10.30
   0   8   1  224.48    8.80
   0   8   1  220.78   40.90
  -1  -8  -1   64.69   28.20
  -1  -8  -1   62.89    2.50
  -1  -8  -1   68.29    3.50
   1   8   1   69.59    4.00
   1   8   1   61.79    5.90
   1   8   1   60.69   23.20
  -2  -8  -1  427.46   61.59
  -2  -8  -1  436.66   13.20
  -2  -8  -1  445.96   14.40
   2   8   1  430.26   57.99
   2   8   1  440.46   14.10
   2   8   1  426.86   17.20
  -3  -8  -1  322.47   51.79
  -3  -8  -1  283.47   10.20
   3   8   1  288.97   13.70
   3   8   1  300.47   51.79
  -4  -8  -1  437.06   13.60
  -4  -8  -1  428.86   14.40
  -4  -8  -1  405.66   59.09
   4   8   1  434.46   63.09
   4   8   1  430.46   18.20
  -5  -8  -1  198.88    7.90
  -5  -8  -1  202.18    7.30
   5   8   1  173.88   45.00
   5   8   1  186.88   11.50
  -6  -8  -1    2.60    1.20
  -6  -8  -1    1.10    0.90
   6   8   1   -1.00   22.00
   6   8   1   29.20   23.80
   6   8   1   -1.20    3.40
  -7  -8  -1   13.70    2.30
  -7  -8  -1   11.90    2.10
   7   8   1   11.70    4.50
  -8  -8  -1   81.19    4.90
  -8  -8  -1   80.89    4.60
   8   8   1   83.29    7.80
  -9  -8  -1    9.20    2.10
   9   8   1    8.60    3.10
   9   8   1   10.10    3.80
 -10  -8  -1    7.40    1.90
  10   8   1    7.40    3.00
   8  -9  -1    8.40    1.90
  -8   9   1    4.80    3.30
   7  -9  -1   23.30    3.40
   7  -9  -1   17.20    2.40
  -7   9   1   15.90    4.00
   6  -9  -1  241.78    9.70
   6  -9  -1  243.88    9.60
  -6   9   1  246.58   12.70
   5  -9  -1  -32.60   29.80
   5  -9  -1    2.50    1.20
   5  -9  -1    2.30    1.30
  -5   9   1    0.20    2.40
  -5   9   1  -10.00   19.90
   4  -9  -1  498.25   74.19
   4  -9  -1  514.65   16.70
   4  -9  -1  502.45   16.70
  -4   9   1  388.76   65.29
  -4   9   1  508.65   18.10
   3  -9  -1   99.79   33.10
   3  -9  -1   78.59    4.20
   3  -9  -1   79.19    4.30
  -3   9   1   69.59   31.20
  -3   9   1   78.69    5.40
   2  -9  -1  328.67   11.30
   2  -9  -1  319.47   54.09
  -2   9   1  317.67   12.20
  -2   9   1  311.37   13.50
  -2   9   1  276.57   51.19
   1  -9  -1  101.09   35.80
   1  -9  -1   95.69    4.60
  -1   9   1   96.09    6.50
  -1   9   1   78.09   29.30
  -1   9   1  112.09    5.80
   0  -9  -1    0.80    0.80
   0  -9  -1   15.90   19.10
   0   9   1    2.80    3.00
   0   9   1    2.20   13.40
   0   9   1   -1.40    1.60
  -1  -9  -1   16.10    1.00
  -1  -9  -1   16.30    1.70
  -1  -9  -1   20.80   17.20
   1   9   1   16.10    4.90
   1   9   1   18.20    2.70
   1   9   1   11.60   18.20
  -2  -9  -1   32.40    1.80
  -2  -9  -1   37.90    2.70
  -2  -9  -1   10.70   18.70
   2   9   1   36.10   17.90
   2   9   1   33.30    2.70
   2   9   1   40.30    5.70
  -3  -9  -1  310.37   10.90
  -3  -9  -1  274.57   52.49
  -3  -9  -1  300.37    9.80
   3   9   1  298.57   14.40
   3   9   1  264.17   50.99
  -4  -9  -1   26.20   24.30
  -4  -9  -1   28.80    2.50
   4   9   1   37.40    6.90
   4   9   1   16.00   19.40
  -5  -9  -1  588.34   19.50
  -5  -9  -1  597.54   18.60
   5   9   1  587.54   23.90
   5   9   1  624.64   84.79
  -6  -9  -1  418.16   13.90
  -6  -9  -1  423.16   14.80
   6   9   1  367.46   71.49
   6   9   1  413.66   18.90
  -7  -9  -1   68.29    4.00
  -7  -9  -1   76.49    4.60
   7   9   1   70.19    7.60
  -8  -9  -1  213.48    9.30
   8   9   1  228.08   13.00
  -9  -9  -1   22.60    2.60
   9   9   1   26.00    4.60
   9   9   1   34.30    5.20
 -10  -9  -1    5.00    1.50
  10   9   1    3.20    2.60
   8 -10  -1   59.59    4.10
  -8  10   1   48.90    6.00
   7 -10  -1    8.00    1.90
  -7  10   1   10.30    3.60
   6 -10  -1   14.40    2.20
   6 -10  -1   11.80    2.30
  -6  10   1   16.10    4.00
   5 -10  -1  130.89    6.20
   5 -10  -1  128.49    6.30
  -5  10   1  125.59    8.40
   4 -10  -1  -44.40   24.90
   4 -10  -1    3.90    1.50
   4 -10  -1    2.80    1.20
  -4  10   1    3.10    2.30
  -4  10   1  -11.40   21.30
   3 -10  -1  270.77   72.49
   3 -10  -1  370.66   13.00
  -3  10   1  372.26   14.30
  -3  10   1  366.76   14.70
  -3  10   1  345.17   86.49
   2 -10  -1   36.80    2.80
   2 -10  -1   38.80   35.40
  -2  10   1   40.60    4.30
  -2  10   1   36.50   26.10
  -2  10   1   36.30    5.00
   1 -10  -1  358.76   12.40
   1 -10  -1  255.27   58.19
  -1  10   1  352.06   14.60
  -1  10   1  354.76   13.20
  -1  10   1  336.27   57.89
   0 -10  -1  128.19    5.90
   0 -10  -1  223.88   42.20
   0  10   1  135.09    6.70
   0  10   1  111.99   39.90
   0  10   1  135.49    8.70
  -1 -10  -1  121.99   32.30
  -1 -10  -1  164.18    6.80
  -1 -10  -1  160.28    5.20
   1  10   1  128.19   38.20
   1  10   1  155.78    7.00
   1  10   1  154.88    9.70
  -2 -10  -1  119.69   37.40
  -2 -10  -1   97.09    4.90
  -2 -10  -1  101.39    3.80
   2  10   1   94.79    8.20
   2  10   1   40.50   26.00
   2  10   1   91.59    4.80
  -3 -10  -1   49.20    3.30
  -3 -10  -1   50.59    2.60
  -3 -10  -1   15.50   26.70
   3  10   1   43.20    6.80
   3  10   1   26.30   23.40
   3  10   1   48.90    2.90
  -4 -10  -1  339.27   12.00
  -4 -10  -1  232.08   59.89
   4  10   1  251.77   58.49
   4  10   1  328.27   16.10
  -5 -10  -1  184.38    7.80
  -5 -10  -1  174.58    6.80
   5  10   1  162.58   11.70
   5  10   1  193.28   53.59
  -6 -10  -1   50.29    3.20
  -6 -10  -1   50.09    3.70
   6  10   1   48.40    7.90
  -7 -10  -1   42.10    3.50
  -7 -10  -1   40.30    3.10
   7  10   1   32.20    6.80
  -8 -10  -1  312.07   12.20
  -8 -10  -1  304.97   11.50
   8  10   1  292.57   15.80
  -9 -10  -1  359.86   13.30
  -9 -10  -1  358.16   13.90
   9  10   1  347.27   17.30
   7 -11  -1  166.38    7.20
   7 -11  -1  134.39    6.90
  -7  11   1  135.59    9.10
   6 -11  -1   11.40    2.20
   6 -11  -1   19.40    4.20
  -6  11   1   16.70    4.40
   5 -11  -1   81.99    4.90
   5 -11  -1   84.19    5.00
  -5  11   1   85.49    6.80
  -4  11   1    0.70    4.10
  -4  11   1    0.80    3.20
   3 -11  -1   20.70    2.30
  -3  11   1   22.40    4.90
  -3  11   1   21.80    4.00
   2 -11  -1  438.96   15.20
   2 -11  -1  504.55   79.19
  -2  11   1  431.26   17.50
  -2  11   1  428.16   16.20
   1 -11  -1   63.69    3.90
   1 -11  -1   24.10   36.30
  -1  11   1   56.39    6.70
  -1  11   1   63.09    5.00
  -1  11   1   19.80   21.60
   0 -11  -1  201.08    8.20
   0 -11  -1  200.88   57.19
   0  11   1  218.38   49.99
   0  11   1  195.28    8.80
   0  11   1  196.08   11.20
  -1 -11  -1  -37.80   23.10
  -1 -11  -1   15.40    1.90
   1  11   1   49.99   19.20
   1  11   1   17.00    5.20
   1  11   1   16.30    2.70
  -2 -11  -1  385.96   81.69
  -2 -11  -1  467.95   16.00
  -2 -11  -1  484.55   14.20
   2  11   1  463.85   20.00
   2  11   1  367.36   62.29
   2  11   1  459.75   15.60
  -3 -11  -1  335.67   12.30
  -3 -11  -1  339.17   10.80
  -3 -11  -1  224.38   65.99
   3  11   1  314.87   61.69
   3  11   1  337.07   11.40
   3  11   1  323.47   16.50
  -4 -11  -1    6.80   30.20
  -4 -11  -1    2.00    1.00
   4  11   1    3.50    5.10
  -5 -11  -1   17.20    2.30
   5  11   1   18.40    6.10
  -6 -11  -1    5.60    1.60
  -6 -11  -1    3.50    1.30
   6  11   1    6.50    4.70
  -7 -11  -1   20.80    2.70
   7  11   1   28.20    6.20
  -8 -11  -1   49.80    4.00
  -8 -11  -1   52.69    3.70
   8  11   1   59.89    7.60
   6 -12  -1   91.59    5.40
  -6  12   1   85.69    7.50
  -6  12   1   88.89    7.30
   5 -12  -1    1.70    1.30
  -5  12   1   -1.30    3.60
  -5  12   1    2.20    2.80
   4 -12  -1  148.99    7.20
  -4  12   1  147.59    9.90
  -4  12   1  155.88    9.00
   3 -12  -1   46.80    3.50
  -3  12   1   41.80    6.70
  -3  12   1   36.80    4.90
   2 -12  -1   -0.10    0.80
  -2  12   1    2.60    2.80
  -2  12   1   -0.10    3.90
   1 -12  -1   22.30    2.80
  -1  12   1   27.50    4.20
  -1  12   1   28.50    6.00
   0 -12  -1    0.40    0.90
   0  12   1    3.30    1.90
   0  12   1   -0.70    4.20
  -1 -12  -1  164.98    7.50
   1  12   1  183.28    8.10
   1  12   1  148.19   11.00
  -2 -12  -1  152.68    7.20
  -2 -12  -1  153.78    5.50
   2  12   1  162.18    7.00
   2  12   1  152.68   11.50
  -3 -12  -1   22.50    2.50
  -3 -12  -1   25.40    1.80
   3  12   1   30.00    7.30
  -4 -12  -1   29.60    2.10
   4  12   1   31.60    8.10
  -5 -12  -1  101.49    5.60
  -5 -12  -1   84.79    4.30
   5  12   1  107.69   10.70
  -6 -12  -1  307.27   12.30
  -6 -12  -1  324.97   11.30
   6  12   1  285.17   16.80
  -7 -12  -1  107.39    6.30
  -7 -12  -1  118.69    5.60
   7  12   1  102.89   10.00
  -8 -12  -1   58.59    4.00
   8  12   1   80.49   10.30
   5 -13  -1  196.28    8.90
  -5  13   1  197.28   10.80
  -5  13   1  187.28   11.60
   4 -13  -1   80.99    5.20
  -4  13   1   82.89    6.80
  -4  13   1   78.09    8.60
   3 -13  -1   17.20    2.80
  -3  13   1   15.70    3.90
  -3  13   1   15.80    5.30
   2 -13  -1    9.50    1.90
  -2  13   1   13.10    5.50
  -2  13   1   17.30    3.90
   1 -13  -1   95.59    5.60
  -1  13   1  113.09    7.00
  -1  13   1   91.79    9.30
   0 -13  -1  167.68    7.80
   0  13   1  169.48    8.40
   0  13   1  142.89   11.50
  -1 -13  -1   84.79    5.10
   1  13   1   92.29    5.40
   1  13   1   80.59    9.40
  -2 -13  -1  170.28    8.10
   2  13   1  154.28   12.80
   2  13   1  189.88    7.70
  -3 -13  -1   29.70    3.00
  -3 -13  -1   36.40    2.10
   3  13   1   36.50    8.00
  -4 -13  -1   16.20    2.40
  -4 -13  -1   21.10    1.80
   4  13   1   15.80    6.40
  -5 -13  -1   14.80    1.80
  -5 -13  -1   13.00    2.50
   5  13   1   18.90    6.50
  -6 -13  -1   19.10    2.60
   3 -14  -1   15.00    2.70
  -3  14   1   19.40    6.30
   2 -14  -1   25.30    3.00
  -2  14   1   30.70    7.10
   1 -14  -1   75.99    5.10
  -1  14   1   81.59    9.90
  -1  14   1   93.09    6.50
   0 -14  -1    1.40    1.30
   0  14   1    5.60    5.90
   0  14   1   10.70    3.90
  -1 -14  -1   33.70    3.30
   1  14   1   40.50    8.70
  -2 -14  -1    4.00    1.60
   2  14   1    2.70    6.20
  -3 -14  -1  115.99    6.50
   3  14   1  114.79   11.80
  -4 -14  -1  181.08    8.70
   4  14   1  179.78   14.10
  -5 -14  -1  103.09    5.80
  -5 -14  -1  105.89    6.30
   5  14   1   92.79   10.90
  -4 -14   2   25.60    2.40
   3  14  -2   12.40    6.20
  -3 -14   2    4.60    1.70
   2  14  -2  251.37   16.00
  -2 -14   2  241.48   10.60
   1  14  -2  503.05   23.50
   1  14  -2  515.95   17.60
  -1 -14   2  480.05   17.90
   0  14  -2   60.89   10.00
   0 -14   2   42.80    3.90
  -1  14  -2   87.19    5.60
  -1  14  -2   69.49   10.30
   1 -14   2   59.09    4.60
  -2  14  -2  139.79   12.10
  -2  14  -2  167.18    8.50
   2 -14   2  132.09    7.40
  -3  14  -2  265.17   15.00
  -3  14  -2  280.57   12.70
   3 -14   2  245.18   11.10
   5  13  -2   16.20    5.40
   4  13  -2  112.69   11.00
  -4 -13   2  112.49    6.10
  -4 -13   2  108.69    5.10
   3  13  -2  184.98    6.80
   3  13  -2  158.28   12.70
  -3 -13   2  157.28    6.40
  -3 -13   2  146.39    7.60
   2  13  -2   22.30    7.20
  -2 -13   2   28.50    2.00
  -2 -13   2   21.80    2.70
   1  13  -2   81.39    4.80
   1  13  -2   64.39    9.90
  -1 -13   2   67.59    4.70
  -1 -13   2   78.69    4.50
   0  13  -2  165.98   13.40
   0  13  -2  179.18    8.50
   0 -13   2  172.18    8.00
  -1  13  -2   11.90    6.30
   1 -13   2   10.10    2.10
  -2  13  -2  340.67   14.30
  -2  13  -2  347.17   17.40
   2 -13   2  328.77   13.10
  -3  13  -2   54.49    5.30
  -3  13  -2   42.80    7.70
   3 -13   2   42.90    3.80
  -4  13  -2   17.90    3.60
   4 -13   2    8.60    2.10
  -5  13  -2   -0.10    5.00
  -5  13  -2   10.40    3.10
   5 -13   2    2.80    1.40
  -7 -12   2   65.09    4.50
  -7 -12   2   63.89    4.20
   6  12  -2   73.89    8.70
  -6 -12   2   68.79    4.20
  -6 -12   2   61.19    4.50
   5  12  -2  233.68   14.20
  -5 -12   2  233.28    8.90
  -5 -12   2  225.38    9.60
   4  12  -2  481.05   22.30
  -4 -12   2  498.75   19.20
   3  12  -2  108.29    4.60
  -3 -12   2   90.59    5.30
  -3 -12   2   91.39    4.40
   2  12  -2    1.00    5.10
  -2 -12   2    2.00    1.20
   1  12  -2  115.89    6.00
   1  12  -2   95.19    9.80
  -1 -12   2  105.19    5.70
  -1 -12   2  109.19    4.30
   0  12  -2  433.06   19.60
   0  12  -2  435.76   16.00
   0 -12   2  429.66   13.10
   0 -12   2  427.66   15.40
  -1  12  -2   35.60    3.90
  -1  12  -2   30.20    6.80
   1 -12   2   30.20    3.20
  -2  12  -2  307.87   15.20
  -2  12  -2  301.67   13.00
   2 -12   2  312.47   12.00
  -3  12  -2  945.31   32.50
  -3  12  -2  949.80   34.70
   3 -12   2  903.61   29.70
  -4  12  -2  106.29    7.40
   4 -12   2  105.69    5.90
  -5  12  -2   29.90    4.60
  -5  12  -2   19.20    4.80
   5 -12   2   20.20    2.60
  -6  12  -2    8.00    2.80
  -6  12  -2    2.70    4.10
   6 -12   2    7.60    2.30
  -8 -11   2   23.40    2.80
   7  11  -2  182.28   11.60
  -7 -11   2  176.68    7.80
  -7 -11   2  177.28    8.20
   6  11  -2  112.09    9.60
  -6 -11   2  113.19    5.90
   5  11  -2   23.60    6.00
  -5 -11   2   26.60    2.40
  -5 -11   2   19.80    2.50
   4  11  -2  391.46   18.90
  -4 -11   2  391.56   14.00
  -4 -11   2  391.26   13.20
   3  11  -2  679.93   99.39
   3  11  -2  736.33   23.00
   3  11  -2  735.73   28.70
  -3 -11   2  736.73  105.09
  -3 -11   2  752.32   23.90
   2  11  -2   45.60    3.40
   2  11  -2   16.30   29.00
   2  11  -2   53.59    7.90
  -2 -11   2    0.70   36.00
  -2 -11   2   47.20    2.60
  -2 -11   2   45.70    3.30
   1  11  -2  130.09    6.60
   1  11  -2  135.29   10.20
   1  11  -2   84.59   43.40
  -1 -11   2  129.09    6.10
  -1 -11   2   85.59   49.00
  -1 -11   2  127.09    4.90
   0  11  -2    2.20    1.90
   0  11  -2    9.10   20.50
   0  11  -2   -1.00    4.30
   0 -11   2  -34.90   26.90
  -1  11  -2   11.00    4.70
  -1  11  -2   23.40   23.20
  -1  11  -2    7.20    2.40
   1 -11   2   12.00    2.10
   1 -11   2   23.10   27.00
  -2  11  -2  -13.40   21.10
   2 -11   2  -20.90   37.70
  -3  11  -2   41.40   26.30
   3 -11   2   52.39   33.70
  -4  11  -2    2.50    2.60
   4 -11   2    6.30    2.50
  -5  11  -2  151.18    9.00
  -5  11  -2  166.18    9.30
   5 -11   2  157.38    7.50
  -6  11  -2  398.96   15.90
  -6  11  -2  389.06   16.50
   6 -11   2  377.66   14.50
  -7  11  -2  181.48    9.80
  -7  11  -2  175.18   10.20
   7 -11   2  179.88    8.50
   8  10  -2   13.00    4.20
  -8 -10   2   17.30    2.40
  -8 -10   2   22.30    3.40
   7  10  -2  165.98   10.90
  -7 -10   2  169.28    7.60
  -7 -10   2  166.28    7.40
   6  10  -2   41.00    6.40
  -6 -10   2   43.30    3.30
  -6 -10   2   40.40    3.10
   5  10  -2   26.50   41.50
   5  10  -2   87.79    8.40
  -5 -10   2   87.29    4.50
  -5 -10   2   86.69    4.80
   4  10  -2   86.19    8.90
   4  10  -2   78.79   44.60
  -4 -10   2   95.69    4.50
  -4 -10   2   55.09   36.20
  -4 -10   2   96.79    5.00
   3  10  -2   27.10    2.30
   3  10  -2   -1.60   25.00
   3  10  -2   29.20    6.20
  -3 -10   2   36.50    2.70
  -3 -10   2    6.60   30.00
   2  10  -2   91.99    8.80
   2  10  -2   88.89    4.60
   2  10  -2   57.29   36.40
  -2 -10   2   90.39    4.70
  -2 -10   2   91.89    4.00
  -2 -10   2   72.79   30.80
   1  10  -2  464.55   19.70
   1  10  -2  477.35   16.20
   1  10  -2  430.06   71.89
  -1 -10   2  441.96   76.99
  -1 -10   2  475.85   14.60
  -1 -10   2  495.05   16.10
   0  10  -2 1285.97   40.50
   0  10  -2 1346.77   43.30
   0  10  -2 1331.87  122.49
   0 -10   2 1370.06  127.99
   0 -10   2 1329.37   38.20
   0 -10   2 1335.87   39.90
  -1  10  -2  599.34   82.29
  -1  10  -2  724.03   25.80
  -1  10  -2  724.63   23.70
   1 -10   2  749.13   22.90
   1 -10   2  709.53   20.80
   1 -10   2  612.24   84.49
  -2  10  -2   68.19    5.10
  -2  10  -2   66.99   30.90
   2 -10   2   85.59   31.20
   2 -10   2   70.59    4.10
  -3  10  -2   38.50    4.30
  -3  10  -2    6.30   22.70
   3 -10   2   30.90    2.70
   3 -10   2   24.10   28.30
  -4  10  -2  287.87   12.40
  -4  10  -2  364.26   60.29
   4 -10   2  230.98   62.79
   4 -10   2  282.47   11.00
  -5  10  -2  220.88   10.40
  -5  10  -2  208.48   58.29
  -5  10  -2  214.08   10.50
   5 -10   2   91.29   57.19
   5 -10   2  227.78    9.20
  -6  10  -2  125.99    7.60
  -6  10  -2  119.99    7.80
   6 -10   2  130.89    6.50
  -7  10  -2  114.49    8.00
  -7  10  -2  126.89    7.60
   7 -10   2  119.49    6.40
  -8  10  -2   32.20    5.00
   8 -10   2   30.40    3.20
   9   9  -2   35.90    4.40
   9   9  -2   39.80    5.00
  -9  -9   2   33.30    3.20
   8   9  -2   67.09    6.60
  -8  -9   2   64.09    4.20
  -8  -9   2   69.39    4.30
   7   9  -2  362.36   17.10
  -7  -9   2  372.96   13.80
  -7  -9   2  390.66   13.60
   6   9  -2 1000.60  120.99
   6   9  -2  926.41   33.60
  -6  -9   2  923.51   29.10
  -6  -9   2  940.21   28.90
   5   9  -2  651.33   25.90
   5   9  -2  638.34   93.09
  -5  -9   2  710.93   21.50
  -5  -9   2  684.53   21.80
   4   9  -2   77.39    8.00
   4   9  -2   45.50   33.20
  -4  -9   2   41.40   30.70
  -4  -9   2   72.29    4.00
  -4  -9   2   72.99    3.70
   3   9  -2    3.30    4.20
   3   9  -2    6.20    1.20
  -3  -9   2    4.60    1.20
  -3  -9   2   -2.00   20.50
  -3  -9   2    4.10    1.20
   2   9  -2  111.69    8.80
   2   9  -2  115.49    5.30
   2   9  -2  111.29   43.60
  -2  -9   2   64.79   33.50
  -2  -9   2  125.19    5.90
   1   9  -2    8.00    1.90
   1   9  -2    6.00   19.10
   1   9  -2    8.10    4.40
  -1  -9   2    9.50    1.20
  -1  -9   2    2.40   23.20
  -1  -9   2   12.00    2.00
   0   9  -2   86.09    7.10
   0   9  -2   77.99    4.70
   0   9  -2   70.29   32.10
   0  -9   2   76.89    4.10
   0  -9   2   78.09    3.20
   0  -9   2   66.89   32.00
  -1   9  -2  185.58   50.39
  -1   9  -2  173.18    8.00
  -1   9  -2  175.88    9.40
   1  -9   2  206.68   51.69
   1  -9   2  179.28    5.80
   1  -9   2  187.18    7.30
  -2   9  -2   25.30   24.70
  -2   9  -2   19.80    4.10
  -2   9  -2   19.60    3.00
   2  -9   2   -7.80   24.00
   2  -9   2   18.90    2.00
  -3   9  -2  315.07   12.60
  -3   9  -2  326.27   58.79
   3  -9   2  370.16   62.09
   3  -9   2  317.07   11.50
  -4   9  -2  487.95   74.19
  -4   9  -2  458.45   17.30
   4  -9   2  592.74   76.79
   4  -9   2  471.95   16.10
  -5   9  -2   49.20    5.00
  -5   9  -2   60.19    5.10
  -5   9  -2   81.69   34.40
   5  -9   2   56.49    3.80
   5  -9   2   54.79   31.80
  -6   9  -2    4.10    2.80
   6  -9   2    8.50   41.50
   6  -9   2    3.10    1.30
   6  -9   2    4.30    1.50
  -7   9  -2  114.99    7.70
   7  -9   2  110.19    6.00
   7  -9   2  123.89    5.30
  -8   9  -2  190.18   10.50
   8  -9   2  191.98    8.90
   8  -9   2  226.48    8.00
  -9   9  -2  118.99    8.20
   9  -9   2  123.59    6.60
  10   8  -2    3.10    2.10
   9   8  -2   14.90    3.00
   9   8  -2   13.00    3.00
  -9  -8   2   11.40    2.40
   8   8  -2   11.10    3.80
  -8  -8   2   11.30    2.10
   7   8  -2  -16.60   29.80
   7   8  -2   26.70    5.30
   6   8  -2  -19.10   27.00
   6   8  -2    0.30    2.90
   6   8  -2   -4.40   22.40
  -6  -8   2    0.10    0.80
  -6  -8   2    1.90    1.10
   5   8  -2   35.60   29.40
   5   8  -2   15.80    4.30
   5   8  -2   13.60   40.00
  -5  -8   2   11.50    1.60
  -5  -8   2   12.10    2.00
   4   8  -2  155.28   47.00
   4   8  -2  168.18   10.30
  -4  -8   2  160.38   43.20
  -4  -8   2  170.68    6.50
  -4  -8   2  165.28    6.70
   3   8  -2  751.12   89.89
   3   8  -2  687.63   21.70
  -3  -8   2  791.52   89.39
  -3  -8   2  724.03   21.70
  -3  -8   2  712.13   22.20
   2   8  -2 1383.46   43.80
   2   8  -2 1317.17  114.19
   2   8  -2 1322.67   39.80
  -2  -8   2 1320.77  117.49
  -2  -8   2 1375.06   40.00
   1   8  -2  349.47   15.00
   1   8  -2  340.67   12.10
   1   8  -2  341.67   56.29
  -1  -8   2  356.26   11.90
  -1  -8   2  352.56   56.89
  -1  -8   2  359.86   11.00
   0   8  -2  200.78    8.20
   0   8  -2  159.88   41.60
   0   8  -2  198.38   10.10
   0  -8   2  238.48   54.79
   0  -8   2  212.68    7.70
  -1   8  -2  349.17   12.70
  -1   8  -2  282.27   52.39
  -1   8  -2  355.86   13.90
   1  -8   2  312.47   55.29
   1  -8   2  370.16   12.10
   1  -8   2  354.96   10.70
  -2   8  -2  704.83   23.30
  -2   8  -2  692.83   79.09
  -2   8  -2  727.73   23.70
   2  -8   2  725.73   22.50
   2  -8   2  772.22   81.69
   2  -8   2  720.43   20.90
  -3   8  -2  237.48   46.60
  -3   8  -2  262.57   11.00
   3  -8   2  291.97   53.09
   3  -8   2  270.87    9.80
  -4   8  -2  449.06   66.29
  -4   8  -2  470.35   16.90
   4  -8   2  501.75   67.49
   4  -8   2  468.65   15.80
  -5   8  -2  561.14   75.89
  -5   8  -2  618.14   21.40
   5  -8   2  580.14   80.69
   5  -8   2  629.14   20.20
   5  -8   2  629.44   19.40
  -6   8  -2   23.60    3.90
  -6   8  -2   43.80   26.90
   6  -8   2   28.00    2.60
   6  -8   2   -1.50   23.40
   6  -8   2   24.50    2.10
  -7   8  -2  127.89   47.20
  -7   8  -2  142.19    8.30
   7  -8   2  159.48   61.09
   7  -8   2  151.18    6.90
   7  -8   2  134.59    6.40
  -8   8  -2   -0.10    2.70
   8  -8   2    0.80    1.20
  -9   8  -2   95.39    7.50
   9  -8   2  100.89    5.80
   9  -8   2  130.99    5.00
 -10   8  -2   13.90    3.40
  10   7  -2   94.09    7.00
  10   7  -2   84.79    5.30
 -10  -7   2   71.79    4.90
   9   7  -2  654.33   25.40
   9   7  -2  691.83   22.40
  -9  -7   2  669.13   22.30
   8   7  -2 1005.50   31.60
   7   7  -2  275.87   13.60
   7   7  -2  279.87   70.99
   7   7  -2  268.47   83.99
  -7  -7   2  282.87   10.50
  -7  -7   2  293.77   10.60
   6   7  -2   18.70   23.00
   6   7  -2   30.00   29.90
   6   7  -2   31.80    4.90
  -6  -7   2   37.30    2.70
  -6  -7   2   38.30    2.70
   5   7  -2  153.58    9.30
   5   7  -2  166.68   55.69
   5   7  -2  132.89   49.00
  -5  -7   2  151.58    6.10
  -5  -7   2  152.58    6.20
   4   7  -2  162.88   44.00
  -4  -7   2  208.98    7.60
  -4  -7   2  216.88    7.90
  -4  -7   2  254.47   61.19
   3   7  -2    8.10    4.30
   3   7  -2    7.60    1.30
  -3  -7   2    7.00    1.30
  -3  -7   2    3.40   18.00
  -3  -7   2    8.20    1.40
   2   7  -2  282.77   10.10
   2   7  -2  298.77   13.50
   2   7  -2  277.17   58.69
  -2  -7   2  301.27   10.10
  -2  -7   2  345.77   53.79
  -2  -7   2  303.87    9.60
   1   7  -2 1256.17   39.30
   1   7  -2 1123.19   97.59
   1   7  -2 1225.78   36.70
  -1  -7   2 1287.97   36.50
  -1  -7   2 1218.38  102.39
   0   7  -2  109.09    5.30
   0   7  -2  101.99   33.60
   0   7  -2  111.29    7.10
   0  -7   2  129.49   35.10
   0  -7   2  116.19    4.10
   0  -7   2  113.49    4.70
  -1   7  -2 1228.38   37.50
  -1   7  -2 1252.67   38.20
   1  -7   2 1258.27   35.70
   1  -7   2 1276.37   36.80
   1  -7   2 1186.48   95.79
  -2   7  -2  113.49   36.20
  -2   7  -2   89.79    5.10
   2  -7   2   84.59    3.10
   2  -7   2   83.99    4.00
   2  -7   2   61.19   28.80
  -3   7  -2   59.39    4.40
  -3   7  -2   38.20   21.90
   3  -7   2   68.79    2.90
   3  -7   2   49.70   23.10
   3  -7   2   64.89    3.50
   3  -7   2   63.19    2.60
  -4   7  -2  205.68   39.70
   4  -7   2  156.48    5.40
   4  -7   2  158.78   41.80
   4  -7   2  158.08    6.00
  -5   7  -2  219.78    9.70
  -5   7  -2  216.18   51.39
  -5   7  -2  221.78    7.60
   5  -7   2  217.98    7.90
   5  -7   2  238.78    8.80
   5  -7   2  231.48   56.19
  -6   7  -2   71.79    3.20
  -6   7  -2   64.59    5.20
  -6   7  -2   64.79   28.00
   6  -7   2   62.19    3.30
   6  -7   2   94.09   30.00
   6  -7   2   66.39    4.00
  -7   7  -2  170.78    8.70
  -7   7  -2  111.99   43.10
  -7   7  -2  171.58    6.20
   7  -7   2   97.19   41.30
   7  -7   2  173.98    7.40
   7  -7   2  159.78    6.60
  -8   7  -2  854.21  108.39
  -8   7  -2  825.22   25.00
  -8   7  -2  832.02   28.10
   8  -7   2  821.42   26.40
   8  -7   2  805.62   26.50
   8  -7   2  866.31  122.49
  -9   7  -2  138.29    5.70
  -9   7  -2  120.39    8.10
   9  -7   2  130.69    6.60
   9  -7   2  145.39    5.90
 -10   7  -2   48.30    5.20
  10  -7   2   34.00    3.30
  10   6  -2    3.50    2.00
  10   6  -2    9.20    2.80
 -10  -6   2    4.20    1.60
   9   6  -2    9.40    2.40
   9   6  -2    8.80    3.10
  -9  -6   2    9.50    2.10
   8   6  -2  117.29    6.00
   8   6  -2  108.89    7.50
   8   6  -2  117.39   68.19
   8   6  -2   71.79   35.60
  -8  -6   2  109.19    5.50
   7   6  -2  158.38    7.00
   7   6  -2  143.89    8.90
   7   6  -2   95.59   39.70
  -7  -6   2  163.18    6.70
   6   6  -2  602.64   83.29
   6   6  -2  623.34   99.09
   6   6  -2  595.24   22.50
  -6  -6   2  619.84   19.30
  -6  -6   2  608.34   19.30
   5   6  -2 1019.20   34.00
   5   6  -2 1055.29  105.99
   5   6  -2  926.61  115.39
  -5  -6   2 1015.80   30.30
  -5  -6   2 1000.70   30.20
   4   6  -2   30.60   20.00
   4   6  -2   71.09    6.40
  -4  -6   2   68.49    3.40
  -4  -6   2   73.09    3.40
   3   6  -2  292.17    9.60
   3   6  -2  297.87   13.10
   3   6  -2  293.77   49.90
  -3  -6   2  333.77   54.29
  -3  -6   2  296.97    9.60
  -3  -6   2  286.37    9.80
   2   6  -2 1670.13  117.89
   2   6  -2 1689.73   49.50
   2   6  -2 1729.13   52.69
  -2  -6   2 1773.12   49.30
  -2  -6   2 1759.02   49.60
  -2  -6   2 1613.74  118.49
   1   6  -2  677.73   21.00
   1   6  -2  678.53   23.10
   1   6  -2  735.33   71.39
  -1  -6   2  672.63   20.60
  -1  -6   2  715.53   71.29
   0   6  -2   43.10    3.00
   0   6  -2   49.99   20.60
   0   6  -2   44.50    4.50
   0  -6   2   48.40    2.10
   0  -6   2   54.09   24.70
   0  -6   2   46.90    2.40
  -1   6  -2 1355.36   42.00
  -1   6  -2 1442.96   99.09
  -1   6  -2 1444.76   42.60
   1  -6   2 1540.25  100.99
   1  -6   2 1401.96   41.50
   1  -6   2 1438.46   40.60
  -2   6  -2 3940.21  113.09
  -2   6  -2 4061.99  191.88
   2  -6   2 3947.10  112.39
   2  -6   2 3664.73  111.29
   2  -6   2 4290.67  193.58
  -3   6  -2  179.48    7.60
  -3   6  -2  183.98   43.10
   3  -6   2  179.98    6.80
   3  -6   2  176.88    6.30
   3  -6   2  224.58   40.60
   3  -6   2  177.38    5.90
  -4   6  -2  227.88    7.30
  -4   6  -2  216.88    9.00
  -4   6  -2  208.78   39.70
   4  -6   2  211.88    7.50
   4  -6   2  224.48    8.20
   4  -6   2  205.18   45.60
  -5   6  -2   99.29   32.70
  -5   6  -2  103.59    7.10
  -5   6  -2  106.99    4.10
   5  -6   2  109.39    5.10
   5  -6   2  106.79    4.40
   5  -6   2   80.09   33.50
  -6   6  -2  221.58   62.99
  -6   6  -2  307.37   12.20
  -6   6  -2  312.07   10.10
   6  -6   2  317.07   11.30
   6  -6   2  297.27   78.89
   6  -6   2  310.27   10.50
  -7   6  -2  -15.50   17.30
  -7   6  -2   12.90    3.10
  -7   6  -2   15.90    1.40
   7  -6   2   12.70    1.50
   7  -6   2    8.40   25.00
   7  -6   2   13.20    1.80
  -8   6  -2   11.20    3.10
  -8   6  -2   46.10   29.50
   8  -6   2  -47.90   36.50
   8  -6   2   10.20    1.50
   8  -6   2    6.30    1.60
  -9   6  -2   71.19    3.70
  -9   6  -2   -9.30   38.30
  -9   6  -2   58.79    5.70
   9  -6   2   67.19    4.40
   9  -6   2   34.10   46.00
   9  -6   2   80.09    3.90
 -10   6  -2    7.10    1.40
 -10   6  -2    9.90    3.00
  10  -6   2    6.90    1.80
 -11   6  -2  265.87   12.40
  11  -6   2  254.37   10.70
  11   5  -2  472.05   19.00
 -11  -5   2  421.16   16.20
  10   5  -2  119.19    7.70
  10   5  -2  115.49    5.90
 -10  -5   2   99.99    5.80
   9   5  -2  333.57   19.30
   9   5  -2  330.97   12.10
  -9  -5   2  332.77   12.40
   8   5  -2  414.66   16.90
   8   5  -2  414.16   14.30
   8   5  -2  339.17   81.19
  -8  -5   2  414.96   14.30
   7   5  -2   18.00    2.50
   7   5  -2   19.00    4.10
   7   5  -2    8.00   26.70
  -7  -5   2   15.60    1.90
   6   5  -2   -1.60   20.10
   6   5  -2   14.20    3.20
  -6  -5   2   11.70    1.60
  -6  -5   2   13.90    1.60
   5   5  -2  889.81   93.89
   5   5  -2  907.71   30.20
  -5  -5   2  902.51   27.10
  -5  -5   2  900.01   27.00
   4   5  -2 2281.27   69.29
   4   5  -2 2519.55  155.88
  -4  -5   2 2271.67   66.29
  -4  -5   2 2283.57   66.29
   3   5  -2   51.29    2.40
   3   5  -2   55.99   26.30
   3   5  -2   43.80    4.90
  -3  -5   2   49.70    2.50
  -3  -5   2   55.39   23.90
  -3  -5   2   51.89    2.60
   2   5  -2  559.74   61.99
   2   5  -2  588.64   17.90
   2   5  -2  588.54   20.50
  -2  -5   2  553.04   61.89
  -2  -5   2  612.54   18.40
  -2  -5   2  607.14   17.70
   1   5  -2   29.40    2.00
   1   5  -2   31.60    4.10
   1   5  -2   29.70   19.00
  -1  -5   2   29.00    1.60
  -1  -5   2   33.40   17.30
   0   5  -2   65.89    4.40
   0   5  -2   60.59    3.20
   0   5  -2   64.89   22.90
   0  -5   2  113.89   30.40
   0  -5   2   53.49    2.30
   0  -5   2   64.99    2.80
  -1   5  -2  184.88   31.70
  -1   5  -2  176.68    6.70
   1  -5   2  161.98    5.70
   1  -5   2  175.38    5.60
   1  -5   2  221.78   33.90
   1  -5   2  172.98    6.10
  -2   5  -2    1.60    1.30
  -2   5  -2    4.90    9.10
   2  -5   2    5.20    0.50
   2  -5   2    3.70    0.80
   2  -5   2    4.20    0.80
   2  -5   2    5.60    9.30
  -3   5  -2  288.77   43.00
  -3   5  -2  285.47   10.50
  -3   5  -2  301.57    9.30
   3  -5   2  292.97    9.40
   3  -5   2  318.27   43.90
   3  -5   2  299.67   10.00
  -4   5  -2  399.86   12.00
  -4   5  -2  390.96   13.50
  -4   5  -2  368.26   50.99
   4  -5   2  381.66   12.10
   4  -5   2  370.26   51.19
   4  -5   2  396.06   12.90
  -5   5  -2 1614.24   48.90
  -5   5  -2 1651.73  122.59
  -5   5  -2 1719.13   47.70
   5  -5   2 1644.84   48.30
   5  -5   2 1624.14  118.29
   5  -5   2 1610.44   47.50
  -6   5  -2  189.88    6.60
  -6   5  -2  185.78   51.29
  -6   5  -2  177.18   11.50
   6  -5   2  187.48    6.90
   6  -5   2  185.88    8.30
   6  -5   2  251.37   46.30
  -7   5  -2   62.09   31.40
  -7   5  -2   40.70    4.00
  -7   5  -2   42.50    2.40
   7  -5   2   40.80    3.10
   7  -5   2   29.20   26.60
   7  -5   2   41.40    2.60
  -8   5  -2   32.60    4.00
  -8   5  -2   34.80    2.30
   8  -5   2   33.90    2.60
   8  -5   2  -30.40   26.20
   8  -5   2   35.60    3.00
  -9   5  -2  172.38    6.80
  -9   5  -2  153.38   75.19
  -9   5  -2  166.58    8.70
   9  -5   2  178.48    7.20
   9  -5   2  171.08   95.79
   9  -5   2  174.88    7.70
 -10   5  -2   12.90    1.70
 -10   5  -2   14.10    3.50
  10  -5   2   10.20    2.10
 -11   5  -2   36.20    4.50
 -11   5  -2   30.00    2.60
  11  -5   2   33.80    3.10
  11   4  -2  259.77   12.50
  11   4  -2  228.38    9.20
 -11  -4   2  225.08   10.00
  10   4  -2  226.88    8.80
  10   4  -2  210.48   11.20
 -10  -4   2  212.98    9.10
   9   4  -2  -17.80   40.20
   9   4  -2   35.30   39.90
   8   4  -2  145.29    8.30
   8   4  -2   98.39   35.20
   8   4  -2  159.18    6.70
  -8  -4   2  144.69    6.50
   7   4  -2    5.90    1.80
   7   4  -2   -1.20   20.70
   7   4  -2   20.60   17.50
   7   4  -2    8.00    2.50
  -7  -4   2    3.00    1.10
   6   4  -2  181.48   47.40
   6   4  -2  196.28    7.60
  -6  -4   2  189.48    7.90
   5   4  -2 1168.38   37.60
   5   4  -2 1287.57  107.79
  -5  -4   2 1176.48   35.00
  -5  -4   2 1192.98   34.90
   4   4  -2   83.59   28.40
   4   4  -2   87.09    5.70
   4   4  -2   87.79    3.30
  -4  -4   2   84.49    4.00
  -4  -4   2   90.09    3.80
   3   4  -2   54.19   22.10
   3   4  -2   66.89    4.90
   3   4  -2   63.79    2.80
  -3  -4   2   68.79    2.90
  -3  -4   2   68.09    2.90
  -3  -4   2   70.59    3.00
   2   4  -2 1827.02  112.99
   2   4  -2 1968.20   56.99
   2   4  -2 1894.41   54.59
  -2  -4   2 1923.81   54.59
  -2  -4   2 1960.40  117.09
  -2  -4   2 1899.01   54.69
   1   4  -2 5516.25  223.78
   1   4  -2 5621.04  160.28
  -1  -4   2 5757.02  227.18
   0   4  -2  186.78   28.40
   0   4  -2  157.28    5.40
   0   4  -2  157.88    5.80
   0   4  -2  164.98    6.70
   0  -4   2  128.69   24.60
   0  -4   2  159.88    5.40
  -1   4  -2   59.59   19.10
  -1   4  -2   60.89    3.10
  -1   4  -2   60.09    2.70
   1  -4   2   62.29    2.60
   1  -4   2   58.09    2.40
   1  -4   2   62.19    2.40
   1  -4   2   52.69   19.00
  -2   4  -2  444.56   15.20
  -2   4  -2  533.05   50.49
  -2   4  -2  519.95   16.30
   2  -4   2  548.85   15.20
   2  -4   2  540.15   15.80
   2  -4   2  500.65   15.00
   2  -4   2  529.45   49.70
   2  -4   2  524.65   15.20
  -3   4  -2  175.88   31.00
  -3   4  -2  152.48    6.20
  -3   4  -2  153.08    5.10
   3  -4   2  113.09   28.00
   3  -4   2  161.88    5.30
   3  -4   2  149.99    5.20
  -4   4  -2   19.20    1.20
  -4   4  -2   10.10   12.60
  -4   4  -2   16.10    2.30
   4  -4   2   17.00    1.60
   4  -4   2   16.20    1.20
   4  -4   2   23.80   14.80
  -5   4  -2   98.89    4.30
  -5   4  -2   97.39    5.20
  -5   4  -2   87.09   29.80
   5  -4   2  105.59   33.30
   5  -4   2  103.69    4.20
   5  -4   2  109.19    4.70
  -6   4  -2  648.14   19.70
  -6   4  -2  656.33   21.20
  -6   4  -2  697.03   80.79
   6  -4   2  653.03   20.60
   6  -4   2  627.44   20.00
   6  -4   2  728.13   76.79
  -7   4  -2    2.50    0.80
  -7   4  -2    4.40    2.50
  -7   4  -2    2.90   18.70
   7  -4   2  -20.30   16.50
   7  -4   2    1.30    0.70
   7  -4   2    0.90    1.00
  -8   4  -2  425.76   15.40
  -8   4  -2  422.36   13.80
  -8   4  -2  423.26   74.39
   8  -4   2  412.86   14.40
   8  -4   2  445.76   73.79
   8  -4   2  429.26   14.70
  -9   4  -2   43.50    4.40
  -9   4  -2   46.00   38.90
  -9   4  -2   42.20    2.90
   9  -4   2   44.70    3.40
   9  -4   2   26.40   40.40
 -10   4  -2   45.00    3.20
 -10   4  -2   40.80    4.60
  10  -4   2   44.30    3.60
  10  -4   2   58.19    3.40
 -11   4  -2    4.60    1.50
 -11   4  -2    5.00    2.20
  11  -4   2    4.90    1.40
  11   3  -2  390.76   13.60
  11   3  -2  409.46   17.20
 -11  -3   2  379.16   14.60
  10   3  -2    6.40    2.30
  10   3  -2    9.70    1.90
 -10  -3   2    6.50    1.90
   9   3  -2   34.40    3.90
   9   3  -2   11.90   42.90
   9   3  -2   30.50   35.90
   9   3  -2   31.90    2.90
  -9  -3   2   32.60    2.80
   8   3  -2  664.73  105.49
   8   3  -2  767.82   23.70
   8   3  -2  766.02   26.40
   8   3  -2  758.52   91.09
  -8  -3   2  780.42   24.10
   7   3  -2  962.10   99.19
   7   3  -2 1012.90   30.20
   7   3  -2  992.90   32.50
   7   3  -2 1042.40  114.59
  -7  -3   2 1001.60   30.30
   6   3  -2  111.59    4.90
   6   3  -2  120.39   44.40
   6   3  -2   99.79   34.80
   6   3  -2  103.29    6.20
  -6  -3   2  100.39    4.60
  -6  -3   2  102.09    4.10
   5   3  -2  159.18   50.49
   5   3  -2  109.19   34.50
   5   3  -2  133.59    7.00
  -5  -3   2  129.59    5.20
  -5  -3   2  141.39    4.80
   4   3  -2  208.78    9.00
   4   3  -2  205.58   38.50
   4   3  -2  211.28    6.90
   4   3  -2  288.27   49.80
  -4  -3   2  204.68    7.20
  -4  -3   2  217.78    7.10
   3   3  -2   13.50    1.00
   3   3  -2    4.00    9.80
   3   3  -2    4.70   13.10
   3   3  -2   12.90    2.60
  -3  -3   2   12.00    1.00
  -3  -3   2   12.00    1.00
  -3  -3   2   11.40    1.10
   2   3  -2  245.18    7.80
   2   3  -2  254.97    8.10
   2   3  -2  214.18   34.10
   2   3  -2  263.17    9.80
  -2  -3   2  271.67    8.10
  -2  -3   2  247.48    7.90
  -2  -3   2  264.47    8.20
  -2  -3   2  246.38   35.40
   1   3  -2  670.13   20.30
   1   3  -2  693.63   20.70
   1   3  -2  730.73   22.10
   1   3  -2  672.73   58.69
  -1  -3   2  698.03   20.80
  -1  -3   2  700.83   20.40
  -1  -3   2  763.12   59.09
  -1  -3   2  733.43   20.50
   0   3  -2 2615.74   71.69
   0   3  -2 2579.14   70.99
   0   3  -2 2254.17   70.39
   0   3  -2 2552.04  128.39
   0  -3   2 2495.85   71.19
   0  -3   2 2502.85   70.89
  -1   3  -2  817.02   54.89
  -1   3  -2  804.92   23.40
  -1   3  -2  818.02   23.20
  -1   3  -2  736.93   22.70
   1  -3   2  801.32   23.00
   1  -3   2  835.42   55.09
   1  -3   2  750.42   22.80
  -2   3  -2 1082.19   68.89
  -2   3  -2 1040.50   30.10
  -2   3  -2 1003.90   29.40
  -2   3  -2 1032.10   29.40
   2  -3   2 1121.39   67.69
   2  -3   2 1006.80   29.20
   2  -3   2  962.90   29.20
   2  -3   2 1014.50   29.70
  -3   3  -2   80.29    3.40
  -3   3  -2   62.49   19.60
  -3   3  -2   92.09    3.30
   3  -3   2   88.69    3.20
   3  -3   2  105.49    3.50
   3  -3   2  103.79   20.30
   3  -3   2   88.79    4.10
  -4   3  -2  155.08    5.10
  -4   3  -2  149.09    6.00
  -4   3  -2  141.89   33.50
   4  -3   2  139.69    5.10
   4  -3   2  148.89    5.70
   4  -3   2  149.49   27.90
  -5   3  -2   63.19    2.70
  -5   3  -2   58.39    3.70
  -5   3  -2   52.09   22.50
   5  -3   2   69.19   23.30
   5  -3   2   61.39    2.90
   5  -3   2   59.39    3.30
  -6   3  -2   31.60    2.00
  -6   3  -2   17.30   16.20
  -6   3  -2   29.50    3.10
   6  -3   2   29.50    2.50
   6  -3   2   25.00   19.30
   6  -3   2   32.90    2.20
  -7   3  -2   41.80    2.50
  -7   3  -2   41.80    3.60
  -7   3  -2   42.80   26.60
   7  -3   2   40.70   25.60
   7  -3   2   46.80    2.90
   7  -3   2   38.40    3.00
  -8   3  -2   58.39   29.80
  -8   3  -2   92.89    4.30
  -8   3  -2  100.79    5.60
   8  -3   2   92.59    4.80
   8  -3   2   97.79    5.10
   8  -3   2  138.59   48.10
  -9   3  -2  513.05   86.79
  -9   3  -2  582.14   19.90
  -9   3  -2  583.74   18.60
   9  -3   2  630.34   88.69
   9  -3   2  580.74   19.70
   9  -3   2  582.44   19.40
 -10   3  -2  130.59    6.00
 -10   3  -2  128.49    7.10
  10  -3   2  131.49    6.50
  10  -3   2  135.19    6.60
 -11   3  -2   27.40    3.10
 -11   3  -2   37.90    4.00
  11  -3   2   35.30    3.10
  11   2  -2   56.99    5.30
  11   2  -2   53.09    3.50
  10   2  -2   18.90    3.20
 -10  -2   2   11.30    2.10
 -10  -2   2    9.20    2.10
   9   2  -2   64.09   33.80
   9   2  -2   95.19    4.60
   9   2  -2   80.89   56.39
   9   2  -2   85.29    6.10
  -9  -2   2   84.69    4.70
  -9  -2   2   86.69    4.50
   8   2  -2  169.88    6.80
   8   2  -2  165.28    8.70
   8   2  -2  207.28   65.09
  -8  -2   2  173.78    7.10
  -8  -2   2  169.98    6.60
   7   2  -2   73.99    5.10
   7   2  -2   70.89   33.00
   7   2  -2   78.69    4.00
  -7  -2   2   79.79    3.80
  -7  -2   2   73.79    3.90
   6   2  -2   24.70    2.90
   6   2  -2   30.90   24.80
   6   2  -2   33.50    2.50
  -6  -2   2   29.40    2.20
  -6  -2   2   26.90    2.10
   5   2  -2  491.95   17.20
   5   2  -2  508.25   15.50
   5   2  -2  483.35   68.19
  -5  -2   2  478.95   15.40
  -5  -2   2  512.15   15.10
   4   2  -2  935.31   75.79
   4   2  -2  925.51   27.00
   4   2  -2  951.00   87.49
   4   2  -2  889.91   28.60
  -4  -2   2  928.81   26.60
  -4  -2   2  911.21   26.90
   3   2  -2  448.86   55.99
   3   2  -2  423.56   12.60
   3   2  -2  438.96   15.10
   3   2  -2  416.46   12.30
   3   2  -2  457.15   47.70
  -3  -2   2  378.96   12.60
  -3  -2   2  422.16   12.50
  -3  -2   2  404.16   13.00
   2   2  -2  321.57   10.20
   2   2  -2  342.97   11.50
   2   2  -2  380.96   40.90
  -2  -2   2  356.16   10.20
  -2  -2   2  320.47    9.90
  -2  -2   2  325.27   10.30
   1   2  -2   89.89    2.90
   1   2  -2   94.69    3.40
   1   2  -2   89.39    4.20
   1   2  -2   70.39   20.50
   1   2  -2   86.99    3.10
  -1  -2   2   91.99    3.00
  -1  -2   2   90.79    3.40
  -1  -2   2   98.49    3.20
  -1  -2   2   86.89    4.40
   0   2  -2   16.10    1.00
   0   2  -2   14.80    0.90
   0   2  -2   14.30    1.20
   0   2  -2    8.70    7.80
   0  -2   2   15.30    1.00
   0  -2   2   14.90    0.80
   0  -2   2   16.40    2.00
   0  -2   2   13.80    1.20
  -1   2  -2  621.94   17.60
  -1   2  -2  561.64   17.20
  -1   2  -2  643.34   42.70
  -1   2  -2  601.54   17.60
   1  -2   2  602.24   17.60
   1  -2   2  614.24   17.90
  -2   2  -2 1097.79   31.20
  -2   2  -2 1111.59   64.49
  -2   2  -2 1019.00   31.00
  -2   2  -2 1122.39   31.80
   2  -2   2 1084.59   31.10
   2  -2   2 1095.09   30.90
   2  -2   2 1126.89   31.60
  -3   2  -2  965.80   28.10
  -3   2  -2  944.21   27.40
  -3   2  -2 1022.40   68.19
   3  -2   2  957.00   28.00
   3  -2   2  918.81   27.40
  -4   2  -2  107.89    5.30
  -4   2  -2   90.69   24.60
  -4   2  -2  125.29    4.30
  -4   2  -2  119.79    4.60
   4  -2   2  128.79    4.90
   4  -2   2  117.39    4.40
  -5   2  -2  139.39    5.00
  -5   2  -2  195.98   32.80
  -5   2  -2  138.29    5.70
   5  -2   2  133.19    5.30
   5  -2   2  134.39    5.60
  -6   2  -2   94.69    3.90
  -6   2  -2   94.49    4.70
  -6   2  -2   73.59   27.00
   6  -2   2   92.89    4.40
   6  -2   2   90.89    4.50
  -7   2  -2   27.10   20.40
  -7   2  -2    5.20    1.90
   7  -2   2   12.10   14.90
   7  -2   2    4.60    1.70
   7  -2   2   10.00    1.60
  -8   2  -2   24.20    3.00
  -8   2  -2   25.10    2.00
  -8   2  -2   15.90   24.20
   8  -2   2   23.70    2.60
   8  -2   2   24.10    2.40
  -9   2  -2  -27.00   24.30
   9  -2   2    6.70   21.30
 -10   2  -2   43.50    3.10
  10  -2   2   49.00    3.80
  10  -2   2   51.09    4.10
 -11   2  -2    7.90    2.90
  11  -2   2    9.00    3.20
 -12   2  -2   77.49    4.90
  12  -2   2   93.79    5.30
  11   1  -2   93.59    4.50
  11   1  -2   98.29    6.70
 -11  -1   2   78.29    5.00
 -11  -1   2   80.09    5.00
  10   1  -2  175.08   12.40
  10   1  -2  162.68   92.59
  10   1  -2  196.78    7.60
 -10  -1   2  200.28    8.40
 -10  -1   2  196.08    8.30
   9   1  -2   62.59   42.10
   9   1  -2  138.69    8.00
   9   1  -2  135.79    5.80
  -9  -1   2  137.19    6.20
  -9  -1   2  127.69    6.10
   8   1  -2  312.17   69.79
   8   1  -2  243.18   11.10
   8   1  -2  238.88    8.80
  -8  -1   2  243.28    9.00
  -8  -1   2  245.18    9.10
  -8  -1   2  250.17   67.69
   7   1  -2  137.69    5.60
   7   1  -2  132.89    7.30
   7   1  -2  128.69   47.60
  -7  -1   2  142.39    5.70
  -7  -1   2   68.69   34.80
  -7  -1   2  143.19    5.90
   6   1  -2   19.50   16.70
   6   1  -2   11.20    2.50
   6   1  -2    9.60    1.70
  -6  -1   2   12.70    1.80
  -6  -1   2    9.80    1.70
  -6  -1   2    9.60   17.10
   5   1  -2   28.50    2.10
   5   1  -2   24.60    2.50
   5   1  -2   29.80   21.20
  -5  -1   2   33.50    2.30
  -5  -1   2   24.10    1.80
  -5  -1   2   14.60   16.50
   4   1  -2  125.89    4.50
   4   1  -2  119.39    5.60
   4   1  -2  168.68   39.90
  -4  -1   2   94.89   30.00
  -4  -1   2  122.89    4.50
   3   1  -2 1520.65   43.40
   3   1  -2 1483.95   43.10
   3   1  -2 1577.14  102.29
   3   1  -2 1523.25   44.70
  -3  -1   2 1487.25   43.80
  -3  -1   2 1528.95   43.50
  -3  -1   2 1586.94  104.29
   2   1  -2  328.97   39.40
   2   1  -2  305.77   10.00
   2   1  -2  293.67    9.10
  -2  -1   2  279.07    9.10
  -2  -1   2  308.07    9.10
   1   1  -2  133.99    4.20
   1   1  -2  135.39    4.90
   1   1  -2  128.29    4.40
   1   1  -2  117.59   19.30
  -1  -1   2  123.39    4.70
  -1  -1   2  127.79    5.00
  -1  -1   2  140.19    4.30
   0   1  -2  217.78    6.70
   0   1  -2  201.18    6.40
   0   1  -2  206.48    6.20
   0   1  -2  213.18   20.50
   0  -1   2  216.28   20.40
   0  -1   2  211.18    6.80
   0  -1   2  220.88    6.40
   0  -1   2  215.98    6.70
   0  -1   2  217.68    6.50
  -1   1  -2  245.28    7.40
  -1   1  -2  253.27   21.10
  -1   1  -2  235.38    7.10
  -1   1  -2  241.68    7.20
   1  -1   2  226.98    7.10
   1  -1   2  232.28    7.20
   1  -1   2  216.98    7.80
   1  -1   2  257.37   20.50
  -2   1  -2  181.88   22.10
  -2   1  -2  181.38    5.60
  -2   1  -2  177.98    6.00
   2  -1   2  182.68   21.10
   2  -1   2  184.68    6.00
   2  -1   2  177.48    5.60
   2  -1   2  178.08    6.00
  -3   1  -2  140.49   22.90
  -3   1  -2  128.59    4.60
  -3   1  -2  133.19    4.80
  -3   1  -2  135.79    4.40
   3  -1   2  129.29   21.00
   3  -1   2  137.89    4.90
   3  -1   2  127.39    4.50
  -4   1  -2   35.00   18.30
  -4   1  -2   42.10    2.40
  -4   1  -2   43.70    2.50
  -4   1  -2   40.20    2.00
   4  -1   2   40.90    2.50
   4  -1   2   43.30    2.30
   4  -1   2   42.30   17.40
  -5   1  -2   51.09   20.70
  -5   1  -2  101.19    3.80
  -5   1  -2   86.19    4.50
   5  -1   2   95.29    4.30
   5  -1   2   90.69    4.20
   5  -1   2  103.29   30.00
  -6   1  -2  447.56   14.90
  -6   1  -2  390.46   55.69
  -6   1  -2  441.46   13.80
   6  -1   2  448.66   14.50
   6  -1   2  464.55   57.29
   6  -1   2  424.46   14.60
  -7   1  -2  387.96   61.69
  -7   1  -2  469.85   14.80
   7  -1   2  463.45   16.00
   7  -1   2  480.65   15.60
  -8   1  -2   63.09   28.00
   8  -1   2   27.50    2.70
   8  -1   2   26.60    4.70
  -9   1  -2  157.58    6.60
  -9   1  -2  144.69    6.70
  -9   1  -2  177.88   72.59
   9  -1   2  170.98    7.40
   9  -1   2  163.28    7.80
 -10   1  -2   21.80    2.30
 -10   1  -2   22.70    3.00
  10  -1   2   26.50    3.10
  10  -1   2   23.60    2.90
 -11   1  -2    1.00    1.00
 -11   1  -2    4.50    1.60
  11  -1   2    1.40    1.60
 -12   1  -2    1.20    1.10
  11   0  -2   42.30    4.10
  11   0  -2   40.50    2.90
 -11   0   2   30.30    3.60
 -11   0   2   28.80    2.90
  10   0  -2  -70.39   87.29
   9   0  -2   72.69   57.39
   9   0  -2   77.69    4.20
   9   0  -2   77.99    5.70
  -9   0   2   76.99    4.70
  -9   0   2   81.09    4.40
  -9   0   2   42.60   39.30
   8   0  -2    1.20    1.30
   8   0  -2    1.30    1.00
   8   0  -2   -4.80   22.00
  -8   0   2   36.50   29.80
  -8   0   2   -0.50    0.40
  -8   0   2    1.40    0.90
   7   0  -2   55.29   29.30
   7   0  -2   58.59    3.20
  -7   0   2   57.99    3.20
  -7   0   2   85.29   27.10
   6   0  -2  448.76   65.29
   6   0  -2  398.96   14.60
   6   0  -2  395.46   12.70
  -6   0   2  411.26   12.90
  -6   0   2  327.37   60.69
   5   0  -2  215.78   40.20
   5   0  -2  197.48    6.80
   5   0  -2  197.68    8.20
  -5   0   2  200.58    7.10
  -5   0   2  193.58    6.80
  -5   0   2  176.18   44.10
   4   0  -2  162.88   41.60
   4   0  -2  143.19    4.90
   4   0  -2  138.89    6.10
  -4   0   2   82.19   28.10
  -4   0   2  140.89    4.90
  -4   0   2  136.09    5.00
   3   0  -2   10.10    1.30
   3   0  -2   11.00    1.00
   3   0  -2   11.10   10.00
  -3   0   2   10.80    1.00
  -3   0   2   13.50    1.20
  -3   0   2   12.80    1.20
  -3   0   2   13.10   10.30
   2   0  -2 1042.20   29.30
   2   0  -2 1056.19   68.29
   2   0  -2 1067.69   30.50
  -2   0   2 1072.79   68.79
  -2   0   2  934.81   29.60
  -2   0   2 1034.30   29.50
  -2   0   2 1063.39   29.70
  -2   0   2 1031.60   29.40
   1   0  -2    6.90    0.90
   1   0  -2    0.50    4.70
   1   0  -2    5.10    0.60
  -1   0   2    5.30    0.60
  -1   0   2   -1.20    3.00
  -1   0   2    3.70    0.70
   0   0  -2 1640.44   60.59
   0   0  -2 1523.95   45.40
   0   0   2 1654.43   60.69
  -1   0  -2 1715.43   61.49
  -1   0  -2 1691.43   49.00
   1   0   2 1829.02   61.79
   1   0   2 1698.33   49.00
  -2   0  -2   77.79   13.60
  -2   0  -2   87.19    3.40
  -2   0  -2   85.19    2.90
  -2   0  -2   86.29    3.30
   2   0   2   82.89   12.90
   2   0   2   82.09    3.20
   2   0   2   90.49    3.40
   2   0   2   86.79    3.10
   2   0   2   84.39    2.90
  -3   0  -2 1235.28   72.39
  -3   0  -2 1234.68   37.70
  -3   0  -2 1312.97   36.70
   3   0   2 1300.57   37.20
   3   0   2 1238.38   69.39
   3   0   2 1336.17   36.60
   3   0   2 1290.17   37.00
  -4   0  -2   16.70    1.30
  -4   0  -2   18.40    1.30
  -4   0  -2   14.00    9.00
   4   0   2   18.40    1.60
   4   0   2   12.10    9.00
   4   0   2   19.90    1.40
   4   0   2   20.10    1.90
  -5   0  -2   85.69    3.50
  -5   0  -2   85.79    3.70
  -5   0  -2   90.99   29.50
   5   0   2   81.89    4.10
   5   0   2   86.19    4.10
   5   0   2   82.29   26.10
  -6   0  -2    8.20    1.80
  -6   0  -2    8.30    1.30
  -6   0  -2   21.70   22.50
   6   0   2   -7.20    9.50
   6   0   2    9.80    1.90
   6   0   2    9.00    1.90
  -7   0  -2  181.58    7.00
  -7   0  -2  112.89   36.20
  -7   0  -2  188.38    6.90
   7   0   2  218.78   52.69
   7   0   2  190.78    8.00
   7   0   2  185.38    7.60
  -8   0  -2  197.58    7.60
  -8   0  -2  199.18    7.50
  -8   0  -2  171.08   51.69
   8   0   2  195.98    8.70
   8   0   2  195.38    8.20
   8   0   2  235.98   55.09
  -9   0  -2    5.00    1.30
  -9   0  -2   48.10   29.40
  -9   0  -2    3.00    1.60
   9   0   2    2.10    1.70
   9   0   2  -26.20   27.50
 -10   0  -2  436.16   14.80
 -10   0  -2  419.56   14.70
  10   0   2  423.26   15.30
  10   0   2  426.16   16.40
 -11   0  -2   28.00    2.70
  11   0   2   30.10    3.40
  11   0   2   18.90    3.30
 -12   0  -2  139.59    6.90
  12   0   2  133.59    6.90
  11  -1  -2   67.89    3.70
 -11   1   2   58.19    4.00
 -11   1   2   56.69    4.80
  10  -1  -2  135.19    9.80
  10  -1  -2  125.49    5.50
 -10   1   2  127.09    6.10
   9  -1  -2  -16.60   44.60
   9  -1  -2   43.90    3.00
   9  -1  -2   43.90    4.20
  -9   1   2   43.30    3.10
  -9   1   2   60.09   29.20
   8  -1  -2  107.69   38.00
   8  -1  -2   58.09    3.20
   8  -1  -2   49.90    4.20
  -8   1   2   54.19    4.60
  -8   1   2   57.59    3.30
  -8   1   2   33.80   30.00
   7  -1  -2    2.60    1.00
   7  -1  -2    2.40    2.00
   7  -1  -2    3.50   20.70
  -7   1   2   -7.80   18.70
  -7   1   2    1.10    1.50
   6  -1  -2  287.07   61.29
   6  -1  -2  255.67   10.40
   6  -1  -2  249.68    8.70
  -6   1   2  256.77    8.70
  -6   1   2  265.57    9.30
  -6   1   2  230.28   53.99
   5  -1  -2 1426.16   42.00
   5  -1  -2 1432.26  109.69
   5  -1  -2 1439.66   43.40
  -5   1   2 1424.66   41.40
  -5   1   2 1440.16   41.80
  -5   1   2 1447.16  111.89
   4  -1  -2    1.30    0.70
   4  -1  -2    1.70    0.80
   4  -1  -2   -5.40    5.70
  -4   1   2    1.90    1.00
  -4   1   2    1.10    0.90
  -4   1   2    1.70    9.80
   3  -1  -2  140.79    5.70
   3  -1  -2  138.49    4.60
   3  -1  -2  136.29   31.10
  -3   1   2  141.69    4.60
  -3   1   2  132.09    4.80
  -3   1   2  139.79    5.00
  -3   1   2  148.59   27.70
   2  -1  -2  328.67   10.80
   2  -1  -2  346.57   35.60
   2  -1  -2  313.77    9.80
   2  -1  -2  331.37    9.80
  -2   1   2  336.77    9.80
  -2   1   2  351.76   35.30
  -2   1   2  338.87    9.90
  -2   1   2  332.77   10.20
   1  -1  -2   81.39    2.60
   1  -1  -2   81.79    2.50
   1  -1  -2   89.99   14.80
   1  -1  -2   85.19    3.30
  -1   1   2   82.79    2.90
  -1   1   2   77.09   13.40
  -1   1   2   81.49    2.60
  -1   1   2   80.79    2.60
  -1   1   2   76.69    2.90
  -1   1   2   75.09    3.20
   0  -1  -2  164.18    5.10
   0  -1  -2  165.28   11.70
   0  -1  -2  158.68    5.00
   0   1   2  161.58    4.90
   0   1   2  163.78   11.80
   0   1   2  169.08    4.90
   0   1   2  154.88    5.00
   0   1   2  162.98    4.80
   0   1   2  155.78    5.10
  -1  -1  -2  799.62   21.50
   1   1   2  774.42   21.50
   1   1   2  680.53   21.50
   1   1   2  773.12   29.10
   1   1   2  748.13   21.60
  -2  -1  -2 1423.56   39.30
  -2  -1  -2 1357.06   38.60
  -2  -1  -2 1369.76   64.89
   2   1   2 1288.37   38.90
   2   1   2 1371.86   61.79
   2   1   2 1402.06   39.50
   2   1   2 1345.37   38.80
   2   1   2 1383.36   38.60
  -3  -1  -2   91.69   23.10
  -3  -1  -2   82.69    4.00
   3   1   2   73.99    3.40
   3   1   2   73.69    3.80
   3   1   2   84.09   16.10
  -4  -1  -2 2376.66  124.89
  -4  -1  -2 2367.56   66.99
  -4  -1  -2 2354.66   66.29
   4   1   2 2319.27   67.29
   4   1   2 2437.76  120.19
   4   1   2 2314.17   66.09
   4   1   2 2284.27   67.59
  -5  -1  -2    5.70    1.10
  -5  -1  -2    6.40    1.10
  -5  -1  -2   11.00   12.00
   5   1   2   -1.70    8.30
   5   1   2    6.70    1.60
   5   1   2    4.70    1.70
  -6  -1  -2  342.17   10.80
  -6  -1  -2  324.77   10.90
  -6  -1  -2  407.56   59.09
   6   1   2  336.47   12.20
   6   1   2  338.97   50.79
   6   1   2  335.97   11.80
  -7  -1  -2   10.30   16.40
  -7  -1  -2   11.80    1.80
  -7  -1  -2   10.30    1.40
   7   1   2    9.50    2.30
   7   1   2    7.60   13.60
   7   1   2   13.60    2.50
  -8  -1  -2   -2.40   20.40
   8   1   2  -11.50   13.40
  -9  -1  -2  172.28    6.80
  -9  -1  -2  126.49   53.29
  -9  -1  -2  172.48    7.10
   9   1   2  168.28    7.60
   9   1   2  167.68    8.30
   9   1   2  101.59   42.90
 -10  -1  -2    6.20    1.50
 -10  -1  -2    6.70    1.40
  10   1   2    6.50    2.20
  10   1   2    6.80    2.30
 -11  -1  -2  189.98    8.50
  11   1   2  198.78    8.90
  11   1   2  207.38   10.20
 -12  -1  -2    1.00    1.30
  12   1   2    7.90    2.00
  11  -2  -2   75.29    3.90
 -11   2   2   59.79    4.10
  10  -2  -2   16.20    1.80
  10  -2  -2   23.90    6.60
 -10   2   2   12.30    3.20
 -10   2   2   12.60    2.30
   9  -2  -2  -11.00   36.00
   9  -2  -2   25.00    2.20
   9  -2  -2   19.20    3.00
  -9   2   2   18.60    2.00
  -9   2   2   22.00    3.40
  -9   2   2   28.20   34.10
   8  -2  -2    1.20    0.70
   8  -2  -2    7.70   20.60
   8  -2  -2    0.70    1.10
  -8   2   2   -9.60   16.90
  -8   2   2    1.10    0.80
  -8   2   2    0.50    1.80
   7  -2  -2  200.48   50.39
  -7   2   2  190.98    8.00
  -7   2   2  194.08    7.10
  -7   2   2  204.18   55.99
   6  -2  -2  172.98   46.80
   6  -2  -2  144.69    7.10
  -6   2   2  154.18    6.50
  -6   2   2  150.68   39.50
  -6   2   2  153.88    5.60
   5  -2  -2  712.33   75.49
   5  -2  -2  693.63   22.30
  -5   2   2  687.13   21.20
  -5   2   2  631.64   71.99
  -5   2   2  691.33   20.40
   4  -2  -2 1689.73   50.59
   4  -2  -2 1808.12  121.39
  -4   2   2 1718.03   49.10
  -4   2   2 1714.93   49.80
   3  -2  -2  599.84   54.99
   3  -2  -2  554.34   17.80
  -3   2   2  559.04   16.40
  -3   2   2  573.44   53.69
   2  -2  -2 1724.23   88.19
   2  -2  -2 1602.34   47.50
  -2   2   2 1729.83   88.19
  -2   2   2 1653.53   47.00
  -2   2   2 1566.74   46.70
  -2   2   2 1651.03   46.40
   1  -2  -2   57.49    2.40
   1  -2  -2   62.79    2.60
   1  -2  -2   63.39    2.00
   1  -2  -2   65.29   12.80
  -1   2   2   62.89    2.50
  -1   2   2   58.49    2.20
  -1   2   2   62.99    2.00
  -1   2   2   52.59    2.50
  -1   2   2   55.09   13.10
   0  -2  -2  477.05   13.70
   0  -2  -2  480.35   14.00
   0  -2  -2  485.85   27.40
   0  -2  -2  490.05   13.70
   0   2   2  469.35   26.60
   0   2   2  465.25   13.40
   0   2   2  486.85   13.70
   0   2   2  434.16   13.90
   0   2   2  460.05   13.70
  -1  -2  -2    3.30    0.50
  -1  -2  -2    0.50    3.00
   1   2   2    2.00    0.40
   1   2   2    1.50    0.50
   1   2   2    3.10    0.40
   1   2   2    2.00    0.30
   1   2   2    4.30    3.70
  -2  -2  -2    8.70    0.70
  -2  -2  -2    9.60    1.70
  -2  -2  -2   10.40    0.90
   2   2   2    6.00    6.60
   2   2   2   10.30    1.90
   2   2   2    7.10    0.60
   2   2   2   11.90    6.70
   2   2   2    8.40    0.70
  -3  -2  -2 1254.47   37.10
  -3  -2  -2 1309.47   36.80
  -3  -2  -2 1275.97   81.09
   3   2   2 1292.37   75.09
   3   2   2 1299.47   38.40
  -4  -2  -2  148.69    5.10
  -4  -2  -2   97.29   26.70
  -4  -2  -2  142.59    5.40
   4   2   2  161.58   28.20
   4   2   2  140.89    6.50
  -5  -2  -2 2016.20   56.69
  -5  -2  -2 1949.10  129.09
   5   2   2 1924.31   57.49
   5   2   2 1970.30   58.39
   5   2   2 2045.00  120.99
  -6  -2  -2   -3.40   12.20
  -6  -2  -2    6.40    1.20
   6   2   2   10.00   16.00
   6   2   2    8.90    2.10
   6   2   2    8.00    2.50
  -7  -2  -2  678.13   20.80
  -7  -2  -2  534.65   78.29
   7   2   2  665.33   22.50
   7   2   2  804.22   85.39
   7   2   2  678.63   21.60
  -8  -2  -2   45.70    2.90
  -8  -2  -2   62.69   35.70
   8   2   2   33.00   29.00
   8   2   2   46.90    3.90
   8   2   2   46.90    3.80
  -9  -2  -2   76.99    4.30
  -9  -2  -2   61.69   35.50
   9   2   2   74.19    4.90
   9   2   2   85.79    5.60
   9   2   2   50.09   31.10
 -10  -2  -2    6.20    1.60
  10   2   2    6.60    2.40
  10   2   2    5.40    2.10
 -11  -2  -2   12.80    1.90
  11   2   2   16.40    3.20
  11   2   2   10.90    2.70
 -12  -2  -2  191.18    9.20
  12   2   2  254.97   11.10
  12   2   2  213.58    9.50
  11  -3  -2   72.59    4.80
 -11   3   2   69.59    5.70
 -11   3   2   67.49    4.20
  10  -3  -2   69.39    5.90
  10  -3  -2   61.79    3.60
 -10   3   2   58.79    3.70
 -10   3   2   60.79    5.30
   9  -3  -2  173.68    8.80
   9  -3  -2   69.69   43.10
  -9   3   2  175.68    8.50
  -9   3   2  173.38    7.00
  -9   3   2  166.68   66.39
   8  -3  -2  102.19   38.50
   8  -3  -2  193.78    9.10
  -8   3   2  193.58    8.60
  -8   3   2  220.08   59.49
  -8   3   2  193.58    8.60
   7  -3  -2   35.00   22.30
   7  -3  -2    7.80    2.00
  -7   3   2    6.20    1.20
  -7   3   2   12.70   15.60
  -7   3   2    5.70    2.10
   6  -3  -2    0.40   17.50
   6  -3  -2   43.20    3.40
  -6   3   2   40.50    2.30
  -6   3   2   43.10    3.50
  -6   3   2   11.70   16.20
   5  -3  -2  279.77   10.80
   5  -3  -2  345.77   51.89
  -5   3   2  289.37   10.30
  -5   3   2  292.17    9.20
  -5   3   2  296.67   50.09
   4  -3  -2  254.17    8.70
   4  -3  -2  279.97   43.60
   4  -3  -2  262.97    9.70
  -4   3   2  270.27    9.40
  -4   3   2  271.27   42.90
  -4   3   2  274.77    8.30
   3  -3  -2 1004.80   74.79
   3  -3  -2 1035.20   29.50
   3  -3  -2  966.30   29.00
   3  -3  -2 1027.80   30.50
  -3   3   2 1050.59   30.10
  -3   3   2 1027.60   29.00
  -3   3   2  999.80   75.29
   2  -3  -2  694.93   20.40
   2  -3  -2  709.43   20.90
   2  -3  -2  727.33   54.89
   2  -3  -2  687.33   21.50
  -2   3   2  718.13   20.40
  -2   3   2  808.52   57.59
  -2   3   2  739.73   21.40
   1  -3  -2 1837.92   53.59
   1  -3  -2 1922.91   87.89
   1  -3  -2 1839.02   53.09
  -1   3   2 1945.11   87.99
  -1   3   2 1863.01   53.39
   0  -3  -2  105.69    3.60
   0  -3  -2   98.09    3.60
   0  -3  -2  102.59    3.80
   0  -3  -2  114.99   15.90
   0   3   2  113.29   15.50
   0   3   2  104.69    3.70
   0   3   2  107.49    3.90
  -1  -3  -2 1225.38   34.40
  -1  -3  -2 1143.69   58.49
  -1  -3  -2 1301.77   34.70
   1   3   2 1249.07   57.89
   1   3   2 1187.38   34.50
   1   3   2 1157.68   34.30
   1   3   2 1230.88   35.40
  -2  -3  -2   86.09   15.90
  -2  -3  -2   95.49    3.20
  -2  -3  -2   94.99    3.50
   2   3   2   80.79   18.40
   2   3   2   84.29    3.10
   2   3   2   92.19    4.60
  -3  -3  -2   31.00    1.60
  -3  -3  -2   31.10    1.80
   3   3   2   34.70    3.50
   3   3   2   25.90   11.90
   3   3   2   23.00   11.80
  -4  -3  -2  395.16   12.40
  -4  -3  -2  394.66   12.00
   4   3   2  451.15   50.69
   4   3   2  346.07   41.70
   4   3   2  378.46   14.20
  -5  -3  -2  305.07    9.90
  -5  -3  -2  297.17   10.30
   5   3   2  308.17   12.10
   5   3   2  310.27   45.90
  -6  -3  -2  921.61   27.40
   6   3   2  901.71   29.60
   6   3   2  928.71   87.39
   6   3   2  931.21   28.50
  -7  -3  -2   36.00    2.50
   7   3   2   46.60   28.20
   7   3   2   30.00    3.20
   7   3   2   30.80    3.80
  -8  -3  -2  419.46   13.80
   8   3   2  412.66   15.70
   8   3   2  348.97   68.49
   9   3   2    6.50    2.20
   9   3   2  -23.90   21.80
 -10  -3  -2  405.86   14.50
  10   3   2  399.96   15.10
  10   3   2  425.26   16.60
 -11  -3  -2   15.30    2.10
  11   3   2   19.50    3.40
 -12  -3  -2    3.80    1.60
  12   3   2    7.20    2.20
  10  -4  -2  197.18    9.60
 -10   4   2  185.88    7.60
 -10   4   2  186.38    9.60
   9  -4  -2  125.09    7.10
  -9   4   2  126.19    7.40
  -9   4   2  125.69    5.40
   8  -4  -2  256.57   11.00
   8  -4  -2  218.18   86.89
  -8   4   2  255.97   10.80
  -8   4   2  195.88   67.59
  -8   4   2  258.37    9.00
   7  -4  -2  617.34   21.40
   7  -4  -2  672.03   84.19
   7  -4  -2  629.24   19.80
  -7   4   2  636.74   19.30
  -7   4   2  649.04   85.09
  -7   4   2  639.24   21.10
   6  -4  -2   24.50    2.60
   6  -4  -2   25.30    1.90
   6  -4  -2   20.70   16.10
  -6   4   2   21.70   20.30
  -6   4   2   25.20    1.70
   5  -4  -2  106.89    4.50
   5  -4  -2  103.89    5.30
   5  -4  -2  140.99   41.50
  -5   4   2  115.19    4.00
  -5   4   2  112.29   38.90
  -5   4   2  105.39    5.40
   4  -4  -2  151.88    5.40
   4  -4  -2  164.88   38.70
   4  -4  -2  137.39    6.00
  -4   4   2  147.59    4.80
  -4   4   2  110.69   31.60
  -4   4   2  145.19    6.20
   3  -4  -2  178.08   31.90
   3  -4  -2  169.08    5.80
   3  -4  -2  161.98    6.40
   3  -4  -2  161.08    5.10
  -3   4   2  169.28   31.20
  -3   4   2  168.08    6.50
  -3   4   2  167.18    5.10
   2  -4  -2  198.48    7.10
   2  -4  -2  194.08   29.70
   2  -4  -2  194.98    6.50
  -2   4   2  197.08    7.00
  -2   4   2  217.58   30.50
   1  -4  -2 1265.17   73.29
   1  -4  -2 1274.27   37.30
   1  -4  -2 1319.27   37.80
  -1   4   2 1286.27   37.70
  -1   4   2 1379.36   75.79
   0  -4  -2 1099.69   32.60
   0  -4  -2 1132.39   32.40
   0  -4  -2 1147.49   63.99
   0   4   2 1101.89   32.40
   0   4   2 1157.28   63.39
  -1  -4  -2    7.20    5.40
  -1  -4  -2    2.70    0.40
  -1  -4  -2    3.50    0.70
  -1  -4  -2    3.70    0.70
   1   4   2    1.70    1.40
   1   4   2    8.90    5.90
   1   4   2    2.80    0.40
  -2  -4  -2 1723.53   91.99
   2   4   2 1902.11   54.49
   2   4   2 1939.11   94.99
  -3  -4  -2   69.29    3.10
  -3  -4  -2   67.39    2.80
   3   4   2   69.29    4.90
   3   4   2   93.99   26.40
  -4  -4  -2  232.48    7.50
  -4  -4  -2  218.78    7.80
   4   4   2  229.78   10.20
   4   4   2  222.08   36.90
   4   4   2  231.78   37.70
  -5  -4  -2   12.60    1.30
  -5  -4  -2   13.90    1.50
   5   4   2   17.70    4.00
   5   4   2   -6.10   11.50
   5   4   2    6.10   10.70
  -6  -4  -2  170.88    6.90
  -6  -4  -2  177.38    6.50
   6   4   2  163.38    8.80
   6   4   2  229.18   54.39
   6   4   2  163.58   40.00
  -7  -4  -2  284.97    9.90
   7   4   2  281.47   12.30
   7   4   2  268.47   62.39
   7   4   2  266.57   50.49
   7   4   2  281.87   11.00
  -8  -4  -2   27.60    2.40
   8   4   2    9.70   24.70
   8   4   2   32.40    3.50
   8   4   2   28.60    4.00
   8   4   2   25.40   24.50
  -9  -4  -2  581.04   19.30
   9   4   2  603.54   20.30
   9   4   2  600.54   84.89
   9   4   2  596.34   21.90
 -10  -4  -2   27.40    3.30
  10   4   2   26.30    3.90
  10   4   2   37.70    4.10
 -11  -4  -2  167.78    7.90
  11   4   2  168.68    8.60
  11   4   2  201.98   10.20
  12   4   2   11.20    2.50
 -10   5   2   16.50    3.90
 -10   5   2   15.20    1.70
   9  -5  -2  122.89    6.90
   9  -5  -2  111.09    5.40
  -9   5   2  109.29    8.40
  -9   5   2  114.89    5.00
   8  -5  -2   82.19    4.20
   8  -5  -2   30.10   63.09
   8  -5  -2   81.49    5.30
  -8   5   2  119.99   75.59
  -8   5   2   89.09    6.10
  -8   5   2   80.39    3.80
   7  -5  -2  271.87   10.90
   7  -5  -2  238.38   58.89
   7  -5  -2  272.27    9.70
  -7   5   2  286.77    9.10
  -7   5   2  148.19   49.80
  -7   5   2  270.77   11.20
   6  -5  -2  410.86   64.59
   6  -5  -2  464.95   14.90
   6  -5  -2  453.85   16.20
  -6   5   2  468.55   14.20
  -6   5   2  478.85   69.29
  -6   5   2  475.55   16.30
   5  -5  -2   93.99    4.80
   5  -5  -2   66.19   29.60
   5  -5  -2   92.59    4.10
  -5   5   2   93.09    3.40
  -5   5   2  107.69   37.90
  -5   5   2   97.69    5.40
   4  -5  -2  281.87   10.20
   4  -5  -2  257.67    8.40
   4  -5  -2  278.97   46.20
   4  -5  -2  294.77    9.50
  -4   5   2  295.87   10.50
  -4   5   2  273.47   47.90
  -4   5   2  286.57    8.50
   3  -5  -2  125.89   30.60
   3  -5  -2  172.48    6.20
   3  -5  -2  170.58    6.70
  -3   5   2  200.88   43.50
  -3   5   2  177.08    7.00
   2  -5  -2   14.80    1.40
   2  -5  -2   10.70    1.00
   2  -5  -2   10.10    7.20
  -2   5   2   17.20   11.10
  -2   5   2   10.80    1.80
   1  -5  -2  103.69    4.00
   1  -5  -2  128.69   28.60
   1  -5  -2  102.89    4.30
  -1   5   2  128.79   23.20
  -1   5   2  105.29    4.50
   0  -5  -2  341.37   36.70
   0  -5  -2  314.07    9.90
   0  -5  -2  309.27   10.20
   0   5   2  312.87   10.10
   0   5   2  302.17   34.40
  -1  -5  -2  432.96   42.00
  -1  -5  -2  430.46   13.10
  -1  -5  -2  413.16   12.40
   1   5   2  463.05   41.20
   1   5   2  406.26   12.30
   1   5   2  436.26   14.30
   1   5   2  421.76   12.90
  -2  -5  -2  224.88    7.50
  -2  -5  -2  217.68    6.70
  -2  -5  -2  220.38   32.50
   2   5   2  204.48   29.00
   2   5   2  218.78    7.00
   2   5   2  216.68    8.90
  -3  -5  -2 2008.90  109.09
  -3  -5  -2 1946.41   56.19
   3   5   2 2017.40   58.59
   3   5   2 1819.22  108.79
  -4  -5  -2    3.20    0.80
   4   5   2    2.30   10.20
   4   5   2    3.20    3.30
   4   5   2   -1.60    9.50
  -5  -5  -2   31.10    2.30
  -5  -5  -2   33.90    2.10
   5   5   2   56.19   22.80
   5   5   2   24.70   18.10
   5   5   2   34.90    5.40
  -6  -5  -2   46.80    2.70
  -6  -5  -2   40.60    2.80
   6   5   2   74.79   31.10
   6   5   2   38.20    5.50
   6   5   2   13.50   20.70
  -7  -5  -2  294.97   10.40
   7   5   2  336.57   57.59
   7   5   2  294.87   11.60
   7   5   2  354.06   64.19
   7   5   2  289.97   13.90
  -8  -5  -2   67.89    3.80
   8   5   2   64.29    4.80
   8   5   2   68.69    6.00
   8   5   2   19.40   23.50
  -9  -5  -2  146.49    6.60
   9   5   2  151.68    7.80
   9   5   2  156.88    8.90
   9   5   2   81.39   44.40
 -10  -5  -2  322.37   12.40
  10   5   2  351.36   15.10
  10   5   2  337.07   13.40
 -11  -5  -2   58.39    4.20
  11   5   2   61.49    6.00
 -12  -5  -2    8.00    2.90
  12   5   2   12.00    2.60
  10  -6  -2   40.30    3.00
 -10   6   2   43.60    5.20
   9  -6  -2    2.60    1.20
   9  -6  -2    1.90    1.90
  -9   6   2    6.30    3.00
   8  -6  -2   39.10    3.70
   8  -6  -2   38.40    2.80
  -8   6   2   39.10    4.80
  -8   6   2   38.10    2.30
   7  -6  -2   23.10    2.70
   7  -6  -2   23.40    2.10
   7  -6  -2   25.80   33.40
  -7   6   2   22.40    1.60
  -7   6   2   25.40    3.90
  -7   6   2   43.40   31.70
   6  -6  -2  183.58    8.00
   6  -6  -2  178.98    7.00
   6  -6  -2  131.69   46.40
  -6   6   2  202.38    8.80
  -6   6   2  179.58    6.10
  -6   6   2  117.99   35.90
   5  -6  -2  116.99   39.50
   5  -6  -2  133.79    5.50
   5  -6  -2  132.79    6.10
  -5   6   2  137.59   41.60
  -5   6   2  129.39    6.70
   4  -6  -2  368.86   12.30
   4  -6  -2  370.36   12.80
   4  -6  -2  441.36   59.29
  -4   6   2  372.96   13.30
  -4   6   2  380.96   55.89
   3  -6  -2  852.31   26.80
   3  -6  -2  868.21   26.30
   3  -6  -2  918.61   81.69
  -3   6   2  926.71   81.69
  -3   6   2  893.11   27.20
   2  -6  -2    1.70    0.70
   2  -6  -2   -5.80    8.80
   2  -6  -2    1.60    0.80
  -2   6   2  -11.50    6.80
  -2   6   2    1.30    1.50
   1  -6  -2    1.40    0.60
   1  -6  -2    3.60    1.00
   1  -6  -2    1.10    6.80
  -1   6   2    0.90    1.40
  -1   6   2   -2.80    6.20
   0  -6  -2   62.99   19.30
   0  -6  -2   58.89    2.80
   0  -6  -2   58.79    3.00
   0   6   2   68.99   21.40
   0   6   2   56.79    3.20
  -1  -6  -2    0.20    0.40
  -1  -6  -2   -5.70    7.20
   1   6   2    1.40    0.40
   1   6   2    2.80    2.20
   1   6   2   -1.50    7.30
   1   6   2    2.50    1.20
  -2  -6  -2    6.90    1.00
  -2  -6  -2    7.10   11.30
  -2  -6  -2    4.70    0.70
   2   6   2   10.70    9.60
   2   6   2    4.20    2.60
   2   6   2    4.20    1.20
  -3  -6  -2  721.23   21.70
  -3  -6  -2  747.03   22.40
  -3  -6  -2  717.83   66.29
   3   6   2  741.43   67.39
   3   6   2  752.02   25.00
  -4  -6  -2 1024.10   30.70
  -4  -6  -2 1009.20   30.00
   4   6   2 1044.80   33.90
   4   6   2 1026.10   87.99
  -5  -6  -2   17.20    1.60
  -5  -6  -2   17.70    1.80
   5   6   2   21.90    5.40
   5   6   2   12.80   14.00
   5   6   2    2.30   14.50
  -6  -6  -2  185.88    6.80
  -6  -6  -2  169.88    7.20
   6   6   2  170.08   11.50
   6   6   2  153.58   43.50
   6   6   2  227.58   54.49
  -7  -6  -2   68.99    4.10
  -7  -6  -2   63.29    3.60
   7   6   2   59.69    6.20
   7   6   2   69.89   36.10
   7   6   2   60.39   27.70
  -8  -6  -2  126.09    5.80
   8   6   2  136.19    8.80
   8   6   2  125.59    7.00
   8   6   2  140.19   51.49
  -9  -6  -2   31.50    2.80
   9   6   2   34.30    4.10
   9   6   2   36.80    4.90
  10   6   2    4.20    2.00
  10   6   2    4.20    2.50
 -11  -6  -2   34.70    3.20
  11   6   2   34.10    4.30
   9  -7  -2  121.59    6.00
   9  -7  -2  135.99    6.90
  -9   7   2  118.79    8.10
   8  -7  -2   16.40    2.10
   8  -7  -2   19.90    2.70
  -8   7   2   16.40    3.90
   7  -7  -2  -16.60   42.70
   7  -7  -2    0.60    0.90
   7  -7  -2   -0.30    0.90
  -7   7   2    0.30    2.30
   6  -7  -2   22.90    2.00
   6  -7  -2  -23.00   27.50
   6  -7  -2   17.70    2.30
  -6   7   2   44.90   27.80
  -6   7   2   21.60    3.70
   5  -7  -2   12.20   23.90
   5  -7  -2   13.60    1.90
   5  -7  -2   12.70    1.60
  -5   7   2   14.90    3.10
  -5   7   2   -2.90   21.80
   4  -7  -2   -4.20   12.80
   4  -7  -2    2.10    1.00
   4  -7  -2    2.20    0.90
  -4   7   2  -15.50   11.00
  -4   7   2    2.40    1.90
   3  -7  -2  154.78   37.60
   3  -7  -2  202.98    7.40
   3  -7  -2  197.98    7.70
  -3   7   2  202.18    8.40
  -3   7   2  205.38   40.10
   2  -7  -2  379.86   51.59
   2  -7  -2  384.96   12.50
   2  -7  -2  367.36   12.70
  -2   7   2  421.96   51.79
  -2   7   2  388.46   13.30
   1  -7  -2    1.60    8.30
   1  -7  -2    1.90    0.90
   1  -7  -2    1.00    0.60
  -1   7   2   -6.30    8.90
  -1   7   2    0.60    1.70
   0  -7  -2  399.76   12.50
   0  -7  -2  334.67   46.30
   0   7   2  387.66   12.80
   0   7   2  393.06   47.80
   0   7   2  385.86   14.00
  -1  -7  -2  243.58    8.20
  -1  -7  -2  237.88    7.10
  -1  -7  -2  205.38   37.20
   1   7   2  237.48    8.20
   1   7   2  262.77   37.70
   1   7   2  207.78    7.00
   1   7   2  221.18    9.90
  -2  -7  -2    1.60    0.60
  -2  -7  -2    1.20    0.70
  -2  -7  -2    3.70   12.70
   2   7   2   -2.30    2.60
   2   7   2  -11.20    6.20
   2   7   2    0.10    1.30
  -3  -7  -2   28.80   17.70
  -3  -7  -2    9.80    1.30
   3   7   2    0.00   12.90
   3   7   2    9.60    3.50
  -4  -7  -2   26.30    2.20
  -4  -7  -2   27.10    1.90
   4   7   2   37.60   21.20
   4   7   2   34.80    6.20
  -5  -7  -2  302.57   10.10
  -5  -7  -2  297.57   10.70
   5   7   2  286.67   53.49
   5   7   2  338.87   64.49
  -6  -7  -2  150.88    6.60
  -6  -7  -2  154.78    6.10
   6   7   2  161.08   48.90
   6   7   2  113.49   43.60
   6   7   2  143.99    9.70
  -7  -7  -2  444.06   14.30
  -7  -7  -2  420.56   14.90
   7   7   2  409.36   18.00
   7   7   2  408.36   71.79
  -8  -7  -2  435.56   15.80
  -8  -7  -2  464.85   15.40
   8   7   2  457.25   19.10
   8   7   2  414.26   75.29
   9   7   2    8.90    3.30
   9   7   2    8.40    3.10
 -10  -7  -2   10.20    2.10
  10   7   2   10.20    4.00
  10   7   2   10.20    3.30
 -11  -7  -2   86.99    5.40
  11   7   2   94.29    6.50
   9  -8  -2   26.50    2.70
  -9   8   2   19.70    4.60
   8  -8  -2   84.69    5.40
   8  -8  -2   78.89    5.20
  -8   8   2   82.99    6.70
   7  -8  -2    0.50    1.20
   7  -8  -2    5.10    1.40
  -7   8   2   -0.50    2.60
   6  -8  -2  264.57   69.59
   6  -8  -2  326.37   11.60
   6  -8  -2  324.57   12.20
  -6   8   2  329.37   13.40
  -6   8   2  226.98   61.39
   5  -8  -2  157.38    6.60
   5  -8  -2  110.39   39.30
   5  -8  -2  157.28    7.00
  -5   8   2  155.68   41.90
  -5   8   2  162.28    8.20
   4  -8  -2   38.20    2.90
   4  -8  -2   37.00   14.90
   4  -8  -2   39.30    2.70
  -4   8   2   48.80   24.90
  -4   8   2   43.00    4.20
   3  -8  -2   33.70    2.40
   3  -8  -2   30.60    2.50
   3  -8  -2   47.70   20.60
  -3   8   2   29.10    3.60
  -3   8   2   -1.40   14.10
   2  -8  -2   65.99    3.50
   2  -8  -2   76.99   26.80
   2  -8  -2   69.89    3.70
  -2   8   2   57.79    4.40
  -2   8   2   47.60   20.30
   1  -8  -2   69.69    3.50
   1  -8  -2   69.69    3.80
   1  -8  -2   56.09   26.40
  -1   8   2   65.59   22.80
  -1   8   2   73.69    4.50
   0  -8  -2  207.08   40.50
   0  -8  -2  221.38    7.90
   0   8   2  204.48    9.60
   0   8   2  209.08    8.20
   0   8   2  193.68   35.20
  -1  -8  -2  985.20   28.40
  -1  -8  -2 1006.20   87.09
  -1  -8  -2 1003.90   29.90
   1   8   2  971.20   32.00
   1   8   2  999.70   81.19
   1   8   2 1007.30   29.90
  -2  -8  -2  807.12   81.29
  -2  -8  -2  911.91   27.50
  -2  -8  -2  912.61   26.30
   2   8   2  918.71   30.20
   2   8   2  862.41   77.39
   2   8   2  925.51   27.10
  -3  -8  -2   15.00   13.90
   3   8   2   23.70   10.80
  -4  -8  -2   38.10    2.30
  -4  -8  -2   37.80   21.90
  -4  -8  -2   45.50    3.60
   4   8   2   33.60   14.90
   4   8   2   44.10    6.30
  -5  -8  -2   49.99    2.80
  -5  -8  -2   51.39    3.30
   5   8   2   47.90    6.70
   5   8   2   13.00   23.20
   5   8   2   59.29   27.60
  -6  -8  -2  301.87   10.50
  -6  -8  -2  287.97   11.10
   6   8   2  366.76   64.29
   6   8   2  311.47   15.30
  -7  -8  -2   28.50    2.70
  -7  -8  -2   33.70    2.60
   7   8   2   13.20   22.80
   7   8   2   35.80    6.70
  -8  -8  -2   16.50    2.70
  -8  -8  -2   13.00    1.90
   8   8   2   11.20    4.20
  -9  -8  -2    0.90    1.10
   9   8   2    0.40    2.30
   9   8   2    1.30    2.80
 -10  -8  -2  112.79    6.00
  10   8   2  121.79    8.60
  10   8   2  111.99    7.50
 -11  -8  -2  225.18   10.90
  11   8   2  299.57   13.60
  11   8   2  243.58   11.60
   8  -9  -2   21.30    2.60
   8  -9  -2   16.90    2.20
  -8   9   2   14.30    4.20
   7  -9  -2    0.80    1.20
   7  -9  -2    0.90    1.30
  -7   9   2   -1.00    2.60
   6  -9  -2   37.80    3.40
   6  -9  -2   40.40    3.10
  -6   9   2   43.60    5.00
   5  -9  -2  528.95   17.30
   5  -9  -2  407.76   73.29
   5  -9  -2  531.65   17.80
  -5   9   2  491.75   79.49
  -5   9   2  527.15   19.10
   4  -9  -2  235.28    8.90
   4  -9  -2  234.48    9.20
   4  -9  -2  227.78   55.49
  -4   9   2  228.48   10.30
  -4   9   2  173.48   47.70
   3  -9  -2   28.40   26.80
   3  -9  -2   40.40    2.80
   3  -9  -2   42.70    3.10
  -3   9   2   47.90    4.30
  -3   9   2   64.99   29.50
   2  -9  -2  101.79   31.00
   2  -9  -2   87.09    4.60
   2  -9  -2   89.79    4.40
  -2   9   2   67.39   28.20
  -2   9   2   83.09    5.30
   1  -9  -2  -13.60   13.60
  -1   9   2   -8.40   11.30
   0  -9  -2   19.70   21.20
   0  -9  -2   30.20    2.30
   0   9   2   29.50    3.20
   0   9   2   35.30   20.40
  -1  -9  -2   33.40    1.50
  -1  -9  -2   22.70   13.80
  -1  -9  -2   32.90    2.50
   1   9   2   30.90    3.10
   1   9   2   33.10   15.70
   1   9   2   35.80    6.30
  -2  -9  -2   17.30    1.80
  -2  -9  -2   17.90    1.20
  -2  -9  -2   26.70   16.50
   2   9   2   16.60    2.30
   2   9   2    3.20   14.40
   2   9   2   18.70    4.70
  -3  -9  -2  -12.90   12.50
  -3  -9  -2    0.80    0.80
  -3  -9  -2    0.80    0.50
   3   9   2   -6.60   13.10
   3   9   2    1.50    3.50
  -4  -9  -2  330.97   57.09
  -4  -9  -2  370.86   12.90
   4   9   2  362.16   58.89
   4   9   2  365.06   16.70
  -5  -9  -2 1076.89   32.10
   5   9   2  896.21   98.19
   5   9   2 1042.30   36.60
  -6  -9  -2  142.79    5.80
  -6  -9  -2  137.49    6.50
   6   9   2  122.59    9.90
   6   9   2  118.99   41.20
  -7  -9  -2   17.30    2.70
  -7  -9  -2   14.70    1.90
   7   9   2   18.20    5.40
  -8  -9  -2  148.19    7.30
  -8  -9  -2  143.99    6.60
   8   9   2  145.09   10.40
  -9  -9  -2  407.16   14.50
  -9  -9  -2  406.66   15.30
   9   9   2  400.76   18.50
   9   9   2  398.26   16.30
 -10  -9  -2  125.29    6.50
  10   9   2  145.59    9.60
  10   9   2  121.79    8.00
   8 -10  -2   82.79    5.00
  -8  10   2   70.89    7.70
   7 -10  -2    4.10    1.30
   7 -10  -2    2.40    1.20
  -7  10   2    0.70    2.70
   6 -10  -2   23.80    2.60
   6 -10  -2   21.50    2.90
  -6  10   2   22.60    4.60
   5 -10  -2  126.09    6.30
   5 -10  -2  116.09    5.80
  -5  10   2  113.49    7.90
   4 -10  -2  -13.20   31.20
   4 -10  -2   -0.30    0.70
   4 -10  -2   -1.10    0.90
  -4  10   2    0.20    2.10
   3 -10  -2    3.90    1.40
   3 -10  -2    4.40    1.30
   3 -10  -2  -15.60   27.50
  -3  10   2    7.90    2.80
  -3  10   2    3.10   17.00
   2 -10  -2  588.54   19.30
   2 -10  -2  605.94   83.59
  -2  10   2  606.84   21.40
  -2  10   2  607.34   20.50
  -2  10   2  535.55   71.69
   1 -10  -2  964.20   30.10
   1 -10  -2 1024.50  100.59
  -1  10   2  941.81   94.29
  -1  10   2  986.20   32.50
  -1  10   2 1003.40   31.10
   0 -10  -2   64.99   34.10
   0 -10  -2   94.19    4.70
   0  10   2   84.69   31.30
   0  10   2   93.59    5.50
   0  10   2   90.39    7.10
  -1 -10  -2  -26.30   16.90
   1  10   2   -0.60   11.20
  -2 -10  -2  158.38    5.30
  -2 -10  -2   84.79   36.80
  -2 -10  -2  153.48    6.70
   2  10   2  155.38    6.60
   2  10   2  158.08   10.00
   2  10   2  126.29   33.20
  -3 -10  -2  343.37   10.60
  -3 -10  -2  268.97   61.99
  -3 -10  -2  328.47   12.00
   3  10   2  321.17   15.60
   3  10   2  318.67   53.39
   3  10   2  329.77   11.10
   4  10   2    7.60    4.90
   4  10   2  -15.80   13.80
  -5 -10  -2  259.87    9.10
  -5 -10  -2  262.07   10.20
   5  10   2  217.68   52.19
   5  10   2  254.67   14.40
  -6 -10  -2  391.06   14.10
  -6 -10  -2  393.26   13.10
   6  10   2  364.96   18.30
  -7 -10  -2   93.29    5.40
  -7 -10  -2  100.69    5.00
   7  10   2   92.79    9.30
  -8 -10  -2  309.47   12.50
  -8 -10  -2  312.37   11.60
   8  10   2  314.57   16.20
  -9 -10  -2    5.20    1.70
  -9 -10  -2    1.50    1.40
   9  10   2    9.30    3.90
   7 -11  -2  312.87   11.70
   7 -11  -2  289.07   11.40
  -7  11   2  265.67   13.60
   6 -11  -2    1.30    1.50
   6 -11  -2    0.10    1.00
  -6  11   2    3.10    2.80
   5 -11  -2    1.50    1.10
   5 -11  -2    0.10    1.10
  -5  11   2    3.10    2.80
   4 -11  -2  109.89    5.90
   4 -11  -2  117.79    8.10
  -4  11   2  105.29    7.40
   3 -11  -2    0.50    0.90
  -3  11   2    0.10    2.40
  -3  11   2    2.80    3.30
   2 -11  -2   44.60   32.10
   2 -11  -2   55.29    3.60
  -2  11   2   42.90    5.80
  -2  11   2   54.39   42.20
  -2  11   2   52.39    4.90
   1 -11  -2   67.39   43.60
   1 -11  -2  154.08    6.70
  -1  11   2  147.39    9.30
  -1  11   2  147.99    7.70
  -1  11   2   94.39   38.00
   0 -11  -2  198.18   57.29
   0 -11  -2  183.48    7.80
   0  11   2  189.08   10.90
   0  11   2  136.49   38.30
   0  11   2  199.88    8.70
  -1 -11  -2  356.56   12.80
   1  11   2  353.86   13.00
   1  11   2  371.46   56.29
   1  11   2  354.16   16.20
  -2 -11  -2  537.55   86.29
  -2 -11  -2  758.02   21.40
  -2 -11  -2  747.73   23.50
   2  11   2  711.43   80.19
   2  11   2  730.83   23.00
   2  11   2  703.93   27.20
  -3 -11  -2   89.49    5.00
  -3 -11  -2   72.29   39.30
  -3 -11  -2   88.99    3.70
   3  11   2   89.69    8.90
   3  11   2   60.29   33.60
   3  11   2   92.49    4.50
  -4 -11  -2    4.00    1.60
   4  11   2    6.00    4.30
   4  11   2   -6.20   25.60
  -5 -11  -2  234.48    9.70
   5  11   2  236.28   14.40
  -6 -11  -2  173.18    7.00
  -6 -11  -2  176.98    9.10
   6  11   2  168.78   12.40
  -7 -11  -2   78.49    4.30
  -7 -11  -2   75.09    5.00
   7  11   2   77.49    9.10
  -8 -11  -2  301.97   12.40
  -8 -11  -2  307.97   11.50
   8  11   2  300.27   16.30
  -9 -11  -2  591.34   19.80
  -9 -11  -2  584.44   20.80
   9  11   2  572.64   24.80
   6 -12  -2   12.40    2.60
  -6  12   2   12.50    3.90
   5 -12  -2  320.47   12.20
  -5  12   2  314.67   14.20
  -5  12   2  297.87   14.50
   4 -12  -2  310.47   11.90
  -4  12   2  301.97   13.80
  -4  12   2  319.97   14.80
   3 -12  -2   63.99    4.20
  -3  12   2   72.19    6.10
  -3  12   2   55.49    7.00
   2 -12  -2  101.49    5.50
  -2  12   2  100.99    6.90
  -2  12   2   95.49    8.40
   1 -12  -2  211.28   10.10
  -1  12   2  202.18   11.70
  -1  12   2  199.88    9.60
   0 -12  -2   51.39    3.70
   0  12   2   55.19    7.30
   0  12   2   56.69    4.80
  -1 -12  -2   36.70    3.10
   1  12   2   39.30    7.10
   1  12   2   45.20    4.10
  -2 -12  -2  551.44   18.70
   2  12   2  548.45   18.40
   2  12   2  541.55   23.10
  -3 -12  -2  835.72   24.50
  -3 -12  -2  821.92   26.80
   3  12   2  819.32   25.50
   3  12   2  817.02   31.80
  -4 -12  -2   11.20    2.50
   4  12   2   10.30    6.20
  -5 -12  -2  137.79    5.60
  -5 -12  -2  122.79    6.60
   5  12   2  124.99   11.30
  -6 -12  -2   36.00    3.40
   6  12   2   28.30    6.90
  -7 -12  -2   54.89    4.40
  -7 -12  -2   62.59    3.90
   7  12   2   71.49    9.20
  -8 -12  -2   11.70    2.60
  -8 -12  -2    7.10    1.60
   8  12   2   12.90    4.80
   4 -13  -2  242.28   10.30
  -4  13   2  243.98   13.60
  -4  13   2  262.47   12.50
   3 -13  -2  211.28    9.30
  -3  13   2  213.18   12.70
  -3  13   2  218.38   11.10
   2 -13  -2    5.80    1.60
  -2  13   2    5.70    5.00
  -2  13   2   11.20    3.20
   1 -13  -2  162.18    7.60
  -1  13   2  160.68   11.40
  -1  13   2  169.58    8.90
   0 -13  -2    7.60    1.90
   0  13   2    6.20    5.30
   0  13   2    9.50    2.60
  -1 -13  -2   16.60    2.20
   1  13   2   13.60    5.70
  -2 -13  -2  175.68    8.20
   2  13   2  189.68    7.90
   2  13   2  158.68   12.40
  -3 -13  -2    5.60    1.80
   3  13   2    9.20    5.50
  -4 -13  -2    2.80    1.20
  -4 -13  -2    4.60    1.10
   4  13   2    3.30    5.10
  -5 -13  -2  334.17   13.30
  -5 -13  -2  351.96   11.70
   5  13   2  329.97   18.80
  -6 -13  -2  548.05   17.60
  -6 -13  -2  535.85   19.20
   6  13   2  511.85   24.50
  -7 -13  -2  186.48    9.00
  -7 -13  -2  175.18    8.00
   7  13   2  174.68   15.20
   3 -14  -2    2.00    1.30
  -3  14   2    4.20    3.10
  -3  14   2    5.60    5.10
   2 -14  -2   22.10    2.80
  -2  14   2   36.10    4.60
  -2  14   2   21.40    6.40
   1 -14  -2  350.36   13.80
  -1  14   2  349.67   18.10
  -1  14   2  370.56   14.90
   0 -14  -2  506.25   18.00
   0  14   2  492.55   22.60
  -1 -14  -2  149.29    7.70
   1  14   2  141.59   12.30
   1  14   2  171.98    7.90
  -2 -14  -2   17.80    3.10
   2  14   2   21.90    7.60
  -3 -14  -2   21.70    2.80
   3  14   2   25.30    8.00
  -4 -14  -2   29.80    3.10
   4  14   2   24.30    7.60
  -5 -14  -2    7.60    2.40
   5  14   2   15.30    6.30
  -3 -14   3   25.50    3.10
  -3 -14   3   32.70    2.60
   2  14  -3   21.00    6.70
  -2 -14   3   13.50    2.80
   1  14  -3   24.60    7.10
  -1 -14   3   10.00    2.40
   0  14  -3  215.88    9.20
   0  14  -3  208.88   14.40
   0 -14   3  181.08    9.00
  -1  14  -3   53.89    9.30
   1 -14   3   38.50    3.60
  -2  14  -3   92.99   10.10
  -2  14  -3  110.69    6.50
   2 -14   3   72.69    5.40
  -3  14  -3  105.99    6.90
   3 -14   3   79.79    5.50
   5  13  -3   12.80    4.30
  -5 -13   3    3.30    1.30
  -5 -13   3    6.60    1.90
   4  13  -3  183.98   13.00
  -4 -13   3  175.98    8.20
   3  13  -3  182.38   13.20
  -3 -13   3  177.18    8.20
  -3 -13   3  170.68    7.00
   2  13  -3  141.59    5.90
   2  13  -3  108.79   10.90
  -2 -13   3  114.79    5.00
  -2 -13   3  108.79    6.30
   1  13  -3  389.16   14.40
   1  13  -3  386.96   19.60
  -1 -13   3  384.16   14.40
  -1 -13   3  386.06   12.50
   0  13  -3  203.08    9.30
   0  13  -3  187.58   13.60
   0 -13   3  192.68    8.80
  -1  13  -3    4.40    1.90
  -1  13  -3    6.90    5.80
   1 -13   3    1.20    1.00
  -2  13  -3   58.09    5.10
  -2  13  -3   70.19    9.50
   2 -13   3   49.99    4.10
  -3  13  -3  621.74   22.80
   3 -13   3  621.14   21.50
  -4  13  -3  276.17   14.50
  -4  13  -3  286.67   13.00
   4 -13   3  262.57   11.40
  -5  13  -3    8.90    5.40
  -5  13  -3   10.60    2.90
   5 -13   3    7.30    2.20
   6  12  -3  139.99   10.50
  -6 -12   3  135.09    6.50
  -6 -12   3  132.49    6.80
   5  12  -3   26.20    6.50
  -5 -12   3   24.30    2.70
  -5 -12   3   28.00    3.20
   4  12  -3   35.00    7.10
  -4 -12   3   36.10    2.90
  -4 -12   3   35.00    3.90
   3  12  -3  522.25   24.30
   3  12  -3  539.75   18.30
  -3 -12   3  534.15   18.30
  -3 -12   3  517.85   17.00
   2  12  -3  188.28   13.30
   2  12  -3  209.08    8.30
  -2 -12   3  197.28    7.40
  -2 -12   3  206.38    8.70
   1  12  -3    5.50    1.80
   1  12  -3    5.90    5.30
  -1 -12   3    2.80    1.30
   0  12  -3    8.80    5.70
   0  12  -3    4.90    2.20
   0 -12   3    7.60    1.10
  -1  12  -3    9.10    2.70
  -1  12  -3    3.10    5.30
   1 -12   3    9.30    2.40
  -2  12  -3  194.98   12.40
  -2  12  -3  197.18    9.80
   2 -12   3  208.08    8.90
  -3  12  -3  145.69    8.30
   3 -12   3  130.39    6.90
  -4  12  -3  122.29    9.10
  -4  12  -3  108.89    7.50
   4 -12   3  112.39    6.20
  -5  12  -3    4.20    4.40
  -5  12  -3    2.60    2.40
   5 -12   3    3.70    1.50
  -6  12  -3  252.27   12.50
  -6  12  -3  254.77   12.40
   6 -12   3  244.28   10.80
   7  11  -3   22.20    5.40
  -7 -11   3   13.80    2.70
  -7 -11   3   17.50    2.70
   6  11  -3    8.10    4.00
  -6 -11   3    7.90    1.90
  -6 -11   3    5.20    1.50
   5  11  -3   81.89    8.30
  -5 -11   3   85.99    4.60
  -5 -11   3   83.99    4.80
   4  11  -3  549.65   23.80
  -4 -11   3  589.94   18.40
  -4 -11   3  563.64   19.00
   3  11  -3  195.08    7.60
   3  11  -3  200.38   12.80
  -3 -11   3  127.99   48.90
  -3 -11   3  199.68    8.30
   2  11  -3   72.79    8.60
   2  11  -3   68.69    4.10
   2  11  -3   -8.90   35.20
  -2 -11   3   56.59   40.30
  -2 -11   3   68.39    4.10
   1  11  -3   73.59    4.60
   1  11  -3   94.89   42.30
   1  11  -3   81.69    8.70
  -1 -11   3   96.69   49.40
  -1 -11   3   77.09    3.60
  -1 -11   3   84.09    4.60
   0  11  -3  910.61   32.20
   0  11  -3  670.43   92.59
   0  11  -3  890.01   28.80
   0 -11   3  928.01   28.40
   0 -11   3  979.00  107.69
   0 -11   3  908.71   26.50
  -1  11  -3  422.46   18.20
  -1  11  -3  403.46   15.50
  -1  11  -3  416.76   70.99
   1 -11   3  452.75   83.49
   1 -11   3  404.16   12.70
   1 -11   3  429.46   14.70
  -2  11  -3    5.60   29.40
  -2  11  -3   24.80    5.80
  -2  11  -3   34.50    3.90
   2 -11   3    7.90   37.80
   2 -11   3   32.30    2.80
  -3  11  -3  181.78   55.29
  -3  11  -3  231.08   10.80
   3 -11   3  244.58    9.70
   3 -11   3  146.49   62.29
  -4  11  -3  126.89    8.60
  -4  11  -3  119.39    7.70
   4 -11   3  123.19    6.50
  -5  11  -3   21.60    4.20
  -5  11  -3   20.00    4.70
   5 -11   3   11.90    2.20
  -6  11  -3    1.90    2.70
  -6  11  -3    3.70    4.00
   6 -11   3    1.50    1.10
  -7  11  -3  130.49    8.50
  -7  11  -3  140.79    8.90
   7 -11   3  143.69    7.40
   8  10  -3   11.30    3.50
  -8 -10   3    4.80    1.60
  -8 -10   3    7.30    1.80
   7  10  -3   68.59    6.90
  -7 -10   3   69.99    4.20
  -7 -10   3   61.69    4.30
   6  10  -3  407.26   18.70
  -6 -10   3  424.06   14.60
  -6 -10   3  408.06   14.50
   5  10  -3  130.29    9.80
  -5 -10   3  122.89    5.70
  -5 -10   3  131.79    6.10
   4  10  -3   98.89    8.90
   4  10  -3   15.00   33.30
  -4 -10   3  108.79    4.90
  -4 -10   3   94.99   47.30
  -4 -10   3   94.09    4.90
   3  10  -3  291.67   15.10
   3  10  -3  263.37   63.19
   3  10  -3  290.17   10.30
  -3 -10   3  292.17   10.80
  -3 -10   3  222.88   63.19
  -3 -10   3  301.17   10.20
   2  10  -3   75.89    4.20
   2  10  -3   81.99    8.40
   2  10  -3   31.00   35.00
  -2 -10   3   88.19   50.09
  -2 -10   3   79.09    4.30
   1  10  -3  319.07   15.20
   1  10  -3  314.47   11.70
   1  10  -3  203.58   56.69
  -1 -10   3  319.47   10.30
  -1 -10   3  314.17   11.40
  -1 -10   3  374.26   67.09
   0  10  -3  103.79   34.40
   0  10  -3  124.19    9.30
   0  10  -3  117.99    7.00
   0 -10   3  118.69    4.60
   0 -10   3  126.39    5.80
   0 -10   3  112.49   37.30
  -1  10  -3  137.19   44.60
  -1  10  -3  152.58    7.70
   1 -10   3  280.17   47.00
   1 -10   3  165.18    7.00
   1 -10   3  158.58    5.60
  -2  10  -3  100.99   32.50
  -2  10  -3   71.39    5.20
  -2  10  -3   74.19    8.80
   2 -10   3   73.89    4.30
   2 -10   3   72.89   36.20
   2 -10   3   71.79    3.30
  -3  10  -3  110.39   43.90
  -3  10  -3  120.69    7.10
   3 -10   3  131.99    6.20
   3 -10   3  133.29   47.80
  -4  10  -3  138.89    7.80
  -4  10  -3  139.69    8.10
  -4  10  -3   85.99   38.10
   4 -10   3  130.89   50.09
   4 -10   3  136.89    6.50
  -5  10  -3   92.19    6.60
  -5  10  -3   55.09   32.20
   5 -10   3   98.79    5.40
   5 -10   3   74.19   44.20
  -6  10  -3  115.79    7.40
  -6  10  -3  108.29    7.10
   6 -10   3  100.59    5.80
  -7  10  -3  128.19    7.80
  -7  10  -3  120.79    8.10
   7 -10   3  137.89    6.90
  -8  10  -3    9.60    3.50
   9   9  -3  111.19    6.70
   9   9  -3  135.09    9.00
  -9  -9   3  118.99    6.50
   8   9  -3    8.20    2.80
  -8  -9   3   14.20    2.60
   7   9  -3  379.16   17.70
  -7  -9   3  418.66   14.20
  -7  -9   3  409.16   14.40
   6   9  -3   43.80    6.10
  -6  -9   3   40.80    3.20
  -6  -9   3   50.49    3.40
   5   9  -3   35.60   28.60
   5   9  -3   38.20    6.40
   5   9  -3   -0.30   36.30
  -5  -9   3   39.60    2.80
  -5  -9   3   38.30    2.90
   4   9  -3   32.00    6.10
   4   9  -3   31.50    2.10
   4   9  -3   45.70   32.10
  -4  -9   3   30.10    2.40
  -4  -9   3   17.00   32.90
  -4  -9   3   29.70    2.50
   3   9  -3  417.96   14.00
   3   9  -3  369.86   78.59
   3   9  -3  427.26   18.40
  -3  -9   3  421.56   69.69
  -3  -9   3  440.96   14.70
  -3  -9   3  442.76   14.50
   2   9  -3  430.96   66.79
   2   9  -3  387.36   13.60
   2   9  -3  419.66   17.80
  -2  -9   3  454.75   76.39
  -2  -9   3  415.36   14.80
   1   9  -3  147.69    9.60
   1   9  -3  111.89   38.90
   1   9  -3  142.69    6.50
  -1  -9   3  142.09   47.30
  -1  -9   3  146.79    5.50
  -1  -9   3  148.99    6.80
   0   9  -3  838.92   28.70
   0   9  -3  814.42   26.20
   0   9  -3  786.12   89.49
   0  -9   3  835.12   25.50
   0  -9   3  814.52   24.40
   0  -9   3  880.41   94.09
  -1   9  -3  327.57   14.00
  -1   9  -3  324.57   12.50
  -1   9  -3  320.77   56.19
   1  -9   3  338.17   11.80
   1  -9   3  332.87   10.40
   1  -9   3  365.76   62.39
  -2   9  -3   69.49    4.90
  -2   9  -3   75.49   32.20
   2  -9   3   77.49    4.10
   2  -9   3   70.29    3.00
   2  -9   3   62.39   25.10
  -3   9  -3    8.80    2.70
  -3   9  -3    3.70    1.90
  -3   9  -3    4.70   20.90
   3  -9   3    8.20    1.70
   3  -9   3    5.90    0.90
   3  -9   3    7.10   20.00
  -4   9  -3  276.67   11.80
  -4   9  -3  180.18   50.09
  -4   9  -3  296.47   11.70
   4  -9   3  287.57   10.70
   4  -9   3  238.88   65.29
  -5   9  -3  280.47   11.10
  -5   9  -3  264.07   11.70
  -5   9  -3  157.78   50.49
   5  -9   3  210.98   54.49
   5  -9   3  263.27   10.30
  -6   9  -3  -31.50   29.50
   6  -9   3  -21.50   35.60
  -7   9  -3   26.30    4.60
   7  -9   3   21.70    2.70
  -8   9  -3    0.90    2.10
   8  -9   3    2.60    1.30
  -9   9  -3   32.70    4.60
   9  -9   3   26.70    3.00
   9   8  -3  100.79    7.70
   9   8  -3   92.69    5.80
  -9  -8   3   90.19    5.40
   8   8  -3   60.99    6.00
   8   8  -3   54.29    4.20
  -8  -8   3   53.09    3.90
  -7  -8   3  165.48    6.80
  -7  -8   3  147.39    6.90
   6   8  -3  579.94  150.88
   6   8  -3  626.64   24.20
  -6  -8   3  641.34   20.30
  -6  -8   3  643.24   20.50
   5   8  -3  129.49   46.20
   5   8  -3  152.18    9.80
  -5  -8   3  161.68    6.60
  -5  -8   3  159.28    6.60
   4   8  -3   34.60    5.40
   4   8  -3   44.00   28.60
   4   8  -3   38.10    2.40
  -4  -8   3   40.80    2.70
  -4  -8   3   29.90   34.40
  -4  -8   3   35.70    2.50
   3   8  -3   36.30    5.90
   3   8  -3   38.50    2.50
   3   8  -3   30.90   26.00
  -3  -8   3   60.19   37.90
  -3  -8   3   38.40    2.50
  -3  -8   3   38.20    2.60
   2   8  -3   22.80    2.10
   2   8  -3   25.90    5.40
   2   8  -3    1.30   13.00
  -2  -8   3   22.40    1.90
  -2  -8   3   30.50   24.40
  -2  -8   3   20.80    1.80
   1   8  -3  176.38    7.30
   1   8  -3  178.88   10.20
   1   8  -3  201.18   53.89
  -1  -8   3  201.78   53.09
  -1  -8   3  182.28    7.00
   0   8  -3   62.59    6.50
   0   8  -3   56.39    3.80
   0   8  -3   42.20   24.70
   0  -8   3   56.39    2.70
   0  -8   3   47.60   25.50
   0  -8   3   60.99    3.30
  -1   8  -3    7.10    2.20
  -1   8  -3    5.20    3.60
   1  -8   3   28.60   24.80
   1  -8   3   10.00    1.40
   1  -8   3   11.40    1.20
  -2   8  -3  117.69   32.00
  -2   8  -3  104.59    5.80
   2  -8   3   91.09   30.40
   2  -8   3  104.89    4.90
   2  -8   3  100.59    3.80
  -3   8  -3  259.37   46.70
  -3   8  -3  272.07   11.10
  -3   8  -3  280.27   11.10
   3  -8   3  308.67   54.69
   3  -8   3  280.87   10.20
   3  -8   3  278.57    8.80
  -4   8  -3   78.99    5.40
  -4   8  -3   83.19   31.40
  -4   8  -3   77.19    5.20
   4  -8   3   74.89    4.20
   4  -8   3   77.69    3.20
   4  -8   3   87.99   33.60
  -5   8  -3   -0.10    2.00
  -5   8  -3    2.00    2.30
  -5   8  -3  -17.20   15.30
   5  -8   3    0.80    0.90
   5  -8   3    1.50    0.90
   5  -8   3  -14.90   17.10
  -6   8  -3   12.60   25.20
  -6   8  -3   57.39    5.00
   6  -8   3   57.89    3.10
   6  -8   3   55.79    2.90
   6  -8   3   57.49    3.90
   6  -8   3   60.49   38.70
  -7   8  -3    0.90    2.30
   7  -8   3    1.90    1.30
   7  -8   3  -48.70   34.60
  -8   8  -3  186.08    7.10
  -8   8  -3  180.28    9.80
   8  -8   3  181.28    7.60
   8  -8   3  180.18    8.20
  -9   8  -3  104.09    7.80
   9  -8   3  113.89    6.40
   9  -8   3  142.49    5.70
 -10   8  -3    7.70    2.90
  10  -8   3    5.30    1.80
 -10  -7   3   61.39    4.40
   9   7  -3   34.70    3.70
   9   7  -3   41.00    4.50
  -9  -7   3   34.10    3.20
   8   7  -3    3.10    1.80
   8   7  -3    2.50    1.80
  -8  -7   3    2.40    1.20
   7   7  -3   26.00   35.10
   7   7  -3    8.10    3.20
  -7  -7   3   13.20    1.80
  -7  -7   3   10.90    2.10
   6   7  -3    6.00    2.80
   6   7  -3  -27.10   17.90
   5   7  -3  117.49   39.80
   5   7  -3  173.68   10.10
  -5  -7   3  200.18    7.30
  -5  -7   3  191.78    7.30
   4   7  -3  312.77   14.00
   4   7  -3  278.97   60.09
  -4  -7   3  313.57   10.70
  -4  -7   3  323.47   10.80
   3   7  -3  349.17   11.70
   3   7  -3  395.36   64.09
   3   7  -3  348.77   15.20
  -3  -7   3  355.96   11.80
  -3  -7   3  367.36   11.70
  -3  -7   3  396.86   65.09
   2   7  -3  582.24   73.59
   2   7  -3  543.25   20.60
   2   7  -3  545.95   17.40
  -2  -7   3  629.14   76.09
  -2  -7   3  548.85   17.40
  -2  -7   3  571.34   17.10
   1   7  -3   18.70    4.80
   1   7  -3   -5.40   15.10
   1   7  -3    7.60    1.60
  -1  -7   3   23.70   22.20
  -1  -7   3    9.30    1.60
  -1  -7   3    8.30    1.10
   0   7  -3  181.18   44.70
   0   7  -3  169.28    7.10
   0   7  -3  169.48    9.10
   0  -7   3  171.78    6.50
   0  -7   3  233.68   53.79
   0  -7   3  176.18    6.00
  -1   7  -3   68.89    4.30
  -1   7  -3   53.29   23.10
  -1   7  -3   71.49    6.60
   1  -7   3  109.29   34.90
   1  -7   3   70.59    3.00
   1  -7   3   72.49    3.50
  -2   7  -3  489.15   62.59
  -2   7  -3  485.95   16.90
   2  -7   3  594.24   68.19
   2  -7   3  501.75   15.10
   2  -7   3  503.25   16.10
  -3   7  -3  309.07   51.19
  -3   7  -3  353.36   12.40
  -3   7  -3  329.77   12.60
   3  -7   3  340.47   10.60
   3  -7   3  346.17   11.70
   3  -7   3  343.67   54.59
  -4   7  -3   17.80    4.00
  -4   7  -3    0.00   20.00
  -4   7  -3   19.60    3.00
   4  -7   3   15.90    1.50
   4  -7   3   15.90   16.30
   4  -7   3   17.00    2.30
  -5   7  -3    0.90    2.00
  -5   7  -3   22.10   21.90
   5  -7   3   15.90   30.60
   5  -7   3    1.80    1.00
   5  -7   3    4.20    1.10
  -6   7  -3    5.00    1.10
  -6   7  -3   11.90   19.70
  -6   7  -3    2.80    2.20
   6  -7   3    3.90    1.00
   6  -7   3    4.00    1.40
   6  -7   3  -14.70   18.00
  -7   7  -3  102.79    6.70
  -7   7  -3  116.09    4.80
  -7   7  -3   75.59   37.60
   7  -7   3  109.99    5.70
   7  -7   3  102.49    4.50
   7  -7   3  147.19   44.50
  -8   7  -3   16.50    3.80
  -8   7  -3   17.10    1.80
   8  -7   3   23.10    1.70
   8  -7   3   17.90    2.40
   8  -7   3   21.80   49.10
  -9   7  -3  139.89    8.50
   9  -7   3  151.08    5.90
   9  -7   3  132.39    7.00
 -10   7  -3   61.29    5.70
  10  -7   3   56.69    4.20
  10   6  -3   36.50    4.70
  10   6  -3   46.30    4.90
 -10  -6   3   32.20    3.20
   9   6  -3  290.37   13.80
   9   6  -3  303.17   11.10
  -9  -6   3  290.37   11.40
   8   6  -3  419.36   17.70
   8   6  -3  426.96   14.50
   8   6  -3  295.07   71.99
  -8  -6   3  409.56   15.40
   7   6  -3   97.99   42.20
   7   6  -3   48.30    5.10
   7   6  -3   57.79    3.80
   7   6  -3   13.20   26.80
  -7  -6   3   45.50    3.30
   6   6  -3  110.59   47.10
   6   6  -3  106.19    7.30
  -6  -6   3  109.89    5.20
  -6  -6   3  113.79    4.90
   5   6  -3   -9.30   15.50
   5   6  -3    1.20    2.60
   5   6  -3   11.00   19.20
  -5  -6   3    4.60    1.20
  -5  -6   3    1.10    0.70
   4   6  -3  334.87   11.10
   4   6  -3  404.76   63.69
   4   6  -3  332.77   14.40
  -4  -6   3  350.46   11.40
  -4  -6   3  349.67   11.30
   3   6  -3  103.19    7.30
   3   6  -3  113.99    4.60
   3   6  -3  116.69   36.90
  -3  -6   3  113.69    4.60
  -3  -6   3  123.39   38.80
  -3  -6   3  109.09    4.50
   2   6  -3   98.99   36.40
   2   6  -3   91.59    7.00
  -2  -6   3   98.59    4.00
  -2  -6   3  102.69   35.40
  -2  -6   3   96.39    4.00
   1   6  -3  187.08    7.20
   1   6  -3  195.18    9.60
   1   6  -3  228.68   43.50
  -1  -6   3  193.88    6.60
  -1  -6   3  195.38    6.80
  -1  -6   3  227.08   40.90
   0   6  -3  139.49    7.60
   0   6  -3  154.98   39.50
   0   6  -3  135.49    5.80
   0  -6   3  138.39    5.30
   0  -6   3  166.28   40.00
  -1   6  -3  384.56   13.20
  -1   6  -3  363.96   50.09
   1  -6   3  383.46   11.80
   1  -6   3  401.26   12.50
   1  -6   3  364.76   47.70
  -2   6  -3   52.19    3.80
  -2   6  -3   60.29    4.30
  -2   6  -3   34.50   17.90
   2  -6   3   59.79    3.10
   2  -6   3   83.29   30.00
   2  -6   3   59.19    2.60
  -3   6  -3  454.05   14.50
  -3   6  -3  433.66   15.00
  -3   6  -3  489.25   59.09
   3  -6   3  431.26   14.20
   3  -6   3  407.26   53.29
   3  -6   3  430.66   13.40
  -4   6  -3  224.18    9.40
  -4   6  -3  246.18    8.00
  -4   6  -3  213.58   38.90
   4  -6   3  247.88   44.70
   4  -6   3  230.18    8.60
  -5   6  -3  371.16   17.50
  -5   6  -3  371.46   57.39
  -5   6  -3  377.76   11.80
   5  -6   3  319.37   54.19
   5  -6   3  369.06   15.40
   5  -6   3  366.36   11.70
  -6   6  -3   71.49   28.60
  -6   6  -3   60.99    4.70
  -6   6  -3   56.19    2.90
   6  -6   3   53.39   28.90
   6  -6   3   60.19    2.90
   6  -6   3   56.79    3.60
  -7   6  -3   30.30   24.20
  -7   6  -3   18.30    1.60
  -7   6  -3   19.60    3.40
   7  -6   3   17.20    1.60
   7  -6   3  -33.70   20.70
   7  -6   3   18.20    2.20
  -8   6  -3   27.00   33.80
  -8   6  -3   25.20    4.00
  -8   6  -3   26.20    2.00
   8  -6   3   30.40    2.10
   8  -6   3   28.90    2.90
   8  -6   3   15.70   31.60
  -9   6  -3   47.30   34.60
   9  -6   3   20.90    1.80
 -10   6  -3  108.39    7.20
 -10   6  -3  100.89    5.00
  10  -6   3   95.89    5.80
 -11   6  -3   74.69    5.00
 -11   6  -3   88.09    6.50
  11  -6   3   74.99    5.10
  10   5  -3   83.59    4.50
  10   5  -3   75.09    6.30
 -10  -5   3   64.99    4.60
   9   5  -3    3.00    1.70
   9   5  -3    4.50    2.40
  -9  -5   3    2.10    1.20
   8   5  -3  -60.89   37.10
   8   5  -3    3.40    1.80
   8   5  -3   -8.10   29.50
   7   5  -3   -8.40   20.60
   7   5  -3   10.40    3.20
   7   5  -3   10.30    2.10
   7   5  -3    4.50   29.90
  -7  -5   3    8.40    1.70
   6   5  -3  116.99    7.30
   6   5  -3  131.89   49.30
   6   5  -3   97.39   38.40
  -6  -5   3  119.49    5.30
   5   5  -3  571.84   22.60
   5   5  -3  629.94   78.39
   5   5  -3  650.13   87.89
  -5  -5   3  597.14   18.40
  -5  -5   3  599.14   18.70
   4   5  -3   95.59    6.40
   4   5  -3   62.39   33.30
   4   5  -3  103.89   34.40
   4   5  -3  102.49    4.10
  -4  -5   3   96.89    4.10
  -4  -5   3  105.09    4.40
   3   5  -3  760.52   22.80
   3   5  -3  749.03   25.40
   3   5  -3  739.53   78.79
  -3  -5   3  761.72   22.60
  -3  -5   3  785.82   22.80
  -3  -5   3  709.93   76.39
   2   5  -3   99.79   33.10
   2   5  -3   95.29    4.00
   2   5  -3   92.39    6.20
  -2  -5   3  126.09   38.20
  -2  -5   3   99.19    3.90
   1   5  -3  714.33   22.80
   1   5  -3  613.14   63.59
   1   5  -3  676.93   20.80
  -1  -5   3  722.63   69.39
  -1  -5   3  680.73   20.30
   0   5  -3   16.70   12.50
   0   5  -3   29.10    3.90
   0   5  -3   30.90    2.70
   0  -5   3   33.30    2.10
   0  -5   3   32.00    1.80
   0  -5   3   31.90   18.90
  -1   5  -3   39.80   18.90
  -1   5  -3   26.70    2.40
   1  -5   3   29.20    1.80
   1  -5   3   23.20    1.40
   1  -5   3   31.80   16.50
  -2   5  -3   25.40    2.80
  -2   5  -3   18.90    2.30
  -2   5  -3   10.20   10.70
   2  -5   3   26.10    1.80
   2  -5   3   21.50   15.90
   2  -5   3   25.70    1.60
  -3   5  -3   38.40    2.80
  -3   5  -3   34.00   17.50
  -3   5  -3   37.20    3.10
   3  -5   3   38.90    2.40
   3  -5   3   39.30    2.10
   3  -5   3   40.80   21.20
  -4   5  -3  756.72   24.10
  -4   5  -3  747.73   74.39
  -4   5  -3  783.62   22.70
   4  -5   3  757.12   23.40
   4  -5   3  767.52   73.39
   4  -5   3  759.52   22.40
  -5   5  -3  315.87   10.10
  -5   5  -3  309.47   11.70
  -5   5  -3  358.36   52.99
   5  -5   3  308.17   49.80
   5  -5   3  314.77   11.00
   5  -5   3  304.67    9.90
  -6   5  -3  487.85   70.69
  -6   5  -3  514.05   15.80
   6  -5   3  526.45   18.00
   6  -5   3  536.45   67.79
   6  -5   3  490.65   15.70
  -7   5  -3  212.08    9.30
  -7   5  -3  167.88   44.90
  -7   5  -3  218.38    7.70
   7  -5   3  205.48    7.50
   7  -5   3  218.78    8.70
   7  -5   3  201.38   55.89
  -8   5  -3   52.39    4.70
  -8   5  -3   50.49    2.90
  -8   5  -3   33.90   24.90
   8  -5   3   64.49   29.50
   8  -5   3   47.20    3.60
   8  -5   3   46.70    2.90
  -9   5  -3    0.00   30.80
   9  -5   3  -34.30   39.40
 -10   5  -3   32.50    2.70
  10  -5   3   36.30    3.30
 -11   5  -3   36.10    4.20
 -11   5  -3   32.30    2.70
  11  -5   3   28.90    3.20
  11   4  -3  341.57   15.30
 -11  -4   3  311.07   12.80
  10   4  -3   57.39    3.60
  10   4  -3   54.39    5.10
 -10  -4   3   43.90    3.60
   9   4  -3   28.20   50.59
   9   4  -3  118.39    5.40
   9   4  -3  115.79    8.10
  -9  -4   3  118.89    5.90
   8   4  -3   15.00   23.80
   8   4  -3  -40.00   27.30
   7   4  -3  126.49   45.90
   7   4  -3   91.89    6.30
   7   4  -3   96.79    4.60
   7   4  -3   56.69   38.20
  -7  -4   3   90.89    4.70
   6   4  -3   21.80   19.50
   6   4  -3    9.50   21.40
   6   4  -3    2.60    2.10
   6   4  -3    4.80    1.50
  -6  -4   3    4.30    1.20
  -6  -4   3    4.00    1.30
   5   4  -3    7.10    2.80
   5   4  -3   -4.00   14.10
   5   4  -3   -2.50   17.30
  -5  -4   3    5.70    1.10
  -5  -4   3    8.50    1.60
  -5  -4   3    8.20    1.40
   4   4  -3 1429.06  128.09
   4   4  -3 1354.16   42.60
   4   4  -3 1436.96  112.09
   4   4  -3 1349.77   39.90
  -4  -4   3 1404.16   40.00
  -4  -4   3 1376.76   40.20
   3   4  -3   34.30   17.40
   3   4  -3   44.30    2.40
   3   4  -3   41.20    4.00
  -3  -4   3   45.10    2.50
  -3  -4   3   53.99    2.30
   2   4  -3 2156.78  127.79
   2   4  -3 2199.88   62.09
   2   4  -3 2171.58   63.99
  -2  -4   3 2162.88   61.69
  -2  -4   3 2144.89  128.59
   1   4  -3  131.49    5.10
   1   4  -3  161.68   36.70
   1   4  -3  140.69    6.60
  -1  -4   3  136.09    4.70
  -1  -4   3  141.39    4.80
  -1  -4   3  118.39   29.60
   0   4  -3 1756.02   51.39
   0   4  -3 1778.92   52.29
   0   4  -3 1763.22  102.89
   0  -4   3 1731.93   50.79
   0  -4   3 1938.11  105.49
  -1   4  -3  153.08    5.90
  -1   4  -3  153.98    6.10
  -1   4  -3  134.29    4.90
  -1   4  -3  158.58   27.40
   1  -4   3  151.68   25.70
   1  -4   3  156.18    5.30
  -2   4  -3  173.28    6.70
  -2   4  -3  154.88    5.60
  -2   4  -3  176.68   30.40
  -2   4  -3  181.88    6.30
   2  -4   3  155.78   33.80
   2  -4   3  185.58    6.20
  -3   4  -3    5.40   10.60
  -3   4  -3    3.90    0.60
  -3   4  -3    1.60    1.20
   3  -4   3    3.30    0.50
   3  -4   3    3.70    1.00
   3  -4   3    1.30    5.80
  -4   4  -3  183.18    7.40
  -4   4  -3  135.59   32.90
  -4   4  -3  193.88    6.30
   4  -4   3  179.88    6.90
   4  -4   3  185.18    6.00
  -5   4  -3  794.42   79.19
  -5   4  -3  792.62   23.10
  -5   4  -3  756.82   24.40
   5  -4   3  765.72   22.90
   5  -4   3  798.02   24.10
  -6   4  -3  147.29   39.80
  -6   4  -3  113.79    4.50
  -6   4  -3  114.09    5.90
   6  -4   3   65.59   26.80
   6  -4   3  115.09    5.30
  -7   4  -3  647.94   83.79
  -7   4  -3  632.24   18.90
   7  -4   3  442.96   66.29
   7  -4   3  616.44   19.00
   7  -4   3  631.84   20.00
  -8   4  -3  418.06   15.10
  -8   4  -3  416.56   13.50
  -8   4  -3  382.26   71.19
   8  -4   3  396.16   13.50
   8  -4   3  428.16   14.60
   8  -4   3  318.07   62.49
  -9   4  -3   57.19   30.60
  -9   4  -3   78.49    5.60
  -9   4  -3   85.49    4.20
   9  -4   3   86.89    4.30
   9  -4   3   30.00   33.60
   9  -4   3   77.59    4.80
 -10   4  -3   48.10    4.80
  10  -4   3   52.59    4.10
  10  -4   3   61.69    3.50
 -11   4  -3   51.89    4.90
 -11   4  -3   48.20    3.40
  11  -4   3   52.79    4.10
 -11  -3   3   41.70    3.70
  10   3  -3  203.58    7.70
  10   3  -3  181.88   10.30
 -10  -3   3  195.58    8.50
   9   3  -3  -47.90   48.60
   9   3  -3   34.90   35.50
   8   3  -3  634.14   23.10
   8   3  -3  627.74   20.00
   8   3  -3  558.84   82.59
   8   3  -3  680.63  104.49
  -8  -3   3  659.23   19.90
  -8  -3   3  667.23   20.90
   7   3  -3   -2.60   17.80
   7   3  -3    2.00    1.30
   7   3  -3   16.80   22.70
   7   3  -3   -0.80    1.50
  -7  -3   3    0.80    1.10
  -7  -3   3    2.40    1.00
   6   3  -3  370.56   83.69
   6   3  -3  404.26   62.19
   6   3  -3  369.56   11.70
   6   3  -3  326.37   15.10
  -6  -3   3  363.16   11.30
  -6  -3   3  341.07   12.50
   5   3  -3   28.50   18.20
   5   3  -3    8.60    1.60
   5   3  -3   -3.10   15.70
   5   3  -3    5.60    2.10
  -5  -3   3    6.80    1.30
  -5  -3   3    5.30    1.30
   4   3  -3   22.60    1.50
   4   3  -3   42.90   20.50
   4   3  -3   44.70   20.50
   4   3  -3   19.50    2.70
  -4  -3   3   21.10    1.40
  -4  -3   3   22.50    1.80
   3   3  -3  526.35   16.00
   3   3  -3  555.94   18.40
   3   3  -3  571.84   71.29
   3   3  -3  599.34   62.89
   3   3  -3  517.85   16.50
  -3  -3   3  572.54   16.60
  -3  -3   3  546.35   16.20
   2   3  -3   33.70    1.90
   2   3  -3   34.50    1.40
   2   3  -3   36.50   17.70
  -2  -3   3   33.80   16.40
  -2  -3   3   34.10    2.00
  -2  -3   3   34.00    1.60
   1   3  -3 1675.03   48.90
   1   3  -3 1702.63   47.90
   1   3  -3 1584.64   47.20
   1   3  -3 1642.94   96.99
  -1  -3   3 1726.73   47.30
   0   3  -3    1.50    0.40
   0   3  -3    1.20    0.70
   0   3  -3   -2.10    6.90
   0  -3   3    3.10    0.60
   0  -3   3    2.70    0.70
   0  -3   3    1.40    1.50
  -1   3  -3 2924.41   81.59
  -1   3  -3 2843.62  127.39
  -1   3  -3 2899.41   81.69
   1  -3   3 2826.12   81.09
   1  -3   3 2839.52   81.59
  -2   3  -3  510.85   15.20
  -2   3  -3  451.35   14.70
  -2   3  -3  532.25   15.10
  -2   3  -3  526.15   15.90
  -2   3  -3  527.05   47.20
   2  -3   3  511.25   15.40
  -3   3  -3  559.74   17.40
  -3   3  -3  567.44   16.60
  -3   3  -3  562.24   52.99
  -3   3  -3  547.55   16.50
   3  -3   3  563.24   17.10
   3  -3   3  545.95   16.10
  -4   3  -3    6.90    0.80
  -4   3  -3    7.40    0.80
  -4   3  -3    5.70    1.60
  -4   3  -3    4.50    7.70
   4  -3   3    9.30    1.60
   4  -3   3    6.40    0.70
  -5   3  -3   30.20    1.80
  -5   3  -3   21.60   16.80
  -5   3  -3   29.50    2.80
   5  -3   3   31.20    2.50
   5  -3   3   29.20    1.70
  -6   3  -3  182.28    6.30
  -6   3  -3  168.98    7.20
  -6   3  -3   98.69   33.50
   6  -3   3  168.68    6.30
   6  -3   3  178.58    7.10
  -7   3  -3   17.60    1.60
  -7   3  -3   14.60   21.00
  -7   3  -3   17.90    2.70
   7  -3   3   15.50    1.50
   7  -3   3   22.80    2.50
  -8   3  -3  147.79    6.00
  -8   3  -3  159.48   51.49
  -8   3  -3  146.89    7.20
   8  -3   3  144.69    6.20
   8  -3   3  151.58    6.90
  -9   3  -3  193.38    8.80
  -9   3  -3  165.78   48.70
  -9   3  -3  202.68    7.70
   9  -3   3  188.88    7.90
   9  -3   3  196.58    8.50
 -10   3  -3  216.08    8.80
 -10   3  -3  228.18   10.00
  10  -3   3  236.98    9.30
  10  -3   3  225.28    9.60
 -11   3  -3  198.18    8.70
 -11   3  -3  202.08    9.40
  11  -3   3  191.98    8.90
 -12   3  -3    7.10    1.80
  12  -3   3    9.70    2.50
 -11  -2   3   13.90    2.50
  10   2  -3   16.10    3.60
 -10  -2   3   16.80    2.80
 -10  -2   3   17.20    2.80
   9   2  -3  141.99    8.30
   9   2  -3  146.69    5.90
   9   2  -3  108.19   59.89
  -9  -2   3  135.19    6.20
  -9  -2   3  138.29    6.50
   8   2  -3   38.60   28.20
   8   2  -3   72.29    3.70
   8   2  -3   27.20   34.50
   8   2  -3   71.59    5.50
  -8  -2   3   75.89    4.20
  -8  -2   3   76.19    4.00
   7   2  -3  700.33  100.09
   7   2  -3  715.73   21.50
   7   2  -3  705.83   24.30
   7   2  -3  640.94   81.59
  -7  -2   3  721.23   21.70
  -7  -2   3  705.83   22.10
   6   2  -3   78.49    3.60
   6   2  -3   75.49    5.00
   6   2  -3  114.79   48.90
   6   2  -3   85.09   38.80
  -6  -2   3   78.49    3.70
  -6  -2   3   78.19    3.90
   5   2  -3  921.81   29.60
   5   2  -3  875.41   81.69
   5   2  -3  963.50   27.50
   5   2  -3  982.90   99.19
  -5  -2   3  925.11   27.80
  -5  -2   3  935.11   27.50
   4   2  -3   26.70    1.50
   4   2  -3   23.50    2.60
   4   2  -3   24.30    1.80
   4   2  -3   22.60   17.50
   4   2  -3   12.90   13.30
  -4  -2   3   26.40    1.80
  -4  -2   3   25.50    1.80
   3   2  -3  583.54   17.00
   3   2  -3  614.84   58.99
   3   2  -3  574.74   17.60
   3   2  -3  582.94   65.89
   3   2  -3  592.04   19.10
  -3  -2   3  583.14   17.20
  -3  -2   3  604.44   17.70
   2   2  -3   14.50    1.90
   2   2  -3   13.40    1.20
   2   2  -3   21.70   12.90
  -2  -2   3   13.60    1.10
   1   2  -3  150.78   25.90
   1   2  -3  134.99    5.40
   1   2  -3  131.09    4.10
   1   2  -3  133.09    4.80
  -1  -2   3  146.59    4.70
  -1  -2   3  136.39    4.20
  -1  -2   3  141.89   25.30
  -1  -2   3  121.49    4.80
   0   2  -3  935.81   57.79
   0   2  -3  741.83   24.80
   0   2  -3  875.71   25.20
   0  -2   3  902.91   24.90
   0  -2   3  847.02   25.30
   0  -2   3  852.31   25.70
   0  -2   3  903.21   57.09
   0  -2   3  892.91   24.60
  -1   2  -3  104.89    4.10
  -1   2  -3  121.79   19.60
  -1   2  -3   97.19    3.60
  -1   2  -3  104.89    3.90
   1  -2   3  102.99    3.70
   1  -2   3  114.19    3.80
   1  -2   3  102.09    3.80
   1  -2   3  115.19   18.40
   1  -2   3  106.09    3.80
  -2   2  -3 1052.09   30.00
  -2   2  -3 1014.80   29.40
  -2   2  -3 1034.10   63.09
   2  -2   3 1031.40   29.60
   2  -2   3  948.51   29.20
   2  -2   3 1069.79   61.59
  -3   2  -3  544.85   17.00
  -3   2  -3  558.14   49.20
  -3   2  -3  541.95   16.30
   3  -2   3  610.54   48.80
   3  -2   3  544.95   16.80
  -4   2  -3 1500.35   96.19
  -4   2  -3 1503.65   44.90
  -4   2  -3 1600.94   46.40
  -4   2  -3 1596.04   44.90
   4  -2   3 1516.45   44.60
   4  -2   3 1664.93   95.39
   4  -2   3 1608.94   45.70
  -5   2  -3  621.04   18.30
  -5   2  -3  565.04   60.79
  -5   2  -3  597.84   19.00
   5  -2   3  614.54   18.40
   5  -2   3  654.43   61.99
   5  -2   3  599.94   19.10
  -6   2  -3    8.70    1.30
  -6   2  -3    9.40    2.10
  -6   2  -3   -7.40    8.40
   6  -2   3    6.80    1.80
   6  -2   3    4.40   12.70
   6  -2   3    9.00    1.20
  -7   2  -3   16.90    1.60
  -7   2  -3   17.80    2.60
  -7   2  -3   10.00   17.10
   7  -2   3   16.30    2.30
   7  -2   3   18.80    1.80
   7  -2   3   23.90   16.10
  -8   2  -3   57.69    3.20
  -8   2  -3   53.09    3.90
  -8   2  -3   59.69   26.60
   8  -2   3   49.00   25.80
   8  -2   3   55.09    3.50
   8  -2   3   57.49    3.90
  -9   2  -3  -33.10   18.70
  -9   2  -3    2.90    1.10
  -9   2  -3    3.30    1.80
   9  -2   3    0.90    1.30
   9  -2   3  -13.30   23.40
 -10   2  -3    3.20    1.20
  10  -2   3    1.50    1.60
  11  -2   3  280.07   11.80
  11  -2   3  317.77   11.80
 -12   2  -3  195.78    8.70
 -12   2  -3  203.48    9.20
  12  -2   3  199.88    9.00
  11   1  -3  201.58   10.20
 -11  -1   3  160.18    9.80
 -11  -1   3  174.28    8.20
  10   1  -3    2.90    1.80
 -10  -1   3    4.10    1.40
 -10  -1   3    1.80    1.90
   9   1  -3   36.10    2.40
   9   1  -3   39.40   41.60
   9   1  -3   30.20    3.70
  -9  -1   3   36.60    2.90
  -9  -1   3   28.20    3.20
   8   1  -3   53.89    4.60
   8   1  -3   54.19    3.10
   8   1  -3   52.49   40.50
  -8  -1   3   51.89    3.40
  -8  -1   3   52.39    3.60
   7   1  -3   53.89    4.40
   7   1  -3   56.49    3.00
   7   1  -3   87.09   42.30
  -7  -1   3   46.20   30.50
  -7  -1   3   57.99    3.30
  -7  -1   3   54.79    3.40
   6   1  -3  717.93   88.09
   6   1  -3  664.23   20.50
   6   1  -3  679.23   22.70
  -6  -1   3  637.44   88.39
  -6  -1   3  667.83   20.60
   5   1  -3   37.20    3.20
   5   1  -3   93.39   35.90
   5   1  -3   40.60    2.20
  -5  -1   3    3.90   16.60
  -5  -1   3   36.90    2.30
   4   1  -3 1155.68   32.70
   4   1  -3 1173.08   98.29
   4   1  -3 1136.29   34.70
   4   1  -3 1087.69   32.50
  -4  -1   3 1199.58  101.09
  -4  -1   3 1140.19   33.20
   3   1  -3    5.40    0.80
   3   1  -3    2.80    9.00
   3   1  -3    4.70    1.30
  -3  -1   3    6.60    1.10
   2   1  -3 1924.51   55.19
   2   1  -3 1838.32   54.39
   2   1  -3 1873.81  110.89
   2   1  -3 2013.30   99.29
   1   1  -3  385.26   11.70
   1   1  -3  365.76   11.30
   1   1  -3  384.86   35.90
  -1  -1   3  393.86   11.00
  -1  -1   3  341.87   11.80
  -1  -1   3  334.77   11.30
  -1  -1   3  366.26   35.50
   0   1  -3  270.57    8.20
   0   1  -3  277.77   26.70
   0   1  -3  271.07    7.60
   0  -1   3  258.07   26.10
   0  -1   3  267.87    7.60
   0  -1   3  253.17    7.90
   0  -1   3  240.58    8.30
   0  -1   3  238.68    8.20
  -1   1  -3  636.84   38.30
  -1   1  -3  584.94   17.80
  -1   1  -3  603.84   17.70
   1  -1   3  635.84   37.50
   1  -1   3  581.84   17.80
   1  -1   3  595.84   17.50
  -2   1  -3  145.99    4.80
  -2   1  -3  161.48    5.30
  -2   1  -3  135.49    5.00
  -2   1  -3  158.18   20.30
   2  -1   3  134.99    4.70
   2  -1   3  141.79   18.90
   2  -1   3  142.09    5.10
   2  -1   3  152.98    5.10
  -3   1  -3  529.85   45.20
  -3   1  -3  574.84   16.80
  -3   1  -3  574.74   17.20
   3  -1   3  566.64   43.90
   3  -1   3  579.14   17.30
  -4   1  -3   23.10    1.90
  -4   1  -3   26.50   14.90
  -4   1  -3   21.50    1.40
  -4   1  -3   20.60    1.80
   4  -1   3   19.80    1.30
   4  -1   3   27.60   13.40
  -5   1  -3  718.33   68.09
  -5   1  -3  778.52   22.70
   5  -1   3  734.23   22.90
   5  -1   3  829.32   68.19
   5  -1   3  773.22   23.40
  -6   1  -3  260.17    8.80
  -6   1  -3  257.87   10.60
  -6   1  -3  303.17   48.70
   6  -1   3  256.57   42.70
   6  -1   3  255.97    9.30
   6  -1   3  270.97    9.70
  -7   1  -3   18.90   17.30
  -7   1  -3   11.60    1.40
   7  -1   3    8.20    9.70
   7  -1   3   15.70    2.60
   7  -1   3   11.20    1.60
  -8   1  -3   96.29   41.30
   8  -1   3   75.69    4.40
   8  -1   3   60.49   29.20
   8  -1   3   76.89    4.60
  -9   1  -3   47.10   23.80
   9  -1   3   17.90   26.60
 -10   1  -3    3.20    1.70
 -10   1  -3    2.60    1.10
  10  -1   3    3.80    1.90
  10  -1   3    3.10    1.40
 -11   1  -3    7.30    1.80
 -11   1  -3    2.80    1.50
  11  -1   3    6.60    2.60
 -12   1  -3   10.60    2.20
  12  -1   3   11.80    2.60
 -11   0   3   13.50    2.90
 -11   0   3    9.80    2.20
  10   0  -3  234.38    8.50
  10   0  -3  227.28   11.30
 -10   0   3  229.88    9.40
 -10   0   3  234.68    9.80
   9   0  -3  -44.10   44.10
   9   0  -3    5.30    2.20
  -9   0   3   -2.00   32.10
  -9   0   3    4.20    1.40
  -9   0   3    2.70    1.10
   8   0  -3   50.89    2.80
   8   0  -3   46.30    4.30
  -8   0   3   54.09    3.30
  -8   0   3  128.29   50.99
   7   0  -3    8.20    1.40
   7   0  -3    7.70    2.20
   7   0  -3   31.70   19.10
  -7   0   3   -4.80   14.30
  -7   0   3    7.20    1.40
   6   0  -3   95.89    5.60
   6   0  -3  114.79   42.80
   6   0  -3   97.19    4.00
  -6   0   3   95.79    4.30
  -6   0   3   88.79   36.30
  -6   0   3   98.49    4.60
   5   0  -3   59.99   29.00
   5   0  -3   78.09    3.30
   5   0  -3   88.19    4.90
  -5   0   3   56.69   25.40
  -5   0   3   82.99    3.90
  -5   0   3   80.59    3.60
   4   0  -3   80.49    3.10
   4   0  -3   84.19    4.60
   4   0  -3   85.39    3.20
   4   0  -3  123.59   33.20
  -4   0   3   86.79    3.50
  -4   0   3   62.79   27.10
  -4   0   3   87.09    3.70
   3   0  -3  808.82   70.99
   3   0  -3  830.42   25.60
  -3   0   3  830.12   24.40
  -3   0   3  873.61   73.59
  -3   0   3  830.72   24.20
   2   0  -3    3.00    7.70
   2   0  -3    3.80    1.10
   2   0  -3    3.90    0.80
  -2   0   3    0.00    5.90
  -2   0   3    1.90    0.60
   1   0  -3 1353.06   38.10
   1   0  -3 1391.46   38.60
   1   0  -3 1303.97   37.70
   1   0  -3 1410.96   75.59
  -1   0   3 1216.78   38.40
   0   0  -3  288.07    8.60
   0   0  -3  265.87    8.30
   0   0  -3  285.87   22.80
   0   0  -3  276.27    8.60
   0   0   3  281.17    8.30
   0   0   3  262.27    8.60
   0   0   3  280.87   22.30
   0   0   3  270.07    8.60
  -1   0  -3    6.70    0.90
  -1   0  -3    5.20    0.50
  -1   0  -3    7.60    3.60
  -1   0  -3    5.20    0.60
   1   0   3    2.70    2.70
   1   0   3    5.20    0.40
   1   0   3    4.70    0.70
   1   0   3    7.10    0.60
   1   0   3    6.90    0.90
  -2   0  -3  563.14   35.20
  -2   0  -3  536.15   15.60
  -2   0  -3  541.95   15.80
  -2   0  -3  519.05   15.90
   2   0   3  535.65   33.00
   2   0   3  509.25   15.50
   2   0   3  531.75   15.90
   2   0   3  539.75   15.80
  -3   0  -3  509.45   14.90
  -3   0  -3  498.85   14.70
  -3   0  -3  492.15   40.90
   3   0   3  487.65   14.80
   3   0   3  476.65   14.80
   3   0   3  505.05   38.90
   3   0   3  494.05   15.20
  -4   0  -3  234.38    8.20
  -4   0  -3  243.28    7.60
  -4   0  -3  236.18   33.00
   4   0   3  221.48    8.60
   4   0   3  217.68   29.50
   4   0   3  231.58    7.80
  -5   0  -3    8.00    9.30
  -5   0  -3    1.30    0.90
  -5   0  -3    0.30    0.50
   5   0   3   -3.50    6.40
   5   0   3    5.20    1.40
   5   0   3   -0.10    0.60
  -6   0  -3   20.20   18.40
  -6   0  -3   13.10    1.80
  -6   0  -3   12.90    1.40
   6   0   3   15.80    2.40
   6   0   3   21.10   15.30
  -7   0  -3    1.60   13.10
  -7   0  -3    3.60    1.40
  -7   0  -3    3.10    1.00
   7   0   3    3.40    1.70
   7   0   3   -2.40    9.90
   7   0   3    3.20    1.30
  -8   0  -3  277.97    9.90
  -8   0  -3  288.57   10.00
  -8   0  -3  196.98   49.80
   8   0   3  276.47   10.90
   8   0   3  326.17   56.09
  -9   0  -3  540.15   17.70
  -9   0  -3  549.65   17.70
  -9   0  -3  609.54   94.39
   9   0   3  541.95   18.50
   9   0   3  546.15   75.29
   9   0   3  523.45   18.80
 -10   0  -3  166.88    7.30
 -10   0  -3  176.38    7.50
  10   0   3  175.58    8.20
  10   0   3  173.28    8.50
 -11   0  -3    0.70    1.00
 -12   0  -3    2.80    1.20
  12   0   3    3.80    1.70
 -11   1   3   15.90    2.60
 -11   1   3   18.10    3.30
  10  -1  -3   12.50    3.10
  10  -1  -3   18.50    2.00
   9  -1  -3  172.88    9.00
   9  -1  -3  160.28    6.40
   9  -1  -3   97.69   53.79
  -9   1   3  161.68    7.70
  -9   1   3  162.58    7.00
  -9   1   3  215.08   65.89
   8  -1  -3  117.69   49.40
   8  -1  -3  105.69    4.50
   8  -1  -3  100.59    6.30
  -8   1   3  108.49    5.70
  -8   1   3   99.49   43.00
  -8   1   3   99.49    4.80
   7  -1  -3   31.80    2.10
   7  -1  -3   22.20   27.20
   7  -1  -3   33.40    3.30
  -7   1   3   30.10    2.30
  -7   1   3   -4.10   20.80
  -7   1   3   26.20    2.90
   6  -1  -3   47.00   21.10
   6  -1  -3   64.79    4.40
   6  -1  -3   59.49    2.90
  -6   1   3   68.39    3.90
  -6   1   3   66.19    3.20
  -6   1   3   66.29   29.30
   5  -1  -3    5.80   14.90
   5  -1  -3   13.00    1.90
   5  -1  -3   15.70    1.30
  -5   1   3   14.00    1.40
  -5   1   3   16.80    2.10
  -5   1   3   -5.50   14.40
   4  -1  -3  514.75   17.00
   4  -1  -3  445.76   60.19
   4  -1  -3  501.25   15.10
  -4   1   3  516.15   15.80
  -4   1   3  527.05   15.40
  -4   1   3  468.95   58.39
   3  -1  -3  629.54   19.30
   3  -1  -3  593.14   17.50
   3  -1  -3  570.74   56.99
  -3   1   3  596.74   18.60
  -3   1   3  610.74   57.69
  -3   1   3  609.54   17.70
  -3   1   3  593.04   17.70
   2  -1  -3  494.25   15.10
   2  -1  -3  438.56   13.80
   2  -1  -3  504.65   46.20
  -2   1   3  479.65   13.90
  -2   1   3  477.55   14.20
  -2   1   3  466.45   44.20
  -2   1   3  461.05   13.70
   1  -1  -3  304.77    9.30
   1  -1  -3  314.97   10.10
   1  -1  -3  307.47    9.70
   1  -1  -3  310.57   29.40
  -1   1   3  320.77   29.70
  -1   1   3  320.07    9.30
   0  -1  -3   74.19    2.40
   0  -1  -3   78.59   10.40
   0  -1  -3   69.69    2.70
   0  -1  -3   76.79    2.90
   0   1   3   69.89   10.50
   0   1   3   68.29    2.40
   0   1   3   69.39    2.70
   0   1   3   72.49    2.70
   0   1   3   67.39    2.80
   0   1   3   83.39    2.60
  -1  -1  -3   95.59    3.20
  -1  -1  -3   90.59    3.30
  -1  -1  -3   99.69    3.20
   1   1   3   92.69    3.20
   1   1   3   92.39    3.10
  -2  -1  -3  296.57    8.60
  -2  -1  -3  277.47   22.60
  -2  -1  -3  285.07    8.70
  -2  -1  -3  290.77    8.60
   2   1   3  275.87    8.60
   2   1   3  296.47   21.20
   2   1   3  276.67    8.40
   2   1   3  289.67    8.90
   2   1   3  262.67    8.60
   2   1   3  269.97    8.50
  -3  -1  -3  587.44   17.30
  -3  -1  -3  600.24   17.40
  -3  -1  -3  559.14   44.10
  -3  -1  -3  603.04   17.80
   3   1   3  604.84   17.30
   3   1   3  574.74   18.00
   3   1   3  601.44   18.30
   3   1   3  563.34   40.70
  -4  -1  -3  628.44   55.29
  -4  -1  -3  597.94   17.60
   4   1   3  592.64   18.70
   4   1   3  614.24   50.29
   4   1   3  568.94   19.10
   4   1   3  613.84   17.50
  -5  -1  -3    0.80    0.50
  -5  -1  -3   -1.20    7.00
   5   1   3    1.00    1.30
   5   1   3    0.60    1.10
   5   1   3    1.50    0.80
   5   1   3   -6.80    5.50
  -6  -1  -3   29.00    2.00
  -6  -1  -3   30.30   18.60
  -6  -1  -3   30.90    2.10
   6   1   3   26.90    2.90
   6   1   3   38.10   20.50
   6   1   3   31.30    2.70
  -7  -1  -3   70.49   29.20
  -7  -1  -3   72.89    3.60
  -7  -1  -3   70.39    3.50
   7   1   3   69.99    4.40
   7   1   3   73.79    4.60
   7   1   3   58.59   25.70
  -8  -1  -3   32.00    2.40
  -8  -1  -3   33.20    2.50
  -8  -1  -3   32.40   21.10
   8   1   3   50.79   28.70
   8   1   3   35.30    3.10
   8   1   3   28.40    3.70
  -9  -1  -3    4.70   21.60
   9   1   3   13.00    2.60
   9   1   3   -9.40   20.20
 -10  -1  -3   99.69    5.10
  10   1   3   90.39    5.80
  10   1   3  103.29    6.20
 -11  -1  -3   33.40    3.00
  11   1   3   42.40    3.90
  11   1   3   34.60    3.90
 -12  -1  -3  348.37   13.80
  12   1   3  439.46   20.10
  12   1   3  352.96   14.30
  10  -2  -3   33.60    4.10
  10  -2  -3   30.30    2.50
 -10   2   3   32.20    2.70
   9  -2  -3   61.89   50.49
   9  -2  -3   99.99    6.50
   9  -2  -3   99.79    4.50
  -9   2   3   98.69    4.90
  -9   2   3   96.59    6.00
   8  -2  -3  142.39   73.09
   8  -2  -3  144.69    5.60
   8  -2  -3  143.09    7.70
  -8   2   3   81.29   45.30
  -8   2   3  140.29    5.90
  -8   2   3  132.99    6.80
   7  -2  -3  137.89   41.90
   7  -2  -3  101.49    4.30
   7  -2  -3   99.59    5.90
  -7   2   3   93.49    5.80
  -7   2   3   50.89   31.20
  -7   2   3  103.29    4.50
   6  -2  -3   51.89   29.50
   6  -2  -3   57.79    4.10
   6  -2  -3   53.59    2.70
  -6   2   3   35.20   20.80
  -6   2   3   52.69    2.80
  -6   2   3   55.49    3.70
   5  -2  -3   76.49    4.50
   5  -2  -3   57.29   23.10
   5  -2  -3   77.59    3.20
  -5   2   3   41.30   22.30
  -5   2   3   78.59    4.10
  -5   2   3   78.79    3.40
   4  -2  -3  416.26   14.40
   4  -2  -3  400.96   51.39
   4  -2  -3  414.66   12.70
  -4   2   3  424.36   13.50
  -4   2   3  397.66   52.39
  -4   2   3  429.56   13.10
   3  -2  -3 1330.77   89.79
   3  -2  -3 1373.86   40.90
   3  -2  -3 1368.36   39.30
  -3   2   3 1390.86   39.30
  -3   2   3 1445.56   92.29
  -3   2   3 1369.76   40.00
   2  -2  -3  192.08    5.90
   2  -2  -3  189.98    6.00
   2  -2  -3  201.28    7.20
   2  -2  -3  195.38   28.10
  -2   2   3  194.78    6.60
  -2   2   3  192.88    6.00
  -2   2   3  181.48    6.10
  -2   2   3  227.18   30.00
   1  -2  -3   49.00    2.40
   1  -2  -3   64.19   15.50
   1  -2  -3   42.20    1.70
   1  -2  -3   49.80    1.80
  -1   2   3   46.80   13.10
  -1   2   3   46.60    1.70
  -1   2   3   46.60    2.20
  -1   2   3   42.90    1.80
   0  -2  -3  388.46   23.60
   0  -2  -3  363.26   11.00
   0   2   3  354.76   11.00
   0   2   3  358.06   10.50
   0   2   3  350.46   10.60
   0   2   3  370.66   10.80
   0   2   3  369.26   23.20
   0   2   3  369.46   10.50
   0   2   3  325.57   10.80
  -1  -2  -3   17.60    1.10
  -1  -2  -3   19.60    1.10
  -1  -2  -3   25.70    6.50
   1   2   3   16.20    1.00
   1   2   3   20.50    1.10
   1   2   3   18.50    1.10
   1   2   3   17.50    1.00
  -2  -2  -3  730.33   20.40
  -2  -2  -3  725.33   20.20
  -2  -2  -3  683.53   20.00
   2   2   3  633.34   20.10
   2   2   3  687.43   38.20
   2   2   3  673.13   20.10
   2   2   3  679.93   20.30
   2   2   3  767.72   39.90
   2   2   3  716.13   20.90
  -3  -2  -3    5.40    6.00
  -3  -2  -3    7.90    0.90
  -3  -2  -3    7.30    0.80
   3   2   3    6.90    6.20
   3   2   3   10.10    2.10
  -4  -2  -3   93.29   23.30
  -4  -2  -3  112.99    4.20
  -4  -2  -3  112.99    4.50
   4   2   3  109.89    5.70
   4   2   3  109.09    4.90
   4   2   3  134.59   29.00
  -5  -2  -3   47.10   21.20
   5   2   3   81.69   29.00
   5   2   3   63.89    3.80
  -6  -2  -3 2088.69  142.59
  -6  -2  -3 2113.99   60.49
   6   2   3 2105.79   62.29
   6   2   3 2199.78  132.09
   6   2   3 2048.90   61.49
  -7  -2  -3  927.41   99.39
  -7  -2  -3 1058.59   30.90
   7   2   3 1029.80   31.90
   7   2   3 1031.20   32.50
   7   2   3 1068.59   95.79
  -8  -2  -3   26.10   28.60
  -8  -2  -3   37.60    2.70
   8   2   3    4.10   18.10
   8   2   3   39.50    3.70
  -9  -2  -3   36.40    2.80
  -9  -2  -3    9.40   27.60
   9   2   3   34.30    3.50
   9   2   3   13.60   27.90
   9   2   3   38.80    3.80
 -10  -2  -3  228.58    9.20
  10   2   3  230.08   10.00
  10   2   3  226.38   10.50
 -11  -2  -3  108.79    5.80
  11   2   3  125.19    7.30
  11   2   3  106.69    6.50
 -12  -2  -3   41.70    3.60
  10  -3  -3   10.30    2.90
 -10   3   3   11.40    3.30
 -10   3   3    6.10    1.40
   9  -3  -3   86.79    4.30
   9  -3  -3   88.39    6.10
  -9   3   3   84.49    5.90
  -9   3   3   93.09    4.50
   8  -3  -3   20.50    2.80
   8  -3  -3   19.90    1.80
   8  -3  -3   10.90   29.80
  -8   3   3   20.00    3.30
  -8   3   3    4.70   27.70
  -8   3   3   15.30    1.70
   7  -3  -3  111.69   48.00
   7  -3  -3  118.39    6.40
   7  -3  -3  101.99    4.50
  -7   3   3  100.39    5.70
  -7   3   3  105.09    4.50
  -7   3   3  107.29   36.70
   6  -3  -3   25.60   22.70
   6  -3  -3   29.90    2.90
   6  -3  -3   33.50    2.00
  -6   3   3   34.20    3.30
  -6   3   3   12.60   18.30
  -6   3   3   36.30    2.10
   5  -3  -3   79.29    3.60
   5  -3  -3   93.99    5.00
   5  -3  -3   76.29   29.60
  -5   3   3   62.19   28.10
  -5   3   3   94.19    4.80
  -5   3   3   93.69    3.60
   4  -3  -3  970.50   82.99
   4  -3  -3  951.10   29.90
  -4   3   3  977.20   29.20
  -4   3   3  986.30   28.10
  -4   3   3  991.70   83.89
   3  -3  -3  138.09    4.70
   3  -3  -3  137.29    5.80
   3  -3  -3  105.29   25.70
  -3   3   3  117.09   28.00
  -3   3   3  138.99    4.50
  -3   3   3  137.39    5.40
   2  -3  -3  188.68    5.90
   2  -3  -3  189.98    7.00
   2  -3  -3  221.88   30.20
  -2   3   3  179.38    6.60
  -2   3   3  187.08    5.70
  -2   3   3  204.18   29.20
   1  -3  -3  128.09    4.20
   1  -3  -3  124.59    4.80
   1  -3  -3  116.99   18.80
  -1   3   3  122.49    3.80
  -1   3   3  120.99    4.50
  -1   3   3  111.09   18.00
  -1   3   3  124.69    3.90
   0  -3  -3 1621.84   46.70
   0  -3  -3 1623.34   46.40
   0  -3  -3 1697.43   70.99
   0  -3  -3 1658.13   47.10
   0   3   3 1599.44   46.80
   0   3   3 1647.94   46.30
   0   3   3 1675.43   70.49
  -1  -3  -3 1341.97   38.20
  -1  -3  -3 1356.76   38.50
  -1  -3  -3 1325.27   38.70
  -1  -3  -3 1355.46   58.99
   1   3   3 1288.47   38.40
   1   3   3 1407.16   56.79
   1   3   3 1401.26   38.30
   1   3   3 1318.27   38.30
  -2  -3  -3   18.20    1.20
  -2  -3  -3   20.20    1.10
   2   3   3   15.70    7.70
   2   3   3   17.80    1.00
   2   3   3   17.70    1.10
   2   3   3   18.20    2.30
   2   3   3   17.50    1.00
  -3  -3  -3  699.93   20.40
  -3  -3  -3  670.03   20.70
   3   3   3  728.03   53.39
   3   3   3  722.83   22.10
   3   3   3  654.03   49.90
  -4  -3  -3  528.45   15.90
  -4  -3  -3  517.45   16.30
   4   3   3  494.45   49.00
   4   3   3  553.24   49.99
   4   3   3  535.45   19.00
  -5  -3  -3   10.40    1.30
  -5  -3  -3    8.30    1.10
   5   3   3   27.90   14.10
   5   3   3   11.70    3.00
  -6  -3  -3    2.70    0.90
   6   3   3    0.90    1.60
   6   3   3    1.90    8.60
   6   3   3    0.50    2.30
  -7  -3  -3 1248.38   36.20
  -7  -3  -3 1142.89  117.79
   7   3   3 1278.97  107.19
   7   3   3 1196.98   37.30
   7   3   3 1215.88   38.50
  -8  -3  -3  245.28    9.00
   8   3   3  266.67   64.69
   8   3   3  244.88   10.10
   8   3   3  238.58   10.70
  -9  -3  -3  524.85   17.60
   9   3   3  534.15   18.60
   9   3   3  536.55   19.50
 -10  -3  -3  378.46   13.60
  10   3   3  388.46   14.50
  10   3   3  375.86   15.40
 -11  -3  -3   20.90    2.60
  11   3   3   29.20    3.50
  11   3   3   18.20    3.60
 -12  -3  -3   22.60    2.80
  12   3   3   30.30    3.70
  10  -4  -3  259.57   11.60
  10  -4  -3  228.08    8.80
 -10   4   3  234.48    9.00
 -10   4   3  227.18   11.20
   9  -4  -3    5.60    2.00
  -9   4   3    1.60    2.50
  -9   4   3    4.10    1.10
   8  -4  -3  132.19    7.20
   8  -4  -3   87.69   46.50
   8  -4  -3  113.39    5.10
  -8   4   3   91.09   37.00
  -8   4   3  139.19    7.30
   7  -4  -3  129.49    6.80
   7  -4  -3  152.18   53.89
  -7   4   3  124.59    5.00
  -7   4   3  131.19    6.80
  -7   4   3   74.09   31.70
   6  -4  -3  958.40   33.20
   6  -4  -3  964.10   98.39
  -6   4   3  992.50  103.99
  -6   4   3 1039.70   31.40
  -6   4   3 1040.50   29.60
   5  -4  -3  154.68   45.60
   5  -4  -3  132.09    6.40
  -5   4   3  108.49   34.80
  -5   4   3  133.19    6.30
  -5   4   3  137.79    4.80
   4  -4  -3   -2.30   11.70
   4  -4  -3    0.60    0.70
  -4   4   3    1.40    1.40
  -4   4   3   -2.40   10.80
  -4   4   3    0.40    0.40
   3  -4  -3  714.33   63.99
   3  -4  -3  644.74   19.00
   3  -4  -3  616.44   18.30
   3  -4  -3  635.64   20.10
  -3   4   3  632.54   19.70
  -3   4   3  645.84   18.30
  -3   4   3  590.04   60.09
   2  -4  -3   18.50    1.20
   2  -4  -3    5.10    7.80
   2  -4  -3   19.80    1.70
  -2   4   3   23.00   12.10
  -2   4   3   20.40    1.90
   1  -4  -3  971.70   63.19
   1  -4  -3  996.80   28.30
   1  -4  -3  985.90   29.00
  -1   4   3  947.51   29.20
  -1   4   3  992.50   61.89
   0  -4  -3   14.00    1.30
   0  -4  -3   18.00    1.20
   0  -4  -3   16.40    9.40
   0   4   3   18.00    1.50
   0   4   3   32.50   12.10
  -1  -4  -3 1483.75   41.30
  -1  -4  -3 1441.66   42.10
  -1  -4  -3 1476.95   72.09
  -1  -4  -3 1492.75   41.90
   1   4   3 1440.16   41.90
   1   4   3 1455.15   41.60
   1   4   3 1392.56   41.20
   1   4   3 1496.15   68.99
  -2  -4  -3   84.79    3.70
  -2  -4  -3  104.49   22.50
   2   4   3   71.69   16.60
   2   4   3   83.39    4.40
   2   4   3   76.79    2.90
   2   4   3   85.99    2.90
   3   4   3 3873.91  112.29
   3   4   3 4128.29  175.08
   3   4   3 3751.32  160.68
  -4  -4  -3 1355.46   39.20
  -4  -4  -3 1339.27   39.70
   4   4   3 1355.06   41.90
   4   4   3 1447.06   96.09
   4   4   3 1337.37   88.89
  -5  -4  -3    0.90    0.80
  -5  -4  -3    1.40    0.60
   5   4   3   -1.70   10.20
   5   4   3   -1.70   12.10
   5   4   3   -0.10    2.70
  -6  -4  -3  927.51   28.80
  -6  -4  -3  937.81   28.20
   6   4   3 1004.60   87.99
   6   4   3  989.10   89.19
   6   4   3  930.51   31.10
  -7  -4  -3  599.24   20.00
   7   4   3  681.43   75.99
   7   4   3  660.33   77.49
   7   4   3  614.44   22.20
   7   4   3  629.44   20.80
  -8  -4  -3    1.50    0.90
   8   4   3   -3.40   18.70
   8   4   3  -23.10   17.10
   8   4   3    4.70    2.40
   8   4   3    6.00    2.30
  -9  -4  -3  131.49    6.10
   9   4   3  107.69   61.69
   9   4   3  134.29    7.10
   9   4   3  131.69    7.80
 -10  -4  -3  760.52   26.30
  10   4   3  755.02   25.40
  10   4   3  761.22   26.80
 -11  -4  -3  541.35   19.60
  11   4   3  627.24   24.30
 -12  -4  -3   19.60    2.50
  12   4   3   27.60    3.80
  10  -5  -3   17.00    2.00
 -10   5   3   18.50    2.60
 -10   5   3   10.80    3.60
   9  -5  -3   99.99    7.50
  -9   5   3   75.19    3.80
  -9   5   3   73.89    6.20
   8  -5  -3   67.29    5.00
  -8   5   3   72.39    3.50
  -8   5   3   71.99    5.60
   7  -5  -3  784.92   98.99
   7  -5  -3  693.23   23.60
  -7   5   3  692.33   23.50
  -7   5   3  751.22   95.99
  -7   5   3  697.23   21.20
   6  -5  -3   63.59   19.60
   6  -5  -3   26.30    2.90
   6  -5  -3   24.90    2.00
  -6   5   3   25.70    1.70
  -6   5   3   23.40    3.30
  -6   5   3   28.80   21.10
   5  -5  -3  160.18    6.10
   5  -5  -3  156.28   52.39
   5  -5  -3  166.88    7.30
  -5   5   3  166.08    5.50
  -5   5   3  124.79   57.19
  -5   5   3  161.78    7.30
   4  -5  -3  158.48    5.70
   4  -5  -3  144.49    4.90
   4  -5  -3  145.29   37.60
   4  -5  -3  150.18    6.60
  -4   5   3  155.68    6.80
  -4   5   3  144.49   40.60
  -4   5   3  158.58    4.90
   3  -5  -3 1548.35  103.69
   3  -5  -3 1525.55   44.10
   3  -5  -3 1485.45   45.10
  -3   5   3 1524.55   45.00
  -3   5   3 1595.84  106.29
   2  -5  -3  295.27   38.90
   2  -5  -3  251.87    8.30
   2  -5  -3  256.37    9.00
  -2   5   3  245.78    8.90
  -2   5   3  257.87   36.40
   1  -5  -3  332.77   37.40
   1  -5  -3  291.17    9.40
   1  -5  -3  290.57    9.90
  -1   5   3  302.37   34.80
  -1   5   3  293.17    9.80
   0  -5  -3 2659.43  119.49
   0  -5  -3 2593.54   74.69
   0  -5  -3 2567.64   75.09
   0   5   3 2563.44   74.89
   0   5   3 2808.62  119.09
  -1  -5  -3  987.10   27.30
  -1  -5  -3  919.51   28.20
  -1  -5  -3  953.50   62.59
  -1  -5  -3  989.10   28.00
   1   5   3  952.10   27.80
   1   5   3  952.50   29.00
   1   5   3  933.21   58.59
   1   5   3  943.71   27.20
  -2  -5  -3  106.19    3.60
  -2  -5  -3  110.49    4.20
  -2  -5  -3  111.79   25.60
   2   5   3  105.49    3.80
   2   5   3   93.69    3.60
   2   5   3  103.39    5.40
   2   5   3  102.99   20.10
  -3  -5  -3  430.76   13.70
  -3  -5  -3  439.06   13.40
  -3  -5  -3  440.36   43.80
   3   5   3  442.66   15.60
   3   5   3  383.26   42.80
  -4  -5  -3 2828.62   80.29
  -4  -5  -3 2773.02   80.89
   4   5   3 2985.60  158.48
   4   5   3 2944.61   83.59
   4   5   3 2599.74  142.19
  -5  -5  -3  812.72   24.50
  -5  -5  -3  793.02   23.90
   5   5   3  859.21   81.49
   5   5   3  783.32   27.30
   5   5   3  761.42   75.39
  -6  -5  -3   30.50    2.20
  -6  -5  -3   31.90    2.50
   6   5   3   29.10   19.20
   6   5   3   38.60   21.60
   6   5   3   37.00    5.80
  -7  -5  -3   26.40    3.60
  -7  -5  -3   28.40    2.30
   7   5   3   -5.50   16.80
   7   5   3   30.70    5.00
   7   5   3   29.50    4.00
   7   5   3   63.89   27.30
   8   5   3    4.60    2.90
   8   5   3    5.10    2.20
   8   5   3   12.60   18.80
   8   5   3   -6.20   16.40
  -9  -5  -3   79.89    4.40
   9   5   3   84.69    5.80
   9   5   3   81.19    6.50
   9   5   3   58.69   38.80
 -10  -5  -3   80.29    4.80
  10   5   3   98.89    6.90
  10   5   3   90.89    6.20
 -11  -5  -3   49.99    3.80
  11   5   3   55.09    5.10
  11   5   3   64.39    5.40
 -12  -5  -3   11.20    2.40
  12   5   3    9.90    2.70
  10  -6  -3   48.70    3.40
 -10   6   3   57.69    5.90
   9  -6  -3  256.57   11.20
  -9   6   3  227.38   11.50
   8  -6  -3   71.19    4.50
   8  -6  -3   69.59    5.00
  -8   6   3   77.49    7.00
  -8   6   3   69.69    3.30
   7  -6  -3  209.78    8.00
   7  -6  -3  169.58   49.60
   7  -6  -3  208.78    9.40
  -7   6   3  220.18    7.30
  -7   6   3  218.98    9.90
  -7   6   3  206.08   53.19
   6  -6  -3  937.31  107.89
   6  -6  -3 1040.30   31.80
   6  -6  -3 1055.89   33.30
  -6   6   3 1082.09  110.89
  -6   6   3 1110.59   31.10
  -6   6   3 1070.49   33.60
   5  -6  -3   15.40    1.60
   5  -6  -3   17.20    2.20
   5  -6  -3   18.60   16.00
  -5   6   3   -9.40   17.60
  -5   6   3   11.80    2.70
   4  -6  -3  444.46   14.00
   4  -6  -3  427.96   59.69
   4  -6  -3  438.86   15.00
  -4   6   3  421.36   60.09
   3  -6  -3  173.58   40.50
   3  -6  -3  189.08    6.90
   3  -6  -3  190.98    7.60
  -3   6   3  193.68    7.90
  -3   6   3  195.18   36.80
   2  -6  -3 1259.17   35.80
   2  -6  -3 1188.28   86.49
   2  -6  -3 1212.68   36.50
  -2   6   3 1184.98   87.99
  -2   6   3 1240.68   36.50
   1  -6  -3   57.29   20.00
   1  -6  -3   60.89    2.90
   1  -6  -3   59.09    3.20
  -1   6   3   68.69   19.90
  -1   6   3   59.69    3.50
   0  -6  -3  225.98    8.00
   0  -6  -3  217.98    7.60
   0  -6  -3  228.88   31.70
   0   6   3  217.98   31.30
   0   6   3  219.78    7.80
  -1  -6  -3   88.39    3.00
  -1  -6  -3   87.69    3.70
  -1  -6  -3   91.19   24.60
   1   6   3   85.19    5.10
   1   6   3   81.69    2.90
   1   6   3   90.39    3.90
   1   6   3   80.09   20.30
  -2  -6  -3  115.29    4.00
  -2  -6  -3  113.79    4.60
  -2  -6  -3  122.69   28.00
   2   6   3  113.09    6.30
   2   6   3  105.39   24.30
   2   6   3  115.49    4.40
  -3  -6  -3 1287.57   37.00
  -3  -6  -3 1199.58   83.19
   3   6   3 1191.28   82.79
   3   6   3 1285.57   39.20
  -4  -6  -3  780.32   23.20
  -4  -6  -3  755.02   23.80
   4   6   3  919.21   86.59
   4   6   3  806.52   73.89
   4   6   3  758.12   26.60
  -5  -6  -3   48.00    2.60
  -5  -6  -3   51.59    3.10
   5   6   3   17.30   18.40
   5   6   3   29.20   17.90
   5   6   3   41.00    6.00
  -6  -6  -3   21.40    2.20
  -6  -6  -3   27.10    2.10
   6   6   3   27.80   19.60
   6   6   3    8.70   15.80
  -7  -6  -3 1217.98   37.10
  -7  -6  -3 1251.77   36.30
   7   6   3 1077.19  107.99
   7   6   3 1200.58   40.20
   7   6   3 1296.07  118.59
  -8  -6  -3  851.01   26.00
   8   6   3  829.12   29.70
   8   6   3  766.62   94.89
   8   6   3  848.22   27.70
  -9  -6  -3  142.89    6.40
   9   6   3  133.39    7.60
   9   6   3  140.99    9.00
 -10  -6  -3  294.47   11.40
  10   6   3  299.47   14.40
  10   6   3  302.87   12.80
 -11  -6  -3  112.89    6.30
  11   6   3  121.89    7.60
  11   6   3  144.89    8.60
   9  -7  -3   19.20    2.90
   9  -7  -3   17.00    2.70
   8  -7  -3   67.79    4.10
   8  -7  -3   78.99    5.40
  -8   7   3   77.49    6.50
   7  -7  -3   36.80    2.70
   7  -7  -3   35.10    3.40
  -7   7   3   37.30    4.80
   6  -7  -3  131.69    5.60
   6  -7  -3  138.09   51.49
   6  -7  -3  124.69    6.50
  -6   7   3  128.39    7.30
   5  -7  -3   -1.50   18.30
  -5   7   3  -15.00   17.00
   4  -7  -3  523.95   16.80
   4  -7  -3  580.84   70.89
  -4   7   3  528.05   18.10
  -4   7   3  524.25   66.49
   3  -7  -3 1157.68   33.80
   3  -7  -3 1148.99   95.39
   3  -7  -3 1142.69   34.70
  -3   7   3 1089.39   94.49
  -3   7   3 1145.89   35.10
   2  -7  -3  342.77   11.80
   2  -7  -3  344.57   11.20
   2  -7  -3  355.06   49.50
  -2   7   3  306.47   44.40
  -2   7   3  333.37   12.00
   1  -7  -3    5.30   14.10
   1  -7  -3    6.00    1.40
   1  -7  -3    6.50    1.30
  -1   7   3    6.20    2.10
  -1   7   3    1.90    8.30
   0  -7  -3  183.38    6.90
   0  -7  -3  214.78   38.00
   0  -7  -3  188.38    7.30
   0   7   3  194.18    7.30
   0   7   3  193.88   33.40
  -1  -7  -3 1984.60  115.79
  -1  -7  -3 2026.20   55.29
  -1  -7  -3 1992.10   56.59
   1   7   3 1951.00   58.29
   1   7   3 1999.00  110.19
   1   7   3 1958.50   56.39
   1   7   3 1821.52   55.19
  -2  -7  -3  998.80   29.70
  -2  -7  -3  967.30   78.99
  -2  -7  -3  998.20   28.60
   2   7   3  985.00   31.60
   2   7   3 1014.50   29.20
   2   7   3  955.50   73.39
  -3  -7  -3  277.07    9.50
  -3  -7  -3  262.47    8.50
  -3  -7  -3  261.47   41.10
   3   7   3  288.27   42.60
   3   7   3  257.37   11.80
  -4  -7  -3  733.23   22.50
  -4  -7  -3  717.73   21.60
   4   7   3  718.53   70.69
   4   7   3  719.13   25.60
  -5  -7  -3    8.60    1.70
  -5  -7  -3   10.70    1.60
   5   7   3   -2.40    8.80
   5   7   3    8.10   14.90
   5   7   3   10.20    4.30
  -6  -7  -3  274.47   11.10
  -6  -7  -3  229.68    9.20
   6   7   3  170.88   47.80
   6   7   3  254.87   48.30
   6   7   3  231.98   12.60
  -7  -7  -3    6.70    1.50
  -7  -7  -3   11.80    2.20
   7   7   3    1.50    3.50
   7   7   3   14.50   25.00
  -8  -7  -3  163.28    7.60
  -8  -7  -3  167.68    7.00
   8   7   3  167.28   10.30
   8   7   3  127.79   50.69
  -9  -7  -3   95.99    5.10
   9   7   3   87.69    7.60
   9   7   3   99.59    6.60
 -10  -7  -3  115.49    6.00
  10   7   3  112.89    9.40
  10   7   3  117.49    8.40
 -11  -7  -3  203.18    9.30
  11   7   3  213.78   10.50
  11   7   3  244.08   12.10
   9  -8  -3  459.85   16.70
   9  -8  -3  445.66   15.20
  -9   8   3  411.06   17.90
   8  -8  -3  109.89    6.10
   8  -8  -3   88.19    5.70
  -8   8   3   89.99    7.20
   7  -8  -3    5.80    1.70
   7  -8  -3    6.50    1.50
  -7   8   3    4.20    3.00
   6  -8  -3   57.99    3.50
   6  -8  -3   50.39    3.90
  -6   8   3   48.90    5.10
   5  -8  -3  454.65   75.19
   5  -8  -3  496.45   17.10
   5  -8  -3  499.85   16.10
  -5   8   3  407.26   70.89
  -5   8   3  503.05   17.90
   4  -8  -3   45.50   27.80
   4  -8  -3   87.39    4.80
   4  -8  -3   94.39    4.40
  -4   8   3   88.59   33.30
  -4   8   3   84.89    5.60
   3  -8  -3  101.99    5.10
   3  -8  -3  100.59    4.60
   3  -8  -3   46.60   24.10
  -3   8   3  101.49    5.70
  -3   8   3   90.69   30.40
   2  -8  -3  235.78   42.00
   2  -8  -3  221.58    8.00
   2  -8  -3  212.78    8.40
  -2   8   3  208.98    8.80
  -2   8   3  236.28   40.70
   1  -8  -3   31.40   19.10
   1  -8  -3   46.60    3.10
   1  -8  -3   44.40    2.70
  -1   8   3   43.70   20.20
  -1   8   3   42.70    3.70
   0  -8  -3  580.54   64.89
   0  -8  -3  611.54   19.10
   0   8   3  602.94   19.40
   0   8   3  651.03   64.29
   0   8   3  618.04   21.00
  -1  -8  -3  223.98   39.90
  -1  -8  -3  242.78    8.70
   1   8   3  251.87   38.20
   1   8   3  240.58   10.80
   1   8   3  240.28    8.80
  -2  -8  -3   16.50    1.20
  -2  -8  -3   17.30    1.70
  -2  -8  -3   32.10   20.40
   2   8   3   14.10    2.20
   2   8   3   24.40   17.30
   2   8   3   18.90    4.30
  -3  -8  -3    1.30    0.80
  -3  -8  -3  -18.40   10.00
  -3  -8  -3    3.50    0.80
   3   8   3    0.80    3.20
   3   8   3    0.70    1.10
   3   8   3   13.90   14.40
  -4  -8  -3  295.17   10.60
  -4  -8  -3  261.77   46.80
   4   8   3  284.37   13.70
   4   8   3  298.37   48.10
  -5  -8  -3  695.03   22.00
  -5  -8  -3  680.33   20.90
   5   8   3  731.43   92.49
   5   8   3  644.94   74.89
   5   8   3  683.73   25.70
  -6  -8  -3  687.73   22.30
  -6  -8  -3  703.13   21.40
   6   8   3  693.13   26.50
   6   8   3  639.84   80.19
  -7  -8  -3  418.36   15.10
  -7  -8  -3  420.06   14.20
   7   8   3  432.86   19.00
   7   8   3  476.75   69.59
  -8  -8  -3  448.06   16.20
  -8  -8  -3  461.85   15.40
   8   8   3  440.46   19.50
  -9  -8  -3   76.49    4.50
   9   8   3   79.79    7.60
   9   8   3   70.19    5.90
 -10  -8  -3   25.50    2.80
  10   8   3   28.80    4.60
 -11  -8  -3  159.18    7.70
  11   8   3  160.58    9.20
   8  -9  -3   17.40    2.30
  -8   9   3   17.60    4.20
   7  -9  -3   68.59    4.50
   7  -9  -3   75.19    5.00
  -7   9   3   65.39    6.20
   6  -9  -3  406.96   14.10
   6  -9  -3  405.36   15.00
  -6   9   3  404.46   16.20
   5  -9  -3  180.58    7.50
   5  -9  -3  177.78    8.10
  -5   9   3  184.98    9.30
   4  -9  -3   34.00    2.60
   4  -9  -3   30.90    2.90
   4  -9  -3   18.20   27.60
  -4   9   3   31.20    4.20
  -4   9   3   13.20   18.10
   3  -9  -3   64.69    3.60
   3  -9  -3   75.39   31.80
   3  -9  -3   64.19    4.00
  -3   9   3   67.49   34.40
  -3   9   3   64.59    5.00
   2  -9  -3  214.18    8.70
   2  -9  -3  220.38    8.20
   2  -9  -3  186.28   43.10
  -2   9   3  216.18    9.30
  -2   9   3  217.08   49.30
   1  -9  -3  947.41   29.20
   1  -9  -3  972.10   90.89
   1  -9  -3  940.81   28.70
  -1   9   3  924.31   30.60
  -1   9   3  952.50   29.50
  -1   9   3  925.01   84.99
   0  -9  -3  950.70   28.90
   0  -9  -3  928.11   85.79
   0   9   3  953.70   29.40
   0   9   3  943.31   80.89
   0   9   3  962.80   31.20
  -1  -9  -3  734.23   77.99
  -1  -9  -3  789.12   23.70
   1   9   3  763.22   73.89
   1   9   3  746.93   26.00
   1   9   3  749.53   23.70
  -2  -9  -3  322.57    9.70
  -2  -9  -3  348.87   54.09
  -2  -9  -3  314.27   11.10
   2   9   3  290.47   45.30
   2   9   3  309.77   10.80
   2   9   3  302.17   13.70
  -3  -9  -3    0.10   13.60
  -3  -9  -3    4.60    1.20
  -3  -9  -3    3.00    0.80
   3   9   3    1.80    3.20
   3   9   3    8.10   13.10
   3   9   3    1.80    1.50
  -4  -9  -3    8.30    1.60
  -4  -9  -3    5.80    0.90
  -4  -9  -3    5.80   16.30
   4   9   3   14.80    5.00
   4   9   3  -16.00   13.80
  -5  -9  -3  377.26   13.40
  -5  -9  -3  389.66   12.50
   5   9   3  413.46   63.09
   5   9   3  361.56   17.30
  -6  -9  -3  463.75   16.40
  -6  -9  -3  482.85   15.40
   6   9   3  489.55   64.99
   6   9   3  469.35   20.70
  -7  -9  -3   55.69    4.00
  -7  -9  -3   61.19    3.60
   7   9   3   59.89    7.80
  -8  -9  -3   53.39    3.50
  -8  -9  -3   53.29    4.00
   8   9   3   55.49   11.00
  -9  -9  -3   31.10    3.30
  -9  -9  -3   32.80    2.90
   9   9   3   38.80    6.10
 -10  -9  -3   47.60    3.70
  10   9   3   51.39    5.70
   7 -10  -3  141.59    6.60
   7 -10  -3  145.49    7.30
  -7  10   3  129.39    8.70
   6 -10  -3  150.98    6.80
   6 -10  -3  148.79    7.90
  -6  10   3  142.39    8.80
   5 -10  -3  243.18   10.10
   5 -10  -3  235.38    9.40
  -5  10   3  238.68   11.40
   4 -10  -3  145.99    7.10
   4 -10  -3  155.48    6.80
  -4  10   3  155.48    8.40
   3 -10  -3   -3.30   31.60
  -3  10   3  -34.50   18.00
   2 -10  -3  238.78    9.60
   2 -10  -3  244.18    9.20
   2 -10  -3  195.58   52.39
  -2  10   3  264.37   46.30
  -2  10   3  245.58   10.40
   1 -10  -3   23.70   31.50
  -1  10   3    8.40   15.00
  -1  10   3    4.40    3.30
  -1  10   3    0.20    1.90
   0 -10  -3  104.89   42.10
   0 -10  -3   95.89    4.80
   0  10   3   96.89    5.70
   0  10   3   92.19    7.10
   0  10   3   99.99   34.00
  -1 -10  -3   12.30    1.60
  -1 -10  -3   -6.40   21.70
   1  10   3   13.60    2.60
   1  10   3   12.80    4.30
   1  10   3   21.50   14.30
  -2 -10  -3  147.69    5.10
  -2 -10  -3   78.09   32.60
  -2 -10  -3  136.49    6.20
   2  10   3  119.99   37.60
   2  10   3  137.69    6.20
   2  10   3  133.49    9.20
  -3 -10  -3  169.48   45.20
  -3 -10  -3  263.17    9.90
  -3 -10  -3  271.27    8.60
   3  10   3  254.67   13.40
   3  10   3  266.37    9.30
   3  10   3  231.98   52.89
  -4 -10  -3  137.59   43.90
  -4 -10  -3  239.48    9.30
  -4 -10  -3  238.38    8.10
   4  10   3  235.68   13.30
   4  10   3  232.48   45.60
  -5 -10  -3  562.84   18.60
   5  10   3  547.15   72.39
   5  10   3  525.95   22.80
  -6 -10  -3  410.06   14.50
  -6 -10  -3  395.96   13.20
   6  10   3  368.26   18.70
  -7 -10  -3    2.00    1.00
  -7 -10  -3    1.30    1.20
   7  10   3    1.40    4.70
  -8 -10  -3   61.29    4.20
  -8 -10  -3   59.79    4.40
   8  10   3   62.29    7.70
  -9 -10  -3  497.45   18.20
  -9 -10  -3  497.65   17.20
   9  10   3  492.05   22.00
 -10 -10  -3  238.98   10.20
  10  10   3  251.77   12.40
  10  10   3  265.67   14.40
   6 -11  -3    6.00    1.80
   6 -11  -3    3.70    1.50
  -6  11   3    5.80    3.40
   5 -11  -3  100.19    6.00
   5 -11  -3  101.29    5.40
  -5  11   3   92.69    7.10
   4 -11  -3  169.58    8.00
   4 -11  -3  176.18    8.50
  -4  11   3  169.58    9.30
   3 -11  -3  351.96   13.30
   3 -11  -3  360.16   12.80
  -3  11   3  352.96   14.40
  -3  11   3  351.56   15.10
   2 -11  -3  458.85   15.80
  -2  11   3  465.75   18.40
  -2  11   3  461.35   17.10
   1 -11  -3  729.13   94.09
   1 -11  -3  772.52   24.70
  -1  11   3  789.62   27.60
  -1  11   3  799.52   25.80
  -1  11   3  715.43   87.99
   0 -11  -3   74.09   36.40
   0 -11  -3  136.09    6.30
   0  11   3  141.89    7.20
   0  11   3  136.29    9.10
   0  11   3   98.09   33.40
  -1 -11  -3   45.10    3.20
  -1 -11  -3  -14.40   27.70
   1  11   3   45.80    6.60
   1  11   3   74.19   21.80
   1  11   3   49.00    4.80
  -2 -11  -3  139.89    6.50
  -2 -11  -3   70.99   33.50
  -2 -11  -3  147.39    5.00
   2  11   3  145.49   10.20
   2  11   3  147.79    6.60
   2  11   3  111.09   35.50
  -3 -11  -3  991.00   27.90
  -3 -11  -3  856.51  104.39
  -3 -11  -3  960.40   29.70
   3  11   3  937.11   34.20
   3  11   3  964.60   28.90
   3  11   3  828.42   88.89
  -4 -11  -3  301.37    9.90
  -4 -11  -3  297.07   11.30
  -4 -11  -3  265.37   60.29
   4  11   3  279.47   15.40
   4  11   3  296.27   72.49
  -5 -11  -3    5.80    1.30
  -5 -11  -3    9.30    2.00
   5  11   3    2.00    4.60
  -6 -11  -3   38.10    2.70
  -6 -11  -3   35.60    4.90
   6  11   3   42.80    8.10
  -7 -11  -3    4.90    1.40
  -7 -11  -3    4.50    1.50
   7  11   3    5.40    4.60
  -8 -11  -3  162.48    8.10
  -8 -11  -3  158.98    7.10
   8  11   3  150.78   11.40
  -9 -11  -3   26.90    2.80
  -9 -11  -3   22.50    3.20
   5 -12  -3   36.20    3.30
   5 -12  -3   46.10    4.00
  -5  12   3   39.90    5.50
   4 -12  -3   42.80    3.50
  -4  12   3   45.60    6.90
  -4  12   3   38.40    5.30
   3 -12  -3  144.09    6.90
  -3  12   3  151.58    8.60
  -3  12   3  135.79    9.70
   2 -12  -3    2.50    1.30
  -2  12   3    4.10    3.90
  -2  12   3    4.00    2.80
  -1  12   3   10.00    3.30
  -1  12   3    5.80    4.20
   0 -12  -3   83.69    4.90
   0  12   3   87.29    8.50
   0  12   3   96.69    6.00
  -1 -12  -3   47.40    3.50
   1  12   3   45.80    7.40
   1  12   3   51.99    4.40
  -2 -12  -3  612.14   20.90
   2  12   3  606.74   25.00
   2  12   3  652.33   21.90
  -3 -12  -3  213.98   11.60
  -3 -12  -3  208.88    7.00
   3  12   3  178.88   13.70
  -4 -12  -3   19.50    1.70
  -4 -12  -3   15.90    2.70
   4  12   3   11.30    5.90
  -5 -12  -3   25.70    2.70
  -5 -12  -3   27.20    2.10
   5  12   3   22.00    6.40
  -6 -12  -3  475.35   17.10
   6  12   3  455.55   22.20
  -7 -12  -3  241.68   10.80
  -7 -12  -3  227.08   10.20
   7  12   3  209.48   14.50
  -8 -12  -3   68.99    4.20
  -8 -12  -3   69.99    5.10
   8  12   3   82.39    8.60
   4 -13  -3  578.04   20.30
  -4  13   3  609.94   22.50
  -4  13   3  582.34   23.50
   3 -13  -3   67.49    4.50
  -3  13   3   76.19    6.60
  -3  13   3   65.09    8.10
   2 -13  -3    5.80    1.60
  -2  13   3    1.20    4.10
  -2  13   3   11.30    3.50
   1 -13  -3   60.09    4.20
  -1  13   3   61.79    6.10
  -1  13   3   57.79    7.90
   0 -13  -3  361.16   13.80
   0  13   3  395.16   14.90
   0  13   3  370.76   17.90
  -1 -13  -3  195.88    8.70
   1  13   3  187.48   12.80
   1  13   3  206.88    9.20
  -2 -13  -3  138.39    7.10
   2  13   3  163.98    7.20
   2  13   3  146.69   11.70
  -3 -13  -3  324.07   12.40
   3  13   3  303.97   17.20
  -4 -13  -3   53.69    3.10
  -4 -13  -3   46.00    3.80
   4  13   3   58.19    8.90
  -5 -13  -3  158.18    6.20
  -5 -13  -3  150.78    7.70
   5  13   3  146.59   12.60
  -6 -13  -3    4.50    1.80
  -6 -13  -3    4.10    1.20
   6  13   3    5.10    5.30
  -7 -13  -3  142.79    7.80
   7  13   3  150.98   12.60
   2 -14  -3    0.60    1.10
  -2  14   3    0.30    4.90
  -2  14   3    9.00    3.00
   1 -14  -3  258.07   10.90
  -1  14   3  277.77   12.30
  -1  14   3  258.17   15.10
   0 -14  -3   49.70    4.10
   0  14   3   52.69    9.10
   0  14   3   57.89    5.20
  -1 -14  -3   21.60    2.80
   1  14   3   26.20    7.50
  -2 -14  -3   24.10    2.90
   2  14   3   22.40    7.20
  -3 -14  -3  122.19    6.70
   3  14   3  125.69   12.10
  -4 -14  -3   62.39    4.70
   4  14   3   60.39    9.60
  -5 -14  -3   72.99    5.10
   5  14   3   65.89   10.30
  -2 -14   4   71.69    5.00
   1  14  -4  330.47   17.40
  -1 -14   4  307.87   12.70
   0  14  -4  194.78    8.50
   0  14  -4  179.38   12.80
   0 -14   4  149.49    8.10
  -1  14  -4   22.00    6.10
   2 -14   4    0.20    1.40
   3 -14   4   27.30    3.90
   4  13  -4   20.00    5.70
  -3 -13   4   20.10    2.60
  -3 -13   4   22.20    2.20
   2  13  -4   12.10    6.20
  -2 -13   4    5.40    1.30
  -2 -13   4    5.10    1.80
   1  13  -4    6.80    5.80
  -1 -13   4    2.00    1.00
  -1 -13   4    2.00    1.40
   0  13  -4  105.29   11.30
   0  13  -4  125.99    6.70
   0 -13   4   92.59    5.70
  -1  13  -4   20.60    6.60
  -1  13  -4   16.80    3.60
   1 -13   4   16.30    2.90
  -2  13  -4  157.18    8.50
   2 -13   4  140.79    7.30
  -3  13  -4  173.68    9.40
  -3  13  -4  175.28   11.90
   3 -13   4  156.38    8.00
  -4  13  -4    9.10    5.20
  -4  13  -4    9.40    2.20
  -5  13  -4   34.60    8.20
   5 -13   4   28.00    3.30
  -6 -12   4   31.50    3.10
  -6 -12   4   33.60    3.20
   5  12  -4    9.10    4.00
  -5 -12   4    3.90    1.40
  -5 -12   4    6.80    1.70
   4  12  -4  267.07   14.90
  -4 -12   4  276.57   10.20
   3  12  -4  375.56   13.00
   3  12  -4  370.06   18.40
  -3 -12   4  376.46   13.80
   2  12  -4    7.30    5.00
  -2 -12   4    2.40    1.00
   1  12  -4    7.60    5.40
   1  12  -4    7.20    2.00
  -1 -12   4    2.80    1.00
  -1 -12   4    0.40    1.00
   0  12  -4   49.99    8.50
   0  12  -4   43.70    3.80
   0 -12   4   34.30    3.10
   0 -12   4   37.70    2.40
  -1  12  -4   10.30    2.50
  -1  12  -4    8.90    5.80
   1 -12   4    8.00    1.20
   1 -12   4    7.30    2.80
  -2  12  -4    6.60    2.70
   2 -12   4    8.40    1.90
  -3  12  -4  134.79   10.30
  -3  12  -4  133.89    8.00
   3 -12   4  132.39    6.80
  -4  12  -4  291.07   14.20
  -4  12  -4  263.17   12.40
   4 -12   4  262.57   11.20
  -5  12  -4   30.40    6.20
  -5  12  -4   34.00    4.70
   5 -12   4   26.40    3.00
  -6  12  -4  211.28   10.90
   6 -12   4  192.18    9.20
   7  11  -4   14.90    4.10
  -7 -11   4    6.90    2.00
   6  11  -4   34.90    5.60
  -6 -11   4   28.70    2.90
  -6 -11   4   27.20    2.80
   5  11  -4    9.40    4.30
  -5 -11   4    5.90    1.50
   4  11  -4   11.50    6.40
  -4 -11   4   16.20    2.10
  -4 -11   4   15.80    2.40
   3  11  -4  201.48   12.70
   3  11  -4  198.48    7.80
  -3 -11   4   17.20   70.09
  -3 -11   4  198.58    7.70
  -3 -11   4  191.38    8.20
   2  11  -4  187.48   58.99
   2  11  -4  323.27   11.80
   2  11  -4  321.07   16.10
  -2 -11   4  330.87   12.00
  -2 -11   4  358.26   85.09
   1  11  -4  137.59    6.70
   1  11  -4  140.99   10.70
   1  11  -4   78.09   39.00
  -1 -11   4  142.99    6.50
  -1 -11   4  139.79    5.60
  -1 -11   4   87.79   54.09
   0  11  -4  156.08   46.50
   0  11  -4  212.78    9.30
   0  11  -4  203.58   12.50
   0 -11   4  159.08   58.09
   0 -11   4  214.58    8.70
   0 -11   4  214.68    7.40
  -1  11  -4  -22.90   23.80
   1 -11   4  -23.60   42.70
  -2  11  -4   31.60    3.90
  -2  11  -4    7.50   29.80
   2 -11   4   29.10    2.70
   2 -11   4    0.60   37.10
   2 -11   4   31.20    1.90
  -3  11  -4  -13.60   26.90
   3 -11   4  -28.10   43.30
  -4  11  -4   -1.20    4.00
   4 -11   4    3.00    1.20
  -5  11  -4   77.29    6.20
  -5  11  -4   80.59    7.30
   5 -11   4   70.29    4.70
  -6  11  -4   63.79    6.00
  -6  11  -4   56.19    6.50
   6 -11   4   64.79    4.50
  -7  11  -4  178.18   10.10
   7 -11   4  172.98    8.50
   8  10  -4   78.09    6.70
  -8 -10   4   60.39    4.40
   7  10  -4  133.99    9.60
  -7 -10   4  139.09    6.90
  -7 -10   4  164.38    6.90
   6  10  -4  197.38   11.90
  -6 -10   4  205.48    8.30
  -6 -10   4  208.18    8.60
  -5 -10   4    2.70    1.20
  -5 -10   4    2.80    1.30
   4  10  -4   25.40    5.60
   4  10  -4   31.40    2.20
  -4 -10   4   26.20    2.50
  -4 -10   4   29.10    2.50
  -4 -10   4   33.60   39.50
   3  10  -4   82.69   46.40
   3  10  -4  112.29    9.20
   3  10  -4  110.89    5.10
  -3 -10   4  112.09    5.40
  -3 -10   4  112.89    5.10
   2  10  -4   98.09    8.70
   2  10  -4   84.39    4.60
   2  10  -4   14.90   33.40
  -2 -10   4    8.70   32.60
  -2 -10   4   91.39    4.60
  -2 -10   4   93.49    4.70
   1  10  -4  155.78   10.50
   1  10  -4  156.88    7.50
   1  10  -4  112.19   40.20
  -1 -10   4  156.68    6.70
  -1 -10   4  158.88    6.00
   0  10  -4  433.46   72.39
   0  10  -4  418.16   15.00
   0  10  -4  397.46   17.70
   0 -10   4  432.96   14.50
   0 -10   4  359.66   68.69
   0 -10   4  426.16   13.30
  -1  10  -4  384.26   71.39
  -1  10  -4  476.55   16.90
   1 -10   4  400.86   93.69
   1 -10   4  487.25   16.10
   1 -10   4  475.45   14.60
  -2  10  -4    3.00    3.70
  -2  10  -4    9.00    2.50
  -2  10  -4   14.20   21.50
   2 -10   4    9.00    1.20
   2 -10   4    9.80    1.80
   2 -10   4   30.10   25.40
  -3  10  -4  292.37   13.10
  -3  10  -4  291.07   12.30
  -3  10  -4  252.17   61.79
   3 -10   4  295.27    9.30
   3 -10   4  275.57   66.09
   3 -10   4  292.37   11.10
  -4  10  -4    1.40    2.00
  -4  10  -4  -15.00   22.90
  -4  10  -4    4.20    3.40
   4 -10   4    3.20    0.80
   4 -10   4   14.90   36.30
   4 -10   4    2.00    1.10
  -5  10  -4  -16.40   22.10
  -5  10  -4    0.40    1.90
  -5  10  -4   -1.10    2.90
   5 -10   4    2.40    1.40
   5 -10   4  -28.20   44.30
  -6  10  -4   43.70    4.80
  -6  10  -4   35.50    5.10
   6 -10   4   39.60    3.40
  -7  10  -4   15.20    5.50
  -7  10  -4   15.90    3.80
   7 -10   4   12.10    2.30
  -8  10  -4  121.39    8.10
   8 -10   4  108.89    6.40
   8   9  -4  101.89    7.50
   8   9  -4   75.19    5.40
  -8  -9   4   94.49    5.50
   7   9  -4   44.90    5.60
  -7  -9   4   38.50    3.30
  -7  -9   4   39.00    2.90
   6   9  -4  289.07   15.40
  -6  -9   4  301.77   11.30
  -6  -9   4  314.27   11.10
   5   9  -4  273.47   13.80
   5   9  -4  283.87   77.29
  -5  -9   4  274.67   10.10
  -5  -9   4  266.47   10.10
   4   9  -4   -3.90   24.80
  -4  -9   4  -34.80   26.20
   3   9  -4   13.30   26.70
   3   9  -4   32.10    6.00
   3   9  -4   30.40    2.40
  -3  -9   4   31.90    2.50
  -3  -9   4    2.40   27.70
  -3  -9   4   33.10    2.50
   2   9  -4   37.50    2.80
   2   9  -4   43.00    6.40
   2   9  -4   44.40   28.10
  -2  -9   4   57.29   29.40
  -2  -9   4   34.90    2.50
  -2  -9   4   40.30    3.50
   1   9  -4   15.00    6.00
   1   9  -4   35.60   23.30
   1   9  -4   13.60    2.20
  -1  -9   4   14.20    1.70
  -1  -9   4   26.90   27.10
   0   9  -4   74.19    4.60
   0   9  -4   66.99    7.20
   0   9  -4   51.69   23.20
   0  -9   4   78.19    3.50
   0  -9   4   73.79   28.40
   0  -9   4   75.59    4.00
  -1   9  -4  227.78   11.00
  -1   9  -4  248.38   14.90
  -1   9  -4  216.08   50.89
   1  -9   4  246.98    9.10
   1  -9   4  308.77   57.09
   1  -9   4  238.18    8.10
  -2   9  -4  340.67   13.30
  -2   9  -4  337.67   58.69
   2  -9   4  330.97   65.19
   2  -9   4  366.46   12.60
   2  -9   4  357.96   11.20
  -3   9  -4  114.29   42.10
  -3   9  -4   72.59    5.30
  -3   9  -4   81.89    6.30
   3  -9   4   80.19    4.50
   3  -9   4   98.19   39.20
   3  -9   4   78.39    3.30
  -4   9  -4  348.37   13.40
  -4   9  -4  335.17   13.70
  -4   9  -4  317.77   71.49
   4  -9   4  327.67   61.29
   4  -9   4  349.17   10.90
   4  -9   4  353.06   12.70
  -5   9  -4   52.49    4.90
  -5   9  -4   64.69   32.50
  -5   9  -4   53.79    4.90
   5  -9   4   54.19    3.80
   5  -9   4   95.19   34.90
   5  -9   4   53.79    2.70
  -6   9  -4   59.19    5.30
  -6   9  -4  104.79   28.00
  -6   9  -4   59.89    5.10
   6  -9   4   58.49    4.10
   6  -9   4   -5.40   35.30
   6  -9   4   59.09    3.00
  -7   9  -4    7.90    2.90
  -7   9  -4   11.80    3.30
   7  -9   4    7.30    1.50
   7  -9   4    9.30    2.00
  -8   9  -4    5.00    2.30
  -8   9  -4   10.00    3.60
   8  -9   4    3.60    1.40
  -9   9  -4   95.29    7.00
   9  -9   4   92.69    5.70
   9   8  -4    5.40    2.10
  -9  -8   4    0.50    1.10
   8   8  -4   10.20    2.60
   8   8  -4    0.10    2.10
  -8  -8   4    3.20    1.50
   7   8  -4  112.89    8.10
  -7  -8   4  126.19    5.50
  -7  -8   4  114.29    5.90
   6   8  -4   -9.80   48.20
   6   8  -4   21.00   41.80
   5   8  -4  215.18   64.49
   5   8  -4  273.77   13.40
  -5  -8   4  271.87   10.20
  -5  -8   4  295.07   10.10
   4   8  -4  353.66   78.39
   4   8  -4  387.56   13.00
   4   8  -4  391.66   16.90
  -4  -8   4  398.36   13.20
  -4  -8   4  399.46   13.30
  -4  -8   4  425.26   73.99
   3   8  -4  153.48   44.80
   3   8  -4  137.69    8.70
   3   8  -4  127.19    5.50
  -3  -8   4  134.69    5.50
  -3  -8   4   83.99   30.60
   2   8  -4  199.38   54.59
   2   8  -4  244.08   11.90
   2   8  -4  221.28    8.40
  -2  -8   4  222.68    8.20
  -2  -8   4  213.58   55.69
  -2  -8   4  225.28    8.00
   1   8  -4   18.10    2.20
   1   8  -4   25.40   22.60
   1   8  -4   25.30    5.00
  -1  -8   4   -5.40   18.40
  -1  -8   4   20.20    1.80
  -1  -8   4   19.60    1.80
   0   8  -4   -2.70   18.10
   0   8  -4   10.20    4.30
   0  -8   4  -16.70   16.40
  -1   8  -4   49.40   25.70
  -1   8  -4   72.69    4.70
   1  -8   4   63.99   32.70
   1  -8   4   76.99    3.40
   1  -8   4   79.49    3.90
  -2   8  -4  346.17   13.70
  -2   8  -4  304.67   66.49
  -2   8  -4  328.57   13.00
   2  -8   4  385.16   11.30
   2  -8   4  409.76   62.69
  -3   8  -4  326.07   12.50
  -3   8  -4  316.27   12.50
  -3   8  -4  386.56   59.19
   3  -8   4  338.07   58.29
   3  -8   4  326.87   10.30
   3  -8   4  314.47   11.50
  -4   8  -4   40.40    4.30
  -4   8  -4   36.20    3.90
  -4   8  -4   60.69   33.10
   4  -8   4   33.90   27.40
   4  -8   4   40.10    2.30
   4  -8   4   40.40    3.00
  -5   8  -4  231.88    9.30
  -5   8  -4  219.38   10.10
  -5   8  -4  192.18   51.69
   5  -8   4  202.18   53.39
   5  -8   4  225.08    7.70
   5  -8   4  221.38    9.00
  -6   8  -4  -12.70   26.90
   6  -8   4    4.40   30.40
  -7   8  -4  110.19    5.80
  -7   8  -4   70.09   33.50
  -7   8  -4  103.29    6.90
   7  -8   4  106.69    5.80
   7  -8   4   82.69   50.49
   7  -8   4  102.39    4.60
  -8   8  -4   40.10    5.00
  -8   8  -4   39.20   45.90
  -8   8  -4   40.70    2.70
   8  -8   4   39.80    3.60
   8  -8   4   53.69    2.50
   8  -8   4  -30.00   43.80
  -9   8  -4   30.20    4.60
   9  -8   4   27.40    3.30
 -10   8  -4   11.70    3.20
   9   7  -4  102.09    7.30
  -9  -7   4   79.79    5.20
   8   7  -4   24.40    3.20
   8   7  -4   30.80    4.30
  -8  -7   4   24.70    2.70
   7   7  -4    0.50    1.70
   7   7  -4  -18.50   29.60
   7   7  -4  -74.49   53.59
   7   7  -4    2.90    1.80
  -7  -7   4    0.60    1.00
   6   7  -4    4.50    2.80
   6   7  -4   -7.80   27.70
   6   7  -4  -41.20   31.10
  -6  -7   4    3.10    1.30
  -6  -7   4    2.50    0.90
   5   7  -4   22.50   25.30
   5   7  -4    3.60    1.00
   5   7  -4    2.50    2.40
   5   7  -4    8.10   20.30
  -5  -7   4    2.60    1.20
  -5  -7   4    6.60    1.30
   4   7  -4  201.78   10.60
   4   7  -4  198.58    7.30
   4   7  -4  213.58   61.29
  -4  -7   4  200.68    7.60
  -4  -7   4  199.28    7.40
   3   7  -4  136.29    5.70
   3   7  -4  115.19   42.40
   3   7  -4  144.29    8.60
  -3  -7   4  188.18   51.99
  -3  -7   4  147.39    5.80
  -3  -7   4  142.69    5.60
   2   7  -4  192.98   48.70
   2   7  -4  215.58    8.20
   2   7  -4  229.28   11.20
  -2  -7   4  235.58    8.00
  -2  -7   4  226.18    8.00
  -2  -7   4  242.88   57.69
   1   7  -4  407.46   13.60
   1   7  -4  403.46   16.10
   1   7  -4  386.46   61.19
  -1  -7   4  407.56   13.10
  -1  -7   4  422.96   63.59
  -1  -7   4  414.96   12.90
   0   7  -4   27.80    2.70
   0   7  -4   30.30    5.10
   0   7  -4    3.10   16.60
   0  -7   4   32.00    2.10
   0  -7   4   55.09   26.90
  -1   7  -4  120.59    6.00
  -1   7  -4  109.89   34.70
   1  -7   4  137.49   39.80
   1  -7   4  124.99    4.80
   1  -7   4  133.79    5.30
  -2   7  -4   10.30    3.40
  -2   7  -4   31.80   19.20
  -2   7  -4   14.70    2.80
   2  -7   4   12.00    1.50
   2  -7   4   11.80    1.50
   2  -7   4    1.10   15.80
  -3   7  -4   52.69   22.00
  -3   7  -4   45.20    3.80
  -3   7  -4   48.40    4.30
   3  -7   4   45.30    2.50
   3  -7   4   42.70    2.90
   3  -7   4   59.69   30.90
  -4   7  -4    6.70    2.40
  -4   7  -4   10.50   24.70
  -4   7  -4    3.50    1.90
   4  -7   4    3.90    1.10
   4  -7   4    2.90    1.10
  -5   7  -4   73.29   35.00
  -5   7  -4   79.89    5.30
  -5   7  -4   81.49    4.70
   5  -7   4   80.39    3.70
   5  -7   4   87.59   35.80
   5  -7   4   76.59    4.30
  -6   7  -4  217.98    9.80
  -6   7  -4  217.58    7.90
  -6   7  -4  229.78   54.99
   6  -7   4  205.68    7.30
   6  -7   4  183.58   49.20
   6  -7   4  215.88    8.80
  -7   7  -4   96.59   34.50
  -7   7  -4   61.49    5.20
  -7   7  -4   68.09    3.40
   7  -7   4   62.79    3.00
   7  -7   4   -1.20   32.50
   7  -7   4   57.79    4.10
  -8   7  -4    8.90   26.00
  -8   7  -4   40.90    4.80
  -8   7  -4   43.30    2.80
   8  -7   4   47.00    2.40
   8  -7   4   38.80   40.60
   8  -7   4   42.00    3.60
  -9   7  -4    9.80    1.70
  -9   7  -4    9.90    3.20
   9  -7   4    5.70    1.70
 -10   7  -4  137.79    6.50
 -10   7  -4  153.28    8.80
  10  -7   4  143.39    7.40
  10   6  -4  131.59    8.30
 -10  -6   4  107.69    6.40
   9   6  -4   85.89    4.70
   9   6  -4   88.39    6.60
  -9  -6   4   80.99    5.00
   8   6  -4   49.20   56.89
   8   6  -4  100.19    7.10
   8   6  -4  101.69    5.10
  -8  -6   4   91.59    5.20
   7   6  -4   97.99   49.80
   7   6  -4  141.09    8.60
   7   6  -4  136.39   55.89
   7   6  -4  151.68    6.50
  -7  -6   4  151.58    6.70
   6   6  -4   27.90    3.90
   6   6  -4   44.90   35.70
   6   6  -4    5.60   21.90
  -6  -6   4   27.80    2.10
  -6  -6   4   26.50    2.50
   5   6  -4   -4.10   21.10
   5   6  -4    7.70   24.00
   5   6  -4   24.60    4.60
   5   6  -4   20.80    1.70
  -5  -6   4   21.60    2.10
  -5  -6   4   22.30    1.70
   4   6  -4   12.20    3.80
   4   6  -4   12.70    1.40
   4   6  -4    4.10   18.10
  -4  -6   4   14.30    1.40
  -4  -6   4   14.40    1.80
   3   6  -4    4.70   17.80
   3   6  -4    3.30    2.90
   3   6  -4    7.80    1.10
  -3  -6   4   13.80   21.80
  -3  -6   4    5.80    1.30
   2   6  -4   19.60    1.90
   2   6  -4   17.30    4.00
   2   6  -4   21.30   19.00
  -2  -6   4   21.10   19.90
  -2  -6   4   23.40    1.60
  -2  -6   4   23.50    1.90
   1   6  -4  579.84   68.39
   1   6  -4  655.43   22.40
   1   6  -4  634.64   20.20
  -1  -6   4  648.94   19.70
  -1  -6   4  672.83   19.70
  -1  -6   4  732.43   75.39
   0   6  -4  997.50   31.60
   0   6  -4  987.00   88.39
   0   6  -4  950.50   30.00
   0  -6   4  986.50   29.40
   0  -6   4 1004.90   29.20
   0  -6   4 1115.99   92.19
  -1   6  -4   43.60   19.80
  -1   6  -4   36.40    3.00
   1  -6   4   46.00   23.10
   1  -6   4   44.20    2.50
  -2   6  -4   65.39   24.50
  -2   6  -4   74.19    4.50
  -2   6  -4   75.19    5.10
   2  -6   4   77.29    3.70
   2  -6   4   82.99   28.20
  -3   6  -4   21.80    3.20
  -3   6  -4   21.40   13.40
  -3   6  -4   22.10    2.90
   3  -6   4   21.30    2.90
   3  -6   4   16.90    1.80
   3  -6   4    5.80   11.90
  -4   6  -4  101.89    5.80
  -4   6  -4   97.59   35.50
  -4   6  -4  113.19    5.30
   4  -6   4  114.19    4.50
   4  -6   4  113.29   36.00
   4  -6   4  116.89    5.20
  -5   6  -4  103.59   32.30
  -5   6  -4  167.38    8.60
  -5   6  -4  172.38    6.30
   5  -6   4  167.98    7.20
   5  -6   4  166.28    5.80
   5  -6   4  213.38   41.30
  -6   6  -4   -1.50   17.70
  -6   6  -4   15.10    1.50
  -6   6  -4   15.00    3.10
   6  -6   4   26.90   20.40
   6  -6   4   13.60    1.90
   6  -6   4   15.80    1.30
  -7   6  -4    9.90   24.30
  -7   6  -4    3.50    2.20
  -7   6  -4    2.20    0.70
   7  -6   4    1.00    1.10
   7  -6   4    1.80    0.60
   7  -6   4   12.50   25.40
  -8   6  -4    0.60    2.10
  -8   6  -4    1.60    0.90
   8  -6   4  -19.30   42.10
   8  -6   4    1.60    0.70
   8  -6   4    1.10    1.30
  -9   6  -4  197.28   51.79
  -9   6  -4   62.59    3.60
  -9   6  -4   62.19    5.50
   9  -6   4   60.49   66.39
   9  -6   4   59.89    6.20
   9  -6   4   79.49    3.30
 -10   6  -4   34.60    4.30
 -10   6  -4   22.50    2.30
  10  -6   4   29.40    3.20
 -11   6  -4   14.00    2.10
 -11   6  -4   15.50    3.40
  11  -6   4   19.20    2.70
  10   5  -4    8.90    2.80
   9   5  -4    9.70    2.50
  -9  -5   4    7.90    2.00
   8   5  -4  -54.79   47.50
   8   5  -4    3.20    2.10
  -8  -5   4    1.80    1.20
   7   5  -4  133.19   51.29
   7   5  -4  112.79    5.00
   7   5  -4  103.39    7.00
   7   5  -4   91.19   46.50
  -7  -5   4  101.29    5.20
   6   5  -4  198.18   10.00
   6   5  -4  217.28   55.29
   6   5  -4   88.19   45.80
   6   5  -4  202.08    7.70
  -6  -5   4  216.78    7.30
  -6  -5   4  208.18    8.00
   5   5  -4   11.90   32.10
   5   5  -4   52.69   28.10
   5   5  -4   12.30    3.10
   5   5  -4   11.20    1.30
  -5  -5   4   15.00    1.40
  -5  -5   4   11.20    1.70
   4   5  -4  166.38   52.09
   4   5  -4  228.78   55.19
   4   5  -4  191.58    9.40
   4   5  -4  196.68    7.10
  -4  -5   4  202.58    7.40
  -4  -5   4  206.38    7.00
   3   5  -4  123.19    5.50
   3   5  -4  128.59    7.30
   3   5  -4  144.29   38.80
  -3  -5   4  134.79    5.20
  -3  -5   4  128.99   39.70
   2   5  -4   77.59    3.70
   2   5  -4   69.99    5.40
   2   5  -4   57.99   28.40
  -2  -5   4   62.69   27.40
  -2  -5   4   80.39    3.30
  -2  -5   4   82.69    3.60
   1   5  -4  192.08    8.70
   1   5  -4  200.48    7.10
   1   5  -4  176.18   43.60
  -1  -5   4  196.78    6.70
  -1  -5   4  220.98   48.70
  -1  -5   4  180.88    7.10
   0   5  -4   15.50    1.70
   0   5  -4   38.10   16.00
   0   5  -4   23.20    3.70
   0  -5   4   19.00   13.00
   0  -5   4   17.10    1.30
  -1   5  -4    8.00    1.80
  -1   5  -4   -0.80    9.30
  -1   5  -4    7.80    2.70
   1  -5   4   13.40   12.40
   1  -5   4    7.60    1.10
   1  -5   4    7.00    0.90
  -2   5  -4    5.80   11.60
  -2   5  -4   15.40    2.60
  -2   5  -4   12.90    2.00
   2  -5   4   15.90    1.40
   2  -5   4    6.00    4.50
  -3   5  -4  355.66   13.00
  -3   5  -4  382.06   12.30
  -3   5  -4  408.76   52.19
   3  -5   4  379.96   12.50
   3  -5   4  388.26   11.90
  -4   5  -4  619.64   18.60
  -4   5  -4  596.54   66.79
  -4   5  -4  619.54   18.50
  -4   5  -4  582.54   19.70
   4  -5   4  611.74   19.20
  -5   5  -4   19.60    3.00
  -5   5  -4   24.00    1.70
  -5   5  -4   19.90   15.70
   5  -5   4   14.50   13.10
   5  -5   4   23.40    1.40
   5  -5   4   22.30    2.20
  -6   5  -4  214.68    7.60
  -6   5  -4  251.57   58.89
  -6   5  -4  203.48   12.00
   6  -5   4  208.78    7.10
   6  -5   4  223.28    8.60
  -7   5  -4  143.79    7.40
  -7   5  -4  150.18    5.90
  -7   5  -4  134.19   42.40
   7  -5   4  151.68    6.80
   7  -5   4  145.29    5.40
  -8   5  -4  697.83   23.00
  -8   5  -4  610.14   90.49
  -8   5  -4  677.73   20.90
   8  -5   4  661.03   22.10
   8  -5   4  651.03   20.30
  -9   5  -4  101.29    6.50
  -9   5  -4   37.50   34.20
  -9   5  -4  108.49    5.00
   9  -5   4  100.29    5.80
   9  -5   4  111.39    4.60
 -10   5  -4  105.19    9.30
 -10   5  -4   90.59    4.80
  10  -5   4  114.49    4.50
  10  -5   4   95.39    5.80
 -11   5  -4  112.09    6.90
 -11   5  -4  101.19    5.40
  11  -5   4  108.79    6.20
  10   4  -4  104.09    7.50
 -10  -4   4   97.29    5.70
   9   4  -4  -27.60   65.79
   8   4  -4   65.49   37.70
   8   4  -4   12.70    3.00
   8   4  -4   -3.80   46.00
   7   4  -4   70.29   37.20
   7   4  -4   25.00   23.50
   7   4  -4   20.40    3.30
  -7  -4   4   15.60    1.90
  -7  -4   4   14.90    2.00
   6   4  -4   32.40    2.50
   6   4  -4   30.60    3.60
   6   4  -4   37.30   31.30
   6   4  -4   28.10   23.20
  -6  -4   4   32.70    2.40
  -6  -4   4   32.90    2.60
   5   4  -4   14.10    3.00
   5   4  -4   12.90    1.30
   5   4  -4   10.50    1.70
   5   4  -4   -5.60   25.10
   5   4  -4   15.00   25.50
   4   4  -4   11.10    1.30
   4   4  -4   15.10   17.50
   4   4  -4  -13.40   12.60
   4   4  -4    8.30    2.60
  -4  -4   4   11.90    1.80
  -4  -4   4   12.60    1.10
   3   4  -4 1774.72  122.49
   3   4  -4 1669.63   51.09
   3   4  -4 1676.43   49.20
  -3  -4   4 1661.63   48.50
  -3  -4   4 1755.72   49.20
   2   4  -4 1454.95   42.20
   2   4  -4 1496.75  105.79
   2   4  -4 1414.46   43.60
  -2  -4   4 1391.36   41.30
  -2  -4   4 1496.15   41.80
   1   4  -4    9.50    9.30
   1   4  -4    2.30    0.80
  -1  -4   4    1.70    0.70
  -1  -4   4    2.50    0.50
   0   4  -4  283.97   40.20
   0   4  -4  271.27    9.30
   0  -4   4  268.27    8.60
   0  -4   4  272.57    8.70
  -1   4  -4  707.03   61.49
  -1   4  -4  725.33   22.10
  -1   4  -4  717.43   22.20
   1  -4   4  728.43   21.30
   1  -4   4  735.63   22.20
   1  -4   4  700.03   21.30
  -2   4  -4  987.90   29.70
  -2   4  -4 1033.50   29.20
  -2   4  -4 1004.80   75.89
  -2   4  -4  871.71   28.20
   2  -4   4 1004.00   29.00
   2  -4   4 1028.10   29.10
  -3   4  -4   10.40    1.90
  -3   4  -4   18.70   14.10
   3  -4   4   10.60    1.30
  -4   4  -4  113.49    4.40
  -4   4  -4  101.89   30.20
  -4   4  -4  110.39    5.40
   4  -4   4  112.59    4.90
  -5   4  -4  458.75   62.49
  -5   4  -4  402.06   14.00
  -5   4  -4  466.45   13.90
  -5   4  -4  446.06   15.10
   5  -4   4  454.35   14.70
  -6   4  -4   33.80    2.10
  -6   4  -4   36.50   24.60
  -6   4  -4   37.50    3.50
   6  -4   4   32.00    1.80
   6  -4   4   34.20    2.80
  -7   4  -4  121.49   41.40
  -7   4  -4  142.09    5.60
  -7   4  -4  153.38   10.30
   7  -4   4  131.59    5.50
   7  -4   4  141.09    6.50
  -8   4  -4  171.68    6.80
  -8   4  -4  169.58    8.20
  -8   4  -4  209.78   60.29
   8  -4   4  175.28    7.70
   8  -4   4  172.88    6.50
  -9   4  -4  158.98   49.99
  -9   4  -4  224.58   10.00
  -9   4  -4  218.88    8.40
   9  -4   4  220.38    8.10
   9  -4   4  230.58    9.50
 -10   4  -4   31.80    4.00
 -10   4  -4   23.90    2.30
 -11   4  -4  131.69    6.50
 -11   4  -4  138.09    7.70
  11  -4   4  140.29    7.20
  10   3  -4   28.30    3.60
 -10  -3   4   21.30    2.70
   9   3  -4  242.08   82.19
   9   3  -4  297.67   70.39
   9   3  -4  348.57   15.20
  -9  -3   4  341.27   12.70
  -9  -3   4  355.96   12.10
   8   3  -4  184.58    9.60
   8   3  -4  209.48   54.39
   8   3  -4  185.08    6.80
   8   3  -4  113.79   66.79
  -8  -3   4  187.68    7.80
  -8  -3   4  187.38    7.30
   7   3  -4   59.69    4.90
   7   3  -4   53.29   29.70
   7   3  -4   65.59    3.30
   7   3  -4   41.30   38.80
  -7  -3   4   66.19    3.60
  -7  -3   4   68.39    3.80
   6   3  -4   54.89   33.90
   6   3  -4   50.69   26.70
   6   3  -4   61.59    4.80
  -6  -3   4   69.79    3.50
  -6  -3   4   73.69    3.80
   5   3  -4  301.87   66.29
   5   3  -4  267.57   11.30
  -5  -3   4  283.67    9.80
  -5  -3   4  291.27    9.50
   4   3  -4   55.69    2.90
   4   3  -4   78.49   29.70
   4   3  -4   51.09    4.00
   4   3  -4   35.60   29.00
  -4  -3   4   56.59    3.00
   3   3  -4   25.70    1.80
   3   3  -4   24.10   10.90
   3   3  -4   36.20   22.10
   2   3  -4  879.71   26.40
   2   3  -4  927.71   28.60
   2   3  -4 1022.90   80.39
   2   3  -4  909.21   27.40
  -2  -3   4  985.90   27.20
  -2  -3   4  889.51   26.50
   1   3  -4  306.07    9.70
   1   3  -4  330.87   11.30
   1   3  -4  338.47   10.60
   1   3  -4  339.17   42.90
  -1  -3   4  327.17    9.80
  -1  -3   4  311.17   42.80
   0   3  -4  677.03   56.49
   0   3  -4  593.04   19.70
   0   3  -4  681.13   20.50
   0  -3   4  703.83   19.80
   0  -3   4  743.13   58.99
   0  -3   4  723.33   20.20
  -1   3  -4 1558.54   45.10
  -1   3  -4 1533.65   88.19
  -1   3  -4 1476.35   44.70
   1  -3   4 1559.94   44.40
   1  -3   4 1543.95   44.60
   1  -3   4 1563.34   44.50
   1  -3   4 1664.73   88.99
  -2   3  -4  184.98   28.90
  -2   3  -4  142.79    6.40
  -2   3  -4  154.88    5.50
   2  -3   4  152.18    5.50
   2  -3   4  183.98   27.50
  -3   3  -4  306.17   10.60
  -3   3  -4  311.67    9.80
  -3   3  -4  304.37   39.90
   3  -3   4  311.97   10.20
   3  -3   4  297.07   36.60
  -4   3  -4  130.09   32.60
  -4   3  -4  148.39    6.20
  -4   3  -4  154.78    5.90
   4  -3   4  185.78   32.60
   4  -3   4  152.18    6.00
  -5   3  -4  504.65   60.29
  -5   3  -4  493.75   14.90
  -5   3  -4  467.15   15.80
   5  -3   4  470.45   15.60
   5  -3   4  486.95   55.69
  -6   3  -4  106.89    5.50
  -6   3  -4  113.99   36.80
  -6   3  -4  115.19    4.50
   6  -3   4   95.79   30.30
   6  -3   4  114.49    5.40
   6  -3   4  100.89    4.00
  -7   3  -4  668.93   80.39
  -7   3  -4  633.04   19.50
  -7   3  -4  595.04   20.50
   7  -3   4  627.44   72.89
   7  -3   4  666.33   22.50
  -8   3  -4  868.01   26.00
  -8   3  -4  785.82   95.19
  -8   3  -4  837.22   27.50
   8  -3   4  914.91   95.09
   8  -3   4  852.51   27.00
   8  -3   4  820.02   25.60
  -9   3  -4   41.90    3.90
  -9   3  -4   71.79   36.30
  -9   3  -4   46.40    3.10
   9  -3   4   33.00   30.70
   9  -3   4   46.20    2.90
   9  -3   4   49.60    3.90
 -10   3  -4  136.39    6.20
 -10   3  -4  140.09    7.30
  10  -3   4  142.39    6.10
  10  -3   4  135.09    7.00
 -11   3  -4  106.79    6.60
 -11   3  -4  120.29    6.80
  11  -3   4  125.39    6.70
 -12   3  -4  438.96   16.10
  12  -3   4  479.05   17.10
  10   2  -4   24.00    3.50
 -10  -2   4   30.80    3.40
 -10  -2   4   24.60    2.80
   9   2  -4   17.50   51.29
   9   2  -4   14.30    3.60
   9   2  -4  -28.60   31.40
  -9  -2   4   19.60    4.20
  -9  -2   4   16.20    2.50
   8   2  -4  196.08   67.39
   8   2  -4  144.69    8.40
   8   2  -4  156.08    5.80
   8   2  -4  133.49   52.49
  -8  -2   4  150.18    6.50
  -8  -2   4  161.18    6.80
   7   2  -4   25.70   23.80
   7   2  -4   60.89    4.80
   7   2  -4   24.00   25.80
  -7  -2   4   54.89    3.40
  -7  -2   4   55.09    3.50
   6   2  -4  901.61   29.90
   6   2  -4  899.61  106.09
   6   2  -4  913.91   88.89
  -6  -2   4  935.01   27.60
  -6  -2   4  926.61   27.90
   5   2  -4 1580.84  135.49
   5   2  -4 1687.93  120.39
   5   2  -4 1584.64   49.20
  -5  -2   4 1664.73   47.50
   4   2  -4   43.20   21.70
   4   2  -4   30.40   25.00
   4   2  -4   42.20    3.40
   4   2  -4   46.50    2.50
  -4  -2   4   47.80    2.60
   3   2  -4    4.60    0.90
   3   2  -4    5.40    9.10
   3   2  -4    2.40    8.00
  -3  -2   4    4.50    1.00
   2   2  -4 1150.78   35.50
   2   2  -4 1382.66   88.99
  -2  -2   4 1209.08   35.20
   1   2  -4  356.56   40.50
   1   2  -4  346.37   11.30
   1   2  -4  352.36   11.60
  -1  -2   4  359.26   41.50
  -1  -2   4  358.06   10.90
   0   2  -4  418.16   12.40
   0   2  -4  359.56   11.80
   0   2  -4  402.36   39.00
   0  -2   4  375.16   12.80
   0  -2   4  391.36   12.00
   0  -2   4  409.96   11.60
   0  -2   4  448.46   41.70
  -1   2  -4  680.83   20.50
  -1   2  -4  647.24   19.90
  -1   2  -4  676.63   19.90
  -1   2  -4  672.23   48.70
   1  -2   4  680.83   20.10
   1  -2   4  687.23   19.90
   1  -2   4  687.63   20.30
   1  -2   4  755.32   50.39
  -2   2  -4 1764.22   49.70
  -2   2  -4 1699.03   88.59
  -2   2  -4 1696.53   49.20
   2  -2   4 1666.03   49.20
   2  -2   4 1792.92   86.89
  -3   2  -4   11.10    8.70
  -3   2  -4   11.00    1.50
   3  -2   4    6.50    6.60
   3  -2   4    8.70    1.20
  -4   2  -4  336.57   42.10
  -4   2  -4  354.16   11.70
  -4   2  -4  354.96   11.50
   4  -2   4  344.47   11.60
   4  -2   4  355.76   39.90
  -5   2  -4 1221.08   36.20
  -5   2  -4 1220.38   35.50
  -5   2  -4 1240.18   93.59
   5  -2   4 1237.28   87.39
   5  -2   4 1218.78   36.30
   5  -2   4 1195.78   35.00
  -6   2  -4 1214.38   34.90
  -6   2  -4 1167.88   35.60
  -6   2  -4 1202.18  101.39
   6  -2   4 1149.58   90.89
   6  -2   4 1210.48   35.80
   6  -2   4 1170.58   34.60
  -7   2  -4  103.39    4.50
  -7   2  -4  104.69    5.30
  -7   2  -4  121.59   38.20
   7  -2   4  105.19    5.40
   7  -2   4  100.89   34.60
  -8   2  -4    2.40    1.60
  -8   2  -4    4.40   14.30
   8  -2   4    0.20   17.00
   8  -2   4    5.30    1.90
  -9   2  -4   42.60   26.30
  -9   2  -4   40.20    3.60
  -9   2  -4   43.10    2.90
   9  -2   4   43.20    3.80
   9  -2   4   49.30   31.50
   9  -2   4   40.00    2.90
 -10   2  -4  114.49    5.60
  10  -2   4  110.49    6.40
  10  -2   4  130.19    5.80
  11  -2   4  439.56   15.10
  11  -2   4  411.46   15.90
 -12   2  -4    5.80    2.00
  12  -2   4    9.20    2.10
  11   1  -4  149.69    8.40
 -11  -1   4  111.49    6.50
  10   1  -4    1.10    1.70
 -10  -1   4    1.80    1.30
 -10  -1   4   -0.30    1.80
   9   1  -4   77.39   46.00
   9   1  -4   56.99    7.10
  -9  -1   4   47.40    3.90
  -9  -1   4   50.19    3.50
   8   1  -4  258.77   11.90
   8   1  -4  226.58   57.59
   8   1  -4  261.77    8.70
  -8  -1   4  253.77    9.80
  -8  -1   4  257.67    9.70
   7   1  -4   22.00    1.60
   7   1  -4   15.80    2.70
   7   1  -4    1.40   27.90
  -7  -1   4   18.20    2.00
   6   1  -4   94.49   38.10
   6   1  -4   36.00    2.00
   6   1  -4   38.00    3.60
  -6  -1   4   35.60    2.50
   5   1  -4 2067.39  149.29
   5   1  -4 1877.51   57.59
  -5  -1   4 1890.41   55.59
  -5  -1   4 1956.00   55.89
   4   1  -4 1556.04  118.49
   4   1  -4 1529.85   46.70
  -4  -1   4 1573.34   45.10
  -4  -1   4 1573.14   45.10
   3   1  -4  513.95   15.80
   3   1  -4  492.05   50.99
   3   1  -4  515.25   60.99
   3   1  -4  505.65   16.80
  -3  -1   4  511.35   15.50
   2   1  -4  262.27    9.30
   2   1  -4  288.57   41.90
   2   1  -4  251.17    8.70
   2   1  -4  294.07   36.60
  -2  -1   4  266.67    8.40
   1   1  -4  908.31   27.00
   1   1  -4  923.81   62.09
   1   1  -4  883.21   26.70
  -1  -1   4  925.21   26.30
   0   1  -4  311.57   10.10
   0   1  -4  327.67    9.30
   0   1  -4  332.67   32.00
   0  -1   4  302.87   10.20
   0  -1   4  307.77   31.40
   0  -1   4  322.07    9.80
  -1   1  -4  759.12   45.50
  -1   1  -4  727.53   21.20
  -1   1  -4  727.43   21.80
  -1   1  -4  727.73   21.40
  -1   1  -4  739.13   21.70
   1  -1   4  798.42   46.00
   1  -1   4  740.73   21.40
   1  -1   4  777.42   21.50
   1  -1   4  671.93   21.30
  -2   1  -4  551.54   16.90
  -2   1  -4  571.94   41.10
  -2   1  -4  551.54   16.50
   2  -1   4  562.54   16.70
   2  -1   4  553.64   38.60
  -3   1  -4  210.18    7.30
  -3   1  -4  219.18   28.80
  -3   1  -4  209.98    6.90
   3  -1   4  191.88   24.80
   3  -1   4  214.98    7.30
  -4   1  -4 3403.06  156.68
   4  -1   4 3542.05  151.18
   4  -1   4 3552.24   99.79
  -5   1  -4 3605.24  101.69
  -5   1  -4 3664.83  101.29
  -5   1  -4 3648.83  175.68
  -5   1  -4 3496.15  101.59
   5  -1   4 3412.06  101.09
   5  -1   4 3562.44  101.99
   5  -1   4 3657.93  165.88
  -6   1  -4   55.89   25.30
  -6   1  -4   68.99    3.20
  -6   1  -4   66.39    3.70
   6  -1   4   64.99    3.30
   6  -1   4   69.69   24.80
   6  -1   4   63.59    4.00
  -7   1  -4   25.50    2.00
  -7   1  -4   14.60   17.80
   7  -1   4   39.90   21.80
   7  -1   4   28.60    3.00
   7  -1   4   27.90    2.20
  -8   1  -4  174.48    7.00
  -8   1  -4  139.29   43.90
   8  -1   4  185.08    8.00
   8  -1   4  150.78   46.40
   8  -1   4  176.38    7.40
  -9   1  -4  580.94   19.20
  -9   1  -4  531.85   83.19
  -9   1  -4  604.54   18.90
   9  -1   4  568.24   19.40
   9  -1   4  558.84   79.79
   9  -1   4  599.94   19.90
 -10   1  -4  338.87   12.10
 -10   1  -4  332.57   12.40
  10  -1   4  327.57   12.50
  10  -1   4  336.57   13.00
 -11   1  -4  237.88   10.80
 -11   1  -4  259.97   10.40
  11  -1   4  279.87   10.60
  11  -1   4  243.18   11.90
 -12   1  -4  329.67   12.20
 -12   1  -4  302.47   12.10
  12  -1   4  307.57   12.70
  11   0  -4  356.56   14.60
 -11   0   4  284.27   11.90
 -11   0   4  297.07   14.90
  10   0  -4   60.99    5.30
 -10   0   4   52.99    3.80
 -10   0   4   54.09    4.50
   9   0  -4  137.59    8.30
   9   0  -4  139.79    5.40
   9   0  -4   58.69   96.09
  -9   0   4  140.89    6.40
   8   0  -4  227.88   62.39
   8   0  -4  177.18    9.10
   8   0  -4  168.98    6.30
  -8   0   4  181.58    7.30
   7   0  -4    9.30    2.60
   7   0  -4   43.40   26.40
  -7   0   4   15.10    2.40
  -7   0   4   11.40    1.90
  -7   0   4    9.00   24.60
   6   0  -4  117.79    4.40
   6   0  -4   78.09   36.70
   6   0  -4  124.49    9.20
  -6   0   4  122.19    5.10
  -6   0   4  114.49   45.30
  -6   0   4  128.79    5.50
   5   0  -4  348.37   13.40
   5   0  -4  430.06   62.29
  -5   0   4  354.56   11.60
  -5   0   4  331.27   58.79
  -5   0   4  365.26   11.90
   4   0  -4   59.59    3.90
  -4   0   4   57.69   33.90
  -4   0   4   62.89    3.20
  -4   0   4   58.09    2.90
   3   0  -4  112.39   27.80
   3   0  -4  130.59    5.80
  -3   0   4  133.39    5.00
  -3   0   4  129.89    4.70
  -3   0   4  136.39   33.60
   2   0  -4 4003.70  113.49
   2   0  -4 4115.59  179.98
   2   0  -4 3861.91  112.69
   1   0  -4  511.25   16.20
   1   0  -4  533.45   40.40
   1   0  -4  477.85   15.70
   1   0  -4  493.45   45.70
  -1   0   4  569.74   15.40
   0   0  -4   19.10    1.30
   0   0  -4   18.10    7.70
   0   0  -4   25.70    1.50
   0   0  -4   22.00    1.50
   0   0   4   22.60    8.30
   0   0   4   18.10    1.30
   0   0   4   20.20    1.40
  -1   0  -4  262.77    8.30
  -1   0  -4  248.88    7.80
  -1   0  -4  267.17    8.10
  -1   0  -4  253.27   19.90
   1   0   4  284.77   21.70
   1   0   4  241.98    7.80
   1   0   4  264.57    8.00
   1   0   4  244.68    8.00
  -2   0  -4 2255.17   87.39
  -2   0  -4 2022.90   61.69
   2   0   4 2356.36   85.79
   2   0   4 2073.69   61.69
   2   0   4 2173.88   61.69
  -3   0  -4 1233.88   36.40
  -3   0  -4 1244.08   36.20
  -3   0  -4 1270.67   69.19
   3   0   4 1232.68   36.70
   3   0   4 1301.07   36.90
   3   0   4 1290.77   65.59
  -4   0  -4  561.74   50.89
  -4   0  -4  601.64   17.60
  -4   0  -4  602.34   17.60
   4   0   4  560.74   17.50
   4   0   4  603.74   48.40
   4   0   4  571.34   18.10
  -5   0  -4  544.35   16.60
  -5   0  -4  586.54   58.89
   5   0   4  534.95   16.80
   5   0   4  543.55   17.40
   5   0   4  527.25   51.79
  -6   0  -4  682.13   20.00
  -6   0  -4  660.83   70.39
   6   0   4  658.03   20.40
   6   0   4  617.24   62.59
   6   0   4  631.04   20.80
  -7   0  -4   17.80    2.10
  -7   0  -4   17.80    1.70
  -7   0  -4   12.10   16.80
   7   0   4   39.80   23.50
   7   0   4   19.60    2.80
   7   0   4   20.90    2.10
  -8   0  -4  456.55   15.00
  -8   0  -4  469.85   15.00
  -8   0  -4  475.05   72.19
   8   0   4  440.86   15.60
   8   0   4  451.55   15.90
   8   0   4  444.56   61.19
  -9   0  -4    2.90    1.20
  -9   0  -4   -0.10    0.80
  -9   0  -4    0.30   26.50
   9   0   4  -15.70   20.20
   9   0   4    0.30    1.70
   9   0   4    4.20    1.50
 -10   0  -4  123.49    5.90
 -10   0  -4  124.99    5.90
  10   0   4  124.19    7.80
  10   0   4  124.39    6.80
 -11   0  -4   42.60    3.40
  11   0   4   47.90    3.20
  11   0   4   28.40    4.90
 -12   0  -4   61.59    4.30
  12   0   4   63.39    4.90
  10  -1  -4    4.70    2.00
 -10   1   4    7.20    1.80
   9  -1  -4   38.50    2.30
   9  -1  -4   33.00    4.20
  -9   1   4   36.80    2.90
  -9   1   4   36.80    4.10
   8  -1  -4  872.91   26.50
   8  -1  -4  910.11   30.20
   8  -1  -4  710.83  175.38
  -8   1   4  897.31   27.50
  -8   1   4  910.71   28.20
   7  -1  -4  759.32   23.30
   7  -1  -4  779.02   26.50
   7  -1  -4  740.43   92.49
  -7   1   4  821.02   24.20
  -7   1   4  802.02  101.99
   6  -1  -4   57.29   20.80
   6  -1  -4   16.90    1.30
   6  -1  -4   19.00    3.10
  -6   1   4   -2.50   16.90
  -6   1   4   15.30    2.40
  -6   1   4   15.80    1.70
   5  -1  -4  100.89    5.50
   5  -1  -4  104.19    3.70
   5  -1  -4   77.89   30.80
  -5   1   4   98.99    4.20
  -5   1   4   90.39   37.10
  -5   1   4   99.09    4.80
   4  -1  -4  274.07    8.60
   4  -1  -4  243.68   45.50
   4  -1  -4  292.37   10.80
  -4   1   4  283.77    9.70
  -4   1   4  258.77   45.40
  -4   1   4  292.97    9.20
   3  -1  -4   23.00   11.90
   3  -1  -4   16.60    1.80
  -3   1   4   13.30   11.40
  -3   1   4   19.10    1.40
  -3   1   4   18.40    1.80
   2  -1  -4  184.78   30.10
   2  -1  -4  147.69    8.20
  -2   1   4  189.18    5.90
  -2   1   4  208.18   30.40
  -2   1   4  190.88    6.30
   1  -1  -4  841.52   24.40
   1  -1  -4  824.52   54.69
   1  -1  -4  804.52   23.90
   1  -1  -4  741.43   23.40
  -1   1   4  856.21   55.79
  -1   1   4  826.02   23.40
   0  -1  -4 1270.07   51.89
   0  -1  -4 1221.98   55.79
   0  -1  -4 1172.48   33.80
   0  -1  -4 1204.58   33.10
   0  -1  -4 1191.58   33.90
   0   1   4 1101.39   33.10
   0   1   4 1235.58   33.50
   0   1   4 1131.69   33.60
   0   1   4 1033.10   33.70
  -1  -1  -4  388.86   11.90
  -1  -1  -4  412.26   11.70
  -1  -1  -4  418.46   17.40
   1   1   4  389.46   11.60
   1   1   4  406.86   18.50
   1   1   4  389.56   11.70
   1   1   4  375.46   11.50
   1   1   4  341.47   11.80
  -2  -1  -4 9012.80  280.37
   2   1   4 9556.94  277.47
  -3  -1  -4  644.74   18.70
  -3  -1  -4  654.93   18.80
  -3  -1  -4  608.64   43.70
   3   1   4  656.33   19.40
   3   1   4  649.24   19.30
   3   1   4  611.64   18.70
   3   1   4  615.84   18.40
   3   1   4  625.44   40.10
  -4  -1  -4   22.90   11.80
  -4  -1  -4   15.00    1.20
  -4  -1  -4   16.00    1.20
  -4  -1  -4   14.90    2.00
   4   1   4    9.20    8.30
   4   1   4   16.20    1.40
   4   1   4   15.80    1.90
   4   1   4   15.70    2.30
  -5  -1  -4  294.17   47.10
  -5  -1  -4  319.17   10.00
  -5  -1  -4  313.97    9.80
   5   1   4  270.57   63.19
   5   1   4  298.37   10.80
   5   1   4  303.47   10.80
  -6  -1  -4   64.89   24.90
  -6  -1  -4  105.19    4.20
  -6  -1  -4  108.69    4.40
   6   1   4   97.79    5.30
   6   1   4   90.89   26.60
  -7  -1  -4  726.63   83.29
  -7  -1  -4  684.73   21.00
  -7  -1  -4  682.83   21.20
   7   1   4  700.73   22.40
   7   1   4  683.63   22.20
   7   1   4  672.43   72.79
  -8  -1  -4 1106.69   32.30
  -8  -1  -4 1096.69   31.90
  -8  -1  -4  963.70  105.19
   8   1   4 1059.09   33.30
   8   1   4 1077.29   33.30
   8   1   4  983.90   95.59
  -9  -1  -4  795.02  100.49
  -9  -1  -4  912.31   27.30
  -9  -1  -4  864.11   26.70
   9   1   4  884.01   28.20
   9   1   4  889.21   97.19
   9   1   4  861.11   28.30
 -10  -1  -4  317.27   11.70
 -10  -1  -4  317.27   11.10
  10   1   4  312.57   12.60
  10   1   4  320.67   12.90
 -11  -1  -4   11.20    2.20
  11   1   4    5.30    2.30
 -12  -1  -4   29.60    2.90
  12   1   4   32.80    3.80
  10  -2  -4    5.00    2.00
 -10   2   4    0.80    1.20
 -10   2   4    2.70    2.50
   9  -2  -4   63.69    7.10
   9  -2  -4   46.40    2.90
  -9   2   4   48.30    3.40
  -9   2   4   46.90    4.60
   8  -2  -4   21.60    3.10
   8  -2  -4   64.29   41.60
   8  -2  -4   22.00    1.70
  -8   2   4   20.30    2.10
  -8   2   4    8.50   26.80
  -8   2   4   18.60    3.20
   7  -2  -4   33.40    2.10
   7  -2  -4   34.20    3.60
  -7   2   4   47.50   28.00
  -7   2   4   34.30    2.40
  -7   2   4   32.50    3.40
   6  -2  -4    1.30    0.50
   6  -2  -4   10.00   20.90
   6  -2  -4   -0.20    1.00
  -6   2   4    1.00    1.50
  -6   2   4  -14.50   14.90
  -6   2   4    2.80    1.00
   5  -2  -4  817.22   25.10
   5  -2  -4  827.92   27.10
   5  -2  -4  930.21   92.49
  -5   2   4  914.31   91.19
  -5   2   4  827.12   25.80
  -5   2   4  854.61   25.00
   4  -2  -4 1624.34   47.40
   4  -2  -4 1666.43   49.80
   4  -2  -4 1715.03  118.79
  -4   2   4 1718.73  118.09
  -4   2   4 1654.43   48.50
  -4   2   4 1675.83   47.70
   3  -2  -4  118.09    5.50
   3  -2  -4  149.19   28.80
   3  -2  -4  117.39    4.00
  -3   2   4  120.29    4.60
  -3   2   4  121.79    4.20
  -3   2   4  118.29    4.90
  -3   2   4  110.09   29.20
   2  -2  -4  516.95   48.50
   2  -2  -4  513.35   16.40
   2  -2  -4  506.55   14.80
  -2   2   4  531.05   15.70
  -2   2   4  509.25   15.00
  -2   2   4  528.85   47.90
  -2   2   4  479.05   14.90
   1  -2  -4 1308.37   36.30
   1  -2  -4 1272.97   68.59
   1  -2  -4 1327.67   37.50
   1  -2  -4 1240.88   36.40
  -1   2   4 1293.57   36.40
  -1   2   4 1182.78   36.30
  -1   2   4 1318.27   37.00
  -1   2   4 1291.77   68.59
   0  -2  -4 1002.70   29.20
   0  -2  -4 1033.20   29.40
   0  -2  -4 1023.60   53.69
   0   2   4 1001.90   64.59
   0   2   4  951.00   28.70
   0   2   4 1005.70   28.70
   0   2   4 1019.20   28.80
  -1  -2  -4 2611.34   71.89
   1   2   4 2468.25   71.99
   2   2   4 3902.11  122.69
   2   2   4 3820.02  124.69
  -3  -2  -4 1528.85   81.19
  -3  -2  -4 1672.43   47.20
  -3  -2  -4 1676.63   46.90
  -3  -2  -4 1579.64   46.70
   3   2   4 1653.73   47.80
   3   2   4 1675.03   74.89
   3   2   4 1682.23   46.80
  -4  -2  -4  400.96   12.40
  -4  -2  -4  384.46   43.40
   4   2   4  413.36   39.00
   4   2   4  410.16   13.90
   4   2   4  392.26   13.20
  -5  -2  -4   58.49    2.90
  -5  -2  -4   50.49   20.30
   5   2   4   63.09   22.70
   5   2   4   66.99    3.90
   5   2   4   58.89    4.30
  -6  -2  -4   65.59   29.70
  -6  -2  -4   37.20    2.40
   6   2   4   42.40    3.50
   6   2   4   37.50    3.70
   6   2   4   47.30   21.30
  -7  -2  -4   89.89   27.80
  -7  -2  -4  107.59    4.80
   7   2   4  109.29    6.00
   7   2   4   72.59   27.00
   7   2   4  109.59    5.80
  -8  -2  -4  180.98    7.10
   8   2   4  181.08    8.20
   8   2   4  174.98    8.30
  -9  -2  -4    1.30    1.00
  -9  -2  -4   -9.30   30.40
   9   2   4    1.40    1.40
   9   2   4   18.40   23.40
   9   2   4    2.60    2.00
 -10  -2  -4    8.10    1.80
  10   2   4   13.70    2.20
  10   2   4   10.20    2.90
 -11  -2  -4   77.99    4.80
  11   2   4   97.29    6.10
  11   2   4   81.89    5.90
 -12  -2  -4  220.48    9.80
  12   2   4  220.78   10.40
  12   2   4  263.07   12.20
  10  -3  -4  439.26   16.80
  10  -3  -4  375.26   12.90
 -10   3   4  381.96   14.20
 -10   3   4  393.46   15.70
   9  -3  -4  264.17    9.20
   9  -3  -4  275.07   13.10
  -9   3   4  261.97    9.80
  -9   3   4  268.27   11.50
   8  -3  -4  220.68    8.00
   8  -3  -4  233.78   61.29
   8  -3  -4  239.28   10.70
  -8   3   4  229.58    9.90
  -8   3   4  173.48   62.59
  -8   3   4  224.28    8.40
   7  -3  -4  171.98    6.40
   7  -3  -4  199.98   59.19
   7  -3  -4  179.48    8.80
  -7   3   4  188.28    8.20
  -7   3   4  184.08    6.80
  -7   3   4  148.09   49.30
   6  -3  -4   23.00    2.70
   6  -3  -4   23.70    1.70
   6  -3  -4   15.00   21.90
  -6   3   4   25.10    1.80
  -6   3   4   23.10    2.90
  -6   3   4    0.40   13.60
   5  -3  -4  149.79    5.40
   5  -3  -4  120.99   39.60
   5  -3  -4  153.38    7.20
  -5   3   4  134.09   39.10
  -5   3   4  157.58    5.50
  -5   3   4  152.18    6.60
   4  -3  -4 1070.49   90.89
   4  -3  -4 1118.29   34.10
   4  -3  -4 1100.69   32.40
  -4   3   4 1103.59   33.10
  -4   3   4 1149.08   94.39
   3  -3  -4 1033.80   32.10
   3  -3  -4 1076.59   81.59
   3  -3  -4 1022.10   30.40
  -3   3   4 1124.99   82.39
  -3   3   4 1046.10   31.40
  -3   3   4 1087.19   30.40
   2  -3  -4  490.25   14.70
   2  -3  -4  524.55   48.40
   2  -3  -4  498.35   16.10
   2  -3  -4  489.75   14.70
  -2   3   4  565.34   49.90
  -2   3   4  496.45   15.50
  -2   3   4  499.65   14.60
   1  -3  -4  429.66   37.10
  -1   3   4  402.96   12.10
  -1   3   4  460.85   38.20
  -1   3   4  400.76   12.30
   0  -3  -4 2996.40  115.69
   0   3   4 3043.50   84.59
   0   3   4 2959.80  109.49
  -1  -3  -4   31.50    1.60
  -1  -3  -4   29.10    1.70
  -1  -3  -4   43.40    7.70
  -1  -3  -4   29.60    1.40
   1   3   4   36.70    6.90
   1   3   4   29.10    1.70
   1   3   4   26.90    1.30
  -2  -3  -4  166.68    5.30
  -2  -3  -4  165.98    5.60
  -2  -3  -4  156.48    5.20
   2   3   4  161.58   17.80
   2   3   4  154.08   15.80
   2   3   4  176.88    6.30
   2   3   4  151.08    5.40
  -3  -3  -4  359.26   12.10
  -3  -3  -4  376.86   11.30
   3   3   4  339.07   31.20
   3   3   4  377.46   33.50
   3   3   4  374.26   12.60
  -4  -3  -4  112.39    4.70
  -4  -3  -4  116.39    4.40
   4   3   4  121.09   26.50
   4   3   4  124.09    6.30
   4   3   4  110.29   21.40
  -5  -3  -4  375.46   12.00
  -5  -3  -4  380.36   12.50
   5   3   4  367.16   43.80
   5   3   4  376.66   14.20
  -6  -3  -4 1746.63   49.80
  -6  -3  -4 1749.92  130.79
   6   3   4 1701.93   51.99
   6   3   4 1825.82  115.59
   6   3   4 1624.04   50.89
  -7  -3  -4 1815.12   51.89
  -7  -3  -4 1820.82  145.69
   7   3   4 1708.23   53.89
   7   3   4 1875.91  127.69
   7   3   4 1747.43   53.09
  -8  -3  -4  114.79    5.20
  -8  -3  -4  110.69   41.80
   8   3   4  110.39    6.20
   8   3   4  110.79   37.20
   8   3   4  110.39    6.60
  -9  -3  -4   16.70    2.00
   9   3   4   22.20    3.60
   9   3   4   18.40    3.00
 -10  -3  -4  224.38    9.10
  10   3   4  213.48    9.90
  10   3   4  222.58   10.40
 -11  -3  -4  421.86   15.10
  11   3   4  398.66   19.50
  11   3   4  437.56   16.90
 -12  -3  -4  103.79    5.80
  12   3   4  104.69    6.60
  10  -4  -4   33.30    2.50
 -10   4   4   25.00    4.60
 -10   4   4   27.50    2.40
   9  -4  -4  127.69    5.50
   9  -4  -4  142.09    8.00
  -9   4   4  140.19    5.90
  -9   4   4  131.69    7.80
   8  -4  -4    4.80    1.10
   8  -4  -4    4.40    1.80
  -8   4   4    8.40    1.20
  -8   4   4    1.30    2.10
   7  -4  -4  560.54   92.29
   7  -4  -4  486.15   17.90
   7  -4  -4  468.25   15.20
  -7   4   4  493.15   17.20
  -7   4   4  488.45   15.30
  -7   4   4  405.06   85.69
   6  -4  -4  516.85   18.30
   6  -4  -4  501.95   15.90
   6  -4  -4  562.84   74.49
  -6   4   4  489.25   76.59
  -6   4   4  521.85   17.60
  -6   4   4  510.95   15.80
   5  -4  -4   19.40    2.30
   5  -4  -4   40.90   17.60
   5  -4  -4   22.00    1.50
  -5   4   4   21.30    3.20
  -5   4   4   24.70   15.60
  -5   4   4   21.30    1.50
   4  -4  -4   71.09    4.30
   4  -4  -4   38.80   22.00
  -4   4   4   71.09    4.20
  -4   4   4   86.99   29.40
  -4   4   4   73.99    2.90
   3  -4  -4 1166.48   34.70
   3  -4  -4 1105.49   32.70
   3  -4  -4 1212.08   88.99
  -3   4   4 1114.69   34.00
  -3   4   4 1171.28   32.70
  -3   4   4 1131.89   86.29
   2  -4  -4  522.95   15.50
   2  -4  -4  508.65   49.70
   2  -4  -4  544.55   17.10
  -2   4   4  522.85   16.60
  -2   4   4  548.85   15.40
  -2   4   4  536.55   51.49
   1  -4  -4  538.85   17.10
   1  -4  -4  587.94   46.50
   1  -4  -4  550.94   16.30
  -1   4   4  535.75   15.80
  -1   4   4  618.34   47.00
  -1   4   4  524.35   16.70
   0  -4  -4 4750.32  179.78
   0   4   4 4841.22  170.28
  -1  -4  -4 2051.69   57.19
  -1  -4  -4 1989.30   56.69
  -1  -4  -4 2029.70   84.59
   1   4   4 1918.11   56.59
   1   4   4 2125.19   82.69
   1   4   4 1949.20   56.99
  -2  -4  -4  171.38   20.60
  -2  -4  -4  182.68    6.10
   2   4   4  172.88    5.60
   2   4   4  170.28   19.70
   2   4   4  165.78    5.70
  -3  -4  -4   64.99    2.70
  -3  -4  -4   67.49    3.10
   3   4   4   61.99    4.30
   3   4   4   56.69   17.70
   3   4   4   80.29   20.60
  -4  -4  -4  145.59    5.60
  -4  -4  -4  139.29    5.20
   4   4   4  141.19    7.40
   4   4   4  137.69   26.90
   4   4   4  186.38   29.00
  -5  -4  -4  555.94   17.60
  -5  -4  -4  551.24   17.00
   5   4   4  560.04   56.79
   5   4   4  552.14   19.90
   5   4   4  579.24   58.79
  -6  -4  -4   39.50    2.50
  -6  -4  -4   41.40    2.80
   6   4   4   31.00   17.40
   6   4   4   42.50   21.20
   6   4   4   35.30    5.20
  -7  -4  -4  100.59    5.30
   7   4   4   93.49   28.10
   7   4   4  100.89    6.90
   7   4   4   98.09   29.10
   7   4   4  105.39    6.00
  -8  -4  -4  202.58    7.90
   8   4   4  157.38   45.70
   8   4   4  212.78    9.30
   8   4   4  209.48   52.89
   8   4   4  197.18   10.10
  -9  -4  -4  437.66   15.00
   9   4   4  452.85   16.40
   9   4   4  387.06   69.69
   9   4   4  441.16   17.30
 -10  -4  -4  368.96   13.90
  10   4   4  408.66   16.10
  10   4   4  386.46   15.10
 -11  -4  -4   16.30    2.70
  11   4   4   12.20    3.20
 -12  -4  -4   26.70    2.90
  12   4   4   31.90    4.00
  10  -5  -4  224.98    8.60
  10  -5  -4  266.87   11.40
 -10   5   4  202.18   11.10
   9  -5  -4  134.59    7.80
   9  -5  -4  141.29    5.80
  -9   5   4  130.49    5.60
  -9   5   4  131.79    8.20
   8  -5  -4    6.40    1.30
   8  -5  -4    2.30    1.50
  -8   5   4    4.10    1.10
  -8   5   4    2.50    2.60
   7  -5  -4  218.08   63.39
   7  -5  -4  199.28    9.10
   7  -5  -4  205.28    9.50
  -7   5   4  215.18    9.70
  -7   5   4  208.78    7.30
  -7   5   4  183.18   52.39
   6  -5  -4 1853.61   56.69
   6  -5  -4 1968.30  153.08
  -6   5   4 1889.71   56.29
  -6   5   4 1814.22  147.59
  -6   5   4 1905.01   53.99
   5  -5  -4  512.35   18.20
   5  -5  -4  561.24   73.99
  -5   5   4  543.15   16.00
  -5   5   4  542.55   18.10
  -5   5   4  530.85   69.19
   4  -5  -4    7.00   16.40
   4  -5  -4    4.60    1.40
  -4   5   4    2.80   10.10
  -4   5   4    2.00    1.60
   3  -5  -4   28.60   18.70
   3  -5  -4   38.80    2.80
   3  -5  -4   35.10    2.00
  -3   5   4   21.70   15.50
  -3   5   4   33.80    3.00
   2  -5  -4    3.30    0.80
   2  -5  -4    3.80    1.10
   2  -5  -4   -5.10    8.80
  -2   5   4    6.60   10.70
  -2   5   4    3.40    1.50
   1  -5  -4    6.50    7.10
   1  -5  -4    1.00    0.70
   1  -5  -4    2.50    0.60
  -1   5   4    1.70    1.10
  -1   5   4    1.90    6.70
   0  -5  -4  116.09    4.40
   0  -5  -4  150.68   39.30
   0  -5  -4  116.89    4.80
   0   5   4  115.49   19.80
   0   5   4  111.69    4.60
  -1  -5  -4  101.69    3.40
  -1  -5  -4  106.29    4.40
  -1  -5  -4  106.59    4.10
  -1  -5  -4  102.79   19.90
   1   5   4   99.49    4.00
   1   5   4   98.79   17.10
   1   5   4   97.69    3.30
  -2  -5  -4  176.68    5.70
  -2  -5  -4  179.58   25.80
  -2  -5  -4  170.88    6.20
   2   5   4  166.68    5.70
   2   5   4  201.38   24.00
   2   5   4  169.98    7.40
  -3  -5  -4 1954.30   57.49
   3   5   4 2090.09  102.29
   3   5   4 1983.20   59.09
  -4  -5  -4 3184.58   92.69
  -4  -5  -4 3244.88   92.09
   4   5   4 3391.66  161.38
   4   5   4 3103.69   94.79
   4   5   4 3420.56  187.68
  -5  -5  -4  224.38    8.40
  -5  -5  -4  219.88    7.80
   5   5   4  238.08   11.20
   5   5   4  228.28   40.20
   5   5   4  224.28   39.00
   6   5   4   12.90   12.00
   6   5   4    0.90    3.20
   6   5   4    5.50   13.70
  -7  -5  -4  989.30   28.90
  -7  -5  -4  920.81   29.50
   7   5   4  940.81   30.40
   7   5   4  988.90   94.69
   7   5   4  975.00   94.09
   7   5   4  934.91   32.10
  -8  -5  -4  591.44   18.80
   8   5   4  542.95   75.69
   8   5   4  578.24   20.30
   8   5   4  583.94   21.90
  -9  -5  -4  105.19    5.20
   9   5   4  100.69    6.50
   9   5   4   50.89   26.30
   9   5   4  110.89    7.50
 -10  -5  -4  352.26   13.00
  10   5   4  345.97   14.20
  10   5   4  363.86   15.40
 -11  -5  -4  425.56   15.40
  11   5   4  430.26   20.00
  11   5   4  417.56   16.50
 -12  -5  -4   51.39    4.10
  12   5   4   54.59    5.10
   9  -6  -4   22.90    2.30
  -9   6   4   18.50    4.20
   8  -6  -4    3.40    1.10
   8  -6  -4    6.20    3.80
  -8   6   4    1.20    2.70
  -8   6   4    4.00    1.00
   7  -6  -4   76.69    5.20
  -7   6   4   78.59    3.30
  -7   6   4   76.59    5.80
   6  -6  -4  214.28    9.50
   6  -6  -4  243.88   63.09
  -6   6   4  333.87   62.69
  -6   6   4  212.68    7.40
  -6   6   4  210.88    9.70
   5  -6  -4    4.90    1.10
   5  -6  -4   17.00   15.80
   5  -6  -4    4.70    1.70
  -5   6   4   -0.80   15.60
  -5   6   4    3.80    2.00
   4  -6  -4   58.49    3.00
   4  -6  -4   76.29   28.30
   4  -6  -4   57.89    4.40
  -4   6   4   54.39   20.70
  -4   6   4   56.29    4.10
   3  -6  -4 1637.44   48.80
   3  -6  -4 1636.94  114.19
   3  -6  -4 1586.74   47.50
  -3   6   4 1655.53   48.70
  -3   6   4 1752.62  116.39
   2  -6  -4 2583.24   75.49
   2  -6  -4 2580.04   74.49
   2  -6  -4 2723.83  142.19
  -2   6   4 2714.33  141.39
  -2   6   4 2526.55   75.19
   1  -6  -4   89.89    4.30
   1  -6  -4   89.89    3.70
   1  -6  -4   57.79   18.80
  -1   6   4   95.59    4.50
  -1   6   4   61.99   21.90
   0  -6  -4  299.07    9.80
   0  -6  -4  299.07   10.30
   0   6   4  344.57   41.40
   0   6   4  294.27   10.10
  -1  -6  -4 1384.76   41.50
  -1  -6  -4 1453.55   41.20
  -1  -6  -4 1377.96   82.99
  -1  -6  -4 1468.15   40.20
   1   6   4 1415.76   41.00
   1   6   4 1365.26   40.10
   1   6   4 1443.46   80.79
  -2  -6  -4   73.59    3.50
  -2  -6  -4   90.29   24.80
  -2  -6  -4   79.59    3.00
   2   6   4   77.79    3.40
   2   6   4   82.99   20.80
   2   6   4   78.49    5.20
  -3  -6  -4   32.90   13.70
  -3  -6  -4   21.10    1.70
   3   6   4   21.50    4.00
   3   6   4   21.80   12.50
  -4  -6  -4 1932.61   55.49
  -4  -6  -4 1907.31   56.29
   4   6   4 1892.01  112.79
   4   6   4 1966.00   58.99
   4   6   4 2005.50  126.79
  -5  -6  -4 1376.86   39.40
  -5  -6  -4 1307.47   40.10
   5   6   4 1452.05  108.89
   5   6   4 1328.77   43.20
   5   6   4 1332.77  100.09
  -6  -6  -4   90.89    4.10
  -6  -6  -4   92.79    5.40
   6   6   4   87.59    7.50
   6   6   4   56.89   39.10
   6   6   4   60.09   29.80
  -7  -6  -4  493.35   17.40
  -7  -6  -4  521.75   16.70
   7   6   4  499.05   20.30
   7   6   4  664.53   77.59
   7   6   4  567.44   76.09
  -8  -6  -4   88.39    4.60
   8   6   4   85.69    7.40
   8   6   4   94.29    6.10
   8   6   4   55.69   29.80
  -9  -6  -4   57.39    3.70
   9   6   4   58.59    5.20
   9   6   4   62.69    6.20
 -10  -6  -4   44.10    3.50
  10   6   4   49.40    5.10
  10   6   4   50.99    5.50
 -11  -6  -4   21.80    2.60
  11   6   4   27.00    4.50
   9  -7  -4  637.24   22.10
  -9   7   4  560.94   22.40
   8  -7  -4  493.55   18.20
  -8   7   4  461.15   18.50
   7  -7  -4   20.20    2.00
   7  -7  -4   22.10    3.00
  -7   7   4   23.50    4.10
   6  -7  -4  178.58    8.40
   6  -7  -4  190.28   55.29
   6  -7  -4  182.58    7.00
  -6   7   4  176.88    8.80
  -6   7   4  154.48   58.79
   5  -7  -4  263.07    9.20
   5  -7  -4  219.98   53.49
   5  -7  -4  254.37   10.40
  -5   7   4  230.88   60.79
  -5   7   4  257.77   10.80
   4  -7  -4  235.48    9.50
   4  -7  -4  268.67   46.90
   4  -7  -4  230.78    8.30
  -4   7   4  240.48    9.80
  -4   7   4  177.38   44.90
   3  -7  -4   29.20   15.60
   3  -7  -4    9.70    1.30
   3  -7  -4   12.10    2.50
  -3   7   4    9.80    2.60
  -3   7   4    1.60   12.20
   2  -7  -4 1157.18   35.90
   2  -7  -4 1276.77   95.59
   2  -7  -4 1204.08   35.10
  -2   7   4 1158.88   90.29
  -2   7   4 1183.78   35.90
   1  -7  -4  330.27   45.90
   1  -7  -4  318.87   11.30
   1  -7  -4  326.87   10.70
  -1   7   4  334.77   42.80
  -1   7   4  324.37   11.40
   0  -7  -4  704.83   21.90
   0  -7  -4  743.03   81.59
   0  -7  -4  714.53   22.50
   0   7   4  700.43   22.20
   0   7   4  886.41   84.79
  -1  -7  -4  666.33   20.20
  -1  -7  -4  594.44   57.39
  -1  -7  -4  682.93   19.00
   1   7   4  711.43   58.19
   1   7   4  654.43   21.90
   1   7   4  619.34   18.90
   1   7   4  668.83   20.20
  -2  -7  -4   28.20    1.50
  -2  -7  -4   35.00   13.30
  -2  -7  -4   27.00    2.00
   2   7   4   25.00    3.70
   2   7   4   26.40    4.30
   2   7   4   37.50   15.40
  -3  -7  -4   58.39    3.20
  -3  -7  -4   75.79   24.60
  -3  -7  -4   58.09    2.60
   3   7   4   54.09    2.90
   3   7   4   56.89    5.60
   3   7   4   62.79   22.90
  -4  -7  -4  888.71   25.90
  -4  -7  -4  870.71   26.70
   4   7   4  891.01   29.80
   4   7   4  795.92   70.69
  -5  -7  -4  150.78    5.80
   5   7   4  174.28   64.09
   5   7   4  146.49    9.60
  -6  -7  -4   14.50    1.90
   6   7   4   17.80   14.70
   6   7   4   13.10   18.60
   6   7   4   17.30    5.00
  -7  -7  -4  867.81   28.00
  -7  -7  -4  924.11   27.20
   7   7   4  850.61   94.09
   7   7   4  871.81   31.50
  -8  -7  -4  788.02   24.00
  -8  -7  -4  781.32   24.90
   8   7   4  764.92   28.20
   8   7   4  563.64   81.79
  -9  -7  -4   46.70    3.30
   9   7   4   45.10    5.00
   9   7   4   51.59    6.00
 -10  -7  -4    2.40    1.20
  10   7   4    9.80    3.10
  10   7   4    2.70    2.90
 -11  -7  -4   25.00    2.90
  11   7   4   32.70    4.50
   8  -8  -4  110.29    6.10
   8  -8  -4  114.19    6.60
  -8   8   4   99.19    7.60
   7  -8  -4    2.60    1.90
   7  -8  -4    4.50    1.30
  -7   8   4    0.00    2.60
   6  -8  -4  463.85   15.60
   6  -8  -4  466.75   17.00
  -6   8   4  490.35   22.10
   5  -8  -4  231.98   60.59
   5  -8  -4  300.67   11.70
   5  -8  -4  300.47   10.40
  -5   8   4  291.27   12.20
  -5   8   4  239.08   59.19
   4  -8  -4  234.98    8.60
   4  -8  -4  259.97   48.20
   4  -8  -4  235.28    9.70
  -4   8   4  202.88   53.69
  -4   8   4  238.78   10.20
   3  -8  -4  494.45   17.10
   3  -8  -4  464.85   65.79
   3  -8  -4  506.75   16.20
  -3   8   4  508.85   17.50
  -3   8   4  563.44   66.29
   2  -8  -4  631.74   20.60
   2  -8  -4  590.44   64.39
   2  -8  -4  626.34   19.90
  -2   8   4  627.84   20.80
  -2   8   4  761.72   68.79
   1  -8  -4   10.80   16.80
   1  -8  -4   17.90    1.70
   1  -8  -4   15.40    1.90
  -1   8   4   24.20   15.10
  -1   8   4   15.40    2.60
   0  -8  -4   41.10    2.60
   0  -8  -4   63.39   38.40
   0  -8  -4   41.40    2.90
   0   8   4   38.20    3.30
   0   8   4   57.09   29.70
  -1  -8  -4 1664.93   49.90
  -1  -8  -4 1628.34  108.59
   1   8   4 1836.32  109.09
   1   8   4 1729.13   49.99
   1   8   4 1717.83   52.09
  -2  -8  -4 1629.24   45.00
  -2  -8  -4 1561.54   46.30
  -2  -8  -4 1509.95  103.79
   2   8   4 1587.94   48.60
   2   8   4 1607.94   45.90
   2   8   4 1476.65   97.89
  -3  -8  -4   59.49   25.50
  -3  -8  -4   99.69    3.80
  -3  -8  -4   97.39    5.00
   3   8   4   95.59    4.20
   3   8   4   92.89   27.20
   3   8   4   99.09    7.50
  -4  -8  -4   11.30    1.60
   4   8   4   10.90    3.80
   4   8   4   15.20   14.60
  -5  -8  -4   94.89    4.80
  -5  -8  -4   87.69    4.00
   5   8   4   67.59   30.50
   5   8   4   75.99   22.80
   5   8   4   89.29    8.00
  -6  -8  -4   31.70    2.70
  -6  -8  -4   29.20    2.30
   6   8   4   24.70   25.30
   6   8   4   40.20    7.40
  -7  -8  -4    5.90    1.40
  -7  -8  -4    6.80    1.80
   7   8   4   17.80   19.40
   7   8   4    6.30    4.20
  -8  -8  -4   97.49    4.90
  -8  -8  -4   91.29    5.40
   8   8   4   99.89    8.80
  -9  -8  -4   65.09    4.10
   9   8   4   54.59    6.20
 -10  -8  -4   67.39    4.50
  10   8   4   96.89    7.90
  10   8   4   80.29    6.50
 -11  -8  -4  393.96   15.20
  11   8   4  405.06   16.90
  11   8   4  439.96   18.60
   8  -9  -4  131.09    6.00
  -8   9   4  111.79    8.30
   7  -9  -4   16.80    2.80
   7  -9  -4   13.10    2.30
  -7   9   4   14.00    4.20
   6  -9  -4    3.50    1.20
   6  -9  -4    2.60    1.60
  -6   9   4    4.70    2.70
   5  -9  -4  622.24   21.10
   5  -9  -4  622.14   19.90
  -5   9   4  608.04   21.90
   4  -9  -4  372.16   12.50
   4  -9  -4  349.17   13.40
   4  -9  -4  279.47   65.69
  -4   9   4  359.06   14.10
  -4   9   4  397.66   67.89
   3  -9  -4    0.80    1.10
   3  -9  -4    1.30    0.90
  -3   9   4    2.20    2.30
  -3   9   4    5.60   16.10
   2  -9  -4   12.10    1.50
   2  -9  -4   12.30    1.90
   2  -9  -4  -16.10   21.80
  -2   9   4   12.50   16.00
  -2   9   4   11.10    2.60
   1  -9  -4   21.20    2.30
   1  -9  -4   -6.30   17.00
   1  -9  -4   24.10    2.00
  -1   9   4   20.70   14.30
  -1   9   4   27.60    3.40
   0  -9  -4   82.39   52.59
   0  -9  -4   83.69    4.20
   0   9   4   81.99   26.50
   0   9   4   95.29    6.50
   0   9   4   82.09    4.90
  -1  -9  -4  125.49   32.80
  -1  -9  -4  162.68    6.50
   1   9   4  136.39   33.20
   1   9   4  152.48    8.60
   1   9   4  154.88    6.70
  -2  -9  -4   11.30    0.90
  -2  -9  -4  -12.60   12.50
  -2  -9  -4    8.20    1.60
   2   9   4    9.70    3.70
   2   9   4    7.70    1.90
   2   9   4   10.90    9.60
  -3  -9  -4    1.10    0.50
  -3  -9  -4    1.30   14.90
  -3  -9  -4    1.70    0.80
   3   9   4    0.40    1.30
   3   9   4   -5.20   10.10
   3   9   4    3.00    3.40
  -4  -9  -4  328.37   53.69
  -4  -9  -4  415.46   13.90
  -4  -9  -4  410.96   12.70
   4   9   4  380.66   17.10
   4   9   4  365.06   50.49
  -5  -9  -4  863.61   26.40
  -5  -9  -4  827.52   25.70
   5   9   4  816.02   30.40
   5   9   4  784.02   82.89
  -6  -9  -4  105.79    4.90
  -6  -9  -4  116.29    5.80
   6   9   4  111.19    9.60
   6   9   4   94.79   28.70
  -7  -9  -4   33.80    3.00
  -7  -9  -4   35.60    2.70
   7   9   4   45.40    8.00
  -8  -9  -4   74.69    4.20
  -8  -9  -4   72.49    4.80
   8   9   4   75.19   10.00
  -9  -9  -4   39.80    3.70
  -9  -9  -4   43.00    3.20
   9   9   4   41.70    6.60
 -10  -9  -4   52.79    3.90
  10   9   4   46.30    5.70
   7 -10  -4   19.50    2.40
  -7  10   4   16.10    4.30
   6 -10  -4  272.97   10.30
   6 -10  -4  269.77   11.30
  -6  10   4  258.37   12.50
   5 -10  -4  146.39    8.30
   5 -10  -4  139.29    6.40
  -5  10   4  148.19    8.60
   4 -10  -4    2.50    1.20
   4 -10  -4   -0.50    1.10
  -4  10   4    0.70    2.60
   3 -10  -4   32.10    3.10
   3 -10  -4   38.90    2.90
   3 -10  -4   50.69   43.30
  -3  10   4   34.70    4.40
  -3  10   4    1.90   26.10
   2 -10  -4  269.07   10.60
   2 -10  -4  222.38   56.19
   2 -10  -4  269.17   10.00
  -2  10   4  324.37   49.00
  -2  10   4  264.47   11.10
   1 -10  -4  723.13   84.29
   1 -10  -4  703.03   22.30
  -1  10   4  709.13   23.20
  -1  10   4  695.93   24.70
  -1  10   4  698.43   77.09
   0 -10  -4  370.16   66.09
   0 -10  -4  446.26   14.80
   0  10   4  436.26   17.30
   0  10   4  448.96   59.89
   0  10   4  441.86   15.40
  -1 -10  -4  123.59    5.70
  -1 -10  -4   94.29   36.30
   1  10   4  127.39    8.30
   1  10   4  119.39    6.00
   1  10   4  103.79   28.80
  -2 -10  -4   43.40    3.00
  -2 -10  -4    1.20   21.50
  -2 -10  -4   44.20    2.00
   2  10   4   51.99    6.30
   2  10   4   38.90   19.20
   2  10   4   39.50    3.40
  -3 -10  -4    1.30    0.60
  -3 -10  -4    2.90    1.20
  -3 -10  -4   -7.40   15.40
   3  10   4    3.30    3.90
   3  10   4    0.00   10.50
   3  10   4    1.70    1.40
  -4 -10  -4   27.40    2.00
  -4 -10  -4   -8.90   21.10
  -4 -10  -4   26.70    2.50
   4  10   4   37.10   21.00
   4  10   4   25.60    5.30
  -5 -10  -4  190.68    8.20
   5  10   4  187.08   12.30
   5  10   4  233.58   42.10
  -6 -10  -4  222.28    8.30
  -6 -10  -4  221.28    9.40
   6  10   4  220.78   13.60
  -7 -10  -4    5.30    1.40
  -7 -10  -4   10.20    2.10
  -8 -10  -4   95.09    5.90
  -8 -10  -4  111.09    7.20
   8  10   4  108.39   10.00
  -9 -10  -4  188.28    8.20
  -9 -10  -4  182.58    8.90
   9  10   4  186.68   12.30
   6 -11  -4  105.69    5.90
   6 -11  -4   80.99    4.80
  -6  11   4   81.49    7.10
   5 -11  -4   25.40    3.30
   5 -11  -4   27.00    2.70
  -5  11   4   25.30    4.70
   4 -11  -4   19.40    2.80
   4 -11  -4   25.60    2.60
  -4  11   4   26.20    4.40
   3 -11  -4    5.80    1.70
   3 -11  -4    4.70    1.70
  -3  11   4    3.40    2.70
   2 -11  -4   18.60    2.20
  -2  11   4   17.10    4.60
  -2  11   4   23.60    3.80
   1 -11  -4    1.00    0.90
   1 -11  -4    9.80   31.60
  -1  11   4    1.50    2.40
  -1  11   4    3.50    3.70
   0 -11  -4   81.49    4.50
   0 -11  -4   45.20   40.50
   0  11   4   82.99    7.30
   0  11   4   90.89   26.90
   0  11   4   81.69    5.50
  -1 -11  -4    8.80    1.70
  -1 -11  -4  -15.20   28.40
   1  11   4    8.30    4.20
   1  11   4    8.20    2.30
  -2 -11  -4  425.06   14.80
  -2 -11  -4  364.26   69.09
   2  11   4  405.06   18.30
   2  11   4  441.86   59.49
   2  11   4  446.66   14.80
  -3 -11  -4  323.57   11.90
  -3 -11  -4  323.37   10.20
   3  11   4  292.87   15.40
   3  11   4  372.86   53.99
   3  11   4  316.67   11.20
  -4 -11  -4    9.90    1.30
  -4 -11  -4   10.40    2.20
   4  11   4   14.50   24.30
   4  11   4   10.50    5.00
  -5 -11  -4   39.10    3.30
  -5 -11  -4   35.80    2.40
   5  11   4   31.30    6.90
  -6 -11  -4   61.19    4.30
   6  11   4   61.09    8.80
  -7 -11  -4   21.90    2.30
  -7 -11  -4   26.90    3.10
   7  11   4   33.70    7.20
  -8 -11  -4   36.60    3.00
  -8 -11  -4   36.60    3.60
   8  11   4   36.80    7.90
  -9 -11  -4  225.88    9.10
  -9 -11  -4  200.08    9.90
   9  11   4  212.78   13.20
   5 -12  -4   20.20    3.00
   5 -12  -4   25.60    2.90
  -5  12   4   14.30    4.30
   4 -12  -4  278.37   10.80
   4 -12  -4  284.07   11.60
  -4  12   4  258.07   12.60
   3 -12  -4  239.88    9.60
  -3  12   4  225.98   12.40
  -3  12   4  231.98   11.30
   2 -12  -4  119.79    6.00
  -2  12   4  114.09    9.00
  -2  12   4  121.59    8.60
   1 -12  -4   86.69    5.10
  -1  12   4   93.29   12.00
  -1  12   4   87.19    6.20
   0  12   4   44.70    4.60
   0  12   4   42.50    6.60
  -1 -12  -4    3.70    1.30
   1  12   4    2.80    4.20
   1  12   4    2.50    2.20
  -2 -12  -4   60.39    5.10
   2  12   4   76.39    4.80
   2  12   4   71.39    8.40
  -3 -12  -4  433.86   17.70
  -3 -12  -4  475.65   14.40
   3  12   4  472.55   15.60
   3  12   4  493.35   29.50
  -4 -12  -4  230.28    7.90
  -4 -12  -4  227.58    9.60
   4  12   4  208.38   13.90
  -5 -12  -4   42.40    2.70
  -5 -12  -4   39.80    3.50
   5  12   4   41.00    8.40
  -6 -12  -4   53.19    3.20
  -6 -12  -4   52.79    4.10
   6  12   4   52.99    8.60
  -7 -12  -4    4.70    1.40
  -7 -12  -4    5.90    1.90
   7  12   4   10.00    5.30
  -8 -12  -4    0.80    1.30
  -8 -12  -4    1.70    0.90
   8  12   4    9.30    4.90
   4 -13  -4    4.40    1.50
  -4  13   4    5.10    3.20
  -4  13   4   -1.40    4.10
   3 -13  -4  186.68    8.50
  -3  13   4  194.28   12.20
  -3  13   4  195.38   10.40
   2 -13  -4   44.70    3.70
  -2  13   4   42.60    7.20
  -2  13   4   51.19    5.60
   1 -13  -4  101.49    5.70
  -1  13   4  118.39    8.10
  -1  13   4  108.79    9.50
   0 -13  -4   78.99    4.90
   0  13   4   88.29    6.20
   0  13   4   82.19    8.90
   1  13   4    3.80    5.10
   1  13   4    5.40    2.10
  -2 -13  -4   30.40    3.00
   2  13   4   32.50    7.30
  -3 -13  -4   47.80    3.80
   3  13   4   47.10    8.20
  -4 -13  -4   17.00    2.30
   4  13   4   22.10    7.10
  -5 -13  -4   24.40    2.90
  -5 -13  -4   33.10    2.40
   5  13   4   20.40    6.70
  -6 -13  -4  220.78   10.10
  -6 -13  -4  229.48    8.60
   6  13   4  228.68   15.50
  -7 -13  -4  228.48   10.60
   7  13   4  232.68   15.60
   2 -14  -4   55.39    4.30
  -2  14   4   64.19    6.00
  -2  14   4   54.99    8.40
   1 -14  -4    4.90    1.80
  -1  14   4    4.40    5.00
  -1  14   4    6.50    2.70
   0 -14  -4  362.16   14.10
   0  14   4  359.96   18.60
   0  14   4  392.76   15.00
  -1 -14  -4  183.18    8.80
   1  14   4  193.28   13.80
   1  14   4  209.58    9.40
   2  14   4    9.10    5.90
  -3 -14  -4    4.30    1.50
   3  14   4    1.80    6.20
  -4 -14  -4    2.80    1.40
   4  14   4    4.80    6.30
  -5 -14  -4   36.20    3.60
   5  14   4   37.10    8.40
   0  14  -5  125.29    5.90
   0  14  -5  114.49    9.60
   1 -14   5   46.40    4.00
   2 -14   5   35.70    5.00
  -4 -13   5    0.80    1.20
  -4 -13   5    3.90    1.30
  -3 -13   5    0.60    1.20
   2  13  -5   13.80    4.80
  -2 -13   5    3.60    1.10
  -2 -13   5    5.90    1.80
   1  13  -5  109.19   10.20
   1  13  -5  102.09    5.60
  -1 -13   5   81.39    4.20
  -1 -13   5   77.69    5.10
   0  13  -5    5.40    8.10
   0 -13   5    0.90    1.10
   0 -13   5    4.40    1.10
  -1  13  -5  134.09    7.30
   1 -13   5  119.69    6.60
  -2  13  -5  159.18    9.20
  -2  13  -5  151.18    8.40
   2 -13   5  145.49    7.50
  -3  13  -5   13.60    5.40
  -3  13  -5    5.20    2.30
   3 -13   5    1.90    1.50
  -4  13  -5   23.80    3.70
  -4  13  -5   22.80    5.90
   5 -13   5    5.10    2.30
   5  12  -5   95.69    8.30
  -5 -12   5   80.99    4.80
  -5 -12   5   73.49    4.60
   4  12  -5  102.49    8.90
  -4 -12   5   87.79    4.90
   3  12  -5    4.50    4.00
  -3 -12   5    2.00    1.20
  -3 -12   5    0.80    1.20
   2  12  -5   81.39    4.20
   2  12  -5   71.69   10.80
  -2 -12   5   61.19    4.20
   1  12  -5   16.90    6.00
  -1 -12   5   10.80    2.20
  -1 -12   5   12.20    1.70
   0  12  -5   16.10    3.20
   0  12  -5   24.30    6.20
   0 -12   5   11.60    2.90
   0 -12   5   16.00    1.80
  -1  12  -5    4.20    1.60
   1 -12   5    6.60    1.80
   1 -12   5    3.70    1.00
  -2  12  -5   35.30    7.00
  -2  12  -5   44.00    5.90
   2 -12   5   28.10    2.90
   2 -12   5   28.00    1.90
  -3  12  -5   17.80    5.50
  -3  12  -5   19.10    3.80
   3 -12   5   15.40    2.60
  -4  12  -5   81.79    6.40
  -4  12  -5   89.69    8.70
   4 -12   5   77.69    5.10
  -5  12  -5  241.98   12.40
  -5  12  -5  212.28   11.10
   5 -12   5  212.28    9.80
  -6  12  -5   48.30    4.90
   6 -12   5   37.00    3.80
   6  11  -5   15.40    4.10
  -6 -11   5    9.50    1.90
  -6 -11   5   10.20    2.20
   5  11  -5   35.50    5.70
  -5 -11   5   31.40    2.80
  -5 -11   5   23.40    2.60
   4  11  -5   11.20    4.40
  -4 -11   5   13.10    1.80
  -4 -11   5   14.30    2.30
   3  11  -5   70.39    3.70
   3  11  -5   60.19    7.60
  -3 -11   5   54.89    3.80
  -3 -11   5   66.89    3.90
   2  11  -5   62.39   44.10
   2  11  -5   50.69    7.60
   2  11  -5   63.69    4.00
  -2 -11   5   61.49   48.00
  -2 -11   5   51.59    4.60
  -2 -11   5   53.79    3.70
   1  11  -5  519.55   21.40
   1  11  -5  516.75   17.60
   1  11  -5  418.46   80.79
  -1 -11   5  536.55   17.40
  -1 -11   5  501.65   16.30
  -1 -11   5  352.96   84.29
   0  11  -5  111.99    6.40
   0  11  -5  116.49    9.50
   0  11  -5   82.89   37.10
   0 -11   5  116.19    5.00
   0 -11   5  118.19    5.80
   0 -11   5   21.90   48.70
  -1  11  -5   14.70   30.10
   1 -11   5  -68.09   42.20
  -2  11  -5   41.00   28.80
  -2  11  -5   32.00    3.80
  -2  11  -5   53.29    6.80
   2 -11   5   66.79   41.50
   2 -11   5   42.60    2.40
   2 -11   5   37.30    3.20
  -3  11  -5  -43.20   25.60
   3 -11   5   15.30   43.30
  -4  11  -5    0.40    1.60
  -4  11  -5    4.40    5.10
   4 -11   5    6.20   59.49
   4 -11   5    1.40    0.90
   4 -11   5    1.50    1.30
  -5  11  -5   27.30    4.20
   5 -11   5   30.30    3.10
  -6  11  -5  169.48    9.70
   6 -11   5  174.68    8.30
   7 -11   5   38.50    3.70
   7  10  -5  255.77   13.30
  -7 -10   5  241.38    9.40
  -7 -10   5  244.78   10.20
   6  10  -5   29.40    4.90
  -6 -10   5   20.20    2.30
  -6 -10   5   22.10    2.70
   5  10  -5    6.80    3.90
  -5 -10   5    7.30    1.60
  -5 -10   5    9.70    2.00
   4  10  -5  -28.10   37.10
  -4 -10   5  -13.60   44.20
   3  10  -5    1.50   30.50
   3  10  -5    8.40    3.90
  -3 -10   5  -11.80   37.90
   2  10  -5   73.89    5.00
   2  10  -5   36.80   38.00
   2  10  -5   84.49    8.10
  -2 -10   5   88.79   49.80
  -2 -10   5   78.39    4.30
  -2 -10   5   77.99    4.10
   1  10  -5   81.79   39.50
   1  10  -5  114.89    9.10
   1  10  -5  112.49    5.90
  -1 -10   5  122.49    5.60
  -1 -10   5  152.08   46.80
   0  10  -5  389.46   17.20
   0  10  -5  400.36   14.70
   0 -10   5  445.66   71.49
   0 -10   5  395.66   13.00
   0 -10   5  413.46   14.00
  -1  10  -5   18.20    3.20
  -1  10  -5  -16.80   20.10
   1 -10   5   16.90    1.80
   1 -10   5   19.50    2.10
   1 -10   5   32.50   36.20
  -2  10  -5  437.76   74.89
  -2  10  -5  574.54   21.50
  -2  10  -5  567.84   20.10
   2 -10   5  590.94   19.10
   2 -10   5  580.94   17.50
   2 -10   5  541.25   87.49
  -3  10  -5   93.59   38.60
  -3  10  -5   68.69    7.10
  -3  10  -5   71.49    5.30
   3 -10   5   77.09    4.50
   3 -10   5   51.59   34.60
   3 -10   5   70.59    3.30
  -4  10  -5   59.69    5.10
  -4  10  -5   23.10   28.90
  -4  10  -5   69.29    6.60
   4 -10   5   67.49    4.30
   4 -10   5   66.69    3.10
   4 -10   5  -13.30   35.00
  -5  10  -5   -2.00   27.20
   5 -10   5  -38.00   39.60
  -6  10  -5   98.99    7.00
  -6  10  -5   74.29    6.10
   6 -10   5   80.49    5.10
   6 -10   5   63.29   70.39
  -7  10  -5    2.10    2.10
   7 -10   5    3.80    1.40
  -8  10  -5   44.30    5.20
   8 -10   5   41.10    3.80
   8   9  -5   90.19    7.40
  -8  -9   5   80.59    5.20
   7   9  -5   12.10    3.80
  -7  -9   5   10.90    1.70
  -7  -9   5   11.60    2.40
   6   9  -5  212.88   11.90
  -6  -9   5  220.78    8.30
  -6  -9   5  207.38    8.80
   5   9  -5   35.10    5.30
   5   9  -5   47.60   33.20
   5   9  -5    4.50   47.30
  -5  -9   5   41.60    2.80
  -5  -9   5   38.20    3.10
   4   9  -5  522.05   20.50
   4   9  -5  419.36   80.59
   4   9  -5  491.65   16.30
  -4  -9   5  498.05   16.60
  -4  -9   5  556.44  106.29
  -4  -9   5  502.85   16.40
   3   9  -5   56.99   33.70
   3   9  -5   73.89    7.20
   3   9  -5   72.59    4.00
  -3  -9   5   71.19    3.90
  -3  -9   5  128.89   43.10
  -3  -9   5   77.49    4.60
   2   9  -5   38.00    2.90
   2   9  -5   31.40    5.50
   2   9  -5   34.20   24.10
  -2  -9   5   47.30   34.50
  -2  -9   5   35.70    3.80
  -2  -9   5   35.90    2.60
   1   9  -5  320.57   71.99
   1   9  -5  387.76   13.70
   1   9  -5  385.66   16.80
  -1  -9   5  391.66   13.30
  -1  -9   5  404.76   12.80
  -1  -9   5  304.07   71.09
   0   9  -5   32.10   26.10
   0   9  -5   99.99    7.30
   0   9  -5   95.19    7.70
   0  -9   5   94.69    4.60
   0  -9   5   78.29   34.20
  -1   9  -5   44.60    3.80
  -1   9  -5   23.40   23.70
   1  -9   5   45.10    3.00
   1  -9   5   51.49   33.90
   1  -9   5   43.60    2.70
  -2   9  -5   61.59    6.70
  -2   9  -5   59.79    4.60
  -2   9  -5   47.80   33.60
   2  -9   5   61.19    3.80
   2  -9   5   65.49    3.20
   2  -9   5   52.99   29.80
  -3   9  -5  757.12   94.89
  -3   9  -5  824.82   27.30
  -3   9  -5  788.12   26.90
   3  -9   5  839.02   24.40
   3  -9   5  846.52   25.90
   3  -9   5  780.42   92.59
  -4   9  -5  140.79    7.90
  -4   9  -5  131.99   43.40
  -4   9  -5  161.28    8.40
   4  -9   5  163.48    5.90
   4  -9   5  162.98    7.20
   4  -9   5  114.39   47.00
  -5   9  -5   68.89    5.60
  -5   9  -5   75.19    5.70
  -5   9  -5   86.79   39.30
   5  -9   5   44.70   33.60
   5  -9   5   68.29    3.40
   5  -9   5   71.99    4.50
  -6   9  -5   57.89   28.50
  -6   9  -5    1.60    2.30
  -6   9  -5    3.30    2.70
   6  -9   5    2.20    1.20
   6  -9   5  -36.90   40.30
   6  -9   5    2.50    1.40
  -7   9  -5   47.40    5.10
  -7   9  -5    6.90   37.60
   7  -9   5   47.00    3.10
   7  -9   5   50.89    3.90
   7  -9   5   22.30   47.30
  -8   9  -5    5.00    2.20
   8  -9   5    2.70    1.50
   9  -9   5   10.90    2.30
  -9  -8   5   23.30    4.60
   8   8  -5   61.59    5.60
  -8  -8   5   63.19    4.50
   7   8  -5  159.28    9.80
   7   8  -5  172.68    8.30
  -7  -8   5  167.48    7.60
   6   8  -5   -6.80   51.39
   6   8  -5    2.30    2.30
   6   8  -5  -35.60   33.10
  -6  -8   5    2.40    1.20
  -6  -8   5    2.90    0.90
   5   8  -5  207.48   71.89
   5   8  -5  258.47    9.10
   5   8  -5  246.78   12.40
  -5  -8   5  256.37    9.70
  -5  -8   5  258.27    9.20
   4   8  -5  142.99    9.00
   4   8  -5  128.09   46.20
   4   8  -5  146.19    6.10
  -4  -8   5  155.98    6.10
  -4  -8   5  148.89    6.40
   3   8  -5 1094.89   35.30
   3   8  -5 1254.37  122.39
   3   8  -5 1147.59   38.70
  -3  -8   5 1192.38   35.20
  -3  -8   5 1305.17  123.89
  -3  -8   5 1216.88   35.10
   2   8  -5   14.20   23.80
  -2  -8   5    8.00   24.20
  -2  -8   5    4.80    1.20
  -2  -8   5    2.30    1.10
   1   8  -5  344.47   14.80
   1   8  -5  344.77   12.40
   1   8  -5  377.76   71.59
  -1  -8   5  359.46   12.00
  -1  -8   5  270.37   81.99
  -1  -8   5  368.36   11.80
   0   8  -5   -1.20    3.10
   0   8  -5    6.80   20.30
   0   8  -5    1.50    1.30
   0  -8   5   -8.00   15.50
   0  -8   5    5.80    1.30
  -1   8  -5    0.90    1.30
  -1   8  -5  -36.50   20.20
  -1   8  -5   -0.30    1.40
   1  -8   5    0.10    0.30
  -2   8  -5   96.69    6.90
  -2   8  -5   99.89   37.80
  -2   8  -5   99.89    6.40
   2  -8   5  101.69    5.50
   2  -8   5   96.99   34.60
   2  -8   5   95.99    4.10
  -3   8  -5   19.80   26.60
  -3   8  -5   43.10    5.00
  -3   8  -5   38.50    3.70
   3  -8   5   39.40    2.50
   3  -8   5   38.70    2.90
   3  -8   5   14.30   22.20
  -4   8  -5  106.89    6.20
  -4   8  -5   96.69    6.00
  -4   8  -5   37.40   26.90
   4  -8   5   97.29    4.30
   4  -8   5   65.59   34.80
   4  -8   5  103.59    5.10
  -5   8  -5   38.10   25.70
  -5   8  -5   21.00    3.90
  -5   8  -5   17.90    3.10
   5  -8   5   18.50    2.00
   5  -8   5   -1.80   26.20
   5  -8   5   21.00    2.40
  -6   8  -5 1205.28   38.70
  -6   8  -5 1252.07   36.70
  -6   8  -5 1061.09  116.39
   6  -8   5 1243.08  123.19
   6  -8   5 1188.78   35.80
   6  -8   5 1248.68   37.50
  -7   8  -5  363.56   14.90
  -7   8  -5  400.46   71.69
   7  -8   5  297.27   78.79
   7  -8   5  363.26   12.20
   7  -8   5  362.76   13.60
  -8   8  -5    4.20    1.20
  -8   8  -5    2.60    2.30
   8  -8   5    3.30    1.40
  -9   8  -5   39.00    4.90
  -9   8  -5   40.00    4.20
   9  -8   5   33.40    3.50
 -10   8  -5  109.59    7.30
  10  -8   5   87.99    5.80
   9   7  -5  186.18   10.60
  -9  -7   5  192.88    8.80
   8   7  -5   24.70    3.60
  -8  -7   5   21.40    2.60
   7   7  -5  -23.50   52.79
   7   7  -5   47.00   44.70
   6   7  -5    0.40    2.00
   6   7  -5   33.30   30.10
   6   7  -5  -40.10   41.10
  -6  -7   5    1.30    1.00
   5   7  -5   96.09   56.69
   5   7  -5   97.59   48.50
   5   7  -5  136.49    5.50
   5   7  -5  126.29    8.10
  -5  -7   5  132.89    6.10
  -5  -7   5  140.49    5.60
   4   7  -5  847.82   26.10
   4   7  -5  841.92   29.40
   4   7  -5  796.42   99.19
  -4  -7   5  870.81   25.80
  -4  -7   5  874.51   26.30
   3   7  -5   67.29    3.70
   3   7  -5   68.59    6.80
   3   7  -5   36.70   30.80
  -3  -7   5   69.79    3.40
  -3  -7   5   65.99    5.10
  -3  -7   5   43.30   32.00
   2   7  -5   71.59    3.90
   2   7  -5   74.69    6.20
   2   7  -5   69.29   32.00
  -2  -7   5   78.99    3.60
  -2  -7   5  100.99   41.40
  -2  -7   5   79.59    3.90
   1   7  -5  158.58   45.90
   1   7  -5  201.38   10.20
   1   7  -5  211.08    8.20
  -1  -7   5  222.48    7.70
  -1  -7   5  205.98   49.30
  -1  -7   5  218.58    7.60
   0   7  -5 1456.15   45.10
   0   7  -5 1327.27  111.09
   0   7  -5 1409.96   43.50
   0  -7   5 1499.35   42.80
   0  -7   5 1480.25   42.50
   0  -7   5 1591.44  121.69
  -1   7  -5  402.66   14.00
  -1   7  -5  357.56   14.40
  -1   7  -5  394.26   57.89
   1  -7   5  468.55   63.69
   1  -7   5  417.86   13.10
  -2   7  -5   33.80    3.40
  -2   7  -5   32.00   19.50
  -2   7  -5   39.20    4.90
   2  -7   5   39.50    2.60
   2  -7   5   38.60    2.30
   2  -7   5   44.20   24.00
  -3   7  -5  298.57   12.10
  -3   7  -5  257.07   50.29
  -3   7  -5  289.97   11.50
   3  -7   5  309.47   10.70
   3  -7   5  291.77    9.80
   3  -7   5  334.27   53.29
  -4   7  -5  117.99    6.40
  -4   7  -5  105.49   36.80
  -4   7  -5  110.19    6.30
   4  -7   5  122.19    4.90
   4  -7   5   92.39   35.50
   4  -7   5  118.99    5.50
  -5   7  -5   29.00   22.40
  -5   7  -5   28.10    3.70
  -5   7  -5   21.30    3.20
   5  -7   5   22.60    2.40
   5  -7   5    6.40   20.20
   5  -7   5   26.40    2.20
  -6   7  -5   94.49    5.50
  -6   7  -5   93.19    4.50
  -6   7  -5   89.79    6.00
  -6   7  -5   97.09   39.70
   6  -7   5   67.19   33.60
   6  -7   5   93.59    5.20
  -7   7  -5  442.26   16.90
  -7   7  -5  379.36   69.59
  -7   7  -5  462.15   14.90
   7  -7   5  503.85   80.69
   7  -7   5  439.06   15.90
  -8   7  -5   45.30    4.90
  -8   7  -5   40.50   36.10
  -8   7  -5   52.09    3.20
   8  -7   5    9.30   44.90
   8  -7   5   45.90    3.80
  -9   7  -5   90.89    6.60
  -9   7  -5   92.89    4.70
   9  -7   5   77.49    5.30
 -10   7  -5  129.09    5.90
 -10   7  -5  128.29    7.90
  10  -7   5  111.49    6.70
   9   6  -5    7.20    2.20
   8   6  -5  -48.10   68.99
   7   6  -5   61.19   36.10
   7   6  -5  119.49    7.80
   7   6  -5  122.89    5.40
   7   6  -5  105.19   61.99
  -7  -6   5  121.59    6.00
   6   6  -5  484.55  110.09
   6   6  -5  529.65   80.49
   6   6  -5  543.25   20.80
   6   6  -5  555.34   17.60
  -6  -6   5  569.64   18.30
  -6  -6   5  556.94   17.30
   5   6  -5  124.69    7.50
   5   6  -5  116.19    5.00
   5   6  -5  170.28   52.89
   5   6  -5   71.09   39.00
  -5  -6   5  124.49    4.90
  -5  -6   5  119.99    5.50
   4   6  -5   21.40    4.10
   4   6  -5    3.00   23.10
   4   6  -5   12.10   18.40
   4   6  -5   16.30    1.70
  -4  -6   5   15.10    1.90
  -4  -6   5   17.70    1.50
   3   6  -5  225.48   58.69
   3   6  -5  245.18   11.00
   3   6  -5  237.78    8.80
  -3  -6   5  258.17   97.19
  -3  -6   5  245.18    8.20
  -3  -6   5  247.98    8.70
   2   6  -5   54.69    3.20
   2   6  -5   49.70    5.10
   2   6  -5   74.59   28.70
  -2  -6   5   59.39    2.80
  -2  -6   5   59.99    3.20
  -2  -6   5   31.20   22.60
   1   6  -5  186.18    7.40
   1   6  -5  178.88    9.00
   1   6  -5  196.88   46.80
  -1  -6   5  191.08    6.70
  -1  -6   5  201.28    7.00
  -1  -6   5  217.68   51.49
   0   6  -5  151.48    6.50
   0   6  -5  156.78    9.00
   0   6  -5  139.39   40.70
   0  -6   5  161.78    5.90
   0  -6   5  163.08   40.40
   0  -6   5  154.98    5.80
  -1   6  -5  632.44   21.30
  -1   6  -5  628.84   20.60
  -1   6  -5  646.34   70.59
   1  -6   5  654.93   19.80
   1  -6   5  659.73   19.50
  -2   6  -5   10.60   14.10
  -2   6  -5   18.50    3.50
  -2   6  -5   11.10    2.20
   2  -6   5   13.20    1.50
  -3   6  -5  570.44   68.39
  -3   6  -5  580.44   18.40
  -3   6  -5  547.75   18.90
   3  -6   5  585.24   18.10
  -4   6  -5  650.03   20.20
  -4   6  -5  626.94   73.09
  -4   6  -5  635.04   21.50
   4  -6   5  662.03   19.90
   4  -6   5  663.53   20.80
  -5   6  -5  169.38   46.00
  -5   6  -5  208.58    7.60
  -5   6  -5  203.08    9.00
   5  -6   5  209.28    8.30
  -6   6  -5  161.58    8.00
  -6   6  -5   91.19   35.00
  -6   6  -5  172.08    6.60
   6  -6   5  176.58    7.40
  -7   6  -5  117.39   32.00
  -7   6  -5  133.59    5.60
  -7   6  -5  131.69    7.20
   7  -6   5  131.49    6.50
  -8   6  -5   31.00    3.90
  -8   6  -5   23.10   27.70
   8  -6   5   24.90    2.80
  -9   6  -5   27.20    4.00
  -9   6  -5   28.20    2.30
   9  -6   5   24.70    3.00
 -10   6  -5  498.25   18.90
 -10   6  -5  495.35   16.70
  10  -6   5  486.15   17.80
 -11   6  -5  297.47   12.70
 -11   6  -5  344.97   14.30
  11  -6   5  312.57   12.90
   9   5  -5   12.50    3.20
  -9  -5   5   12.60    2.50
   8   5  -5   54.89   39.20
   8   5  -5   71.39   64.79
   8   5  -5   58.49    5.20
  -8  -5   5   54.29    3.90
   7   5  -5  436.96   17.50
   7   5  -5  334.27   91.19
   7   5  -5  455.85   79.29
  -7  -5   5  443.66   15.20
  -7  -5   5  440.76   14.10
   6   5  -5   39.60   25.70
   6   5  -5   59.49    5.10
   6   5  -5   34.60   37.90
  -6  -5   5   60.09    3.70
  -6  -5   5   59.09    3.30
   5   5  -5   25.00   22.50
   5   5  -5   31.40    2.20
   5   5  -5   26.70    3.50
   5   5  -5   37.30   39.50
  -5  -5   5   27.80    2.40
   4   5  -5  155.58    8.10
   4   5  -5  120.29   46.90
   4   5  -5  152.48    6.20
   4   5  -5  118.39   40.80
  -4  -5   5  166.88    7.20
  -4  -5   5  173.38    6.30
   3   5  -5  495.65   67.39
   3   5  -5  502.85   18.20
   3   5  -5  501.95   16.20
  -3  -5   5  522.55   16.20
  -3  -5   5  514.85   15.50
  -3  -5   5  532.55   70.39
   2   5  -5  611.44   72.79
   2   5  -5  688.83   21.60
   2   5  -5  704.53   23.30
  -2  -5   5  719.13   21.30
  -2  -5   5  716.43   20.80
   1   5  -5 1415.66  106.89
   1   5  -5 1468.05   43.40
   1   5  -5 1474.65   44.70
  -1  -5   5 1489.35   43.00
  -1  -5   5 1510.75   42.90
   0   5  -5  241.78   41.70
   0   5  -5  240.58    8.80
   0  -5   5  239.78    8.00
   0  -5   5  246.28    8.20
  -1   5  -5  333.27   12.10
  -1   5  -5  336.87   11.80
  -1   5  -5  313.67   46.40
   1  -5   5  356.36   11.00
   1  -5   5  342.77   10.90
  -2   5  -5   21.60    2.40
  -2   5  -5   25.60   14.90
  -2   5  -5   23.70    3.40
   2  -5   5   27.40    2.00
   2  -5   5   24.70    1.80
  -3   5  -5  149.09   37.30
  -3   5  -5  176.28    6.70
  -3   5  -5  167.98    7.10
  -3   5  -5  139.79    5.30
   3  -5   5  174.08    6.40
  -4   5  -5 1578.14  132.19
  -4   5  -5 1554.94   44.90
  -4   5  -5 1470.55   46.00
   4  -5   5 1557.54   45.40
   4  -5   5 1588.54  142.49
  -5   5  -5  496.85   65.69
  -5   5  -5  535.35   18.70
  -5   5  -5  573.14   17.50
   5  -5   5  615.04   84.79
   5  -5   5  572.14   18.20
  -6   5  -5  -16.10   14.30
  -6   5  -5   16.20    1.60
  -6   5  -5   12.70    2.60
   6  -5   5   30.90   24.20
   6  -5   5   16.60    2.10
  -7   5  -5    2.40    0.90
  -7   5  -5   -8.40   17.00
  -7   5  -5   -0.40    1.70
   7  -5   5    1.10    1.10
  -8   5  -5   39.70    4.10
  -8   5  -5   55.89   32.30
   8  -5   5   43.00    3.60
  -9   5  -5    6.40    2.60
  -9   5  -5    1.60    1.00
   9  -5   5    2.60    1.60
 -10   5  -5    9.30    1.80
 -10   5  -5   15.00    5.30
  10  -5   5    6.30    2.00
  11  -5   5    3.00    1.80
  10   4  -5   46.30    4.70
 -10  -4   5   37.10    3.50
   9   4  -5  159.28    9.20
  -9  -4   5  156.48    6.60
  -9  -4   5  158.48    7.50
   8   4  -5  152.68   75.09
   8   4  -5  173.28   57.99
  -8  -4   5  306.77   13.70
  -8  -4   5  263.77    9.70
   7   4  -5  704.23   99.79
   7   4  -5  531.75   78.99
   7   4  -5  539.15   20.70
  -7  -4   5  573.74   17.80
  -7  -4   5  563.44   18.60
   6   4  -5  163.78   52.69
   6   4  -5  203.18   56.59
   6   4  -5  265.97   11.90
  -6  -4   5  288.77    9.60
  -6  -4   5  287.17   10.10
   5   4  -5  100.69    6.20
   5   4  -5   95.09   44.60
   5   4  -5  164.48   47.10
   5   4  -5  102.99    4.60
  -5  -4   5  105.79    4.90
   4   4  -5   -4.20   11.20
   4   4  -5   10.00    2.80
   4   4  -5   11.20    1.40
   4   4  -5    5.00   21.10
  -4  -4   5   11.60    1.70
   3   4  -5  147.39    5.90
   3   4  -5  162.78   43.80
   3   4  -5  142.39    7.20
  -3  -4   5  155.88    5.90
  -3  -4   5  149.39    5.10
   2   4  -5 1333.97   40.10
   2   4  -5 1384.56  103.59
   2   4  -5 1350.66   41.40
  -2  -4   5 1422.06   39.90
  -2  -4   5 1351.26   39.10
   1   4  -5  541.55   59.69
   1   4  -5  541.95   17.20
   1   4  -5  545.35   18.00
  -1  -4   5  559.84   16.80
  -1  -4   5  556.74   62.69
  -1  -4   5  533.75   16.20
   0   4  -5    1.30   11.20
   0   4  -5    7.50    1.40
   0  -4   5   10.40    1.40
   0  -4   5    7.60   11.00
   0  -4   5    7.70    0.80
  -1   4  -5  231.08    8.70
  -1   4  -5  238.48    8.80
  -1   4  -5  231.78   36.10
   1  -4   5  262.87   38.10
   1  -4   5  251.17    8.20
   1  -4   5  248.98    8.10
  -2   4  -5  341.67   11.20
  -2   4  -5  316.07   10.30
  -2   4  -5  361.36   12.00
  -2   4  -5  292.57   41.20
   2  -4   5  347.17   11.10
   2  -4   5  362.66   11.10
   2  -4   5  427.76   47.40
  -3   4  -5  483.05   16.20
  -3   4  -5  497.35   15.50
  -3   4  -5  474.55   54.39
   3  -4   5  549.74   55.19
   3  -4   5  487.65   15.60
  -4   4  -5  312.97   11.40
  -4   4  -5  329.67   10.50
  -4   4  -5  286.47   45.40
   4  -4   5  314.47   10.90
   4  -4   5  317.57   44.90
  -5   4  -5  134.39    6.50
  -5   4  -5  148.59    5.60
  -5   4  -5  181.88   43.70
   5  -4   5  182.18   35.10
   5  -4   5  142.89    6.20
  -6   4  -5   11.30   14.80
   6  -4   5   13.90   15.80
  -7   4  -5  188.88   51.19
  -7   4  -5  224.68    8.10
  -7   4  -5  220.28    9.40
   7  -4   5  231.38    9.10
   7  -4   5  187.58   43.00
  -8   4  -5 1471.75   44.60
  -8   4  -5 1441.66   44.70
   8  -4   5 1478.95   44.50
   8  -4   5 1462.65   43.80
  -9   4  -5  544.05   19.30
  -9   4  -5  544.75   17.80
  -9   4  -5  598.14  107.29
   9  -4   5  537.85   16.90
   9  -4   5  571.14   19.10
   9  -4   5  429.56  107.99
 -10   4  -5   23.60    3.90
  10  -4   5   20.50    3.30
 -11   4  -5  100.39    6.50
  11  -4   5   94.29    5.90
  10   3  -5   59.69    5.50
 -10  -3   5   47.40    4.00
   9   3  -5   97.69    7.10
  -9  -3   5  108.29    5.40
  -9  -3   5   97.49    5.50
   8   3  -5   71.59   42.30
   8   3  -5  121.89   52.69
   8   3  -5   48.20    4.70
  -8  -3   5   48.10    3.60
  -8  -3   5   51.89    3.50
   7   3  -5   41.60    4.20
   7   3  -5   -2.70   21.90
  -7  -3   5   45.00    3.20
  -7  -3   5   45.00    3.20
   6   3  -5   68.29    5.00
   6   3  -5   70.79   38.70
   6   3  -5   52.99   30.90
  -6  -3   5   68.99    3.90
  -6  -3   5   67.09    3.70
   5   3  -5  473.85   79.09
  -5  -3   5  472.85   15.10
   4   3  -5  566.34   19.70
   4   3  -5  683.63   85.29
   4   3  -5  600.44   71.29
   4   3  -5  574.74   18.20
  -4  -3   5  582.84   18.20
   3   3  -5  873.21   26.90
   3   3  -5  898.51   28.30
   3   3  -5  934.11   83.39
   3   3  -5  857.31   96.09
  -3  -3   5  912.41   26.80
   2   3  -5  282.07    9.80
   2   3  -5  331.67   47.30
   2   3  -5  275.87   10.60
  -2  -3   5  333.27   48.00
  -2  -3   5  301.87    9.60
   1   3  -5  356.66   45.90
   1   3  -5  325.57   10.40
   1   3  -5  351.96   12.10
  -1  -3   5  371.06   11.30
  -1  -3   5  410.16   50.19
  -1  -3   5  354.86   10.50
   0   3  -5   28.80    1.60
   0   3  -5   32.30   15.00
   0  -3   5   30.20    1.50
   0  -3   5   36.90   17.50
   0  -3   5   28.70    1.90
  -1   3  -5  896.01   66.79
  -1   3  -5  876.01   26.70
  -1   3  -5  900.81   27.20
   1  -3   5  967.10   68.19
   1  -3   5  869.71   27.00
   1  -3   5  953.10   26.80
   1  -3   5  915.01   26.40
  -2   3  -5 4579.14  191.98
   2  -3   5 4824.52  190.98
  -3   3  -5 1273.07   38.40
  -3   3  -5 1294.57   86.69
  -3   3  -5 1300.47   37.70
   3  -3   5 1292.47   37.90
   3  -3   5 1324.57   83.79
  -4   3  -5    2.70    1.20
  -4   3  -5    4.00    0.90
  -4   3  -5   -2.80    8.40
   4  -3   5    2.70    1.00
   4  -3   5    1.90    8.30
  -5   3  -5  137.19    6.20
  -5   3  -5  178.58   42.90
  -5   3  -5  144.49    5.40
   5  -3   5  139.99    6.00
   5  -3   5  124.49   31.90
  -6   3  -5  103.89    5.40
  -6   3  -5   78.39   30.10
  -6   3  -5  105.19    4.50
   6  -3   5  162.08   41.70
   6  -3   5  108.09    5.30
  -7   3  -5   21.90    1.90
  -7   3  -5   20.60    2.70
   7  -3   5   22.40    2.60
   7  -3   5   13.70   13.40
   7  -3   5   23.50    1.40
  -8   3  -5   58.09    4.30
  -8   3  -5   60.19    3.50
  -8   3  -5  114.99   37.40
   8  -3   5   67.39    4.50
   8  -3   5   58.99    3.40
   8  -3   5   53.79   34.90
  -9   3  -5  245.88    9.10
  -9   3  -5  238.48   10.10
   9  -3   5  195.38   53.89
   9  -3   5  243.68    8.50
   9  -3   5  246.08   10.20
 -10   3  -5   14.60    2.90
 -10   3  -5   12.70    2.10
  10  -3   5   12.60    2.60
 -11   3  -5  331.77   13.30
  11  -3   5  328.57   13.20
 -12   3  -5  200.78    8.80
  12  -3   5  206.28    9.60
  10   2  -5  181.18   10.00
 -10  -2   5  170.78    7.90
 -10  -2   5  177.78    8.20
   9   2  -5  502.45   19.90
  -9  -2   5  496.35   16.80
  -9  -2   5  495.65   17.20
   8   2  -5  363.46   15.20
   8   2  -5  417.16   99.39
   8   2  -5  259.07   60.19
  -8  -2   5  362.86   12.80
  -8  -2   5  370.06   13.00
   7   2  -5    2.40   47.70
   7   2  -5   32.00   29.30
   7   2  -5   16.90    2.90
  -7  -2   5   21.60    2.20
  -7  -2   5   19.70    2.50
   6   2  -5   16.50   18.00
   6   2  -5   10.30    2.40
   6   2  -5   18.60   25.80
  -6  -2   5   11.80    1.90
   5   2  -5  652.53   22.70
   5   2  -5  642.54   87.69
   5   2  -5  769.52   79.89
  -5  -2   5  679.43   20.90
   4   2  -5 2126.99   64.59
   4   2  -5 2273.07  158.98
   4   2  -5 2196.28  137.19
   4   2  -5 2167.28   63.19
  -4  -2   5 2230.08   62.99
   3   2  -5  273.47   80.59
   3   2  -5  233.88    8.40
   3   2  -5  224.68   39.50
   3   2  -5  237.38    9.40
  -3  -2   5  258.27    8.40
   2   2  -5   61.29   25.70
   2   2  -5   96.49    4.30
   2   2  -5  108.49   29.00
   2   2  -5  102.59    4.90
  -2  -2   5  104.39    4.10
   1   2  -5  335.87   11.20
   1   2  -5  335.17   11.40
   1   2  -5  348.47   42.10
  -1  -2   5  342.37   42.60
  -1  -2   5  349.57   10.80
   0   2  -5   92.79    3.20
   0   2  -5  104.19   26.20
   0   2  -5   90.09    4.00
   0  -2   5   95.59   24.80
   0  -2   5   96.59    3.80
   0  -2   5   95.99    3.20
  -1   2  -5 3531.75   98.99
  -1   2  -5 3307.57   98.89
  -1   2  -5 3540.45  147.09
   1  -2   5 3841.72  149.49
   1  -2   5 3384.46   99.49
  -2   2  -5   31.70    1.90
  -2   2  -5   19.30    9.50
  -2   2  -5   30.00    2.10
   2  -2   5   28.00    1.80
   2  -2   5   38.30   14.00
  -3   2  -5  295.17   36.00
  -3   2  -5  301.67   10.20
   3  -2   5  291.27   33.70
   3  -2   5  300.47   10.00
  -4   2  -5   89.29    4.30
  -4   2  -5   96.69   26.80
  -4   2  -5   93.39    3.80
   4  -2   5  102.99   26.10
   4  -2   5   93.99    4.30
  -5   2  -5 2234.88  133.39
  -5   2  -5 2295.47   67.19
  -5   2  -5 2351.96   66.39
   5  -2   5 2335.37   67.19
   5  -2   5 2362.96  127.59
  -6   2  -5 1761.32  124.59
  -6   2  -5 1767.72   51.49
  -6   2  -5 1711.73   50.59
   6  -2   5 1812.72  115.99
   6  -2   5 1725.13   51.59
  -7   2  -5   40.50   24.30
  -7   2  -5   58.29    3.90
  -7   2  -5   64.09    3.40
   7  -2   5   67.19    4.30
   7  -2   5   62.19    2.90
   7  -2   5   97.59   33.20
  -8   2  -5  585.14   19.30
  -8   2  -5  558.44   75.69
  -8   2  -5  581.84   18.50
   8  -2   5  576.34   18.10
   8  -2   5  574.04   19.60
   8  -2   5  662.53   76.79
  -9   2  -5  461.65   16.40
  -9   2  -5  479.15   15.70
   9  -2   5  477.65   16.90
   9  -2   5  467.15   15.40
   9  -2   5  451.55   67.99
 -10   2  -5   12.00    1.80
  10  -2   5   13.40    2.80
 -11   2  -5   82.59    4.00
 -11   2  -5   86.29    7.00
  11  -2   5   87.19    5.70
 -12   2  -5  437.46   15.70
 -12   2  -5  419.26   15.30
  12  -2   5  421.16   16.20
  10   1  -5  156.08    9.20
 -10  -1   5  155.98    7.30
 -10  -1   5  140.99    7.40
   9   1  -5    8.30    2.40
  -9  -1   5    6.90    2.40
  -9  -1   5    7.30    2.10
   8   1  -5   45.50   45.40
   7   1  -5   16.50    3.30
   7   1  -5   30.00   26.80
  -7  -1   5   15.20    2.00
   6   1  -5  511.55   69.49
   6   1  -5  567.24   20.30
   6   1  -5  574.84   83.09
  -6  -1   5  579.14   18.30
  -6  -1   5  590.74   18.30
   5   1  -5 2011.10  131.99
   5   1  -5 1958.00  149.59
   5   1  -5 2021.00   60.19
  -5  -1   5 2023.20   57.99
  -5  -1   5 1980.60   57.89
   4   1  -5    1.20    1.10
   4   1  -5   -3.10   14.90
   4   1  -5    6.20   12.20
  -4  -1   5    1.30    1.20
  -4  -1   5    0.50    0.80
   3   1  -5   81.89    3.80
   3   1  -5   76.99    4.30
   3   1  -5   91.29   25.50
   3   1  -5   59.89   24.70
  -3  -1   5   83.69    3.60
   2   1  -5 1063.59   33.00
   2   1  -5 1202.38   92.49
   2   1  -5 1119.69   78.29
   2   1  -5 1109.99   33.60
  -2  -1   5 1143.19   32.50
   1   1  -5 4607.04  136.59
   1   1  -5 5102.49  194.48
   0   1  -5 2875.81  122.59
   0   1  -5 2854.61   80.09
   0  -1   5 2595.14   80.59
   0  -1   5 2948.70  126.39
  -1   1  -5  907.61   54.69
  -1   1  -5  870.51   26.10
  -1   1  -5  887.01   26.70
  -1   1  -5  885.91   26.10
   1  -1   5  934.81   26.40
   1  -1   5  897.11   26.10
   1  -1   5  957.80   55.89
  -2   1  -5 2631.74  110.89
  -2   1  -5 2529.95   73.49
  -2   1  -5 2517.75   73.29
   2  -1   5 2698.83  108.49
   2  -1   5 2543.55   73.19
  -3   1  -5  772.72   23.50
  -3   1  -5  767.72   23.10
  -3   1  -5  831.12   57.19
   3  -1   5  777.02   23.50
   3  -1   5  800.22   53.09
  -4   1  -5   29.80   10.90
  -4   1  -5   36.30    2.00
  -4   1  -5   35.70    2.70
   4  -1   5   39.90    2.70
   4  -1   5   39.40   14.90
  -5   1  -5  253.57    8.60
  -5   1  -5  296.27   42.20
  -5   1  -5  254.07    9.10
   5  -1   5  253.07    9.40
   5  -1   5  266.37   36.80
  -6   1  -5 2284.37   67.49
  -6   1  -5 2338.87  144.09
  -6   1  -5 2371.06   68.09
   6  -1   5 2369.36   68.49
   6  -1   5 2476.15  134.79
   6  -1   5 2319.57   67.19
  -7   1  -5  146.99    5.80
  -7   1  -5  127.59   38.80
   7  -1   5  143.09    6.80
   7  -1   5  156.18   39.50
   7  -1   5  144.39    5.80
  -8   1  -5  485.65   71.69
  -8   1  -5  498.25   16.00
   8  -1   5  471.35   15.90
   8  -1   5  494.75   17.10
   8  -1   5  503.45   67.69
  -9   1  -5  -26.80   17.50
  -9   1  -5    8.30    1.70
   9  -1   5    6.70    2.20
   9  -1   5   23.50   23.30
   9  -1   5    9.00    1.50
 -10   1  -5    3.90    1.30
 -10   1  -5    7.50    1.90
  10  -1   5    2.20    2.10
 -11   1  -5   76.69    4.90
 -11   1  -5   98.29    5.10
  11  -1   5   86.99    5.80
 -12   1  -5   59.79    4.20
  12  -1   5   67.89    5.10
 -10   0   5    4.00    1.50
   9   0  -5    7.90    2.30
  -9   0   5    9.70    2.10
   8   0  -5  569.04   21.30
   8   0  -5  617.34  101.69
  -8   0   5  585.94   19.30
  -8   0   5  573.24   18.90
   7   0  -5  892.31   30.50
   7   0  -5  924.51  113.49
  -7   0   5  925.61   28.40
  -7   0   5  930.71   28.10
   6   0  -5  189.88   50.89
   6   0  -5  233.48   10.50
  -6   0   5  247.28    9.10
  -6   0   5  239.78    8.70
   5   0  -5  701.23   24.20
   5   0  -5  767.52   89.29
  -5   0   5  732.93   22.20
  -5   0   5  730.73   22.50
  -5   0   5  767.32   91.29
   4   0  -5 1222.28   37.80
   4   0  -5 1232.08  106.49
  -4   0   5 1237.28   36.20
  -4   0   5 1212.88   35.80
   3   0  -5    6.90    1.60
   3   0  -5    0.60    7.60
   3   0  -5    4.20    1.00
  -3   0   5    2.40    0.90
   2   0  -5 1178.18   35.50
   2   0  -5 1142.39   86.39
   2   0  -5 1233.48   76.59
   2   0  -5 1250.87   36.40
  -2   0   5 1226.38   35.50
   1   0  -5   13.10    8.30
   1   0  -5   -4.50    5.60
   1   0  -5    6.20    1.20
   1   0  -5    4.70    0.90
  -1   0   5    6.30    1.10
   0   0  -5 2149.28   60.89
   0   0  -5 2097.99   60.99
   0   0  -5 2142.79   93.49
  -1   0  -5   31.10    1.90
  -1   0  -5   21.10    7.80
  -1   0  -5   26.20    1.60
  -1   0  -5   28.20    1.50
   1   0   5   26.90    1.50
   1   0   5   26.90    1.60
   1   0   5   26.10    1.30
   1   0   5   21.80    8.40
  -2   0  -5 1672.53   49.00
  -2   0  -5 1718.93   74.69
  -2   0  -5 1761.22   49.99
  -2   0  -5 1743.53   49.70
   2   0   5 1768.52   49.80
   2   0   5 1859.21   74.09
   2   0   5 1664.33   49.10
  -3   0  -5   17.50    1.30
  -3   0  -5   17.10    8.50
  -3   0  -5   17.90    1.40
   3   0   5   34.90   10.80
  -4   0  -5  674.13   55.19
  -4   0  -5  683.93   21.60
  -4   0  -5  714.83   20.10
  -4   0  -5  689.43   20.60
   4   0   5  691.23   50.59
   4   0   5  682.03   21.30
  -5   0  -5 2180.28   61.49
  -5   0  -5 2118.49  121.69
  -5   0  -5 2146.39   61.59
   5   0   5 2124.69   62.49
   5   0   5 2290.27  115.39
   5   0   5 2073.69   61.49
  -6   0  -5  761.42   22.70
  -6   0  -5  728.63   73.89
  -6   0  -5  768.22   22.50
   6   0   5  727.53   23.40
   6   0   5  714.73   22.50
   6   0   5  729.53   66.29
  -7   0  -5   12.40   15.10
  -7   0  -5   24.30    2.00
  -7   0  -5   23.00    2.20
   7   0   5   21.30   16.20
   7   0   5   23.30    3.00
  -8   0  -5  142.89   42.80
  -8   0  -5  182.98    7.30
  -8   0  -5  190.58    7.30
   8   0   5  137.59   42.30
   8   0   5  187.38    8.30
   8   0   5  180.88    7.50
  -9   0  -5  839.02  106.19
  -9   0  -5 1122.89   33.30
  -9   0  -5 1148.59   33.50
   9   0   5 1157.38   34.70
   9   0   5 1035.00  103.19
   9   0   5 1070.79   33.90
 -10   0  -5  482.55   16.20
 -10   0  -5  473.55   16.00
  10   0   5  468.95   16.80
  10   0   5  461.25   17.20
 -11   0  -5   24.60    2.50
  11   0   5   24.50    4.20
  10  -1  -5  140.99    8.30
 -10   1   5  113.19    6.00
 -10   1   5  116.29    7.10
   9  -1  -5  148.79    8.50
  -9   1   5  144.39    6.60
  -9   1   5  144.59    7.60
   8  -1  -5  636.14   22.80
   8  -1  -5  585.94  104.09
  -8   1   5  535.95   98.99
  -8   1   5  630.54   20.90
  -8   1   5  630.64   20.10
   7  -1  -5   -6.50   25.40
  -7   1   5  -15.10   19.30
   6  -1  -5  265.47   11.20
   6  -1  -5  209.48   51.19
  -6   1   5  260.67    9.80
  -6   1   5  274.37    9.30
  -6   1   5  206.18   58.39
   5  -1  -5  436.56   16.00
   5  -1  -5  406.56   65.99
  -5   1   5  444.16   73.09
  -5   1   5  440.46   13.90
  -5   1   5  447.66   14.60
   4  -1  -5 1053.89   33.80
   4  -1  -5 1137.19   99.09
  -4   1   5 1097.39   31.90
  -4   1   5 1069.49   32.40
  -4   1   5 1163.88  100.59
   3  -1  -5  215.68   39.80
   3  -1  -5  258.87    9.80
  -3   1   5  259.97    8.40
  -3   1   5  263.47    9.00
  -3   1   5  242.28   40.90
   2  -1  -5 2246.08   66.09
   2  -1  -5 2239.38   65.39
   2  -1  -5 2334.07  124.19
  -2   1   5 2354.16  125.89
  -2   1   5 2260.97   64.69
   1  -1  -5 4754.02  182.58
   1  -1  -5 4515.35  130.79
   0  -1  -5  252.37    7.30
   0  -1  -5  244.68    8.20
   0  -1  -5  237.78    8.10
   0  -1  -5  252.87   22.60
   0  -1  -5  238.78   25.10
   0   1   5  229.48    7.30
   0   1   5  255.57    7.80
  -1  -1  -5   54.99    2.60
  -1  -1  -5   58.49    2.50
  -1  -1  -5   58.99    8.20
   1   1   5   51.39    2.30
   1   1   5   55.09    2.20
  -2  -1  -5  988.00   43.10
  -2  -1  -5  958.30   28.50
  -2  -1  -5  988.50   28.20
  -2  -1  -5  956.80   27.90
   2   1   5  977.10   28.50
   2   1   5  928.21   27.90
   2   1   5 1022.30   41.30
  -3  -1  -5 3424.86  130.09
   3   1   5 3385.46   96.49
   3   1   5 3376.16  122.89
   3   1   5 3380.06   95.99
  -4  -1  -5  632.64   18.50
  -4  -1  -5  595.34   49.80
  -4  -1  -5  629.14   18.40
   4   1   5  556.44   17.80
   4   1   5  621.44   19.10
   4   1   5  617.34   19.20
   4   1   5  638.94   46.40
  -5  -1  -5    1.40    0.70
  -5  -1  -5    2.10    0.70
  -5  -1  -5   -2.00    7.90
   5   1   5    0.40    6.00
   5   1   5    3.00    1.50
   5   1   5    2.10    1.50
  -6  -1  -5  177.38    6.40
  -6  -1  -5  176.08    6.50
  -6  -1  -5  183.38   43.20
   6   1   5  206.58   34.90
   6   1   5  169.88    7.50
   6   1   5  176.28    7.30
  -7  -1  -5    8.40    1.40
  -7  -1  -5    2.40   10.30
   7   1   5   22.20   15.00
   7   1   5    7.40    2.10
   7   1   5    9.40    2.10
  -8  -1  -5  476.65   15.70
  -8  -1  -5  411.16  103.89
  -8  -1  -5  489.65   15.40
   8   1   5  474.45   16.40
   8   1   5  470.55   16.80
   8   1   5  615.64   80.09
  -9  -1  -5    6.20    1.50
  -9  -1  -5    9.50    1.50
   9   1   5    4.90    2.20
   9   1   5    5.70    1.80
 -10  -1  -5  111.49    5.50
  10   1   5  110.69    6.60
  10   1   5  113.39    6.90
  11   1   5    3.20    3.50
 -12  -1  -5  298.57   12.30
  12   1   5  358.66   12.90
  12   1   5  298.97   13.10
  10  -2  -5  169.58    9.30
 -10   2   5  151.48    7.00
 -10   2   5  145.39    8.30
   9  -2  -5  134.09    8.10
  -9   2   5  130.29    6.10
  -9   2   5  134.19    7.50
   8  -2  -5  847.52  124.89
   8  -2  -5  984.20   32.10
   8  -2  -5  894.01   27.90
  -8   2   5  979.20   30.40
  -8   2   5  969.00   29.20
   7  -2  -5 1440.66   44.10
   7  -2  -5 1331.27   40.10
   7  -2  -5 1299.77  134.79
  -7   2   5 1449.55   41.20
  -7   2   5 1436.16   42.30
  -7   2   5 1230.58  130.89
   6  -2  -5    2.00    0.60
   6  -2  -5    2.90    1.50
  -6   2   5  -22.60   14.20
  -6   2   5    1.80    0.90
  -6   2   5    0.20    1.50
   5  -2  -5   29.00    1.50
   5  -2  -5   47.90   28.50
   5  -2  -5   31.80    3.00
  -5   2   5   24.80   20.30
  -5   2   5   28.40    2.00
  -5   2   5   29.50    2.90
   4  -2  -5  400.36   57.69
   4  -2  -5  389.36   14.10
   4  -2  -5  382.46   11.70
  -4   2   5  414.06   57.89
  -4   2   5  384.96   13.00
  -4   2   5  401.46   12.20
   3  -2  -5  423.76   12.50
   3  -2  -5  430.36   14.70
   3  -2  -5  415.96   51.29
  -3   2   5  426.66   13.70
  -3   2   5  417.66   52.19
   2  -2  -5   11.90   12.10
   2  -2  -5   16.80    1.70
  -2   2   5   18.60    1.80
  -2   2   5    7.20    8.20
  -2   2   5   18.30    1.30
   1  -2  -5   10.60    7.20
   1  -2  -5    9.80    1.10
   1  -2  -5   11.80    1.50
  -1   2   5   -0.90    6.10
  -1   2   5   10.30    1.50
  -1   2   5    9.80    1.00
  -1   2   5   10.30    0.70
   0  -2  -5  379.56   12.10
   0  -2  -5  390.16   11.40
   0  -2  -5  391.76   27.80
   0  -2  -5  392.06   12.20
   0   2   5  392.96   29.90
   0   2   5  347.57   11.30
   0   2   5  406.06   11.70
  -1  -2  -5  492.55   15.50
  -1  -2  -5  516.35   15.20
  -1  -2  -5  522.25   15.50
  -3  -2  -5  526.85   15.60
  -3  -2  -5  499.85   15.30
  -3  -2  -5  521.25   15.30
  -3  -2  -5  511.65   37.80
   3   2   5  511.75   15.90
   3   2   5  469.55   15.30
   3   2   5  524.25   32.10
  -4  -2  -5   42.10    2.10
  -4  -2  -5   23.10   12.10
  -4  -2  -5   39.30    2.00
   4   2   5   48.10   15.20
   4   2   5   35.60    3.40
   4   2   5   34.70    2.00
   4   2   5   40.70    2.90
  -5  -2  -5  173.88   32.90
  -5  -2  -5  206.98    7.20
  -5  -2  -5  206.18    6.80
   5   2   5  217.48   30.70
   5   2   5  207.78    8.20
   5   2   5  202.38    8.60
  -6  -2  -5 1394.96   39.80
  -6  -2  -5 1296.77  102.79
   6   2   5 1340.37   41.10
   6   2   5 1371.76   92.99
   6   2   5 1349.86   40.90
  -7  -2  -5  653.23   79.89
  -7  -2  -5  743.93   22.00
   7   2   5  672.83   69.49
   7   2   5  721.83   23.50
   7   2   5  698.93   23.10
  -8  -2  -5  345.17   63.29
  -8  -2  -5  413.96   13.50
   8   2   5  386.86   14.50
   8   2   5  401.66   14.60
   8   2   5  386.96   59.09
  -9  -2  -5  379.36   13.10
   9   2   5  369.26   14.20
   9   2   5  374.86   14.20
 -10  -2  -5   58.39    3.90
  10   2   5   70.59    4.80
  10   2   5   64.59    5.10
  11   2   5   58.89    3.60
 -12  -2  -5    5.80    1.70
  12   2   5    6.50    2.70
  10  -3  -5   18.00    2.90
   9  -3  -5    9.10    2.20
   9  -3  -5   11.00    2.80
  -9   3   5    3.90    2.60
  -9   3   5    7.00    1.60
   8  -3  -5    2.40    1.90
   8  -3  -5    1.60    0.70
  -8   3   5    5.40    2.60
  -8   3   5    1.20    1.00
   7  -3  -5  -14.30   26.00
  -7   3   5  -26.90   18.80
  -7   3   5    8.20    2.60
   6  -3  -5    5.00    0.80
   6  -3  -5   15.40   21.70
   6  -3  -5    1.80    1.20
  -6   3   5  -13.20   19.10
  -6   3   5    4.90    2.00
  -6   3   5    2.80    0.90
   5  -3  -5  934.51   94.59
   5  -3  -5  864.61   26.10
  -5   3   5  897.51   27.80
  -5   3   5  909.41   94.49
  -5   3   5  914.01   26.50
   4  -3  -5 1210.98   36.40
   4  -3  -5 1399.46  108.69
   4  -3  -5 1256.27   38.90
  -4   3   5 1287.37   36.70
  -4   3   5 1346.07  104.89
  -4   3   5 1248.98   37.80
   3  -3  -5  467.25   16.00
   3  -3  -5  487.55   14.20
   3  -3  -5  438.86   53.19
  -3   3   5  466.85   15.30
  -3   3   5  483.55   54.19
  -3   3   5  491.35   14.30
   2  -3  -5   99.09    4.80
   2  -3  -5  102.09    3.50
   2  -3  -5  118.19   23.00
  -2   3   5   99.09   26.00
  -2   3   5   97.39    4.40
  -2   3   5  100.19    3.60
   1  -3  -5  757.62   23.60
   1  -3  -5  817.32   54.59
   1  -3  -5  801.52   22.40
  -1   3   5  701.33   22.50
  -1   3   5  824.52   62.69
  -1   3   5  769.12   22.30
  -1   3   5  790.42   23.20
   0  -3  -5 1366.86   61.29
   0   3   5 1312.47   37.40
   0   3   5 1340.77   37.90
   0   3   5 1310.17   60.99
   0   3   5 1229.68   37.30
  -1  -3  -5 1012.30   29.80
  -1  -3  -5 1021.10   29.60
  -1  -3  -5 1041.50   30.00
  -1  -3  -5 1018.20   38.90
   1   3   5 1026.10   38.60
  -2  -3  -5 1358.26   39.10
  -2  -3  -5 1355.56   39.40
  -2  -3  -5 1367.56   39.30
   2   3   5 1378.56   46.90
   2   3   5 1373.66   48.00
  -3  -3  -5  822.72   24.20
  -3  -3  -5  886.81   24.50
  -3  -3  -5  846.22   24.70
   3   3   5  709.33   24.20
   3   3   5  856.61   48.10
   3   3   5  869.71   45.60
   3   3   5  855.41   25.40
  -4  -3  -5   41.00    2.20
  -4  -3  -5   43.20    2.50
   4   3   5   43.70    3.90
   4   3   5   65.19   18.20
   4   3   5   33.50   13.00
  -5  -3  -5   29.30    2.20
  -5  -3  -5   31.70    2.00
   5   3   5   29.60   15.60
   5   3   5   29.70    4.30
  -6  -3  -5   13.60   15.20
   6   3   5    2.20   11.60
   6   3   5    3.50    2.80
   6   3   5   -0.40    1.60
  -7  -3  -5  406.36   66.09
  -7  -3  -5  481.35   15.20
   7   3   5  462.25   17.10
   7   3   5  456.75   16.30
   7   3   5  470.75   57.89
  -8  -3  -5  180.48    7.20
  -8  -3  -5   97.29   39.80
   8   3   5  173.88    8.30
   8   3   5  170.38   43.40
   8   3   5  187.28    8.80
  -9  -3  -5   17.60    2.10
   9   3   5   20.00    3.50
   9   3   5   25.30    4.50
 -10  -3  -5  122.99    6.20
  10   3   5  127.49    7.40
  10   3   5  147.59    7.70
 -11  -3  -5   61.89    4.20
  11   3   5   63.09    5.50
 -12  -3  -5   36.00    3.30
  12   3   5   43.50    4.60
  10  -4  -5  488.25   18.70
 -10   4   5  427.96   17.80
   9  -4  -5  207.88   10.50
   9  -4  -5  199.98    7.40
  -9   4   5  198.68   10.10
  -9   4   5  203.48    7.90
   8  -4  -5    1.70    1.40
   8  -4  -5    4.60    1.20
  -8   4   5    3.70    2.60
  -8   4   5    4.50    1.00
   7  -4  -5  105.39    4.30
   7  -4  -5  131.59   55.39
   7  -4  -5  106.19    6.50
  -7   4   5  106.29    4.60
  -7   4   5   68.49   43.80
  -7   4   5  100.49    6.20
   6  -4  -5  239.48    8.20
   6  -4  -5  250.57   10.70
   6  -4  -5  220.18   57.29
  -6   4   5  179.08   61.09
  -6   4   5  247.58   10.00
  -6   4   5  242.28    8.30
   5  -4  -5   66.59    4.40
   5  -4  -5   54.79   25.20
   5  -4  -5   51.99    2.60
  -5   4   5   41.10   24.60
  -5   4   5   56.59    2.70
  -5   4   5   60.19    4.10
   4  -4  -5  518.95   15.70
   4  -4  -5  511.55   63.99
   4  -4  -5  517.95   17.90
  -4   4   5  534.65   65.69
  -4   4   5  532.75   17.20
  -4   4   5  511.75   16.30
   3  -4  -5  281.17   43.30
   3  -4  -5  274.87    8.70
   3  -4  -5  268.47   10.20
  -3   4   5  281.07    8.50
  -3   4   5  267.17    9.80
  -3   4   5  266.37   41.50
   2  -4  -5    3.00    0.60
   2  -4  -5    5.80    8.10
   2  -4  -5    4.70    1.20
  -2   4   5   -2.60    7.90
  -2   4   5    5.10    0.70
  -2   4   5    4.20    0.80
  -2   4   5    4.80    1.50
   1  -4  -5  401.96   13.10
   1  -4  -5  416.96   48.10
  -1   4   5  388.66   12.60
  -1   4   5  378.56   11.70
  -1   4   5  403.26   39.00
  -1   4   5  386.56   11.50
   0  -4  -5  533.15   16.60
   0  -4  -5  540.85   15.90
   0  -4  -5  547.15   38.60
   0   4   5  518.45   16.20
   0   4   5  517.05   15.50
   0   4   5  541.85   37.20
   0   4   5  533.55   15.60
  -1  -4  -5   48.20    2.10
  -1  -4  -5   53.69   12.30
  -1  -4  -5   50.19    2.60
   1   4   5   47.60    2.00
   1   4   5   52.49    2.50
   1   4   5   63.69   10.50
  -2  -4  -5  133.09    4.80
  -2  -4  -5  131.69    5.00
   2   4   5  124.19    4.50
   2   4   5  122.39   13.90
  -3  -4  -5  392.06   12.00
   3   4   5  385.46   13.10
   3   4   5  409.16   32.60
   3   4   5  328.07   11.50
   3   4   5  372.66   11.20
   3   4   5  400.76   33.70
  -4  -4  -5  880.01   26.50
  -4  -4  -5  887.81   26.10
   4   4   5  867.81   62.39
   4   4   5  904.11   28.20
   4   4   5  865.11   59.79
  -5  -4  -5  772.12   23.60
  -5  -4  -5  775.52   23.10
   5   4   5  785.82   66.29
   5   4   5  742.33   25.60
   5   4   5  779.02   63.69
  -6  -4  -5  426.76   13.80
  -6  -4  -5  432.16   14.40
   6   4   5  414.46   16.50
   6   4   5  449.36   52.49
   6   4   5  442.16   53.29
  -7  -4  -5  268.27    9.90
   7   4   5  295.57   47.30
   7   4   5  260.17   11.90
   7   4   5  306.87   85.79
  -8  -4  -5   43.40    2.90
   8   4   5   27.40   21.40
   8   4   5    3.60   17.70
   8   4   5   46.60    4.30
   8   4   5   39.90    4.70
  -9  -4  -5    2.30    1.10
   9   4   5    0.40    2.00
   9   4   5   -3.30   16.80
   9   4   5    6.80    2.50
 -10  -4  -5   88.29    5.00
  10   4   5   84.39    6.20
  10   4   5   95.89    6.40
 -11  -4  -5  392.46   14.60
  11   4   5  394.16   15.80
  11   4   5  416.96   16.40
 -12  -4  -5  110.29    6.20
  12   4   5  111.89    7.20
   9  -5  -5   30.30    2.40
   9  -5  -5   34.40    3.90
  -9   5   5   27.60    2.30
  -9   5   5   28.90    4.90
   8  -5  -5   11.00    2.60
   8  -5  -5   19.50    1.80
  -8   5   5   15.80    3.90
  -8   5   5   16.50    1.80
   7  -5  -5  384.96   15.00
   7  -5  -5  366.06   12.50
  -7   5   5  371.16   12.10
  -7   5   5  383.76   14.60
   6  -5  -5  375.16   67.79
   6  -5  -5  292.87   12.10
   6  -5  -5  291.07    9.90
  -6   5   5  295.37   11.80
  -6   5   5  243.88   64.19
  -6   5   5  303.27    9.60
   5  -5  -5   53.29    2.80
   5  -5  -5   60.39    4.20
   5  -5  -5   33.90   25.30
  -5   5   5   59.29    4.30
  -5   5   5   81.99   34.20
  -5   5   5   57.69    2.50
   4  -5  -5   43.70   21.40
   4  -5  -5   43.10    4.80
  -4   5   5   42.80    3.50
  -4   5   5   44.10    2.00
  -4   5   5   25.60   18.70
   3  -5  -5  304.97   46.40
   3  -5  -5  319.77   10.10
   3  -5  -5  347.87   12.20
  -3   5   5  337.67   11.70
  -3   5   5  338.97    9.90
  -3   5   5  300.07   45.70
   2  -5  -5  952.60   28.00
   2  -5  -5  934.61   74.19
   2  -5  -5  961.70   29.40
  -2   5   5  946.81   28.80
  -2   5   5  972.10   74.99
   1  -5  -5  833.02   61.29
   1  -5  -5  763.12   24.10
   1  -5  -5  781.52   23.00
  -1   5   5  825.92   60.19
  -1   5   5  751.22   23.60
   0  -5  -5  745.93   50.99
   0  -5  -5  725.93   21.20
   0  -5  -5  715.43   22.00
   0   5   5  705.43   49.10
   0   5   5  718.63   20.40
   0   5   5  696.63   20.50
   0   5   5  696.23   21.50
  -1  -5  -5  742.33   48.70
  -1  -5  -5  805.92   23.50
  -1  -5  -5  823.42   24.00
  -1  -5  -5  813.82   22.90
   1   5   5  731.13   22.60
   1   5   5  840.22   48.20
   1   5   5  771.92   23.90
  -2  -5  -5  117.19    4.60
  -2  -5  -5  118.59    4.20
  -2  -5  -5  115.19   19.00
   2   5   5  117.89    4.40
   2   5   5  123.39    6.00
   2   5   5  124.29   16.90
  -3  -5  -5   59.79    3.00
   3   5   5   60.09    2.50
   3   5   5   59.59    4.60
   3   5   5   48.60   17.10
   3   5   5   76.29   18.70
  -4  -5  -5  328.97   11.40
  -4  -5  -5  354.66   11.00
   4   5   5  347.07   13.50
   4   5   5  334.67   39.20
   4   5   5  348.77   41.00
  -5  -5  -5 1180.38   35.40
  -5  -5  -5 1193.38   36.10
   5   5   5 1190.68   85.59
   5   5   5 1221.38   38.60
   5   5   5 1314.97   90.49
  -6  -5  -5  159.18    6.10
  -6  -5  -5  155.58    6.60
   6   5   5  150.28   40.10
   6   5   5  154.78    9.30
   6   5   5  136.29   36.10
  -7  -5  -5   47.90    3.00
  -7  -5  -5   47.00    3.40
   7   5   5   47.20    4.20
   7   5   5   52.89   26.00
   7   5   5   52.39    5.90
   7   5   5   70.69   29.00
  -8  -5  -5   16.80    1.90
   8   5   5   22.60    3.80
   8   5   5   17.50    4.20
   8   5   5   29.30   24.60
  -9  -5  -5    1.70    1.00
   9   5   5    0.00    2.10
   9   5   5   -7.10   18.50
   9   5   5    2.20    2.80
 -10  -5  -5  148.79    7.20
  10   5   5  169.08    9.40
  10   5   5  161.68    8.70
 -11  -5  -5   40.80    3.50
  11   5   5   42.30    4.90
 -12  -5  -5   47.10    3.80
  12   5   5   43.50    4.90
   9  -6  -5  145.39    7.80
   9  -6  -5  113.99    5.30
  -9   6   5  119.59    8.20
   8  -6  -5  105.99    4.70
   8  -6  -5  107.49    6.90
  -8   6   5   99.79    7.10
   7  -6  -5  129.99    5.30
   7  -6  -5  122.49    7.10
  -7   6   5  124.09    8.80
  -7   6   5  126.49    4.80
   6  -6  -5  432.96   16.10
   6  -6  -5  463.35   80.89
  -6   6   5  419.96   15.80
  -6   6   5  461.25   79.09
  -6   6   5  418.86   13.00
   5  -6  -5  368.26   13.80
   5  -6  -5  278.67   61.79
  -5   6   5  366.96   61.89
  -5   6   5  367.76   13.60
   4  -6  -5    5.80    1.70
   4  -6  -5    2.90   16.60
  -4   6   5    7.70    2.20
  -4   6   5   36.40   18.10
   3  -6  -5  297.37    9.90
   3  -6  -5  246.18   43.30
   3  -6  -5  300.27   11.30
  -3   6   5  324.57   14.00
  -3   6   5  301.47   45.50
   2  -6  -5   71.19   24.30
   2  -6  -5   89.19    4.70
   2  -6  -5   90.49    3.80
  -2   6   5   85.99    4.70
  -2   6   5   88.59   27.50
   1  -6  -5  782.82   23.60
   1  -6  -5  816.52   65.19
   1  -6  -5  775.12   24.50
  -1   6   5  886.61   66.29
  -1   6   5  762.92   24.10
   0  -6  -5    3.20    0.80
   0  -6  -5    4.90    8.00
   0  -6  -5    4.30    1.20
   0   6   5    5.70    1.60
   0   6   5    3.70    7.90
  -1  -6  -5  245.48    8.60
  -1  -6  -5  236.18    7.30
  -1  -6  -5  242.08    8.10
  -1  -6  -5  211.98   29.00
   1   6   5  234.08    8.10
   1   6   5  219.68    7.10
   1   6   5  237.88   27.90
  -2  -6  -5   30.00    1.60
  -2  -6  -5   32.90   13.40
  -2  -6  -5   32.70    2.10
   2   6   5   27.50    2.10
   2   6   5   29.80   11.70
   2   6   5   28.10    3.60
  -3  -6  -5  227.28    7.90
  -3  -6  -5  221.78   29.00
   3   6   5  233.38   29.40
   3   6   5  213.38    7.10
   3   6   5  205.68    9.50
  -4  -6  -5 1398.26   40.70
  -4  -6  -5 1387.66   41.40
   4   6   5 1397.56   43.70
   4   6   5 1413.06   88.09
   4   6   5 1459.05   96.89
  -5  -6  -5   35.80    2.70
  -5  -6  -5   32.50    2.20
   5   6   5   36.30    5.60
   5   6   5   31.90   18.90
   5   6   5   23.50   16.30
  -6  -6  -5  322.67   10.90
  -6  -6  -5  321.67   11.60
   6   6   5  311.87   14.50
   6   6   5  334.77   51.29
   6   6   5  364.96   51.19
  -7  -6  -5   38.20    2.70
   7   6   5   44.30    6.10
   7   6   5   23.90   28.60
   7   6   5   57.29   30.10
  -8  -6  -5  767.92   23.90
   8   6   5  758.62   25.70
   8   6   5  747.93   27.50
   8   6   5  759.22   88.79
  -9  -6  -5  199.68    8.30
   9   6   5  197.78   11.10
   9   6   5  202.28    9.90
 -10  -6  -5    4.30    1.40
  10   6   5    9.80    3.50
 -11  -6  -5   38.00    3.30
  11   6   5   34.40    4.70
 -12  -6  -5    2.40    1.30
  12   6   5    1.40    2.30
   8  -7  -5   21.80    2.20
   8  -7  -5   25.70    3.50
  -8   7   5   19.40    4.20
   7  -7  -5    1.30    1.80
   7  -7  -5    1.00    0.70
  -7   7   5    0.20    2.40
   6  -7  -5  108.29    6.40
  -6   7   5  103.79    6.80
   5  -7  -5  116.49   45.10
   5  -7  -5  131.59    5.50
   5  -7  -5  148.99    7.20
  -5   7   5  128.89    7.20
  -5   7   5  108.99   36.70
   4  -7  -5  -28.10   15.30
  -4   7   5   -9.20    9.80
   3  -7  -5  426.46   15.10
   3  -7  -5  427.76   13.70
   3  -7  -5  425.06   60.09
  -3   7   5  471.75   58.09
  -3   7   5  421.46   15.00
   2  -7  -5 1330.17   98.09
   2  -7  -5 1303.77   37.90
   2  -7  -5 1257.47   39.90
  -2   7   5 1268.47   38.80
  -2   7   5 1344.97   96.69
   1  -7  -5    6.10    9.50
   1  -7  -5   10.40    1.90
   1  -7  -5    8.50    1.20
  -1   7   5   -2.10   12.00
  -1   7   5   11.70    2.20
   0  -7  -5  212.68    7.50
   0  -7  -5  175.48   33.00
   0  -7  -5  209.88    8.10
   0   7   5  210.88   32.60
   0   7   5  201.38    7.80
  -1  -7  -5  346.97   41.10
  -1  -7  -5  349.37   10.20
  -1  -7  -5  340.87   11.80
  -1  -7  -5  349.87   11.30
   1   7   5  344.37   11.30
   1   7   5  316.97   37.30
   1   7   5  315.97   10.00
  -2  -7  -5  918.31   69.19
  -2  -7  -5  911.01   26.10
  -2  -7  -5  889.31   27.10
   2   7   5  903.41   26.70
   2   7   5  896.71   29.10
   2   7   5  881.31   62.79
  -3  -7  -5  174.98   31.40
  -3  -7  -5  196.18    6.50
  -3  -7  -5  190.28    7.30
   3   7   5  189.08   29.10
   3   7   5  191.88    9.50
   3   7   5  192.18    6.70
  -4  -7  -5    9.50    1.60
   4   7   5   -3.60    9.30
   4   7   5    8.60   13.80
   4   7   5   10.50    3.80
  -5  -7  -5  290.17   10.80
  -5  -7  -5  303.17   10.00
   5   7   5  289.07   13.80
   5   7   5  320.87   51.19
   5   7   5  340.27   47.10
  -6  -7  -5    9.80    1.80
  -6  -7  -5    7.30    1.60
   6   7   5    2.70   12.80
   6   7   5   12.30    4.80
   6   7   5   24.30   16.80
  -7  -7  -5  379.16   12.70
  -7  -7  -5  369.56   13.50
   7   7   5  331.67   59.39
   7   7   5  371.36   16.90
  -8  -7  -5   10.10    2.20
  -8  -7  -5   10.00    1.90
   8   7   5    7.10   24.30
   8   7   5   10.60    4.40
  -9  -7  -5  167.08    7.20
   9   7   5  170.48    9.10
   9   7   5  150.08   10.10
  10   7   5   14.40    6.30
  10   7   5   -0.70    2.30
 -11  -7  -5  113.79    6.20
  11   7   5  119.39    7.90
   8  -8  -5  339.27   13.80
  -8   8   5  301.67   14.30
   7  -8  -5    7.10    2.20
  -7   8   5    4.40    3.00
   6  -8  -5   30.80    2.50
   6  -8  -5   37.70    3.60
  -6   8   5   26.80    4.30
   5  -8  -5   34.70   41.80
   5  -8  -5   86.69    4.30
   5  -8  -5   85.09    5.40
  -5   8   5   88.29    6.10
   4  -8  -5  107.09   42.70
   4  -8  -5  145.39    7.20
   4  -8  -5  150.68    6.00
  -4   8   5  143.29    7.60
  -4   8   5  153.28   42.90
   3  -8  -5    1.70    1.10
   3  -8  -5  -14.30   17.80
   3  -8  -5    2.80    0.90
  -3   8   5    1.50    2.20
  -3   8   5   12.40    8.90
   2  -8  -5   28.10    2.60
   2  -8  -5    2.00   21.20
   2  -8  -5   37.00    3.70
  -2   8   5   44.50   20.60
  -2   8   5   29.70    3.40
   1  -8  -5  281.37    9.70
   1  -8  -5  213.88   40.50
   1  -8  -5  283.67   10.60
  -1   8   5  280.37   10.50
  -1   8   5  307.57   44.40
   0  -8  -5  255.47    9.00
   0  -8  -5  221.78   38.60
   0   8   5  251.67    9.50
   0   8   5  316.27   40.90
  -1  -8  -5 1248.98   90.99
  -1  -8  -5 1387.96   40.90
   1   8   5 1406.96   41.00
   1   8   5 1399.46   90.39
   1   8   5 1437.56   43.80
  -2  -8  -5    6.50    1.50
  -2  -8  -5    2.90    0.70
  -2  -8  -5   -8.90   11.10
   2   8   5    4.70    1.60
   2   8   5    3.10    3.20
   2   8   5    4.60   10.00
  -3  -8  -5  357.36   13.30
  -3  -8  -5  380.06   11.70
  -3  -8  -5  366.96   47.50
   3   8   5  359.96   43.60
   3   8   5  360.26   12.80
   3   8   5  410.06   20.90
  -4  -8  -5    3.30    0.70
  -4  -8  -5    5.30    1.30
   4   8   5    3.10    3.40
   4   8   5    4.50   11.50
  -5  -8  -5  402.96   14.00
  -5  -8  -5  410.46   13.10
   5   8   5  449.76   62.59
   5   8   5  389.76   51.09
   5   8   5  399.56   17.50
  -6  -8  -5   46.40    3.40
  -6  -8  -5   43.80    2.80
   6   8   5   39.20   23.90
   6   8   5   45.90    6.80
  -7  -8  -5   57.49    3.40
  -7  -8  -5   67.19    4.20
   7   8   5   30.30   22.10
   7   8   5   63.19    7.70
  -8  -8  -5  308.37   12.20
  -8  -8  -5  318.47   11.40
   8   8   5  301.47   15.60
  -9  -8  -5   12.50    2.80
   9   8   5    8.60    4.10
   9   8   5   12.10    4.30
 -10  -8  -5  268.17   10.80
  10   8   5  286.37   13.10
  10   8   5  262.07   14.10
  11   8   5   11.40    3.60
   7  -9  -5   22.30    2.90
   7  -9  -5   15.40    2.10
  -7   9   5   17.40    4.30
   6  -9  -5  184.88    7.60
   6  -9  -5  195.58    9.20
  -6   9   5  187.48   10.00
   5  -9  -5  555.84   17.80
   5  -9  -5  545.05   19.40
  -5   9   5  537.55   19.90
   4  -9  -5    1.60    1.10
   4  -9  -5    0.90    1.30
   4  -9  -5  -27.30   31.80
  -4   9   5   -0.10    2.20
   3  -9  -5   39.90    2.70
   3  -9  -5   38.10    3.30
   3  -9  -5   42.10   29.60
  -3   9   5   44.30    4.40
   2  -9  -5  168.48   64.09
   2  -9  -5  111.89    5.80
   2  -9  -5  111.49    5.10
  -2   9   5  116.29    6.40
  -2   9   5  105.49   34.30
   1  -9  -5  206.68    8.50
   1  -9  -5  194.78   44.30
   1  -9  -5  202.78    7.70
  -1   9   5  195.78    8.60
  -1   9   5  197.38   36.40
   0  -9  -5    4.20    1.40
   0  -9  -5    4.00    1.10
   0  -9  -5   -7.20   14.10
   0   9   5   17.40   12.90
   0   9   5    2.90    1.90
   0   9   5    2.40    2.50
  -1  -9  -5  295.87   45.90
  -1  -9  -5  305.67   10.90
   1   9   5  323.57   42.00
   1   9   5  310.97   11.20
   1   9   5  318.97   13.30
  -2  -9  -5  613.64   64.79
  -2  -9  -5  701.33   20.00
  -2  -9  -5  675.93   21.50
   2   9   5  712.93   65.59
   2   9   5  671.73   24.10
   2   9   5  679.83   21.20
  -3  -9  -5   29.90   14.90
  -3  -9  -5    6.10    1.00
  -3  -9  -5    4.80    1.40
   3   9   5    4.60    1.60
   3   9   5    6.00    3.70
   3   9   5    2.90    9.60
  -4  -9  -5  456.95   14.40
  -4  -9  -5  453.45   15.50
   4   9   5  493.95   53.39
   4   9   5  449.56   18.90
  -5  -9  -5   14.30    2.00
   5   9   5   10.50    5.10
   5   9   5   19.10   18.40
  -6  -9  -5  205.88    8.60
  -6  -9  -5  198.48    7.50
   6   9   5  230.98   44.10
   6   9   5  181.38   12.00
  -7  -9  -5    9.70    2.10
  -7  -9  -5    6.30    1.50
   7   9   5   23.90   35.80
   7   9   5    3.60    4.20
  -8  -9  -5   18.60    2.20
  -8  -9  -5   24.10    4.80
   8   9   5   25.40    6.50
  -9  -9  -5   13.60    2.70
  -9  -9  -5   11.20    2.10
   9   9   5    3.60    3.70
 -10  -9  -5   16.00    2.30
  10   9   5   19.90    4.50
   7 -10  -5   -0.70    1.00
  -7  10   5   -0.70    2.70
   6 -10  -5    5.00    2.20
   6 -10  -5    3.10    1.30
  -6  10   5    5.00    2.90
   5 -10  -5  154.88    6.90
   5 -10  -5  159.68    8.00
  -5  10   5  162.78    9.20
   4 -10  -5  319.07   12.90
   4 -10  -5  336.67   11.90
  -4  10   5  335.47   14.20
   3 -10  -5   76.19    4.20
   3 -10  -5   79.79    5.00
  -3  10   5   73.69    5.80
   2 -10  -5  312.67   11.20
   2 -10  -5  311.97   12.10
  -2  10   5  305.97   12.40
  -2  10   5  375.86   55.49
   1 -10  -5    8.10    1.90
   1 -10  -5    8.20    1.60
   1 -10  -5  -24.70   21.40
  -1  10   5    9.10    2.70
   0 -10  -5   60.69    3.60
   0 -10  -5   31.50   27.70
   0  10   5   60.49    4.60
   0  10   5   58.29    6.00
   0  10   5   38.10   17.90
   1  10   5    1.90    1.80
   1  10   5   -0.50    2.80
   1  10   5   21.50   13.60
  -2 -10  -5    6.40    1.40
  -2 -10  -5   33.60   23.30
   2  10   5   31.70   15.90
   2  10   5   10.00    2.20
   2  10   5   10.70    4.20
  -3 -10  -5   -1.40   18.20
  -3 -10  -5   18.90    1.40
  -3 -10  -5   16.10    2.00
   3  10   5   18.20    2.40
   3  10   5   20.50    5.40
   3  10   5   32.60   18.40
  -4 -10  -5   25.60   24.00
  -4 -10  -5   87.39    3.70
  -4 -10  -5   84.29    4.70
   4  10   5   79.59    7.90
   4  10   5   69.39   28.20
  -5 -10  -5  394.06   12.80
  -5 -10  -5  393.76   14.00
   5  10   5  374.96   18.00
   5  10   5  341.67   56.39
  -6 -10  -5    0.50    0.70
  -6 -10  -5    6.20    1.70
   6  10   5    2.80    4.70
  -7 -10  -5  159.88    6.70
  -8 -10  -5   73.29    4.60
  -8 -10  -5   81.29    5.20
   8  10   5   73.89    8.90
  -9 -10  -5   10.70    2.60
  -9 -10  -5    9.00    1.90
   9  10   5   12.40    4.40
 -10 -10  -5   40.80    3.40
  10  10   5   39.10    5.60
   6 -11  -5    1.50    1.40
  -6  11   5    5.30    3.20
   5 -11  -5   14.20    2.90
   5 -11  -5   13.00    1.80
  -5  11   5    7.80    3.10
   4 -11  -5    2.10    1.30
   4 -11  -5    0.40    1.10
  -4  11   5    5.40    3.00
   3 -11  -5    9.00    1.90
   3 -11  -5    8.90    2.90
  -3  11   5    8.90    3.30
   2 -11  -5  146.59    6.50
   2 -11  -5  137.99    7.10
  -2  11   5  141.59    7.90
   1 -11  -5  184.78   62.09
   1 -11  -5  353.86   12.30
  -1  11   5  337.37   13.30
  -1  11   5  335.77   15.00
   0 -11  -5    8.40    1.60
   0  11   5    4.70    2.30
   0  11   5  -10.10   15.40
   0  11   5    4.20    3.30
  -1 -11  -5  134.49    6.10
  -1 -11  -5   47.90   34.00
   1  11   5  120.69    8.80
   1  11   5  119.09   35.20
   1  11   5  125.99    6.50
  -2 -11  -5   41.20    3.10
   2  11   5   38.10    6.30
   2  11   5   36.30   22.50
   2  11   5   41.60    3.80
  -3 -11  -5   -5.70   24.40
   3  11   5  -18.70   16.00
  -4 -11  -5    5.30    1.40
  -4 -11  -5  -30.80   26.00
   4  11   5    6.70    4.60
   4  11   5   24.40   20.50
  -5 -11  -5    9.50    2.00
  -5 -11  -5   12.80    1.50
   5  11   5   13.20    5.50
  -6 -11  -5   29.90    3.00
   6  11   5   26.60    7.10
  -7 -11  -5    8.20    2.20
  -7 -11  -5    6.90    1.50
   7  11   5    9.80    5.90
  -8 -11  -5  117.29    6.80
  -8 -11  -5  120.69    5.80
   8  11   5  124.39   10.80
  -9 -11  -5   45.80    3.60
  -9 -11  -5   47.30    4.30
   9  11   5   57.19    7.70
   5 -12  -5   40.90    3.40
  -5  12   5   37.30    5.50
   4 -12  -5   22.50    3.20
   4 -12  -5   21.50    2.50
  -4  12   5   18.90    4.50
   3 -12  -5    0.50    1.30
   3 -12  -5    0.80    1.20
  -3  12   5    0.80    3.60
  -3  12   5    2.10    2.70
   2 -12  -5    5.30    1.60
  -2  12   5    3.10    4.00
  -2  12   5   -0.90    2.40
   1 -12  -5   30.20    2.80
  -1  12   5   30.60    5.90
  -1  12   5   29.70    4.40
   0 -12  -5   82.79    5.50
   0  12   5   92.79    6.20
   0  12   5   79.79    9.10
  -1 -12  -5    0.10    1.30
   1  12   5    0.20    2.10
  -2 -12  -5  164.68    9.20
   2  12   5  175.98    7.90
   2  12   5  171.08   17.60
  -3 -12  -5   40.80    3.40
   3  12   5   55.89    3.60
   3  12   5   48.90    7.80
  -4 -12  -5   75.59    3.40
  -4 -12  -5   62.09    4.40
   4  12   5   73.89    9.10
  -5 -12  -5  117.29    6.30
  -5 -12  -5  124.39    5.10
   5  12   5  113.09   10.90
  -6 -12  -5   25.80    2.10
  -6 -12  -5   20.70    2.70
   6  12   5   21.00    6.70
  -7 -12  -5    2.20    1.40
   7  12   5    5.00    4.80
  -8 -12  -5    7.30    1.60
  -8 -12  -5    3.80    1.80
   8  12   5   11.60    5.20
   3 -13  -5   44.80    3.70
  -3  13   5   43.50    7.50
  -3  13   5   49.10    5.80
   2 -13  -5   40.70    3.50
  -2  13   5   41.70    7.10
  -2  13   5   37.20    5.20
   1 -13  -5  115.39    6.10
  -1  13   5  113.09    9.80
  -1  13   5  117.49    7.60
   0 -13  -5    9.00    2.00
   0  13   5    6.80    5.10
   0  13   5   15.00    3.60
  -1 -13  -5    0.60    0.90
   1  13   5    1.00    5.00
   1  13   5    4.80    2.30
  -2 -13  -5   10.80    2.10
   2  13   5   18.10    6.40
  -3 -13  -5    1.30    1.10
   3  13   5    1.20    4.60
  -4 -13  -5   10.20    2.30
   4  13   5    8.60    5.80
  -5 -13  -5   57.19    3.10
  -5 -13  -5   53.29    4.20
   5  13   5   49.30    9.40
  -6 -13  -5  193.68    7.50
  -6 -13  -5  182.98    9.00
   6  13   5  178.68   14.10
  -7 -13  -5    4.70    1.40
  -7 -13  -5    4.20    1.50
   7  13   5    6.60    4.90
   1 -14  -5   53.79    4.20
  -1  14   5   53.99    8.50
  -1  14   5   60.29    5.90
   0 -14  -5  150.78    7.60
   0  14   5  146.39   12.00
   0  14   5  175.38    8.80
  -1 -14  -5   22.20    2.70
   1  14   5   22.00    7.30
  -2 -14  -5  113.79    6.60
   2  14   5  122.39   11.30
   2  14   5  157.88    6.90
  -3 -14  -5    3.00    1.70
   3  14   5    1.90    5.60
  -4 -14  -5   22.10    2.90
   4  14   5   24.60    7.90
  -5 -14  -5   42.50    3.70
   5  14   5   33.90    7.90
  -2 -13   6  137.49    6.60
  -2 -13   6  109.29    5.60
  -1 -13   6   51.79    3.20
  -1 -13   6   46.40    3.80
   0  13  -6  166.98    8.00
   0 -13   6  146.99    6.20
   0 -13   6  142.49    7.30
  -1  13  -6  148.89    8.60
  -1  13  -6  151.08    8.00
   1 -13   6  127.39    7.00
   2 -13   6   32.60    3.30
  -3  13  -6   95.69    6.50
   3 -13   6   75.89    5.20
   4 -13   6   44.80    4.10
   5  12  -6  228.58   11.90
  -5 -12   6  186.28    8.40
  -5 -12   6  169.78    7.80
  -4 -12   6    3.60    1.50
  -3 -12   6    5.20    1.80
   2  12  -6   94.39    5.30
   2  12  -6  116.19    9.30
  -2 -12   6   83.39    5.20
   1  12  -6   85.19    5.20
   1  12  -6   95.99    9.30
  -1 -12   6   79.09    5.40
  -1 -12   6   83.09    4.30
   0  12  -6  143.69    7.60
   0  12  -6  166.28   11.30
   0 -12   6  153.08    9.80
   0 -12   6  142.59    6.10
  -1  12  -6  363.76   14.50
   1 -12   6  366.56   13.60
   1 -12   6  363.26   12.10
  -2  12  -6  177.38    9.10
  -2  12  -6  222.08   11.70
   2 -12   6  178.68    8.40
   2 -12   6  184.28    6.90
  -3  12  -6    9.10    2.90
   3 -12   6    6.50    1.60
  -4  12  -6    3.90    2.00
   4 -12   6    2.40    1.40
  -5  12  -6   35.10    4.30
   5 -12   6   29.00    3.20
  -6  12  -6  108.19    7.40
   6 -12   6   95.09    6.10
  -6 -11   6   45.10    3.50
  -6 -11   6   49.50    3.90
   5  11  -6  259.77   13.70
  -5 -11   6  256.77   10.30
  -5 -11   6  253.97    9.80
   4  11  -6  229.48    8.00
   4  11  -6  214.28   12.10
  -4 -11   6  197.48    8.50
  -4 -11   6  188.18    8.20
   3  11  -6   19.20    5.70
  -3 -11   6   12.80    2.20
  -3 -11   6   11.50    2.00
   2  11  -6   52.29    3.50
   2  11  -6   52.89    7.10
  -2 -11   6  134.89   65.39
  -2 -11   6   41.50    3.20
  -2 -11   6   39.20    3.20
   1  11  -6    8.90   34.90
   1  11  -6    7.50    1.80
   1  11  -6    7.40    4.40
  -1 -11   6  -79.29   43.40
   0  11  -6   60.39   36.70
   0  11  -6  102.29    6.00
   0  11  -6  113.39    9.20
   0 -11   6  120.99   70.09
   0 -11   6  102.39    4.80
   0 -11   6  109.49    5.50
  -1  11  -6   67.59   34.20
   1 -11   6   43.30    3.30
   1 -11   6  -30.10   53.99
  -2  11  -6  115.69   41.60
  -2  11  -6   66.79    7.40
  -2  11  -6   50.99    4.40
   2 -11   6  -24.30   50.49
   2 -11   6   52.19    3.90
   2 -11   6   54.69    3.00
  -3  11  -6   34.60    4.20
  -3  11  -6   59.69    8.00
  -3  11  -6   50.79   36.10
   3 -11   6   38.90    2.60
   3 -11   6   26.20   46.80
  -4  11  -6  112.99    8.10
  -4  11  -6   86.69    6.40
   4 -11   6   55.69   85.79
   4 -11   6   93.19    4.20
   4 -11   6   94.89    5.50
  -5  11  -6  374.16   16.10
  -5  11  -6  423.06   16.10
   5 -11   6  393.36   14.90
  -6  11  -6   97.29    7.10
   6 -11   6   91.19    5.70
  -7  11  -6    7.20    2.60
  -7 -10   6   24.60    2.90
   6  10  -6   13.00    3.40
  -6 -10   6    2.90    1.40
  -6 -10   6    5.10    1.30
   5  10  -6   18.20    4.70
  -5 -10   6   11.80    1.90
  -5 -10   6   14.60    2.50
   4  10  -6   99.69    4.90
   4  10  -6   92.09    8.10
  -4 -10   6   92.99    4.60
  -4 -10   6   89.09    5.00
   3  10  -6   81.59    7.40
   3  10  -6   63.19    3.70
   3  10  -6   41.20   39.70
  -3 -10   6   63.99    4.00
  -3 -10   6   64.79    3.90
  -3 -10   6    9.00   49.60
   2  10  -6  202.48   61.39
   2  10  -6  331.17   15.20
   2  10  -6  317.37   12.00
  -2 -10   6  318.67   77.59
  -2 -10   6  329.67   11.60
  -2 -10   6  334.37   11.50
   1  10  -6  724.03   24.00
   1  10  -6  728.43   26.70
   1  10  -6  674.53   96.79
  -1 -10   6  602.44   99.79
  -1 -10   6  764.42   23.40
  -1 -10   6  765.92   23.00
   0  10  -6  160.48   52.39
   0  10  -6  248.28   12.70
   0  10  -6  258.57   10.50
   0 -10   6  296.57   75.49
   0 -10   6  261.97    9.80
  -1  10  -6   -0.10    1.30
   1 -10   6   -4.50   27.90
   1 -10   6    0.50    0.80
   1 -10   6    1.70    1.10
  -2  10  -6   54.69   30.10
  -2  10  -6   36.60    5.90
  -2  10  -6   25.70    3.50
   2 -10   6   33.00    2.80
   2 -10   6   -5.90   32.80
   2 -10   6   29.90    2.40
  -3  10  -6  163.28   51.59
  -3  10  -6  251.67   11.40
  -3  10  -6  279.07   12.40
   3 -10   6  272.87   10.50
   3 -10   6  282.27   65.89
   3 -10   6  270.67    9.20
  -4  10  -6  297.57   12.80
  -4  10  -6  288.77   12.60
   4 -10   6  296.17    9.90
   4 -10   6  241.48   75.79
   4 -10   6  289.17   11.40
  -5  10  -6  119.89    7.60
  -5  10  -6  134.39    8.20
   5 -10   6  128.49    5.20
   5 -10   6  130.29    7.00
   5 -10   6   41.50   51.99
  -6  10  -6   73.69    5.90
   6 -10   6   53.99   73.79
   6 -10   6   66.09    3.50
   6 -10   6   62.99    4.60
  -7  10  -6   17.50    3.90
   7 -10   6   19.90    2.60
   7   9  -6  378.26   17.10
  -7  -9   6  378.76   14.20
   6   9  -6  136.49    9.20
  -6  -9   6  145.59    6.00
  -6  -9   6  141.09    6.80
   5   9  -6   -7.60   61.89
   5   9  -6   38.90   41.70
  -5  -9   6   18.10    1.90
  -5  -9   6   19.00    2.50
   4   9  -6   20.20    2.00
   4   9  -6    8.70    3.60
   4   9  -6   42.70   28.40
  -4  -9   6   13.90    2.10
  -4  -9   6   16.80    2.50
   3   9  -6  160.08    9.50
   3   9  -6  137.99    6.40
  -3  -9   6   70.59   41.30
  -3  -9   6  152.28    6.50
   2   9  -6  160.88    7.20
   2   9  -6  148.19   47.50
   2   9  -6  164.78    9.80
  -2  -9   6  178.38    9.00
  -2  -9   6  167.78    6.90
  -2  -9   6  131.69   48.00
   1   9  -6   57.39    6.10
   1   9  -6   12.80   23.30
   1   9  -6   57.49    4.20
  -1  -9   6   60.79   37.00
  -1  -9   6   57.29    3.50
  -1  -9   6   61.29    3.50
   0   9  -6   33.90    3.20
   0   9  -6   -3.80   22.80
   0   9  -6   29.40    5.40
   0  -9   6   31.20    2.50
   0  -9   6   32.60    2.50
   0  -9   6   14.60   22.80
  -1   9  -6   -0.30    1.30
  -1   9  -6   25.60   21.90
   1  -9   6  -22.60   21.40
   1  -9   6    1.70    0.90
  -2   9  -6  380.46   14.60
  -2   9  -6  383.56   15.40
   2  -9   6  401.36   12.90
   2  -9   6  396.96   67.89
   2  -9   6  397.36   13.70
  -3   9  -6  373.36   65.69
  -3   9  -6  459.15   17.10
  -3   9  -6  470.55   17.30
   3  -9   6  380.96   74.39
   3  -9   6  486.25   16.00
   3  -9   6  481.35   14.90
  -4   9  -6   32.00    5.00
  -4   9  -6  -18.20   20.70
  -4   9  -6   22.90    4.00
   4  -9   6   19.70    2.10
   4  -9   6   24.20    2.50
   4  -9   6   16.90   28.70
  -5   9  -6   22.80    3.50
  -5   9  -6   25.60    4.20
  -5   9  -6   54.49   29.00
   5  -9   6   11.10   27.50
   5  -9   6   20.80    2.40
   5  -9   6   24.80    2.30
  -6   9  -6  217.98   56.19
  -6   9  -6  336.87   17.60
   6  -9   6  306.77   13.30
   6  -9   6  312.67   10.60
   6  -9   6  246.58   66.39
  -7   9  -6  287.07   13.20
   7  -9   6  312.67   10.60
   7  -9   6  298.67   12.10
  -8   9  -6   67.79    5.80
   8  -9   6   58.49    4.20
   8  -9   6   67.79    4.70
  -9   9  -6  242.98   12.10
   9  -9   6  250.97   11.00
  -8  -8   6   22.40    2.80
   7   8  -6    9.50    2.70
  -7  -8   6   10.70    2.30
   6   8  -6  -32.40   37.60
   6   8  -6    3.50    2.40
   6   8  -6  -86.59   49.50
   5   8  -6   53.69   49.30
   5   8  -6   40.20    2.70
   5   8  -6   36.10    4.70
  -5  -8   6   30.70    2.90
  -5  -8   6   36.40    2.50
   4   8  -6 1134.39   38.60
   4   8  -6 1116.29  119.79
   4   8  -6 1149.58   35.20
  -4  -8   6 1207.88   34.80
  -4  -8   6 1203.88   35.50
   3   8  -6  766.82   95.79
   3   8  -6  902.91   30.90
   3   8  -6  862.31   27.90
  -3  -8   6  958.40   28.00
  -3  -8   6  957.60   27.50
  -3  -8   6  853.51  102.79
   2   8  -6    2.40    1.10
   2   8  -6  -31.10   20.70
   2   8  -6    5.30    3.10
  -2  -8   6  -24.80   25.50
  -2  -8   6    0.90    1.10
   1   8  -6  -28.20   18.60
   1   8  -6    1.40    1.20
   1   8  -6   -0.90    2.80
  -1  -8   6    1.80    0.80
  -1  -8   6    1.60    1.10
  -1  -8   6   -8.40   16.80
   0   8  -6  891.21   28.70
   0   8  -6  908.91   97.39
   0  -8   6  922.71  101.79
   0  -8   6  927.11   27.80
   0  -8   6  927.31   27.60
  -1   8  -6  188.78   50.89
  -1   8  -6  239.88   11.00
   1  -8   6  312.57   56.79
   1  -8   6  260.77    9.20
  -2   8  -6  143.59   44.00
  -2   8  -6  215.38    9.40
  -2   8  -6  212.18    9.90
   2  -8   6  237.68    8.60
   2  -8   6  240.98   56.29
  -3   8  -6  948.81  102.59
  -3   8  -6 1056.39   33.80
  -3   8  -6 1072.19   33.50
   3  -8   6 1048.00   31.70
   3  -8   6 1140.79  106.19
   3  -8   6 1125.69   32.90
  -4   8  -6  520.85   17.40
  -4   8  -6  465.65   71.79
  -4   8  -6  485.15   18.00
   4  -8   6  515.75   74.59
   4  -8   6  496.75   16.00
   4  -8   6  519.25   17.10
  -5   8  -6   23.90    4.50
  -5   8  -6   20.30    3.50
   5  -8   6   19.10    2.30
   5  -8   6   20.50    2.20
   5  -8   6  -18.20   34.40
  -6   8  -6   80.09   35.60
  -6   8  -6   44.60    4.50
   6  -8   6   77.09   58.59
   6  -8   6   45.50    3.20
   6  -8   6   52.79    3.90
  -7   8  -6  176.48    9.50
  -7   8  -6  101.69   40.90
   7  -8   6  190.88    9.30
   7  -8   6  101.29   54.59
   7  -8   6  191.48    7.40
  -8   8  -6  192.98   10.10
   8  -8   6  189.88    8.80
   8  -8   6  191.78    7.70
  -9   8  -6   43.80    3.20
  -9   8  -6   40.10    4.80
   9  -8   6   35.80    3.70
 -10   8  -6   26.60    3.50
   9   7  -6  248.18   14.90
  -9  -7   6  213.48   11.80
   8   7  -6    9.90    2.90
  -8  -7   6    8.40    1.90
   7   7  -6   30.20  100.39
   7   7  -6  102.79    7.20
  -7  -7   6  104.79    5.60
   6   7  -6  411.56   17.20
   6   7  -6  428.76   13.80
   6   7  -6  313.67   87.79
   6   7  -6  310.57   85.19
  -6  -7   6  419.46   13.40
  -6  -7   6  420.16   14.70
   5   7  -6   26.00    4.00
   5   7  -6   22.80    2.10
   5   7  -6   83.69   42.00
   5   7  -6   36.50   30.90
  -5  -7   6   25.70    1.90
  -5  -7   6   25.50    2.60
   4   7  -6  237.18    8.90
   4   7  -6  237.58   11.40
   4   7  -6  162.48   50.99
  -4  -7   6  248.08    8.40
  -4  -7   6  243.48    9.20
   3   7  -6 1492.25   48.20
   3   7  -6 1547.85  133.29
   3   7  -6 1492.15   45.80
  -3  -7   6 1579.14   45.00
  -3  -7   6 1689.63  140.09
  -3  -7   6 1565.84   45.70
   2   7  -6  113.59    5.50
   2   7  -6  128.79   40.60
   2   7  -6  118.59    7.30
  -2  -7   6  127.29    4.90
  -2  -7   6  117.59    5.70
  -2  -7   6  183.48   55.09
   1   7  -6  304.27   59.39
   1   7  -6  393.46   15.30
   1   7  -6  389.46   13.70
  -1  -7   6  414.36   67.49
  -1  -7   6  409.26   12.90
  -1  -7   6  417.76   13.20
   0   7  -6   98.39   35.70
   0   7  -6  147.29    6.60
   0  -7   6  150.48    5.80
   0  -7   6  147.69    5.90
   0  -7   6  114.49   35.80
  -1   7  -6  202.08   51.99
  -1   7  -6  215.08    9.80
  -1   7  -6  223.48    9.20
   1  -7   6  230.28    8.00
   1  -7   6  232.98    8.20
  -2   7  -6    4.00    1.90
  -2   7  -6  -18.50   12.40
  -2   7  -6    0.60    2.60
   2  -7   6    4.10    1.10
   2  -7   6   -0.30   12.80
  -3   7  -6  289.47   11.60
  -3   7  -6  302.47   55.89
  -3   7  -6  296.97   11.40
   3  -7   6  307.97   10.80
  -4   7  -6   85.69    5.50
  -4   7  -6   71.79   29.50
   4  -7   6   96.39    4.30
   4  -7   6   94.79    4.80
   4  -7   6   30.60   24.10
  -5   7  -6   48.80   23.60
  -5   7  -6   20.40    3.10
   5  -7   6   23.20    2.40
   5  -7   6   21.50    2.20
   5  -7   6  -12.80   25.50
  -6   7  -6  711.03   91.89
  -6   7  -6  768.12   25.90
   6  -7   6  764.12   24.90
   6  -7   6  765.22  118.59
   6  -7   6  779.52   23.60
  -7   7  -6 1046.00   30.80
  -7   7  -6  814.32  101.49
  -7   7  -6 1026.90   33.00
   7  -7   6 1098.79  149.39
   7  -7   6  981.80   31.70
  -8   7  -6   12.10    1.70
  -8   7  -6   13.60    3.50
   8  -7   6   10.10    3.30
  -9   7  -6    4.40    1.40
  -9   7  -6    3.60    2.30
   9  -7   6    1.70    1.30
 -10   7  -6  246.58   11.80
 -10   7  -6  241.08    9.60
  10  -7   6  230.88   10.60
   9   6  -6  320.27   15.00
  -9  -6   6  311.47   12.60
   8   6  -6    4.70    2.10
  -8  -6   6    1.60    1.10
   7   6  -6  498.95   19.10
   7   6  -6  310.47   85.39
   7   6  -6  421.36   80.89
  -7  -6   6  464.45   16.30
   6   6  -6  363.36   15.30
   6   6  -6  284.87   69.09
   6   6  -6  312.57   83.69
  -6  -6   6  364.96   12.90
   5   6  -6    5.70    2.30
   5   6  -6   -6.40   25.50
   5   6  -6    7.90   21.70
  -5  -6   6    9.30    1.20
  -5  -6   6    8.40    1.80
   4   6  -6  160.28   46.00
   4   6  -6  176.58    9.20
   4   6  -6  146.89   65.69
   4   6  -6  184.18    7.30
  -4  -6   6  193.58    6.60
  -4  -6   6  191.78    7.50
   3   6  -6  233.48    8.80
   3   6  -6  202.38   49.70
   3   6  -6  234.68   10.60
  -3  -6   6  237.58    8.70
  -3  -6   6  262.47   48.30
  -3  -6   6  240.88    8.00
   2   6  -6   51.39   22.60
   2   6  -6   39.40    2.70
   2   6  -6   28.20    3.90
  -2  -6   6   33.50    2.50
  -2  -6   6   30.90    1.90
   1   6  -6  240.38   54.29
   1   6  -6  199.08    9.20
   1   6  -6  193.68    7.90
  -1  -6   6  207.88    7.10
  -1  -6   6  140.79   64.69
  -1  -6   6  213.28    7.60
   0   6  -6 2253.07  154.78
   0   6  -6 2241.18   64.59
   0  -6   6 2281.67   63.49
   0  -6   6 2101.19   63.59
  -1   6  -6 2199.68   65.59
  -1   6  -6 2292.17  146.99
  -1   6  -6 2170.98   65.69
   1  -6   6 2275.67   64.59
   1  -6   6 2316.97   64.59
  -2   6  -6    0.50    1.30
  -2   6  -6    3.40    2.50
  -2   6  -6  -16.90   10.40
   2  -6   6    1.90    1.10
   2  -6   6    2.10    0.90
  -3   6  -6   11.80   17.30
  -3   6  -6    6.80    2.00
  -3   6  -6    9.50    2.70
   3  -6   6    9.80    2.20
   3  -6   6   23.90   17.10
   3  -6   6   10.00    1.70
  -4   6  -6  698.43   78.99
  -4   6  -6  610.14   21.60
   4  -6   6  656.73   75.79
   4  -6   6  653.43   20.50
  -5   6  -6  252.97   10.50
  -5   6  -6  255.47   49.40
  -5   6  -6  263.17    9.40
   5  -6   6  230.48   51.19
   5  -6   6  263.07    9.90
  -6   6  -6   -9.50   19.10
   6  -6   6   -5.10   20.20
  -7   6  -6   80.39   60.09
  -7   6  -6  161.28    8.30
  -7   6  -6  170.18    6.90
   7  -6   6  175.58    7.80
   7  -6   6  207.18   69.89
  -8   6  -6   98.09    6.40
  -8   6  -6   99.09    4.80
  -8   6  -6   26.10   28.10
   8  -6   6   99.49    5.60
   8  -6   6   58.29   38.90
  -9   6  -6  130.29    8.10
  -9   6  -6  127.99    5.90
   9  -6   6  123.49    6.80
 -10   6  -6  222.68   10.60
 -10   6  -6  195.98    8.50
  10  -6   6  206.98    9.50
   9   5  -6  120.59    8.10
  -9  -5   6  117.89    6.40
   8   5  -6   13.20    3.30
  -8  -5   6   20.40    2.60
  -8  -5   6   16.40    2.30
   7   5  -6  260.87   12.10
   7   5  -6  149.29   70.89
   7   5  -6  165.38   51.19
  -7  -5   6  260.87   10.10
  -7  -5   6  260.37    9.30
   6   5  -6 1871.61  167.28
   6   5  -6 1693.23   53.09
   6   5  -6 1550.64  140.79
  -6  -5   6 1686.83   49.80
  -6  -5   6 1740.03   50.59
   5   5  -6  668.23  106.29
   5   5  -6  729.53   25.50
   5   5  -6  722.23   23.00
   5   5  -6  880.21   97.39
  -5  -5   6  762.32   23.40
   4   5  -6  140.69    7.50
   4   5  -6   94.59   32.90
   4   5  -6  123.19   43.10
   4   5  -6  138.09    5.80
  -4  -5   6  139.49    5.90
   3   5  -6   45.40    2.90
   3   5  -6   39.60    3.90
   3   5  -6   37.70   23.70
  -3  -5   6   44.60    3.00
   2   5  -6  528.95   18.60
   2   5  -6  519.25   68.39
   2   5  -6  534.25   17.40
  -2  -5   6  552.14   17.10
  -2  -5   6  545.85   16.20
   1   5  -6   15.90   22.50
   1   5  -6   29.30    3.40
   1   5  -6   35.30    2.60
  -1  -5   6   40.50    2.00
  -1  -5   6   31.80    2.40
   0   5  -6   67.09    3.80
   0   5  -6   76.79   26.70
   0  -5   6   66.39    3.00
   0  -5   6   83.09   32.60
   0  -5   6   69.39    3.50
  -1   5  -6  194.58   45.00
  -1   5  -6  163.08    7.10
  -1   5  -6  164.38    7.00
   1  -5   6  166.38    6.30
   1  -5   6  174.48    6.10
   1  -5   6  213.38   39.30
  -2   5  -6   -0.50    1.70
  -2   5  -6  -11.70    9.70
  -2   5  -6   -0.30    1.20
   2  -5   6    0.30    1.00
  -3   5  -6 1186.98   36.50
  -3   5  -6 1152.58   95.09
   3  -5   6 1133.39   35.50
   3  -5   6 1233.78   35.30
   3  -5   6 1342.37   96.99
  -4   5  -6 1412.16   44.20
  -4   5  -6 1446.46  110.69
  -4   5  -6 1463.95   43.30
   4  -5   6 1658.63  111.79
   4  -5   6 1458.45   43.50
  -5   5  -6  154.88   44.40
  -5   5  -6  133.09    5.50
  -5   5  -6  120.59    6.30
   5  -5   6  130.19   37.20
   5  -5   6  127.99    5.90
  -6   5  -6    2.70    1.80
  -6   5  -6    3.50    1.00
  -6   5  -6   19.50   14.10
   6  -5   6  -10.60   16.30
   6  -5   6    4.50    1.40
  -7   5  -6  395.96   15.00
  -7   5  -6  408.76   13.60
  -7   5  -6  363.56   64.69
   7  -5   6  404.56   14.50
   7  -5   6  455.85   66.09
  -8   5  -6  255.97    9.30
  -8   5  -6  153.38   49.50
  -8   5  -6  240.38   10.70
   8  -5   6  253.37   10.20
   8  -5   6  209.18   57.69
  -9   5  -6  248.48   11.10
  -9   5  -6  247.78    9.40
   9  -5   6  242.78   10.40
 -10   5  -6  320.17   11.80
  10  -5   6  323.77   13.00
 -11   5  -6  175.48    8.00
 -11   5  -6  197.48    9.40
  11  -5   6  173.18    8.80
   9   4  -6   14.10    3.70
  -9  -4   6    9.00    2.30
  -9  -4   6    7.20    2.10
   8   4  -6   13.00    3.10
  -8  -4   6   15.20    2.20
  -8  -4   6   14.70    2.80
   7   4  -6  262.87   73.79
   7   4  -6  236.18   62.39
   7   4  -6  291.47   13.10
  -7  -4   6  295.27   11.10
  -7  -4   6  299.17   10.50
   6   4  -6   58.29    4.80
   6   4  -6   57.19   49.99
   6   4  -6   34.60   28.40
  -6  -4   6   62.99    3.90
  -6  -4   6   57.69    3.60
   5   4  -6  148.09   48.20
   5   4  -6  145.49    6.20
   5   4  -6  148.09    7.80
   5   4  -6  146.39   42.40
  -5  -4   6  153.78    6.40
   4   4  -6  149.49    6.20
   4   4  -6  139.09    7.50
   4   4  -6  208.18   66.09
   4   4  -6  134.89   40.40
  -4  -4   6  158.58    7.00
   3   4  -6 1592.44   46.90
   3   4  -6 1649.13  123.29
   3   4  -6 1538.75   48.20
   3   4  -6 1532.25  139.89
  -3  -4   6 1658.63   46.80
   2   4  -6 1579.84   49.99
   2   4  -6 1788.12  124.59
   2   4  -6 1631.74   49.20
  -2  -4   6 1713.23   48.90
  -2  -4   6 1823.62  125.59
   1   4  -6  878.81   28.10
   1   4  -6  930.21   81.99
   1   4  -6  875.31   27.60
  -1  -4   6  938.61   27.20
  -1  -4   6 1045.80   88.69
  -1  -4   6  888.81   26.30
   0   4  -6  559.74   18.30
   0   4  -6  642.44   65.09
   0  -4   6  580.44   17.30
   0  -4   6  567.24   61.99
   0  -4   6  585.94   17.80
  -1   4  -6  575.84   18.50
  -1   4  -6  596.54   19.00
  -1   4  -6  573.74   58.89
   1  -4   6  615.54   18.40
   1  -4   6  668.63   62.99
  -2   4  -6  353.66   12.20
  -2   4  -6  342.47   11.20
  -2   4  -6  325.87   44.70
   2  -4   6  358.86   11.40
   2  -4   6  401.56   47.40
   2  -4   6  374.46   11.60
   2  -4   6  336.67   11.00
  -3   4  -6  605.04   19.90
   3  -4   6  630.24   19.00
   3  -4   6  736.13   88.59
   3  -4   6  603.54   19.20
  -4   4  -6 1134.89   33.70
  -4   4  -6 1079.79   34.50
  -4   4  -6 1135.59   91.89
   4  -4   6 1325.57   92.89
   4  -4   6 1109.79   33.90
  -5   4  -6  588.74   18.10
  -5   4  -6  562.54   19.00
  -5   4  -6  514.65   65.59
   5  -4   6  569.94   18.60
   5  -4   6  680.13   67.09
  -6   4  -6  -17.90   11.30
  -6   4  -6    3.70    1.60
  -6   4  -6    2.90    1.00
   6  -4   6   -5.80   11.90
   6  -4   6    1.40    2.10
  -7   4  -6  116.79    5.10
  -7   4  -6   84.99   32.70
  -7   4  -6  111.09    6.20
   7  -4   6  149.09   42.50
   7  -4   6  117.09    5.90
  -8   4  -6    5.30    2.10
  -8   4  -6   -9.70   23.50
   8  -4   6    6.90    2.20
   8  -4   6   -0.20   23.00
  -9   4  -6   18.30    2.00
  -9   4  -6   21.10    3.30
   9  -4   6   21.50    2.90
 -10   4  -6   14.10    1.90
 -10   4  -6   17.30    3.40
  10  -4   6   12.10    2.50
 -11   4  -6   30.10    2.90
 -11   4  -6   42.00    4.10
  11  -4   6   30.10    3.60
  10   3  -6  211.58   11.30
 -10  -3   6  196.18    9.10
   9   3  -6  517.55   20.80
  -9  -3   6  522.45   17.60
  -9  -3   6  528.25   18.30
   8   3  -6  665.73   24.80
  -8  -3   6  699.73   21.70
  -8  -3   6  665.83   23.60
   7   3  -6  171.68   61.39
   7   3  -6  106.59   38.70
   7   3  -6  202.08   10.10
  -7  -3   6  216.78    8.20
  -7  -3   6  206.98    8.40
   6   3  -6  185.18   70.49
   6   3  -6  184.18   52.19
   6   3  -6  188.78    9.50
  -6  -3   6  217.78    8.20
  -6  -3   6  197.58    7.70
   5   3  -6  164.28    6.60
   5   3  -6  168.58   54.19
   5   3  -6  131.99   41.40
   5   3  -6  157.18    7.90
  -5  -3   6  163.38    6.60
   4   3  -6   41.50   23.10
   4   3  -6   59.29    3.30
   4   3  -6   57.49    4.20
  -4  -3   6   58.19    3.40
   3   3  -6  164.38    7.50
   3   3  -6  182.48   44.10
   3   3  -6  185.08   54.19
   3   3  -6  167.68    6.60
  -3  -3   6  172.78    6.50
   2   3  -6  408.76   13.50
   2   3  -6  402.36   14.20
   2   3  -6  356.86   67.09
  -2  -3   6  429.26   13.20
   1   3  -6  219.48    8.10
   1   3  -6  214.98    8.30
   1   3  -6  199.08   35.20
  -1  -3   6  269.67   42.40
  -1  -3   6  231.38    7.80
   0   3  -6  124.79   32.00
   0   3  -6  145.69    5.80
   0  -3   6  117.09   29.30
   0  -3   6  141.59    5.40
   0  -3   6  141.09    4.70
  -1   3  -6  961.40   28.00
  -1   3  -6  844.82   68.29
  -1   3  -6  909.61   27.20
   1  -3   6  978.00   27.50
   1  -3   6 1025.30   73.29
   1  -3   6  949.60   27.00
   1  -3   6  818.12   27.80
  -2   3  -6  235.28    8.90
  -2   3  -6  271.37   37.30
   2  -3   6  259.07    8.50
   2  -3   6  240.28   33.70
  -3   3  -6   51.59   19.20
  -3   3  -6   52.29    2.80
  -3   3  -6   45.90    3.10
   3  -3   6   48.20   16.60
   3  -3   6   48.30    2.80
  -4   3  -6   20.50    2.40
  -4   3  -6   24.80    1.80
  -4   3  -6   18.50   14.00
   4  -3   6   23.80    2.20
   4  -3   6   34.70   17.10
  -5   3  -6  292.57   48.60
  -5   3  -6  288.47    9.90
  -5   3  -6  291.27   10.70
   5  -3   6  283.87   10.40
   5  -3   6  336.87   45.70
  -6   3  -6  330.07   53.09
  -6   3  -6  309.67   10.50
  -6   3  -6  302.67   11.30
   6  -3   6  338.47   51.09
   6  -3   6  301.57   11.30
  -7   3  -6  521.35   70.69
  -7   3  -6  489.55   16.90
  -7   3  -6  499.65   15.90
   7  -3   6  478.65   63.19
   7  -3   6  477.05   16.70
  -8   3  -6  732.03   23.90
  -8   3  -6  720.83   22.70
  -8   3  -6  691.93   91.39
   8  -3   6  722.43   23.80
   8  -3   6  776.72   84.69
  -9   3  -6  163.08    7.80
  -9   3  -6  154.98    6.70
   9  -3   6  154.48    7.70
 -10   3  -6    1.20    1.30
 -10   3  -6   -0.30    0.80
  10  -3   6    1.40    2.00
 -11   3  -6    7.70    2.00
  11  -3   6    5.90    2.20
 -12   3  -6  139.49    7.00
  12  -3   6  139.49    7.70
 -10  -2   6   23.50    3.50
 -10  -2   6   26.80    3.10
   9   2  -6   31.20    4.10
  -9  -2   6   31.30    3.10
  -9  -2   6   26.10    3.50
   8   2  -6   19.70    5.00
  -8  -2   6   19.90    3.00
  -8  -2   6   21.10    2.50
   7   2  -6  142.99    8.10
   7   2  -6  148.09   42.00
   7   2  -6   51.39   41.00
  -7  -2   6  148.79    6.50
   6   2  -6  388.06   62.09
   6   2  -6  317.37   13.30
  -6  -2   6  320.47   11.40
   5   2  -6  828.42   97.89
   5   2  -6  691.53   24.20
   5   2  -6  760.72   80.09
  -5  -2   6  725.43   22.50
  -5  -2   6  728.43   22.50
   4   2  -6  914.11   27.60
   4   2  -6  890.91   29.00
   4   2  -6  896.41   85.19
   4   2  -6  898.81  100.29
  -4  -2   6  917.11   27.30
   3   2  -6  605.94   65.99
   3   2  -6  593.84   77.49
   3   2  -6  532.55   18.20
   3   2  -6  515.65   17.20
  -3  -2   6  561.04   17.00
   2   2  -6  174.78   47.30
   2   2  -6  224.58    8.70
   2   2  -6  216.58    8.10
   2   2  -6  233.98   40.20
  -2  -2   6  235.38    7.90
   1   2  -6  642.84   20.70
   1   2  -6  696.83   62.19
   1   2  -6  654.23   20.50
  -1  -2   6  710.33   63.99
  -1  -2   6  662.03   20.00
   0   2  -6  969.60   69.79
   0   2  -6  921.71   28.50
   0   2  -6  942.01   27.30
   0  -2   6  997.00   28.10
   0  -2   6  927.11   70.99
  -1   2  -6  750.42   22.20
  -1   2  -6  730.53   57.19
  -1   2  -6  758.92   22.90
   1  -2   6  829.82   60.39
   1  -2   6  748.93   21.90
   1  -2   6  797.02   22.50
   1  -2   6  671.83   22.60
  -2   2  -6 2277.77  113.19
  -2   2  -6 2307.47   67.49
  -2   2  -6 2353.66   67.29
   2  -2   6 2271.37   66.79
   2  -2   6 2393.56   66.89
   2  -2   6 2477.15  113.59
  -3   2  -6  483.65   46.60
  -3   2  -6  499.35   15.90
  -3   2  -6  493.35   15.40
   3  -2   6  484.65   15.40
   3  -2   6  503.85   45.80
  -4   2  -6    1.00    1.00
  -4   2  -6    3.00    7.60
   4  -2   6   -0.30    1.00
   4  -2   6   19.10   12.90
  -5   2  -6   22.20    2.40
  -5   2  -6   24.00   18.70
  -5   2  -6   25.10    1.80
   5  -2   6   27.10   14.80
   5  -2   6   18.50    2.30
  -6   2  -6  133.59    6.20
  -6   2  -6  136.59    5.50
  -6   2  -6   76.19   28.40
   6  -2   6  145.49    6.40
   6  -2   6  118.39   31.50
  -7   2  -6  137.69    5.60
  -7   2  -6   88.69   29.70
  -7   2  -6  130.19    6.10
   7  -2   6  126.79    6.40
   7  -2   6  110.89   31.00
  -8   2  -6    6.20    1.90
  -8   2  -6   -8.20   17.80
  -8   2  -6    5.90    1.40
   8  -2   6    7.20    2.10
   8  -2   6   13.00   18.60
  -9   2  -6    1.90    1.60
   9  -2   6    0.60    1.50
 -10   2  -6    1.90    1.00
  10  -2   6   -1.00    1.60
 -11   2  -6  205.68    8.80
  11  -2   6  216.08    9.90
 -12   2  -6  183.18    8.60
 -12   2  -6  231.48    9.10
  12  -2   6  192.28    9.70
  10   1  -6  375.96   16.10
 -10  -1   6  361.26   14.10
 -10  -1   6  372.06   14.00
   9   1  -6  162.68    9.40
  -9  -1   6  174.48    7.70
   8   1  -6  201.88   12.30
  -8  -1   6  194.88    8.20
   7   1  -6  109.39   45.10
   7   1  -6  140.69   45.20
   7   1  -6  143.59    8.10
  -7  -1   6  146.79    6.50
  -7  -1   6  149.79    6.70
   6   1  -6  100.59    6.30
   6   1  -6   71.39   38.20
   6   1  -6  116.99   40.10
  -6  -1   6  108.89    5.30
  -6  -1   6  103.09    4.90
   5   1  -6  460.55   62.69
   5   1  -6  398.86   74.09
   5   1  -6  472.75   17.30
  -5  -1   6  480.65   15.70
  -5  -1   6  489.35   15.40
   4   1  -6  860.71   26.80
   4   1  -6  868.11   80.99
   4   1  -6  869.31   28.10
   4   1  -6  824.52   94.09
  -4  -1   6  904.61   26.80
  -4  -1   6  892.21   26.40
   3   1  -6  242.58   55.09
   3   1  -6  235.48    8.70
   3   1  -6  238.48   39.30
   3   1  -6  240.28    9.60
  -3  -1   6  248.28    8.40
   2   1  -6  339.87   11.90
   2   1  -6  319.67   11.20
   2   1  -6  332.67   44.90
   2   1  -6  384.56   51.09
  -2  -1   6  333.67   10.80
   1   1  -6  233.38    8.40
   1   1  -6  231.58   32.40
  -1  -1   6  242.38    8.00
   0   1  -6   82.69   21.90
   0   1  -6   67.39    3.90
   0   1  -6   67.59    3.40
   0  -1   6   59.19    2.90
   0  -1   6   83.59   23.30
  -1   1  -6   24.20    1.50
  -1   1  -6   18.00    9.80
  -1   1  -6   23.80    1.50
   1  -1   6   20.90    1.40
   1  -1   6   30.20   13.30
   1  -1   6   20.70    1.60
  -2   1  -6  338.37   33.60
   2  -1   6  361.96   33.00
   2  -1   6  366.36   11.30
  -3   1  -6    9.20    1.30
  -3   1  -6   16.30   10.20
  -3   1  -6    9.60    1.10
   3  -1   6   18.10    9.50
  -4   1  -6   89.39    3.80
  -4   1  -6   80.99   24.30
  -4   1  -6   88.99    4.20
   4  -1   6   96.19    4.40
  -5   1  -6 2191.18   62.79
  -5   1  -6 2130.29  123.99
  -5   1  -6 2211.68   63.19
   5  -1   6 2140.09   63.49
   5  -1   6 2249.77  117.89
  -6   1  -6 1411.96   41.60
  -6   1  -6 1433.46   42.10
  -6   1  -6 1372.06  105.49
   6  -1   6 1492.35   98.79
   6  -1   6 1399.56   42.50
  -7   1  -6   24.10    2.50
  -7   1  -6   30.80   24.50
  -7   1  -6   27.80    2.10
   7  -1   6   25.40    1.70
   7  -1   6   25.60    3.00
   7  -1   6   20.60   20.70
  -8   1  -6   22.90    2.10
   8  -1   6   20.30    2.90
   8  -1   6   23.10    1.80
   8  -1   6   23.50   17.80
  -9   1  -6  249.88   10.40
  -9   1  -6  314.17   10.80
   9  -1   6  300.17   10.30
   9  -1   6  297.67   11.80
 -10   1  -6  315.67   11.80
 -10   1  -6  321.07   12.10
  10  -1   6  321.67   11.40
  10  -1   6  328.67   13.00
 -11   1  -6   35.40    2.70
 -12   1  -6   99.09    5.70
  12  -1   6  114.29    6.80
  10   0  -6  282.47   13.40
 -10   0   6  277.17   11.10
   9   0  -6   37.10    4.10
  -9   0   6   28.40    2.80
  -9   0   6   26.10    3.70
   8   0  -6  315.17   14.70
  -8   0   6  325.37   11.80
  -8   0   6  325.07   12.30
   7   0  -6   74.09    5.50
   7   0  -6  103.89   43.90
  -7   0   6   74.49    4.10
  -7   0   6   70.99    4.70
   6   0  -6   49.80    4.20
   6   0  -6   42.70   23.80
  -6   0   6   49.10    3.10
   5   0  -6  156.18   47.60
   5   0  -6  256.07   10.90
  -5   0   6  261.87    9.20
  -5   0   6  277.97    9.70
   4   0  -6  481.05   17.10
   4   0  -6  428.06   65.79
  -4   0   6  497.85   15.40
  -4   0   6  493.45   15.80
   3   0  -6    3.20    1.00
   3   0  -6   -4.80    9.90
   3   0  -6    3.80    1.20
   3   0  -6   13.80   11.60
  -3   0   6    2.30    1.00
   2   0  -6  169.88    7.00
   2   0  -6  163.48    6.40
   2   0  -6  148.69   37.70
  -2   0   6  174.98    6.10
   1   0  -6 3349.76  142.89
   1   0  -6 3271.87  156.68
   1   0  -6 3107.79   93.09
   1   0  -6 3350.46   93.69
   0   0  -6 1631.84   49.70
   0   0  -6 1691.23   48.70
   0   0  -6 1725.03   84.39
   0   0   6 1693.93   48.30
  -1   0  -6   81.29   14.30
  -1   0  -6   54.69    2.60
  -1   0  -6   69.39    3.30
   1   0   6   74.29    3.10
   1   0   6   62.79    2.90
   1   0   6   61.79    2.50
   1   0   6   76.29   16.70
   1   0   6   71.69    2.80
  -2   0  -6   47.70    1.80
  -2   0  -6   51.59   14.00
  -2   0  -6   38.30    2.30
  -2   0  -6   41.50    2.20
   2   0   6   39.10    2.30
   2   0   6   42.10    1.90
   2   0   6   48.40   13.10
  -3   0  -6 1051.89   61.09
  -3   0  -6 1051.99   31.40
   3   0   6 1141.49   59.59
   3   0   6 1036.60   31.40
  -4   0  -6   81.09    3.70
  -4   0  -6   87.09    3.60
  -4   0  -6   76.09   20.50
   4   0   6   87.19   22.40
   4   0   6   75.59    4.00
  -5   0  -6    4.10    7.70
  -5   0  -6    0.30    0.50
   5   0   6    0.30    5.50
   5   0   6   -0.10    1.20
  -6   0  -6  817.52   24.20
  -6   0  -6  756.92   74.79
   6   0   6  798.22   25.10
   6   0   6  788.72   23.90
   6   0   6  796.92   67.79
  -7   0  -6  340.97   11.60
  -7   0  -6  349.57   11.50
  -7   0  -6  283.57   50.99
   7   0   6  323.87   47.40
   7   0   6  326.77   11.30
   7   0   6  344.37   12.60
  -8   0  -6  368.26   12.70
  -8   0  -6  296.57   56.19
  -8   0  -6  387.86   12.80
   8   0   6  331.07   51.29
   8   0   6  358.36   12.70
   8   0   6  400.36   14.00
  -9   0  -6  309.57   11.10
  -9   0  -6  309.87   11.00
   9   0   6  291.97   12.00
   9   0   6  289.37   11.00
 -10   0  -6   41.10    3.20
 -10   0  -6   43.40    3.10
  10   0   6   37.90    4.00
  10   0   6   45.80    3.00
 -11   0  -6   54.59    3.90
  11   0   6   60.29    5.10
 -12   0  -6   39.20    3.50
  12   0   6   45.00    4.40
  10  -1  -6   84.99    6.50
 -10   1   6   67.49    5.60
 -10   1   6   70.69    4.60
   9  -1  -6   25.10    3.30
  -9   1   6   25.80    4.00
   8  -1  -6  247.98   13.00
  -8   1   6  261.77   10.70
  -8   1   6  259.47    9.80
   7  -1  -6 1177.68   38.40
   7  -1  -6 1219.48  136.89
  -7   1   6 1223.18   35.80
  -7   1   6 1056.39  128.89
  -7   1   6 1190.88   36.50
   6  -1  -6  137.39   42.00
   6  -1  -6  173.18    8.60
  -6   1   6  182.18    7.70
  -6   1   6  172.98   54.79
   5  -1  -6   23.20    2.70
   5  -1  -6   14.60   18.90
  -5   1   6   21.70    2.70
  -5   1   6   24.40   22.60
  -5   1   6   20.40    1.90
   4  -1  -6    0.50   18.60
  -4   1   6   -2.30   10.40
   3  -1  -6  236.78    9.70
   3  -1  -6  222.68   49.50
  -3   1   6  257.27    9.00
  -3   1   6  257.97    8.40
  -3   1   6  244.98   44.10
   2  -1  -6  186.88   34.40
   2  -1  -6  237.28    8.60
   2  -1  -6  258.27    9.30
  -2   1   6  249.08    8.10
   1  -1  -6   27.10    2.10
   1  -1  -6   26.30    1.90
   1  -1  -6   21.80   10.00
   1  -1  -6   11.70   11.00
  -1   1   6   26.30    1.70
   0  -1  -6 1988.30   57.19
   0  -1  -6 2034.60   87.29
   0  -1  -6 1980.80   93.19
   0  -1  -6 1884.91   57.19
   0   1   6 2050.29   56.69
  -1  -1  -6   85.09   11.20
  -1  -1  -6   95.29    3.80
  -1  -1  -6   96.39    4.10
   1   1   6  100.19    3.70
   1   1   6   83.89    3.30
  -2  -1  -6 3067.89   86.19
  -2  -1  -6 3042.90  103.59
   2   1   6 3094.19   85.99
   2   1   6 3260.77  104.49
   2   1   6 2680.43   85.39
  -3  -1  -6 2111.39   60.19
  -3  -1  -6 2141.39   60.49
  -3  -1  -6 1983.10   87.99
   3   1   6 2330.87   86.09
   3   1   6 2159.88   60.79
   3   1   6 1985.80   59.59
   3   1   6 2052.79   60.09
  -4  -1  -6   31.90    1.90
  -4  -1  -6   26.70   11.70
   4   1   6   29.90    2.80
   4   1   6   30.50   13.00
   4   1   6   30.10    1.50
   4   1   6   37.40    2.80
  -5  -1  -6   36.90    2.20
  -5  -1  -6   36.60    2.20
   5   1   6   33.40    3.10
   5   1   6   35.80    3.00
   5   1   6   24.80   11.20
  -6  -1  -6  514.75   15.80
  -6  -1  -6  504.65   16.00
  -6  -1  -6  459.55   56.09
   6   1   6  499.85   16.50
   6   1   6  529.45   53.29
  -7  -1  -6   19.10    1.90
  -7  -1  -6   21.70    1.90
  -7  -1  -6    8.00   14.50
   7   1   6   18.90    2.20
   7   1   6   22.90    3.10
   7   1   6   33.30   17.00
  -8  -1  -6    0.80    0.80
  -8  -1  -6    2.00    1.00
  -8  -1  -6   -2.90   15.10
   8   1   6    1.80    1.80
   8   1   6    2.30    1.10
  -9  -1  -6  585.14   18.10
  -9  -1  -6  590.84   18.80
   9   1   6  566.74   19.90
   9   1   6  534.55   18.90
 -10  -1  -6  336.87   12.10
  10   1   6  321.27   12.30
  10   1   6  314.97   13.00
 -11  -1  -6   14.90    2.20
  11   1   6   21.90    3.90
 -12  -1  -6  142.49    7.20
  12   1   6  145.39    8.10
  10  -2  -6   45.70    4.40
   9  -2  -6    2.40    1.70
  -9   2   6    1.30    2.30
  -9   2   6    2.80    1.30
  -8   2   6  366.76   12.70
  -8   2   6  363.16   14.00
   7  -2  -6   18.30    3.40
   7  -2  -6   33.00   43.70
  -7   2   6   20.20    3.20
  -7   2   6   17.70    1.90
  -7   2   6   43.80   31.60
   6  -2  -6  207.48    9.60
  -6   2   6  201.78    7.50
  -6   2   6  156.38   50.59
  -6   2   6  199.88    8.50
   5  -2  -6  105.99    6.00
   5  -2  -6   83.29   29.80
  -5   2   6  104.49    6.40
  -5   2   6   81.79   35.90
  -5   2   6  107.79    4.50
   4  -2  -6 1526.05   46.70
   4  -2  -6 1605.64  121.29
  -4   2   6 1552.04   44.50
  -4   2   6 1561.64  120.29
  -4   2   6 1497.85   45.40
   3  -2  -6  740.03   23.40
   3  -2  -6  656.63   68.59
  -3   2   6  717.73   22.40
  -3   2   6  723.23   21.50
  -3   2   6  758.32   72.89
   2  -2  -6    1.00    8.60
   2  -2  -6    7.20    1.20
  -2   2   6    8.40    1.30
  -2   2   6    9.20    1.80
  -2   2   6    4.80    9.00
   1  -2  -6  354.16   11.70
   1  -2  -6  346.07   11.30
  -1   2   6  306.67   10.00
  -1   2   6  339.47   38.40
  -1   2   6  348.17   10.50
   0  -2  -6 1275.07   37.10
   0  -2  -6 1279.87   36.00
   0  -2  -6 1327.67   58.99
   0  -2  -6 1321.87   63.19
   0   2   6 1316.77   36.50
   0   2   6 1095.39   35.90
  -1  -2  -6  120.29    4.60
  -1  -2  -6  119.19    4.40
  -1  -2  -6  115.79    4.70
  -2  -2  -6   35.80    1.90
  -2  -2  -6   38.80    2.00
  -2  -2  -6   36.50    2.10
  -3  -2  -6 2679.63  105.79
   3   2   6 3006.50   98.99
   3   2   6 2786.12   80.59
  -4  -2  -6 1218.28   35.10
  -4  -2  -6 1038.20   93.89
  -4  -2  -6 1219.68   35.10
   4   2   6 1229.18   36.00
   4   2   6 1225.48   36.00
   4   2   6 1206.38   66.39
  -5  -2  -6  262.07    8.90
  -5  -2  -6  264.17    8.60
  -5  -2  -6  264.17   37.20
   5   2   6  271.77   32.10
   5   2   6  255.57   10.30
   5   2   6  257.17    9.80
  -6  -2  -6  203.58    7.40
  -6  -2  -6  131.49   35.50
  -6  -2  -6  207.68    6.90
   6   2   6  193.08    9.70
   6   2   6  201.78    8.50
   6   2   6  203.68   32.60
  -7  -2  -6  126.59    5.40
  -7  -2  -6   69.89   24.80
  -7  -2  -6  133.89    5.00
   7   2   6  121.69   33.90
   7   2   6  124.79    6.50
   7   2   6  131.99    6.60
  -8  -2  -6   10.00   14.20
  -8  -2  -6   18.30    1.90
   8   2   6   17.30    3.20
   8   2   6   16.50    2.60
   8   2   6   12.90   16.30
  -9  -2  -6   41.80    3.00
   9   2   6   44.80    3.70
   9   2   6   40.70    4.20
 -10  -2  -6   51.09    3.60
  10   2   6   60.09    6.30
  10   2   6   51.79    4.70
 -11  -2  -6   15.30    2.70
  11   2   6   16.00    3.30
 -12  -2  -6  121.59    6.50
  12   2   6  123.19    7.50
   9  -3  -6   83.09    6.20
  -9   3   6   81.89    4.50
  -9   3   6   83.29    6.30
   8  -3  -6   42.90    4.30
  -8   3   6   46.90    3.10
  -8   3   6   44.60    4.50
   7  -3  -6  257.37   11.60
   7  -3  -6  300.17   67.19
  -7   3   6  253.37    9.20
  -7   3   6  250.87   62.29
  -7   3   6  256.87   10.70
   6  -3  -6   -8.00   30.30
  -6   3   6  -12.80   24.00
   5  -3  -6  287.27   11.60
   5  -3  -6  239.08   55.89
  -5   3   6  278.27   10.70
  -5   3   6  313.87   51.19
  -5   3   6  283.87    9.40
   4  -3  -6   38.70    3.30
   4  -3  -6   53.09   25.30
   4  -3  -6   38.90    1.80
  -4   3   6   44.60   19.70
  -4   3   6   36.70    3.20
  -4   3   6   38.70    2.20
   3  -3  -6 1723.03   53.19
   3  -3  -6 1765.22  117.59
   3  -3  -6 1818.22   50.79
  -3   3   6 1875.51  119.79
  -3   3   6 1817.22   51.19
  -3   3   6 1771.72   52.29
   2  -3  -6  438.46   12.90
   2  -3  -6  418.56   14.70
   2  -3  -6  420.26   46.90
  -2   3   6  438.96   13.20
  -2   3   6  491.65   50.39
  -2   3   6  430.56   14.10
   1  -3  -6  546.95   15.80
   1  -3  -6  526.55   17.20
   1  -3  -6  552.04   46.00
  -1   3   6  573.94   47.40
  -1   3   6  523.15   16.00
  -1   3   6  538.65   16.80
   0  -3  -6  214.28   21.80
   0  -3  -6  204.38    7.40
   0  -3  -6  195.08    6.40
   0  -3  -6  188.28    7.10
   0   3   6  201.18    6.60
   0   3   6  199.78    7.10
   0   3   6  216.88   23.40
  -1  -3  -6    4.70    1.10
  -1  -3  -6    5.30    0.80
  -1  -3  -6    4.80    1.30
  -2  -3  -6  259.77    8.60
  -2  -3  -6  252.37    8.60
  -2  -3  -6  261.17    8.40
  -2  -3  -6  271.77    8.90
  -3  -3  -6   42.10    2.20
  -3  -3  -6   44.80    2.40
  -3  -3  -6   41.90    2.20
   3   3   6   46.10    7.50
   3   3   6   43.00    3.10
   3   3   6   68.39   10.20
  -4  -3  -6  378.56   12.20
  -4  -3  -6  395.36   12.80
  -4  -3  -6  389.26   12.40
   4   3   6  413.66   13.90
   4   3   6  407.16   32.60
   4   3   6  402.66   34.80
  -5  -3  -6   41.70    2.40
   5   3   6   44.30    4.60
   5   3   6   43.10   15.90
   5   3   6   39.40    3.40
  -6  -3  -6  908.21   26.90
  -6  -3  -6  800.52   81.89
   6   3   6  905.31   28.30
   6   3   6  887.21   69.29
   6   3   6  904.91   29.10
  -7  -3  -6  492.75   68.79
   7   3   6  498.75   18.10
   7   3   6  432.16   56.39
   7   3   6  532.95   19.70
  -8  -3  -6   -0.10   13.80
   8   3   6   -4.80   14.20
  -9  -3  -6   30.60    2.60
   9   3   6   27.80    3.90
   9   3   6   35.70    3.70
 -10  -3  -6    0.70    0.90
  10   3   6    4.80    2.00
  10   3   6    0.90    2.20
 -11  -3  -6    4.10    1.40
  11   3   6    6.10    2.70
 -12  -3  -6    1.20    1.00
  12   3   6   -0.80    1.90
   9  -4  -6  180.68    9.70
  -9   4   6  177.08    7.20
  -9   4   6  164.88    9.30
   8  -4  -6    9.30    2.50
   8  -4  -6   11.60    1.30
  -8   4   6    7.40    3.00
  -8   4   6   10.20    1.50
   7  -4  -6  159.98    8.60
   7  -4  -6  162.68    5.90
  -7   4   6  165.98    8.30
  -7   4   6  173.78    7.00
   6  -4  -6   93.69    5.70
   6  -4  -6   73.29    3.20
   6  -4  -6   60.89   32.70
  -6   4   6   99.49   39.60
  -6   4   6   70.79    3.50
  -6   4   6   76.89    5.20
   5  -4  -6   25.10    2.90
   5  -4  -6   55.09   27.30
   5  -4  -6   26.70    1.60
  -5   4   6   27.00    1.80
  -5   4   6   29.00    3.20
  -5   4   6   52.19   29.60
   4  -4  -6  411.56   12.70
   4  -4  -6  398.06   54.39
   4  -4  -6  408.56   15.60
  -4   4   6  423.96   12.80
  -4   4   6  396.26   53.69
  -4   4   6  428.06   14.50
   3  -4  -6   36.80    1.90
   3  -4  -6   18.90   14.10
   3  -4  -6   34.70    2.90
  -3   4   6   37.90    1.90
  -3   4   6   35.90    3.10
  -3   4   6   31.20   17.10
   2  -4  -6  117.79    5.60
   2  -4  -6  106.09   27.70
   2  -4  -6  125.39    4.30
  -2   4   6  114.69    5.30
  -2   4   6   93.99   32.70
  -2   4   6  123.19    4.20
   1  -4  -6   17.10    1.80
   1  -4  -6   21.10    1.30
  -1   4   6   18.30   10.60
  -1   4   6   17.10    2.00
  -1   4   6   18.80    1.30
   0  -4  -6 1191.58   35.70
   0  -4  -6 1248.28   62.89
   0   4   6 1185.58   35.20
   0   4   6 1190.98   61.99
   0   4   6 1198.48   34.50
  -1  -4  -6  643.24   33.30
  -1  -4  -6  654.43   20.10
  -1  -4  -6  656.33   19.50
  -1  -4  -6  638.04   19.30
   1   4   6  649.04   19.70
   1   4   6  691.83   33.80
  -2  -4  -6   50.99    2.50
  -2  -4  -6   53.99    2.70
   2   4   6   50.49    2.60
  -3  -4  -6   44.10    2.40
  -3  -4  -6   40.70    2.00
  -3  -4  -6   44.30    2.20
   3   4   6   47.10    9.90
   3   4   6   42.20   11.80
   3   4   6   42.10    3.50
  -4  -4  -6   12.10    1.40
  -4  -4  -6   14.50    1.30
  -4  -4  -6   11.70    0.90
   4   4   6   12.80    1.40
   4   4   6   18.50    3.50
   4   4   6   19.50    8.80
   4   4   6    7.20    8.10
  -5  -4  -6   71.59    3.40
  -5  -4  -6   75.79    3.80
   5   4   6   61.69   21.50
   5   4   6   71.19    5.80
   5   4   6   62.19   18.30
  -6  -4  -6    0.30    0.60
   6   4   6    3.50    3.30
   6   4   6    7.00    2.20
   6   4   6    0.00   11.10
   6   4   6  -14.40    8.80
  -7  -4  -6  205.18    7.70
   7   4   6  203.88   39.50
   7   4   6  206.98    9.10
   7   4   6  193.48   10.00
   7   4   6  195.78   36.90
  -8  -4  -6   31.90    2.50
   8   4   6   35.10    4.40
   8   4   6   32.60    3.80
   8   4   6   54.99   24.90
  -9  -4  -6   61.89    3.80
   9   4   6   71.59   31.50
   9   4   6   58.69    5.00
   9   4   6   68.09    5.60
 -10  -4  -6  187.48    8.30
  10   4   6  203.88    9.90
  10   4   6  188.48    9.60
 -11  -4  -6   48.00    3.70
  11   4   6   52.79    5.20
   9  -5  -6    8.10    2.20
  -9   5   6    2.40    2.80
   8  -5  -6   71.39    3.50
   8  -5  -6   79.39    5.80
  -8   5   6   77.49    6.20
  -8   5   6   76.79    3.70
   7  -5  -6    9.30    1.10
   7  -5  -6    7.30    2.30
  -7   5   6    6.50    2.70
   6  -5  -6  319.17   70.39
   6  -5  -6  257.17    8.80
   6  -5  -6  269.07   11.40
  -6   5   6  264.57   11.00
  -6   5   6  162.78   52.99
  -6   5   6  265.97    8.80
   5  -5  -6  194.98   48.10
   5  -5  -6  309.77   12.30
   5  -5  -6  306.77   10.00
  -5   5   6  320.27    9.80
  -5   5   6  208.48   54.49
  -5   5   6  320.77   12.00
   4  -5  -6   25.20    1.60
   4  -5  -6    1.00   16.70
   4  -5  -6   27.50    2.80
  -4   5   6   26.60    1.60
  -4   5   6   29.50   16.00
  -4   5   6   27.60    3.10
   3  -5  -6    1.80    0.50
   3  -5  -6    1.20    1.00
   3  -5  -6   -9.50    8.40
  -3   5   6    1.20    0.60
  -3   5   6    0.30    1.50
   2  -5  -6   54.29   23.80
   2  -5  -6   53.59    3.50
  -2   5   6   55.89    3.60
  -2   5   6   53.19    2.10
  -2   5   6   43.50   16.80
  -2   5   6   47.80    2.30
   1  -5  -6  361.06   11.80
   1  -5  -6  338.37   11.90
   1  -5  -6  319.67   37.50
  -1   5   6  329.37   10.20
  -1   5   6  320.37   37.60
  -1   5   6  331.97   11.50
  -1   5   6  350.26   10.20
   0  -5  -6   13.80    9.30
   0  -5  -6   17.70    1.30
   0   5   6   17.20    2.00
   0   5   6   16.10    1.20
   0   5   6   14.00    0.90
   0   5   6   20.00    9.60
  -1  -5  -6  367.36   30.40
  -1  -5  -6  389.76   11.80
  -1  -5  -6  387.86   12.20
  -1  -5  -6  392.26   12.80
   1   5   6  386.16   12.30
   1   5   6  386.06   29.50
  -2  -5  -6   82.99    3.90
  -2  -5  -6   86.39    3.70
  -2  -5  -6   76.89   13.00
  -2  -5  -6   85.99    3.30
   2   5   6   87.09   12.00
   2   5   6   81.49    3.90
  -3  -5  -6   19.20    1.60
   3   5   6   30.60   10.90
   3   5   6   22.80    9.10
   3   5   6   19.70    1.60
   3   5   6   21.70    3.30
  -4  -5  -6  755.32   22.30
  -4  -5  -6  733.23   22.80
   4   5   6  717.13   52.19
   4   5   6  797.22   54.89
   4   5   6  730.53   24.50
  -5  -5  -6   61.89    3.20
  -5  -5  -6   65.89    3.60
   5   5   6   58.79   20.10
   5   5   6   65.99    6.10
   5   5   6   59.29   20.50
   6   5   6    6.80   10.90
   6   5   6    0.40    3.10
   6   5   6   23.70   17.20
  -7  -5  -6   14.60    1.70
   7   5   6   16.80    3.10
   7   5   6   -3.00   11.20
   7   5   6   18.30    4.50
   7   5   6    7.50   11.40
  -8  -5  -6   58.39    3.50
   8   5   6   55.99    5.90
   8   5   6   61.69    5.00
   8   5   6   33.50   22.70
   9   5   6   27.30    3.90
   9   5   6  -16.00   14.60
   9   5   6   25.20    4.30
 -10  -5  -6    8.50    2.00
  10   5   6    9.50    2.90
  10   5   6    8.50    3.20
 -11  -5  -6   83.39    5.00
  11   5   6   83.39    6.40
  -9   6   6   -1.30    2.40
   8  -6  -6   31.00    3.70
   8  -6  -6   25.30    2.10
  -8   6   6   23.70    4.60
   7  -6  -6   65.79    5.30
   7  -6  -6   72.09    3.50
  -7   6   6   75.09    6.00
  -7   6   6   74.49    3.40
   6  -6  -6   24.30    2.20
   6  -6  -6   23.40    3.00
  -6   6   6   27.80    1.60
  -6   6   6   27.10    3.80
   5  -6  -6   65.49   36.30
   5  -6  -6   56.69    3.00
   5  -6  -6   62.39    4.60
  -5   6   6   53.29    4.40
  -5   6   6   59.29    2.50
   4  -6  -6   19.40    1.50
   4  -6  -6   25.30    2.80
   4  -6  -6   -5.60   16.90
  -4   6   6   15.10   14.50
  -4   6   6   22.10    3.10
   3  -6  -6   20.90    2.40
   3  -6  -6   16.90   17.10
  -3   6   6   22.10   15.40
  -3   6   6   18.20    2.70
   2  -6  -6  403.76   14.10
   2  -6  -6  373.16   49.70
   2  -6  -6  402.86   12.60
  -2   6   6  390.66   49.50
  -2   6   6  390.26   13.60
   1  -6  -6  199.08    7.00
   1  -6  -6  199.08    8.10
   1  -6  -6  221.78   34.30
  -1   6   6  199.98    7.80
  -1   6   6  210.78   32.90
   0  -6  -6   -1.10    7.80
   0  -6  -6    1.00    0.60
   0  -6  -6    1.20    0.80
   0   6   6    3.10    7.00
   0   6   6    1.80    1.30
  -1  -6  -6   23.90    1.80
  -1  -6  -6   25.00    2.10
  -1  -6  -6   27.00    1.40
  -1  -6  -6   25.20   10.90
   1   6   6   25.90    2.30
   1   6   6   25.00    9.60
  -2  -6  -6   33.80    2.40
  -2  -6  -6   48.50   14.50
  -2  -6  -6   33.80    1.80
  -2  -6  -6   30.40    2.10
   2   6   6   32.80    2.30
   2   6   6   33.80    3.80
   2   6   6   37.20   11.40
  -3  -6  -6   36.20    2.40
   3   6   6   39.70    2.30
   3   6   6   36.20   12.00
   3   6   6   39.90    4.40
  -4  -6  -6   16.90    1.50
  -4  -6  -6   18.20    1.70
   4   6   6   19.20   10.80
   4   6   6   26.70   13.70
   4   6   6   24.30    4.50
  -5  -6  -6  346.37   11.30
  -5  -6  -6  352.56   12.10
   5   6   6  338.97   14.50
   5   6   6  320.27   42.50
   5   6   6  340.27   43.00
  -6  -6  -6    2.70    1.00
  -6  -6  -6    3.40    1.20
   6   6   6    4.00    4.10
   6   6   6    5.40    9.70
   6   6   6    5.90   10.20
  -7  -6  -6  200.58    8.30
  -7  -6  -6  195.28    7.50
   7   6   6  191.08   11.10
   7   6   6  187.08   47.10
  -8  -6  -6  178.18    7.20
   8   6   6  172.58   10.50
   8   6   6  184.98    9.10
   8   6   6  105.79   33.90
  -9  -6  -6    5.30    1.50
   9   6   6    5.50    2.60
   9   6   6   11.00    3.60
 -10  -6  -6   30.70    2.90
  10   6   6   39.10    5.40
   8  -7  -6  111.19    5.10
   8  -7  -6  126.69    7.50
  -8   7   6  110.89    8.00
   7  -7  -6   40.80    4.20
   7  -7  -6   51.09    2.90
  -7   7   6   40.90    5.20
   6  -7  -6    2.50    1.60
   6  -7  -6    2.70    1.00
  -6   7   6    4.10    3.00
   5  -7  -6    1.70    1.20
   5  -7  -6   19.10   34.40
   5  -7  -6    0.70    0.50
  -5   7   6    1.90    2.00
  -5   7   6   -6.10   16.00
   4  -7  -6   70.99    4.70
  -4   7   6   92.19   31.80
  -4   7   6   65.39    4.90
   3  -7  -6  150.38    5.50
   3  -7  -6  137.59    6.70
   3  -7  -6   89.09   30.00
  -3   7   6  131.79    6.70
  -3   7   6  146.19   48.80
   2  -7  -6    4.00    1.00
   2  -7  -6   -7.70   13.40
   2  -7  -6    3.10    1.20
  -2   7   6    3.90    1.80
  -2   7   6    3.20   10.20
   1  -7  -6  646.54   23.10
   1  -7  -6  547.35   56.79
   1  -7  -6  596.14   18.60
  -1   7   6  571.84   19.30
  -1   7   6  666.73   59.99
   0  -7  -6   57.29    3.00
   0  -7  -6   58.29   21.20
   0  -7  -6   55.09    3.50
   0   7   6   46.60   18.00
   0   7   6   56.39    3.60
  -1  -7  -6  295.47    9.90
  -1  -7  -6  271.87   35.40
  -1  -7  -6  301.07   10.60
  -1  -7  -6  285.77    9.00
   1   7   6  263.47   32.60
   1   7   6  297.67   10.00
   1   7   6  282.97    8.80
  -2  -7  -6  138.39    4.90
  -2  -7  -6  138.99    5.70
  -2  -7  -6  130.09   27.60
   2   7   6  140.39    5.50
   2   7   6  143.19   23.50
   2   7   6  139.19    7.60
  -3  -7  -6   46.00   15.30
  -3  -7  -6   40.40    2.70
  -3  -7  -6   41.00    2.20
   3   7   6   37.30   14.90
  -4  -7  -6    4.70    1.30
   4   7   6    4.40    9.20
   4   7   6   12.00   11.50
   4   7   6    3.40    3.30
  -5  -7  -6   18.00    1.90
  -5  -7  -6   13.20    1.40
   5   7   6    5.80   14.10
   5   7   6   16.80    4.70
   5   7   6    9.00   11.50
  -6  -7  -6  340.87   12.20
   6   7   6  329.57   15.40
   6   7   6  352.96   48.90
  -7  -7  -6  160.18    6.50
  -7  -7  -6  156.48    7.20
   7   7   6  110.39   33.50
   7   7   6  150.28   10.40
  -8  -7  -6  100.79    5.60
  -8  -7  -6   94.89    4.90
   8   7   6   96.99    8.60
   8   7   6   79.69   29.40
  -9  -7  -6   99.09    5.20
   9   7   6  109.49    8.50
   9   7   6   97.19    7.00
 -10  -7  -6  202.08    8.70
  10   7   6  216.08   13.10
  10   7   6  197.38   10.50
 -11  -7  -6  219.58    9.70
  11   7   6  218.38   11.40
  11   7   6  253.17   12.50
   8  -8  -6    5.80    2.10
  -8   8   6    8.10    3.60
   7  -8  -6  152.88    6.30
   7  -8  -6  150.48    8.20
  -7   8   6  147.89    9.10
   6  -8  -6    0.40    1.00
   6  -8  -6    2.30    1.80
  -6   8   6    0.50    2.40
   5  -8  -6  102.59    6.20
   5  -8  -6  105.69    5.90
  -5   8   6  112.09    7.00
   4  -8  -6  -36.30   23.10
  -4   8   6   26.30   20.40
  -4   8   6   18.30    3.70
   3  -8  -6    0.50    1.10
   3  -8  -6  -12.00   18.20
   3  -8  -6    2.30    0.90
  -3   8   6    9.00    2.70
  -3   8   6    3.10   18.80
   2  -8  -6   27.20    2.70
   2  -8  -6   42.80   23.50
   2  -8  -6   24.70    2.50
  -2   8   6   25.50    3.30
   1  -8  -6    6.00    1.60
   1  -8  -6   10.30   14.60
   1  -8  -6    8.80    1.50
  -1   8   6   26.40   10.90
  -1   8   6    5.60    2.00
   0  -8  -6  568.74   58.19
   0  -8  -6  611.84   19.20
   0  -8  -6  605.14   20.00
   0   8   6  613.04   19.70
   0   8   6  691.23   62.29
  -1  -8  -6  115.39    5.00
  -1  -8  -6  112.79    5.50
  -1  -8  -6  117.79   28.90
   1   8   6  107.09    5.20
   1   8   6  123.09   29.60
  -2  -8  -6  574.24   17.00
  -2  -8  -6  554.84   54.59
   2   8   6  565.24   20.50
   2   8   6  605.74   52.79
   2   8   6  566.24   17.90
  -3  -8  -6   60.29   23.20
  -3  -8  -6   63.59    3.60
  -3  -8  -6   65.59    2.90
   3   8   6   64.79    6.00
   3   8   6   63.99   21.10
   3   8   6   65.59    3.40
  -4  -8  -6  544.85   18.00
  -4  -8  -6  573.24   17.20
   4   8   6  553.84   64.99
   4   8   6  540.85   53.19
   4   8   6  547.15   21.00
  -5  -8  -6  139.09    5.60
  -5  -8  -6  143.09    6.40
   5   8   6  128.39   33.90
   5   8   6  142.29    9.40
  -6  -8  -6    4.20    1.40
  -6  -8  -6    0.90    0.70
   6   8   6    2.40    4.30
   6   8   6   -4.00   12.20
  -7  -8  -6   21.00    2.00
  -7  -8  -6   24.70    2.60
   7   8   6   24.30    5.90
   7   8   6   38.50   22.30
  -8  -8  -6   40.70    3.50
  -8  -8  -6   40.90    3.00
   8   8   6   40.10    6.90
  -9  -8  -6   85.99    5.70
   9   8   6   87.59    6.80
   9   8   6   89.89    8.40
 -10  -8  -6  178.78    8.10
  10   8   6  195.38   11.70
  10   8   6  180.98   10.30
 -11  -8  -6   79.19    5.10
  11   8   6   85.39    7.00
   7  -9  -6   31.40    3.70
  -7   9   6   25.40    5.00
   6  -9  -6  252.27    9.80
   6  -9  -6  259.37   11.40
  -6   9   6  243.28   12.00
   5  -9  -6   17.40    2.80
   5  -9  -6   17.50    2.00
  -5   9   6   14.70    3.60
   4  -9  -6  279.47   11.50
   4  -9  -6  270.27    9.90
  -4   9   6  279.27   12.00
   3  -9  -6   44.50    2.90
   3  -9  -6   -9.10   31.50
   3  -9  -6   38.00    3.50
  -3   9   6   34.30    4.20
  -3   9   6   54.99   30.00
   2  -9  -6   76.29   36.60
   2  -9  -6  112.79    5.10
   2  -9  -6  120.89    6.10
  -2   9   6  114.49    6.40
   1  -9  -6   -6.40   17.00
   1  -9  -6    2.80    1.30
   1  -9  -6    2.10    0.90
  -1   9   6    2.00    2.00
  -1   9   6   21.40   14.50
   0  -9  -6   15.60   16.70
   0  -9  -6   23.20    2.00
   0  -9  -6   19.90    2.40
   0   9   6   23.90    3.70
   0   9   6   20.50   16.80
  -1  -9  -6   79.69   28.00
  -1  -9  -6   98.29    4.70
   1   9   6   97.89    5.20
   1   9   6  103.09   27.90
   1   9   6  103.59    7.00
  -2  -9  -6    1.70    0.50
  -2  -9  -6    0.70    0.70
  -2  -9  -6  -10.50   12.50
   2   9   6    0.40    2.70
   2   9   6    0.50    1.60
   2   9   6  -14.20    9.10
  -3  -9  -6  870.51   27.10
  -3  -9  -6  916.31   25.90
  -3  -9  -6  893.51   72.89
   3   9   6  839.82   69.39
   3   9   6  880.61   30.20
   3   9   6  836.92   26.30
  -4  -9  -6  333.37   10.70
  -4  -9  -6  330.17   11.80
   4   9   6  279.57   44.50
   4   9   6  321.17   15.00
  -5  -9  -6  123.29    6.00
   5   9   6  144.09   33.80
   5   9   6  129.19    9.50
   6   9   6    6.80    4.90
   6   9   6  -19.90   16.30
  -7  -9  -6  191.58    7.50
  -7  -9  -6  192.48    8.50
   7   9   6  178.18   50.49
   7   9   6  178.58   12.30
  -8  -9  -6  141.59    6.20
  -8  -9  -6  137.39    7.20
   8   9   6  130.59   10.80
  -9  -9  -6   25.80    3.10
  -9  -9  -6   27.40    2.60
   9   9   6   44.20    7.90
 -10  -9  -6  160.78    7.60
  10   9   6  161.98   10.00
  10   9   6  176.38   11.50
   6 -10  -6    5.90    1.90
   6 -10  -6    7.10    1.50
  -6  10   6    4.70    3.20
   5 -10  -6   90.39    5.90
   5 -10  -6   89.89    5.20
  -5  10   6   93.69    7.00
   4 -10  -6    7.00    1.70
   4 -10  -6    7.10    2.00
  -4  10   6    6.30    3.00
   3 -10  -6  784.32   25.60
   3 -10  -6  758.02   24.00
  -3  10   6  750.32   25.80
   2 -10  -6  139.29    6.10
   2 -10  -6  142.29    7.10
   2 -10  -6   72.39   28.60
  -2  10   6  135.89    7.40
  -2  10   6  127.69   31.10
   1 -10  -6  117.89    6.30
   1 -10  -6  122.59    5.60
   1 -10  -6   68.99   33.50
  -1  10   6  127.69    6.80
  -1  10   6  203.48   38.50
   0 -10  -6  -18.90   20.60
   0 -10  -6    4.60    1.20
   0  10   6   17.80   15.60
   0  10   6    5.20    2.30
   0  10   6    4.40    3.50
  -1 -10  -6  286.47   10.50
  -1 -10  -6  248.38   48.40
   1  10   6  289.57   14.20
   1  10   6  280.77   13.20
   1  10   6  280.67   44.30
  -2 -10  -6   12.70   21.90
  -2 -10  -6   43.30    3.00
   2  10   6   40.80    3.40
   2  10   6   38.50    5.60
   2  10   6   45.70   19.10
  -3 -10  -6   34.00    2.70
  -3 -10  -6   34.40    1.90
  -3 -10  -6   19.90   17.00
   3  10   6   38.10    6.40
   3  10   6   27.00   16.10
   3  10   6   33.50    3.00
  -4 -10  -6  399.36   14.10
  -4 -10  -6  425.36   12.90
   4  10   6  324.77   47.60
   4  10   6  389.96   17.80
  -5 -10  -6  142.99    5.80
  -5 -10  -6  143.89    6.80
   5  10   6  130.09   34.00
   5  10   6  146.39   10.70
  -6 -10  -6  130.89    6.50
   6  10   6   70.39   38.20
   6  10   6  119.89   10.40
  -7 -10  -6   80.09    4.30
  -7 -10  -6   81.29    5.10
  -8 -10  -6   30.40    2.80
  -8 -10  -6   33.00    3.40
   8  10   6   38.80    7.90
  -9 -10  -6   49.00    4.30
  -9 -10  -6   47.50    3.50
   9  10   6   58.69    7.80
 -10 -10  -6   42.40    3.50
  10  10   6   43.50    5.70
   5 -11  -6   10.40    2.00
   5 -11  -6   13.20    3.20
  -5  11   6   10.30    3.70
   4 -11  -6    7.70    1.80
   4 -11  -6    7.20    2.30
  -4  11   6   10.70    3.60
   3 -11  -6    2.00    1.50
   3 -11  -6    9.10    2.90
  -3  11   6    2.30    2.90
   2 -11  -6  266.47   13.00
   2 -11  -6  287.17   10.70
  -2  11   6  291.87   12.30
   1 -11  -6    3.00    1.00
  -1  11   6    4.10    2.50
  -1  11   6    3.80    3.60
   0 -11  -6  357.16   12.90
   0 -11  -6  316.67   63.99
   0  11   6  357.56   16.00
   0  11   6  372.96   65.19
   0  11   6  371.36   13.80
  -1 -11  -6  129.29    6.10
  -1 -11  -6   83.59   40.60
   1  11   6  126.39    9.00
   1  11   6  129.19    6.70
   1  11   6   96.09   32.30
  -2 -11  -6   23.90    2.40
  -2 -11  -6   17.00   28.20
   2  11   6   28.00    4.00
   2  11   6   -0.60   20.20
   2  11   6   27.20    5.90
  -3 -11  -6   13.30    1.90
  -3 -11  -6   -9.70   23.10
  -3 -11  -6   12.30    1.20
   3  11   6   16.00    2.50
   3  11   6   11.20    4.90
  -4 -11  -6   66.09    4.30
  -4 -11  -6   71.29    3.30
   4  11   6   64.69    7.80
   4  11   6   52.69   30.30
  -5 -11  -6   19.90    1.80
   5  11   6   13.10    8.90
  -6 -11  -6   40.80    2.70
  -6 -11  -6   39.30    3.50
   6  11   6   41.20    7.90
  -7 -11  -6  480.25   15.90
  -7 -11  -6  481.95   17.40
   7  11   6  468.85   22.50
  -8 -11  -6  295.37   12.40
  -8 -11  -6  299.17   11.00
   8  11   6  278.67   16.80
  -9 -11  -6    3.80    1.80
  -9 -11  -6    6.80    1.70
   9  11   6   18.80    5.30
   4 -12  -6    1.00    1.20
   4 -12  -6    2.40    1.70
  -4  12   6    0.40    2.90
   3 -12  -6   37.40    3.20
   3 -12  -6   35.70    3.90
  -3  12   6   39.60    5.30
   2 -12  -6   52.99    3.70
  -2  12   6   51.19    7.00
  -2  12   6   49.60    5.50
   1 -12  -6    0.90    0.90
  -1  12   6   -0.80    4.00
  -1  12   6    0.10    2.40
   0 -12  -6   60.29    4.00
   0  12   6   60.99    5.40
   0  12   6   78.09    7.80
  -1 -12  -6  480.35   16.90
   1  12   6  488.25   20.80
   1  12   6  506.05   17.60
  -2 -12  -6  220.88    9.40
   2  12   6  230.78   13.50
   2  12   6  241.58    9.70
  -3 -12  -6   24.50    2.60
   3  12   6   32.30    3.20
   3  12   6   29.00    6.90
  -4 -12  -6    4.10    1.40
  -4 -12  -6    4.40    1.10
   4  12   6    6.60    4.90
  -5 -12  -6   10.70    2.40
  -5 -12  -6   14.10    1.70
   5  12   6   14.90    6.20
  -6 -12  -6   12.10    1.60
  -6 -12  -6   16.90    3.00
   6  12   6   13.70    5.80
  -7 -12  -6    1.70    0.80
  -7 -12  -6    2.00    1.50
   7  12   6    8.90    5.80
  -8 -12  -6    3.20    1.20
  -8 -12  -6    3.50    1.70
   8  12   6   15.60    5.40
   3 -13  -6   55.39    4.00
  -3  13   6   52.89    6.10
  -3  13   6   49.80    7.50
   2 -13  -6   24.40    2.70
  -2  13   6   24.50    4.80
  -2  13   6   21.20    6.00
   1 -13  -6   15.80    2.70
  -1  13   6   10.90    3.40
  -1  13   6   13.50    5.10
   0 -13  -6    3.50    1.40
   0  13   6    6.80    3.20
   0  13   6    7.90    5.00
  -1 -13  -6    7.50    1.90
   1  13   6    2.20    4.50
   1  13   6    6.10    2.50
  -2 -13  -6    0.20    0.90
   2  13   6   -0.40    4.60
  -3 -13  -6   38.90    3.50
   3  13   6   34.60    7.60
   3  13   6   54.39    3.80
  -4 -13  -6  317.37   12.50
   4  13   6  302.87   17.40
  -5 -13  -6  360.16   13.80
   5  13   6  329.57   18.90
  -6 -13  -6   67.79    5.10
  -6 -13  -6   82.89    4.20
   6  13   6   79.79   10.30
  -7 -13  -6    2.90    1.60
  -7 -13  -6    0.50    1.00
   7  13   6    3.30    5.30
   1 -14  -6  270.77   11.40
  -1  14   6  301.87   13.10
  -1  14   6  274.57   15.80
   0 -14  -6   63.59    4.60
   0  14   6   78.19    6.10
   0  14   6   78.99    9.70
  -1 -14  -6    2.70    1.40
   1  14   6    1.00    5.00
   1  14   6   11.60    3.40
  -2 -14  -6   39.10    3.60
   2  14   6   43.90    8.70
  -3 -14  -6   53.39    4.10
   3  14   6   52.29    9.70
  -4 -14  -6   14.70    2.70
   4  14   6   12.10    6.70
  -5 -14  -6   52.79    6.50
   5  14   6   53.19   17.70
   2  13  -7  315.37   12.50
   2  13  -7  321.87   14.70
  -1 -13   7   17.40    2.10
  -1 -13   7   11.60    2.30
  -1  13  -7  255.57   11.10
   1 -13   7  245.28   10.40
   1 -13   7  231.38    8.90
  -2  13  -7  600.54   22.00
  -2  13  -7  668.13   22.80
   2 -13   7  545.95   20.60
  -3  13  -7  146.59    8.30
   3 -13   7  128.19    7.10
   4 -13   7    6.30    2.10
   4  12  -7  377.16   16.10
  -4 -12   7  311.87   12.60
  -3 -12   7   39.40    3.30
  -3 -12   7   29.70    4.00
   2  12  -7   56.79    6.40
   2  12  -7   41.60    3.00
   1  12  -7   34.80    3.40
   1  12  -7   55.39    7.10
   0  12  -7   17.10    3.20
   0 -12   7    9.80    2.00
   0 -12   7   14.00    1.90
  -1  12  -7  107.69    6.70
   1 -12   7  104.09    5.00
   1 -12   7   99.99    5.60
   2 -12   7   17.10    2.20
  -3  12  -7   79.89    5.90
   3 -12   7   76.99    5.00
   3 -12   7   87.29    4.10
  -4  12  -7   67.19    5.60
   4 -12   7   70.69    4.90
  -5  12  -7  404.06   16.90
   5 -12   7  405.46   15.50
  -6  12  -7  132.29    8.60
   6 -12   7  121.49    7.50
   5  11  -7  408.26   17.10
  -5 -11   7  338.37   12.60
  -5 -11   7  347.67   13.50
   3  11  -7   47.20    6.20
   3  11  -7   45.00    2.80
   2  11  -7  196.08   11.40
   2  11  -7  183.78    8.30
  -2 -11   7  191.68    8.00
  -2 -11   7  189.88    7.90
   1  11  -7  320.97   97.29
   1  11  -7  545.75   21.40
   1  11  -7  527.85   18.70
  -1 -11   7  550.54   17.70
  -1 -11   7  547.25   18.10
  -1 -11   7  544.95  110.09
   0  11  -7  140.69   64.89
   0  11  -7  294.77   11.70
   0 -11   7  115.39   77.39
   0 -11   7  296.17   11.00
  -1  11  -7  281.77   12.00
  -1  11  -7  315.47   13.80
   1 -11   7  282.37   11.00
   1 -11   7  152.28   74.19
   1 -11   7  279.17   10.20
  -2  11  -7  159.28   52.09
  -2  11  -7  260.37   12.10
  -2  11  -7  235.88   10.80
   2 -11   7  181.78   75.49
   2 -11   7  236.18    9.80
   2 -11   7  245.38    8.90
  -3  11  -7    2.80   43.90
  -3  11  -7   78.69    5.70
   3 -11   7   73.09    4.60
   3 -11   7   71.49   57.89
   3 -11   7   75.89    4.90
  -4  11  -7    4.60    2.30
   4 -11   7    4.30    1.40
   4 -11   7    2.80    1.50
  -5  11  -7   36.60    4.60
   5 -11   7   41.40    3.50
   5 -11   7   37.00    2.90
  -6  11  -7  281.87   13.20
   6 -11   7  285.17   11.90
  -7  11  -7   83.09    6.70
   7 -11   7   78.89    5.50
   6  10  -7  176.88   10.10
  -6 -10   7  155.18    7.70
   5  10  -7  339.47   13.40
   5  10  -7  292.67   14.20
  -5 -10   7  284.17   11.50
  -5 -10   7  284.27   10.50
   4  10  -7  308.57   10.70
   4  10  -7  281.17   13.80
  -4 -10   7  281.37   10.30
  -4 -10   7  277.27   11.00
   3  10  -7  -40.20   38.50
  -3 -10   7    2.70    1.10
  -3 -10   7    2.30    1.40
   2  10  -7   45.30   36.40
   2  10  -7   15.10    4.30
   2  10  -7   17.40    2.40
  -2 -10   7   13.30    2.30
  -2 -10   7  -24.00   43.10
  -2 -10   7   12.60    2.10
   1  10  -7   87.29    7.50
   1  10  -7   81.89    5.00
   1  10  -7  130.89   46.30
  -1 -10   7   82.99    4.60
  -1 -10   7   82.99    4.50
  -1 -10   7   71.49   48.50
   0  10  -7  305.07   12.30
   0  10  -7  237.68   63.69
   0 -10   7  292.87   78.49
   0 -10   7  325.77   11.20
   0 -10   7  325.07   11.50
  -1  10  -7   15.50    7.50
   1 -10   7  -57.59   30.10
   1 -10   7    4.80    1.40
   1 -10   7   -0.10    0.80
  -2  10  -7  199.38   10.00
  -2  10  -7  136.49   47.20
  -2  10  -7  180.68    8.90
   2 -10   7  109.09   55.79
   2 -10   7  185.18    7.90
  -3  10  -7   71.79   46.70
  -3  10  -7  175.88    8.90
  -3  10  -7  209.78    9.70
   3 -10   7   51.49   74.99
   3 -10   7  183.28    7.10
   3 -10   7  181.48    8.00
  -4  10  -7   62.69    5.30
  -4  10  -7   93.79   45.80
  -4  10  -7   87.09    6.20
   4 -10   7   62.49    3.60
   4 -10   7   73.19    4.50
   4 -10   7   29.00   46.90
  -5  10  -7  101.49    6.80
  -5  10  -7  140.19   50.49
   5 -10   7  100.19    5.80
   5 -10   7   21.40   51.19
   5 -10   7  114.69    5.00
  -6  10  -7   91.79    6.60
   6 -10   7   94.79    5.20
   6 -10   7   89.09    5.50
  -7  10  -7   14.60    3.80
   7 -10   7    8.60    2.20
  -8  10  -7   58.89    5.70
   8 -10   7   51.49    4.30
  -7  -9   7   23.50    3.00
   6   9  -7   31.50    4.60
  -6  -9   7   23.40    2.90
   5   9  -7   10.20    3.20
  -5  -9   7   10.80    2.60
  -5  -9   7    9.00    2.20
   4   9  -7  143.09    8.90
   4   9  -7  111.69   49.50
   4   9  -7  131.99    6.10
  -4  -9   7  137.39    6.20
  -4  -9   7  139.39    6.60
   3   9  -7  237.28   66.59
   3   9  -7  310.77   14.00
   3   9  -7  296.87   11.30
  -3  -9   7  308.77   11.40
  -3  -9   7  317.47   11.40
  -3  -9   7  338.57   78.29
   2   9  -7  373.16   80.79
   2   9  -7  409.26   16.80
   2   9  -7  402.36   14.50
  -2  -9   7  400.96   83.79
  -2  -9   7  429.76   14.20
   1   9  -7  308.37   71.49
   1   9  -7  355.36   15.20
   1   9  -7  350.56   13.20
  -1  -9   7  377.36   12.60
  -1  -9   7  366.06   12.40
  -1  -9   7  379.86   82.79
   0   9  -7  229.18   59.49
   0   9  -7  292.57   11.60
   0  -9   7  322.87   76.59
   0  -9   7  309.07   10.70
   0  -9   7  296.77   10.60
  -1   9  -7   31.00   29.20
  -1   9  -7   51.79    5.70
  -1   9  -7   51.09    4.20
   1  -9   7   14.30   31.10
   1  -9   7   52.99    3.30
  -2   9  -7   51.09    5.30
  -2   9  -7   47.20    4.10
  -2   9  -7   48.40   26.90
   2  -9   7   -9.20   31.20
   2  -9   7   51.19    3.30
  -3   9  -7  328.07   63.09
  -3   9  -7  298.27   12.60
  -3   9  -7  311.07   12.50
   3  -9   7  276.37   62.09
   3  -9   7  330.27   10.90
   3  -9   7  313.97   11.60
  -4   9  -7  497.35   19.00
  -4   9  -7  531.05   18.00
  -4   9  -7  528.65   90.29
   4  -9   7  528.95   99.39
   4  -9   7  537.45   16.80
   4  -9   7  537.15   18.00
  -5   9  -7   79.59    6.00
  -5   9  -7  133.29   43.20
   5  -9   7   36.20   43.50
   5  -9   7   91.09    4.50
   5  -9   7   97.49    5.30
  -6   9  -7    4.40    2.40
   6  -9   7    3.50    1.50
   6  -9   7    1.80    1.10
  -7   9  -7    3.70    2.10
   7  -9   7    5.90    1.90
   7  -9   7    3.60    1.50
  -8   9  -7    9.20    2.70
   8  -9   7   -0.50    1.60
   8  -9   7    1.70    1.20
  -9   9  -7   14.90    3.60
   9  -9   7    7.70    2.00
   8   8  -7  248.38   12.90
  -8  -8   7  206.38   10.30
   7   8  -7  443.86   18.40
  -7  -8   7  420.86   15.70
   6   8  -7  171.78   10.20
   6   8  -7  200.58    7.20
  -6  -8   7  178.18    8.20
   5   8  -7    3.30    2.00
   5   8  -7  -67.39   43.20
   5   8  -7   50.09   26.20
  -5  -8   7    1.40    1.50
   4   8  -7   35.80   36.50
   4   8  -7   47.50    5.20
   4   8  -7   48.30    3.30
  -4  -8   7   47.20    3.50
  -4  -8   7   49.60    2.80
   3   8  -7  443.56   18.10
   3   8  -7  471.85   72.09
   3   8  -7  452.55   15.90
  -3  -8   7  482.65   15.00
  -3  -8   7  491.55   16.00
  -3  -8   7  507.35   83.29
   2   8  -7  452.85   76.09
   2   8  -7  457.65   18.00
   2   8  -7  463.55   16.20
  -2  -8   7  489.75   15.90
  -2  -8   7  487.85   15.30
  -2  -8   7  564.44   84.49
   1   8  -7    7.40   25.00
   1   8  -7    3.90    2.60
  -1  -8   7    1.50    0.80
  -1  -8   7    2.00    1.20
  -1  -8   7   -5.00   18.40
   0   8  -7  182.08   47.30
   0   8  -7  265.27   10.40
   0  -8   7  263.97   10.20
   0  -8   7  276.87    9.50
  -1   8  -7    5.70    3.00
  -1   8  -7    6.10   17.80
  -1   8  -7    4.50    1.70
   1  -8   7    7.00    1.50
   1  -8   7    4.40    1.50
   1  -8   7    1.60   17.00
  -2   8  -7   55.99   29.00
  -2   8  -7   83.99    5.30
  -2   8  -7   99.09    6.00
   2  -8   7   85.39    5.90
   2  -8   7   88.59    4.50
  -3   8  -7  276.37   11.50
  -3   8  -7  323.27   52.09
  -3   8  -7  276.57   11.00
   3  -8   7  175.58   54.69
   3  -8   7  301.67   10.70
  -4   8  -7    7.20   19.80
  -4   8  -7    2.80    2.00
   4  -8   7    2.60    1.30
  -5   8  -7   46.10   38.30
  -5   8  -7   13.80    2.90
   5  -8   7   12.30    2.10
   5  -8   7   14.20    2.10
  -6   8  -7  320.47   13.80
  -6   8  -7  322.07   62.89
   6  -8   7  354.36   11.90
   6  -8   7  342.07   12.90
  -7   8  -7  819.62   33.00
   7  -8   7  783.72   24.30
   7  -8   7  737.63   26.80
  -8   8  -7  143.99    8.60
   8  -8   7  155.88    6.70
   8  -8   7  148.49    7.60
  -9   8  -7    4.30    2.00
   9  -8   7    4.40    1.50
 -10   8  -7   80.09    5.70
  10  -8   7   58.89    5.00
   8   7  -7   55.69    5.40
  -8  -7   7   38.40    3.60
   7   7  -7   61.79    5.40
  -7  -7   7   54.49    4.10
   6   7  -7   28.80   43.10
   6   7  -7  -15.40   62.19
   6   7  -7   48.40    2.90
   6   7  -7   38.70    4.60
  -6  -7   7   35.80    3.20
   5   7  -7   52.39    5.10
   5   7  -7   47.40    3.20
   5   7  -7   28.60   46.30
   5   7  -7   29.60   30.10
  -5  -7   7   59.19    3.90
   4   7  -7  379.56   70.69
   4   7  -7  440.56   15.30
   4   7  -7  447.96   17.70
   4   7  -7  522.05   85.89
  -4  -7   7  464.15   14.30
  -4  -7   7  477.25   15.60
   3   7  -7  764.72   26.90
   3   7  -7  767.72   24.90
   3   7  -7  809.22   97.29
  -3  -7   7  812.72   24.80
  -3  -7   7  815.12   23.80
   2   7  -7   57.69    3.70
   2   7  -7   24.60   30.90
  -2  -7   7    2.50   22.10
  -2  -7   7   59.19    3.60
  -2  -7   7   59.59    2.90
   1   7  -7    1.40    1.00
   1   7  -7  -26.50   16.50
   1   7  -7   -0.20    1.80
  -1  -7   7    2.70    0.80
  -1  -7   7    2.30    1.60
   0   7  -7  473.45   16.50
   0   7  -7  393.76   64.19
   0  -7   7  494.85   15.70
   0  -7   7  496.15   15.40
  -1   7  -7 1279.87   40.10
  -1   7  -7 1354.86   40.20
  -1   7  -7 1143.79  108.89
   1  -7   7 1352.26   38.90
   1  -7   7 1349.36   38.90
  -2   7  -7  263.97   10.70
  -2   7  -7  189.38   51.89
  -2   7  -7  262.57   10.40
   2  -7   7  281.17    9.80
   2  -7   7  272.27   84.49
   2  -7   7  280.77    9.60
  -3   7  -7  127.89   42.40
  -3   7  -7  106.39    5.40
  -3   7  -7  106.19    6.00
   3  -7   7  110.99    4.90
   3  -7   7   54.39   29.60
  -4   7  -7  260.17   50.39
  -4   7  -7  249.38   10.70
   4  -7   7  259.37    9.80
   4  -7   7  324.97   57.49
  -5   7  -7   30.90    3.60
  -5   7  -7   54.49   27.90
   5  -7   7   16.50   27.80
   5  -7   7   34.40    2.90
  -6   7  -7   62.59    5.00
  -6   7  -7   29.30   25.90
   6  -7   7   55.99   30.20
   6  -7   7   60.79    4.10
   6  -7   7   56.29    3.30
  -7   7  -7   91.19    6.30
  -7   7  -7   99.29    5.10
  -7   7  -7   75.19   40.70
   7  -7   7  103.39    5.70
   7  -7   7   34.40   37.40
  -8   7  -7  311.67   11.40
   8  -7   7  298.77   12.20
  -9   7  -7    2.80    1.20
  -9   7  -7    4.50    2.30
   9  -7   7    5.40    1.70
 -10   7  -7  219.18   10.90
 -10   7  -7  227.28    9.20
  10  -7   7  208.38   10.00
   8   6  -7    1.90    1.90
  -8  -6   7    0.60    1.20
   7   6  -7    5.80    1.80
  -7  -6   7    5.40    1.60
   6   6  -7  370.46   71.69
   6   6  -7  399.56   97.29
   6   6  -7  536.35   20.30
   6   6  -7  541.45   17.30
  -6  -6   7  554.84   18.10
   5   6  -7  717.13   25.20
   5   6  -7  769.92  114.49
   5   6  -7  575.34  136.69
   5   6  -7  711.33   22.60
  -5  -6   7  723.93   23.00
   4   6  -7   75.59    4.20
   4   6  -7   75.89   35.40
   4   6  -7   93.99   46.20
   4   6  -7   74.29    5.60
  -4  -6   7   80.69    4.40
   3   6  -7    5.00    2.50
   3   6  -7   13.20   23.50
   3   6  -7    4.20    1.30
  -3  -6   7    5.60    1.60
  -3  -6   7    6.90    1.00
   2   6  -7   90.19   35.90
   2   6  -7   77.19    5.40
   2   6  -7   86.69    4.50
  -2  -6   7   86.49    3.60
  -2  -6   7   87.29    5.00
   1   6  -7   71.49    4.20
   1   6  -7   82.39   32.40
   1   6  -7   71.19    5.00
  -1  -6   7   91.09   35.10
  -1  -6   7   79.69    4.10
  -1  -6   7   79.69    3.40
   0   6  -7  407.56   64.39
   0   6  -7  491.35   16.60
   0  -6   7  507.15   66.99
   0  -6   7  505.05   15.90
   0  -6   7  510.15   15.50
  -1   6  -7   86.29   33.00
  -1   6  -7   80.59    5.00
  -1   6  -7   89.39    5.00
   1  -6   7   95.69    4.40
   1  -6   7   96.09    4.10
   1  -6   7  112.89   36.10
  -2   6  -7  561.04   18.70
  -2   6  -7  540.65   17.90
  -2   6  -7  466.45   63.39
   2  -6   7  551.64   67.39
   2  -6   7  566.74   17.60
   2  -6   7  583.74   17.60
  -3   6  -7  146.99   39.60
  -3   6  -7  239.48    9.80
   3  -6   7  241.48   44.10
   3  -6   7  252.57    8.80
   3  -6   7  243.58    8.90
  -4   6  -7 1072.19   34.00
  -4   6  -7  954.70   94.99
   4  -6   7 1050.29   95.79
   4  -6   7 1131.59   34.30
   4  -6   7 1125.99   32.60
  -5   6  -7  122.19    6.60
  -5   6  -7   72.59   30.00
   5  -6   7  118.49   39.70
   5  -6   7  129.39    6.00
   5  -6   7  134.09    5.70
  -6   6  -7   18.10    3.40
  -6   6  -7   -0.80   18.90
  -6   6  -7   21.70    2.10
   6  -6   7   23.90    2.50
   6  -6   7   20.70   24.40
  -7   6  -7  331.47   12.60
  -7   6  -7  314.17   12.90
  -7   6  -7  304.77   59.89
   7  -6   7  222.98   56.79
   7  -6   7  328.47   12.40
  -8   6  -7   18.10    3.70
  -8   6  -7   20.60    2.10
   8  -6   7   15.40    2.90
  -9   6  -7   40.90    7.80
  -9   6  -7   42.50    3.20
   9  -6   7   39.50    3.70
 -10   6  -7   62.09    5.10
 -10   6  -7   57.19    4.00
  10  -6   7   59.79    4.70
 -11   6  -7  396.16   14.40
 -11   6  -7  408.36   16.30
  11  -6   7  382.16   15.50
   9   5  -7   35.30    4.40
  -9  -5   7   31.10    3.30
   8   5  -7   92.19    6.70
  -8  -5   7   87.19    4.90
  -8  -5   7   81.49    5.20
   7   5  -7  440.36   18.00
  -7  -5   7  452.95   15.90
  -7  -5   7  447.36   15.10
   6   5  -7  624.14  107.79
   6   5  -7  558.44   81.09
   6   5  -7  557.14   21.00
  -6  -5   7  573.24   19.00
  -6  -5   7  565.34   18.40
   5   5  -7  -11.10   25.30
   5   5  -7    3.90    1.30
   5   5  -7  -40.00   27.10
   5   5  -7    3.30    1.90
  -5  -5   7    3.60    1.40
   4   5  -7   58.29    3.50
   4   5  -7   62.39   31.50
   4   5  -7  -22.00   32.60
   4   5  -7   55.39    4.60
  -4  -5   7   56.99    3.60
   3   5  -7  772.22   84.89
   3   5  -7  634.54   20.60
   3   5  -7  615.94   21.90
  -3  -5   7  663.33   20.50
   2   5  -7  807.02   25.50
   2   5  -7  847.62   88.09
   2   5  -7  782.42   26.40
  -2  -5   7  830.22   24.00
  -2  -5   7  862.91   91.09
  -2  -5   7  841.02   25.20
   1   5  -7   52.89    3.40
   1   5  -7   38.30   20.60
   1   5  -7   53.09    4.00
  -1  -5   7   56.59    3.30
  -1  -5   7   80.99   32.60
  -1  -5   7   52.09    2.40
   0   5  -7  662.63   21.30
   0   5  -7  634.94   70.99
   0  -5   7  641.04   72.49
   0  -5   7  681.33   20.70
   0  -5   7  681.23   20.10
  -1   5  -7 1431.36  109.39
  -1   5  -7 1598.84   46.60
  -1   5  -7 1548.25   46.00
   1  -5   7 1580.54   45.40
   1  -5   7 1684.53  115.69
   1  -5   7 1553.94   45.70
  -2   5  -7    4.60    1.70
  -2   5  -7    8.40   13.50
  -2   5  -7    3.30    1.40
   2  -5   7   24.30   18.60
   2  -5   7    4.10    1.10
   2  -5   7    7.60    1.60
  -3   5  -7  147.59    6.80
  -3   5  -7  119.59   34.20
   3  -5   7  145.89    6.00
   3  -5   7  158.08   39.00
   3  -5   7  155.18    6.10
  -4   5  -7  242.88   44.90
  -4   5  -7  244.48   10.30
   4  -5   7  331.77   48.30
   4  -5   7  271.27    9.80
   4  -5   7  275.57    9.50
  -5   5  -7  963.10   32.50
  -5   5  -7  966.40   96.19
  -5   5  -7 1031.60   30.60
   5  -5   7 1073.19   92.99
  -6   5  -7   12.10    2.70
  -6   5  -7   18.40    1.90
  -6   5  -7   33.60   23.40
   6  -5   7    5.10   18.50
   6  -5   7   18.50    2.90
  -7   5  -7   63.59   28.40
  -7   5  -7  102.09    6.10
   7  -5   7  108.29    5.70
   7  -5   7  104.49   36.10
  -8   5  -7   13.90    1.90
  -8   5  -7   16.80    3.30
   8  -5   7   15.40    2.80
  -9   5  -7   16.70    2.00
  -9   5  -7   18.60    3.40
 -10   5  -7  112.89    7.00
 -10   5  -7  108.89    5.60
  10  -5   7   98.79    6.20
 -11   5  -7    3.60    1.30
  11  -5   7    2.60    1.80
   9   4  -7  330.17   15.30
  -9  -4   7  331.37   13.80
  -9  -4   7  347.17   13.30
   8   4  -7  197.48   10.60
  -8  -4   7  195.88    8.30
  -8  -4   7  205.78    8.90
   7   4  -7   39.30   65.59
  -7  -4   7   92.49    5.00
  -7  -4   7   86.79    5.60
   6   4  -7  789.82  115.79
   6   4  -7  704.33   88.89
   6   4  -7  756.62   26.70
  -6  -4   7  762.72   24.00
  -6  -4   7  792.82   24.50
   5   4  -7  194.98   50.49
   5   4  -7  258.87    9.60
   5   4  -7  240.08   11.00
   5   4  -7  350.46   77.79
  -5  -4   7  266.07    9.70
   4   4  -7  202.68    7.80
   4   4  -7  222.78   62.09
   4   4  -7  170.48   46.20
   4   4  -7  183.68    8.90
  -4  -4   7  202.48    7.80
   3   4  -7  129.19   47.30
   3   4  -7  168.18    8.00
   3   4  -7  230.88   44.30
   3   4  -7  180.88    7.20
  -3  -4   7  183.78    7.20
   2   4  -7  448.96   15.20
   2   4  -7  513.05   65.29
   2   4  -7  421.06   15.70
  -2  -4   7  505.75   65.59
  -2  -4   7  476.25   14.90
   1   4  -7  700.73   72.39
   1   4  -7  639.44   21.00
   1   4  -7  642.64   20.80
  -1  -4   7  659.93   20.20
  -1  -4   7  748.23   77.09
  -1  -4   7  635.74   19.10
   0   4  -7   24.60    2.30
   0   4  -7   32.80   20.40
   0  -4   7   24.40    1.50
   0  -4   7   25.80    2.20
   0  -4   7   13.00   14.30
  -1   4  -7  160.68    6.40
  -1   4  -7  172.18    7.00
  -1   4  -7  195.08   42.90
   1  -4   7  194.58   36.30
   1  -4   7  174.98    6.50
   1  -4   7  171.98    6.00
  -2   4  -7   14.90   13.60
  -2   4  -7    6.60    1.80
  -2   4  -7    9.70    1.20
   2  -4   7    7.30    1.60
   2  -4   7    9.80    1.50
   2  -4   7   11.90    1.80
   2  -4   7    9.50   12.00
  -3   4  -7  511.25   17.40
  -3   4  -7  497.85   58.69
   3  -4   7  514.65   16.60
   3  -4   7  551.84   57.79
   3  -4   7  550.74   16.70
  -4   4  -7  693.83   22.70
  -4   4  -7  727.93   22.10
  -4   4  -7  677.03   71.29
   4  -4   7  753.52   70.59
   4  -4   7  700.33   22.10
  -5   4  -7   -0.20    1.20
  -5   4  -7   -9.80   11.10
  -5   4  -7    3.50    1.00
   5  -4   7    0.70   10.10
   5  -4   7    1.00    1.20
  -6   4  -7  279.67   43.80
  -6   4  -7  272.37    9.60
  -6   4  -7  251.87   11.40
   6  -4   7  271.27   10.30
   6  -4   7  264.67   47.30
  -7   4  -7   54.59    3.60
  -7   4  -7   61.09    4.40
  -7   4  -7   58.19   36.30
   7  -4   7   16.70   22.70
   7  -4   7   61.49    4.20
  -8   4  -7  562.44   19.10
  -8   4  -7  407.16   70.69
  -8   4  -7  552.34   17.70
   8  -4   7  487.45   72.99
   8  -4   7  546.45   18.80
  -9   4  -7  124.89    6.90
  -9   4  -7  118.29    5.70
   9  -4   7  122.49    6.70
 -10   4  -7    4.90    2.00
 -10   4  -7    5.70    1.50
  10  -4   7    4.60    2.10
 -11   4  -7   11.20    2.20
  11  -4   7    6.20    2.40
   9   3  -7  121.49    8.20
  -9  -3   7  124.09    6.50
  -9  -3   7  117.69    6.30
   8   3  -7   13.60    3.20
  -8  -3   7   14.20    2.60
  -8  -3   7   17.00    2.30
   7   3  -7  -31.70   54.19
   7   3  -7    1.60    1.80
  -7  -3   7    5.10    1.60
  -7  -3   7    3.70    1.50
   6   3  -7   59.49    4.80
   6   3  -7  122.29   38.70
   6   3  -7   10.90   24.80
  -6  -3   7   60.59    3.80
   5   3  -7   40.10   27.30
   5   3  -7   19.10   24.60
   5   3  -7   25.00    2.40
   5   3  -7   23.80    3.10
  -5  -3   7   27.50    2.60
   4   3  -7    0.40   17.80
   4   3  -7    1.70   16.20
   3   3  -7  716.83   23.30
   3   3  -7  733.03   24.30
   3   3  -7  859.11   83.59
   3   3  -7  760.62   94.29
  -3  -3   7  762.42   23.10
   2   3  -7 1249.88   38.30
   2   3  -7 1289.27   37.80
   2   3  -7 1243.98   99.19
   1   3  -7   -3.10   13.20
   1   3  -7    1.50    1.10
  -1  -3   7   13.50   15.90
  -1  -3   7    4.40    1.40
   0   3  -7  193.78   34.30
   0   3  -7  184.58    7.40
   0  -3   7  190.28    6.90
   0  -3   7  203.38   38.30
   0  -3   7  187.38    6.10
  -1   3  -7  282.97    9.60
  -1   3  -7  289.07   10.40
  -1   3  -7  314.77   44.40
   1  -3   7  294.07   41.20
   1  -3   7  290.97    9.90
   1  -3   7  301.97    9.30
  -2   3  -7  697.93   63.19
  -2   3  -7  762.22   24.00
   2  -3   7  772.52   23.20
   2  -3   7  874.01   68.49
   2  -3   7  789.72   23.50
  -3   3  -7  117.39    5.10
  -3   3  -7  117.59    5.40
  -3   3  -7   76.09   23.60
   3  -3   7  162.88   35.50
   3  -3   7  122.79    5.00
  -4   3  -7   84.19    3.90
  -4   3  -7   42.10   19.70
  -4   3  -7   73.39    4.30
   4  -3   7   77.19    4.00
   4  -3   7  132.09   34.00
  -5   3  -7  120.99    5.00
  -5   3  -7   73.19   24.10
  -5   3  -7  118.99    5.70
   5  -3   7  109.89    5.40
   5  -3   7  103.89   28.40
  -6   3  -7   -6.70   13.70
   6  -3   7    5.50   14.40
  -7   3  -7  288.57   10.20
  -7   3  -7  290.67   11.10
  -7   3  -7  240.88   54.99
   7  -3   7  279.87   11.00
   7  -3   7  272.67   53.39
  -8   3  -7   11.20    2.50
  -8   3  -7    5.20   13.60
  -8   3  -7    9.70    1.80
   8  -3   7   -7.70   16.90
   8  -3   7   10.10    2.30
  -9   3  -7  234.78    9.00
  -9   3  -7  226.38    9.90
   9  -3   7  228.48   10.00
 -10   3  -7   20.90    2.30
 -10   3  -7   27.80    3.20
  10  -3   7   21.30    3.50
 -11   3  -7   44.60    3.50
  11  -3   7   50.19    4.60
 -12   3  -7   53.09    4.10
  12  -3   7   63.29    4.90
   9   2  -7  516.25   20.80
  -9  -2   7  504.05   18.10
  -9  -2   7  549.05   18.40
   8   2  -7  297.97   14.10
  -8  -2   7  326.97   12.10
   7   2  -7   35.20    4.10
   7   2  -7   24.30   41.80
  -7  -2   7   41.90    3.30
   6   2  -7   74.29    5.40
   6   2  -7   32.20   29.70
   6   2  -7   93.89   48.90
  -6  -2   7   71.69    4.50
  -6  -2   7   71.49    4.10
   5   2  -7  176.28    8.60
   5   2  -7  142.89   51.59
   5   2  -7  166.48   45.60
  -5  -2   7  170.08    7.20
  -5  -2   7  174.88    7.10
   4   2  -7  181.48    8.50
   4   2  -7  173.68    7.20
   4   2  -7  156.98   39.90
   4   2  -7  207.88   56.59
  -4  -2   7  180.18    7.00
   3   2  -7   12.80    1.70
   3   2  -7   40.80   17.40
   3   2  -7   20.10   20.40
   3   2  -7    9.80    2.20
  -3  -2   7   15.30    1.90
   2   2  -7  276.77   53.29
   2   2  -7  265.67   10.20
   2   2  -7  271.87    9.70
   2   2  -7  255.57   43.00
  -2  -2   7  273.07    9.30
   1   2  -7   62.99    3.50
   1   2  -7   67.69    3.70
   1   2  -7   57.59   22.00
  -1  -2   7   69.09    3.40
  -1  -2   7   76.59   25.50
   0   2  -7  473.95   16.00
   0  -2   7  501.75   15.50
   0  -2   7  563.24   64.29
  -1   2  -7  701.13   20.90
  -1   2  -7  703.13   21.60
  -1   2  -7  608.14   54.49
   1  -2   7  691.13   20.40
   1  -2   7  712.23   21.10
   1  -2   7  717.03   61.99
  -2   2  -7   24.50    2.10
  -2   2  -7   25.90   15.20
   2  -2   7   27.20    2.10
   2  -2   7   25.40    1.80
   2  -2   7   19.30   18.40
  -3   2  -7  286.57    9.70
  -3   2  -7  271.67    9.90
  -3   2  -7  275.07   37.00
   3  -2   7  296.67   36.20
   3  -2   7  278.47    9.60
  -4   2  -7   22.10   13.50
  -4   2  -7   28.10    2.40
  -4   2  -7   27.90    2.00
   4  -2   7   27.10   13.90
   4  -2   7   28.50    2.50
  -5   2  -7  172.28    7.10
  -5   2  -7  134.09   33.00
  -5   2  -7  169.78    6.50
   5  -2   7  177.48   32.10
   5  -2   7  175.68    7.20
  -6   2  -7  168.78   41.90
  -6   2  -7  145.99    6.50
  -6   2  -7  143.49    5.90
   6  -2   7  169.88   40.60
   6  -2   7  141.49    6.60
  -7   2  -7  163.08    7.20
  -7   2  -7  122.89   38.10
  -7   2  -7  163.48    6.60
   7  -2   7  167.08    7.50
   7  -2   7  169.78   43.40
  -8   2  -7   54.39    3.90
  -8   2  -7   51.89    3.20
  -8   2  -7   38.00   24.30
   8  -2   7   34.20   24.00
   8  -2   7   50.19    4.00
  -9   2  -7   11.00    1.90
  -9   2  -7   11.30    2.40
   9  -2   7    7.00    2.20
 -10   2  -7   16.00    2.00
  10  -2   7   11.90    2.70
 -11   2  -7   49.10    3.70
  11  -2   7   47.90    4.50
 -12   2  -7   19.90    3.30
  12  -2   7   24.30    3.40
   9   1  -7    3.30    1.80
  -9  -1   7   -0.20    2.10
  -9  -1   7    2.60    1.50
   8   1  -7   71.59    5.80
  -8  -1   7   81.59    5.30
  -8  -1   7   74.39    5.50
   7   1  -7    1.90    1.60
   7   1  -7  -49.70   34.90
  -7  -1   7    0.50    1.10
  -7  -1   7    1.00    1.70
   6   1  -7  221.08   10.60
   6   1  -7  234.48   71.99
   6   1  -7  250.37   56.79
  -6  -1   7  230.08    9.10
  -6  -1   7  227.28    8.80
   5   1  -7  368.96   58.69
   5   1  -7  499.35   72.49
   5   1  -7  395.36   15.50
  -5  -1   7  417.76   13.70
  -5  -1   7  403.66   13.90
   4   1  -7  123.89    6.60
   4   1  -7  125.49    5.70
   4   1  -7  109.39   31.00
   4   1  -7  112.19   43.40
  -4  -1   7  125.99    5.40
   3   1  -7   12.60    1.90
   3   1  -7    7.20   11.50
   3   1  -7   10.20    1.50
   3   1  -7   10.50   17.10
  -3  -1   7   12.70    1.80
   2   1  -7   20.50    2.00
   2   1  -7   21.30   15.60
   2   1  -7   25.00    2.40
   2   1  -7   20.30   19.50
  -2  -1   7   24.00    2.10
   1   1  -7  215.98   33.50
   1   1  -7  195.48    7.70
   1   1  -7  203.08   38.40
   1   1  -7  194.78    7.50
  -1  -1   7  202.88    7.10
   0   1  -7  384.46   13.10
   0   1  -7  340.67   39.80
   0   1  -7  380.36   12.70
   0  -1   7  380.66   12.10
   0  -1   7  377.16   44.50
  -1   1  -7  613.84   49.80
  -1   1  -7  627.34   20.10
  -1   1  -7  702.03   21.30
  -1   1  -7  699.03   20.50
   1  -1   7  713.63   20.80
   1  -1   7  701.03   20.10
   1  -1   7  710.53   55.09
  -2   1  -7   92.29   21.10
  -2   1  -7   85.79    3.20
  -2   1  -7   88.89    4.20
  -2   1  -7   91.39    4.00
   2  -1   7   92.29   20.50
   2  -1   7   78.69    3.40
   2  -1   7   94.59    3.80
  -3   1  -7   58.09    2.90
  -3   1  -7   17.70   16.60
  -3   1  -7   56.69    3.10
   3  -1   7   56.59    3.10
   3  -1   7   47.70   16.50
  -4   1  -7  129.79    5.20
  -4   1  -7  133.79    5.60
  -4   1  -7  137.69   31.00
   4  -1   7  135.19    5.70
   4  -1   7  137.09   23.60
  -5   1  -7  206.18   34.10
  -5   1  -7  221.38    8.00
  -5   1  -7  229.48    8.50
   5  -1   7  250.37   34.80
   5  -1   7  225.18    8.70
  -6   1  -7  252.07   41.20
  -6   1  -7  245.28    9.10
   6  -1   7  233.08    9.40
   6  -1   7  262.67   39.80
  -7   1  -7  473.35   64.39
  -7   1  -7  472.05   15.40
  -7   1  -7  446.56   14.90
   7  -1   7  446.66   16.10
   7  -1   7  449.06   56.59
  -8   1  -7   11.00   18.80
  -8   1  -7    1.20    0.90
   8  -1   7    3.60    1.80
  -9   1  -7   75.49    4.20
   9  -1   7   76.69    5.30
 -10   1  -7   42.60    3.20
 -10   1  -7   40.30    3.30
  10  -1   7   38.50    4.10
 -11   1  -7    1.10    1.00
  11  -1   7   -0.30    1.40
 -12   1  -7   46.00    3.80
  12  -1   7   49.30    4.60
   9   0  -7   22.00    3.50
  -9   0   7   32.90    6.30
  -9   0   7   25.20    2.70
   8   0  -7   14.40    3.20
  -8   0   7   15.00    2.60
  -8   0   7    9.70    2.60
   7   0  -7   87.69    6.10
   7   0  -7   90.09   42.30
  -7   0   7   88.29    4.80
  -7   0   7   93.89    5.50
   6   0  -7   20.90   37.00
   6   0  -7   77.09    5.50
  -6   0   7   78.29    4.10
  -6   0   7   78.99    4.80
   5   0  -7   68.49   27.60
   5   0  -7   66.99   33.00
   5   0  -7  108.89    6.30
  -5   0   7  122.49    5.80
   4   0  -7  113.79   31.70
   4   0  -7  178.58   49.10
   4   0  -7  174.98    8.10
  -4   0   7  175.98    7.30
  -4   0   7  183.38    6.80
   3   0  -7   68.99   25.70
   3   0  -7   30.70   20.40
   3   0  -7   54.39    3.30
   3   0  -7   53.69    3.70
  -3   0   7   52.39    3.00
   2   0  -7  206.68    8.00
   2   0  -7  204.08   34.00
   2   0  -7  206.28   39.50
   2   0  -7  217.38    8.60
  -2   0   7  220.88    7.60
   1   0  -7  491.95   54.79
   1   0  -7  511.55   16.90
   1   0  -7  542.35   49.70
   1   0  -7  544.45   17.30
  -1   0   7  550.54   16.40
   0   0  -7  249.48    9.00
   0   0  -7  258.57    8.90
   0   0  -7  237.28   35.30
   0   0  -7  251.07   29.80
   0   0   7  250.77    8.50
  -1   0  -7  594.44   41.90
  -1   0  -7  573.04   18.00
   1   0   7  558.14   43.50
   1   0   7  512.85   16.80
   1   0   7  604.94   17.50
   1   0   7  603.54   17.10
  -2   0  -7   12.60    6.60
  -2   0  -7   13.70    1.50
  -2   0  -7   11.50    0.90
  -2   0  -7   13.10    1.30
   2   0   7   16.60    1.60
   2   0   7   18.00    8.50
   2   0   7   13.60    1.10
  -3   0  -7  194.48    7.20
  -3   0  -7  190.28   23.80
  -3   0  -7  196.08    7.00
   3   0   7  197.28   23.80
   3   0   7  200.08    7.20
  -4   0  -7    8.30    1.40
  -4   0  -7    6.20    1.20
  -4   0  -7   12.20    9.50
   4   0   7    6.90    1.80
   4   0   7    6.30    6.40
  -5   0  -7  138.49   33.00
  -5   0  -7  105.09    4.70
  -5   0  -7  109.19    4.60
   5   0   7  100.19    5.20
   5   0   7  133.09   29.10
  -6   0  -7  110.89    4.90
  -6   0  -7  128.09   34.70
   6   0   7  112.99    5.80
   6   0   7  137.69   32.00
  -7   0  -7  133.39    5.40
  -7   0  -7  103.09    4.90
  -7   0  -7   88.09   29.70
   7   0   7  128.99   34.00
  -8   0  -7  331.07   11.70
  -8   0  -7  301.17   55.99
  -8   0  -7  349.77   11.80
   8   0   7  322.67   51.99
   8   0   7  318.17   11.20
   8   0   7  344.77   12.90
  -9   0  -7    3.30    1.30
  -9   0  -7    2.50    1.20
   9   0   7    1.20    1.70
   9   0   7    4.10    1.10
 -10   0  -7  118.29    5.50
 -10   0  -7  109.89    5.60
  10   0   7   99.29    6.40
  10   0   7  109.49    5.10
  11   0   7    3.10    2.30
 -12   0  -7   76.19    4.80
  12   0   7   62.59    5.40
   9  -1  -7   -0.10    1.90
  -9   1   7   -0.50    2.10
  -9   1   7    0.80    1.10
   8  -1  -7  247.48   11.90
  -8   1   7  254.27    9.80
  -8   1   7  249.18   10.70
   7  -1  -7  179.78   56.49
   7  -1  -7  186.98    9.50
  -7   1   7  190.18    7.70
  -7   1   7  184.98    8.50
   6  -1  -7   62.69    4.90
   6  -1  -7   85.39   43.20
  -6   1   7   61.29    4.40
  -6   1   7   64.29    3.60
   5  -1  -7   45.20    3.90
   5  -1  -7   12.60   27.00
  -5   1   7   48.50    3.00
  -5   1   7   45.60    3.60
   4  -1  -7   33.50   12.90
   3  -1  -7  140.89    6.70
   3  -1  -7   98.09   32.50
  -3   1   7  143.29    5.50
  -3   1   7  142.99    6.20
   2  -1  -7    1.10    0.70
   2  -1  -7   -2.00    8.00
   2  -1  -7    2.00   10.20
   2  -1  -7   -0.10    0.70
  -2   1   7    1.10    0.90
   1  -1  -7  338.37   11.60
   1  -1  -7  316.67   42.10
   1  -1  -7  372.86   37.50
   1  -1  -7  354.66   12.00
  -1   1   7  335.17   10.90
   0  -1  -7  608.54   43.10
   0  -1  -7  544.95   17.70
   0  -1  -7  549.05   46.60
   0  -1  -7  564.64   17.70
   0   1   7  560.54   17.10
  -1  -1  -7  449.76   36.00
  -1  -1  -7  424.36   29.80
  -1  -1  -7  444.06   14.40
   1   1   7  469.45   14.00
   1   1   7  443.66   13.70
  -2  -1  -7 1459.15   43.20
  -2  -1  -7 1485.25   61.29
  -2  -1  -7 1474.95   42.80
  -2  -1  -7 1488.75   43.60
   2   1   7 1503.45   63.29
   2   1   7 1536.45   43.20
  -3  -1  -7   41.60   11.60
  -3  -1  -7   47.10    2.10
  -3  -1  -7   48.10    2.50
   3   1   7   59.09   13.10
   3   1   7   49.50    3.00
   3   1   7   45.90    2.10
  -4  -1  -7  883.11   25.90
  -4  -1  -7  826.02   57.29
   4   1   7  912.31   53.79
   4   1   7  915.11   26.60
   4   1   7  870.11   26.00
   4   1   7  804.22   25.00
  -5  -1  -7    8.90    9.90
  -5  -1  -7    8.70    0.50
   5   1   7   16.00    9.70
   5   1   7   12.20    1.00
   5   1   7   16.70    2.60
  -6  -1  -7   53.09   20.50
  -6  -1  -7   81.59    3.90
  -6  -1  -7   83.09    3.80
   6   1   7   96.19   26.90
   6   1   7   78.79    4.40
   6   1   7   84.59    5.00
  -7  -1  -7    2.30    1.10
  -7  -1  -7  -13.00   11.50
  -7  -1  -7    1.20    0.80
   7   1   7  -10.50   10.70
   7   1   7    0.30    1.70
  -8  -1  -7   28.50    2.20
  -8  -1  -7   26.00    2.30
  -8  -1  -7   23.00   19.70
   8   1   7   23.70   18.20
   8   1   7   26.70    2.40
   8   1   7   26.50    3.30
  -9  -1  -7  296.77   11.10
  -9  -1  -7  313.37   10.70
   9   1   7  299.47   11.10
   9   1   7  304.97   12.40
 -10  -1  -7   16.00    1.40
  10   1   7   10.00    2.90
  10   1   7   17.80    1.60
 -11  -1  -7  279.27   11.40
  11   1   7  286.67   12.60
  11   1   7  319.17   12.40
 -12  -1  -7    7.70    1.90
  12   1   7   10.20    3.10
   9  -2  -7    5.60    2.00
  -9   2   7    5.70    1.60
  -9   2   7    5.70    2.80
   8  -2  -7    0.50    1.60
  -8   2   7    1.20    1.10
  -8   2   7    2.40    2.30
   7  -2  -7  251.27   11.60
  -7   2   7  261.07    9.60
  -7   2   7  259.07   10.70
   6  -2  -7  281.67   12.10
   6  -2  -7  242.08   57.79
  -6   2   7  285.17   11.10
  -6   2   7  215.48   62.49
  -6   2   7  288.87   10.00
   5  -2  -7  235.38   10.20
   5  -2  -7  148.19   43.70
  -5   2   7  240.18    9.30
  -5   2   7  139.99   43.70
  -5   2   7  229.98    8.20
   4  -2  -7  324.67   52.39
   4  -2  -7  354.66   14.70
  -4   2   7  350.06   11.50
  -4   2   7  382.26   62.19
  -4   2   7  352.16   12.50
   3  -2  -7   49.50    3.60
   3  -2  -7    9.20   17.80
  -3   2   7   50.19    2.70
  -3   2   7   31.20   20.40
  -3   2   7   51.89    3.60
   2  -2  -7  425.26   49.50
   2  -2  -7  380.46   13.60
  -2   2   7  401.36   13.20
  -2   2   7  352.36   48.70
  -2   2   7  393.46   12.30
   1  -2  -7   91.89   22.10
   1  -2  -7   92.99    4.30
   1  -2  -7   95.29    4.60
  -1   2   7   90.69    3.80
   0  -2  -7   25.30    9.80
   0  -2  -7   14.40    1.50
   0  -2  -7   16.50    1.00
   0  -2  -7    7.20    7.30
   0  -2  -7   11.80    1.30
   0   2   7   13.50    1.60
   0   2   7   12.00    0.80
  -1  -2  -7  380.46   11.20
  -1  -2  -7  360.66   20.00
  -1  -2  -7  356.06   12.40
  -1  -2  -7  355.26   12.00
  -1  -2  -7  377.96   21.40
  -2  -2  -7  118.79    4.60
  -2  -2  -7  119.49    4.40
  -2  -2  -7  114.19    4.80
  -3  -2  -7 1570.64   46.30
  -3  -2  -7 1599.24   46.10
  -3  -2  -7 1625.94   46.10
  -3  -2  -7 1476.45   62.49
  -3  -2  -7 1550.54   45.70
   3   2   7 1750.42   59.19
   3   2   7 1592.44   46.60
  -4  -2  -7  414.76   38.10
  -4  -2  -7  446.06   14.10
   4   2   7  453.75   14.90
   4   2   7  442.56   14.60
   4   2   7  471.75   32.90
  -5  -2  -7 1042.70   30.50
  -5  -2  -7 1050.09   30.30
  -5  -2  -7  989.80   73.09
   5   2   7 1033.90   31.60
   5   2   7  990.70   31.30
   5   2   7 1022.90   63.59
  -6  -2  -7   -5.20    9.30
  -6  -2  -7    4.70    1.00
  -6  -2  -7    4.70    1.20
   6   2   7    4.20    2.50
   6   2   7    4.60    2.20
   6   2   7    2.60    9.30
  -7  -2  -7   64.09   30.30
  -7  -2  -7   74.79    3.60
   7   2   7   70.39    4.70
   7   2   7   49.40   29.60
  -8  -2  -7   97.99    4.90
   8   2   7  101.49    5.50
   8   2   7   97.49   32.10
   8   2   7  101.09    6.00
  -9  -2  -7   94.29    4.90
   9   2   7   83.29    5.90
   9   2   7   92.79    5.30
 -10  -2  -7   49.40    3.60
  10   2   7   46.00    4.50
 -11  -2  -7   61.29    4.30
  11   2   7   57.39    5.40
  11   2   7   81.19    4.40
 -12  -2  -7  478.45   17.10
  12   2   7  471.95   18.40
   9  -3  -7   52.49    4.90
  -9   3   7   65.09    5.70
  -9   3   7   50.49    5.30
   8  -3  -7    6.40    2.20
  -8   3   7    6.60    1.60
  -8   3   7    2.70    2.50
   7  -3  -7   16.10    3.30
  -7   3   7   21.50    2.10
  -7   3   7   17.70    3.40
   6  -3  -7  171.78    8.70
   6  -3  -7  108.49   44.00
  -6   3   7  173.68    6.60
  -6   3   7  106.59   49.40
  -6   3   7  175.28    8.10
   5  -3  -7  102.09    6.00
   5  -3  -7   97.79   39.00
  -5   3   7   85.59   32.00
  -5   3   7  101.89    4.40
  -5   3   7  100.69    5.60
   4  -3  -7  454.55   61.19
   4  -3  -7  417.76   15.40
  -4   3   7  406.56   14.40
  -4   3   7  418.86   13.20
  -4   3   7  445.06   61.59
   3  -3  -7  607.54   65.69
   3  -3  -7  598.64   20.10
  -3   3   7  612.94   18.10
  -3   3   7  581.24   64.99
  -3   3   7  586.04   19.20
   2  -3  -7  712.53   65.99
   2  -3  -7  644.24   21.70
  -2   3   7  660.53   20.00
  -2   3   7  690.13   21.20
  -2   3   7  709.23   64.69
   1  -3  -7 1125.09   31.70
   1  -3  -7 1117.39   70.69
   1  -3  -7 1079.59   33.40
  -1   3   7 1124.39   74.29
  -1   3   7 1130.39   33.00
  -1   3   7 1065.89   32.00
   0  -3  -7   47.50    2.70
   0  -3  -7   42.80   12.40
   0  -3  -7   44.40    2.00
   0  -3  -7   48.00    2.90
   0   3   7   48.30    2.40
  -1  -3  -7   10.10    1.20
  -1  -3  -7   11.30    1.30
   1   3   7    7.90    1.20
  -2  -3  -7  143.39    5.10
  -2  -3  -7  132.69    5.30
  -2  -3  -7  137.39    5.10
  -2  -3  -7  135.69    5.20
  -3  -3  -7   30.90    1.90
  -3  -3  -7   30.10    2.00
  -4  -3  -7  451.95   14.70
  -4  -3  -7  473.05   15.10
  -4  -3  -7  479.05   14.90
   4   3   7  472.05   35.00
   4   3   7  513.25   32.40
   4   3   7  472.85   16.80
  -5  -3  -7  712.63   21.80
  -5  -3  -7  731.43   22.20
   5   3   7  753.82   51.79
   5   3   7  723.53   23.80
   5   3   7  740.83   23.40
  -6  -3  -7  903.61   84.09
  -6  -3  -7 1034.50   30.90
   6   3   7 1051.79   33.00
   6   3   7 1039.30   71.49
   6   3   7 1063.29   32.30
  -7  -3  -7   10.30   12.80
  -7  -3  -7    8.50    1.60
   7   3   7   -0.80    8.70
   7   3   7   10.60    3.10
   7   3   7    8.80    2.40
  -8  -3  -7  270.07    9.90
   8   3   7  268.97   11.20
   8   3   7  267.07   11.40
  -9  -3  -7    1.20    1.00
   9   3   7    0.90    2.10
   9   3   7    4.70    2.00
 -10  -3  -7   24.40    2.60
  10   3   7   31.30    4.80
 -11  -3  -7   26.80    2.90
  11   3   7   30.20    4.80
   9  -4  -7   73.59    5.60
  -9   4   7   58.99    3.60
  -9   4   7   48.30    5.50
   8  -4  -7  164.98    9.00
  -8   4   7  159.98    8.80
  -8   4   7  157.98    6.60
  -7   4   7   57.59    5.20
  -7   4   7   60.49    3.30
   6  -4  -7   24.50   34.30
   6  -4  -7    3.50    1.90
  -6   4   7    0.70    2.20
  -6   4   7  -11.80   23.50
  -6   4   7    3.50    1.00
   5  -4  -7   37.00    3.60
   5  -4  -7   -2.70   21.40
   5  -4  -7   41.00    2.00
  -5   4   7   37.90    3.80
  -5   4   7   25.40   22.40
  -5   4   7   38.20    2.40
   4  -4  -7   97.09    5.70
   4  -4  -7  100.19    3.70
   4  -4  -7   39.00   23.30
  -4   4   7  100.29    5.40
  -4   4   7  100.09    4.00
  -4   4   7  124.99   37.80
   3  -4  -7   83.99   27.90
   3  -4  -7   99.39    5.50
  -3   4   7  101.19    5.30
  -3   4   7  113.69   33.60
  -3   4   7  103.49    4.00
   2  -4  -7  464.95   51.69
   2  -4  -7  461.75   16.00
   2  -4  -7  472.35   14.00
  -2   4   7  454.75   15.40
  -2   4   7  532.95   54.99
  -2   4   7  458.35   14.10
   1  -4  -7  596.94   49.30
   1  -4  -7  587.24   17.20
   1  -4  -7  575.04   18.80
  -1   4   7  599.54   50.09
  -1   4   7  550.04   17.20
  -1   4   7  586.64   18.40
   0  -4  -7  597.44   19.50
   0  -4  -7  650.33   42.50
   0   4   7  610.14   19.20
   0   4   7  631.94   43.50
   0   4   7  628.44   18.40
  -1  -4  -7  207.08    7.60
  -1  -4  -7  205.58    6.90
  -1  -4  -7  200.08    6.90
  -1  -4  -7  191.98   13.60
   1   4   7  205.68    7.40
  -2  -4  -7  486.05   15.30
  -2  -4  -7  474.15   14.90
  -2  -4  -7  494.05   15.20
  -3  -4  -7    1.70    0.70
  -3  -4  -7    1.40    0.60
  -3  -4  -7    0.60    0.40
   3   4   7    2.60    2.00
  -4  -4  -7   33.90    2.30
  -4  -4  -7   34.60    1.90
  -4  -4  -7   34.50    2.10
   4   4   7   30.60    3.80
   4   4   7   46.50   11.80
   4   4   7   49.30   12.10
  -5  -4  -7  580.64   18.40
  -5  -4  -7  584.34   18.00
   5   4   7  591.84   20.20
   5   4   7  559.04   44.70
   5   4   7  549.45   48.40
  -6  -4  -7    9.20    1.50
   6   4   7   13.30    4.20
   6   4   7   12.00    3.00
   6   4   7   15.80   12.60
   6   4   7   17.90   13.60
  -7  -4  -7   22.80    2.10
   7   4   7   17.90   13.50
   7   4   7   29.50   19.10
   7   4   7   24.00    3.20
   7   4   7   32.30    5.30
  -8  -4  -7  237.38    9.10
   8   4   7  238.58   10.60
   8   4   7  246.78   11.50
   8   4   7  243.68   46.20
  -9  -4  -7  903.51   28.10
   9   4   7  840.82   92.59
   9   4   7  917.21   29.90
 -10  -4  -7  201.58   10.40
  10   4   7  175.48    9.50
  10   4   7  196.78    9.70
 -11  -4  -7   36.30    3.30
  11   4   7   32.40    4.50
 -12  -4  -7    1.80    1.30
  12   4   7    5.10    2.60
   8  -5  -7   78.89    6.00
  -8   5   7   75.29    6.30
  -8   5   7   71.89    3.80
   7  -5  -7  230.68   10.90
   7  -5  -7  218.78    7.70
  -7   5   7  233.38   10.80
  -7   5   7  226.88    8.20
   6  -5  -7   86.79    5.70
   6  -5  -7   84.19    3.50
  -6   5   7   81.89    5.70
  -6   5   7   84.89    3.70
   5  -5  -7   39.40   36.20
   5  -5  -7   83.09    5.50
   5  -5  -7   94.69    3.80
  -5   5   7   86.19   36.30
  -5   5   7   90.59    5.70
  -5   5   7   93.39    3.80
   4  -5  -7  187.38    8.60
   4  -5  -7  111.89   34.80
   4  -5  -7  185.98    6.40
  -4   5   7  216.38   40.00
  -4   5   7  188.88    8.20
  -4   5   7  184.18    6.30
   3  -5  -7    3.30    1.40
   3  -5  -7    4.70    0.80
   3  -5  -7    1.90   16.80
  -3   5   7    5.10    0.90
  -3   5   7    3.10   11.20
  -3   5   7    4.80    1.90
   2  -5  -7  260.27    8.30
   2  -5  -7  249.68   10.00
   2  -5  -7  208.78   36.90
  -2   5   7  257.57    9.60
  -2   5   7  268.87   39.60
  -2   5   7  252.37    8.00
   1  -5  -7  542.45   49.99
   1  -5  -7  546.75   17.80
  -1   5   7  529.85   15.90
  -1   5   7  556.44   49.70
  -1   5   7  525.65   17.20
   0  -5  -7  212.88    8.20
   0  -5  -7  212.58    7.20
   0  -5  -7  194.68   24.70
   0   5   7  211.38    6.90
   0   5   7  203.78    7.80
   0   5   7  234.28   25.60
  -1  -5  -7  254.87    8.50
  -1  -5  -7  253.57    9.20
  -1  -5  -7  247.48   21.90
  -1  -5  -7  252.37    8.30
   1   5   7  248.38    8.80
   1   5   7  284.67   22.20
  -2  -5  -7  746.73   22.60
  -2  -5  -7  736.23   23.10
   2   5   7  771.92   22.60
  -3  -5  -7 1604.24   46.90
  -3  -5  -7 1482.65   45.00
   3   5   7 1493.55   46.20
   3   5   7 1639.04   58.79
   3   5   7 1565.14   59.59
   3   5   7 1516.45   46.50
  -4  -5  -7  126.69    5.30
  -4  -5  -7  120.89    4.90
   4   5   7  122.69    6.90
   4   5   7  120.09   17.60
   4   5   7  116.99   17.60
   4   5   7  125.69    4.50
  -5  -5  -7   26.80    2.00
  -5  -5  -7   28.60    2.20
   5   5   7   26.80   14.50
   5   5   7   24.90   11.00
   5   5   7   27.00    4.70
  -6  -5  -7   37.00    2.80
  -6  -5  -7   33.90    2.40
   6   5   7   33.80    5.30
   6   5   7   35.20   17.40
   6   5   7   28.30   14.40
  -7  -5  -7   10.10    1.50
   7   5   7   25.30   12.60
   7   5   7   10.10    2.80
   7   5   7   13.60    4.10
   7   5   7   -1.20   11.00
  -8  -5  -7   39.30    2.90
   8   5   7   44.60   23.60
   8   5   7   37.40    4.20
  -9  -5  -7    4.00    1.30
   9   5   7    6.10    2.90
   9   5   7   -6.40   18.30
   9   5   7    6.30    2.80
 -10  -5  -7   71.19    4.50
  10   5   7   93.49    6.70
 -11  -5  -7   65.69    4.30
  11   5   7   68.49    6.00
 -12  -5  -7  217.08    9.60
  12   5   7  212.88   11.00
   8  -6  -7  191.18    9.90
  -8   6   7  174.48   10.00
   7  -6  -7   77.99    3.50
   7  -6  -7   62.59    5.30
  -7   6   7   70.59    6.10
   6  -6  -7   67.89    3.20
   6  -6  -7   64.99    5.10
  -6   6   7   65.79    2.90
   5  -6  -7   45.60    4.10
   5  -6  -7   41.90    2.40
   5  -6  -7   -2.00   29.20
  -5   6   7   44.10    2.20
  -5   6   7   45.90    4.30
  -5   6   7   29.80   29.00
   4  -6  -7   77.09   35.40
   4  -6  -7  101.79    6.00
   4  -6  -7  100.79    4.10
  -4   6   7  102.59    5.90
  -4   6   7  101.39    3.70
  -4   6   7  120.59   39.20
   3  -6  -7  188.38    8.60
   3  -6  -7  165.98   38.40
   3  -6  -7  197.88    6.90
  -3   6   7  260.97   45.20
  -3   6   7  193.38    8.30
   2  -6  -7    1.00   10.30
   2  -6  -7    1.00    1.00
  -2   6   7  -10.80   12.30
  -2   6   7    0.60    1.50
   1  -6  -7   -1.00    9.80
  -1   6   7   -6.40    8.10
   0  -6  -7   45.00    3.10
   0  -6  -7   48.30    2.50
   0  -6  -7   34.80   14.60
   0   6   7   37.60   15.10
   0   6   7   43.80    2.00
   0   6   7   40.00    3.10
  -1  -6  -7  236.18    7.90
  -1  -6  -7  244.88    9.00
  -1  -6  -7  234.08   26.00
  -1  -6  -7  240.48    8.30
   1   6   7  259.27   25.50
   1   6   7  234.48    8.50
  -2  -6  -7  418.46   13.90
  -2  -6  -7  411.96   13.40
  -2  -6  -7  397.26   29.90
   2   6   7  406.36   13.20
   2   6   7  452.25   29.70
  -3  -6  -7    2.10    0.60
  -3  -6  -7    2.50    0.80
   3   6   7    2.00    2.50
   3   6   7   10.60    4.90
   3   6   7    4.00    5.90
   3   6   7    2.80    1.10
  -4  -6  -7    4.20    1.00
  -4  -6  -7    3.50    1.10
   4   6   7    3.00    8.00
   4   6   7    7.20    3.40
   4   6   7    6.70    8.90
  -5  -6  -7  398.86   13.00
   5   6   7  396.56   41.70
   5   6   7  421.36   16.30
   5   6   7  346.97   39.50
  -6  -6  -7  714.43   22.40
  -6  -6  -7  697.63   21.60
   6   6   7  675.73   25.00
   6   6   7  675.83   64.09
   6   6   7  706.43   63.49
  -7  -6  -7  517.35   16.90
  -7  -6  -7  522.65   17.70
   7   6   7  559.84   65.49
   7   6   7  510.05   20.80
  -8  -6  -7  197.08    7.90
   8   6   7  202.68    9.80
   8   6   7  178.38   47.50
   8   6   7  193.78   11.30
  -9  -6  -7   11.00    1.90
   9   6   7   12.00    4.00
   9   6   7    6.70    2.70
 -10  -6  -7   30.20    2.90
  10   6   7   31.30    4.50
  10   6   7   39.20    5.20
 -11  -6  -7   29.50    2.90
  11   6   7   30.90    4.80
  -8   7   7    3.60    3.10
   7  -7  -7    3.10    2.40
   7  -7  -7    3.40    1.00
  -7   7   7    4.00    2.90
   6  -7  -7   68.79    3.40
   6  -7  -7   69.49    5.20
  -6   7   7   63.99    5.70
   5  -7  -7  157.38    8.20
   5  -7  -7  163.18    6.20
  -5   7   7  157.38    8.30
   4  -7  -7  369.86   12.90
   4  -7  -7  414.06   15.40
  -4   7   7  426.36   15.30
  -4   7   7  489.45   79.79
   3  -7  -7    5.90    1.70
   3  -7  -7  -18.70   19.20
  -3   7   7    3.00    2.00
  -3   7   7   19.10   16.70
   2  -7  -7    0.10   12.70
   2  -7  -7   17.40    2.30
   2  -7  -7   17.50    1.50
  -2   7   7   15.60    2.80
  -2   7   7   34.70   14.90
   1  -7  -7  162.78    7.20
   1  -7  -7  160.18    6.00
   1  -7  -7  117.49   28.90
  -1   7   7  142.69   32.80
   0  -7  -7  871.01   64.29
   0  -7  -7  927.51   31.30
   0  -7  -7  887.21   26.70
   0   7   7  924.31   65.09
   0   7   7  854.21   27.20
  -1  -7  -7  942.11   27.90
  -1  -7  -7  914.31   28.60
  -1  -7  -7  916.91   61.19
   1   7   7  938.41   26.90
   1   7   7  902.41   28.00
   1   7   7  955.00   60.19
  -2  -7  -7  180.28   24.60
  -2  -7  -7  195.18    7.70
  -2  -7  -7  193.68    7.20
  -2  -7  -7  187.68    6.60
   2   7   7  188.98    7.10
   2   7   7  191.78    9.10
   2   7   7  179.68   23.20
  -3  -7  -7   56.29    3.20
  -3  -7  -7   56.79    2.70
   3   7   7   51.29    5.20
   3   7   7   52.79    3.00
   3   7   7   65.49   17.00
  -4  -7  -7   90.99    4.50
   4   7   7  100.59   22.90
   4   7   7   86.69    3.70
   4   7   7   87.09    6.80
   4   7   7   77.59   35.20
  -5  -7  -7   27.00    2.00
  -5  -7  -7   30.00    2.50
   5   7   7   30.80   12.80
   5   7   7   34.50    7.50
   5   7   7   23.70   15.50
  -6  -7  -7    9.00    2.00
  -6  -7  -7    5.70    1.30
   6   7   7    6.40    4.00
   6   7   7    1.80   11.70
  -7  -7  -7   73.79    3.90
  -7  -7  -7   73.49    4.50
   7   7   7   32.50   20.60
   7   7   7   67.89    7.70
  -8  -7  -7   98.59    5.50
  -8  -7  -7   96.19    4.80
   8   7   7   66.49   28.40
   8   7   7   91.89    8.60
  -9  -7  -7  103.99    5.40
   9   7   7  108.89    8.70
   9   7   7  108.89    9.20
 -10  -7  -7  299.57   11.70
  10   7   7  306.37   15.10
  10   7   7  321.67   14.10
 -11  -7  -7   53.09    4.00
  11   7   7   58.29    6.00
   7  -8  -7   13.50    3.00
   7  -8  -7   13.60    1.80
  -7   8   7   14.90    4.00
   6  -8  -7  140.99    7.90
   6  -8  -7  136.19    5.70
  -6   8   7  141.09    8.40
   5  -8  -7  151.18    8.90
  -5   8   7  155.48    8.50
   4  -8  -7   -6.10   31.40
   3  -8  -7  -37.70   24.10
   2  -8  -7   50.39   25.90
   2  -8  -7   53.29    3.00
   2  -8  -7   49.99    3.80
  -2   8   7   52.39    4.20
  -2   8   7   57.39   21.00
   1  -8  -7   48.90    3.60
   1  -8  -7   26.40   19.30
  -1   8   7   52.99    4.00
  -1   8   7   12.90   14.90
   0  -8  -7   71.89   22.80
   0  -8  -7   62.89    4.70
   0  -8  -7   62.49    4.10
   0   8   7   68.09   21.00
   0   8   7   59.59    4.00
  -1  -8  -7   50.19   19.00
  -1  -8  -7   62.29    3.90
   1   8   7   59.89    3.80
   1   8   7   45.00   18.40
  -2  -8  -7   12.70    1.10
  -2  -8  -7   15.80    1.70
  -2  -8  -7   13.00   12.50
   2   8   7   14.80    3.70
   2   8   7    7.50   10.30
   2   8   7   14.30    2.20
  -3  -8  -7  578.04   17.50
  -3  -8  -7  601.74   61.49
  -3  -8  -7  556.54   18.40
   3   8   7  575.54   21.10
   3   8   7  570.74   17.70
  -4  -8  -7  790.22   23.30
  -4  -8  -7  760.32   24.20
   4   8   7  770.82   67.79
   4   8   7  764.82   27.00
  -5  -8  -7  222.98    8.80
   5   8   7  216.28   11.80
   5   8   7  221.08   51.99
  -6  -8  -7  230.78    8.40
  -6  -8  -7  238.38    9.40
   6   8   7  223.78   12.70
   6   8   7  168.88   36.90
  -7  -8  -7   61.39    3.50
  -7  -8  -7   54.69    4.00
   7   8   7   61.79    7.60
   7   8   7   78.29   24.70
  -8  -8  -7   14.70    1.90
  -8  -8  -7   19.50    2.50
   8   8   7   27.00    6.10
  -9  -8  -7   40.10    3.60
   9   8   7   38.90    5.10
   9   8   7   41.40    6.90
 -10  -8  -7  341.57   13.10
  10   8   7  356.76   15.70
  10   8   7  369.76   17.30
 -11  -8  -7  528.45   20.00
  11   8   7  678.23   24.60
  11   8   7  574.64   22.70
   6  -9  -7  111.39    6.90
  -6   9   7  103.89    7.60
   5  -9  -7   15.40    2.70
  -5   9   7   17.00    3.80
   4  -9  -7    1.80    2.50
   4  -9  -7    0.70    0.90
  -4   9   7   -1.10    2.20
   3  -9  -7  489.95   17.60
   3  -9  -7  495.55   15.80
   3  -9  -7  379.06   71.99
  -3   9   7  476.45   17.50
   2  -9  -7  525.45   18.40
   2  -9  -7  440.36   62.29
   2  -9  -7  527.65   16.90
  -2   9   7  522.25   18.30
  -2   9   7  552.14   66.29
   1  -9  -7  176.48    7.10
   1  -9  -7  182.48    8.20
   1  -9  -7  130.99   37.60
  -1   9   7  184.68    8.20
  -1   9   7  220.38   38.10
   0  -9  -7  220.78   43.60
   0  -9  -7  256.97    9.40
   0  -9  -7  253.77   10.40
   0   9   7  260.17   10.10
   0   9   7  278.57   42.60
  -1  -9  -7  374.96   12.80
  -1  -9  -7  381.66   49.10
   1   9   7  386.76   15.40
   1   9   7  338.67   43.80
   1   9   7  363.76   13.00
  -2  -9  -7    8.50    1.60
  -2  -9  -7   10.00    0.90
   2   9   7    5.80    1.90
   2   9   7   14.70    4.10
  -3  -9  -7    2.40    0.70
  -3  -9  -7    0.70    0.80
  -3  -9  -7  -17.30   13.10
   3   9   7    1.20    3.20
   3   9   7    1.40    1.50
   3   9   7   -9.70   10.10
  -4  -9  -7  193.78    8.10
  -4  -9  -7  213.78    7.30
   4   9   7  178.08   33.70
   4   9   7  188.18   11.20
  -5  -9  -7  491.75   16.80
   5   9   7  484.65   20.40
   5   9   7  493.75   54.39
  -6  -9  -7    1.40    0.80
  -6  -9  -7    3.00    1.40
   6   9   7    3.60    4.60
   6   9   7   -1.10   16.70
  -7  -9  -7  205.08    8.00
  -7  -9  -7  210.98    9.10
   7   9   7  196.88   12.80
   7   9   7  258.07   69.49
  -8  -9  -7   23.50    2.30
  -8  -9  -7   26.80    3.00
   8   9   7   37.60    7.50
  -9  -9  -7   11.00    2.10
  -9  -9  -7   14.40    2.90
   9   9   7   10.00    5.10
 -10  -9  -7  166.08    7.80
  10   9   7  178.98   10.40
  10   9   7  192.18   12.00
   6 -10  -7  139.59    7.90
  -6  10   7  126.49    8.90
   5 -10  -7   73.39    5.50
  -5  10   7   60.19    6.20
   4 -10  -7   93.89    5.90
   4 -10  -7   93.59    4.80
  -4  10   7   99.09    7.00
   3 -10  -7   30.00    2.70
   3 -10  -7   37.80    3.50
  -3  10   7   37.70    5.00
   2 -10  -7  131.69    7.00
   2 -10  -7  131.29    5.90
  -2  10   7  128.79    7.50
   1 -10  -7  117.59   39.40
   1 -10  -7  197.68    9.00
   1 -10  -7  201.38    7.90
  -1  10   7  204.98    9.10
  -1  10   7  159.08   39.70
   0 -10  -7  133.29    6.00
   0 -10  -7   66.79   32.90
   0 -10  -7  134.69    6.80
   0  10   7  107.69   32.10
   0  10   7  141.99    7.00
  -1 -10  -7  347.67   12.20
   1  10   7  332.67   15.00
   1  10   7  374.16   55.19
   1  10   7  340.37   12.50
  -2 -10  -7   48.30   27.10
  -2 -10  -7   72.19    4.10
   2  10   7   66.09   23.30
   2  10   7   66.49    4.30
   2  10   7   76.49    7.00
  -3 -10  -7  376.26   11.50
  -3 -10  -7  322.17   47.50
  -3 -10  -7  353.66   12.90
   3  10   7  351.76   12.30
   3  10   7  363.66   46.90
   3  10   7  373.96   16.40
  -4 -10  -7  455.35   15.90
  -4 -10  -7  489.15   14.70
   4  10   7  465.65   19.90
   4  10   7  361.66   49.40
  -5 -10  -7    6.40    1.30
  -5 -10  -7    5.00    1.70
   5  10   7   11.90   15.50
   5  10   7    4.90    4.30
  -6 -10  -7   26.80    2.80
   6  10   7   10.50   22.00
   6  10   7   25.00    6.50
  -7 -10  -7  576.84   20.30
  -7 -10  -7  596.24   19.10
   7  10   7  597.14   30.80
  -8 -10  -7 1004.40   30.90
  -8 -10  -7 1020.50   32.30
   8  10   7  946.21   37.00
  -9 -10  -7  152.68    8.00
  -9 -10  -7  141.59    6.80
   9  10   7  151.58   11.80
 -10 -10  -7   11.80    2.20
  10  10   7   10.90    4.10
   5 -11  -7   80.49    5.50
   5 -11  -7   69.99    4.20
  -5  11   7   53.59    6.30
   4 -11  -7   68.59    4.10
   4 -11  -7   66.89    5.20
  -4  11   7   71.09    6.50
   3 -11  -7  447.36   16.30
   3 -11  -7  442.46   16.80
  -3  11   7  440.36   17.30
   2 -11  -7  474.95   16.20
   2 -11  -7  479.85   17.70
  -2  11   7  476.15   19.30
   1 -11  -7    2.20    1.20
   1 -11  -7    0.00    1.10
  -1  11   7    0.20    2.40
   0 -11  -7   20.60   53.99
   0 -11  -7   13.50    1.80
   0  11   7   21.10    3.60
   0  11   7   19.70    4.90
  -1 -11  -7  682.83   21.80
  -1 -11  -7  579.54   70.59
   1  11   7  672.33   25.40
   1  11   7  630.34   68.89
   1  11   7  698.13   22.30
  -2 -11  -7  467.25   15.90
  -2 -11  -7  413.06   65.49
   2  11   7  470.15   19.60
   2  11   7  399.26   52.99
   2  11   7  460.95   15.80
  -3 -11  -7    9.10    1.80
  -3 -11  -7   11.30    1.20
  -3 -11  -7   -9.90   23.00
   3  11   7   25.90   19.30
   3  11   7   10.30    2.30
   3  11   7   11.10    5.00
  -4 -11  -7   40.20    2.40
  -4 -11  -7   38.70    3.30
   4  11   7   56.09   24.10
   4  11   7   42.90    7.40
  -5 -11  -7   56.59    3.60
  -5 -11  -7   51.89    3.80
   5  11   7   53.49    9.40
  -6 -11  -7    9.60    1.70
  -6 -11  -7    7.70    1.90
   6  11   7    6.70    5.30
  -7 -11  -7  108.69    6.40
   7  11   7  119.79   11.00
  -8 -11  -7    3.40    1.40
  -8 -11  -7    1.50    1.20
   8  11   7   15.10    6.00
  -9 -11  -7  102.89    5.50
  -9 -11  -7   97.39    6.40
   9  11   7  112.99   10.50
   4 -12  -7   91.69    5.20
   4 -12  -7  105.09    6.50
  -4  12   7   91.69    7.60
   3 -12  -7    1.60    1.20
   3 -12  -7    1.00    1.50
  -3  12   7    1.60    2.80
   2 -12  -7    7.50    2.40
   2 -12  -7    5.30    1.70
  -2  12   7    8.20    3.50
   1 -12  -7    5.40    1.40
  -1  12   7    3.40    4.10
  -1  12   7    4.90    3.10
   0 -12  -7  283.47   11.10
   0  12   7  295.87   12.20
   0  12   7  280.57   14.60
  -1 -12  -7  284.17   11.00
   1  12   7  270.07   14.70
   1  12   7  284.77   11.60
  -2 -12  -7   16.20    2.30
   2  12   7   20.90    3.30
   2  12   7   21.30    6.10
  -3 -12  -7   50.69    3.80
   3  12   7   54.39    8.20
   3  12   7   59.19    4.90
  -4 -12  -7  200.58    8.90
  -4 -12  -7  212.38    7.40
   4  12   7  200.78   13.30
  -5 -12  -7  527.35   16.30
  -5 -12  -7  513.45   18.10
   5  12   7  476.15   23.00
  -6 -12  -7  203.98    9.40
  -6 -12  -7  214.78    8.10
   6  12   7  205.38   14.40
  -7 -12  -7  171.68    8.50
  -7 -12  -7  181.28    7.30
   7  12   7  164.98   13.60
  -8 -12  -7  251.57   11.50
  -8 -12  -7  266.87   10.10
   8  12   7  263.77   16.60
   2 -13  -7  270.97   10.80
  -2  13   7  274.87   15.10
  -2  13   7  262.97   12.60
   1 -13  -7  262.67   10.80
  -1  13   7  288.27   12.60
  -1  13   7  262.97   14.80
   0 -13  -7   47.00    3.70
   0  13   7   48.80    5.30
   0  13   7   45.30    7.60
  -1 -13  -7  195.18    8.60
   1  13   7  196.18    9.30
   1  13   7  187.68   12.70
  -2 -13  -7  291.47   11.60
   2  13   7  292.57   16.30
   2  13   7  294.17   11.80
   3  13   7    1.60    5.30
  -4 -13  -7   26.60    3.00
   4  13   7   29.80    7.50
  -5 -13  -7   38.90    3.60
   5  13   7   42.70    8.70
  -6 -13  -7  116.39    6.80
   6  13   7  124.29   11.90
   0 -14  -7   19.60    3.30
   0  14   7   19.60    6.50
  -1 -14  -7    3.70    1.70
   1  14   7    8.60    5.50
   1  14   7    6.10    2.50
  -2 -14  -7   35.00    3.40
   2  14   7   34.40    8.20
  -3 -14  -7   99.49    5.90
   3  14   7   94.19   10.30
  -4 -14  -7  261.77   11.20
   4  14   7  245.18   16.60
   0 -13   8    2.00    1.50
  -1  13  -8  224.28   10.00
   1 -13   8  198.68    8.00
   1 -13   8  190.58    9.00
  -2  13  -8   86.59    5.90
   3 -13   8   47.00    4.20
  -3 -12   8    3.00    1.50
   2  12  -8   59.49    4.00
  -2 -12   8   41.80    3.50
   1  12  -8  187.58   10.10
  -1 -12   8  177.98    8.00
   0  12  -8   40.00    4.00
   0 -12   8   35.60    3.10
  -1  12  -8   86.69    6.00
   1 -12   8   97.89    5.40
   1 -12   8   90.19    4.80
  -2  12  -8  598.34   19.60
  -2  12  -8  482.95   19.20
   2 -12   8  514.25   17.00
   2 -12   8  490.95   18.10
  -3  12  -8  157.08    8.60
   3 -12   8  151.78    7.60
   3 -12   8  161.68    6.60
  -4  12  -8   57.69    5.20
   4 -12   8   47.70    4.00
  -5  12  -8    8.80    2.50
   5 -12   8    8.80    2.30
  -5 -11   8  143.79    7.30
   4  11  -8  537.25   17.90
   4  11  -8  562.24   21.40
  -4 -11   8  519.95   17.50
  -4 -11   8  536.55   18.70
  -3 -11   8   57.69    3.60
  -3 -11   8   64.99    4.40
   2  11  -8  141.19    7.00
   2  11  -8  179.68   10.50
  -2 -11   8  145.89    6.70
   1  11  -8   12.20    2.50
  -1 -11   8   10.20    1.90
  -1 -11   8   12.30    2.30
   0  11  -8   95.09    5.70
   0 -11   8   82.89    4.80
   0 -11   8   -2.10   80.39
   0 -11   8   88.29    5.00
  -1  11  -8   11.20    2.60
   1 -11   8   10.50    2.10
  -2  11  -8   24.80    3.60
   2 -11   8   28.50    2.80
   2 -11   8   23.70    2.80
  -3  11  -8   11.60    2.50
   3 -11   8   13.20    2.20
   3 -11   8   12.20    2.30
  -4  11  -8   20.10    3.60
   4 -11   8   18.20    2.50
   4 -11   8   19.50    2.50
  -5  11  -8  346.37   15.30
   5 -11   8  385.86   12.60
   5 -11   8  365.96   14.10
  -6  11  -8  272.37   12.90
   6 -11   8  271.37   11.60
  -7  11  -8   11.00    3.20
   7 -11   8    7.60    2.30
  -5 -10   8   69.89    4.80
  -4 -10   8   22.40    2.90
  -4 -10   8   29.30    2.20
   3  10  -8   33.50    5.10
   3  10  -8   25.00    2.40
  -3 -10   8   15.30    4.20
   2  10  -8  149.29    9.40
   2  10  -8  143.79    7.10
  -2 -10   8   68.29   60.39
  -2 -10   8  153.28    6.30
  -2 -10   8  148.89    6.90
   1  10  -8  650.63   94.99
   1  10  -8  607.94   21.50
   1  10  -8  669.23   23.50
  -1 -10   8  655.83   20.60
  -1 -10   8  662.13   20.90
  -1 -10   8  438.16   97.99
   0  10  -8  308.97   12.40
   0 -10   8  249.78   76.69
   0 -10   8  323.77   11.50
   0 -10   8  319.27   11.40
  -1  10  -8  -36.70   27.20
  -1  10  -8    5.10    1.90
   1 -10   8  -23.00   36.10
  -2  10  -8   -2.00   29.50
   2 -10   8  -59.89   31.70
   2 -10   8   -0.50    0.90
  -3  10  -8  135.59    7.70
  -3  10  -8   86.19   37.70
   3 -10   8  145.49    6.20
   3 -10   8   49.90   54.89
   3 -10   8  139.99    6.60
  -4  10  -8   52.59    4.70
   4 -10   8   49.70    4.10
   4 -10   8   55.29    3.50
  -5  10  -8   16.80    3.40
   5 -10   8   21.50    2.60
   5 -10   8   24.80    2.70
  -6  10  -8  134.99    8.20
   6 -10   8  137.99    7.10
   6 -10   8  140.19    6.10
  -7  10  -8   35.50    4.50
   7 -10   8   37.10    3.30
   7 -10   8   34.50    3.40
  -8  10  -8   82.09    6.60
   8 -10   8   71.39    5.20
   6   9  -8  176.48    9.70
  -6  -9   8  142.29    7.50
   5   9  -8    7.50    2.60
  -5  -9   8    6.00    1.80
   4   9  -8    5.70    4.10
  -4  -9   8    3.80    1.60
  -4  -9   8    3.90    1.10
   3   9  -8   17.30    2.40
   3   9  -8   15.00   38.10
   3   9  -8   18.20    3.90
  -3  -9   8   40.00   51.29
  -3  -9   8   16.80    2.30
  -3  -9   8   16.40    1.60
   2   9  -8  -12.90   28.90
  -2  -9   8  -52.09   35.20
   1   9  -8   31.80    4.70
   1   9  -8   18.60    2.50
   1   9  -8   47.20   33.50
  -1  -9   8  -16.80   30.50
  -1  -9   8   23.20    2.60
  -1  -9   8   26.10    2.10
   0   9  -8  159.28    7.70
   0   9  -8  154.98   67.09
   0  -9   8  170.28    7.10
   0  -9   8  170.08    6.90
  -1   9  -8   38.80   45.90
  -1   9  -8   16.40    2.90
   1  -9   8   12.20    1.70
   1  -9   8   -7.90   39.60
   1  -9   8   13.10    2.30
  -2   9  -8  327.07   13.10
  -2   9  -8  175.08   61.59
  -2   9  -8  340.17   12.90
   2  -9   8  339.37   12.00
   2  -9   8  345.17   87.09
   2  -9   8  331.97   11.60
  -3   9  -8  224.38   10.50
  -3   9  -8  253.37    9.80
   3  -9   8  235.98    9.40
   3  -9   8  245.68   93.39
  -4   9  -8   51.29   27.30
  -4   9  -8   21.70    3.30
   4  -9   8   17.70    2.30
   4  -9   8   24.60    2.60
  -5   9  -8    8.10    2.50
   5  -9   8   11.60    2.40
   5  -9   8   15.90    2.50
  -6   9  -8    0.80    1.80
   6  -9   8    2.80    1.70
   6  -9   8   10.10    2.10
  -7   9  -8    3.50    2.20
   7  -9   8    3.80    1.90
   7  -9   8    3.40    1.50
   8  -9   8   20.70    3.00
   8  -9   8   22.50    3.00
  -9   9  -8   89.39    6.90
   9  -9   8   95.49    6.10
   7   8  -8   20.30    3.50
   6   8  -8   48.30    5.30
  -6  -8   8   40.10    3.60
   5   8  -8    7.10    2.90
  -5  -8   8    4.40    1.70
   4   8  -8  419.26   14.40
   4   8  -8  288.87   71.39
   4   8  -8  409.96   16.80
  -4  -8   8  426.46   14.80
   3   8  -8  200.18   55.49
   3   8  -8  252.07   11.80
   3   8  -8  251.47   10.00
  -3  -8   8  272.47    9.00
  -3  -8   8  263.07   10.10
   2   8  -8   67.49    4.30
   2   8  -8   42.30   25.30
   2   8  -8   64.79    5.60
  -2  -8   8   72.19   36.20
  -2  -8   8   76.29    4.40
  -2  -8   8   73.99    3.50
   1   8  -8   21.00    3.90
   1   8  -8   23.40    2.70
   1   8  -8   -7.00   24.80
  -1  -8   8   19.30    2.40
  -1  -8   8   18.80    1.80
   0   8  -8   14.60    2.30
   0   8  -8   22.10   26.20
   0  -8   8   15.20    2.20
   0  -8   8   19.10    1.80
  -1   8  -8   26.80   25.00
  -1   8  -8   54.99    4.60
  -1   8  -8   59.19    4.30
   1  -8   8   60.49    3.60
  -2   8  -8   76.49    5.10
  -2   8  -8   27.50   29.10
  -2   8  -8   82.19    5.00
   2  -8   8   34.70   34.60
   2  -8   8   81.79    4.20
  -3   8  -8  181.48    8.90
  -3   8  -8  194.58    7.80
  -3   8  -8  189.48   50.49
   3  -8   8  190.68    7.70
   3  -8   8  211.48   53.89
   3  -8   8  194.18    7.90
  -4   8  -8  150.08   48.90
  -4   8  -8  212.08    9.70
   4  -8   8  143.29   46.30
   4  -8   8  215.08    8.60
  -5   8  -8    7.30    2.30
  -5   8  -8    6.50   23.70
   5  -8   8    7.40    1.80
   5  -8   8   -3.80   27.30
  -6   8  -8  161.98    8.60
   6  -8   8  170.18    7.00
   6  -8   8  160.48    7.60
  -7   8  -8   -1.00    1.90
   7  -8   8    3.00    1.50
   7  -8   8    0.50    1.00
  -8   8  -8   27.90    4.10
   8  -8   8   29.20    3.20
   8  -8   8   24.70    3.00
  -9   8  -8   32.90    4.20
   9  -8   8   21.00    3.10
   9  -8   8   24.20    3.10
  -8  -7   8   98.19    8.40
   7   7  -8   47.90    4.80
  -7  -7   8   37.30    3.50
  -7  -7   8   37.00    3.40
   6   7  -8    5.50    2.60
  -6  -7   8    4.00    1.80
   5   7  -8   21.40   41.20
   4   7  -8  -11.50   25.40
   4   7  -8  -26.40   32.20
   3   7  -8  199.28    9.00
   3   7  -8  203.28   88.69
   3   7  -8  189.78    9.60
  -3  -7   8  203.18    8.30
  -3  -7   8  211.08    7.10
   2   7  -8  228.18   10.40
   2   7  -8  162.18   45.90
  -2  -7   8  252.77    8.30
  -2  -7   8  226.38   66.89
  -2  -7   8  240.68    9.20
   1   7  -8    6.00    2.90
   1   7  -8    1.50    2.00
   1   7  -8  -15.20   19.50
  -1  -7   8  -15.00   18.10
  -1  -7   8    2.00    0.70
  -1  -7   8    1.10    1.30
   0   7  -8  292.07   11.50
   0   7  -8  321.17   60.29
   0  -7   8  308.87   10.90
   0  -7   8  316.67   10.40
   0  -7   8  227.78   56.19
  -1   7  -8   75.69    4.70
  -1   7  -8   30.50   23.10
  -1   7  -8   71.19    4.70
   1  -7   8   74.49    4.10
   1  -7   8   77.29    3.70
   1  -7   8   74.99   33.00
  -2   7  -8    1.10    1.40
  -2   7  -8  -12.50   15.60
   2  -7   8    2.50    1.00
   2  -7   8   -8.30   16.80
   2  -7   8    2.70    1.30
  -3   7  -8   19.70    3.20
  -3   7  -8    9.10   18.30
  -3   7  -8   24.00    2.20
   3  -7   8   19.50    2.00
   3  -7   8   -2.20   19.90
   3  -7   8   14.50    2.10
  -4   7  -8    6.00    2.30
  -4   7  -8    8.30   22.30
   4  -7   8    2.00    1.30
   4  -7   8    3.30    1.30
   4  -7   8   21.60   19.30
  -5   7  -8   -2.10   17.70
   5  -7   8   12.40   24.20
  -6   7  -8   36.60    3.90
  -6   7  -8   40.60   23.60
   6  -7   8   -0.80   24.70
   6  -7   8   37.40    3.20
  -7   7  -8  307.87   13.00
  -8   7  -8   25.10    2.50
  -8   7  -8   17.60    3.60
  -9   7  -8   71.99    4.50
  -9   7  -8   81.39    6.10
   9  -7   8   74.09    5.10
 -10   7  -8   58.39    4.20
 -10   7  -8   59.69    5.40
  10  -7   8   48.40    4.40
   8   6  -8  110.99    7.80
  -8  -6   8  104.09    6.20
   7   6  -8   40.20    4.40
  -7  -6   8   37.40    3.40
  -7  -6   8   30.80    3.30
   6   6  -8  268.67   12.60
   6   6  -8  274.27   10.20
  -6  -6   8  269.47   10.80
   5   6  -8   46.80    4.50
   5   6  -8   44.10    3.20
   5   6  -8   27.50   42.60
   5   6  -8   -0.20   25.40
  -5  -6   8   42.70    3.40
   4   6  -8    1.20    1.70
   4   6  -8    1.90    1.40
   4   6  -8   30.90   36.60
   4   6  -8  -22.20   19.90
  -4  -6   8   -0.30    0.90
   3   6  -8    4.20    1.90
   3   6  -8  -10.70   20.70
  -3  -6   8    3.50    1.50
   2   6  -8   17.10    2.00
   2   6  -8    8.50   21.80
   2   6  -8   13.90    2.70
  -2  -6   8   26.10   25.60
  -2  -6   8   16.90    2.20
  -2  -6   8   19.00    1.30
   1   6  -8   13.80    2.40
   1   6  -8   25.30   21.40
   1   6  -8   16.10    2.50
  -1  -6   8   28.80   24.10
  -1  -6   8   16.60    1.30
  -1  -6   8   18.10    2.20
   0   6  -8   32.80   24.00
   0   6  -8   56.89    3.80
   0  -6   8   62.59    2.90
   0  -6   8   58.49    3.60
   0  -6   8   61.49   29.60
  -1   6  -8  700.23   22.80
  -1   6  -8  594.94   75.59
  -1   6  -8  667.83   22.00
   1  -6   8  708.93   21.80
   1  -6   8  768.12   83.89
   1  -6   8  728.73   21.40
  -2   6  -8   38.80   27.90
  -2   6  -8   64.79    3.60
  -2   6  -8   66.99    5.30
   2  -6   8   31.30   25.60
   2  -6   8   66.09    3.70
   2  -6   8   67.29    3.50
  -3   6  -8  358.66   13.70
  -3   6  -8  304.07   56.19
   3  -6   8  376.76   12.80
   3  -6   8  425.86   55.99
   3  -6   8  394.56   12.80
  -4   6  -8   77.89   32.20
  -4   6  -8   82.09    5.20
   4  -6   8   87.69    4.60
   4  -6   8   88.89    4.50
   4  -6   8   76.39   26.70
  -5   6  -8  120.39    6.50
  -5   6  -8  126.29   39.40
   5  -6   8  117.99    5.80
   5  -6   8   95.49   32.30
   5  -6   8  127.29    5.60
  -6   6  -8   -9.10   17.40
  -6   6  -8    2.70    1.90
   6  -6   8    0.90    1.30
   6  -6   8  -34.10   18.20
  -7   6  -8    4.60    1.30
  -7   6  -8    3.00    2.20
   7  -6   8    5.00    1.90
  -8   6  -8   94.69    5.00
  -8   6  -8   96.29    6.30
   8  -6   8   93.99    5.70
  -9   6  -8   15.10    2.10
  -9   6  -8   20.10    3.80
   9  -6   8   16.40    3.20
 -10   6  -8  130.39    6.50
 -10   6  -8  136.59    7.80
  10  -6   8  114.19    7.00
 -11   6  -8   99.69    5.70
  11  -6   8   96.69    6.50
   8   5  -8    7.00    2.60
  -8  -5   8    4.60    1.70
  -8  -5   8    3.70    2.10
   7   5  -8  105.79    7.20
  -7  -5   8  109.69    5.90
  -7  -5   8   95.49    5.40
   6   5  -8   93.69   67.39
   6   5  -8  135.89    8.10
  -6  -5   8  125.29    7.30
  -6  -5   8  123.49    6.10
   5   5  -8  512.15   17.00
   5   5  -8  559.74   92.19
   5   5  -8  482.45   18.60
   5   5  -8  441.36   77.49
  -5  -5   8  493.85   16.90
   4   5  -8   27.90    2.60
   4   5  -8  -12.50   47.30
   4   5  -8   23.00    3.20
   4   5  -8   22.10   31.90
  -4  -5   8   30.30    2.70
   3   5  -8  257.27    9.90
   3   5  -8  248.48   10.80
   3   5  -8  237.28   57.89
   3   5  -8  268.77   77.59
  -3  -5   8  276.27    9.90
   2   5  -8    5.90   18.20
   2   5  -8   51.49    3.40
   2   5  -8   51.19    4.00
  -2  -5   8   52.49    3.40
  -2  -5   8   60.39   25.70
   1   5  -8   51.49    3.50
   1   5  -8   61.79   29.30
   1   5  -8   52.39    3.80
  -1  -5   8   58.29    2.50
  -1  -5   8   80.59   38.50
  -1  -5   8   56.79    3.50
   0   5  -8  156.88   42.20
   0   5  -8  140.09    6.50
   0  -5   8  192.58   49.00
   0  -5   8  140.89    6.00
   0  -5   8  146.29    5.30
  -1   5  -8    2.10    1.40
  -1   5  -8    0.30    1.10
  -1   5  -8  -15.40   10.00
   1  -5   8   14.30   12.90
   1  -5   8    4.40    0.90
   1  -5   8    3.50    1.40
  -2   5  -8  588.74   70.39
  -2   5  -8  717.23   22.90
  -2   5  -8  766.42   24.50
   2  -5   8  919.31   84.19
   2  -5   8  823.52   23.70
   2  -5   8  784.72   23.30
  -3   5  -8   20.70    2.80
  -3   5  -8   27.60   21.50
   3  -5   8   12.00   17.90
   3  -5   8   26.70    2.50
   3  -5   8   29.80    2.20
  -4   5  -8  722.03   80.49
   4  -5   8  947.51   27.50
   4  -5   8  935.21   84.89
   4  -5   8  898.71   27.60
  -5   5  -8  114.89   38.60
  -5   5  -8  133.99    6.80
  -5   5  -8  140.99    6.10
   5  -5   8  107.29   32.90
   5  -5   8  137.29    6.30
  -6   5  -8  166.38   42.60
  -6   5  -8  259.17   10.70
  -6   5  -8  264.57    9.70
   6  -5   8  301.57   50.29
   6  -5   8  252.77   10.10
  -7   5  -8   59.49    4.70
  -7   5  -8   67.59    3.90
   7  -5   8   18.00   23.50
   7  -5   8   64.59    4.40
  -8   5  -8   21.20    2.20
  -8   5  -8   21.30    3.60
   8  -5   8   17.90    3.00
  -9   5  -8    9.00    1.90
  -9   5  -8   10.80    2.70
   9  -5   8    5.80    2.00
 -10   5  -8   41.90    4.30
 -10   5  -8   31.40    3.00
  10  -5   8   34.10    3.70
 -11   5  -8   35.60    3.30
  11  -5   8   26.60    3.60
  -9  -4   8   62.49    4.60
   8   4  -8    1.70    1.60
  -8  -4   8   -0.30    1.60
  -8  -4   8    1.90    1.50
   7   4  -8    1.60    1.60
  -7  -4   8    0.80    1.20
  -7  -4   8    1.70    1.80
   6   4  -8  192.38   10.00
   6   4  -8  182.98   72.69
  -6  -4   8  202.48    8.40
   5   4  -8   37.10    4.00
   5   4  -8   39.60    3.60
   5   4  -8   38.70   28.40
   5   4  -8  -18.40   31.60
  -5  -4   8   39.70    3.10
   4   4  -8  323.57   63.59
   4   4  -8  419.36   75.39
   4   4  -8  333.17   13.60
   4   4  -8  349.37   12.40
  -4  -4   8  354.86   12.30
   3   4  -8   25.80   28.80
   3   4  -8   17.50    3.70
   3   4  -8   24.60   17.80
   3   4  -8   12.00    1.90
  -3  -4   8   14.20    2.00
   2   4  -8 1011.80   32.20
   2   4  -8 1034.80   94.59
   2   4  -8 1063.79   31.80
  -2  -4   8 1033.00   31.30
   1   4  -8   26.60   21.70
   1   4  -8   34.90    2.80
   1   4  -8   33.70    2.90
  -1  -4   8   32.10    2.60
  -1  -4   8   24.40   19.40
   0   4  -8  340.17   50.39
   0   4  -8  329.17   12.00
   0  -4   8  338.37   11.40
   0  -4   8  353.06   53.99
   0  -4   8  337.87   10.50
  -1   4  -8    4.20    1.40
  -1   4  -8   16.60   15.40
  -1   4  -8    3.10    1.00
   1  -4   8   17.70   16.40
   1  -4   8    5.50    1.50
   1  -4   8    5.80    1.10
  -2   4  -8   90.99    4.80
  -2   4  -8   80.09    3.50
   2  -4   8   94.49    4.40
   2  -4   8   89.99    3.90
   2  -4   8  121.69   33.30
  -3   4  -8  327.47   11.80
  -3   4  -8  265.67   42.90
   3  -4   8  315.27   10.80
   3  -4   8  316.87   45.80
   3  -4   8  326.57   10.90
  -4   4  -8   21.70    2.00
  -4   4  -8   24.50    2.70
  -4   4  -8   18.80   18.20
   4  -4   8   25.40    2.30
   4  -4   8   23.10    2.20
   4  -4   8   29.90   17.70
  -5   4  -8  613.84   72.49
  -5   4  -8  689.53   22.80
  -5   4  -8  714.43   22.10
   5  -4   8  694.53   22.30
   5  -4   8  790.22   75.19
  -6   4  -8  114.79    6.00
  -6   4  -8  113.69    5.20
  -6   4  -8   81.99   27.40
   6  -4   8  100.59    5.50
   6  -4   8   98.79   31.90
  -7   4  -8  305.57   11.90
  -7   4  -8  198.68   49.60
  -7   4  -8  298.47   10.80
   7  -4   8  303.57   11.70
   7  -4   8  323.67   54.59
  -8   4  -8  152.68    7.80
  -8   4  -8  166.68    7.00
   8  -4   8  159.48    7.80
  -9   4  -8   36.70    2.90
  -9   4  -8   35.20    3.80
   9  -4   8   28.40    3.30
 -10   4  -8   44.80    4.30
 -10   4  -8   41.10    3.20
  10  -4   8   34.50    3.80
 -11   4  -8   15.40    2.60
  11  -4   8   16.20    3.20
   9   3  -8   30.00    4.20
  -9  -3   8   23.60    3.00
  -9  -3   8   24.50    3.70
   8   3  -8  298.77   14.30
  -8  -3   8  318.77   12.30
  -8  -3   8  319.57   12.00
   7   3  -8    2.20    1.90
  -7  -3   8    2.50    1.50
  -7  -3   8   -0.50    1.50
   6   3  -8   36.60    4.10
   6   3  -8   37.20   47.40
  -6  -3   8   34.70    3.60
  -6  -3   8   35.80    3.10
   5   3  -8   23.60   36.80
   5   3  -8   27.10    2.80
   5   3  -8    7.00   20.20
   5   3  -8   29.50    3.50
  -5  -3   8   29.80    2.80
   4   3  -8  -10.40   14.50
   4   3  -8    9.70    1.80
   4   3  -8    5.30    1.80
  -4  -3   8    7.00    1.70
   3   3  -8  451.05   75.69
   3   3  -8  392.46   13.60
   3   3  -8  382.86   14.40
   3   3  -8  381.86   56.49
  -3  -3   8  393.06   13.30
   2   3  -8    4.10    1.30
   2   3  -8   -4.50   16.50
   2   3  -8    5.30    1.70
   2   3  -8    7.30   19.90
  -2  -3   8    6.20    1.50
   1   3  -8 1550.74   47.40
   1   3  -8 1581.54   47.50
   1   3  -8 1702.93  114.49
  -1  -3   8 1575.44   46.80
  -1  -3   8 1702.83  117.79
   0   3  -8   61.89    3.70
   0   3  -8   57.29   24.40
   0  -3   8   74.79   26.30
   0  -3   8   56.89    2.40
   0  -3   8   58.19    3.40
  -1   3  -8  500.05   15.80
  -1   3  -8  497.45   16.70
  -1   3  -8  456.15   53.89
   1  -3   8  526.25   16.10
   1  -3   8  535.25   57.99
   1  -3   8  505.65   15.30
  -2   3  -8   77.09   26.70
  -2   3  -8  102.19    3.80
  -2   3  -8   92.89    4.80
   2  -3   8   83.69    4.60
   2  -3   8  107.29    4.60
   2  -3   8   96.59    4.00
   2  -3   8   87.69   25.30
  -3   3  -8  348.87   12.50
  -3   3  -8  320.27   44.60
   3  -3   8  357.06   11.90
   3  -3   8  345.67   44.20
   3  -3   8  368.36   11.90
  -4   3  -8    3.80   10.90
   4  -3   8   10.00   11.60
  -5   3  -8    6.30    1.40
  -5   3  -8    4.70    1.60
  -5   3  -8   13.60   12.60
   5  -3   8    0.20   11.50
   5  -3   8    5.80    1.70
  -6   3  -8  483.35   16.50
  -6   3  -8  427.66   62.79
  -6   3  -8  494.95   15.70
   6  -3   8  465.05   17.50
   6  -3   8  461.95   56.89
  -7   3  -8   76.89   27.20
  -7   3  -8   81.19    4.90
  -7   3  -8   77.09    4.20
   7  -3   8   78.29   28.30
   7  -3   8   77.19    4.90
  -8   3  -8  139.09    7.00
  -8   3  -8  138.49    6.20
   8  -3   8  140.89    7.10
  -9   3  -8    5.10    2.00
  -9   3  -8    4.00    1.40
   9  -3   8    2.50    1.60
 -10   3  -8  354.86   13.00
 -10   3  -8  359.56   13.90
  10  -3   8  348.87   14.20
 -11   3  -8  195.88    8.70
 -11   3  -8  225.58    9.50
  11  -3   8  187.28    9.70
 -12   3  -8    1.60    1.30
  12  -3   8    5.40    2.30
   9   2  -8  198.78   11.00
  -9  -2   8  231.28    9.70
   8   2  -8   49.40    4.80
  -8  -2   8   45.00    3.70
   7   2  -8  405.56   17.40
  -7  -2   8  424.56   14.80
  -7  -2   8  413.96   14.90
   6   2  -8    5.00   36.60
   6   2  -8   22.00    3.20
  -6  -2   8   23.70    3.10
  -6  -2   8   26.70    2.60
   5   2  -8   76.19   42.70
   5   2  -8  152.38    7.90
   5   2  -8  132.49   45.20
  -5  -2   8  145.59    6.70
  -5  -2   8  144.69    6.40
   4   2  -8  -19.20   11.40
   4   2  -8    1.20    1.20
   4   2  -8    1.40    1.00
   4   2  -8   -4.80   22.00
  -4  -2   8    0.40    1.00
   3   2  -8   88.99    5.20
   3   2  -8   85.69    4.60
   3   2  -8   97.19   36.10
   3   2  -8   75.89   30.80
  -3  -2   8   93.89    4.50
   2   2  -8   85.89   27.30
   2   2  -8  135.89    6.00
   2   2  -8   76.09   31.80
   2   2  -8  139.39    6.50
  -2  -2   8  148.59    5.90
   1   2  -8   59.19   22.00
   1   2  -8   54.09    3.40
   1   2  -8   51.89    3.30
  -1  -2   8   54.39    3.20
   0   2  -8 1789.82  106.79
   0   2  -8 1703.93   50.89
   0  -2   8 1705.13  108.89
   0  -2   8 1728.03   50.09
  -1   2  -8   32.30   15.00
  -1   2  -8   52.39    2.70
  -1   2  -8   40.60    2.90
   1  -2   8   51.59   19.20
   1  -2   8   48.50    2.90
   1  -2   8   46.00    2.20
  -2   2  -8  505.15   15.40
  -2   2  -8  480.85   49.40
  -2   2  -8  526.65   16.80
   2  -2   8  548.35   16.40
   2  -2   8  572.94   53.09
   2  -2   8  436.46   15.90
   2  -2   8  542.15   16.30
  -3   2  -8   59.49    3.30
  -3   2  -8   57.09    3.50
  -3   2  -8   64.29   21.90
   3  -2   8   59.29    3.20
   3  -2   8   45.40   17.90
  -4   2  -8  364.96   46.70
  -4   2  -8  418.56   14.40
  -4   2  -8  423.66   14.00
   4  -2   8  483.15   49.20
   4  -2   8  436.46   14.10
  -5   2  -8   84.29    4.10
  -5   2  -8   81.29   27.20
  -5   2  -8   84.29    4.60
   5  -2   8   79.19   23.50
   5  -2   8   87.19    4.70
  -6   2  -8   42.70    3.20
  -6   2  -8   39.30    2.70
  -6   2  -8   22.90   20.80
   6  -2   8   45.70   22.00
   6  -2   8   40.30    3.40
  -7   2  -8   85.69   30.20
  -7   2  -8  129.29    6.20
  -7   2  -8  135.19    5.80
   7  -2   8  122.69    6.40
   7  -2   8  119.79   35.30
  -8   2  -8    4.10    1.90
  -8   2  -8    6.30    1.50
   8  -2   8    6.00    2.30
  -9   2  -8  106.59    5.40
  -9   2  -8  114.49    6.00
   9  -2   8  106.99    6.40
 -10   2  -8   43.90    3.30
  10  -2   8   44.40    5.40
 -11   2  -8   22.80    2.50
 -12   2  -8   67.69    4.60
  12  -2   8   67.39    5.30
   9   1  -8    4.40    2.00
  -9  -1   8    5.00    1.70
   8   1  -8   63.39    5.40
  -8  -1   8   58.99    4.80
  -8  -1   8   70.89    4.50
   7   1  -8   88.79    9.10
  -7  -1   8  126.49    5.90
  -7  -1   8  109.89    6.20
   6   1  -8  375.66   15.30
   6   1  -8  280.07   67.09
  -6  -1   8  389.36   13.40
  -6  -1   8  381.16   13.70
   5   1  -8   15.40   28.90
   5   1  -8   14.10   22.30
   5   1  -8    6.70    2.10
  -5  -1   8    6.40    1.60
   4   1  -8  169.38    7.30
   4   1  -8  171.68    8.30
   4   1  -8  161.88   45.50
   4   1  -8  186.18   45.80
  -4  -1   8  173.88    7.20
   3   1  -8   80.39   26.20
   3   1  -8   80.59    4.40
   3   1  -8   83.19    5.00
   3   1  -8   90.09   30.00
  -3  -1   8   82.99    4.20
   2   1  -8   79.19   31.90
   2   1  -8  103.99   28.00
   2   1  -8  126.29    5.70
   2   1  -8  125.29    6.10
  -2  -1   8  130.79    5.40
   1   1  -8    8.40   11.20
   1   1  -8    3.10    1.20
   1   1  -8    4.10    1.20
   1   1  -8   -4.80   11.00
  -1  -1   8    5.10    1.40
   0   1  -8   61.49    3.30
   0   1  -8   55.29    3.40
   0   1  -8   60.79   20.00
   0  -1   8   62.09   20.10
   0  -1   8   63.39    3.30
  -1   1  -8   66.69    3.20
  -1   1  -8   77.89   20.20
  -1   1  -8   65.59    3.70
   1  -1   8   72.79    3.50
   1  -1   8   53.59   17.40
   1  -1   8   70.49    2.90
  -2   1  -8  236.98    8.90
  -2   1  -8  253.87   31.20
  -2   1  -8  226.28    7.70
   2  -1   8  235.18    8.10
   2  -1   8  249.18    8.50
   2  -1   8  263.37   31.50
  -3   1  -8  668.93   20.80
  -3   1  -8  586.14   51.79
  -3   1  -8  661.23   21.00
   3  -1   8  691.63   20.60
   3  -1   8  726.33   53.69
  -4   1  -8   63.19    3.30
  -4   1  -8   57.29   19.70
  -4   1  -8   67.69    3.70
   4  -1   8   58.19   19.30
   4  -1   8   59.59    3.60
  -5   1  -8   45.00   20.60
  -5   1  -8   62.59    3.60
  -5   1  -8   62.59    3.40
   5  -1   8   65.29    4.00
   5  -1   8   31.30   13.90
  -6   1  -8   19.00   14.30
   6  -1   8    2.60    8.30
   6  -1   8    6.80    1.90
  -7   1  -8  447.06   14.90
  -7   1  -8  428.36   14.50
  -7   1  -8  420.86   60.59
   7  -1   8  421.46   15.40
   7  -1   8  460.55   57.19
  -8   1  -8  452.65   15.20
  -8   1  -8  462.25   16.10
  -8   1  -8  395.76   68.39
   8  -1   8  441.26   16.20
   8  -1   8  418.86   79.29
  -9   1  -8   67.39    4.00
   9  -1   8   58.19    4.80
 -10   1  -8  105.39    5.60
 -10   1  -8  115.19    5.80
  10  -1   8  100.79    6.50
 -11   1  -8   67.49    4.50
 -11   1  -8   88.79    4.70
  11  -1   8   75.39    5.80
 -12   1  -8    2.10    1.30
  12  -1   8    1.10    1.90
   9   0  -8    8.80    2.60
  -9   0   8    7.10    2.80
  -9   0   8   10.30    2.30
   8   0  -8    3.50    2.00
  -8   0   8    2.10    2.20
  -8   0   8    2.50    1.30
  -7   0   8   18.40    2.30
  -7   0   8   16.10    3.20
   6   0  -8   15.50    2.70
   6   0  -8   19.10   42.90
  -6   0   8   14.30    2.10
  -6   0   8   17.50    3.00
   5   0  -8   19.80   26.30
   5   0  -8   21.40    2.70
  -5   0   8   22.40    2.90
  -5   0   8   26.00    2.40
   4   0  -8   93.09   42.80
   4   0  -8  101.79   35.40
   4   0  -8  113.19    6.30
  -4   0   8  123.39    5.30
  -4   0   8  121.89    6.00
   3   0  -8  765.82   25.10
   3   0  -8  849.72   88.39
   3   0  -8  785.52   73.79
   3   0  -8  738.13   24.20
  -3   0   8  776.02   23.50
   2   0  -8  402.16   13.80
   2   0  -8  396.76   47.50
   2   0  -8  419.76   14.30
   2   0  -8  390.46   57.79
  -2   0   8  393.16   13.10
   1   0  -8    2.70    9.60
   1   0  -8    1.80    0.90
   1   0  -8    2.20    0.90
   1   0  -8   -2.80    8.30
  -1   0   8    1.70    1.10
   0   0  -8    1.10    0.70
   0   0  -8    2.00    0.80
   0   0  -8    1.40    7.60
   0   0  -8    3.80   10.40
   0   0   8    0.90    0.90
  -1   0  -8   72.89    3.80
  -1   0  -8   86.29   16.40
   1   0   8   77.49   20.30
   1   0   8   78.59    3.70
   1   0   8   75.19    3.10
  -2   0  -8  339.17   31.70
  -2   0  -8  335.17   11.40
  -2   0  -8  332.97   10.70
  -2   0  -8  339.87   11.70
   2   0   8  355.86   11.20
   2   0   8  354.26   11.10
   2   0   8  336.47   33.30
  -3   0  -8  160.28    6.20
  -3   0  -8  168.18   22.90
  -3   0  -8  158.08    6.40
  -3   0  -8  155.68    5.20
   3   0   8  168.28   22.10
   3   0   8  165.78    6.30
  -4   0  -8  933.41   28.40
  -4   0  -8  858.01   63.19
  -4   0  -8  951.70   28.70
   4   0   8  965.20   28.80
   4   0   8 1035.20   62.49
  -5   0  -8  247.18   36.60
  -5   0  -8  252.77    9.10
  -5   0  -8  255.77    8.90
   5   0   8  231.48   31.60
   5   0   8  246.38    9.50
  -6   0  -8   49.10   21.30
  -6   0  -8   62.59    3.40
  -6   0  -8   62.69    3.60
   6   0   8   58.19   19.30
   6   0   8   65.69    4.40
  -7   0  -8   91.69   33.30
  -7   0  -8   64.89    3.60
   7   0   8   72.39   26.50
   7   0   8   64.09    4.60
  -8   0  -8    1.50    1.00
  -8   0  -8    3.10   12.30
  -8   0  -8    0.00    0.60
   8   0   8    1.40    1.60
   8   0   8    4.70   16.40
  -9   0  -8  125.19    5.80
  -9   0  -8  125.49    5.90
   9   0   8  120.89    6.90
 -10   0  -8   28.90    2.70
 -10   0  -8   35.30    2.60
  10   0   8   29.70    3.90
 -11   0  -8   92.79    5.40
 -11   0  -8  115.49    5.10
  11   0   8   89.39    6.40
 -12   0  -8  166.38    7.90
  12   0   8  151.68    8.70
   9  -1  -8  261.27   12.50
  -9   1   8  246.18   11.30
  -9   1   8  251.27   10.20
   8  -1  -8   75.09    5.80
  -8   1   8   76.59    5.10
  -8   1   8   82.99    9.00
   7  -1  -8    5.50    2.80
  -7   1   8    7.30    1.80
  -7   1   8    5.20    2.40
   6  -1  -8   36.40   28.90
   6  -1  -8   15.80    3.20
  -6   1   8   21.90    3.30
  -6   1   8   17.90    2.10
   5  -1  -8   -6.90   16.30
   5  -1  -8  -24.80   24.10
   4  -1  -8  119.79    6.50
   4  -1  -8   82.49   28.80
   4  -1  -8  130.79   35.90
  -4   1   8  122.39    5.20
  -4   1   8  124.79    6.10
   3  -1  -8  107.89   30.90
   3  -1  -8  104.59    5.70
   3  -1  -8   85.39   29.00
  -3   1   8  101.39    5.30
  -3   1   8   99.09    4.50
   2  -1  -8  265.27   36.80
   2  -1  -8  254.07   10.00
   2  -1  -8  251.97    9.60
   2  -1  -8  314.87   46.60
  -2   1   8  256.07    8.90
   1  -1  -8    8.90    1.40
   1  -1  -8    6.10    1.40
   1  -1  -8    2.40    8.60
   1  -1  -8    2.20    6.30
  -1   1   8   12.80    1.80
   0  -1  -8  198.18    7.50
   0  -1  -8  211.68   26.00
   0  -1  -8  190.68    7.50
   0  -1  -8  175.78   28.30
   0   1   8  202.38    7.10
  -1  -1  -8  205.78    7.90
  -1  -1  -8  203.78   26.60
  -1  -1  -8  203.48   21.50
   1   1   8  213.98    7.10
   1   1   8  217.68    7.50
  -2  -1  -8    8.40    0.90
  -2  -1  -8    5.80    1.20
  -2  -1  -8    9.20    1.30
   2   1   8    8.90    1.60
   2   1   8   16.00    7.60
  -3  -1  -8   85.19   14.40
  -3  -1  -8   88.99    4.20
  -3  -1  -8   85.29    3.40
  -3  -1  -8   91.39    4.00
   3   1   8   89.79    4.30
   3   1   8   96.49   13.60
  -4  -1  -8  133.49   22.00
  -4  -1  -8  130.09    5.20
  -4  -1  -8  143.99    5.60
   4   1   8  119.29    4.70
   4   1   8  126.39    5.30
   4   1   8  142.09   19.10
   4   1   8  124.89    5.70
  -5  -1  -8  814.12   65.89
   5   1   8  909.41   60.99
   5   1   8  942.41   28.30
   5   1   8  916.61   26.70
   5   1   8  928.61   27.80
  -6  -1  -8  871.01   26.00
  -6  -1  -8  825.12   73.19
  -6  -1  -8  871.01   26.10
   6   1   8  821.42   26.00
   6   1   8  850.21   26.90
   6   1   8  864.31   65.59
  -7  -1  -8  212.68    7.90
  -7  -1  -8  130.79   36.50
  -7  -1  -8  210.48    7.70
   7   1   8  209.28    9.00
   7   1   8  193.48    7.70
   7   1   8  241.28   37.70
  -8  -1  -8  333.37   12.00
  -8  -1  -8  346.27   11.70
   8   1   8  340.27   13.20
  -9  -1  -8  217.88    8.50
  -9  -1  -8  208.08    8.00
   9   1   8  204.38    8.10
   9   1   8  206.58    9.70
 -10  -1  -8   37.60    2.60
  10   1   8   44.00    2.60
  10   1   8   28.00    4.00
 -11  -1  -8   32.60    3.10
  11   1   8   28.20    4.00
 -12  -1  -8  428.66   15.80
  12   1   8  432.96   17.20
  -9   2   8    8.40    3.20
  -9   2   8   13.30    2.30
   8  -2  -8   33.50    4.00
  -8   2   8   31.00    4.30
  -8   2   8   34.70    2.90
   7  -2  -8    2.60    1.70
  -7   2   8   -1.90    1.80
  -7   2   8    0.90    0.90
   6  -2  -8  121.89   46.60
   6  -2  -8  100.19    6.50
  -6   2   8  108.19    6.20
  -6   2   8  107.69    5.00
   5  -2  -8  552.34   77.09
   5  -2  -8  615.04   21.90
  -5   2   8  629.84   19.70
  -5   2   8  647.34   20.90
   4  -2  -8   69.59    4.80
  -4   2   8   67.49    4.50
  -4   2   8   71.79    3.60
   3  -2  -8   -5.90   10.40
   3  -2  -8    0.90    1.00
  -3   2   8    4.70    1.90
  -3   2   8    0.40    0.90
   2  -2  -8   63.99    4.00
   2  -2  -8   29.70   20.00
   2  -2  -8   39.00   15.80
  -2   2   8   66.29    3.30
  -2   2   8   67.09    4.10
   1  -2  -8  304.47   11.10
   1  -2  -8  311.87   39.60
   1  -2  -8  334.67   35.30
   1  -2  -8  319.97   11.40
  -1   2   8  316.27   10.30
   0  -2  -8  326.07   30.60
   0  -2  -8  310.57   32.30
   0  -2  -8  303.87   10.80
   0  -2  -8  294.47   10.80
   0  -2  -8  320.77    9.50
   0   2   8  324.87   10.20
  -1  -2  -8  303.17   23.10
  -1  -2  -8  321.47   10.00
  -1  -2  -8  315.17   11.00
  -1  -2  -8  327.07   10.90
  -1  -2  -8  307.47   25.70
   1   2   8  348.27   10.60
  -2  -2  -8 2703.03   76.99
  -2  -2  -8 2652.93   76.59
  -3  -2  -8  657.13   20.10
  -3  -2  -8  622.24   19.30
  -3  -2  -8  652.63   19.80
   3   2   8  659.13   20.20
  -4  -2  -8  780.22   51.09
  -4  -2  -8  853.81   25.90
   4   2   8  869.71   26.60
   4   2   8  850.11   26.20
   4   2   8  957.10   47.20
  -5  -2  -8   19.10   10.00
  -5  -2  -8   12.60    1.40
  -5  -2  -8   15.40    1.60
   5   2   8   21.80    3.40
   5   2   8   12.50    8.20
   5   2   8   18.70    3.00
  -6  -2  -8  747.43   70.39
  -6  -2  -8  803.82   24.50
  -6  -2  -8  809.12   24.30
   6   2   8  806.12   25.60
   6   2   8  800.82   25.70
   6   2   8  780.42   59.69
  -7  -2  -8  189.28    7.40
  -7  -2  -8  190.28    7.00
  -7  -2  -8  112.09   31.50
   7   2   8  193.08    8.50
   7   2   8  181.78    8.20
   7   2   8  209.68   34.30
  -8  -2  -8   12.20    2.10
  -8  -2  -8    9.10    1.30
   8   2   8    7.50    2.40
   8   2   8   14.00    2.20
  -9  -2  -8   26.20    2.50
   9   2   8   29.40    2.80
   9   2   8   20.20    3.60
 -10  -2  -8   37.40    3.10
  10   2   8   34.50    4.10
 -11  -2  -8  286.67   11.30
  11   2   8  288.77   12.80
 -12  -2  -8  204.58    9.20
  12   2   8  204.08   10.40
  -9   3   8    5.50    1.30
  -9   3   8    3.20    2.70
   8  -3  -8   43.40    4.50
  -8   3   8   43.80    4.90
  -8   3   8   41.60    3.00
   7  -3  -8   82.39    5.90
  -7   3   8   76.09    6.10
  -7   3   8   85.69    4.40
   6  -3  -8   25.30    3.20
   6  -3  -8   24.10   33.10
  -6   3   8   21.60    3.60
  -6   3   8   20.90    2.10
   5  -3  -8   95.79   41.40
   5  -3  -8  103.19    6.30
  -5   3   8  107.99    6.10
  -5   3   8  117.79   36.60
  -5   3   8  112.59    4.80
   4  -3  -8  698.33   23.70
   4  -3  -8  633.14   79.89
  -4   3   8  739.23   23.00
  -4   3   8  718.83   21.40
  -4   3   8  608.24   78.09
   3  -3  -8   11.50    2.00
   3  -3  -8   14.10   15.20
  -3   3   8   11.30    1.60
  -3   3   8   11.20   16.70
  -3   3   8   12.30    2.50
   2  -3  -8  797.22   25.40
   2  -3  -8  789.32   71.89
  -2   3   8  799.92   24.70
  -2   3   8  728.83   71.69
  -2   3   8  799.52   23.60
   1  -3  -8    1.20    0.90
   1  -3  -8   -4.50    5.00
   1  -3  -8    0.80    0.40
  -1   3   8    1.80    1.60
  -1   3   8    3.70    1.10
   0  -3  -8  563.64   37.90
   0  -3  -8  591.84   18.60
   0  -3  -8  553.74   40.60
   0  -3  -8  586.54   17.10
   0  -3  -8  558.24   18.30
   0   3   8  593.34   17.60
  -1  -3  -8  154.48    6.30
  -1  -3  -8  152.08    5.50
  -1  -3  -8  160.98    6.30
   1   3   8  168.08    5.90
  -2  -3  -8  522.65   16.00
  -2  -3  -8  512.15   16.10
  -2  -3  -8  491.65   16.20
  -2  -3  -8  530.75   15.80
  -3  -3  -8  362.16   13.50
  -3  -3  -8  363.46   11.70
  -3  -3  -8  361.86   11.70
  -3  -3  -8  358.66   11.90
  -4  -3  -8  799.92   24.50
  -4  -3  -8  773.42   24.40
  -4  -3  -8  878.41   24.80
   4   3   8  779.82   25.30
   4   3   8  853.21   37.40
   4   3   8  797.32   40.10
  -5  -3  -8 1504.25   46.60
  -5  -3  -8 1572.74   45.90
   5   3   8 1590.54   47.30
   5   3   8 1560.24   46.80
   5   3   8 1633.74   76.39
  -6  -3  -8  447.16   14.00
  -6  -3  -8  435.96   14.40
  -6  -3  -8  401.06   52.59
   6   3   8  449.16   15.70
   6   3   8  452.15   43.20
   6   3   8  442.26   16.30
  -7  -3  -8   -1.20   12.20
  -7  -3  -8    3.40    1.20
   7   3   8    3.10    2.00
   7   3   8    4.70    2.60
   7   3   8    1.30    9.60
  -8  -3  -8   14.70    1.80
   8   3   8   17.60    3.40
   8   3   8   14.80    3.20
  -9  -3  -8  897.71   28.30
   9   3   8  904.21   29.60
   9   3   8  920.01   30.00
 -10  -3  -8  393.36   14.60
  10   3   8  398.66   16.10
  10   3   8  432.86   15.80
 -11  -3  -8   59.19    4.20
  11   3   8   58.69    5.50
 -12  -3  -8  179.78    8.40
  12   3   8  171.88    9.60
   8  -4  -8  231.88   11.50
  -8   4   8  223.38    8.70
  -8   4   8  229.98   11.10
   7  -4  -8   15.40    3.10
  -7   4   8   19.30    1.90
  -7   4   8   18.30    3.80
   6  -4  -8    1.50    1.30
  -6   4   8    3.10    2.30
   5  -4  -8  244.38   60.39
   5  -4  -8  356.06   14.40
  -5   4   8  363.16   11.80
  -5   4   8  444.96   66.29
  -5   4   8  372.56   13.80
   4  -4  -8   54.19    4.20
   4  -4  -8   26.20   23.10
  -4   4   8   60.29    3.00
  -4   4   8   15.90   20.10
  -4   4   8   60.49    4.40
   3  -4  -8    0.60    1.00
   3  -4  -8   -3.70   10.30
  -3   4   8    0.90    0.70
  -3   4   8    0.20    1.60
  -3   4   8    2.20   11.50
   2  -4  -8  783.72   25.20
   2  -4  -8  743.63   67.99
   2  -4  -8  803.82   22.90
  -2   4   8  780.02   23.20
  -2   4   8  780.02   24.60
  -2   4   8  762.52   70.39
   1  -4  -8 3111.99   87.29
   1  -4  -8 2985.20  137.29
   1  -4  -8 3000.00   88.89
  -1   4   8 3124.09   88.49
  -1   4   8 2905.01   87.09
  -1   4   8 3373.46  148.29
   0  -4  -8 1176.28   34.20
   0  -4  -8 1180.08   61.79
   0  -4  -8 1178.88   35.70
   0   4   8 1207.58   34.90
   0   4   8 1173.58   35.30
  -1  -4  -8  143.39    6.00
  -1  -4  -8  136.69    5.80
   1   4   8  146.19    5.30
   1   4   8  140.19    5.90
  -2  -4  -8   70.59    3.50
  -2  -4  -8   71.39    3.60
  -2  -4  -8   76.29    3.30
  -3  -4  -8 1576.94   45.40
  -3  -4  -8 1542.05   45.40
  -3  -4  -8 1569.74   45.60
  -4  -4  -8  423.46   13.40
  -4  -4  -8  404.86   13.20
  -4  -4  -8  424.56   13.70
   4   4   8  416.46   14.80
  -5  -4  -8   26.00    1.70
  -5  -4  -8   26.40    2.10
  -5  -4  -8   24.70    2.20
   5   4   8   37.20   14.30
   5   4   8   30.50    4.40
   5   4   8   29.20   11.60
  -6  -4  -8  560.74   17.70
   6   4   8  555.54   20.10
   6   4   8  584.04   52.99
   6   4   8  536.55   51.39
  -7  -4  -8   56.39    3.40
   7   4   8   89.99   24.40
   7   4   8   50.59    4.30
   7   4   8   55.09    5.70
   7   4   8   54.19   22.20
  -8  -4  -8  599.94   19.20
   8   4   8  580.24   20.70
   8   4   8  591.14   21.50
   8   4   8  559.24   66.49
  -9  -4  -8  297.97   11.30
   9   4   8  298.37   55.99
   9   4   8  303.97   12.90
   9   4   8  318.17   13.40
 -10  -4  -8   64.59    5.10
  10   4   8   77.29    5.40
 -11  -4  -8    3.00    1.30
  11   4   8    4.50    2.70
 -12  -4  -8  208.28    9.40
  12   4   8  208.78   10.70
   8  -5  -8  275.67   12.80
  -8   5   8  272.67   12.70
   7  -5  -8  676.03   24.20
  -7   5   8  670.13   23.60
  -7   5   8  654.53   20.60
   6  -5  -8   41.10    6.20
  -6   5   8   42.10    2.50
  -6   5   8   44.90    5.80
   5  -5  -8  124.79    7.00
   5  -5  -8   84.79   41.60
   5  -5  -8  120.79    4.50
  -5   5   8  124.09    6.80
  -5   5   8  124.39   41.30
  -5   5   8  120.39    4.80
   4  -5  -8   59.49    4.50
   4  -5  -8   55.99    2.60
  -4   5   8   57.79    4.50
  -4   5   8   73.59   30.50
  -4   5   8   54.39    2.70
   3  -5  -8  244.38   35.30
   3  -5  -8  190.98    6.50
   3  -5  -8  192.58    8.70
  -3   5   8  190.88    6.50
  -3   5   8  293.77   43.00
  -3   5   8  177.88    8.20
   2  -5  -8   -3.30   12.80
  -2   5   8   -6.60    8.00
   1  -5  -8   47.00    2.30
   1  -5  -8   43.70   18.80
   1  -5  -8   45.40    3.30
  -1   5   8   42.00    3.40
  -1   5   8   23.40   14.40
  -1   5   8   43.00    2.30
   0  -5  -8  308.57   11.40
   0  -5  -8  312.27   29.60
   0   5   8  361.06   33.10
   0   5   8  316.47   10.10
   0   5   8  314.97   11.10
  -1  -5  -8  358.06   11.40
  -1  -5  -8  342.77   24.00
  -1  -5  -8  350.36   12.30
   1   5   8  375.96   24.30
   1   5   8  352.66   12.00
  -2  -5  -8 3045.00   85.79
  -2  -5  -8 2922.11   85.59
  -2  -5  -8 3030.50   86.49
   2   5   8 3033.80   85.89
  -3  -5  -8  128.69    5.70
  -3  -5  -8  122.29    5.10
   3   5   8  125.69    5.10
   3   5   8  116.19    6.50
  -4  -5  -8   37.00    2.30
  -4  -5  -8   37.80    2.50
   4   5   8   32.90    4.30
   4   5   8   37.40    2.40
   4   5   8   37.70    7.00
  -5  -5  -8  410.06   13.10
  -5  -5  -8  393.56   13.50
   5   5   8  404.96   33.60
   5   5   8  393.56   15.40
  -6  -5  -8  368.46   12.50
  -6  -5  -8  380.66   13.10
   6   5   8  414.56   40.70
   6   5   8  365.06   15.20
   6   5   8  317.37   40.00
  -7  -5  -8  189.18    7.30
   7   5   8  178.38   10.30
   7   5   8  174.18    8.60
   7   5   8  205.08   37.70
  -8  -5  -8  273.27   10.20
   8   5   8  282.47   47.00
   8   5   8  274.87   11.80
   8   5   8  272.17   14.40
  -9  -5  -8  999.80   31.20
   9   5   8 1002.70   33.10
   9   5   8 1015.80   34.10
   9   5   8  980.10   98.49
 -10  -5  -8  435.86   15.90
  10   5   8  477.95   18.50
  10   5   8  448.66   17.80
 -11  -5  -8   65.59    4.50
  11   5   8   63.29    6.00
 -12  -5  -8    1.50    1.00
  12   5   8    4.50    2.60
   8  -6  -8  146.69    8.70
  -8   6   8  119.49    8.50
   7  -6  -8    1.50    1.80
  -7   6   8    1.60    2.50
   6  -6  -8   81.49    3.60
   6  -6  -8   83.19    5.90
  -6   6   8   84.39    6.20
  -6   6   8   79.19    3.60
   5  -6  -8  380.36   12.00
   5  -6  -8  372.26   14.90
  -5   6   8  371.76   11.70
  -5   6   8  370.76   14.60
   4  -6  -8 1662.53  129.29
   4  -6  -8 1698.93   48.70
   4  -6  -8 1661.33   51.79
  -4   6   8 1695.03   48.30
  -4   6   8 1730.23   51.29
  -4   6   8 1656.83  126.29
   3  -6  -8  171.78   43.40
   3  -6  -8  239.28    8.00
   3  -6  -8  229.78   10.10
  -3   6   8  243.08    9.80
  -3   6   8  235.58    7.50
  -3   6   8  200.68   45.40
   2  -6  -8   90.69   25.50
   2  -6  -8   90.09    5.20
   2  -6  -8   96.59    3.90
  -2   6   8   85.29   26.80
  -2   6   8   91.89    3.40
  -2   6   8   94.49    5.30
   1  -6  -8  484.65   49.30
   1  -6  -8  511.95   17.30
  -1   6   8  489.55   15.00
  -1   6   8  537.95   52.49
   0  -6  -8  264.97   31.00
   0  -6  -8  319.57   10.20
   0  -6  -8  323.37   11.50
   0   6   8  326.57   34.60
   0   6   8  303.87    9.70
   0   6   8  302.77   11.00
  -1  -6  -8   59.39    3.00
  -1  -6  -8   59.89    3.60
  -1  -6  -8   74.59   13.60
   1   6   8   56.79    3.60
   1   6   8   67.49   12.40
   1   6   8   56.69    2.80
  -2  -6  -8  774.82   23.50
  -2  -6  -8  784.72   24.30
  -2  -6  -8  759.12   23.10
   2   6   8  772.52   23.50
  -3  -6  -8 1476.55   43.10
   3   6   8 1466.35   44.90
   3   6   8 1452.75   42.60
  -4  -6  -8  252.97    8.80
  -4  -6  -8  244.78    9.20
   4   6   8  244.28   11.10
   4   6   8  252.27   21.50
   4   6   8  283.17   21.60
   4   6   8  256.97    8.40
  -5  -6  -8  213.38    7.70
  -5  -6  -8  218.78    8.30
   5   6   8  173.48   24.70
   5   6   8  200.98   10.40
   5   6   8  242.38   32.10
  -6  -6  -8   79.79    4.40
  -6  -6  -8   73.09    4.50
   6   6   8   64.99   20.10
   6   6   8   71.79    6.90
  -7  -6  -8   25.20    2.60
  -7  -6  -8   21.50    2.10
   7   6   8   51.59   24.40
   7   6   8   27.40    5.60
   8   6   8   20.70   19.70
   8   6   8   13.20    4.90
  -9  -6  -8   74.19    4.40
   9   6   8   75.69    6.00
   9   6   8   73.59    7.00
 -10  -6  -8   30.20    2.90
  10   6   8   34.10    5.10
 -11  -6  -8   82.89    5.10
  11   6   8   81.79    6.70
   7  -7  -8  109.59    7.40
  -7   7   8  122.59    8.20
   6  -7  -8   16.30    1.70
   6  -7  -8   18.60    3.10
  -6   7   8   19.90    4.20
   5  -7  -8    5.80    2.30
   5  -7  -8   10.20    1.40
  -5   7   8    7.40    2.80
   4  -7  -8  209.98    9.70
   4  -7  -8  215.58    7.50
  -4   7   8  201.28    9.60
   3  -7  -8  317.57   12.80
   3  -7  -8  315.97   10.60
   3  -7  -8  306.67   57.09
  -3   7   8  362.96   53.19
  -3   7   8  316.97   12.40
   2  -7  -8    5.10    1.80
   2  -7  -8   -5.50   13.40
  -2   7   8    4.90    2.20
  -2   7   8   18.00   14.30
   1  -7  -8  496.75   53.29
   1  -7  -8  501.55   17.00
   1  -7  -8  485.45   15.30
  -1   7   8  488.15   16.40
  -1   7   8  400.26   47.20
   0  -7  -8  177.68   28.50
   0  -7  -8  224.58    7.70
   0  -7  -8  218.08    8.80
   0   7   8  209.08    8.30
   0   7   8  215.98   31.20
   0   7   8  197.08    6.70
  -1  -7  -8   -5.10    7.80
   1   7   8   -2.20    6.70
   1   7   8    3.90    1.70
  -2  -7  -8  168.78   20.50
  -2  -7  -8  186.38    7.00
  -2  -7  -8  179.38    6.30
   2   7   8  171.88    6.90
   2   7   8  192.88   19.80
  -3  -7  -8  145.09    5.40
  -3  -7  -8  140.09    6.40
   3   7   8  142.59   19.20
   3   7   8  151.28   10.00
   3   7   8  135.29    5.60
   3   7   8  155.48   16.90
  -4  -7  -8    3.10    1.00
   4   7   8    2.50    1.10
   4   7   8   -0.30    5.40
   4   7   8   12.70    8.10
  -5  -7  -8  357.66   11.80
  -5  -7  -8  361.06   12.60
   5   7   8  309.97   34.40
   5   7   8  345.67   15.10
   5   7   8  389.66   36.50
  -6  -7  -8 1487.25   42.60
  -6  -7  -8 1441.46   43.40
   6   7   8 1306.07   85.49
   6   7   8 1466.15   46.80
  -7  -7  -8  795.62   25.40
  -7  -7  -8  807.72   24.60
   7   7   8  699.13   69.89
   7   7   8  787.22   29.00
  -8  -7  -8   65.19    4.50
  -8  -7  -8   64.99    3.90
   8   7   8   66.09    7.70
   8   7   8   53.39   32.80
   8   7   8   61.99    5.30
  -9  -7  -8    7.10    1.80
   9   7   8    7.70    4.10
   9   7   8    6.10    2.70
 -10  -7  -8  176.78    8.10
  10   7   8  197.88   11.30
  10   7   8  181.38   10.10
 -11  -7  -8  215.18    9.40
  11   7   8  210.38   11.30
   7  -8  -8  192.98   10.00
  -7   8   8  183.28   10.50
   6  -8  -8  172.88    6.70
   6  -8  -8  175.38    9.30
  -6   8   8  175.68    9.80
   5  -8  -8  148.19    5.90
   5  -8  -8  145.89    8.10
  -5   8   8  148.59    8.40
   4  -8  -8  233.78    8.40
   4  -8  -8  231.98   11.90
   3  -8  -8  154.28   50.89
   3  -8  -8  151.88    7.80
  -3   8   8  138.79    7.50
  -3   8   8  173.78   43.50
   2  -8  -8  -15.10   18.60
   2  -8  -8   -0.40    1.00
   2  -8  -8    0.80    0.80
  -2   8   8    1.70    1.90
  -2   8   8    9.00   13.50
   1  -8  -8  422.26   13.70
   1  -8  -8  337.67   47.20
   1  -8  -8  418.06   15.10
  -1   8   8  454.35   53.79
  -1   8   8  410.46   14.70
   0  -8  -8 1741.43   51.09
   0  -8  -8 1748.23   52.29
   0   8   8 1785.92  116.89
   0   8   8 1718.83   51.59
  -1  -8  -8  495.55   46.20
  -1  -8  -8  486.85   17.10
  -1  -8  -8  494.85   16.10
   1   8   8  541.85   45.40
   1   8   8  495.95   16.40
  -2  -8  -8   26.50   12.50
  -2  -8  -8   38.50    2.10
  -2  -8  -8   37.30    2.60
   2   8   8   36.20    4.70
   2   8   8   42.40   15.40
   2   8   8   39.10    3.00
  -3  -8  -8   16.60    1.80
  -3  -8  -8   15.90    1.40
   3   8   8    9.30    8.60
   3   8   8   17.80    2.20
   3   8   8   21.20    4.60
  -4  -8  -8   19.20    2.00
  -4  -8  -8   19.80    1.70
   4   8   8   44.60   13.80
   4   8   8   24.80    5.30
   4   8   8   18.10    2.00
   4   8   8    6.40   12.30
  -5  -8  -8   98.09    5.10
   5   8   8   75.79   22.80
   5   8   8  100.29    8.10
  -6  -8  -8   29.10    2.60
  -6  -8  -8   27.70    2.30
   6   8   8   14.00   15.90
   6   8   8   33.20    6.40
  -7  -8  -8   11.70    2.00
  -7  -8  -8   17.60    3.00
   7   8   8   18.00    5.80
   7   8   8   39.80   19.50
  -8  -8  -8    1.10    1.80
  -8  -8  -8    1.40    0.80
   8   8   8    5.20    4.20
  -9  -8  -8  146.29    6.80
   9   8   8  146.19    8.90
   9   8   8  143.29   10.80
 -10  -8  -8  161.88    7.80
  10   8   8  199.28   11.80
  10   8   8  170.58   10.10
 -11  -8  -8   24.70    2.80
  11   8   8   29.60    5.30
   6  -9  -8  287.67   12.90
   6  -9  -8  277.47   10.10
  -6   9   8  277.37   13.30
   5  -9  -8  107.29    6.70
   5  -9  -8  112.49    5.00
  -5   9   8  107.59    7.60
   4  -9  -8    6.40    2.00
  -4   9   8    6.10    2.80
   3  -9  -8   38.40    4.80
   3  -9  -8   43.20    2.80
  -3   9   8   35.60    4.40
   2  -9  -8    8.60   26.60
   2  -9  -8   27.20    3.10
   2  -9  -8   28.10    2.30
  -2   9   8   30.70   19.70
  -2   9   8   27.70    3.80
   1  -9  -8    3.30    1.60
   1  -9  -8  -36.20   29.80
   1  -9  -8    2.40    1.00
  -1   9   8    3.60    2.20
  -1  -9  -8    0.50    0.90
  -1  -9  -8    0.40    0.70
   1   9   8    0.40    1.70
  -2  -9  -8  -22.10   12.60
   2   9   8  -18.20   10.20
   2   9   8    7.10    3.60
  -3  -9  -8  446.66   13.90
  -3  -9  -8  449.36   15.00
   3   9   8  446.16   18.20
   3   9   8  379.56   40.10
   3   9   8  440.96   14.40
  -4  -9  -8  799.42   25.50
  -4  -9  -8  847.62   24.50
   4   9   8  752.02   57.79
   4   9   8  821.32   29.00
   4   9   8  785.32   24.30
  -5  -9  -8  448.16   14.20
  -5  -9  -8  433.86   15.20
   5   9   8  439.46   18.90
   5   9   8  366.06   43.30
  -6  -9  -8   14.10    2.00
   6   9   8   -9.20   12.50
   6   9   8   23.40    6.30
  -7  -9  -8   69.79    3.90
  -7  -9  -8   66.39    5.10
   7   9   8   68.89    8.50
   7   9   8   32.90   24.10
  -8  -9  -8  252.87    9.90
  -8  -9  -8  268.27   11.10
   8   9   8  261.07   15.50
  -9  -9  -8  174.78    8.70
  -9  -9  -8  179.48    7.80
   9   9   8  170.98   10.00
   9   9   8  184.78   12.60
 -10  -9  -8  196.98    8.60
  10   9   8  195.28   11.10
  10   9   8  198.78   12.50
   5 -10  -8    9.50    2.50
  -5  10   8    7.00    3.60
   4 -10  -8    5.50    1.40
   4 -10  -8   10.00    2.60
  -4  10   8    4.50    3.00
   3 -10  -8  592.94   21.30
   3 -10  -8  592.94   19.20
  -3  10   8  596.44   21.40
   2 -10  -8  991.00   30.10
   2 -10  -8  963.40   32.00
  -2  10   8  982.00   31.80
   1 -10  -8  104.99   36.40
   1 -10  -8  156.68    6.60
   1 -10  -8  147.19    7.60
  -1  10   8  155.98    7.80
  -1  10   8  102.29   32.40
   0 -10  -8   13.60    2.30
   0 -10  -8  -31.60   18.90
   0  10   8    7.20   17.20
  -1 -10  -8  167.88   37.10
  -1 -10  -8  183.38    7.50
   1  10   8  201.28   33.00
   1  10   8  185.48   10.60
   1  10   8  177.58    8.10
  -2 -10  -8  229.58    9.00
  -2 -10  -8  143.99   32.60
   2  10   8  232.18    9.20
   2  10   8  234.08   12.10
   2  10   8  260.37   34.70
  -3 -10  -8   37.20    2.10
  -3 -10  -8   31.90    2.80
   3  10   8   23.50   13.90
   3  10   8   44.10    7.20
   3  10   8   35.50    3.20
  -4 -10  -8  116.69    5.80
  -4 -10  -8  118.29    4.90
   4  10   8  121.69    9.50
   4  10   8  117.19   29.30
   4  10   8  119.59    5.40
  -5 -10  -8  223.48    9.30
   5  10   8  217.78   33.50
   5  10   8  229.68   13.30
  -6 -10  -8    9.50    2.30
   6  10   8   11.60   17.70
   6  10   8   21.50    6.80
  -7 -10  -8  276.27   11.40
  -7 -10  -8  272.97   10.20
   7  10   8  271.57   15.90
  -8 -10  -8   19.40    2.80
  -8 -10  -8   24.60    3.10
   8  10   8   26.30    6.90
  -9 -10  -8   47.00    4.30
  -9 -10  -8   47.20    3.50
   9  10   8   58.09    8.30
   4 -11  -8    5.20    1.40
   4 -11  -8   10.60    2.40
  -4  11   8    5.00    3.30
   3 -11  -8    3.00    1.90
   3 -11  -8    5.60    1.60
  -3  11   8    4.00    2.80
   2 -11  -8  120.99    7.00
   2 -11  -8  116.29    7.00
  -2  11   8  124.59    7.60
   1 -11  -8   95.49    6.10
   1 -11  -8   97.69    5.10
  -1  11   8  101.19    6.70
   0 -11  -8   10.70    2.00
   0  11   8   13.30    4.60
   0  11   8   11.00    3.00
  -1 -11  -8  442.86   15.00
  -1 -11  -8  284.17   55.89
   1  11   8  450.95   15.60
   1  11   8  401.76   53.59
   1  11   8  434.66   22.30
  -2 -11  -8   72.49   32.10
  -2 -11  -8  142.39    6.60
   2  11   8  146.69    7.00
   2  11   8  101.19   27.20
   2  11   8  147.19   14.50
  -3 -11  -8   15.00    2.10
  -3 -11  -8   -0.90   18.90
  -3 -11  -8   21.00    1.40
   3  11   8   19.30    2.90
   3  11   8    9.60   20.30
  -4 -11  -8  114.69    6.50
  -4 -11  -8  121.29    4.70
   4  11   8   93.89   11.30
   4  11   8   54.39   25.30
  -5 -11  -8  101.49    5.70
  -5 -11  -8  109.99    4.90
   5  11   8   93.09    9.70
  -6 -11  -8   30.60    3.20
  -6 -11  -8   38.60    2.70
   6  11   8   43.50    8.10
  -7 -11  -8  227.28   10.10
   7  11   8  233.68   15.10
  -8 -11  -8  654.23   23.30
  -8 -11  -8  682.13   21.90
   8  11   8  671.63   28.90
  -9 -11  -8  177.28    7.80
  -9 -11  -8  169.28    8.90
   9  11   8  181.38   13.10
   3 -12  -8   26.20    2.80
   3 -12  -8   35.30    3.70
  -3  12   8   31.00    5.20
   2 -12  -8  238.38    9.50
   2 -12  -8  239.58   11.00
  -2  12   8  234.88   11.50
   1 -12  -8   87.69    4.80
  -1  12   8   78.09    8.30
  -1  12   8   79.79    6.40
   0 -12  -8    5.00    1.60
   0  12   8    3.90    4.10
   0  12   8    7.90    3.10
  -1 -12  -8  142.69    6.80
   1  12   8  143.49    7.80
   1  12   8  148.59   10.60
  -2 -12  -8  675.63   22.10
   2  12   8  642.54   26.30
   2  12   8  680.33   22.30
  -3 -12  -8   64.29    4.30
   3  12   8   70.99    8.90
   3  12   8   74.89    4.80
  -4 -12  -8   61.49    4.20
   4  12   8   62.19    8.70
  -5 -12  -8    4.70    1.80
  -5 -12  -8    2.90    1.20
   5  12   8    7.20    6.00
  -6 -12  -8  113.19    6.60
  -6 -12  -8  129.59    5.60
   6  12   8  121.69   11.90
  -7 -12  -8    0.60    1.00
  -7 -12  -8    0.30    1.30
   7  12   8    3.10    5.30
  -8 -12  -8    7.20    2.50
   8  12   8   13.90    5.70
   1 -13  -8    2.30    1.30
  -1  13   8    2.20    4.60
  -1  13   8    3.20    2.80
   0 -13  -8   12.60    2.30
   0  13   8   13.90    3.60
   0  13   8   21.20    6.20
  -1 -13  -8  148.69    7.10
   1  13   8  141.89   11.10
   1  13   8  145.99    9.50
  -2 -13  -8    8.60    2.00
   2  13   8   12.90    2.90
   2  13   8    8.60    5.70
  -3 -13  -8   29.80    3.10
   3  13   8   34.10    8.10
   3  13   8   44.20    3.80
  -4 -13  -8  152.68    7.50
   4  13   8  149.99   12.40
  -5 -13  -8  667.53   22.70
   5  13   8  651.23   28.70
  -6 -13  -8  232.18   10.50
   6  13   8  236.68   16.30
  -2 -14  -8   66.79    4.60
   2  14   8   66.59   12.80
  -3 -14  -8   26.40    3.10
   3  14   8   32.70   11.80
  -2 -12   9    0.90    1.10
  -2 -12   9    3.50    1.60
  -1 -12   9   19.20    2.70
  -1 -12   9   16.80    2.50
   0 -12   9    2.80    1.40
   0 -12   9    7.10    2.00
  -2  12  -9   77.79    5.80
   2 -12   9   78.89    4.90
   2 -12   9   78.99    4.50
  -3  12  -9   54.89    5.00
   3 -12   9   42.00    3.90
   3 -12   9   59.59    3.90
  -4  12  -9  119.49    7.60
   4 -12   9  110.69    6.40
   4  11  -9  159.78    7.90
   4  11  -9  134.59    6.70
  -3 -11   9   71.49    4.70
  -3 -11   9   67.99    3.90
   2  11  -9   76.89    4.40
  -2 -11   9   63.29    3.90
  -2 -11   9   64.69    4.50
   1  11  -9  114.09    6.70
  -1 -11   9  114.79    5.50
  -1 -11   9  115.79    7.60
   0  11  -9  181.78   11.50
   0 -11   9  186.78    8.10
   0 -11   9  181.48    7.80
  -1  11  -9    2.40    1.70
   1 -11   9    1.80    1.70
   1 -11   9    0.50    1.20
  -2  11  -9   30.40    3.70
   2 -11   9   26.70    3.20
  -3  11  -9   34.40    4.20
   3 -11   9   33.30    3.10
   3 -11   9   37.20    3.10
  -4  11  -9   98.19    6.40
   4 -11   9   89.09    4.90
   4 -11   9   85.89    5.30
  -5  11  -9  132.09    8.10
   5 -11   9  132.39    6.10
   5 -11   9  130.49    7.00
   6 -11   9   72.49    5.20
  -5 -10   9    3.50    1.80
   4  10  -9  105.29    4.60
   4  10  -9   96.39    6.90
  -3 -10   9   27.80    2.20
  -3 -10   9   22.10    3.00
   2  10  -9  125.89    6.70
   2  10  -9  145.19    8.50
  -2 -10   9  142.99    9.50
  -2 -10   9  132.59    5.80
   1  10  -9  149.49    7.70
   1  10  -9  168.78    9.00
  -1 -10   9  151.78    6.50
  -1 -10   9  150.78    7.20
   0  10  -9  103.19    6.10
   0 -10   9  105.49    5.70
   0 -10   9  107.79    5.20
  -1  10  -9  170.88    8.50
   1 -10   9  173.68    7.40
   1 -10   9  176.08    7.60
  -2  10  -9   26.10    3.50
   2 -10   9   24.10    2.80
   2 -10   9   25.50    2.50
  -3  10  -9   22.30    3.20
   3 -10   9   20.70    2.50
  -4  10  -9   41.40    4.30
   4 -10   9   41.80    3.30
   4 -10   9   39.40    3.60
  -5  10  -9   11.40    2.90
   5 -10   9    7.00    2.00
   5 -10   9    9.60    2.20
  -6  10  -9   63.99    5.60
   6 -10   9   66.99    4.30
   6 -10   9   67.29    4.60
  -7  10  -9   66.79    5.70
   7 -10   9   64.19    4.30
   7 -10   9   59.39    4.70
   6   9  -9  176.28    9.00
  -6  -9   9  122.89    7.20
   5   9  -9   93.39    3.90
   5   9  -9   77.39    6.10
   4   9  -9   24.60    2.40
   4   9  -9   29.20    4.10
   3   9  -9    6.70    2.70
   3   9  -9    0.80    1.30
  -3  -9   9    3.40    1.00
  -3  -9   9    4.60    1.90
   2   9  -9   17.40    2.70
   2   9  -9   26.60    4.20
  -2  -9   9   17.50    3.00
   1   9  -9  165.98    8.80
   1   9  -9  102.89   51.49
   1   9  -9  161.38    7.80
  -1  -9   9  159.88    6.50
  -1  -9   9  164.78    7.30
   0   9  -9   88.39   38.20
   0   9  -9  101.39    5.90
   0  -9   9  105.99    4.90
   0  -9   9  103.69    5.50
  -1   9  -9  351.86   13.00
  -1   9  -9  315.17   12.90
  -1   9  -9  202.98   55.09
   1  -9   9  333.47   12.00
   1  -9   9  344.97   11.90
  -2   9  -9  385.06   15.20
  -2   9  -9  427.46   14.40
   2  -9   9  241.78   62.89
   2  -9   9  407.06   13.90
   2  -9   9  416.46   14.10
  -3   9  -9   26.60    3.50
   3  -9   9   31.00    2.70
   3  -9   9   25.60    2.80
  -4   9  -9  149.09    8.10
   4  -9   9  157.98    7.20
  -5   9  -9    6.10    2.20
   5  -9   9    5.10    1.30
   5  -9   9    5.20    1.80
  -6   9  -9   28.90    3.80
   6  -9   9   25.10    2.80
   6  -9   9   28.20    3.10
  -7   9  -9    2.20    1.70
   7  -9   9    1.50    1.80
   7  -9   9    4.70    1.60
  -8   9  -9   48.90    4.80
   8  -9   9   49.60    4.20
   8  -9   9   41.00    3.70
  -6  -8   9   11.40    2.70
   5   8  -9  212.28    8.20
   5   8  -9  199.78   10.30
  -5  -8   9  177.58    8.60
   4   8  -9  117.69    5.80
   4   8  -9  111.99    7.50
  -4  -8   9  118.59    6.20
   3   8  -9   20.20    3.40
   3   8  -9   25.90    2.70
  -3  -8   9   20.80    2.80
   2   8  -9   41.10    4.40
   2   8  -9   48.90    3.70
   2   8  -9   21.10   34.10
  -2  -8   9   47.90    2.70
  -2  -8   9    6.40   39.70
  -2  -8   9   40.80    3.50
   1   8  -9   26.20    3.00
   1   8  -9   34.10    3.80
   1   8  -9   49.10   31.90
  -1  -8   9   26.70    3.00
  -1  -8   9   29.30    2.10
  -1  -8   9   28.30   37.50
   0   8  -9   35.20    3.20
   0   8  -9   17.60   32.10
   0  -8   9   25.30    2.80
   0  -8   9    5.90   33.50
   0  -8   9   31.60    2.30
  -1   8  -9   38.60    3.70
  -1   8  -9    1.60   20.40
  -1   8  -9   35.30    3.30
   1  -8   9    2.70   31.70
   1  -8   9   34.10    2.90
   1  -8   9   31.10    2.40
  -2   8  -9   17.80   23.40
  -2   8  -9   52.49    4.30
  -2   8  -9   71.29    3.90
   2  -8   9   55.99    3.70
   2  -8   9   54.49    3.40
   2  -8   9   46.50   33.50
  -3   8  -9   92.59   30.80
  -3   8  -9   87.69    5.80
   3  -8   9   91.99    4.90
   3  -8   9   98.69    4.90
   3  -8   9   95.69   40.10
  -4   8  -9   60.09    4.90
   4  -8   9   40.60   32.80
   4  -8   9   59.89    3.90
   4  -8   9   61.79    4.00
  -5   8  -9  201.08    9.70
   5  -8   9  213.18    8.80
  -6   8  -9   12.70    5.20
   6  -8   9   15.90    2.70
  -7   8  -9    5.80    2.10
   7  -8   9    3.60    1.80
  -8   8  -9   16.50    3.60
   8  -8   9   17.10    2.40
   8  -8   9   15.20    2.50
  -9   8  -9   26.70    4.00
   9  -8   9   20.00    2.80
   9  -8   9   23.10    3.30
   7   7  -9   22.00    3.50
   6   7  -9  126.89    8.20
   6   7  -9  149.19    6.30
  -6  -7   9  127.29    6.90
   5   7  -9   -0.40    1.60
  -5  -7   9    1.70    1.20
   4   7  -9   85.99    6.20
   4   7  -9   58.69   60.19
   4   7  -9   96.69    5.20
  -4  -7   9   88.19    5.20
   3   7  -9  103.59    6.60
   3   7  -9   94.79   39.80
   3   7  -9  109.99    5.60
  -3  -7   9  112.89    5.80
   2   7  -9  134.29    7.30
   2   7  -9   85.79   39.50
   2   7  -9  141.69    6.80
  -2  -7   9  150.58    5.40
  -2  -7   9  147.49    6.70
  -2  -7   9  168.98   51.79
   1   7  -9  400.36   69.79
   1   7  -9  401.96   14.70
   1   7  -9  397.76   15.20
  -1  -7   9  429.66   13.10
  -1  -7   9  427.06   14.30
  -1  -7   9  271.87   62.59
   0   7  -9   31.50    3.10
   0   7  -9   36.90    3.00
   0   7  -9   66.19   46.20
   0  -7   9   -4.40   55.99
   0  -7   9   28.80    2.90
   0  -7   9   33.40    2.20
  -1   7  -9    3.10    1.60
  -1   7  -9    4.20   18.20
  -1   7  -9    4.20    1.30
   1  -7   9  -11.40   15.60
   1  -7   9    4.80    1.20
  -2   7  -9    2.30    1.10
  -2   7  -9  -12.70   31.30
  -2   7  -9    0.90    1.40
   2  -7   9    1.10    0.80
   2  -7   9   -0.20    1.20
   2  -7   9   -5.80   22.90
  -3   7  -9   16.50   20.90
   3  -7   9   30.60   17.70
  -4   7  -9    8.10    2.40
  -4   7  -9    4.10   20.60
   4  -7   9  -19.30   21.70
   4  -7   9    5.10    1.60
   4  -7   9    5.10    1.50
  -5   7  -9   91.29    5.90
  -5   7  -9   42.50   29.50
   5  -7   9   98.09    5.30
   5  -7   9  104.19    5.10
   5  -7   9  130.49   35.50
  -6   7  -9  180.78    9.10
   6  -7   9  189.78    7.70
   6  -7   9  184.78    8.30
  -7   7  -9    8.10    2.60
   7  -7   9   13.40    2.50
   7  -7   9   14.20    2.60
  -8   7  -9  132.79    7.90
   8  -7   9  140.29    7.30
  -9   7  -9   53.79    3.90
  -9   7  -9   55.89    5.10
   9  -7   9   44.70    4.10
 -10   7  -9   15.60    2.70
  10  -7   9   13.00    3.00
   7   6  -9  140.59    8.60
  -7  -6   9  126.59    6.50
  -7  -6   9  135.39    7.10
   6   6  -9   28.70    2.50
   6   6  -9   25.20    3.80
  -6  -6   9   20.50    2.80
   5   6  -9    4.40    1.60
   5   6  -9    4.70    2.20
  -5  -6   9    3.10    1.50
   4   6  -9   14.60   43.70
   4   6  -9    6.00    1.60
   4   6  -9    2.00    1.70
  -4  -6   9    2.10    1.40
   3   6  -9   -0.10    1.10
   3   6  -9   -5.60   29.00
   3   6  -9   -0.10    1.50
  -3  -6   9    1.20    1.40
   2   6  -9    2.10   18.60
  -2  -6   9  -29.40   22.60
   1   6  -9   27.60    2.80
   1   6  -9    5.50   20.60
   1   6  -9   28.50    2.90
  -1  -6   9   29.90    1.80
  -1  -6   9   27.50    2.70
  -1  -6   9   41.80   29.80
   0   6  -9   38.70    2.90
   0   6  -9   43.00    3.40
   0   6  -9   37.00   24.40
   0  -6   9   40.40    3.10
   0  -6   9   33.60   25.40
   0  -6   9   41.10    2.30
  -1   6  -9   23.60    2.30
  -1   6  -9   27.90    2.80
  -1   6  -9   38.20   28.60
   1  -6   9   27.60    2.60
   1  -6   9   26.70    1.90
   1  -6   9   39.70   20.80
  -2   6  -9  254.07   10.20
  -2   6  -9  218.48    9.30
   2  -6   9  254.17    9.80
   2  -6   9  256.07    8.90
   2  -6   9  312.37   53.49
  -3   6  -9  209.48    9.10
  -3   6  -9  113.99   36.50
   3  -6   9  203.28   47.60
   3  -6   9  214.38    8.20
   3  -6   9  213.28    8.00
  -4   6  -9   18.00    3.10
  -4   6  -9   33.30   22.80
   4  -6   9   16.40    2.00
   4  -6   9   18.10   19.60
  -5   6  -9   18.70    2.70
  -5   6  -9   29.80   23.60
   5  -6   9   19.00    2.20
   5  -6   9    9.50   21.00
   5  -6   9   19.60    2.30
  -6   6  -9   31.30    3.50
   6  -6   9   32.80    3.10
   6  -6   9   34.50    3.00
  -7   6  -9   44.40    4.20
  -7   6  -9   48.90    3.50
   7  -6   9   46.50    3.70
  -8   6  -9  150.88    8.20
  -8   6  -9  155.18    7.20
   8  -6   9  155.58   10.50
  -9   6  -9  268.27   10.60
  -9   6  -9  256.67   11.70
   9  -6   9  254.07   11.20
 -10   6  -9  192.68    8.70
 -10   6  -9  209.78   10.00
  10  -6   9  183.68    9.40
   8   5  -9   32.70    4.10
  -8  -5   9   27.40    3.30
  -8  -5   9   22.60    3.40
  -7  -5   9   18.60    3.00
  -7  -5   9   17.20    3.00
   6   5  -9   55.99    5.20
  -6  -5   9   57.99    4.20
   5   5  -9  101.39   51.39
   4   5  -9  320.67   11.70
   4   5  -9  244.78   63.59
   4   5  -9  220.68   61.79
   4   5  -9  311.67   13.10
  -4  -5   9  323.17   11.70
   3   5  -9  316.17   11.50
   3   5  -9  400.76   66.79
   3   5  -9  288.27   12.20
   3   5  -9  235.08   77.99
  -3  -5   9  309.57   11.30
   2   5  -9   39.00    4.40
   2   5  -9   25.40    2.90
   2   5  -9   16.00   23.90
  -2  -5   9   20.30   26.10
  -2  -5   9   28.40    2.80
   1   5  -9   -4.50   20.00
   1   5  -9   38.80    3.10
   1   5  -9   42.70    3.30
  -1  -5   9   41.10    3.10
  -1  -5   9   69.49   30.50
   0   5  -9   38.30    3.20
   0   5  -9   33.00    2.30
   0   5  -9   -3.70   18.30
   0  -5   9   39.70    2.00
   0  -5   9   60.79   29.60
  -1   5  -9   18.70    1.90
  -1   5  -9   20.10    2.50
  -1   5  -9   14.90   18.80
   1  -5   9   19.50    1.60
   1  -5   9   20.70   17.90
   1  -5   9   20.30    2.40
  -2   5  -9   31.90    3.50
  -2   5  -9   45.20   23.10
  -2   5  -9   29.60    2.00
   2  -5   9   25.00   18.50
   2  -5   9   34.60    2.80
   2  -5   9   36.10    2.30
  -3   5  -9  902.71   28.70
  -3   5  -9  760.82   83.69
   3  -5   9  916.11   27.50
   3  -5   9  962.00   87.99
   3  -5   9  926.41   27.70
  -4   5  -9  444.76   61.59
  -4   5  -9  487.75   17.40
   4  -5   9  522.25   16.40
   4  -5   9  493.15   63.89
   4  -5   9  506.55   16.50
  -5   5  -9   18.20   15.10
  -5   5  -9   11.70    2.50
   5  -5   9   12.10    2.10
   5  -5   9   16.60   23.70
  -6   5  -9   65.09   33.20
  -6   5  -9  122.99    6.70
  -6   5  -9  137.59    6.20
   6  -5   9  131.69    6.40
   6  -5   9  114.29   36.40
  -7   5  -9   38.30    3.80
  -7   5  -9   36.30    3.00
   7  -5   9   42.70    3.60
  -8   5  -9  122.69    5.90
  -8   5  -9  112.59    6.60
   8  -5   9  112.89    6.40
  -9   5  -9    2.70    2.00
  -9   5  -9    3.60    1.30
   9  -5   9    5.40    1.90
 -10   5  -9    2.50    1.90
  10  -5   9    3.90    1.80
 -11   5  -9   44.70    3.60
  11  -5   9   33.00    4.00
   8   4  -9   14.20    3.10
  -8  -4   9    8.40    2.40
  -8  -4   9   17.30    3.00
   7   4  -9   19.90    3.30
  -7  -4   9   24.60    2.90
  -7  -4   9   16.80    2.20
   6   4  -9   35.10    5.60
  -6  -4   9   41.20    3.50
   5   4  -9   27.80    2.80
   5   4  -9   27.30    3.50
   5   4  -9   73.49   35.40
  -5  -4   9   25.80    2.80
   4   4  -9   -0.70   20.90
   4   4  -9    1.40   40.30
   3   4  -9  454.85   82.49
   3   4  -9  443.26   16.50
   3   4  -9  522.05   67.89
  -3  -4   9  453.85   15.40
   2   4  -9  172.58    7.40
   2   4  -9  168.18    7.80
   2   4  -9  129.39   36.60
  -2  -4   9  171.48    7.10
   1   4  -9   58.79    3.80
   1   4  -9   56.99    3.70
   1   4  -9   51.59   25.60
  -1  -4   9   54.59   22.10
   0   4  -9  327.87   12.10
   0   4  -9  309.27   50.19
   0  -4   9  261.57   49.30
   0  -4   9  324.97   10.20
   0  -4   9  343.37   11.50
  -1   4  -9    8.50   10.50
  -1   4  -9    3.70    1.50
  -1   4  -9    4.20    1.10
   1  -4   9   12.70   16.10
   1  -4   9    6.10    1.70
   1  -4   9    7.90    1.20
  -2   4  -9    8.30   11.70
  -2   4  -9    1.50    0.80
  -2   4  -9   -0.50    1.00
   2  -4   9    0.30    0.60
   2  -4   9    4.10   14.40
   2  -4   9    0.00    1.10
  -3   4  -9  314.87   11.90
  -3   4  -9  294.87   48.80
   3  -4   9  309.47   10.90
   3  -4   9  348.07   50.29
   3  -4   9  336.97   11.30
  -4   4  -9   13.30   13.70
  -4   4  -9   10.80    2.30
   4  -4   9   11.70    2.00
   4  -4   9    2.70   13.40
   4  -4   9   13.20    2.10
  -5   4  -9    1.10    1.30
  -5   4  -9   -0.60   16.50
  -5   4  -9    0.40    0.80
   5  -4   9    3.50    1.50
   5  -4   9  -12.20   13.70
  -6   4  -9 1064.59  103.39
  -6   4  -9 1186.58   37.10
  -6   4  -9 1213.48   36.30
   6  -4   9 1308.87  104.09
   6  -4   9 1194.18   36.70
  -7   4  -9  830.52   27.30
  -7   4  -9  847.12   26.50
   7  -4   9  845.72   27.20
  -8   4  -9   13.90    1.90
  -8   4  -9   14.10    2.80
   8  -4   9   22.40    3.70
  -9   4  -9    1.70    1.10
  -9   4  -9    3.00    1.70
 -10   4  -9  103.09    6.50
 -10   4  -9   91.19    5.90
 -11   4  -9  132.29    6.90
 -11   4  -9  167.88    8.10
  11  -4   9  130.29    7.70
   8   3  -9   10.10    2.50
  -8  -3   9   11.40    2.50
   7   3  -9  117.59    7.80
  -7  -3   9  127.89    6.40
   6   3  -9  143.19    8.40
  -6  -3   9  140.09    6.90
  -6  -3   9  135.39    6.70
   5   3  -9   36.70    3.20
   5   3  -9   31.90    3.70
   5   3  -9   70.99   46.20
  -5  -3   9   32.60    3.10
   4   3  -9  232.58   54.29
   4   3  -9  275.27   10.40
   4   3  -9  190.18   58.69
   4   3  -9  259.97   11.30
  -4  -3   9  272.17   10.10
   3   3  -9  376.16   14.20
   3   3  -9  390.26   69.39
   3   3  -9  464.75   70.29
   3   3  -9  368.16   13.40
  -3  -3   9  363.26   12.90
   2   3  -9   37.10    3.20
   2   3  -9   39.10    3.00
   2   3  -9   55.79   26.20
   2   3  -9   52.49   23.70
  -2  -3   9   38.20    3.00
   1   3  -9    1.00    1.10
   1   3  -9  -12.30   10.70
  -1  -3   9   10.30   15.50
  -1  -3   9    0.60    1.20
   0   3  -9 2192.48   66.99
   0   3  -9 2244.28  134.69
   0  -3   9 2392.26  143.49
   0  -3   9 2362.66   66.39
  -1   3  -9 1681.43   50.49
  -1   3  -9 1731.73   51.49
  -1   3  -9 1510.45  106.99
   1  -3   9 1825.62  118.59
   1  -3   9 1798.62   50.79
   1  -3   9 1813.82   49.80
  -2   3  -9   21.10    2.30
  -2   3  -9   14.40    1.30
  -2   3  -9   11.90   10.00
   2  -3   9   14.10    1.50
   2  -3   9   15.70    2.10
   2  -3   9    1.00   10.70
  -3   3  -9   21.00    2.30
  -3   3  -9   21.20   15.80
   3  -3   9    7.80   13.60
   3  -3   9   18.50    1.90
   3  -3   9   20.00    2.30
  -4   3  -9  304.67   46.70
  -4   3  -9  426.06   14.20
  -4   3  -9  411.36   14.50
   4  -3   9  459.15   53.79
   4  -3   9  432.66   14.00
  -5   3  -9   32.90    2.50
  -5   3  -9   30.90    2.90
  -5   3  -9   12.10   11.80
   5  -3   9   30.10    2.80
   5  -3   9   43.10   20.90
  -6   3  -9    1.40    0.90
  -6   3  -9   23.00   10.30
  -6   3  -9    3.70    2.00
   6  -3   9  -10.80   10.00
   6  -3   9    0.80    1.50
  -7   3  -9  173.08    7.10
  -7   3  -9  156.78    7.50
   7  -3   9  147.89   39.60
   7  -3   9  165.18    7.70
  -8   3  -9  366.26   13.80
  -8   3  -9  379.26   13.20
   8  -3   9  359.16   13.90
  -9   3  -9   34.20    3.60
  -9   3  -9   34.70    2.90
   9  -3   9   33.10    3.70
 -10   3  -9  471.85   16.80
 -10   3  -9  504.85   17.70
  10  -3   9  471.85   18.00
 -11   3  -9   38.90    3.40
  11  -3   9   31.20    3.90
 -12   3  -9    0.90    1.40
  12  -3   9    3.50    1.80
   8   2  -9   42.70    4.70
  -8  -2   9   42.30    3.60
   7   2  -9    2.90    1.60
  -7  -2   9    1.80    2.10
  -7  -2   9    0.30    1.30
   6   2  -9  732.93   26.60
  -6  -2   9  777.82   24.90
  -6  -2   9  771.02   24.50
   5   2  -9  345.17   14.40
   5   2  -9  285.97   69.89
  -5  -2   9  346.97   12.90
  -5  -2   9  368.26   12.80
   4   2  -9   19.00    2.70
   4   2  -9   13.60   22.30
   4   2  -9   22.40    2.50
   4   2  -9   36.50   23.90
  -4  -2   9   20.80    2.40
   3   2  -9   82.99   33.00
   3   2  -9   69.09    5.00
   3   2  -9   66.39    4.00
  -3  -2   9   70.49    4.00
   2   2  -9  116.29   36.40
   2   2  -9   80.79   29.60
   2   2  -9   93.79    5.30
   2   2  -9   91.69    4.90
  -2  -2   9  100.39    4.80
   1   2  -9  113.29   29.50
   1   2  -9  186.08    7.60
   1   2  -9  177.88    7.60
  -1  -2   9  177.68    7.00
   0   2  -9  155.98   30.60
   0   2  -9  180.68    7.50
   0  -2   9  176.98    6.90
   0  -2   9  195.08   38.30
  -1   2  -9  459.75   15.70
  -1   2  -9  460.05   14.90
  -1   2  -9  423.56   49.20
   1  -2   9  482.15   15.20
   1  -2   9  467.95   14.10
   1  -2   9  517.95   56.29
  -2   2  -9  178.48    6.30
  -2   2  -9  156.78   28.20
  -2   2  -9  178.68    7.50
   2  -2   9  183.38    7.00
   2  -2   9  178.18   32.80
   2  -2   9  190.08    6.60
  -3   2  -9 1367.46   41.00
  -3   2  -9 1166.38   85.99
   3  -2   9 1469.15   91.49
   3  -2   9 1381.16   40.20
   3  -2   9 1413.46   40.40
  -4   2  -9 1961.30   57.79
  -4   2  -9 1871.51  115.09
  -4   2  -9 1980.70   58.09
   4  -2   9 1953.40   57.49
   4  -2   9 2130.49  115.49
  -5   2  -9   87.09   27.50
  -5   2  -9   97.09    4.70
  -5   2  -9  101.49    5.20
   5  -2   9   96.49    5.10
   5  -2   9  115.59   31.00
  -6   2  -9   29.80   34.50
  -6   2  -9  100.99    5.30
   6  -2   9  105.49   42.50
  -7   2  -9  528.65   17.40
  -7   2  -9  489.45   66.89
  -7   2  -9  534.05   18.20
   7  -2   9  535.75   18.20
   7  -2   9  530.05   64.19
  -8   2  -9   84.49    5.00
  -8   2  -9   83.09    4.50
   8  -2   9   89.59    5.60
  -9   2  -9    1.80    1.10
  -9   2  -9    7.20    2.00
   9  -2   9    3.00    2.00
 -10   2  -9  632.74   20.50
 -10   2  -9  609.04   20.80
  10  -2   9  576.74   21.40
 -11   2  -9  699.23   22.90
  11  -2   9  667.83   24.10
   8   1  -9   14.40    3.20
  -8  -1   9   16.40    2.90
  -8  -1   9   16.60    3.50
   7   1  -9  398.76   16.70
  -7  -1   9  424.86   15.30
   6   1  -9   47.80   78.59
   6   1  -9  108.59    6.90
  -6  -1   9  117.49    6.40
  -6  -1   9  119.99    5.80
   5   1  -9  220.48   10.20
   5   1  -9  191.18   59.19
  -5  -1   9  209.28    9.10
  -5  -1   9  225.58    8.70
   4   1  -9   42.40    3.40
   4   1  -9   86.99   24.40
   4   1  -9   44.70    3.80
  -4  -1   9   44.80    3.20
   3   1  -9 1163.58   35.80
   3   1  -9 1174.28  112.49
   2   1  -9 1142.69   90.19
   2   1  -9 1111.09   34.60
   2   1  -9 1154.88  103.99
   2   1  -9 1114.69   34.20
  -2  -1   9 1105.19   33.50
   1   1  -9   99.59    5.00
   1   1  -9   93.89   35.40
   1   1  -9   79.79   24.10
   1   1  -9  104.39    5.20
  -1  -1   9  104.09    4.70
   0   1  -9  437.36   15.10
   0   1  -9  463.45   48.40
   0   1  -9  447.56   14.80
   0  -1   9  455.15   14.50
  -1   1  -9 1756.32   51.39
  -1   1  -9 1731.83   51.29
  -1   1  -9 1585.34   94.89
   1  -1   9 1722.73  101.89
   1  -1   9 1804.02   50.69
   1  -1   9 1783.02   49.70
  -2   1  -9   16.90    1.30
  -2   1  -9    4.30    8.80
  -2   1  -9   16.40    1.90
   2  -1   9   15.50    1.90
   2  -1   9   15.70    1.70
   2  -1   9   18.10   10.60
  -3   1  -9   40.90    3.00
  -3   1  -9   44.20    2.90
  -3   1  -9   43.20   17.00
   3  -1   9   44.70    2.90
   3  -1   9   51.19   17.50
  -4   1  -9 1968.60   58.29
  -4   1  -9 1796.32  107.59
  -4   1  -9 1986.70   57.99
   4  -1   9 2138.49  108.39
   4  -1   9 2057.09   58.09
  -5   1  -9  966.40   29.40
  -5   1  -9  970.80   29.00
  -5   1  -9  760.72   71.19
   5  -1   9 1027.10   72.89
   5  -1   9  980.60   29.40
  -6   1  -9    9.20   12.80
  -6   1  -9    4.70    1.20
  -6   1  -9    5.40    1.50
   6  -1   9    2.10    1.60
   6  -1   9   -1.10    9.20
  -7   1  -9   32.60    2.50
  -7   1  -9   29.60    2.70
  -7   1  -9   15.60   15.30
   7  -1   9   27.50    3.20
   7  -1   9   49.30   22.30
  -8   1  -9   28.10    2.80
  -8   1  -9   28.40    2.50
   8  -1   9   23.80    3.60
  -9   1  -9    7.00    1.80
   9  -1   9    4.60    2.20
 -10   1  -9  157.78    6.70
 -10   1  -9  142.29    6.80
  10  -1   9  119.49    8.40
 -11   1  -9   21.30    2.50
  11  -1   9   22.30    3.90
 -12   1  -9    0.20    1.10
  12  -1   9    0.90    1.90
   8   0  -9  160.58    9.50
  -8   0   9  176.18    7.80
  -8   0   9  166.58    8.60
   7   0  -9   76.89    5.90
  -7   0   9   79.39    4.70
  -7   0   9   84.09    5.70
   6   0  -9  280.27   12.50
  -6   0   9  287.87   10.80
  -6   0   9  289.87   11.50
   5   0  -9  209.18   58.89
   5   0  -9  299.77   12.50
  -5   0   9  299.67   11.60
  -5   0   9  296.67   10.80
   4   0  -9  239.18   57.49
   4   0  -9  125.39   36.00
   4   0  -9  201.78    9.20
  -4   0   9  205.88    8.60
  -4   0   9  200.38    7.90
   3   0  -9   24.40   18.10
   3   0  -9   39.60    4.00
   3   0  -9   24.90   18.10
  -3   0   9   34.90    2.80
   2   0  -9  787.22   69.89
   2   0  -9  680.73   22.30
   2   0  -9  708.23   22.90
   2   0  -9  703.33   76.49
  -2   0   9  682.63   21.60
   1   0  -9  299.77   40.30
   1   0  -9  327.97   56.39
   1   0  -9  298.67   11.10
   1   0  -9  303.07   11.00
  -1   0   9  296.67   10.30
   0   0  -9  364.96   12.20
   0   0  -9  362.46   47.30
   0   0  -9  341.77   12.20
   0   0  -9  335.17   39.70
   0   0   9  345.27   11.60
  -1   0  -9  352.26   36.10
  -1   0  -9  339.57   12.30
   1   0   9  362.06   11.10
   1   0   9  365.56   11.80
   1   0   9  361.46   38.50
  -2   0  -9  709.53   50.39
  -2   0  -9  760.32   23.00
  -2   0  -9  789.22   24.20
   2   0   9  802.62   23.20
   2   0   9  774.82   55.59
  -3   0  -9  934.61   29.60
  -3   0  -9  900.71   59.59
  -3   0  -9  967.60   28.40
  -3   0  -9 1042.10   30.20
   3   0   9  975.00   29.60
   3   0   9  981.90   61.29
   3   0   9 1030.90   29.40
  -4   0  -9  537.85   48.10
  -4   0  -9  604.04   19.10
  -4   0  -9  596.94   18.70
   4   0   9  597.04   18.90
   4   0   9  601.44   47.50
  -5   0  -9    9.50    1.80
  -5   0  -9    8.40    1.60
  -5   0  -9   11.30   12.40
   5   0   9    2.20    7.50
   5   0   9   10.90    2.40
  -6   0  -9   50.59   16.00
  -6   0  -9   79.99    4.10
  -6   0  -9   77.99    4.10
   6   0   9   80.79    4.80
   6   0   9   63.79   18.80
  -7   0  -9  750.32   79.39
  -7   0  -9  805.52   25.00
   7   0   9  811.92   26.00
   7   0   9  812.72   71.09
  -8   0  -9 1383.46   41.80
   8   0   9 1401.76   43.00
  -9   0  -9  319.57   11.80
  -9   0  -9  332.67   11.80
   9   0   9  304.47   12.80
 -10   0  -9   45.60    3.30
 -10   0  -9   35.90    3.10
  10   0   9   35.50    4.90
 -11   0  -9   93.09    5.30
  11   0   9   89.49    6.40
 -12   0  -9   37.30    3.60
  12   0   9   35.30    4.40
   8  -1  -9   90.69    6.70
  -8   1   9   99.89    5.50
  -8   1   9   91.49    6.40
   7  -1  -9   16.80    3.50
  -7   1   9   13.00    3.20
  -7   1   9    8.10    1.90
   6  -1  -9  234.98   11.20
  -6   1   9  251.87    9.50
  -6   1   9  251.37   10.50
   5  -1  -9  135.69   49.10
   5  -1  -9  150.88    7.90
  -5   1   9  147.39    6.40
  -5   1   9  150.18    7.40
   4  -1  -9  490.15   72.29
   4  -1  -9  395.16   54.49
   4  -1  -9  476.75   17.30
  -4   1   9  484.85   16.50
   3  -1  -9 1257.07   95.09
   3  -1  -9 1297.17   39.90
   3  -1  -9 1202.78  107.99
  -3   1   9 1313.47   39.10
  -3   1   9 1294.47   38.10
   2  -1  -9  721.33   23.10
   2  -1  -9  738.33   23.60
   2  -1  -9  711.53   64.29
   2  -1  -9  694.03   82.39
  -2   1   9  711.93   22.10
   1  -1  -9   77.29   27.30
   1  -1  -9   85.99    4.60
   1  -1  -9   78.79   21.20
   1  -1  -9   89.49    4.60
  -1   1   9   88.49    4.10
   0  -1  -9   32.90   13.60
   0  -1  -9   34.30    2.50
   0  -1  -9   38.40   15.60
   0  -1  -9   32.10    2.50
   0   1   9   36.30    2.50
  -1  -1  -9 1386.76   42.20
  -1  -1  -9 1373.16   70.09
  -1  -1  -9 1483.65   80.99
  -1  -1  -9 1425.86   42.60
   1   1   9 1483.45   41.90
   1   1   9 1446.56   41.30
  -2  -1  -9 2260.17   65.59
  -2  -1  -9 2323.97   66.49
  -2  -1  -9 2179.28   90.89
   2   1   9 2355.16   65.89
   2   1   9 2317.37   65.69
  -3  -1  -9  843.72   25.70
  -3  -1  -9  810.92   24.50
  -3  -1  -9  824.62   25.40
  -3  -1  -9  808.02   47.40
   3   1   9  882.61   25.40
   3   1   9  834.02   48.00
  -4  -1  -9  188.18    7.40
  -4  -1  -9  188.28    7.10
  -4  -1  -9  151.38   22.90
   4   1   9  190.98    7.00
   4   1   9  200.78   22.80
   4   1   9  186.38    7.50
  -5  -1  -9  175.48   28.70
  -5  -1  -9  191.18    7.50
  -5  -1  -9  201.48    7.80
   5   1   9  199.78   26.30
   5   1   9  212.98    8.30
  -6  -1  -9   25.60    2.10
  -6  -1  -9   20.90   10.90
   6   1   9   19.10   12.60
   6   1   9   23.80    3.20
  -7  -1  -9    1.90    9.90
  -7  -1  -9   12.30    1.60
  -7  -1  -9   18.00    1.90
   7   1   9   12.00    2.60
   7   1   9    7.30   10.80
  -8  -1  -9    0.70    0.90
  -8  -1  -9    3.90    1.10
   8   1   9    2.50    1.80
  -9  -1  -9   23.30    2.40
  -9  -1  -9   24.60    2.30
   9   1   9   23.10    3.90
 -10  -1  -9   28.60    2.30
  10   1   9   15.60    3.50
 -11  -1  -9  256.37   10.30
  11   1   9  236.08   11.40
 -12  -1  -9  291.07   11.70
  12   1   9  271.27   12.70
   8  -2  -9  158.08    9.10
  -8   2   9  157.98    8.70
  -8   2   9  162.38    7.20
   7  -2  -9   16.90    3.60
  -7   2   9   13.80    3.30
  -7   2   9   15.50    2.50
   6  -2  -9    8.00    2.40
  -6   2   9    8.40    1.80
  -6   2   9   10.10    3.00
   5  -2  -9   88.89   41.60
   5  -2  -9   98.29    6.10
  -5   2   9   95.39    4.70
  -5   2   9   94.79    5.80
   4  -2  -9  484.55   17.50
   4  -2  -9  402.56   68.79
  -4   2   9  477.65   15.40
  -4   2   9  476.65   16.60
   3  -2  -9  254.17   39.00
   3  -2  -9  277.87   11.10
   3  -2  -9  206.88   58.39
  -3   2   9  280.67   10.60
  -3   2   9  264.07    9.40
   2  -2  -9    4.30    1.40
   2  -2  -9   -1.30   10.60
   2  -2  -9    6.10    1.70
   2  -2  -9   11.90   10.50
  -2   2   9    7.70    1.60
  -2   2   9    5.50    2.00
   1  -2  -9   34.90   18.50
   1  -2  -9   57.39    3.70
   1  -2  -9   55.39    3.50
   1  -2  -9   59.69   18.40
  -1   2   9   55.79    3.10
   0  -2  -9  770.12   24.90
   0  -2  -9  784.52   55.69
   0  -2  -9  788.72   24.80
   0  -2  -9  849.12   53.79
   0   2   9  821.02   24.10
  -1  -2  -9  327.37   25.00
  -1  -2  -9  339.87   12.20
  -1  -2  -9  361.26   12.10
  -1  -2  -9  347.17   27.90
   1   2   9  360.96   11.40
   1   2   9  380.76   11.70
  -2  -2  -9    5.00    1.30
  -3  -2  -9   60.09    3.40
  -3  -2  -9   63.39    3.30
   3   2   9   65.59    3.70
  -4  -2  -9  233.38    8.50
  -4  -2  -9  201.68   21.90
  -4  -2  -9  232.58    8.40
   4   2   9  254.87   20.50
   4   2   9  230.48    8.70
   4   2   9  232.08    8.90
  -5  -2  -9  827.02   61.19
  -5  -2  -9  922.81   27.80
   5   2   9  969.90   54.99
   5   2   9  909.71   28.40
   5   2   9  934.51   28.60
  -6  -2  -9 1042.70   82.79
  -6  -2  -9 1237.48   36.00
  -6  -2  -9 1210.38   36.10
   6   2   9 1194.08   37.00
   6   2   9 1240.38   74.39
   6   2   9 1238.68   37.10
  -7  -2  -9  253.97   43.90
  -7  -2  -9  316.27   10.60
  -7  -2  -9  310.97   10.90
   7   2   9  261.97   37.40
   7   2   9  292.87   11.60
   7   2   9  306.67   11.90
  -8  -2  -9  168.78    6.60
  -8  -2  -9  161.58    7.00
   8   2   9  157.68    7.30
   8   2   9  166.28    8.20
  -9  -2  -9  200.78    7.60
  -9  -2  -9  190.88    8.20
   9   2   9  204.58    8.20
   9   2   9  198.38    9.50
 -10  -2  -9   15.20    2.90
  10   2   9   24.20    4.50
 -11  -2  -9  108.49    5.90
  11   2   9  105.49    7.10
 -12  -2  -9  289.57   11.90
  12   2   9  294.67   13.20
   8  -3  -9   29.00    3.90
  -8   3   9   24.80    3.00
  -8   3   9   23.60    4.40
   7  -3  -9   89.49    6.40
  -7   3   9   95.79    6.60
  -7   3   9  110.09    5.20
  -6   3   9  469.45   17.30
  -6   3   9  471.35   15.50
   5  -3  -9  536.15   83.99
   5  -3  -9  568.04   21.00
  -5   3   9  614.94   20.30
  -5   3   9  586.34   18.70
   4  -3  -9  129.29   42.50
   4  -3  -9  138.19    7.30
  -4   3   9  137.79    5.70
  -4   3   9  139.69    6.90
   3  -3  -9   37.00    3.30
   3  -3  -9   44.40   20.90
  -3   3   9   37.50    2.60
  -3   3   9   41.30    3.60
   2  -3  -9  208.98    9.70
   2  -3  -9  141.59   34.20
  -2   3   9  209.78    9.20
  -2   3   9  196.58    7.20
   1  -3  -9 1409.66   88.59
   1  -3  -9 1484.75   81.49
   1  -3  -9 1434.06   43.70
  -1   3   9 1449.15   42.30
  -1   3   9 1481.25   43.50
   0  -3  -9 1728.93   53.29
   0  -3  -9 1851.51   51.79
   0  -3  -9 1851.31   86.79
   0  -3  -9 1814.72   53.49
   0  -3  -9 1838.22   83.39
   0   3   9 1820.72   52.29
  -1  -3  -9  617.04   18.50
  -1  -3  -9  607.94   19.10
  -1  -3  -9  571.54   19.10
   1   3   9  609.34   18.50
  -2  -3  -9  471.15   15.00
  -2  -3  -9  474.65   15.10
  -2  -3  -9  457.35   15.30
  -3  -3  -9  418.16   13.20
  -3  -3  -9  404.86   13.60
  -3  -3  -9  407.46   13.30
  -4  -3  -9    4.70    1.10
   4   3   9    5.20    1.80
   4   3   9    8.50    2.40
  -5  -3  -9   11.80    1.50
  -5  -3  -9    8.00    1.20
   5   3   9   12.70    3.10
   5   3   9    2.90    5.80
   5   3   9   11.20    2.70
  -6  -3  -9  201.18    7.50
  -6  -3  -9  197.28    8.30
   6   3   9  211.98   10.00
   6   3   9  238.78   38.90
   6   3   9  202.58    9.50
  -7  -3  -9  255.77    9.40
  -7  -3  -9  216.78   42.40
  -7  -3  -9  256.47    8.90
   7   3   9  251.87   10.60
   7   3   9  253.97   11.10
   7   3   9  235.38   34.20
  -8  -3  -9  143.69    6.50
   8   3   9  152.88    7.80
   8   3   9  153.58    7.90
  -9  -3  -9  398.56   14.10
   9   3   9  393.86   15.00
   9   3   9  402.36   15.60
  10   3   9   84.99    4.80
 -11  -3  -9   40.00    3.40
  11   3   9   34.70    4.50
 -12  -3  -9   74.89    5.00
   8  -4  -9   71.39    5.70
  -8   4   9   66.69    3.90
  -8   4   9   60.49    6.00
   7  -4  -9  308.87   13.70
  -7   4   9  304.07   10.90
  -7   4   9  312.07   13.40
   6  -4  -9  416.06   16.90
  -6   4   9  427.66   14.10
  -6   4   9  437.96   17.70
   5  -4  -9   54.59   34.00
   5  -4  -9   81.29    5.60
  -5   4   9   74.69    5.40
  -5   4   9   76.39    3.80
   4  -4  -9   65.19   37.90
   4  -4  -9   93.79    5.80
  -4   4   9   90.89    4.10
  -4   4   9   92.59    5.70
  -4   4   9   86.49   33.90
   3  -4  -9   10.60   17.00
   3  -4  -9   25.30    2.70
  -3   4   9   24.60    2.00
  -3   4   9   27.50   18.20
  -3   4   9   22.20    3.00
   2  -4  -9  185.08   36.80
   2  -4  -9  275.57   10.90
  -2   4   9  262.67    9.10
  -2   4   9  285.17   10.60
  -2   4   9  345.87   51.39
   1  -4  -9  103.39   26.60
   1  -4  -9  109.69    5.60
  -1   4   9  105.69    4.40
  -1   4   9  110.39    5.60
   0  -4  -9  240.08    9.30
   0  -4  -9  219.88   24.60
   0  -4  -9  240.18   23.40
   0  -4  -9  243.48    7.90
   0   4   9  246.78    8.30
   0   4   9  249.97    9.30
  -1  -4  -9   37.60    2.70
  -1  -4  -9   36.90    2.70
   1   4   9   39.00    2.40
  -2  -4  -9  855.31   26.00
  -2  -4  -9  858.61   25.30
  -2  -4  -9  832.02   26.00
  -2  -4  -9  853.61   25.60
  -3  -4  -9  729.53   22.00
  -3  -4  -9  719.33   22.20
  -3  -4  -9  723.53   22.30
  -3  -4  -9  717.43   22.10
  -4  -4  -9  259.97    9.40
  -4  -4  -9  287.67    9.70
  -4  -4  -9  279.57    9.70
   4   4   9  276.27   10.90
  -5  -4  -9  413.66   13.80
  -5  -4  -9  398.06   13.20
  -5  -4  -9  419.86   13.60
   5   4   9  399.46   28.80
   5   4   9  413.36   26.80
   5   4   9  410.96   15.20
  -6  -4  -9  623.84   19.20
   6   4   9  655.93   21.20
   6   4   9  576.04   68.29
   6   4   9  617.04   46.10
   6   4   9  622.04   22.00
  -7  -4  -9   69.49    3.80
   7   4   9   68.69    6.30
   7   4   9   60.49   22.20
   7   4   9   61.49    4.80
  -8  -4  -9    3.90    1.40
   8   4   9   10.50    2.80
   8   4   9    5.10    3.00
   8   4   9    8.20   15.50
  -9  -4  -9  895.01   27.70
   9   4   9  880.81   29.70
   9   4   9  775.02   83.99
   9   4   9  895.51   29.40
 -10  -4  -9  932.01   30.00
  10   4   9  950.80   31.80
  10   4   9  965.10   31.60
 -12  -4  -9    5.00    1.80
  12   4   9    7.40    2.90
   8  -5  -9  291.57   13.90
   7  -5  -9  142.49    8.30
  -7   5   9  140.49    6.00
  -7   5   9  137.19    8.50
   6  -5  -9   41.90    4.20
  -6   5   9   55.49    5.20
   5  -5  -9   17.50    2.90
  -5   5   9   25.80    3.80
  -5   5   9   20.00    1.80
   4  -5  -9  685.53   86.99
   4  -5  -9  742.03   25.60
  -4   5   9  762.22   22.80
  -4   5   9  807.42   87.89
  -4   5   9  783.32   25.20
   3  -5  -9  297.57   12.00
   3  -5  -9  227.58   48.30
  -3   5   9  291.37   11.50
  -3   5   9  283.47    9.50
  -3   5   9  430.16   54.29
   2  -5  -9  472.75   14.00
   2  -5  -9  425.46   53.39
   2  -5  -9  466.35   16.50
  -2   5   9  464.85   15.90
  -2   5   9  439.66   14.10
  -2   5   9  432.86   53.99
   1  -5  -9 1273.67   80.89
   1  -5  -9 1284.37   39.50
   1  -5  -9 1313.37   37.40
  -1   5   9 1428.06   90.19
  -1   5   9 1196.38   37.30
  -1   5   9 1307.97   39.00
   0  -5  -9  948.41   29.60
   0  -5  -9  965.50   28.00
   0   5   9  952.50   29.20
   0   5   9  934.01   27.90
  -1  -5  -9    5.90    1.50
   1   5   9    9.40    1.50
   1   5   9    8.70    2.10
  -2  -5  -9   47.60    2.60
  -2  -5  -9   46.70    3.00
   2   5   9   42.10    3.20
  -3  -5  -9 1316.17   39.40
  -3  -5  -9 1329.87   39.30
  -3  -5  -9 1334.77   39.80
   3   5   9 1377.46   39.50
  -4  -5  -9  871.11   27.10
  -4  -5  -9  887.31   26.70
  -4  -5  -9  910.81   26.90
   4   5   9  894.91   28.80
  -5  -5  -9   21.90    1.90
  -5  -5  -9   23.90    1.70
   5   5   9   25.20    4.30
   5   5   9   20.60    6.60
   5   5   9   32.10    8.00
  -6  -5  -9   45.10    3.10
  -6  -5  -9   33.50    2.50
   6   5   9   33.40   13.20
   6   5   9   37.50   15.10
   6   5   9   28.30    4.90
  -7  -5  -9   34.60    2.60
   7   5   9   25.50   14.80
   7   5   9   35.80    3.90
   7   5   9   39.50    5.70
  -8  -5  -9   57.29    3.60
   8   5   9   59.09    6.30
   8   5   9   65.29    5.20
  -9  -5  -9  176.28    7.50
   9   5   9  172.98    9.90
   9   5   9   85.99   33.50
   9   5   9  161.98    8.90
 -10  -5  -9   18.00    2.30
  10   5   9   20.00    3.90
 -11  -5  -9   54.19    4.00
  11   5   9   56.09    5.60
 -12  -5  -9  150.28    7.60
  12   5   9  154.88    9.30
   7  -6  -9  458.55   18.20
  -7   6   9  431.86   17.80
   6  -6  -9  146.29    8.30
  -6   6   9  143.19    8.50
   5  -6  -9   88.09    6.10
   5  -6  -9   89.19    3.80
  -5   6   9   96.79    6.40
  -5   6   9   95.49    3.90
   4  -6  -9   45.90   24.10
   4  -6  -9   25.00    3.20
   4  -6  -9   27.80    1.80
  -4   6   9   25.70    3.70
  -4   6   9   30.00    1.80
  -4   6   9   82.29   29.60
   3  -6  -9  521.45   19.10
   3  -6  -9  537.85   16.30
   3  -6  -9  438.16   63.59
  -3   6   9  540.75   18.60
  -3   6   9  634.74   69.59
  -3   6   9  530.05   16.00
   2  -6  -9   96.19    4.00
   2  -6  -9   80.59   26.40
   2  -6  -9   90.99    5.50
  -2   6   9   96.29    4.20
  -2   6   9  103.69    5.70
  -2   6   9   87.69   28.40
   1  -6  -9  121.09    4.70
   1  -6  -9  122.59    6.20
   1  -6  -9   95.49   24.30
  -1   6   9  119.69    6.00
  -1   6   9  118.09   27.10
   0  -6  -9   38.50   13.60
   0  -6  -9   37.60    3.10
   0   6   9   39.40    2.40
   0   6   9   39.40   13.40
   0   6   9   37.10    3.60
  -1  -6  -9    4.50    1.00
  -1  -6  -9    0.20    0.90
   1   6   9    2.00    1.50
   1   6   9    1.50    0.80
  -2  -6  -9  791.22   23.80
  -2  -6  -9  785.62   24.60
  -2  -6  -9  756.32   23.50
   2   6   9  790.22   24.00
  -3  -6  -9  494.95   16.00
   3   6   9  491.85   15.80
   3   6   9  510.15   18.00
  -4  -6  -9   11.30    2.10
  -4  -6  -9    8.70    1.20
   4   6   9   12.70    3.60
   4   6   9   10.70    1.80
  -5  -6  -9    2.80    1.10
  -5  -6  -9    2.30    1.00
   5   6   9    2.80    3.10
   5   6   9   -0.50    5.20
   5   6   9    2.40    1.10
  -6  -6  -9  950.10   28.40
  -6  -6  -9  940.51   29.00
   6   6   9  859.81   57.59
   6   6   9  937.21   31.80
   6   6   9  924.71   57.89
  -7  -6  -9 1093.39   33.10
  -7  -6  -9 1069.39   32.20
   7   6   9 1065.89   36.20
   7   6   9 1121.29   34.50
   7   6   9  856.91   71.79
  -8  -6  -9  123.79    5.70
   8   6   9  115.09    8.90
   8   6   9  114.79   33.30
   8   6   9  113.99    7.20
  -9  -6  -9   90.59    5.10
   9   6   9  103.19    8.20
 -10  -6  -9  195.88    8.70
  10   6   9  206.48   11.20
  10   6   9  202.08   10.60
   7  -7  -9   95.89    6.40
  -7   7   9   79.09    7.10
   6  -7  -9    4.50    2.30
  -6   7   9    3.00    2.70
   5  -7  -9  109.89    6.80
  -5   7   9  101.69    7.00
   4  -7  -9 1218.38   35.60
   4  -7  -9 1206.28   39.30
  -4   7   9 1213.18   39.90
   3  -7  -9  574.14   75.69
   3  -7  -9  589.94   21.40
   3  -7  -9  630.24   18.90
  -3   7   9  669.53   76.19
  -3   7   9  616.14   21.10
   2  -7  -9   18.80    2.50
   2  -7  -9   31.50   20.30
   2  -7  -9   19.30    1.70
  -2   7   9   22.80    3.40
   1  -7  -9   20.70    2.40
   1  -7  -9    2.00   18.10
  -1   7   9   20.80    3.00
  -1   7   9   42.90   20.90
   0  -7  -9 1017.80   31.40
   0  -7  -9 1019.00   29.70
   0  -7  -9  959.60   62.99
   0   7   9  941.01   28.80
   0   7   9 1000.10   65.59
   0   7   9 1013.70   30.80
  -1  -7  -9  636.64   40.40
  -1  -7  -9  675.63   21.00
  -1  -7  -9  684.63   22.20
   1   7   9  701.23   42.70
   1   7   9  683.13   21.50
   1   7   9  678.73   20.70
  -2  -7  -9   27.30    1.90
  -2  -7  -9   26.70    2.60
  -2  -7  -9   29.50    2.20
   2   7   9   27.10    2.60
  -3  -7  -9  408.56   12.70
  -3  -7  -9  395.36   13.10
   3   7   9  394.76   15.40
   3   7   9  359.76   12.70
  -4  -7  -9  200.88    8.10
   4   7   9  203.48    7.40
   4   7   9  223.08   10.70
  -5  -7  -9   25.60    2.40
  -5  -7  -9   24.90    2.10
   5   7   9   36.90    5.80
   5   7   9   13.90    8.00
   5   7   9   26.10    8.00
  -6  -7  -9  189.68    8.10
  -6  -7  -9  196.88    7.50
   6   7   9  188.88   11.00
   6   7   9  154.48   28.80
  -7  -7  -9  208.28    8.10
  -7  -7  -9  213.28    8.90
   7   7   9  148.09   33.10
   7   7   9  203.58   12.00
  -8  -7  -9  269.57   10.20
   8   7   9  264.87   14.50
   8   7   9  248.48   45.40
   8   7   9  271.87   12.20
   9   7   9   34.10    4.80
   9   7   9   51.69    7.10
 -10  -7  -9  171.28    8.10
  10   7   9  187.78   10.30
  10   7   9  195.38   11.50
 -11  -7  -9   36.70    3.50
  11   7   9   39.40    5.30
   6  -8  -9  252.17   11.90
  -6   8   9  243.38   12.20
   5  -8  -9   66.59    3.50
   5  -8  -9   66.79    5.30
  -5   8   9   66.39    6.00
   4  -8  -9   32.40    3.50
   4  -8  -9   34.00    2.30
  -4   8   9   34.60    4.50
   3  -8  -9  172.28    8.90
   3  -8  -9  194.58    7.10
   3  -8  -9  111.39   46.50
  -3   8   9  187.48    9.10
   2  -8  -9   14.30    2.80
   2  -8  -9  -32.30   30.90
  -2   8   9   54.99   33.10
  -2   8   9   12.80    3.00
   1  -8  -9  210.58    9.40
   1  -8  -9  157.68   35.70
   1  -8  -9  212.08    7.80
  -1   8   9  283.27   41.50
  -1   8   9  207.58    9.10
   0  -8  -9  159.68    6.20
   0  -8  -9  131.09   29.70
   0  -8  -9  151.58    7.20
   0   8   9  155.88    7.10
   0   8   9  106.79   24.10
  -1  -8  -9  191.08    8.30
  -1  -8  -9  149.29   23.70
  -1  -8  -9  193.88    7.40
   1   8   9  191.18    6.40
   1   8   9  170.88   25.60
   1   8   9  195.78    8.00
  -2  -8  -9    2.30    1.20
  -2  -8  -9    3.90    1.20
  -2  -8  -9    0.30    0.50
   2   8   9    1.50    1.50
   2   8   9    0.20    6.90
  -3  -8  -9  346.37   11.30
  -3  -8  -9  342.37   12.00
   3   8   9  332.27   11.60
   3   8   9  354.46   14.80
  -4  -8  -9  203.28    8.00
  -4  -8  -9  202.18    7.30
   4   8   9  191.58   17.80
   4   8   9  186.38   10.50
   4   8   9  185.88    7.10
   4   8   9  189.08   20.50
  -5  -8  -9  313.57   11.70
   5   8   9  300.77   29.60
   5   8   9  320.07   14.90
  -6  -8  -9  402.46   14.30
  -6  -8  -9  413.36   13.50
   6   8   9  338.07   38.30
   6   8   9  389.06   17.70
  -7  -8  -9  351.76   12.10
  -7  -8  -9  352.96   13.00
   7   8   9  255.37   39.40
   7   8   9  334.57   16.60
   8   8   9    5.30    4.10
  -9  -8  -9    1.80    1.10
   9   8   9    2.70    2.80
   9   8   9   11.70    5.10
 -10  -8  -9  185.78    8.50
  10   8   9  192.98   10.70
  10   8   9  209.88   12.60
 -11  -8  -9  251.67   11.30
  11   8   9  283.17   13.90
  11   8   9  336.87   14.60
   5  -9  -9   -0.50    1.10
   5  -9  -9    2.00    1.90
  -5   9   9    7.50    3.30
   4  -9  -9   32.20    2.40
  -4   9   9   34.20    4.70
   3  -9  -9  170.78    8.80
  -3   9   9  182.68    9.30
   2  -9  -9  108.29    7.00
   2  -9  -9  124.29    5.30
   2  -9  -9   43.70   37.10
  -2   9   9  114.29    6.80
   1  -9  -9  211.78    8.00
   1  -9  -9  208.88    9.40
   1  -9  -9  130.09   31.60
  -1   9   9  208.98    9.40
  -1   9   9  249.18   41.90
   0  -9  -9  446.16   16.20
   0  -9  -9  314.27   47.10
   0  -9  -9  445.76   14.70
   0   9   9  460.85   15.80
   0   9   9  474.65   47.90
  -1  -9  -9  301.17   38.00
  -1  -9  -9  366.46   12.60
  -1  -9  -9  371.96   14.00
   1   9   9  376.46   13.30
   1   9   9  406.76   39.90
  -2  -9  -9    9.20    1.60
  -2  -9  -9    8.10   10.90
   2   9   9    9.10    2.50
   2   9   9   11.20    4.10
   2   9   9    9.60    1.30
   2   9   9   10.80   10.70
  -3  -9  -9    7.20    1.30
  -3  -9  -9    7.20    1.60
   3   9   9    8.30    4.20
   3   9   9    5.10    1.90
   3   9   9   -4.30    9.50
  -4  -9  -9   64.19    4.00
  -4  -9  -9   73.69    3.50
   4   9   9   63.69    3.80
   4   9   9   68.99    7.20
  -5  -9  -9  268.07   10.50
   5   9   9  268.37   14.10
  -6  -9  -9  104.69    5.50
  -6  -9  -9   93.59    5.40
   6   9   9   75.59   26.20
   6   9   9   95.39    8.90
  -7  -9  -9    5.60    1.90
  -7  -9  -9    4.60    1.30
   7   9   9    0.50   15.70
   7   9   9   11.80    5.60
  -8  -9  -9   21.30    2.30
  -8  -9  -9   26.00    2.90
   8   9   9   23.10    7.70
  -9  -9  -9   72.09    4.50
   9   9   9   76.89    9.00
   9   9   9   71.39    6.50
 -10  -9  -9   88.79    5.30
  10   9   9  109.49    8.80
  10   9   9   92.39    7.60
   5 -10  -9   73.69    4.20
  -5  10   9   71.89    6.80
   4 -10  -9   10.20    2.60
  -4  10   9    7.90    3.50
   3 -10  -9   24.50    3.20
   3 -10  -9   27.70    2.40
  -3  10   9   25.60    4.50
   2 -10  -9   30.50    2.60
   2 -10  -9   32.10    3.70
  -2  10   9   30.10    4.50
   1 -10  -9   61.69    3.80
   1 -10  -9   27.50   36.00
   1 -10  -9   65.49    4.80
  -1  10   9   63.09    5.20
   0 -10  -9    1.50    1.00
   0 -10  -9    2.80    1.50
   0 -10  -9   -7.00   19.60
   0  10   9    3.40    2.30
   0  10   9   15.10   15.50
  -1 -10  -9  -13.40   18.10
  -1 -10  -9   31.40    2.60
   1  10   9   27.90   16.50
   1  10   9   35.90    5.80
   1  10   9   27.90    3.60
  -2 -10  -9   94.39   27.40
  -2 -10  -9  117.09    5.70
   2  10   9  126.29    6.20
   2  10   9  122.89    8.80
  -3 -10  -9  365.26   13.10
  -3 -10  -9  357.86   11.70
   3  10   9  361.96   12.70
   3  10   9  340.67   40.50
   3  10   9  374.76   16.70
  -4 -10  -9  323.37   11.90
  -4 -10  -9  324.67   10.70
   4  10   9  320.07   15.70
   4  10   9  295.07   33.20
   4  10   9  303.77   11.00
  -5 -10  -9   66.49    3.60
  -5 -10  -9   64.19    4.20
   5  10   9   63.59    8.00
   5  10   9   29.70   16.10
  -6 -10  -9   17.20    2.90
   6  10   9   18.30    6.90
   6  10   9   25.10   17.00
  -7 -10  -9   58.69    4.30
  -7 -10  -9   61.29    3.80
   7  10   9   61.79    8.80
  -8 -10  -9  311.87   12.70
   8  10   9  312.87   17.60
  -9 -10  -9  141.09    7.80
  -9 -10  -9  140.89    6.80
   9  10   9  157.58   12.30
   4 -11  -9   58.79    5.00
   4 -11  -9   51.39    5.00
  -4  11   9   48.40    6.10
   3 -11  -9  192.88    7.90
   3 -11  -9  183.18    9.60
  -3  11   9  194.18   10.40
   2 -11  -9  366.26   13.30
   2 -11  -9  336.27   14.30
  -2  11   9  368.56   15.00
   1 -11  -9   32.10    3.60
   1 -11  -9   30.90    3.40
  -1  11   9   32.30    4.60
   0 -11  -9    4.00    1.70
   0 -11  -9    5.30    1.50
   0  11   9    6.40    4.40
   0  11   9    5.20    2.80
  -1 -11  -9  -39.90   39.30
   1  11   9    2.90   25.50
  -2 -11  -9   81.99   28.40
  -2 -11  -9  143.39    7.10
   2  11   9  151.78   10.50
   2  11   9  195.68   29.80
   2  11   9  158.98    7.50
  -3 -11  -9  257.27   13.00
   3  11   9  234.38   13.60
   3  11   9  281.17   34.00
   3  11   9  248.68    9.80
  -4 -11  -9   42.10    3.50
  -4 -11  -9   46.00    2.80
   4  11   9   39.00   24.60
   4  11   9   52.29    8.40
   4  11   9   45.50    3.50
  -5 -11  -9   18.50    2.30
  -5 -11  -9   19.10    2.00
   5  11   9   21.60    6.20
  -6 -11  -9    3.50    1.40
  -6 -11  -9    1.00    0.90
   6  11   9   -1.30    4.60
  -7 -11  -9  100.09    6.10
   7  11   9  109.59   10.90
  -8 -11  -9   25.50    2.50
  -8 -11  -9   22.50    3.70
   8  11   9   27.50    7.20
   2 -12  -9    1.90    1.70
   2 -12  -9    3.60    1.40
  -2  12   9    4.30    3.00
   1 -12  -9    7.80    2.30
   1 -12  -9    8.10    1.70
  -1  12   9    9.60    3.40
  -1  12   9   10.90    4.70
   0 -12  -9   50.89    3.60
   0  12   9   55.49    7.30
   0  12   9   58.09    5.50
  -1 -12  -9  268.07   10.40
   1  12   9  253.07   14.20
   1  12   9  253.97   11.10
  -2 -12  -9  113.89    6.00
   2  12   9  107.59    6.50
   2  12   9  112.69    9.80
  -3 -12  -9   37.70    3.40
   3  12   9   34.10    7.20
   3  12   9   31.80    3.60
  -4 -12  -9   26.10    2.80
   4  12   9   39.00    8.00
  -5 -12  -9  172.18    8.50
  -5 -12  -9  211.78    9.70
   5  12   9  184.88   13.50
  -6 -12  -9  137.59    7.50
  -6 -12  -9  164.88    6.60
   6  12   9  154.08   12.90
  -7 -12  -9    4.00    2.00
  -7 -12  -9    4.90    1.50
   7  12   9    6.10    5.90
   0 -13  -9   25.00    2.70
   0  13   9   29.80    4.80
   0  13   9   20.30    6.30
  -1 -13  -9   38.90    3.50
   1  13   9   41.30    7.60
   1  13   9   43.40    5.00
  -2 -13  -9  162.08    7.70
   2  13   9  166.58    8.30
   2  13   9  165.08   12.50
  -3 -13  -9   62.09    4.50
   3  13   9   69.79    5.00
   3  13   9   60.09    9.10
  -4 -13  -9  161.08    7.90
   4  13   9  165.18   13.00
  -5 -13  -9   62.59    4.70
   5  13   9   59.49    9.50
  -1 -12  10   33.40    3.30
  -1 -12  10   28.40    2.70
  -1  12 -10   96.19    5.90
   1 -12  10   81.39    5.00
   2 -12  10    3.90    1.20
   2 -12  10    3.60    1.70
  -3  12 -10   63.29    5.20
   3 -12  10   59.09    5.70
   3 -12  10   48.30    4.10
   3  11 -10  141.99    5.90
  -2 -11  10   48.40    3.20
  -2 -11  10   50.89    4.10
   1  11 -10  118.89    6.40
  -1 -11  10  107.49    5.30
  -1 -11  10  112.19    6.10
   0  11 -10   10.00    2.50
   0 -11  10    7.40    2.30
  -1  11 -10   40.60    4.10
   1 -11  10   41.90    4.30
   1 -11  10   57.49    4.50
  -2  11 -10    3.10    1.80
   2 -11  10    3.20    2.20
   2 -11  10    1.20    1.30
  -3  11 -10   48.60    4.70
   3 -11  10   44.20    3.60
  -4  11 -10  125.29    7.60
   4 -11  10  126.59    6.70
   4 -11  10  137.59    6.50
  -5  11 -10    5.70    2.20
   5 -11  10    3.00    1.60
   5 -11  10    1.20    1.50
  -6  11 -10   38.20    4.50
   6 -11  10   27.30    4.10
   6 -11  10   26.40    3.30
  -4 -10  10    0.60    1.40
   3  10 -10  145.29    7.10
  -3 -10  10  145.39    7.40
   2  10 -10  355.36   14.40
   2  10 -10  291.47   12.20
  -2 -10  10  306.07   10.80
  -2 -10  10  302.27   12.10
   1  10 -10    3.10    1.80
  -1 -10  10    3.60    1.60
  -1 -10  10    3.80    1.10
   0  10 -10   63.79    5.00
   0 -10  10   61.19    3.70
   0 -10  10   64.89    4.60
  -1  10 -10   45.50    6.10
   1 -10  10   35.50    3.60
   1 -10  10   39.40    3.10
  -2  10 -10  599.84   17.90
  -2  10 -10  485.05   19.20
   2 -10  10  529.45   18.00
   2 -10  10  508.25   17.80
  -3  10 -10   81.39    5.70
   3 -10  10   76.39    4.70
   3 -10  10   80.49    4.90
  -4  10 -10    0.80    1.60
   4 -10  10    1.00    1.00
  -5  10 -10   77.39    6.00
   5 -10  10   87.49    4.70
   5 -10  10   85.39    5.10
  -6  10 -10    7.90    2.70
   6 -10  10   11.80    2.30
   6 -10  10    9.70    2.50
  -7  10 -10  110.99    7.60
   7 -10  10  143.39    7.30
   7 -10  10  115.99    6.10
   5   9 -10  129.99    4.90
   5   9 -10  109.39    6.60
   4   9 -10  251.67    9.90
   4   9 -10  257.57   11.90
  -4  -9  10  239.28   10.50
   3   9 -10   11.20    4.70
   3   9 -10    9.80    2.10
   2   9 -10    6.20    2.10
  -2  -9  10    4.90    2.00
  -2  -9  10    7.00    1.20
   1   9 -10   90.69    5.70
  -1  -9  10   97.79    4.50
  -1  -9  10   99.49    5.50
   0   9 -10   11.20    2.50
   0  -9  10   15.40    2.70
   0  -9  10   12.40    1.60
  -1   9 -10  566.24   18.90
  -1   9 -10  533.05   19.70
   1  -9  10  553.24   18.60
   1  -9  10  580.14   18.30
  -2   9 -10    7.40    2.30
   2  -9  10    5.50    1.50
   2  -9  10    2.10    1.70
  -3   9 -10  148.89    8.00
   3  -9  10  156.18    7.00
   3  -9  10  155.88    7.00
  -4   9 -10   58.49    4.90
   4  -9  10   57.79    4.20
   4  -9  10   57.49    4.00
  -5   9 -10  252.07   11.60
   5  -9  10  247.28   11.30
  -6   9 -10   91.19    6.50
   6  -9  10   95.19    5.60
  -7   9 -10  129.09    7.80
   7  -9  10  129.39    6.90
   7  -9  10  133.39    6.30
  -8   9 -10  210.38   10.80
   8  -9  10  225.28    9.20
   8  -9  10  217.68   10.00
   6   8 -10  195.98   10.10
  -6  -8  10  167.58    8.50
   5   8 -10  415.56   14.30
   5   8 -10  412.36   16.80
  -5  -8  10  381.86   15.00
   4   8 -10    1.90    1.20
   4   8 -10    6.70    2.30
  -4  -8  10    1.40    1.40
  -3  -8  10   31.40    3.30
   2   8 -10  178.18    8.30
   2   8 -10  206.78    9.50
  -2  -8  10  197.58    6.90
  -2  -8  10  183.18    8.30
   1   8 -10  259.37   10.80
  -1  -8  10  266.27    9.10
  -1  -8  10  254.67   10.30
   0   8 -10   71.79    5.00
   0  -8  10   83.09    3.90
   0  -8  10   83.29    4.80
  -1   8 -10  256.57   11.00
  -1   8 -10  248.78   10.00
   1  -8  10  274.47    9.60
   1  -8  10  267.77   10.20
  -2   8 -10  667.93   23.10
  -2   8 -10  654.43   21.20
   2  -8  10  692.03   21.50
   2  -8  10  684.03   21.70
  -3   8 -10   21.10    3.10
   3  -8  10   23.60    2.30
   3  -8  10   18.70    2.70
  -4   8 -10   90.09    6.10
   4  -8  10   96.79    5.10
   4  -8  10   96.69    5.20
  -5   8 -10   17.80    3.50
   5  -8  10   21.30    3.00
   5  -8  10   18.90    2.30
  -6   8 -10  418.86   16.90
   6  -8  10  457.65   15.30
   6  -8  10  435.46   19.70
  -7   8 -10  103.29    6.90
   7  -8  10  112.19    6.30
  -8   8 -10   15.20    3.10
   8  -8  10   18.20    2.60
  -9   8 -10    8.30    2.60
   9  -8  10    0.10    1.30
   5   7 -10  214.88   10.80
   5   7 -10  223.88    9.10
  -5  -7  10  207.68    9.40
   4   7 -10  316.07   13.80
   4   7 -10  332.47   12.40
  -4  -7  10  328.37   12.60
   3   7 -10    2.60    1.70
   3   7 -10    3.20    1.50
  -3  -7  10    1.10    1.30
   2   7 -10  164.48    7.60
   2   7 -10  152.48    7.90
  -2  -7  10  163.48    7.40
   1   7 -10  -16.30   38.80
  -1  -7  10  -44.90   32.60
   0   7 -10  134.59    6.90
   0   7 -10  123.39    6.30
   0   7 -10   90.89   38.70
   0  -7  10  109.39   45.10
   0  -7  10  132.89    5.30
   0  -7  10  136.69    6.40
  -1   7 -10   -7.80   18.00
  -1   7 -10    4.30    1.50
  -1   7 -10    1.30    1.30
   1  -7  10    3.20   26.10
   1  -7  10    1.60    0.70
   1  -7  10    1.00    1.40
  -2   7 -10  100.09    5.90
  -2   7 -10  102.19    4.50
   2  -7  10  106.89    5.30
   2  -7  10   38.10   37.40
  -3   7 -10    1.20    1.30
  -3   7 -10   24.70   24.30
   3  -7  10   -5.30   21.80
   3  -7  10    2.80    1.00
   3  -7  10    2.00    1.60
  -4   7 -10  318.17   13.00
   4  -7  10  329.77   11.70
   4  -7  10  317.67   11.70
  -5   7 -10  952.50   31.30
   5  -7  10  979.30   29.70
   5  -7  10  939.91   30.00
  -6   7 -10   95.99    6.30
   6  -7  10  103.99    5.50
   6  -7  10  102.69    5.60
  -7   7 -10    3.90    1.90
   7  -7  10    2.50    1.30
   7  -7  10    0.30    1.60
  -8   7 -10   55.89    5.10
   8  -7  10   54.19    4.20
   8  -7  10   55.69    4.40
  -9   7 -10  303.27   13.30
   9  -7  10  306.07   14.20
   9  -7  10  297.47   12.60
 -10   7 -10  228.88   10.00
 -10   7 -10  254.27   11.40
  10  -7  10  205.88   10.70
   7   6 -10   10.40    3.00
  -7  -6  10    4.80    1.90
  -7  -6  10    8.80    2.50
   6   6 -10    0.10    1.80
   5   6 -10  106.69    7.10
   5   6 -10  118.09    6.00
  -5  -6  10  117.89    6.40
   4   6 -10   70.79    4.40
   4   6 -10   68.19    5.40
  -4  -6  10   77.69    6.90
   3   6 -10   32.40    2.90
   3   6 -10   29.00    3.40
   3   6 -10   45.60   33.10
  -3  -6  10   29.40    3.10
   2   6 -10  657.73   21.70
   2   6 -10  664.03  112.19
   2   6 -10  623.24   22.00
  -2  -6  10  677.43   21.50
   1   6 -10 1419.96   44.20
   1   6 -10 1461.05   44.30
   1   6 -10 1265.57  119.09
  -1  -6  10 1630.24  138.19
  -1  -6  10 1491.95   43.60
   0   6 -10   85.89   35.00
   0   6 -10  107.29    5.80
   0   6 -10   95.29    5.20
   0  -6  10  108.89    4.30
   0  -6  10   72.99   43.40
   0  -6  10  108.79    5.40
  -1   6 -10    8.80    1.50
  -1   6 -10    7.40    2.00
  -1   6 -10   34.60   23.80
   1  -6  10    9.50    2.10
   1  -6  10    8.40    1.10
   1  -6  10   12.30   18.90
  -2   6 -10  170.58    8.00
  -2   6 -10  159.78    6.40
  -2   6 -10  115.79   38.80
   2  -6  10  181.28    7.30
   2  -6  10  157.78   44.20
   2  -6  10  182.28    6.80
  -3   6 -10  405.26   66.69
  -3   6 -10  462.65   17.00
   3  -6  10  487.15   15.90
   3  -6  10  421.56   65.09
   3  -6  10  494.25   15.70
  -4   6 -10  303.57   12.40
  -4   6 -10  224.88   58.09
   4  -6  10  334.37   11.50
   4  -6  10  312.07   11.30
   4  -6  10  272.27   53.49
  -5   6 -10  209.58    9.70
   5  -6  10  234.98    8.90
   5  -6  10  223.08    9.00
  -6   6 -10  105.49    6.40
   6  -6  10  107.69    5.50
   6  -6  10  109.09    5.70
  -7   6 -10    8.10    2.40
   7  -6  10    7.20    2.00
   7  -6  10    6.20    1.90
  -8   6 -10   52.89    5.40
  -8   6 -10   55.49    4.00
   8  -6  10   52.29    4.20
  -9   6 -10   82.99    5.20
  -9   6 -10   91.49    6.20
   9  -6  10   90.29    5.90
 -10   6 -10    3.60    1.70
 -10   6 -10    7.20    2.20
  10  -6  10    5.00    2.10
   7   5 -10  471.55   19.20
  -7  -5  10  455.55   16.40
  -7  -5  10  460.45   16.90
   6   5 -10   72.99    5.90
  -6  -5  10   67.09    4.70
   5   5 -10    6.90    1.90
   5   5 -10    4.10    2.90
  -5  -5  10    6.30    2.10
   4   5 -10   16.40    3.20
   4   5 -10   15.40    2.60
   4   5 -10   22.20   46.30
  -4  -5  10   16.20    2.90
   3   5 -10   12.80    2.70
   3   5 -10   19.30    2.50
  -3  -5  10   15.70    2.70
   2   5 -10   83.69    4.90
   2   5 -10   83.59    5.20
   2   5 -10   58.29   27.90
  -2  -5  10   84.29    4.70
   1   5 -10   73.09   32.10
   1   5 -10   99.69    5.50
   1   5 -10   96.89    5.30
  -1  -5  10  107.29    5.40
  -1  -5  10  107.49   32.40
   0   5 -10   45.40    3.20
   0   5 -10   94.99   24.10
   0   5 -10   48.70    3.70
   0  -5  10   55.69   26.30
   0  -5  10   50.49    2.40
   0  -5  10   53.09    3.60
  -1   5 -10   74.59    3.90
  -1   5 -10   79.49    4.80
   1  -5  10   85.89    4.60
   1  -5  10   53.89   38.70
   1  -5  10   78.09    3.50
  -2   5 -10  482.55   15.70
  -2   5 -10  480.85   92.39
  -2   5 -10  496.15   17.50
   2  -5  10  530.55   16.70
   2  -5  10  536.85   83.29
   2  -5  10  505.85   16.00
  -3   5 -10  510.45   68.09
  -3   5 -10  674.83   22.50
   3  -5  10  698.93   21.10
   3  -5  10  706.53   21.50
   3  -5  10  639.14   73.49
  -4   5 -10    2.30   14.30
  -4   5 -10   26.50    3.00
   4  -5  10   28.20   18.80
   4  -5  10   25.00    2.60
   4  -5  10   28.40    2.70
  -5   5 -10   48.10   21.50
  -5   5 -10   28.80    3.20
   5  -5  10   28.20    2.80
   5  -5  10   24.80   20.40
   5  -5  10   29.70    2.70
  -6   5 -10  237.98    9.60
  -6   5 -10  236.08   10.30
   6  -5  10  231.18    9.10
   6  -5  10  247.58    9.70
  -7   5 -10  425.96   16.00
  -7   5 -10  426.36   15.10
   7  -5  10  421.36   15.40
  -8   5 -10  272.57   11.90
  -8   5 -10  297.37   11.40
   8  -5  10  296.47   11.90
  -9   5 -10  247.38   10.20
  -9   5 -10  261.47   12.90
   9  -5  10  245.68   11.00
 -10   5 -10  221.38   10.10
 -10   5 -10  196.58    8.90
  10  -5  10  189.68    9.60
 -11   5 -10   34.30    3.30
  11  -5  10   37.90    3.80
   7   4 -10    5.50    2.30
  -7  -4  10    4.30    1.90
   6   4 -10   15.70    3.50
  -6  -4  10   16.20    3.10
  -6  -4  10   16.70    2.90
   5   4 -10  230.58   11.00
   5   4 -10  232.58    9.60
  -5  -4  10  225.68   10.00
   4   4 -10  649.24   23.40
   4   4 -10  679.63   22.10
   4   4 -10  654.63  116.69
  -4  -4  10  682.43   22.00
   3   4 -10  845.82  126.99
   3   4 -10  794.12  114.39
   3   4 -10  841.22   28.10
   3   4 -10  874.01   27.20
  -3  -4  10  855.01   26.90
   2   4 -10   43.00   24.00
   2   4 -10   18.50    2.90
   2   4 -10   17.60    2.30
   2   4 -10   -0.60   15.60
  -2  -4  10   18.20    2.40
   1   4 -10   17.80   17.50
   1   4 -10   26.30    2.60
   1   4 -10   25.60    2.50
  -1  -4  10   27.60    2.70
  -1  -4  10    2.00   14.80
   0   4 -10  640.94   73.99
   0   4 -10  651.23   22.30
   0  -4  10  632.24   78.09
   0  -4  10  680.73   21.10
  -1   4 -10  543.55   64.09
  -1   4 -10  496.85   17.00
   1  -4  10  560.54   69.89
   1  -4  10  599.24   20.80
   1  -4  10  521.05   16.30
  -2   4 -10  620.94   19.70
  -2   4 -10  569.84   65.39
  -2   4 -10  653.23   22.90
   2  -4  10  677.93   73.69
   2  -4  10  671.63   21.00
   2  -4  10  675.53   20.00
  -3   4 -10  683.63   22.70
  -3   4 -10  593.54   69.69
   3  -4  10  702.13   22.60
   3  -4  10  767.52   77.29
   3  -4  10  690.23   21.40
  -4   4 -10  370.76   56.19
  -4   4 -10  418.56   15.10
   4  -4  10  432.56   15.40
   4  -4  10  440.56   58.29
   4  -4  10  419.86   14.10
  -5   4 -10    7.30    2.10
  -5   4 -10   -0.80   13.30
  -5   4 -10   13.70    2.30
   5  -4  10   12.10    2.20
   5  -4  10   10.20    1.90
   5  -4  10    0.80   12.60
  -6   4 -10   89.19    4.90
  -6   4 -10   84.79    5.30
  -6   4 -10   81.19   38.90
   6  -4  10   87.99    5.00
  -7   4 -10    1.70    1.50
  -7   4 -10    3.20    1.20
   7  -4  10   -0.30    1.20
  -8   4 -10  240.88   10.50
  -8   4 -10  233.58    9.60
   8  -4  10  243.28   10.40
  -9   4 -10    0.60    1.10
  -9   4 -10    2.20    1.50
   9  -4  10    3.00    1.70
 -10   4 -10   94.79    6.50
 -10   4 -10   89.99    5.30
  10  -4  10   84.89    5.80
 -11   4 -10   81.49    5.20
  11  -4  10   77.39    5.80
   8   3 -10   56.29    5.20
  -8  -3  10   48.40    4.10
   7   3 -10   14.00    3.50
  -7  -3  10   18.50    2.70
  -7  -3  10   16.30    3.20
   6   3 -10  126.89    8.00
  -6  -3  10  135.39    6.70
  -6  -3  10  129.59    6.90
   5   3 -10   78.59    4.90
   5   3 -10   85.99    6.00
  -5  -3  10   75.09    4.80
   4   3 -10  119.19    6.00
   4   3 -10  100.69    6.40
   4   3 -10   98.19   82.09
  -4  -3  10   98.69    5.40
   3   3 -10  248.78    9.70
   3   3 -10  239.18   10.40
   3   3 -10  155.68   37.70
   3   3 -10  238.18   58.99
  -3  -3  10  240.38    9.40
   2   3 -10  270.07   10.40
   2   3 -10  193.48   51.19
   2   3 -10  259.07   10.80
   2   3 -10  265.67   49.60
  -2  -3  10  275.47   10.10
   1   3 -10   73.19    4.30
   1   3 -10   77.09   37.00
  -1  -3  10   71.29    4.10
   0   3 -10  698.03   71.39
   0   3 -10  767.42   24.30
   0  -3  10  764.62   77.89
  -1   3 -10  330.17   12.30
  -1   3 -10  239.28   42.00
  -1   3 -10  315.67   11.20
   1  -3  10  346.17   11.60
   1  -3  10  371.06   54.99
   1  -3  10  341.07   10.50
  -2   3 -10   38.20    3.10
  -2   3 -10   19.70   15.80
  -2   3 -10   31.90    2.00
   2  -3  10   32.40    2.10
   2  -3  10   22.00   17.00
   2  -3  10   31.20    2.80
  -3   3 -10  163.98    7.20
  -3   3 -10   91.69   27.10
   3  -3  10  162.58    6.70
   3  -3  10  147.49   37.60
   3  -3  10  166.48    6.30
  -4   3 -10  478.95   59.29
  -4   3 -10  569.84   19.50
   4  -3  10  583.24   18.60
   4  -3  10  592.84   18.60
   4  -3  10  644.94   65.29
  -5   3 -10  364.26   12.70
  -5   3 -10  265.47   47.20
  -5   3 -10  357.76   13.10
   5  -3  10  362.46   12.60
   5  -3  10  359.36   50.39
  -6   3 -10  407.26   59.49
  -6   3 -10  448.96   15.80
   6  -3  10  439.46   15.50
   6  -3  10  469.55   59.69
  -7   3 -10  848.42   27.20
  -7   3 -10  846.72   26.60
   7  -3  10  831.22   27.10
  -8   3 -10  290.77   11.40
  -8   3 -10  273.37   10.70
   8  -3  10  266.77   11.30
  -9   3 -10    4.50    1.60
  -9   3 -10    2.40    1.60
   9  -3  10    3.70    2.10
 -10   3 -10  111.49    6.40
 -10   3 -10  108.19    5.90
  10  -3  10   94.89    6.50
 -11   3 -10  390.26   14.80
 -11   3 -10  421.36   15.30
  11  -3  10  370.56   15.70
  -8  -2  10    1.70    2.10
  -8  -2  10    6.70    2.00
   7   2 -10  206.58   11.00
  -7  -2  10  230.68   10.20
  -7  -2  10  231.88    9.60
   6   2 -10  652.23   23.90
  -6  -2  10  677.73   25.90
  -6  -2  10  650.53   22.30
   5   2 -10   97.39   84.69
   5   2 -10  102.99    6.50
  -5  -2  10  100.69    5.40
  -5  -2  10  103.89    6.00
   4   2 -10   30.10   35.80
   4   2 -10    3.10    1.80
   4   2 -10    1.40    1.30
  -4  -2  10    4.90    1.70
   3   2 -10  460.15   15.90
   3   2 -10  474.85   72.79
   3   2 -10  410.66   60.09
   3   2 -10  449.26   16.60
  -3  -2  10  455.45   15.40
   2   2 -10  641.64   84.99
   2   2 -10  655.73   71.59
   2   2 -10  673.73   21.70
   2   2 -10  648.24   22.00
  -2  -2  10  671.53   21.10
   1   2 -10  159.88    7.10
   1   2 -10  162.18    7.20
   1   2 -10  166.08   42.00
   1   2 -10  125.99   41.90
   0   2 -10 1377.46   96.39
   0   2 -10 1320.67   41.20
   0  -2  10 1421.26   40.70
   0  -2  10 1353.56  100.89
  -1   2 -10 2884.21   83.59
  -1   2 -10 2917.31   84.69
  -1   2 -10 2791.82  147.79
   1  -2  10 2961.60  156.58
   1  -2  10 3004.40   83.89
  -2   2 -10  299.47   11.30
  -2   2 -10  294.97    9.80
  -2   2 -10  282.37   41.00
   2  -2  10  310.87   10.00
   2  -2  10  292.17   43.50
   2  -2  10  310.17   10.70
  -3   2 -10  222.18    9.00
  -3   2 -10  199.38   34.10
   3  -2  10  225.48    8.10
   3  -2  10  242.78   38.10
   3  -2  10  226.18    8.50
  -4   2 -10  294.47   10.70
  -4   2 -10  255.17   39.60
  -4   2 -10  286.27   11.00
   4  -2  10  292.57   10.40
   4  -2  10  324.17   42.80
  -5   2 -10  689.73   21.90
  -5   2 -10  544.35   91.69
   5  -2  10  669.13   21.40
   5  -2  10  659.03   80.99
  -6   2 -10   86.09    6.50
  -6   2 -10   93.49    4.70
  -6   2 -10   53.89   21.40
   6  -2  10   88.59    5.00
   6  -2  10   78.29   27.80
  -7   2 -10   26.80    2.90
  -7   2 -10   30.10    2.60
   7  -2  10   28.00    3.20
  -8   2 -10   42.90    3.50
  -8   2 -10   48.00    3.40
   8  -2  10   43.50    4.00
  -9   2 -10   14.60    2.70
  -9   2 -10   15.10    2.10
   9  -2  10   16.30    3.00
 -10   2 -10  549.45   20.00
 -10   2 -10  578.54   19.40
  10  -2  10  516.95   19.80
 -11   2 -10   79.79    5.00
  11  -2  10   79.89    5.90
 -12   2 -10   58.89    4.40
  12  -2  10   46.40    4.60
   8   1 -10   64.29    5.60
  -8  -1  10   72.39    4.80
  -8  -1  10   62.99    5.30
   7   1 -10    1.50    1.70
  -7  -1  10    1.00    1.40
   6   1 -10  404.16   16.80
  -6  -1  10  432.16   15.70
  -6  -1  10  436.96   15.10
   5   1 -10 1127.99  134.39
   5   1 -10 1212.28   39.90
  -5  -1  10 1246.78   38.60
  -5  -1  10 1315.17   38.20
   4   1 -10    1.20    1.30
   4   1 -10    0.40    1.20
   4   1 -10   -5.20   23.80
  -4  -1  10    1.90    1.30
   3   1 -10  241.88    9.60
   3   1 -10  238.88   41.90
   3   1 -10  168.68   47.60
   3   1 -10  240.48   10.20
  -3  -1  10  234.98    9.10
   2   1 -10   35.00    3.00
   2   1 -10   36.00    3.20
   2   1 -10   39.70   27.30
   2   1 -10   30.80   20.90
  -2  -1  10   40.00    3.00
   1   1 -10   -4.30   15.90
   1   1 -10   11.80    2.10
   1   1 -10    9.50   12.60
  -1  -1  10    8.10    1.90
   0   1 -10  116.99   28.50
   0   1 -10  120.09    5.80
   0   1 -10  117.69    5.50
   0  -1  10  123.49    5.40
  -1   1 -10   71.39    4.30
  -1   1 -10   68.79   21.80
  -1   1 -10   71.19    3.60
   1  -1  10   73.49    3.90
   1  -1  10   71.79    3.00
   1  -1  10   62.39   22.60
  -2   1 -10   14.20    1.90
  -2   1 -10   18.50   12.70
  -2   1 -10   10.50    1.20
   2  -1  10   13.70    2.00
   2  -1  10   11.00    1.50
   2  -1  10    0.20   10.60
  -3   1 -10  552.74   18.60
  -3   1 -10  476.45   48.90
   3  -1  10  540.85   51.89
   3  -1  10  590.44   17.80
   3  -1  10  591.84   18.10
  -4   1 -10 1970.90   57.39
  -4   1 -10 2015.90   57.69
  -4   1 -10 1749.32  107.29
   4  -1  10 1946.61   56.99
   4  -1  10 2056.09  108.49
  -5   1 -10  113.59    5.30
  -5   1 -10   89.99   24.90
  -5   1 -10  114.69    5.60
   5  -1  10   93.59   25.10
   5  -1  10  112.19    5.60
  -6   1 -10  -13.00    9.10
  -6   1 -10    5.20    1.60
  -6   1 -10    7.20    1.60
   6  -1  10    3.00    1.90
   6  -1  10    6.20    9.50
  -7   1 -10  274.87   10.50
  -7   1 -10  283.17   10.80
   7  -1  10  285.87   11.30
  -8   1 -10  636.74   20.90
  -8   1 -10  628.94   21.00
   8  -1  10  648.74   21.80
  -9   1 -10  105.59    5.50
   9  -1  10   96.19    6.20
 -10   1 -10  119.19    7.60
  10  -1  10  116.29    7.00
 -11   1 -10  343.07   13.50
 -11   1 -10  394.56   13.40
  11  -1  10  327.57   14.50
 -12   1 -10   57.99    4.40
  12  -1  10   64.29    5.40
   8   0 -10   12.70    3.00
  -8   0  10   13.00    3.30
  -8   0  10   13.80    2.70
   7   0 -10   69.79    5.80
  -7   0  10   78.79    5.80
  -7   0  10   78.49    4.80
   6   0 -10  231.38   11.20
  -6   0  10  233.48   10.30
  -6   0  10  247.18    9.60
   5   0 -10   18.30    2.90
   5   0 -10   59.79   35.40
  -5   0  10   24.10    3.70
  -5   0  10   26.20    2.70
   4   0 -10    2.00    1.30
   4   0 -10  -25.70   30.00
  -4   0  10    4.40    1.50
  -4   0  10    3.80    1.90
   3   0 -10 1276.57  116.79
   3   0 -10 1313.37   39.90
   3   0 -10 1165.68   99.29
   3   0 -10 1353.76   40.60
  -3   0  10 1304.67   38.90
   2   0 -10 2688.33   79.39
   2   0 -10 2833.62  177.38
   2   0 -10 2700.73  149.09
   2   0 -10 2728.33   79.89
  -2   0  10 2704.73   78.49
   1   0 -10  302.17   48.40
   1   0 -10  332.47   12.00
   1   0 -10  324.37   12.00
   1   0 -10  312.77   42.00
  -1   0  10  332.67   11.30
   0   0 -10   -0.40    9.70
   0   0 -10   -3.40   11.10
   0   0 -10    2.10    1.10
   0   0 -10    2.50    1.10
   0   0  10    2.80    1.30
  -1   0 -10  727.23   23.00
  -1   0 -10  649.83   52.59
   1   0  10  744.63   22.20
  -2   0 -10  754.12   24.00
  -2   0 -10  810.82   24.70
  -2   0 -10  691.13   52.09
   2   0  10  801.32   58.79
   2   0  10  801.32   23.80
  -3   0 -10   15.80    2.00
  -3   0 -10   20.40    1.40
  -3   0 -10   16.50    1.80
  -3   0 -10   17.50    9.60
   3   0  10   20.30    2.20
   3   0  10   29.60   13.30
  -4   0 -10  313.37   11.40
  -4   0 -10  300.87   11.10
  -4   0 -10  324.07   37.40
   4   0  10  326.37   11.20
   4   0  10  350.36   36.30
  -5   0 -10  830.32   25.50
  -5   0 -10  789.42   25.10
  -5   0 -10  758.32   63.89
   5   0  10  865.41   62.79
   5   0  10  811.62   25.40
  -6   0 -10    6.20    1.60
  -6   0 -10    4.20    1.20
  -6   0 -10   -7.60    8.50
   6   0  10    4.80    2.30
   6   0  10    6.00   10.80
  -7   0 -10  499.55   70.09
  -7   0 -10  643.94   20.80
  -7   0 -10  642.24   20.80
   7   0  10  690.13   21.70
  -8   0 -10  109.09    5.50
   8   0  10  110.29    6.40
  -9   0 -10  108.59    5.60
   9   0  10  119.09    6.80
 -10   0 -10    2.20    1.10
  10   0  10    1.10    1.80
 -11   0 -10  114.89    6.20
  11   0  10  111.69    7.20
 -12   0 -10   57.39    4.40
  12   0  10   56.99    5.20
   8  -1 -10  606.34   23.60
  -8   1  10  622.24   22.40
  -8   1  10  654.93   21.30
   7  -1 -10   91.99    6.60
  -7   1  10   91.09    6.40
  -7   1  10  101.09    6.30
   6  -1 -10   11.70    2.80
  -6   1  10   13.40    3.20
  -6   1  10   13.90    2.40
   5  -1 -10  260.37   11.60
   5  -1 -10  130.09   59.29
  -5   1  10  264.07    9.90
  -5   1  10  273.47   11.10
   4  -1 -10    9.50   37.50
   4  -1 -10   25.10    3.00
  -4   1  10   23.10    3.30
  -4   1  10   24.50    2.50
   3  -1 -10   57.89   30.20
   3  -1 -10   60.59   28.50
   3  -1 -10   65.99    4.60
  -3   1  10   64.39    4.60
   2  -1 -10  217.58    9.10
   2  -1 -10  263.47   43.20
   2  -1 -10  218.38   36.10
   2  -1 -10  212.38   10.80
  -2   1  10  232.98    8.40
   1  -1 -10  375.46   44.30
   1  -1 -10  350.16   49.40
   1  -1 -10  423.96   14.50
   1  -1 -10  423.16   14.50
  -1   1  10  410.76   13.50
   0  -1 -10  243.08    9.50
   0  -1 -10  227.98   34.20
   0  -1 -10  238.88   32.00
   0  -1 -10  239.18    9.30
   0   1  10  262.17    8.90
  -1  -1 -10 1391.86   82.19
  -1  -1 -10 1303.27   71.39
  -1  -1 -10 1398.06   41.90
  -1  -1 -10 1381.76   41.50
   1   1  10 1438.76   41.10
   1   1  10 1434.76   40.30
  -2  -1 -10   -0.20    0.70
  -2  -1 -10   -6.10    4.60
  -2  -1 -10    2.10    0.80
   2   1  10    4.50    1.50
   2   1  10    3.20    1.40
  -3  -1 -10    1.80    1.10
  -3  -1 -10    2.40    0.90
  -3  -1 -10    5.50    6.30
  -3  -1 -10    2.30    0.70
   3   1  10    5.10    6.40
   3   1  10    2.90    1.40
  -4  -1 -10  412.86   13.90
  -4  -1 -10  408.16   14.20
  -4  -1 -10  408.96   36.20
   4   1  10  433.96   14.10
   4   1  10  410.06   13.50
   4   1  10  419.86   35.60
  -5  -1 -10  345.57   12.00
  -5  -1 -10  293.77   36.60
  -5  -1 -10  330.87   11.70
   5   1  10  344.57   11.70
   5   1  10  349.27   33.70
   5   1  10  336.57   12.10
  -6  -1 -10   26.80   15.90
  -6  -1 -10   56.99    3.40
  -6  -1 -10   58.79    4.30
   6   1  10   62.59   19.80
   6   1  10   60.09    4.90
  -7  -1 -10  289.57   48.60
  -7  -1 -10  380.76   13.20
   7   1  10  383.96   14.10
   7   1  10  444.36   62.79
  -8  -1 -10 1192.18   37.50
  -8  -1 -10 1278.77   37.40
   8   1  10 1230.58   38.60
  -9  -1 -10  230.08    9.40
  -9  -1 -10  240.78    9.10
   9   1  10  228.58   10.50
 -10  -1 -10   27.10    2.70
  10   1  10   26.50    4.20
 -11  -1 -10   21.50    2.50
  11   1  10   19.90    3.90
 -12  -1 -10  150.68    7.70
  12   1  10  148.59    8.70
   8  -2 -10   54.89    5.20
  -8   2  10   57.19    5.60
  -8   2  10   50.09    3.70
   7  -2 -10   36.00    4.20
  -7   2  10   41.10    3.30
  -7   2  10   29.90    4.50
   6  -2 -10  388.66   16.30
  -6   2  10  458.15   20.10
  -6   2  10  403.06   14.20
   5  -2 -10  611.24  107.99
   5  -2 -10  721.13   24.80
  -5   2  10  718.83   23.90
  -5   2  10  700.33   22.30
   4  -2 -10  117.49    6.80
   4  -2 -10   91.59   39.30
  -4   2  10  122.79    5.50
  -4   2  10  129.09    6.70
   3  -2 -10  361.86   13.80
   3  -2 -10  309.87   53.09
  -3   2  10  357.76   13.30
  -3   2  10  356.76   12.10
   2  -2 -10  478.95   16.80
   2  -2 -10  483.05   17.10
   2  -2 -10  468.25   51.59
   2  -2 -10  512.85   60.39
  -2   2  10  492.45   16.90
  -2   2  10  490.95   15.70
   1  -2 -10   79.49   24.80
   1  -2 -10  137.39   24.90
   1  -2 -10  118.69    5.90
   1  -2 -10  114.29    6.40
  -1   2  10  124.39    5.20
   0  -2 -10   27.10   12.10
   0  -2 -10   17.60    2.00
   0  -2 -10   16.70    1.90
   0  -2 -10   25.00   12.00
   0   2  10   17.80    2.00
  -1  -2 -10  843.82   25.60
  -1  -2 -10  843.02   26.00
  -1  -2 -10  816.92   48.20
  -1  -2 -10  779.92   44.20
   1   2  10  829.92   25.10
   1   2  10  844.92   24.70
  -2  -2 -10 2231.48   65.69
   2   2  10 2290.87   65.09
   2   2  10 2240.98   64.89
  -3  -2 -10   35.90    2.20
  -3  -2 -10   34.10    2.60
  -3  -2 -10   39.80    2.60
   3   2  10   43.30    3.10
  -4  -2 -10   20.20    6.70
  -4  -2 -10   15.30    1.70
  -4  -2 -10   16.90    1.90
   4   2  10   24.70    4.00
   4   2  10   17.30    2.60
   4   2  10   22.70    6.60
  -5  -2 -10   22.80    2.20
  -5  -2 -10   20.60    2.00
  -5  -2 -10   10.90    9.00
   5   2  10   20.30    2.80
   5   2  10   32.50   11.00
   5   2  10   18.30    3.20
  -6  -2 -10   29.10    1.70
  -6  -2 -10   20.80   11.50
  -6  -2 -10   19.40    2.00
   6   2  10   13.00   10.30
   6   2  10   22.30    3.50
   6   2  10   24.10    5.10
  -7  -2 -10   48.40    3.10
  -7  -2 -10   53.39   26.50
  -7  -2 -10   49.40    3.20
   7   2  10   47.30    4.20
  -8  -2 -10   10.40    1.90
  -8  -2 -10   13.10    1.70
   8   2  10   13.50    3.10
  -9  -2 -10    7.90    1.70
  -9  -2 -10   14.40    1.50
   9   2  10    7.60    2.50
 -10  -2 -10   23.70    2.60
  10   2  10   30.20    4.50
 -11  -2 -10  246.18   10.40
  11   2  10  243.68   11.60
 -12  -2 -10   90.79    5.60
  12   2  10   85.89    6.60
   8  -3 -10  147.89   10.50
  -8   3  10  143.99    6.60
  -8   3  10  141.39    8.70
   7  -3 -10   28.50    3.90
  -7   3  10   28.10    4.60
  -7   3  10   29.00    2.70
   6  -3 -10    4.70    1.90
  -6   3  10    5.10    2.60
   5  -3 -10  211.88   10.30
  -5   3  10  212.38    8.20
  -5   3  10  223.78   10.00
   4  -3 -10  433.06   16.60
   4  -3 -10  509.55   70.69
  -4   3  10  430.96   15.90
   3  -3 -10    3.40    1.50
   3  -3 -10  -11.10   16.20
  -3   3  10    3.30    1.90
  -3   3  10    1.00    1.00
   2  -3 -10   28.50   15.20
   2  -3 -10   36.20    3.30
   2  -3 -10   21.70   15.50
  -2   3  10   41.30    3.70
  -2   3  10   36.90    2.60
   1  -3 -10   72.39   25.40
   1  -3 -10   96.59    5.00
   1  -3 -10   74.79   21.20
  -1   3  10   78.59    4.90
  -1   3  10   80.29    4.00
   0  -3 -10    1.00    8.10
   0  -3 -10    4.30   10.00
   0  -3 -10    7.30    1.70
   0  -3 -10    6.40    1.00
   0  -3 -10    9.40    1.60
   0   3  10    6.80    1.50
  -1  -3 -10    8.50    1.60
  -1  -3 -10   11.40    1.20
  -1  -3 -10    9.20    1.80
   1   3  10   11.70    1.70
  -2  -3 -10    6.30    1.40
  -2  -3 -10    6.20    1.40
   2   3  10    7.80    1.60
  -3  -3 -10   27.50    2.30
  -3  -3 -10   27.10    2.20
   3   3  10   27.50    2.70
  -4  -3 -10  394.16   13.30
  -4  -3 -10  395.06   13.10
   4   3  10  392.86   13.80
   4   3  10  385.26   13.60
  -5  -3 -10  797.22   24.30
   5   3  10  817.42   37.80
   5   3  10  784.02   25.20
   5   3  10  791.32   25.10
   5   3  10  734.33   38.30
  -6  -3 -10  734.63   22.40
  -6  -3 -10  723.73   22.70
   6   3  10  683.33   23.90
   6   3  10  731.13   23.70
   6   3  10  752.32   48.20
  -7  -3 -10   54.79    3.40
  -7  -3 -10   52.59    3.10
   7   3  10   55.49    5.20
   7   3  10   58.39    4.60
  -8  -3 -10    1.60    1.00
  -8  -3 -10    4.70    1.10
   8   3  10    3.10    2.10
   8   3  10    3.30    2.00
  -9  -3 -10  103.09    5.50
   9   3  10  109.49    5.90
   9   3  10  104.59    6.70
 -10  -3 -10  207.68    9.00
  10   3  10  231.28    9.10
  10   3  10  204.68   10.40
 -11  -3 -10   83.29    5.10
  11   3  10   77.69    6.30
 -12  -3 -10   89.89    5.60
  12   3  10   92.69    7.00
   7  -4 -10   96.39    6.70
  -7   4  10   91.99    7.00
  -7   4  10  100.89    4.80
   6  -4 -10  168.98    9.10
  -6   4  10  166.68    9.10
  -6   4  10  177.88    7.00
  -5   4  10  177.08    7.00
  -5   4  10  183.78    9.10
   4  -4 -10   22.40   28.70
   4  -4 -10   56.99    4.50
  -4   4  10   55.59    4.80
  -4   4  10   62.29    3.40
   3  -4 -10  -13.00   20.90
   3  -4 -10    6.80    2.00
  -3   4  10    6.50    2.30
   2  -4 -10  242.78   42.10
   2  -4 -10  273.77   10.70
  -2   4  10  260.07   10.40
  -2   4  10  235.98    8.80
   1  -4 -10 1113.09   75.99
   1  -4 -10 1172.68   36.30
   1  -4 -10 1218.48   72.19
  -1   4  10 1148.19   34.40
  -1   4  10 1205.38   36.10
   0  -4 -10 1033.60   29.90
   0  -4 -10 1035.40   31.90
   0  -4 -10  979.50   54.59
   0  -4 -10  996.90   56.89
   0   4  10 1046.10   30.40
   0   4  10 1041.10   31.70
  -1  -4 -10   41.90    3.00
  -1  -4 -10   38.50    2.20
  -1  -4 -10   39.70    3.00
   1   4  10   40.40    2.60
  -2  -4 -10   12.50    1.70
  -2  -4 -10   14.80    1.80
   2   4  10   13.80    1.80
  -3  -4 -10    7.20    1.40
  -3  -4 -10    5.70    1.20
  -3  -4 -10    5.80    1.40
  -3  -4 -10    9.00    1.70
  -4  -4 -10  239.58    8.60
  -4  -4 -10  233.08    8.50
   4   4  10  229.18    9.80
  -5  -4 -10   83.59    4.10
  -5  -4 -10   74.29    3.80
   5   4  10   78.39    5.60
   5   4  10   83.29    5.00
  -6  -4 -10  157.38    6.60
  -6  -4 -10  155.48    6.10
   6   4  10  157.78    8.60
   6   4  10  158.28   20.10
   6   4  10  126.99   21.70
   6   4  10  163.28    7.70
  -7  -4 -10  113.99    5.50
  -7  -4 -10  117.09    4.80
   7   4  10  115.89    6.70
   7   4  10  115.19   26.40
   7   4  10  122.49    7.90
  -8  -4 -10   56.39    3.70
   8   4  10   62.89    5.60
   8   4  10   52.39    4.80
   8   4  10   39.00   20.60
  -9  -4 -10  260.57   10.20
   9   4  10  268.67   11.70
   9   4  10  267.97   11.80
   9   4  10  175.78   45.50
 -10  -4 -10   14.20    2.50
  10   4  10    9.60    3.10
 -12  -4 -10    0.40    1.20
  12   4  10    2.50    2.20
   7  -5 -10  309.07   13.90
  -7   5  10  316.57   14.10
   6  -5 -10  243.98   11.80
  -6   5  10  254.87   11.80
  -6   5  10  249.68    9.00
   5  -5 -10   20.40    3.10
  -5   5  10   20.90    1.80
  -5   5  10   23.30    4.20
   4  -5 -10    6.50   28.50
   4  -5 -10   18.00    3.20
  -4   5  10   13.10    3.10
  -4   5  10   16.10    1.60
   3  -5 -10   29.10    3.20
   3  -5 -10   14.90   27.10
  -3   5  10   35.70    2.30
  -3   5  10   27.90    3.60
  -3   5  10   42.00   22.80
   2  -5 -10   80.39    5.00
   2  -5 -10   44.60   19.80
  -2   5  10   42.00   24.90
  -2   5  10   73.89    3.50
  -2   5  10   72.59    4.90
   1  -5 -10   -3.40   14.20
   1  -5 -10   11.80    2.30
   1  -5 -10   10.60    1.10
  -1   5  10   10.30    1.50
  -1   5  10   11.60    2.50
   0  -5 -10   65.19   22.00
   0  -5 -10   73.79    3.30
   0  -5 -10   80.99   17.20
   0  -5 -10   74.19    4.50
   0   5  10   70.59    3.40
   0   5  10   77.49    4.70
  -1  -5 -10    9.90    2.10
   1   5  10    8.10    2.10
   1   5  10    7.60    1.40
  -2  -5 -10  257.17    9.80
  -2  -5 -10  265.27    9.10
   2   5  10  262.37    9.00
   2   5  10  264.97    9.70
  -3  -5 -10  825.82   25.60
  -3  -5 -10  805.12   25.00
  -3  -5 -10  839.82   25.10
  -3  -5 -10  820.62   25.40
  -4  -5 -10  262.37    9.70
  -4  -5 -10  269.77    9.60
   4   5  10  280.57   11.40
  -5  -5 -10   65.59    3.60
  -5  -5 -10   68.29    3.50
  -5  -5 -10   73.39    3.90
   5   5  10   66.09    5.60
  -6  -5 -10   96.79    4.20
  -6  -5 -10  100.89    4.80
   6   5  10  106.99    6.10
   6   5  10   99.59    7.20
   6   5  10   71.19   13.30
   6   5  10   77.99   16.30
  -7  -5 -10  153.58    6.60
   7   5  10  154.28    7.90
   7   5  10  144.79    9.20
   7   5  10  114.59   26.00
  -8  -5 -10   56.99    3.70
   8   5  10   54.39    6.40
   8   5  10   58.79    5.00
   8   5  10   27.40   20.10
  -9  -5 -10  187.78    8.10
   9   5  10  198.38   10.50
   9   5  10  191.88   45.10
   9   5  10  182.38    9.80
 -10  -5 -10  300.87   12.00
  10   5  10  309.27   13.70
  10   5  10  336.07   14.10
 -11  -5 -10    7.70    2.00
  11   5  10    6.40    3.10
 -12  -5 -10  128.39    9.10
  12   5  10  113.29    8.60
   7  -6 -10   54.79    5.10
  -7   6  10   45.00    5.70
   6  -6 -10   22.80    3.50
  -6   6  10   17.40    4.00
   5  -6 -10    4.90    1.90
  -5   6  10    3.90    2.60
  -4   6  10  380.96   12.70
  -4   6  10  439.26   20.20
   3  -6 -10  987.80   28.10
   3  -6 -10  806.72   90.79
   3  -6 -10  930.31   31.30
  -3   6  10  959.20   97.79
  -3   6  10  956.30   28.10
  -3   6  10  993.90   30.90
   2  -6 -10   61.99    3.00
   2  -6 -10   62.29    4.50
   2  -6 -10   32.70   31.50
  -2   6  10   60.89    4.70
  -2   6  10   64.09    3.00
   1  -6 -10    1.50    1.10
   1  -6 -10    0.60    0.50
  -1   6  10    3.30    1.00
  -1   6  10   -3.10   11.80
  -1   6  10    2.70    1.90
   0  -6 -10  210.88   24.90
   0  -6 -10  241.38    9.90
   0  -6 -10  246.28    8.40
   0   6  10  250.57    9.70
   0   6  10  240.78    8.20
  -1  -6 -10   21.10    2.30
   1   6  10   21.70    3.30
   1   6  10   22.00    1.80
  -2  -6 -10    1.00    0.70
  -2  -6 -10    3.30    1.60
   2   6  10    1.50    0.90
   2   6  10    2.40    1.40
  -3  -6 -10  252.17    9.20
  -3  -6 -10  248.68    9.80
   3   6  10  261.87    9.30
  -4  -6 -10  861.21   26.80
  -4  -6 -10  887.01   26.60
   4   6  10  882.21   29.00
   4   6  10  854.51   26.30
  -5  -6 -10   14.10    1.80
  -5  -6 -10   14.20    1.60
   5   6  10   14.90    1.90
   5   6  10   20.70    4.40
  -6  -6 -10  506.15   17.10
  -6  -6 -10  518.05   16.70
   6   6  10  492.75   15.50
  -7  -6 -10   -1.30    0.70
   7   6  10    0.80    3.60
   7   6  10   -0.30    1.60
   7   6  10   -7.00    9.90
  -8  -6 -10  100.79    5.20
   8   6  10  109.09    8.70
   8   6  10  101.79    6.80
   8   6  10   80.69   27.90
  -9  -6 -10   12.80    2.90
   9   6  10   21.10    4.80
   9   6  10   12.60    3.50
 -10  -6 -10    9.30    2.30
  10   6  10   14.10    3.60
   6  -7 -10   97.69    6.80
  -6   7  10   99.29    7.40
   5  -7 -10    4.30    2.00
   5  -7 -10    4.40    1.90
  -5   7  10    0.80    2.40
   4  -7 -10    2.80    1.50
   4  -7 -10    4.00    1.10
  -4   7  10    0.70    2.20
   3  -7 -10  344.97   91.29
   3  -7 -10  346.37   11.20
   3  -7 -10  328.77   13.80
  -3   7  10  350.26   13.80
   2  -7 -10  394.66   54.39
   2  -7 -10  371.96   12.20
   2  -7 -10  375.66   14.60
  -2   7  10  386.36   14.40
  -2   7  10  340.47   51.39
   1  -7 -10  143.09    5.60
   1  -7 -10  142.09    7.20
   1  -7 -10   86.19   25.10
  -1   7  10  181.68   33.70
  -1   7  10  145.39    7.20
   0  -7 -10  421.26   37.10
   0  -7 -10  410.46   15.10
   0   7  10  408.16   12.80
   0   7  10  383.26   40.10
   0   7  10  432.76   14.80
  -1  -7 -10   12.70    2.00
  -1  -7 -10   14.90    1.60
   1   7  10   15.50    1.60
   1   7  10   15.00    2.70
  -2  -7 -10    1.80    1.10
  -2  -7 -10    2.50    1.20
   2   7  10    1.30    1.50
   2   7  10    2.50    1.00
  -3  -7 -10  163.78    6.40
  -3  -7 -10  167.68    6.80
   3   7  10  170.08    6.80
   3   7  10  161.28    8.90
  -4  -7 -10   16.80    2.00
   4   7  10   26.80    4.70
   4   7  10   17.20    2.20
  -5  -7 -10   64.29    3.80
   5   7  10   57.79    3.20
   5   7  10   53.69    6.10
  -6  -7 -10  279.07    9.90
  -6  -7 -10  257.17   10.30
   6   7  10  261.47   13.40
  -7  -7 -10  982.20   29.50
  -7  -7 -10  967.50   30.30
   7   7  10  903.81   33.50
  -8  -7 -10   21.90    2.30
   8   7  10   32.50    6.50
   8   7  10   29.70    5.30
   8   7  10   -4.70   16.00
  -9  -7 -10  135.19    6.50
   9   7  10  135.69    8.40
   9   7  10  137.59   10.10
 -10  -7 -10   -0.10    1.00
  10   7  10    0.30    2.20
 -11  -7 -10   46.80    3.80
  11   7  10   58.79    6.00
   5  -8 -10   16.20    2.60
   5  -8 -10   11.90    2.80
  -5   8  10   17.10    4.30
   4  -8 -10   60.79    5.00
   4  -8 -10   60.59    3.30
  -4   8  10   58.29    5.60
   3  -8 -10  204.58    7.40
   3  -8 -10  188.58    9.60
  -3   8  10  207.88    9.90
   2  -8 -10    3.60   24.50
   2  -8 -10   20.50    2.00
   2  -8 -10   23.10    3.00
  -2   8  10   28.80   21.10
  -2   8  10   23.40    3.70
   1  -8 -10   67.89    4.80
   1  -8 -10   59.29   23.50
  -1   8  10   61.29   21.20
  -1   8  10   76.39    5.30
   0  -8 -10  336.07   13.10
   0  -8 -10  346.57   11.60
   0  -8 -10  306.17   35.20
   0   8  10  347.47   12.80
   0   8  10  312.97   36.90
  -1  -8 -10  771.12   25.20
  -1  -8 -10  775.62   23.80
   1   8  10  756.02   22.70
   1   8  10  765.62   24.50
  -2  -8 -10   25.60    2.20
  -2  -8 -10   25.50    2.70
   2   8  10   23.60    1.90
   2   8  10   22.60    2.80
  -3  -8 -10   97.09    4.80
  -3  -8 -10   98.29    4.40
   3   8  10  108.29    7.60
   3   8  10   96.09    4.90
  -4  -8 -10   51.29    3.00
  -4  -8 -10   49.80    3.30
   4   8  10   51.39    6.00
   4   8  10   46.40    3.20
  -5  -8 -10   15.40    2.40
   5   8  10   18.00    4.80
   5   8  10   13.90    1.90
  -6  -8 -10   54.99    3.80
  -6  -8 -10   47.20    3.20
   6   8  10   49.40    6.90
  -7  -8 -10   18.80    2.50
  -7  -8 -10   17.10    2.10
   7   8  10   20.50   11.70
   7   8  10   33.70    7.00
  -8  -8 -10  236.28   10.10
  -8  -8 -10  235.68    9.20
   8   8  10  229.58   13.90
   8   8  10  164.08   34.50
  -9  -8 -10    8.90    2.00
   9   8  10    8.20    3.20
   9   8  10   13.30    5.60
 -10  -8 -10  282.97   11.20
  10   8  10  286.37   15.10
  10   8  10  279.27   13.50
   5  -9 -10  256.57   12.10
  -5   9  10  239.78   12.30
   4  -9 -10   15.70    2.00
   4  -9 -10   17.10    3.40
  -4   9  10   16.20    4.20
   3  -9 -10   46.90    2.90
   3  -9 -10   46.80    4.30
  -3   9  10   50.19    5.20
   2  -9 -10   23.30    3.20
  -2   9  10   25.00    4.30
   1  -9 -10  104.69    7.60
   1  -9 -10  105.19    4.80
   1  -9 -10   66.29   30.00
  -1   9  10  107.69    6.50
  -1   9  10   64.39   23.20
   0  -9 -10  141.69    6.00
   0  -9 -10   84.29   24.80
   0  -9 -10  138.19    7.20
   0   9  10  124.19   33.40
   0   9  10  135.99    7.10
  -1  -9 -10   10.80   12.70
  -1  -9 -10   32.30    2.60
  -1  -9 -10   30.20    3.20
   1   9  10   30.20    3.50
   1   9  10   25.80   12.10
  -2  -9 -10  195.38    7.70
   2   9  10  187.58    6.60
   2   9  10  179.38    7.90
   2   9  10  180.78   10.40
  -3  -9 -10   65.09    3.90
  -3  -9 -10   68.69    3.40
   3   9  10   60.69    6.60
  -4  -9 -10  622.24   20.70
  -4  -9 -10  652.93   19.80
   4   9  10  611.94   19.80
   4   9  10  635.94   24.20
  -5  -9 -10   35.00    3.00
  -5  -9 -10   32.40    2.50
   5   9  10   41.00    7.10
  -6  -9 -10   35.70    3.20
   6   9  10   44.20    7.60
  -7  -9 -10    0.60    1.20
  -7  -9 -10    1.80    1.10
   7   9  10    0.00    4.30
  -8  -9 -10    6.50    2.20
  -8  -9 -10    3.10    1.30
   8   9  10    9.60    7.80
  -9  -9 -10   41.20    3.30
   9   9  10   45.40    5.40
   9   9  10   56.79    8.30
   4 -10 -10   54.89    3.70
   4 -10 -10   59.39    5.20
  -4  10  10   55.59    6.10
   3 -10 -10   77.19    5.80
  -3  10  10   82.39    6.70
   2 -10 -10  234.78   10.90
   2 -10 -10  243.28    9.20
  -2  10  10  240.88   11.30
   1 -10 -10    9.00    1.70
   1 -10 -10    9.80    2.40
  -1  10  10   11.60    3.90
   0 -10 -10   15.20    2.10
   0 -10 -10   18.20    2.60
   0 -10 -10    2.70   19.20
   0  10  10   20.80    3.60
   0  10  10   43.00   16.70
  -1 -10 -10   25.00    2.40
   1  10  10   26.40   24.10
   1  10  10   25.00    3.80
  -2 -10 -10    8.60    1.70
   2  10  10    7.60    4.10
   2  10  10    8.80    2.60
  -3 -10 -10   95.09    4.20
  -3 -10 -10   92.19    5.10
   3  10  10   95.59    5.30
   3  10  10   97.59    8.50
  -4 -10 -10   42.10    2.70
  -4 -10 -10   42.00    3.40
   4  10  10   38.00    3.30
   4  10  10   40.90    6.90
  -5 -10 -10  217.78    8.00
  -5 -10 -10  205.08    9.00
   5  10  10  186.58   13.90
  -6 -10 -10    6.50    1.50
  -6 -10 -10    5.10    1.70
   6  10  10    3.80    5.10
  -7 -10 -10  144.39    7.50
  -7 -10 -10  156.58    6.90
   7  10  10  153.68   12.20
  -8 -10 -10   41.30    3.80
  -8 -10 -10   41.20    3.30
   8  10  10   51.09    8.50
  -9 -10 -10   -0.20    0.90
  -9 -10 -10    1.50    1.60
   9  10  10    4.30    4.30
   9  10  10   -1.60    2.20
   3 -11 -10   76.49    5.80
  -3  11  10   73.59    7.10
   2 -11 -10   12.80    3.20
   2 -11 -10   14.90    2.10
  -2  11  10   10.90    3.60
   1 -11 -10  124.29    7.40
   1 -11 -10  123.69    6.00
  -1  11  10  127.19    7.90
   0 -11 -10    3.20    1.60
   0 -11 -10    0.70    1.80
   0  11  10    2.60    3.10
  -1 -11 -10   57.69    4.80
   1  11  10   57.19    7.30
   1  11  10   60.09    5.20
  -2 -11 -10   46.50    3.50
   2  11  10   40.10    6.50
   2  11  10   43.00    4.40
  -3 -11 -10    4.50    1.50
   3  11  10    7.60    2.40
   3  11  10   13.80    5.10
  -4 -11 -10    2.50    1.00
  -4 -11 -10   -0.20    1.00
   4  11  10    2.70    4.60
   4  11  10    0.40    2.00
  -5 -11 -10   54.49    4.00
  -5 -11 -10   57.29    3.40
   5  11  10   57.29    8.80
  -6 -11 -10   74.59    4.90
  -6 -11 -10   80.39    4.30
   6  11  10   75.09    9.50
  -7 -11 -10   13.10    1.60
  -7 -11 -10   21.50    2.70
   7  11  10   24.70    7.20
  -8 -11 -10   42.40    4.00
  -8 -11 -10   41.60    3.20
   8  11  10   60.19   10.20
   1 -12 -10   13.50    2.40
   1 -12 -10   13.00    3.00
  -1  12  10   20.80    4.40
   0 -12 -10   78.09    4.50
   0  12  10   76.69    6.20
   0  12  10   68.59    8.10
  -1 -12 -10   21.00    2.50
   1  12  10   21.70    4.60
   1  12  10   18.30    6.10
  -2 -12 -10   61.99    4.20
   2  12  10   56.19    8.00
   2  12  10   59.99    5.10
  -3 -12 -10   39.10    3.30
   3  12  10   31.70    7.30
   3  12  10   28.90    3.80
  -4 -12 -10   25.50    2.90
   4  12  10   36.00    8.10
  -5 -12 -10   86.39    5.30
   5  12  10   94.19   10.20
  -6 -12 -10   25.00    2.50
  -6 -12 -10   23.60    3.00
   6  12  10   24.10    7.50
  -7 -12 -10    3.60    1.50
  -7 -12 -10    0.10    1.40
   7  12  10    5.50    5.70
  -1 -13 -10   11.10    2.20
   1  13  10    5.80    4.90
   1  13  10    7.60    3.00
  -2 -13 -10    0.40    1.10
   2  13  10    1.80    2.30
   2  13  10    2.20    4.50
  -3 -13 -10  105.89    6.00
   3  13  10  104.19   10.90
   3  13  10  121.59    8.70
  -4 -13 -10  142.49    7.30
   4  13  10  136.99   12.50
  -5 -13 -10    6.30    2.10
   5  13  10   10.10    6.20
   1  11 -11  179.88    8.40
  -1 -11  11  169.08    8.10
  -1 -11  11  161.58    7.00
   0  11 -11   91.69    5.80
   0 -11  11   83.39    5.30
   0 -11  11   68.49    4.20
  -1  11 -11   97.49    6.00
   1 -11  11   74.29    4.70
   1 -11  11   70.69    5.10
  -2  11 -11   51.89    4.60
   2 -11  11   42.10    3.50
   2 -11  11   44.30    4.00
  -3  11 -11   34.10    4.10
   3 -11  11   34.50    3.20
  -4  11 -11  159.18    8.50
   4 -11  11  144.69    7.30
  -5  11 -11  322.67   14.40
   5 -11  11  342.67   13.30
   5 -11  11  339.17   12.50
  -3 -10  11    2.20    1.70
   2  10 -11   27.40    3.20
  -2 -10  11   15.20    3.10
   1  10 -11  211.68    9.70
  -1 -10  11  217.38    9.50
  -1 -10  11  211.88    8.00
  -1  10 -11  134.59    7.80
   1 -10  11  155.38    8.50
   1 -10  11  153.38    6.60
  -2  10 -11  135.79    7.70
   2 -10  11  141.79    7.00
   2 -10  11  147.89    6.70
  -3  10 -11   60.79    4.90
   3 -10  11   55.69    5.00
   3 -10  11   58.19    4.40
  -4  10 -11   79.49    5.90
   4 -10  11   79.59    5.00
   4 -10  11   79.59    4.90
  -5  10 -11   92.99    6.50
   5 -10  11   91.69    5.50
  -6  10 -11   39.00    4.30
   6 -10  11   34.50    3.50
   6 -10  11   27.30    5.60
   4   9 -11  265.07   11.00
   4   9 -11  235.68    9.30
  -4  -9  11  189.18    9.70
   3   9 -11  138.89    7.30
  -3  -9  11  106.99    6.40
   2   9 -11  295.97   12.90
   2   9 -11  340.17   13.50
  -2  -9  11  328.87   12.60
   1   9 -11  120.39    6.90
  -1  -9  11  132.29    5.40
  -1  -9  11  135.09    6.80
   0   9 -11    4.40    2.10
   0  -9  11    5.50    2.00
   0  -9  11    5.70    1.30
  -1   9 -11  151.68    9.30
   1  -9  11  167.78    6.70
   1  -9  11  151.78    7.40
  -2   9 -11 1158.98   33.70
  -2   9 -11 1017.20   37.10
   2  -9  11 1151.78   34.10
   2  -9  11 1117.99   34.40
  -3   9 -11  529.05   20.00
   3  -9  11  556.94   18.60
   3  -9  11  568.84   18.50
  -4   9 -11    8.80    2.40
   4  -9  11   12.70    2.60
   4  -9  11   10.50    2.10
  -5   9 -11    5.60    2.00
   5  -9  11    1.20    1.80
   5  -9  11    1.70    1.10
  -6   9 -11   85.29    6.20
   6  -9  11   84.79    6.00
   6  -9  11   85.09    5.20
  -7   9 -11   23.20    3.70
   7  -9  11   17.40    3.20
   8  -9  11    7.30    1.90
   5   8 -11  101.69    5.30
   5   8 -11  115.89    6.50
   4   8 -11  507.65   17.50
   4   8 -11  509.25   19.30
  -4  -8  11  478.75   17.80
   3   8 -11  192.08    8.60
   3   8 -11  197.18   11.70
  -3  -8  11  190.38    8.80
   2   8 -11   42.10    3.70
   2   8 -11   41.60    3.90
  -2  -8  11   38.10    3.70
   1   8 -11    3.60    1.70
  -1  -8  11    2.60    0.80
  -1  -8  11    0.90    1.50
   0   8 -11    6.10    1.90
   0  -8  11    3.30    0.90
   0  -8  11    3.30    1.70
  -1   8 -11  152.28    6.40
  -1   8 -11  147.49    7.80
   1  -8  11  146.29    7.00
   1  -8  11  147.59    6.20
  -2   8 -11  226.48   10.30
  -2   8 -11  229.08    8.40
   2  -8  11  232.38    9.40
   2  -8  11  236.18    8.80
  -3   8 -11   40.80    4.00
   3  -8  11   42.80    3.00
   3  -8  11   41.80    3.60
  -4   8 -11   14.10    3.70
   4  -8  11   17.20    2.80
   4  -8  11   16.30    2.10
  -5   8 -11  522.05   20.00
   5  -8  11  564.54   18.90
   5  -8  11  568.64   18.60
  -6   8 -11  413.26   16.90
   6  -8  11  456.45   15.50
   6  -8  11  438.36   15.90
  -7   8 -11   50.69    4.70
   7  -8  11   49.10    4.20
   7  -8  11   49.20    3.90
  -8   8 -11   43.60    4.40
   8  -8  11   33.80    4.10
   8  -8  11   47.10    4.10
  -9   8 -11  212.58   10.30
   9  -8  11  184.98    9.70
   6   7 -11  103.79    6.90
   6   7 -11  141.99    5.10
   5   7 -11  467.95   18.50
   5   7 -11  472.55   16.50
  -5  -7  11  441.86   16.80
   4   7 -11  178.28    9.30
   4   7 -11  181.58    8.00
  -4  -7  11  169.48    8.20
   3   7 -11   80.19    5.50
   3   7 -11   73.99    4.80
  -3  -7  11   74.49    5.00
   2   7 -11  111.99    6.20
   2   7 -11  118.59    6.50
  -2  -7  11  109.49    6.10
   1   7 -11 1399.16   42.90
  -1  -7  11 1368.56   42.10
   0   7 -11  695.23   23.60
   0   7 -11  731.73   24.70
   0  -7  11  754.52   22.20
   0  -7  11  752.22   23.80
  -1   7 -11   84.29    5.40
  -1   7 -11   93.29    4.60
   1  -7  11   85.19    5.00
   1  -7  11   84.29    4.00
  -2   7 -11  107.89    4.70
  -2   7 -11  104.09    6.20
   2  -7  11  108.99    5.60
   2  -7  11  104.89    4.90
  -3   7 -11  348.97   14.00
   3  -7  11  369.66   12.70
   3  -7  11  370.26   13.00
  -4   7 -11    8.60    2.50
   4  -7  11    6.00    1.60
   4  -7  11    5.40    1.90
  -5   7 -11    7.90    2.60
   5  -7  11   12.50    2.40
   5  -7  11   10.90    2.50
  -6   7 -11  362.66   16.70
   6  -7  11  383.46   13.50
   6  -7  11  374.66   14.00
  -7   7 -11  183.88    9.50
   7  -7  11  192.08    8.30
   7  -7  11  185.98    8.60
  -8   7 -11  112.19    7.30
   8  -7  11  112.59    6.50
   8  -7  11  120.49    6.40
  -9   7 -11  171.78    9.10
   9  -7  11  159.28    7.70
   9  -7  11  153.78    8.20
   6   6 -11  151.18    8.90
  -6  -6  11  137.09    7.40
   5   6 -11   30.70    4.10
   5   6 -11   31.80    3.00
  -5  -6  11   28.70    3.30
   4   6 -11  247.88   10.00
   4   6 -11  235.58   13.30
  -4  -6  11  229.88    9.90
   3   6 -11  116.69    7.00
   3   6 -11  118.79    6.20
  -3  -6  11  129.19    8.90
   2   6 -11  195.28    8.60
   2   6 -11  189.48    8.90
  -2  -6  11  195.58    8.60
   1   6 -11   52.89    4.80
   1   6 -11   58.29    4.20
  -1  -6  11   56.79    4.00
   0   6 -11  142.59    7.40
   0   6 -11  143.79    6.80
   0  -6  11  155.18    5.60
   0  -6  11  161.98    7.10
  -1   6 -11    6.90    1.90
  -1   6 -11    5.40    1.50
   1  -6  11    9.30    2.30
   1  -6  11   10.10    1.20
  -2   6 -11  486.25   15.90
  -2   6 -11  489.75   17.90
   2  -6  11  518.75   16.90
   2  -6  11  518.55   16.20
  -3   6 -11  227.58   10.30
   3  -6  11  247.18    9.40
   3  -6  11  242.98    9.80
  -4   6 -11   80.99    5.50
   4  -6  11   84.29    4.80
   4  -6  11   88.79    4.70
  -5   6 -11  377.06   14.90
   5  -6  11  395.66   13.80
   5  -6  11  390.66   13.80
  -6   6 -11  238.48   10.70
   6  -6  11  241.38    9.80
   6  -6  11  232.58    9.40
  -7   6 -11   28.60    3.70
   7  -6  11   26.80    3.20
  -8   6 -11   24.50    3.70
   8  -6  11   24.10    3.10
   8  -6  11   20.00    2.70
  -9   6 -11  424.96   15.60
  -9   6 -11  411.96   16.30
   9  -6  11  404.46   15.90
 -10   6 -11  333.87   13.30
 -10   6 -11  358.56   14.40
  10  -6  11  318.97   13.90
   6   5 -11   62.49    5.60
  -6  -5  11   56.59    4.40
   5   5 -11   51.49    4.90
   5   5 -11   50.69    4.00
  -5  -5  11   43.80    3.90
   4   5 -11  501.35   19.10
   4   5 -11  523.15   17.70
  -4  -5  11  498.55   17.70
   3   5 -11  352.16   14.00
   3   5 -11  344.67   13.00
  -3  -5  11  344.57   12.90
   2   5 -11  424.76   15.20
   2   5 -11  321.97  107.09
   2   5 -11  423.36   15.60
  -2  -5  11  419.96   14.90
   1   5 -11  815.42   26.40
   1   5 -11  770.12   30.30
  -1  -5  11  842.92   25.90
   0   5 -11  299.07   11.30
   0   5 -11  306.57   12.00
   0  -5  11  314.47   11.30
   0  -5  11  270.87   67.39
  -1   5 -11    9.10   20.90
  -1   5 -11    4.30    1.30
  -1   5 -11    1.00    1.20
   1  -5  11    2.30    0.70
   1  -5  11    2.20    1.50
   1  -5  11    6.30   22.50
  -2   5 -11   51.29    4.10
  -2   5 -11   54.79    3.40
  -2   5 -11   36.00   19.20
   2  -5  11   66.89    4.00
   2  -5  11   60.69    3.00
   2  -5  11   18.10   18.60
  -3   5 -11  884.81   93.09
  -3   5 -11 1169.38   36.40
   3  -5  11 1188.98  106.89
   3  -5  11 1198.88   34.70
   3  -5  11 1201.68   35.20
  -4   5 -11  535.05   19.00
   4  -5  11  550.84   17.80
   4  -5  11  542.75   17.90
  -5   5 -11   19.10    2.80
   5  -5  11   23.70    2.70
   5  -5  11   24.50    2.40
  -6   5 -11   18.60    3.30
   6  -5  11   18.10    2.50
   6  -5  11   19.60    2.60
  -7   5 -11    1.10    1.10
  -7   5 -11    0.30    1.20
   7  -5  11    0.30    1.00
  -8   5 -11    8.40    2.60
  -8   5 -11    6.60    1.70
   8  -5  11    5.50    2.20
  -9   5 -11   48.10    4.50
  -9   5 -11   46.60    5.60
   9  -5  11   43.20    4.00
 -10   5 -11   12.10    2.90
 -10   5 -11   11.50    2.60
  10  -5  11   10.60    2.50
   7   4 -11  350.96   15.60
  -7  -4  11  351.46   13.80
   6   4 -11  190.68   10.40
  -6  -4  11  186.48    8.90
  -6  -4  11  192.08    8.80
   5   4 -11   15.70    2.90
   5   4 -11   12.50    3.10
  -5  -4  11    9.30    2.20
   4   4 -11   15.50    3.40
   4   4 -11    9.90    2.10
  -4  -4  11    9.40    2.30
   3   4 -11  136.39    6.70
   3   4 -11  126.19    7.10
   3   4 -11   85.89   49.50
  -3  -4  11  126.89    6.30
   2   4 -11   48.70    3.90
   2   4 -11   17.10   40.20
   2   4 -11   51.29    3.90
  -2  -4  11   59.09    3.90
   1   4 -11  -19.70   13.50
  -1  -4  11    4.70    1.80
   0   4 -11   17.60   21.80
   0   4 -11   42.30    3.50
   0   4 -11   45.90    2.80
   0  -4  11   50.59   25.40
   0  -4  11   42.00    3.20
  -1   4 -11   21.40   19.60
  -1   4 -11   29.20    2.40
  -1   4 -11   27.40    2.90
   1  -4  11   31.80    2.90
   1  -4  11   49.00   20.70
   1  -4  11   31.60    1.90
  -2   4 -11  430.96   14.60
  -2   4 -11  484.15   16.70
  -2   4 -11  455.25   59.69
   2  -4  11  478.35   15.60
   2  -4  11  468.05   14.70
   2  -4  11  450.45   64.49
  -3   4 -11  180.08    8.40
   3  -4  11  191.18    7.20
   3  -4  11  193.58    7.80
   3  -4  11  185.98   41.80
  -4   4 -11    6.10   16.20
  -4   4 -11    8.80    2.10
   4  -4  11    1.50   17.00
   4  -4  11    9.00    1.80
   4  -4  11   12.60    2.20
  -5   4 -11   62.79    4.50
   5  -4  11   57.49    3.70
   5  -4  11   56.69    3.80
  -6   4 -11  250.77   10.70
  -6   4 -11  256.27   10.30
   6  -4  11  268.87   10.30
  -7   4 -11  541.65   18.60
  -7   4 -11  531.25   19.10
   7  -4  11  550.14   18.80
  -8   4 -11  185.48    8.70
  -8   4 -11  187.58    8.20
   8  -4  11  175.08    8.50
  -9   4 -11   22.40    2.80
  -9   4 -11   29.30    3.40
   9  -4  11   26.80    3.20
 -10   4 -11   65.49    4.80
 -10   4 -11   51.99    4.10
  10  -4  11   55.79    4.80
 -11   4 -11    8.80    2.10
  11  -4  11   12.50    3.00
   7   3 -11   27.60    4.10
  -7  -3  11   31.70    3.40
  -7  -3  11   24.10    3.80
   6   3 -11   82.39    6.30
  -6  -3  11   94.99    6.00
  -6  -3  11   94.89    5.50
   5   3 -11  269.17   14.40
   5   3 -11  306.27   11.80
  -5  -3  11  295.17   11.50
   4   3 -11  812.52   27.90
   4   3 -11  833.12  137.59
   4   3 -11  835.42   26.70
  -4  -3  11  808.52   26.20
   3   3 -11  243.28   10.80
   3   3 -11  254.07   10.10
   3   3 -11  168.28   56.39
  -3  -3  11  245.98    9.80
   2   3 -11   37.00   29.00
   2   3 -11   16.30    2.20
   2   3 -11   16.20    2.40
  -2  -3  11   15.90    2.70
   1   3 -11   60.69    4.10
   1   3 -11   47.30   23.90
   1   3 -11   56.09    4.00
  -1  -3  11   60.79    3.90
   0   3 -11  519.75   63.79
   0   3 -11  551.14   18.80
   0  -3  11  551.94   18.00
   0  -3  11  569.84   70.29
  -1   3 -11 1081.19   91.09
  -1   3 -11 1163.98   36.20
  -1   3 -11 1146.99   34.90
   1  -3  11 1252.37  102.69
   1  -3  11 1198.38   35.30
  -2   3 -11  435.86   55.29
  -2   3 -11  483.85   15.30
  -2   3 -11  480.55   17.00
   2  -3  11  497.45   16.20
   2  -3  11  495.75   15.30
   2  -3  11  524.15   63.09
  -3   3 -11  123.29    6.30
  -3   3 -11  110.19   31.50
   3  -3  11  121.59    5.10
   3  -3  11  126.49    5.80
   3  -3  11   97.99   29.50
  -4   3 -11    1.90    1.30
  -4   3 -11    6.50   11.60
   4  -3  11   -6.10   12.00
   4  -3  11    1.50    1.30
   4  -3  11    2.80    1.20
  -5   3 -11    5.70    1.60
  -5   3 -11    2.20    1.30
  -5   3 -11   11.80   13.00
   5  -3  11    3.70    2.40
   5  -3  11   -3.80   13.20
  -6   3 -11    5.20    1.50
  -6   3 -11    6.20    2.10
   6  -3  11    6.30    1.90
  -7   3 -11    3.70    1.30
   7  -3  11    2.80    1.90
  -8   3 -11  117.89    6.00
  -8   3 -11  113.99    6.40
   8  -3  11  116.99    6.50
  -9   3 -11   14.20    2.10
  -9   3 -11   16.60    3.10
   9  -3  11   16.70    3.30
 -10   3 -11  201.48    9.20
 -10   3 -11  192.48    8.80
  10  -3  11  189.58    9.50
 -11   3 -11  165.18    8.00
  11  -3  11  150.58    8.60
   7   2 -11   20.90    3.30
  -7  -2  11   22.00    2.90
  -7  -2  11   13.50    3.30
   6   2 -11   66.39    5.50
  -6  -2  11   70.59    4.70
  -6  -2  11   61.19    5.80
   5   2 -11  248.98   13.20
  -5  -2  11  267.07   10.60
  -5  -2  11  265.87   11.10
   4   2 -11  149.09   58.19
   4   2 -11  185.58    8.10
   4   2 -11  165.18    8.60
  -4  -2  11  162.48    7.50
   3   2 -11   21.80    2.50
   3   2 -11   21.50    2.90
   3   2 -11   29.70   31.30
  -3  -2  11   19.80    2.50
   2   2 -11    6.00    1.70
   2   2 -11  -10.80   22.30
  -2  -2  11    0.80    1.30
   1   2 -11    0.90    1.00
   1   2 -11   12.70   14.30
  -1  -2  11    3.40    1.50
   0   2 -11  274.37   42.60
   0   2 -11  239.48    9.70
   0  -2  11  241.48    9.20
  -1   2 -11   -4.00   13.20
  -1   2 -11    1.20    1.20
  -1   2 -11    4.40    1.30
   1  -2  11    0.90    1.40
   1  -2  11   -1.70   12.30
  -2   2 -11  102.39   31.10
  -2   2 -11  105.09    4.60
   2  -2  11  118.19    4.50
  -3   2 -11   11.30   18.60
   3  -2  11  -19.20   10.40
   3  -2  11    3.80    1.10
   3  -2  11    5.70    1.80
  -4   2 -11  670.03   23.00
  -4   2 -11  527.75   58.39
   4  -2  11  705.83   64.99
   4  -2  11  663.83   20.60
   4  -2  11  653.23   20.80
  -5   2 -11  564.54   18.60
  -5   2 -11  412.76   54.89
  -5   2 -11  551.24   18.30
   5  -2  11  550.74   18.00
   5  -2  11  578.84   59.29
  -6   2 -11   31.80    2.80
  -6   2 -11   33.50    3.10
   6  -2  11   36.90    3.30
  -7   2 -11  110.59    6.10
  -7   2 -11  115.79    5.80
   7  -2  11  116.69    6.20
  -8   2 -11  135.89    6.80
  -8   2 -11  133.79    6.50
   8  -2  11  135.19    7.10
  -9   2 -11    5.80    1.90
  -9   2 -11    3.40    1.40
   9  -2  11    5.10    2.30
 -10   2 -11   17.80    2.60
 -10   2 -11   23.60    2.90
  10  -2  11   18.40    3.60
 -11   2 -11  381.76   14.40
  11  -2  11  363.56   15.20
   7   1 -11  147.09    8.80
  -7  -1  11  157.08    8.40
  -7  -1  11  171.28    7.90
   6   1 -11  327.37   14.50
  -6  -1  11  353.56   13.00
   5   1 -11   37.80    4.10
  -5  -1  11   36.60    3.30
  -5  -1  11   39.50    4.10
   4   1 -11   56.69    4.70
   4   1 -11   64.29    4.40
   4   1 -11   80.89   39.90
  -4  -1  11   61.19    4.10
   3   1 -11  111.19    6.30
   3   1 -11   22.40   39.80
   3   1 -11  104.29    5.70
  -3  -1  11  113.49    5.50
   2   1 -11 1043.90   33.00
   2   1 -11 1025.70   33.30
   2   1 -11 1144.49  105.79
  -2  -1  11 1077.59   32.30
   1   1 -11  457.25   61.99
   1   1 -11  487.75   16.70
   1   1 -11  406.46   53.19
   1   1 -11  490.35   16.70
  -1  -1  11  497.95   16.00
   0   1 -11  148.29    6.80
   0   1 -11  144.69    6.40
   0   1 -11  161.08   31.10
   0   1 -11  129.59   35.30
  -1   1 -11  475.95   15.60
  -1   1 -11  434.86   49.70
  -1   1 -11  493.55   16.70
   1  -1  11  492.45   15.80
   1  -1  11  435.86   52.19
  -2   1 -11   38.40    2.40
  -2   1 -11   46.10    3.30
  -2   1 -11   33.00   13.60
   2  -1  11   45.00    3.10
   2  -1  11   53.59   20.30
   2  -1  11   42.70    2.50
  -3   1 -11   27.10    1.60
  -3   1 -11   21.70    2.40
  -3   1 -11   18.00   10.70
   3  -1  11   24.70    2.20
   3  -1  11   24.30    2.50
   3  -1  11   17.20   13.70
  -4   1 -11   30.70    2.90
  -4   1 -11   32.60    3.20
   4  -1  11   33.30    2.70
   4  -1  11   30.00   17.30
  -5   1 -11  732.43   23.30
  -5   1 -11  606.94   62.79
  -5   1 -11  751.72   23.70
   5  -1  11  747.73   63.49
   5  -1  11  745.73   23.20
  -6   1 -11  218.68   40.80
  -6   1 -11  294.67   10.70
   6  -1  11  292.77   47.90
   6  -1  11  278.67   10.90
  -7   1 -11  126.09    6.30
  -7   1 -11  133.59    6.30
   7  -1  11  138.99    6.90
  -8   1 -11   76.49    4.60
  -8   1 -11   74.69    4.70
   8  -1  11   75.89    5.30
  -9   1 -11    3.50    1.30
  -9   1 -11    3.10    1.30
   9  -1  11    1.70    1.80
 -10   1 -11   24.60    2.70
 -10   1 -11   36.90    3.90
  10  -1  11   25.20    3.60
 -11   1 -11   19.80    2.50
  11  -1  11   16.60    3.50
 -12   1 -11   18.50    2.60
  12  -1  11   24.60    3.40
   7   0 -11   54.69    5.20
  -7   0  11   61.99    5.30
  -7   0  11   61.39    4.30
   6   0 -11   90.89    6.40
  -6   0  11   90.39    6.60
  -6   0  11   89.19    6.10
   5   0 -11  261.27   12.40
  -5   0  11  275.97   10.70
  -5   0  11  281.47   11.60
   4   0 -11   33.00    3.60
   4   0 -11   -8.90   25.50
  -4   0  11   33.90    3.00
  -4   0  11   34.80    3.80
   3   0 -11  191.38   53.69
   3   0 -11  204.28    8.90
   3   0 -11  211.38    9.50
  -3   0  11  206.68    8.30
   2   0 -11   23.00    2.70
   2   0 -11   22.60    2.60
  -2   0  11   25.00    2.60
   1   0 -11  859.11   73.49
   1   0 -11  926.81   28.80
   1   0 -11  940.41   83.29
   1   0 -11  925.71   28.80
  -1   0  11  874.91   29.30
   0   0 -11   90.99    4.70
   0   0 -11  100.99   31.80
   0   0 -11   90.29    5.30
   0   0 -11   65.29   28.30
   0   0  11   94.79    4.60
  -1   0 -11  396.16   51.19
  -1   0 -11  391.76   42.70
  -1   0 -11  421.46   14.70
   1   0  11  424.26   13.90
  -2   0 -11  112.69    4.90
  -2   0 -11  127.29    6.00
  -2   0 -11  106.19   24.20
   2   0  11  118.49    5.50
   2   0  11  123.99   23.70
   2   0  11  123.39    4.90
  -3   0 -11   49.60    2.50
  -3   0 -11   49.00    3.50
  -3   0 -11   43.00   15.80
   3   0  11   31.50   12.50
   3   0  11   49.20    3.10
   3   0  11   53.99    3.40
  -4   0 -11  299.57   11.30
  -4   0 -11  304.17   11.30
   4   0  11  297.87   34.10
   4   0  11  299.67   10.70
  -5   0 -11  421.06   14.30
  -5   0 -11  321.87   41.10
  -5   0 -11  424.56   14.60
   5   0  11  421.76   43.20
   5   0  11  431.26   14.40
  -6   0 -11  117.39    5.60
  -6   0 -11  116.49    5.70
  -6   0 -11   82.59   27.30
   6   0  11  150.58   27.70
   6   0  11  116.69    6.00
  -7   0 -11   32.00    2.80
  -7   0 -11   33.00    3.00
   7   0  11   33.70    3.60
  -8   0 -11  691.03   22.80
   8   0  11  718.43   23.80
  -9   0 -11  581.84   19.70
   9   0  11  590.14   20.80
 -10   0 -11    1.80    1.10
  10   0  11    0.20    2.00
 -11   0 -11    0.30    1.00
  11   0  11    3.40    2.20
 -12   0 -11   20.20    3.30
  12   0  11   20.80    3.80
   7  -1 -11  100.29    7.00
  -7   1  11  105.19    7.00
  -7   1  11  103.69    5.70
   6  -1 -11    9.70    2.50
  -6   1  11   14.10    3.50
  -6   1  11   12.70    2.50
  -5   1  11  364.56   14.20
  -5   1  11  359.66   13.00
   4  -1 -11  -23.30   38.30
   3  -1 -11  151.78    7.70
   3  -1 -11   92.79   37.60
  -3   1  11  151.78    6.60
  -3   1  11  157.58    7.60
   2  -1 -11 1241.68  102.49
   2  -1 -11 1175.08   37.10
   2  -1 -11 1179.78   36.90
  -2   1  11 1196.28   35.80
   1  -1 -11  276.07   10.70
   1  -1 -11  224.58   41.70
   1  -1 -11  277.57   10.70
   1  -1 -11  248.18   36.80
  -1   1  11  272.17    9.80
   0  -1 -11  443.46   15.10
   0  -1 -11  442.86   15.50
   0  -1 -11  370.16   46.50
   0   1  11  441.76   14.30
  -1  -1 -11   13.60    1.90
  -1  -1 -11   25.70   10.90
  -1  -1 -11   18.60   11.10
  -1  -1 -11   17.40    1.90
   1   1  11   14.40    2.00
  -2  -1 -11 1119.99   33.60
  -2  -1 -11 1128.69   70.39
  -2  -1 -11 1054.89   32.40
  -2  -1 -11  997.70   57.69
   2   1  11 1094.99   32.70
   2   1  11 1126.49   32.20
  -3  -1 -11  391.46   12.50
  -3  -1 -11  409.36   13.80
  -3  -1 -11  319.87   29.30
  -3  -1 -11  387.96   13.50
   3   1  11  401.66   13.00
   3   1  11  364.56   30.20
   3   1  11  404.96   13.20
  -4  -1 -11   33.80    2.70
  -4  -1 -11   30.40    1.80
  -4  -1 -11   30.30    2.50
  -4  -1 -11   19.20   10.30
   4   1  11   23.40   10.80
   4   1  11   34.50    3.00
  -5  -1 -11   90.99    4.60
  -5  -1 -11   72.19   26.40
  -5  -1 -11   85.09    4.60
   5   1  11   89.79    5.00
   5   1  11   76.19   19.90
  -6  -1 -11  138.49    6.40
  -6  -1 -11  147.79    6.60
   6   1  11  151.28    7.00
   6   1  11  132.99   24.40
  -7  -1 -11  204.28    8.40
   7   1  11  215.18    9.20
  -8  -1 -11   77.39    4.40
  -8  -1 -11   70.09    4.30
   8   1  11   69.09    5.10
  -9  -1 -11  302.07   11.30
  -9  -1 -11  298.57   11.60
   9   1  11  303.87   12.60
 -10  -1 -11  138.69    6.00
 -10  -1 -11  112.29    6.20
  10   1  11  115.69    7.20
 -11  -1 -11  110.79    6.20
  11   1  11  110.49    7.20
 -12  -1 -11   92.59    5.80
  12   1  11   91.19    6.80
   7  -2 -11   33.90    4.00
  -7   2  11   33.00    4.70
  -7   2  11   37.50    3.10
   6  -2 -11  124.89    7.50
  -6   2  11  118.39    7.30
  -6   2  11  116.19    5.80
   5  -2 -11   21.50    3.20
  -5   2  11   21.60    3.80
  -5   2  11   21.90    2.50
   4  -2 -11  508.95   78.69
   4  -2 -11  502.05   18.50
  -4   2  11  502.45   18.00
  -4   2  11  492.45   16.50
   3  -2 -11   39.50    3.60
   3  -2 -11   -2.10   25.80
  -3   2  11   39.00    3.90
  -3   2  11   39.80    3.00
   2  -2 -11   12.80    2.50
   2  -2 -11   13.40    2.50
   2  -2 -11    3.40   17.40
  -2   2  11   13.10    2.10
  -2   2  11   11.20    2.50
   1  -2 -11  177.18   30.30
   1  -2 -11  195.98   33.20
   1  -2 -11  169.38    7.70
  -1   2  11  177.78    6.90
   0  -2 -11    9.00    1.90
   0  -2 -11   12.60    2.20
   0  -2 -11    8.90   11.90
   0   2  11   11.70    1.90
  -1  -2 -11  730.43   44.90
  -1  -2 -11  809.72   25.20
  -1  -2 -11  814.52   25.60
  -1  -2 -11  846.22   51.59
   1   2  11  807.82   24.00
   1   2  11  815.82   24.70
  -2  -2 -11   88.89    4.80
   2   2  11   92.49    4.40
   2   2  11   89.19    4.30
  -3  -2 -11  373.66   12.30
  -3  -2 -11  375.56   13.00
  -3  -2 -11  385.26   13.30
   3   2  11  373.36   12.70
  -4  -2 -11   65.39    3.10
  -4  -2 -11   60.09    3.70
  -4  -2 -11   62.19    3.60
   4   2  11   58.19    3.90
  -5  -2 -11  394.56   33.30
  -5  -2 -11  431.76   14.40
  -5  -2 -11  414.46   14.30
   5   2  11  439.06   31.70
   5   2  11  404.66   14.50
   5   2  11  433.66   14.70
  -6  -2 -11  189.48    7.70
  -6  -2 -11  152.68   28.60
   6   2  11  196.58   24.80
   6   2  11  197.38    9.10
   6   2  11  184.78    8.20
  -7  -2 -11   71.69    4.10
  -7  -2 -11   71.29    4.10
   7   2  11   72.39    5.00
  -8  -2 -11  133.49    6.00
  -8  -2 -11  129.89    6.20
   8   2  11  126.59    7.10
  -9  -2 -11   31.10    2.90
  -9  -2 -11   34.90    2.60
   9   2  11   34.60    4.10
 -10  -2 -11  103.79    4.60
 -10  -2 -11   82.89    5.10
  10   2  11   72.39    5.90
 -11  -2 -11   58.49    4.20
  11   2  11   51.19    5.20
 -12  -2 -11   60.19    4.50
  12   2  11   69.79    6.00
   7  -3 -11    9.10    2.80
  -7   3  11   11.70    2.20
  -7   3  11   13.60    3.70
   6  -3 -11   83.99    6.20
  -6   3  11  100.99    4.90
  -6   3  11   82.19    6.40
   5  -3 -11  621.54   22.60
  -5   3  11  607.04   20.00
  -5   3  11  640.34   22.10
   4  -3 -11   72.99   41.70
   4  -3 -11  119.29    7.00
  -4   3  11  121.49    6.90
  -4   3  11  117.09    5.40
   3  -3 -11  109.49   41.30
   3  -3 -11  178.98    8.60
  -3   3  11  171.98    7.60
  -3   3  11  180.78    8.50
   2  -3 -11   12.20    2.00
   2  -3 -11   -1.90   17.90
  -2   3  11   10.10    2.50
  -2   3  11   11.40    1.90
   1  -3 -11  283.27   36.50
   1  -3 -11  295.07   11.60
   1  -3 -11  286.97   39.20
  -1   3  11  296.27   10.20
  -1   3  11  304.07   11.70
   0  -3 -11   40.40    3.10
   0  -3 -11   22.60   10.30
   0  -3 -11   22.20   12.10
   0  -3 -11   35.20    3.00
   0   3  11   37.90    2.60
  -1  -3 -11   77.39    4.40
  -1  -3 -11   77.59    4.30
   1   3  11   73.49    3.70
   1   3  11   76.69    3.90
  -2  -3 -11  317.07   11.80
  -2  -3 -11  332.37   11.60
   2   3  11  326.37   11.30
   2   3  11  347.87   11.40
  -3  -3 -11   92.39    4.80
  -3  -3 -11   91.39    4.50
   3   3  11   89.79    4.80
  -4  -3 -11  201.78    8.00
  -4  -3 -11  205.38    8.00
   4   3  11  202.48    8.50
   4   3  11  196.98    8.20
  -5  -3 -11  103.69    5.10
   5   3  11  103.69    6.00
   5   3  11  114.09    5.80
  -6  -3 -11  298.07   10.40
  -6  -3 -11  293.97   10.50
   6   3  11  271.07   11.60
   6   3  11  282.67   11.30
   6   3  11  261.47   25.40
  -7  -3 -11  159.88    7.00
  -7  -3 -11  163.88    6.70
   7   3  11  157.38    7.90
   7   3  11  163.78    8.60
  -8  -3 -11   27.10    2.20
  -8  -3 -11   24.60    2.50
   8   3  11   30.40    4.10
  -9  -3 -11   35.80    2.20
  -9  -3 -11   27.30    2.70
   9   3  11   43.80    3.30
   9   3  11   27.40    4.60
 -10  -3 -11    4.00    1.40
 -11  -3 -11   31.70    3.10
  11   3  11   29.90    4.20
 -12  -3 -11   43.20    3.90
  12   3  11   45.30    5.20
   7  -4 -11   68.69    5.80
  -7   4  11   67.79    6.30
  -7   4  11   72.79    4.10
   6  -4 -11    9.00    2.60
  -6   4  11   11.70    3.70
   5  -4 -11  120.09    7.30
  -5   4  11  123.89    7.60
  -5   4  11  126.19    5.60
   4  -4 -11  402.16   15.80
  -4   4  11  418.16   15.60
  -4   4  11  388.36   13.40
   3  -4 -11   -9.70   22.30
   3  -4 -11    3.80    1.70
  -3   4  11    4.00    2.20
   2  -4 -11  399.56   14.90
   2  -4 -11  403.06   51.69
  -2   4  11  385.16   13.00
  -2   4  11  404.76   14.80
   1  -4 -11   34.80    3.10
   1  -4 -11   22.00   16.20
  -1   4  11   35.00    3.60
  -1   4  11   32.50    2.50
   0  -4 -11  144.89    5.10
   0  -4 -11  143.09    6.70
   0  -4 -11  123.99   19.70
   0  -4 -11  150.78   19.70
   0   4  11  144.39    6.90
   0   4  11  138.69    5.60
  -1  -4 -11   28.50    1.90
  -1  -4 -11   28.20    2.60
  -1  -4 -11   28.30    3.50
   1   4  11   31.00    2.30
  -2  -4 -11   14.90    1.80
  -2  -4 -11   14.10    1.90
   2   4  11   14.60    1.90
  -3  -4 -11    3.40    1.00
  -3  -4 -11    4.00    1.20
  -3  -4 -11    4.80    1.10
  -3  -4 -11    5.60    1.40
  -4  -4 -11  119.99    5.40
  -4  -4 -11  116.79    5.40
   4   4  11  127.89    6.10
   4   4  11  116.99    6.60
  -5  -4 -11  398.66   13.30
   5   4  11  358.46   14.30
   5   4  11  397.56   14.10
  -6  -4 -11  114.79    5.40
  -6  -4 -11  110.39    5.10
   6   4  11  110.09    7.10
   6   4  11  116.79    6.40
  -7  -4 -11  117.79    5.60
  -7  -4 -11  117.89    5.10
   7   4  11  115.89    7.90
   7   4  11   69.19   20.80
   7   4  11  121.69    6.80
  -8  -4 -11  117.19    5.90
  -8  -4 -11  124.69    5.00
   8   4  11  111.89   27.40
   8   4  11  117.59    7.00
   8   4  11  122.79    7.90
  -9  -4 -11   15.60    2.10
   9   4  11   17.70    3.90
   9   4  11    3.00   19.80
 -10  -4 -11   50.99    3.80
  10   4  11   51.19    5.10
 -11  -4 -11    9.50    2.10
  11   4  11    6.80    2.90
 -12  -4 -11   12.10    3.20
  12   4  11   14.80    4.20
   6  -5 -11    7.50    2.50
  -6   5  11    8.60    2.00
  -6   5  11    7.80    3.50
   5  -5 -11    2.00    1.30
  -5   5  11    1.70    2.40
   4  -5 -11    4.40    1.70
  -4   5  11    4.70    2.40
   3  -5 -11    2.80    1.70
   3  -5 -11   -7.60   27.50
  -3   5  11    3.30    2.40
   2  -5 -11   58.09   27.00
   2  -5 -11   59.59    4.50
  -2   5  11   63.89    4.80
  -2   5  11   57.79    3.30
   1  -5 -11  197.18    6.60
   1  -5 -11  189.28    8.60
   1  -5 -11  175.08   33.80
  -1   5  11  185.18    7.00
  -1   5  11  201.28    8.80
   0  -5 -11   34.70   10.90
   0  -5 -11   39.20    2.20
   0  -5 -11   31.20   10.50
   0  -5 -11   41.50    3.30
   0   5  11   37.70    3.60
   0   5  11   38.30    2.50
  -1  -5 -11   34.80    2.20
  -1  -5 -11   31.10    2.80
   1   5  11   33.50    3.40
   1   5  11   31.00    2.30
  -2  -5 -11   76.19    4.30
   2   5  11   73.39    4.50
   2   5  11   75.49    3.80
  -3  -5 -11    5.50    1.40
  -3  -5 -11    6.60    1.60
  -3  -5 -11    3.20    1.20
  -3  -5 -11    4.60    1.20
  -4  -5 -11   68.79    4.30
  -4  -5 -11   70.79    3.80
   4   5  11   65.39    5.40
  -5  -5 -11  127.69    5.70
  -5  -5 -11  118.99    5.30
  -5  -5 -11  123.59    5.60
   5   5  11  113.79    7.20
  -6  -5 -11   12.00    2.00
  -6  -5 -11   11.30    1.50
   6   5  11   14.60    4.10
   6   5  11   13.10    2.80
  -7  -5 -11    2.60    1.10
  -7  -5 -11    3.70    0.90
   7   5  11    6.30    2.60
   7   5  11   -3.70   16.00
   7   5  11    2.30    3.40
  -8  -5 -11   35.50    2.90
   8   5  11   30.30    3.90
   8   5  11   50.19    6.90
   8   5  11    7.00   14.40
   9   5  11   72.89    6.40
   9   5  11   61.29    5.50
   9   5  11   44.80   25.50
 -11  -5 -11  140.29    7.20
  11   5  11  137.69    8.60
   6  -6 -11   69.89    5.80
  -6   6  11   74.99    6.80
   5  -6 -11   47.00    4.60
  -5   6  11   47.20    5.30
   4  -6 -11  111.09    7.00
  -4   6  11  112.39    4.60
  -4   6  11  116.39    7.30
   3  -6 -11    3.60    1.80
   3  -6 -11  -48.60   33.20
  -3   6  11    0.50    2.10
  -3   6  11    3.60    1.00
   2  -6 -11   59.29    4.50
   2  -6 -11   59.19    2.90
   2  -6 -11   44.10   28.30
  -2   6  11   58.49    3.00
  -2   6  11   59.59    4.80
   1  -6 -11   18.90    1.60
   1  -6 -11    1.20   12.80
   1  -6 -11   16.20    2.40
  -1   6  11   16.30    1.70
  -1   6  11   16.50    3.10
   0  -6 -11    9.20    1.30
   0  -6 -11   10.00    2.30
   0  -6 -11   -0.20    6.60
   0  -6 -11  -12.00    7.70
   0   6  11   11.30    2.50
   1   6  11    0.10    1.50
   1   6  11    0.20    0.80
  -2  -6 -11   79.59    4.60
  -2  -6 -11   80.79    4.00
   2   6  11   85.99    5.50
   2   6  11   77.39    3.90
  -3  -6 -11  332.17   12.10
   3   6  11  329.87   11.80
  -4  -6 -11    0.90    0.90
  -4  -6 -11    0.70    0.80
   4   6  11    2.30    2.90
   4   6  11    1.90    1.40
  -5  -6 -11  370.16   13.10
  -5  -6 -11  391.16   13.10
   5   6  11  365.36   15.40
   5   6  11  375.36   12.50
  -6  -6 -11  181.18    7.80
  -6  -6 -11  173.48    7.40
   6   6  11  184.48    6.80
   6   6  11  180.38   10.30
  -7  -6 -11   88.29    4.70
   7   6  11   85.39    5.90
   7   6  11   78.29    7.60
  -8  -6 -11    2.30    1.10
   8   6  11  -22.50   13.30
   8   6  11    4.30    2.40
   8   6  11    3.60    3.80
  -9  -6 -11   62.59    4.20
   9   6  11   57.09    5.40
   9   6  11   68.89    6.90
 -10  -6 -11   23.20    2.70
  10   6  11   28.30    5.00
 -11  -6 -11   18.50    3.10
  11   6  11   20.70    4.20
   5  -7 -11    7.10    2.50
  -5   7  11    4.90    3.10
   4  -7 -11   43.20    4.20
  -4   7  11   41.70    5.00
   3  -7 -11  168.28    6.20
   3  -7 -11  162.38    8.70
  -3   7  11  174.78    9.00
   2  -7 -11    2.50    1.50
   2  -7 -11  -24.70   19.80
  -2   7  11    5.00    2.40
  -2   7  11  -19.90   18.50
   1  -7 -11  146.29   29.40
   1  -7 -11  177.28    8.60
   1  -7 -11  191.98    6.90
  -1   7  11  195.88    8.80
  -1   7  11  171.18    6.30
   0  -7 -11   32.20    2.30
   0  -7 -11   40.60    3.50
   0   7  11   39.90    3.90
   0   7  11   38.60    2.30
  -1  -7 -11   67.79    4.50
   1   7  11   71.69    4.70
   1   7  11   65.19    3.20
  -2  -7 -11    7.70    1.50
  -2  -7 -11    7.70    2.00
   2   7  11    8.00    1.50
   2   7  11    6.20    2.10
  -3  -7 -11    4.10    1.20
  -3  -7 -11    3.50    1.30
  -3  -7 -11    2.30    0.90
   3   7  11    6.50    1.90
   3   7  11    5.30    3.30
  -4  -7 -11   14.70    1.90
   4   7  11   17.00    2.30
   4   7  11   23.70    4.70
  -5  -7 -11    4.40    1.40
  -5  -7 -11    5.70    1.50
   5   7  11    5.60    3.90
   5   7  11    5.20    1.50
  -6  -7 -11  387.36   13.90
  -6  -7 -11  382.26   13.40
   6   7  11  382.36   16.90
  -7  -7 -11   38.00    3.40
  -7  -7 -11   41.30    3.10
   7   7  11   50.69    7.60
  -8  -7 -11  180.28    7.90
   8   7  11  193.48   12.10
   8   7  11  193.38    9.90
  -9  -7 -11   95.09    5.40
   9   7  11  114.39    9.60
   9   7  11   99.99    7.10
 -10  -7 -11   15.90    2.40
  10   7  11   17.30    3.90
   5  -8 -11   20.20    3.30
  -5   8  11   15.40    4.40
   4  -8 -11    1.80    1.80
   4  -8 -11    4.30    1.40
  -4   8  11   -1.10    2.40
   3  -8 -11    2.70    1.10
   3  -8 -11    4.10    2.00
  -3   8  11    3.10    2.60
   2  -8 -11  132.99    7.40
   2  -8 -11   73.79   37.00
   2  -8 -11  137.29    5.50
  -2   8  11  129.69    7.60
   1  -8 -11   10.20    1.70
   1  -8 -11   12.00    2.60
  -1   8  11   14.00    3.20
   0  -8 -11  366.46   13.90
   0  -8 -11  309.87   30.00
   0   8  11  370.16   13.50
   0   8  11  336.87   11.00
  -1  -8 -11   26.90    3.00
  -1  -8 -11   28.90    2.40
   1   8  11   21.50    1.80
   1   8  11   27.20    3.30
  -2  -8 -11  411.76   13.90
  -2  -8 -11  408.66   15.10
   2   8  11  413.06   14.50
   2   8  11  405.96   13.20
  -3  -8 -11  236.98    9.00
  -3  -8 -11  234.98    8.60
   3   8  11  237.78   11.80
   3   8  11  229.68    9.10
  -4  -8 -11   14.30    1.70
  -4  -8 -11   13.40    1.90
   4   8  11   14.80    4.60
   4   8  11   10.20    2.10
  -5  -8 -11   16.10    2.20
   5   8  11   15.10    2.10
   5   8  11   22.50    5.30
  -6  -8 -11  213.08    8.40
  -6  -8 -11  209.38    8.90
   6   8  11  209.88   12.30
  -7  -8 -11    1.80    1.10
  -7  -8 -11    1.60    1.60
   7   8  11    3.50    4.80
  -8  -8 -11   18.60    2.30
   8   8  11   24.30    6.60
   8   8  11   23.20    4.60
  -9  -8 -11  354.96   13.00
   9   8  11  333.67   18.30
   9   8  11  348.17   15.30
 -10  -8 -11  202.48    9.30
  10   8  11  206.78   11.40
  10   8  11  258.27   13.60
   4  -9 -11  202.18   10.30
   4  -9 -11  196.78    8.40
  -4   9  11  196.18   10.60
   3  -9 -11   24.20    2.30
   3  -9 -11   31.80    3.70
  -3   9  11   25.50    4.60
   2  -9 -11    2.50    1.00
   2  -9 -11    7.90    2.30
  -2   9  11    1.20    2.50
   1  -9 -11   90.19   29.60
   1  -9 -11  162.78    8.20
  -1   9  11   91.89   27.80
   0  -9 -11   14.00    2.10
   0   9  11    9.80    2.90
  -1  -9 -11   83.69    5.60
  -1  -9 -11   89.09    4.60
   1   9  11   87.19    5.50
  -2  -9 -11   16.00    2.50
   2   9  11   20.30    3.10
   2   9  11   17.20    1.60
   2   9  11   20.30    4.60
  -3  -9 -11  644.04   21.10
   3   9  11  639.34   21.00
   3   9  11  650.33   20.10
   3   9  11  672.13   24.80
  -4  -9 -11  243.18    9.50
  -4  -9 -11  236.98    8.80
   4   9  11  238.88   12.80
   4   9  11  230.38    9.10
  -5  -9 -11  134.99    6.60
  -5  -9 -11  143.49    6.10
   5   9  11  141.79   10.10
   5   9  11  136.39    5.90
  -6  -9 -11    7.30    1.90
   6   9  11   11.70    5.40
  -7  -9 -11   37.40    3.50
  -7  -9 -11   38.70    3.00
   7   9  11   47.00    8.40
  -8  -9 -11   39.90    3.80
  -8  -9 -11   45.00    3.60
   8   9  11   53.29    8.80
  -9  -9 -11    1.50    1.00
   9   9  11    8.80    5.10
   9   9  11   -0.60    2.30
   3 -10 -11  262.97    9.70
   3 -10 -11  256.77   12.20
  -3  10  11  275.07   12.80
   2 -10 -11   13.30    2.80
  -2  10  11   11.60    3.60
   1 -10 -11   99.69    5.00
   1 -10 -11   95.79    6.30
  -1  10  11  103.29    6.90
   0 -10 -11    1.50    1.10
   0 -10 -11    0.70    1.40
   0  10  11    3.30    3.50
  -1 -10 -11   15.20    3.10
  -1 -10 -11    9.80    1.90
   1  10  11   13.10    3.20
  -2 -10 -11  175.58    7.50
   2  10  11  170.38   10.90
   2  10  11  172.78    8.10
  -3 -10 -11   68.59    4.20
   3  10  11   59.09    3.30
   3  10  11   63.09    7.40
   3  10  11   61.19    4.40
  -4 -10 -11   40.70    2.70
   4  10  11   32.50    3.50
   4  10  11   42.80    7.20
  -5 -10 -11   28.70    2.40
  -5 -10 -11   26.90    2.90
   5  10  11   33.40    7.00
   5  10  11   29.60    2.90
  -6 -10 -11  520.65   18.60
  -6 -10 -11  544.95   17.60
   6  10  11  528.75   23.60
  -7 -10 -11  234.88   10.30
   7  10  11  236.48   15.20
  -8 -10 -11    8.30    1.90
  -8 -10 -11    6.90    2.10
   8  10  11   13.40    5.90
  -9 -10 -11   12.80    2.30
   9  10  11   28.80    6.30
   9  10  11   12.50    3.70
   2 -11 -11   57.09    5.10
  -2  11  11   55.79    6.10
   1 -11 -11   38.10    3.10
   1 -11 -11   38.20    4.10
  -1  11  11   39.10    5.20
   0 -11 -11  297.17   13.10
   0 -11 -11  316.57   11.50
   0  11  11  304.07   13.00
  -1 -11 -11  184.38    7.80
   1  11  11  173.78   12.00
   1  11  11  176.38   11.50
  -2 -11 -11   30.00    2.80
   2  11  11   33.20    7.30
   2  11  11   25.50    3.90
  -3 -11 -11   19.50    2.40
   3  11  11   15.20    5.50
   3  11  11   14.60    3.20
  -4 -11 -11   20.10    2.60
   4  11  11   24.20    3.20
   4  11  11   27.70    6.90
  -5 -11 -11   95.09    4.60
  -5 -11 -11   82.39    5.20
   5  11  11   81.29    9.90
  -6 -11 -11    3.70    1.70
  -6 -11 -11    5.00    1.40
   6  11  11    1.20    5.00
  -7 -11 -11  212.18    8.40
  -7 -11 -11  199.38    9.40
   7  11  11  184.18   14.30
  -8 -11 -11   58.99    5.50
  -8 -11 -11   43.40    4.60
   8  11  11   59.39    9.60
   0 -12 -11   26.30    2.80
   0  12  11   29.40    6.60
   0  12  11   23.80    4.60
  -1 -12 -11   29.90    2.90
   1  12  11   19.80    5.70
  -2 -12 -11    0.70    1.10
   2  12  11    0.80    3.70
   2  12  11    2.40    4.60
  -3 -12 -11  285.97   11.50
   3  12  11  288.07   11.60
   3  12  11  300.77   16.50
  -4 -12 -11  257.57   10.70
   4  12  11  250.57   15.70
  -5 -12 -11   54.59    4.30
   5  12  11   63.29   10.50
  -6 -12 -11  151.58    7.80
   6  12  11  155.08   13.10
   0 -11  12    1.90    1.60
   0 -11  12    5.40    2.00
   1 -11  12    3.00    1.30
   1 -11  12    3.00    2.00
  -2  11 -12    6.40    2.20
   2 -11  12    2.40    1.90
   2 -11  12    1.70    1.20
  -3  11 -12  140.89    8.00
   3 -11  12  118.49    6.30
   3 -11  12  132.09    6.70
   2  10 -12  416.96   15.60
  -2 -10  12  433.66   16.00
   1  10 -12  188.78    8.80
  -1 -10  12  170.08    8.40
   0  10 -12   23.30    3.10
   0 -10  12   14.90    1.80
   0 -10  12   15.90    3.00
  -1  10 -12   48.90    4.40
   1 -10  12   43.40    4.10
   1 -10  12   42.20    3.00
  -2  10 -12  218.08   10.60
   2 -10  12  224.68    9.10
   2 -10  12  234.48    9.70
  -3  10 -12   85.19    6.10
   3 -10  12   89.19    5.00
   3 -10  12   88.29    5.40
  -4  10 -12  161.88    8.90
   4 -10  12  149.88    7.40
   4 -10  12  165.28    7.50
  -5  10 -12   75.59    5.50
   5 -10  12   62.79    4.50
   5 -10  12   70.49    4.80
  -6  10 -12    9.70    2.50
   6 -10  12   10.60    2.70
   3   9 -12   77.49    4.30
   2   9 -12   44.10    3.90
  -2  -9  12   42.30    4.10
   1   9 -12   38.80    3.80
  -1  -9  12   26.70    3.40
   0   9 -12    1.50    1.60
   0  -9  12    1.90    1.70
   0  -9  12    2.10    0.80
  -1   9 -12  187.38    9.40
   1  -9  12  201.28    8.80
   1  -9  12  196.78    7.70
  -2   9 -12  188.38    9.60
   2  -9  12  187.28    7.70
   2  -9  12  199.48   10.50
  -3   9 -12    1.00    1.50
   3  -9  12    5.00    2.60
   3  -9  12    2.20    1.20
  -4   9 -12    0.30    1.60
   4  -9  12    3.40    2.30
  -5   9 -12   79.99    6.10
   5  -9  12   84.39    5.10
  -6   9 -12  236.68   11.50
   6  -9  12  252.07   10.40
   6  -9  12  243.58   10.00
  -7   9 -12   72.39    5.70
   7  -9  12   94.29    5.40
   7  -9  12   71.99    5.10
   4   8 -12  299.87   12.10
   4   8 -12  371.26   14.00
  -4  -8  12  282.17   12.60
   3   8 -12   49.50    3.80
  -3  -8  12   40.40    4.00
   2   8 -12   14.00    3.40
  -2  -8  12   12.50    2.70
   1   8 -12  170.28    7.60
   1   8 -12  207.28   11.90
  -1  -8  12  212.88    9.10
   0   8 -12  160.08    8.90
   0   8 -12  196.48    7.80
   0  -8  12  149.19    8.50
   0  -8  12  169.28    6.50
  -1   8 -12  130.29    5.50
  -1   8 -12  106.89    7.60
   1  -8  12  113.99    5.00
   1  -8  12  101.89    6.00
  -2   8 -12  516.65   15.90
   2  -8  12  495.45   16.30
   2  -8  12  468.55   16.90
  -3   8 -12  290.47   12.70
   3  -8  12  306.07   11.10
   3  -8  12  306.37   11.60
  -4   8 -12    1.70    1.70
   4  -8  12    2.20    1.80
   4  -8  12    2.60    1.00
  -5   8 -12   65.59    5.50
   5  -8  12   74.29    4.90
   5  -8  12   81.29    4.80
  -6   8 -12   27.20    3.80
   6  -8  12   26.30    2.90
   6  -8  12   28.30    3.50
  -7   8 -12  137.79    8.00
   7  -8  12  147.29    7.20
   7  -8  12  138.79    7.20
  -8   8 -12    4.00    1.70
   8  -8  12    2.00    1.50
   8  -8  12   -0.40    1.80
   5   7 -12   78.09    4.80
   5   7 -12   61.49    3.80
   4   7 -12  210.08    9.40
   4   7 -12  240.68   11.00
  -4  -7  12  201.58    9.60
   3   7 -12  208.78    9.70
   3   7 -12  207.98   12.70
  -3  -7  12  195.38    9.10
   2   7 -12   94.29    5.70
   2   7 -12  101.59    6.10
  -2  -7  12   95.99    5.80
   1   7 -12  235.38   10.30
   0   7 -12   40.50    3.30
   0   7 -12   34.80    3.60
   0  -7  12   35.90    3.60
   0  -7  12   36.00    2.20
  -1   7 -12   26.70    3.20
   1  -7  12   24.50    1.90
   1  -7  12   29.50    3.20
  -2   7 -12   25.70    3.10
   2  -7  12   20.70    2.90
   2  -7  12   26.20    2.10
  -3   7 -12   62.39    4.80
   3  -7  12   69.19    4.40
   3  -7  12   66.29    3.80
  -4   7 -12   19.80    3.00
   4  -7  12   19.60    2.80
   4  -7  12   20.70    2.20
  -5   7 -12  170.88    9.00
   5  -7  12  183.98    7.90
   5  -7  12  179.08    7.90
  -6   7 -12  421.76   16.90
   6  -7  12  461.15   16.70
   6  -7  12  448.56   15.70
  -7   7 -12    1.70    1.70
   7  -7  12    0.70    1.10
   7  -7  12    3.00    2.10
  -8   7 -12   74.39    6.00
   8  -7  12   79.29    5.20
   8  -7  12   82.69    5.40
  -9   7 -12   82.49    5.70
   9  -7  12   58.39    4.90
   9  -7  12   64.39    4.90
   5   6 -12   61.19    5.40
   5   6 -12   76.39    4.20
   4   6 -12  156.68    8.70
   4   6 -12  166.88    8.80
  -4  -6  12  146.09    7.60
   3   6 -12   35.30    3.80
   3   6 -12   29.90    3.20
  -3  -6  12   28.30    3.20
   2   6 -12    5.80    1.90
   2   6 -12    8.30    2.00
  -2  -6  12    1.80    2.70
   1   6 -12  733.23   24.50
   0   6 -12 1092.49   33.90
   0   6 -12 1079.99   34.70
   0  -6  12 1096.69   33.80
  -1   6 -12    4.40    1.90
   1  -6  12    2.20    0.60
   1  -6  12    2.10    1.40
  -2   6 -12   53.69    2.90
  -2   6 -12   51.49    4.20
   2  -6  12   44.30    3.70
   2  -6  12   45.10    2.80
  -3   6 -12  117.09    6.80
   3  -6  12  120.69    6.10
   3  -6  12  120.79    5.30
  -4   6 -12  160.18    8.30
   4  -6  12  168.28    7.50
   4  -6  12  179.28    7.30
  -5   6 -12    1.10    1.40
   5  -6  12    3.00    1.20
   5  -6  12    1.70    1.70
  -6   6 -12   29.30    3.80
   6  -6  12   37.80    3.10
   6  -6  12   32.20    3.30
  -7   6 -12  141.79    8.00
   7  -6  12  159.58    7.40
   7  -6  12  141.49    8.70
  -8   6 -12   32.80    3.80
   8  -6  12   34.90    3.50
   8  -6  12   26.80    3.50
  -9   6 -12  330.77   14.00
   9  -6  12  323.87   12.50
   9  -6  12  314.47   13.30
 -10   6 -12    3.80    1.90
  10  -6  12    1.70    1.90
   6   5 -12  419.56   16.80
  -6  -5  12  361.16   14.60
  -6  -5  12  369.26   14.50
   5   5 -12   22.10    3.60
   5   5 -12   23.00    2.70
  -5  -5  12   15.10    3.00
   4   5 -12   26.50    4.50
   4   5 -12   32.80    3.30
   3   5 -12  120.59    6.30
   3   5 -12  109.99    6.80
  -3  -5  12  108.39    6.10
   2   5 -12   19.20    3.50
   2   5 -12   16.30    2.90
  -2  -5  12   15.00    2.70
   1   5 -12   30.60    3.90
   1   5 -12   28.10    3.20
  -1  -5  12   26.70    2.90
   0   5 -12  202.78    9.10
   0   5 -12  196.38    8.50
   0  -5  12  209.08    8.60
  -1   5 -12  108.79    6.20
  -1   5 -12  105.19    5.10
   1  -5  12  108.49    4.30
   1  -5  12  102.29    5.40
  -2   5 -12  343.37   13.50
  -2   5 -12  333.77   11.30
   2  -5  12  350.76   12.40
   2  -5  12  334.17   11.30
  -3   5 -12  548.95   19.70
   3  -5  12  560.94   17.80
   3  -5  12  558.94   18.50
  -4   5 -12    5.30    1.90
   4  -5  12    8.30    1.60
   4  -5  12    5.80    2.00
  -5   5 -12   95.39    6.00
   5  -5  12  107.99    5.60
   5  -5  12   99.99    5.20
  -6   5 -12   63.89    4.90
   6  -5  12   55.79    4.20
   6  -5  12   61.69    4.00
  -7   5 -12   83.09    5.70
   7  -5  12   82.69    5.00
   7  -5  12   89.59    5.30
  -8   5 -12    2.90    1.20
  -8   5 -12    1.40    1.40
   8  -5  12    3.20    1.60
  -9   5 -12   68.09    4.80
  -9   5 -12   72.59    5.60
   9  -5  12   71.09    5.10
 -10   5 -12  268.87   11.40
 -10   5 -12  274.47   11.80
  10  -5  12  257.57   11.70
   6   4 -12   62.99    5.30
  -6  -4  12   49.80    4.20
  -6  -4  12   49.20    4.80
   5   4 -12   37.00    4.30
   5   4 -12   37.70    4.20
  -5  -4  12   29.60    3.40
   4   4 -12  563.24   19.30
   4   4 -12  543.45   21.90
  -4  -4  12  537.75   18.90
   3   4 -12  545.95   18.60
   3   4 -12  536.85   19.60
  -3  -4  12  507.35   18.10
   2   4 -12  -11.80   28.70
   1   4 -12    0.50    1.50
   1   4 -12    3.30    1.50
  -1  -4  12   -0.20    1.30
   0   4 -12  136.39    6.50
   0   4 -12  142.79    7.20
   0  -4  12  151.38    6.70
  -1   4 -12    2.20    1.40
  -1   4 -12    1.00    0.80
   1  -4  12    0.80    1.30
  -2   4 -12    2.90    0.90
  -2   4 -12    1.50    1.70
   2  -4  12    4.70    1.00
   2  -4  12    2.90    1.50
  -3   4 -12  227.48    9.90
   3  -4  12  222.98    8.20
   3  -4  12  225.38    9.00
  -4   4 -12  578.24   20.30
   4  -4  12  601.14   19.80
   4  -4  12  583.14   19.30
  -5   4 -12   26.70    3.00
   5  -4  12   25.00    2.90
   5  -4  12   27.80    2.60
  -6   4 -12  220.38    9.90
   6  -4  12  227.88    9.20
   6  -4  12  222.38    9.20
  -7   4 -12    4.00    1.40
  -7   4 -12    2.50    1.80
   7  -4  12    1.70    1.50
  -8   4 -12   61.49    4.70
  -8   4 -12   59.79    4.30
   8  -4  12   55.49    5.20
  -9   4 -12   10.00    2.50
  -9   4 -12    6.10    1.80
   9  -4  12    4.60    1.90
 -10   4 -12    3.50    1.50
  10  -4  12    3.30    1.90
 -11   4 -12    8.60    2.30
  11  -4  12    7.20    2.50
   6   3 -12   50.99    4.90
  -6  -3  12   44.70    4.00
  -6  -3  12   45.10    4.60
   5   3 -12    4.70    2.30
  -5  -3  12    3.90    1.90
   4   3 -12    7.50    2.60
   4   3 -12    8.10    2.30
  -4  -3  12    8.10    2.30
   3   3 -12  386.26   14.40
   3   3 -12  393.16   15.20
  -3  -3  12  392.16   14.20
   2   3 -12  331.07   13.40
   2   3 -12  361.76   13.40
  -2  -3  12  361.66   12.90
   1   3 -12   66.39   36.90
   1   3 -12  101.49    5.90
   1   3 -12  109.29    5.80
  -1  -3  12  102.09    5.40
   0   3 -12  222.48    9.60
   0  -3  12  234.18    9.10
  -1   3 -12    5.60   16.40
  -1   3 -12    3.70    1.40
  -1   3 -12    1.70    1.00
   1  -3  12    0.60    1.20
  -2   3 -12    0.90    1.30
  -2   3 -12    5.60   11.80
  -2   3 -12    0.70    0.70
   2  -3  12    0.90    1.30
   2  -3  12    1.20    0.60
   2  -3  12  -11.30   17.20
  -3   3 -12   -0.60   12.90
  -3   3 -12    3.00    1.50
   3  -3  12    2.20    1.50
  -4   3 -12    0.30    1.10
   4  -3  12   -0.50    1.00
   4  -3  12    0.80    0.90
  -5   3 -12   16.60    2.90
   5  -3  12   15.00    2.10
   5  -3  12   13.20    2.30
  -6   3 -12  125.89    6.40
  -6   3 -12  125.39    6.60
   6  -3  12  122.59    6.10
  -7   3 -12  335.17   13.30
  -7   3 -12  348.57   13.10
   7  -3  12  347.67   13.10
  -8   3 -12   76.69    4.90
  -8   3 -12   87.59    5.50
   8  -3  12   85.59    5.40
  -9   3 -12   26.30    3.30
  -9   3 -12   23.60    2.80
   9  -3  12   26.70    3.40
 -10   3 -12   11.70    2.70
 -10   3 -12    9.60    2.10
  10  -3  12    9.80    2.70
 -11   3 -12    3.00    1.60
  11  -3  12    4.10    1.90
   7   2 -12   60.49    6.10
   6   2 -12  147.79    8.80
  -6  -2  12  147.39    7.40
  -6  -2  12  147.59    8.10
   5   2 -12   43.00    4.40
  -5  -2  12   38.30    3.60
   4   2 -12   91.89    5.50
   4   2 -12   86.59    6.00
  -4  -2  12   98.19    5.50
   3   2 -12    3.50   31.40
   3   2 -12   28.10    3.20
   3   2 -12   29.00    3.10
  -3  -2  12   27.50    3.00
   2   2 -12   10.90   32.20
   2   2 -12   24.30    2.80
   2   2 -12   22.50    2.70
  -2  -2  12   22.50    2.70
   1   2 -12   14.80    4.70
   1   2 -12   -8.90   35.40
   1   2 -12    4.80    1.50
  -1  -2  12    5.20    1.80
   0   2 -12  245.68   10.00
   0   2 -12  154.28   48.80
   0  -2  12  253.97    9.40
  -1   2 -12  404.16   49.50
  -1   2 -12  462.75   16.30
  -1   2 -12  466.15   15.30
   1  -2  12  435.86   58.09
   1  -2  12  479.15   15.60
  -2   2 -12   52.09   23.50
  -2   2 -12   69.49    3.40
  -2   2 -12   67.39    4.50
   2  -2  12   82.19   26.50
   2  -2  12   73.79    3.30
   2  -2  12   68.09    4.10
  -3   2 -12   19.80   15.70
  -3   2 -12   22.80    2.70
   3  -2  12   22.60    2.50
   3  -2  12   23.40    2.00
   3  -2  12   26.10   18.90
  -4   2 -12   40.10    3.50
  -4   2 -12   22.00   15.90
   4  -2  12   43.30    3.30
   4  -2  12   28.30   20.20
   4  -2  12   41.50    2.90
  -5   2 -12    5.00    1.80
  -5   2 -12    9.20    1.80
  -6   2 -12   46.00    3.80
  -6   2 -12   42.00    3.40
   6  -2  12   42.80    3.50
  -7   2 -12   42.50    3.40
  -7   2 -12   40.40    3.50
   7  -2  12   37.40    3.60
  -8   2 -12   70.49    4.50
  -8   2 -12   68.39    4.70
   8  -2  12   68.79    4.90
  -9   2 -12    1.30    1.30
  -9   2 -12    2.20    1.50
   9  -2  12    2.30    1.80
 -10   2 -12  120.29    6.50
 -10   2 -12  111.69    6.20
  10  -2  12  104.59    6.70
 -11   2 -12   25.20    3.10
  11  -2  12   29.20    3.80
  -7  -1  12    3.60    2.60
  -7  -1  12    5.00    2.00
   6   1 -12   79.59    6.10
  -6  -1  12   80.79    5.20
  -6  -1  12   76.19    5.80
   5   1 -12  250.27   11.70
  -5  -1  12  253.37   13.50
  -5  -1  12  260.47   10.50
   4   1 -12   61.09    4.40
   4   1 -12   61.49    4.90
  -4  -1  12   58.89    4.20
   3   1 -12  -53.09   32.60
   3   1 -12    4.70    1.60
   3   1 -12    5.20    2.10
  -3  -1  12    3.90    1.70
   2   1 -12   -9.20   29.00
   2   1 -12   43.50    3.70
   2   1 -12   47.70    3.70
  -2  -1  12   42.90    3.40
   1   1 -12    3.70    1.50
   1   1 -12   10.70   15.90
   1   1 -12    4.40    1.80
  -1  -1  12    7.30    1.80
   0   1 -12   25.60   18.80
   0   1 -12    8.30    1.90
   0   1 -12   -0.30   11.10
   0   1 -12    8.40    1.70
   0  -1  12   11.60    2.10
  -1   1 -12   23.40    2.60
  -1   1 -12   24.50    2.20
  -1   1 -12   22.70   15.10
   1  -1  12   27.00    2.60
  -2   1 -12  128.39   24.60
  -2   1 -12  101.99    5.60
  -2   1 -12   97.49    4.40
   2  -1  12  102.09    5.10
   2  -1  12  104.09    4.20
   2  -1  12   66.79   22.40
  -3   1 -12    5.70   10.50
  -3   1 -12    0.90    0.60
  -3   1 -12    2.40    1.30
   3  -1  12   -7.40   10.30
   3  -1  12    1.50    1.40
   3  -1  12    0.20    0.90
  -4   1 -12  132.79    6.60
   4  -1  12  143.99   32.70
   4  -1  12  124.49    5.70
   4  -1  12  136.09    6.10
  -5   1 -12  304.97   11.70
  -5   1 -12  290.97   11.30
   5  -1  12  301.07   11.10
  -6   1 -12    3.50    1.40
  -6   1 -12    0.90    0.90
   6  -1  12    1.90    1.60
  -7   1 -12  100.79    5.50
  -7   1 -12  103.69    5.70
   7  -1  12  107.79    6.00
  -8   1 -12    3.20    1.50
  -8   1 -12    3.10    1.30
   8  -1  12    1.90    1.70
  -9   1 -12    4.00    1.80
   9  -1  12   -1.40    2.60
  10  -1  12    5.60    2.10
 -11   1 -12    7.50    2.00
  11  -1  12   10.80    2.60
   7   0 -12   20.60    3.10
  -7   0  12   12.50    3.60
  -7   0  12   17.20    2.50
   6   0 -12   31.30    4.00
  -6   0  12   34.50    3.40
  -6   0  12   29.90    4.40
   5   0 -12   -0.60    1.50
  -5   0  12   -0.20    2.00
  -5   0  12    1.40    1.60
   4   0 -12   78.99    5.50
  -4   0  12   71.49    4.60
  -4   0  12   76.59    5.50
   3   0 -12  -11.80   27.20
   3   0 -12    1.50    1.30
   3   0 -12    2.50    1.40
  -3   0  12    2.00    1.50
   2   0 -12  246.28   10.40
   2   0 -12  281.87   63.29
   2   0 -12  250.97   10.30
  -2   0  12  237.38    9.40
   1   0 -12  317.47   53.89
   1   0 -12  383.86   13.90
   1   0 -12  378.96   14.00
  -1   0  12  387.56   13.10
   0   0 -12   18.90    2.10
   0   0 -12   20.10    2.40
   0   0 -12   21.40   19.60
   0   0  12   22.90    2.40
  -1   0 -12  172.38    7.60
  -1   0 -12  150.98   28.10
  -1   0 -12  205.68   38.30
   1   0  12  169.78    7.00
  -2   0 -12    1.40    0.90
  -2   0 -12   -3.20    8.80
   2   0  12    2.00    1.30
   2   0  12    2.00    1.00
  -3   0 -12    5.40    1.00
  -3   0 -12    8.80    1.90
  -3   0 -12   20.50   10.60
   3   0  12    6.00    1.70
   3   0  12    4.80    1.40
   3   0  12    5.30   10.80
  -4   0 -12    3.10    1.50
  -4   0 -12   14.20   11.00
  -4   0 -12    1.70    1.10
   4   0  12    2.40    1.40
   4   0  12    1.50    9.90
   4   0  12    2.10    1.40
  -5   0 -12   63.39    4.20
  -5   0 -12   25.80   16.00
  -5   0 -12   58.89    3.80
   5   0  12   70.29    4.20
   5   0  12   49.70   16.30
  -6   0 -12  173.88    7.70
  -6   0 -12  176.28    7.80
   6   0  12  181.78    7.90
  -7   0 -12  152.38    7.10
  -7   0 -12  149.99    7.00
   7   0  12  147.29    7.30
  -8   0 -12  352.66   12.80
  -8   0 -12  331.87   12.70
   8   0  12  333.37   13.30
  -9   0 -12   32.10    3.90
   9   0  12   29.00    3.70
 -10   0 -12  192.68    8.80
 -10   0 -12  203.88    8.50
  10   0  12  187.08    9.60
 -11   0 -12    3.10    1.50
  11   0  12    2.00    2.20
   7  -1 -12  136.39    8.80
  -7   1  12  134.99    6.80
  -7   1  12  123.49    8.00
   6  -1 -12    2.30    1.90
  -6   1  12    2.70    2.60
  -6   1  12    2.90    1.40
   5  -1 -12    1.30    1.80
  -5   1  12    7.30    1.90
  -5   1  12    1.30    2.50
   4  -1 -12   18.60    2.90
  -4   1  12   21.00    3.60
  -4   1  12   18.20    2.80
   3  -1 -12   14.10    2.70
   3  -1 -12   20.70   35.20
  -3   1  12   16.10    3.30
  -3   1  12   16.20    2.30
   2  -1 -12  -27.80   22.40
   1  -1 -12  178.58   40.10
   1  -1 -12  256.07   10.40
   1  -1 -12  264.47   10.60
  -1   1  12  261.87    9.50
   0  -1 -12  297.07   11.30
   0  -1 -12  304.67   11.70
   0  -1 -12  306.37   36.40
   0  -1 -12  343.57   44.30
   0   1  12  305.07   10.80
  -1  -1 -12  195.98    8.30
  -1  -1 -12  187.18   26.30
  -1  -1 -12  189.78    7.80
  -2  -1 -12  374.86   39.20
  -2  -1 -12  418.56   14.40
  -2  -1 -12  398.06   13.40
  -2  -1 -12  369.26   46.30
   2   1  12  410.06   12.90
  -3  -1 -12    9.30    6.90
  -3  -1 -12   16.70    1.60
   3   1  12   17.70    2.10
   3   1  12   15.10    2.10
  -4  -1 -12   84.39    4.70
  -4  -1 -12  101.79   17.60
  -4  -1 -12   78.89    4.50
  -4  -1 -12   78.09    4.00
   4   1  12   62.39   15.50
   4   1  12   93.89    4.70
  -5  -1 -12   70.39    4.20
  -5  -1 -12   51.89   15.20
  -5  -1 -12   69.19    4.20
   5   1  12   72.59    4.40
   5   1  12   71.99   16.00
  -6  -1 -12   52.89    3.70
  -6  -1 -12   51.09    3.50
   6   1  12   49.80    3.90
  -7  -1 -12  388.46   13.90
  -7  -1 -12  381.26   17.40
   7   1  12  379.76   14.20
  -8  -1 -12   36.20    3.10
   8   1  12   31.80    3.80
  -9  -1 -12  124.19    6.00
  -9  -1 -12  118.09    7.10
   9   1  12  119.09    7.10
 -10  -1 -12   43.40    3.60
  10   1  12   39.70    4.50
 -11  -1 -12  315.07   12.50
  11   1  12  299.07   13.50
 -12  -1 -12   21.20    3.80
  12   1  12   21.30    5.30
   6  -2 -12   92.89    6.60
  -6   2  12   93.39    5.20
  -6   2  12   91.89    6.80
   5  -2 -12   98.79    6.60
  -5   2  12  113.49    7.10
  -5   2  12  108.59    5.60
   4  -2 -12  170.18    9.00
  -4   2  12  172.88    8.80
  -4   2  12  172.98    7.40
   3  -2 -12   69.59   32.30
   3  -2 -12   92.09    5.80
  -3   2  12   96.79    6.00
  -3   2  12   86.29    4.70
   2  -2 -12   28.50    3.00
   2  -2 -12   27.90   26.30
  -2   2  12   26.90    2.60
  -2   2  12   22.50    3.40
   1  -2 -12    5.80    1.70
   1  -2 -12  -18.70   13.50
   0  -2 -12  256.07   10.90
   0  -2 -12  230.78   30.10
   0  -2 -12  245.08   10.10
   0  -2 -12  231.18   35.30
   0   2  12  249.08    9.80
  -1  -2 -12  175.98   23.10
  -1  -2 -12  159.88   19.80
  -1  -2 -12  188.28    7.70
  -1  -2 -12  191.58    8.20
   1   2  12  197.58    7.50
  -2  -2 -12  264.37   10.30
   2   2  12  255.77    9.10
   2   2  12  268.57    9.70
  -3  -2 -12  221.08    8.30
  -3  -2 -12  238.98    9.40
   3   2  12  228.88    8.50
  -4  -2 -12  172.68    7.40
  -4  -2 -12  167.48    6.40
  -4  -2 -12  171.98    7.30
   4   2  12  170.28    7.20
  -5  -2 -12  697.83   22.40
  -5  -2 -12  727.13   22.50
   5   2  12  691.03   22.50
   5   2  12  663.53   22.10
  -6  -2 -12   40.90   15.30
  -6  -2 -12   30.00    2.60
  -6  -2 -12   25.00    2.40
   6   2  12   28.30    3.30
   6   2  12   10.20   11.30
  -7  -2 -12   47.30    3.40
   7   2  12   51.09    4.20
  -8  -2 -12   10.60    1.90
  -8  -2 -12    7.60    1.90
   8   2  12    8.80    2.80
  -9  -2 -12   28.00    2.50
  -9  -2 -12   25.20    4.60
   9   2  12   28.00    4.10
 -10  -2 -12  109.09    6.10
  10   2  12  115.99    7.40
 -11  -2 -12    4.30    1.70
  11   2  12    7.20    3.10
 -12  -2 -12  136.79    9.00
  12   2  12  150.38   12.30
   6  -3 -12  199.78   10.40
  -6   3  12  198.48    9.00
  -6   3  12  207.28   10.50
   5  -3 -12   63.19    5.20
  -5   3  12   64.19    4.00
  -5   3  12   65.59    5.80
   4  -3 -12  178.28    9.90
  -4   3  12  190.48    7.80
  -4   3  12  203.98    9.80
   3  -3 -12  141.19   47.90
   3  -3 -12  180.68    8.70
  -3   3  12  170.88    8.60
  -3   3  12  173.78    7.20
   2  -3 -12  301.97   52.89
   2  -3 -12  285.67   11.80
  -2   3  12  287.67   10.30
  -2   3  12  284.67   11.70
   1  -3 -12   76.89   24.50
   1  -3 -12   93.69    5.50
  -1   3  12   97.59    5.90
  -1   3  12   98.09    5.30
   0  -3 -12   52.89    3.80
   0  -3 -12   55.09    3.90
   0  -3 -12   43.50   12.90
   0  -3 -12   74.79   16.30
   0   3  12   55.19    3.40
  -1  -3 -12   36.00    3.10
  -1  -3 -12   36.20    2.90
   1   3  12   37.40    2.80
   1   3  12   37.50    2.60
  -2  -3 -12  153.48    6.60
  -2  -3 -12  152.88    6.90
   2   3  12  153.38    6.20
   2   3  12  151.18    6.30
  -3  -3 -12  154.98    6.90
   3   3  12  148.69    6.50
   3   3  12  154.08    6.50
  -4  -3 -12  877.81   27.50
  -4  -3 -12  891.91   27.60
  -4  -3 -12  860.21   26.60
   4   3  12  885.41   27.40
  -5  -3 -12    7.80    1.70
  -5  -3 -12    5.90    1.50
   5   3  12    8.00    2.20
   5   3  12    6.80    2.60
  -6  -3 -12  428.36   14.30
   6   3  12  386.96   14.60
   6   3  12  393.76   15.10
  -7  -3 -12  274.27   10.70
  -7  -3 -12  282.07   10.40
   7   3  12  278.47   11.90
   7   3  12  285.47   11.50
  -8  -3 -12  401.16   14.60
  -8  -3 -12  433.96   14.10
   8   3  12  399.46   15.30
   8   3  12  402.96   15.60
  -9  -3 -12   86.39    4.20
  -9  -3 -12   74.49    6.70
 -10  -3 -12   63.79    4.30
  10   3  12   63.79    5.60
 -11  -3 -12  120.89    6.60
  11   3  12  124.59    7.90
   6  -4 -12   20.90    3.20
  -6   4  12   12.90    4.00
  -6   4  12   20.50    2.10
   5  -4 -12   25.50    3.50
  -5   4  12   26.20    4.50
  -5   4  12   30.30    2.60
   4  -4 -12    3.00    1.70
  -4   4  12    3.20    1.30
  -4   4  12    2.40    2.40
   3  -4 -12  411.76   93.79
   3  -4 -12  447.16   16.80
  -3   4  12  432.26   14.60
  -3   4  12  441.06   16.60
   2  -4 -12  367.16   14.10
   2  -4 -12  293.07   51.59
  -2   4  12  353.46   13.90
   1  -4 -12  148.29   28.40
   1  -4 -12  146.89    7.40
  -1   4  12  149.29    6.20
  -1   4  12  151.68    7.60
   0  -4 -12  103.69    5.70
   0  -4 -12  117.79   18.20
   0   4  12  101.39    5.90
   0   4  12  104.59    4.80
  -1  -4 -12  282.27    9.40
  -1  -4 -12  282.87   10.90
  -1  -4 -12  289.27   11.20
   1   4  12  288.57   10.00
  -2  -4 -12  198.08    7.30
  -2  -4 -12  209.98    8.60
  -2  -4 -12  208.48    8.30
   2   4  12  205.08    7.80
  -3  -4 -12    9.00    2.20
  -3  -4 -12    9.00    1.80
   3   4  12    5.10    1.80
   3   4  12    8.40    1.80
  -4  -4 -12  150.78    6.60
  -4  -4 -12  150.78    6.60
   4   4  12  141.89    7.50
   4   4  12  153.38    6.90
  -5  -4 -12  145.19    6.50
   5   4  12  144.49    7.00
   5   4  12  138.49    7.70
  -6  -4 -12  202.48    8.20
  -6  -4 -12  195.28    7.80
   6   4  12  192.88    9.70
   6   4  12  196.78    8.90
  -7  -4 -12  171.38    6.90
  -7  -4 -12  166.98    7.40
   7   4  12  169.18    8.30
   7   4  12  157.98    9.20
  -8  -4 -12   89.09    5.10
  -8  -4 -12   98.89    4.40
   8   4  12  102.29    7.00
   8   4  12   89.79    6.10
  -9  -4 -12  131.19    6.80
   9   4  12  154.98    7.90
   9   4  12  132.79    7.90
 -10  -4 -12    0.60    0.90
  10   4  12    0.40    2.30
 -11  -4 -12  130.69    7.00
  11   4  12  130.29    8.20
   6  -5 -12    5.20    2.40
  -6   5  12    4.20    3.10
   5  -5 -12   62.49    5.20
  -5   5  12   59.09    5.90
  -5   5  12   76.79    3.80
   4  -5 -12    4.90    2.20
  -4   5  12    4.80    2.80
  -3   5  12   13.30    3.50
   2  -5 -12  277.37   11.70
   2  -5 -12  209.58   44.90
  -2   5  12  278.47   11.60
  -2   5  12  263.67    9.50
   1  -5 -12   33.60   19.90
   1  -5 -12   78.49    5.10
  -1   5  12   81.09    5.40
  -1   5  12   74.09    3.90
   0  -5 -12  240.18    8.10
   0  -5 -12  242.48   10.10
   0   5  12  238.78   10.10
   0   5  12  237.48    8.60
  -1  -5 -12  316.67   10.40
  -1  -5 -12  304.57   11.90
   1   5  12  314.77   12.10
   1   5  12  318.07   10.80
  -2  -5 -12   53.79    3.70
   2   5  12   58.79    4.20
   2   5  12   54.29    3.30
  -3  -5 -12    7.30    1.50
  -3  -5 -12    5.20    1.70
   3   5  12    7.00    1.60
  -4  -5 -12   45.20    3.00
  -4  -5 -12   40.30    3.00
  -4  -5 -12   44.50    2.90
   4   5  12   43.80    4.70
  -5  -5 -12  291.17   10.50
  -5  -5 -12  257.57   10.10
   5   5  12  284.37   12.30
   5   5  12  292.47   11.40
  -6  -5 -12  204.18    7.90
  -6  -5 -12  213.58    8.40
   6   5  12  192.38   10.40
   6   5  12  200.78    9.30
  -7  -5 -12  410.46   13.90
  -7  -5 -12  428.66   14.80
   7   5  12  421.56   17.50
   7   5  12  424.56   16.00
  -8  -5 -12  370.36   13.40
   8   5  12  376.06   14.90
   8   5  12  282.47   58.69
  -9  -5 -12   61.19    4.20
   9   5  12   66.69    5.70
   9   5  12   37.90   20.80
   9   5  12   78.69    6.70
 -11  -5 -12   44.50    3.80
  11   5  12   44.70    5.20
   5  -6 -12  219.88   11.00
  -5   6  12  218.48   11.20
   4  -6 -12   19.20    3.00
  -4   6  12   15.50    3.70
   3  -6 -12    2.30    1.60
  -3   6  12   -0.10    2.10
  -3   6  12    3.10    0.90
   2  -6 -12   52.39   25.50
   2  -6 -12   55.49    4.60
  -2   6  12   62.59    5.20
  -2   6  12   56.39    3.10
   1  -6 -12   68.19    3.20
   1  -6 -12   66.09    4.80
  -1   6  12   67.89    5.10
  -1   6  12   62.19    3.30
   0  -6 -12  274.87    9.20
   0  -6 -12  267.07   11.10
   0   6  12  264.97   11.00
   0   6  12  264.07    9.30
  -1  -6 -12  352.36   13.40
  -1  -6 -12  366.26   11.90
   1   6  12  358.36   13.40
   1   6  12  353.76   11.90
  -2  -6 -12  344.47   12.90
   2   6  12  346.57   11.80
   2   6  12  353.76   12.90
  -3  -6 -12   12.30    2.00
  -3  -6 -12   11.00    1.80
   3   6  12   17.80    2.80
  -4  -6 -12  141.09    6.20
  -4  -6 -12  143.99    6.30
   4   6  12  144.99    8.50
   4   6  12  146.99    6.60
  -5  -6 -12   90.69    4.80
  -5  -6 -12   90.19    4.80
   5   6  12   93.49    7.10
   5   6  12   90.19    4.70
  -6  -6 -12  190.88    7.90
   6   6  12  190.98    9.10
   6   6  12  193.48   10.70
   6   6  12  185.38    7.30
  -7  -6 -12   34.30    2.90
   7   6  12   33.60    6.20
   7   6  12   37.80    4.30
  -8  -6 -12   11.00    2.10
   8   6  12   20.80    5.30
   8   6  12    8.10    3.40
  -9  -6 -12   23.00    2.60
   9   6  12   39.00    5.70
   9   6  12   29.40    5.00
 -10  -6 -12   67.29    4.70
  10   6  12   82.19    6.70
 -11  -6 -12  188.88    9.00
  11   6  12  212.38   11.00
   5  -7 -12  121.09    7.70
  -5   7  12  123.19    8.30
   4  -7 -12  180.88    9.50
  -4   7  12  182.88   10.00
   3  -7 -12    2.10    1.50
  -3   7  12    3.40    2.70
   2  -7 -12  126.89    5.00
   2  -7 -12   44.20   38.00
   2  -7 -12  128.29    7.30
  -2   7  12  122.39    4.80
  -2   7  12  128.39    7.60
   1  -7 -12   11.10    1.60
   1  -7 -12  -11.60   15.70
   1  -7 -12    9.90    2.70
  -1   7  12    9.50    1.40
  -1   7  12   10.00    3.00
   0  -7 -12   11.60    2.50
   0  -7 -12   11.50    1.60
   0   7  12   11.70    1.60
   0   7  12   11.90    2.90
  -1  -7 -12    0.80    1.30
  -1  -7 -12   -0.30    0.60
   1   7  12   -1.10    1.70
   1   7  12    0.00    0.80
  -2  -7 -12   21.20    2.70
   2   7  12   24.80    3.20
   2   7  12   23.70    2.10
  -3  -7 -12  149.69    7.20
  -3  -7 -12  158.18    6.50
   3   7  12  153.78    6.30
   3   7  12  148.79    6.90
  -4  -7 -12  336.17   11.90
   4   7  12  328.67   14.60
  -5  -7 -12  597.04   19.30
  -5  -7 -12  584.24   19.40
   5   7  12  586.34   22.40
   5   7  12  592.94   18.80
  -6  -7 -12  305.77   11.20
  -6  -7 -12  291.47   11.40
   6   7  12  288.57   10.20
   6   7  12  306.47   14.70
  -7  -7 -12   26.50    2.60
   7   7  12   37.00    6.80
   7   7  12   25.80    4.10
  -8  -7 -12    2.70    1.30
   8   7  12    3.00    4.30
   8   7  12    0.30    2.30
  -9  -7 -12  238.38   10.00
   9   7  12  247.68   13.90
   9   7  12  239.08   11.70
 -10  -7 -12  298.37   12.60
  10   7  12  374.16   16.20
  10   7  12  321.87   14.80
   4  -8 -12   33.50    4.10
  -4   8  12   32.70    5.10
   3  -8 -12  124.49    7.60
   3  -8 -12  127.49    5.30
  -3   8  12  125.89    8.10
   2  -8 -12  219.98    8.00
   2  -8 -12  217.38   10.50
  -2   8  12  223.48   10.70
   1  -8 -12  380.46   12.30
   1  -8 -12  344.37   14.50
  -1   8  12  369.76   15.40
   0  -8 -12  301.57   12.80
   0  -8 -12  309.17   10.60
   0   8  12  314.97   12.50
   0   8  12  288.97    9.80
  -1  -8 -12    5.10    1.50
  -1  -8 -12    6.80    2.00
   1   8  12    2.50    2.10
   1   8  12    4.30    1.20
  -2  -8 -12   27.70    2.50
  -2  -8 -12   27.60    3.20
   2   8  12   25.40    3.30
   2   8  12   24.70    2.10
  -3  -8 -12  289.37   10.70
   3   8  12  293.87   11.00
   3   8  12  280.67   10.10
   3   8  12  284.77   13.60
  -4  -8 -12  205.08    8.50
  -4  -8 -12  209.38    8.20
   4   8  12  213.48   11.70
   4   8  12  207.18    8.40
  -5  -8 -12   30.90    2.90
   5   8  12   37.50    6.30
   5   8  12   32.90    2.90
  -6  -8 -12   38.30    3.40
  -6  -8 -12   42.00    3.20
   6   8  12   34.40    2.80
   6   8  12   52.09    7.90
  -7  -8 -12   12.50    2.40
  -7  -8 -12    9.70    1.90
   7   8  12   11.50    5.20
  -8  -8 -12  199.68    8.80
   8   8  12  205.08   10.60
   8   8  12  200.88   13.30
  -9  -8 -12  293.57   11.60
   9   8  12  299.87   13.80
   3  -9 -12   27.60    3.70
   3  -9 -12   29.60    2.80
  -3   9  12   29.10    5.00
   2  -9 -12    0.80    1.60
   2  -9 -12    2.30    1.20
  -2   9  12    1.70    2.90
   1  -9 -12   37.80    4.00
   1  -9 -12   36.50    2.70
  -1   9  12   35.90    4.70
   0  -9 -12   20.10    3.10
   0   9  12   32.40    7.20
  -1  -9 -12    7.40    2.20
  -1  -9 -12    9.20    1.90
   1   9  12   10.80    3.10
  -2  -9 -12  822.92   25.00
  -2  -9 -12  799.22   28.40
   2   9  12  747.53   23.60
   2   9  12  791.92   25.70
  -3  -9 -12  700.23   22.10
   3   9  12  675.03   25.80
   3   9  12  661.93   21.00
   3   9  12  682.73   22.20
  -4  -9 -12    4.30    1.40
  -4  -9 -12    5.30    1.40
   4   9  12    4.80    4.40
   4   9  12    3.20    1.90
  -5  -9 -12    3.40    2.30
  -5  -9 -12    5.10    1.30
   5   9  12    5.20    1.90
   5   9  12    6.50    4.50
  -6  -9 -12  218.98    9.50
   6   9  12  223.88   13.70
  -7  -9 -12  506.75   18.70
  -7  -9 -12  546.65   18.20
   7   9  12  556.44   26.90
  -8  -9 -12   87.19    5.10
   8   9  12   99.69   10.50
   8   9  12   94.39    7.20
  -9  -9 -12  203.08    8.90
   9   9  12  204.98   11.30
   9   9  12  213.78   14.10
   2 -10 -12   24.80    3.40
   2 -10 -12   18.70    2.40
  -2  10  12   27.80    4.90
   1 -10 -12   12.20    2.90
  -1  10  12   11.80    3.60
   0 -10 -12  147.99    6.60
   0 -10 -12  144.29    8.10
   0  10  12  151.88    8.40
  -1 -10 -12  154.78    8.30
  -1 -10 -12  160.58    7.00
   1  10  12  158.08    9.50
  -2 -10 -12   57.29    3.80
   2  10  12   52.09    7.00
   2  10  12   53.99    4.80
   3  10  12  362.86   13.30
   3  10  12  350.06   17.10
  -4 -10 -12  298.27   11.30
   4  10  12  274.77   10.80
   4  10  12  287.27   15.30
  -5 -10 -12   71.89    4.10
  -5 -10 -12   67.29    4.40
   5  10  12   59.09    4.60
   5  10  12   68.19    8.70
  -6 -10 -12  174.78    8.30
  -6 -10 -12  187.68    7.60
   6  10  12  166.68   12.50
  -7 -10 -12    6.80    1.90
   7  10  12    7.00    5.40
  -8 -10 -12   47.70    3.50
  -8 -10 -12   47.50    4.30
   8  10  12   51.69    8.90
   1 -11 -12  295.87   13.20
  -1  11  12  303.07   13.60
   0 -11 -12  412.06   14.20
   0 -11 -12  393.86   16.20
   0  11  12  394.06   16.00
  -1 -11 -12    1.30    1.50
   1  11  12    1.80    2.60
   1  11  12    2.50    3.90
  -2 -11 -12    3.70    1.50
   2  11  12    0.20    2.40
   2  11  12    0.40    4.40
  -3 -11 -12  244.28    9.90
   3  11  12  236.08   14.20
   3  11  12  236.98   10.10
  -4 -11 -12   99.89    5.60
   4  11  12   93.59    5.50
   4  11  12   98.69   10.00
  -5 -11 -12   64.09    4.50
  -5 -11 -12   60.09    3.90
   5  11  12   66.69    9.40
  -6 -11 -12  393.36   15.40
  -6 -11 -12  435.56   14.50
   6  11  12  408.56   20.90
  -7 -11 -12  495.95   18.20
  -7 -11 -12  499.65   18.50
   7  11  12  492.45   24.00
  -1 -12 -12  343.97   12.80
   1  12  12  335.17   17.70
   1  12  12  357.16   14.50
  -2 -12 -12    6.00    1.80
   2  12  12    3.20    5.00
   2  12  12    3.10    2.70
  -3 -12 -12    4.30    1.70
   3  12  12    5.80    2.50
   3  12  12    6.70    5.00
  -4 -12 -12   45.40    3.90
   4  12  12   52.19    9.60
  -5 -12 -12   22.80    3.50
   5  12  12   14.20    7.10
   1 -10  13   34.10    2.60
   1 -10  13   32.20    3.90
  -2  10 -13   44.50    4.20
   2 -10  13   39.90    4.00
   3 -10  13   18.20    2.40
   3 -10  13   26.50    3.40
  -4  10 -13   99.39    6.70
   4 -10  13   95.59    5.40
   4 -10  13   90.19    5.60
   2   9 -13  202.98    9.20
  -2  -9  13  191.08    9.20
   1   9 -13   45.80    3.50
  -2   9 -13  139.39    8.10
   2  -9  13  149.79    6.40
   2  -9  13  146.79    7.40
  -3   9 -13  147.19    8.50
   3  -9  13  154.38    6.80
   3  -9  13  148.79    7.40
  -4   9 -13    9.20    2.60
   4  -9  13    4.60    1.60
   4  -9  13    2.00    2.00
  -5   9 -13    4.00    2.10
   5  -9  13   -0.30    1.80
   5  -9  13    4.20    1.50
  -6   9 -13    3.50    2.10
   6  -9  13    2.20    1.30
   6  -9  13    2.10    1.80
   3   8 -13   98.29    5.40
  -3  -8  13   76.99    5.60
   2   8 -13   40.70    3.70
  -2  -8  13   27.30    3.60
   1   8 -13    5.20    1.90
  -1  -8  13    8.10    2.50
   0   8 -13    7.80    2.50
   0  -8  13    4.50    2.20
  -1   8 -13   68.19    5.50
   1  -8  13   75.79    3.70
   1  -8  13   73.49    5.00
  -2   8 -13   23.80    3.20
   2  -8  13   32.60    2.40
   2  -8  13   24.10    3.20
  -3   8 -13   65.29    5.40
   3  -8  13   70.79    4.90
   3  -8  13   74.69    4.20
  -4   8 -13  112.99    7.20
   4  -8  13  127.19    6.00
   4  -8  13  127.09    6.60
  -5   8 -13    8.70    2.70
   5  -8  13    9.10    2.50
   5  -8  13   11.20    2.20
  -6   8 -13  130.49    7.80
   6  -8  13  141.49    6.90
   6  -8  13  130.29    6.90
  -7   8 -13   47.60    4.70
   7  -8  13   44.00    4.30
   7  -8  13   50.29    4.10
   4   7 -13   66.59    4.10
   3   7 -13   10.10    2.40
  -3  -7  13    6.40    2.20
   2   7 -13   58.89    4.50
   2   7 -13   78.19    4.90
  -2  -7  13   57.19    4.60
   1   7 -13   27.90    3.20
  -1  -7  13   24.10    3.30
   0   7 -13  227.48    8.70
   0   7 -13  189.88   10.60
   0  -7  13  196.08    9.00
  -1   7 -13   41.20    6.00
   1  -7  13   38.40    2.40
  -2   7 -13    2.50    1.70
   2  -7  13    1.00    0.80
   2  -7  13    2.60    1.70
  -3   7 -13    3.70    1.80
   3  -7  13    4.00    1.10
   3  -7  13    3.60    2.00
  -4   7 -13    5.00    2.00
   4  -7  13    6.20    2.10
   4  -7  13    6.10    1.50
  -5   7 -13   29.60    3.50
   5  -7  13   31.00    2.90
   5  -7  13   39.80    4.20
  -6   7 -13    1.30    1.70
   6  -7  13    3.40    1.90
   6  -7  13    2.30    1.30
  -7   7 -13  119.69    7.60
   7  -7  13  128.89    6.80
   7  -7  13  124.79    6.70
  -8   7 -13   15.40    3.40
   8  -7  13   11.20    2.70
   8  -7  13   15.80    3.10
   4   6 -13   59.49    4.80
   4   6 -13   47.60    3.90
  -4  -6  13   34.80    3.80
   3   6 -13   44.70    4.40
   3   6 -13   37.40    3.50
  -3  -6  13   36.70    3.70
   2   6 -13   16.10    4.80
   2   6 -13   17.90    3.00
  -2  -6  13   11.90    2.70
   1   6 -13  212.98    9.60
  -1  -6  13  212.08    9.20
   0   6 -13   12.30    2.80
   0  -6  13   11.00    2.50
  -1   6 -13  433.46   16.80
  -1   6 -13  451.65   15.10
   1  -6  13  456.85   15.90
  -2   6 -13   24.00    3.10
   2  -6  13   24.10    1.90
   2  -6  13   21.10    2.90
  -3   6 -13  163.78    8.50
   3  -6  13  170.28    6.80
   3  -6  13  167.68    7.60
  -4   6 -13   24.70    3.30
   4  -6  13   25.80    3.20
   4  -6  13   28.90    2.40
  -5   6 -13    4.10    2.00
   5  -6  13    4.30    1.90
   5  -6  13    3.60    1.40
  -6   6 -13   29.20    3.60
   6  -6  13   33.00    3.50
   6  -6  13   35.90    3.20
  -7   6 -13   12.90    3.10
   7  -6  13   14.20    2.70
   7  -6  13   12.90    2.50
  -8   6 -13  177.18    9.40
   8  -6  13  181.38    8.50
   8  -6  13  188.28    8.80
   9  -6  13   19.50    3.30
   9  -6  13   24.00    3.30
   5   5 -13  190.38    8.60
   5   5 -13  198.38    9.70
  -5  -5  13  167.18    8.60
   4   5 -13   10.60    2.90
   4   5 -13    7.80    2.00
  -4  -5  13    3.50    1.90
   3   5 -13  113.09    7.50
   3   5 -13  113.79    7.90
  -3  -5  13  102.79    6.10
   2   5 -13    3.30    1.70
   2   5 -13    1.80    1.40
  -2  -5  13   -0.10    1.30
   1   5 -13    3.00    1.60
  -1  -5  13    6.20    2.10
   0   5 -13  159.58    8.00
   0   5 -13  163.48   10.00
   0  -5  13  160.08    7.40
  -1   5 -13   14.80    1.80
  -1   5 -13   10.20    2.60
   1  -5  13    9.50    2.40
  -2   5 -13  266.67    9.40
  -2   5 -13  281.97   11.80
   2  -5  13  267.07    9.30
   2  -5  13  274.87   10.60
  -3   5 -13    5.90    1.90
   3  -5  13    5.30    1.90
   3  -5  13    9.80    1.60
  -4   5 -13  265.37   11.40
   4  -5  13  262.27    9.70
   4  -5  13  259.37   10.30
  -5   5 -13   32.50    3.60
   5  -5  13   25.60    2.60
   5  -5  13   25.80    3.10
  -6   5 -13  105.49    6.50
   6  -5  13   95.69    5.60
   6  -5  13   96.09    5.40
  -7   5 -13   12.10    2.80
   7  -5  13   11.30    2.50
   7  -5  13    7.30    2.70
  -8   5 -13   11.60    3.10
   8  -5  13    8.00    2.40
   8  -5  13    8.40    2.10
  -9   5 -13   55.29    4.40
  -9   5 -13   52.79    4.80
   9  -5  13   52.19    4.50
 -10   5 -13    6.20    2.30
  10  -5  13    6.40    2.20
   5   4 -13   28.80    3.00
   5   4 -13   30.50    3.90
   4   4 -13  250.27   10.80
   4   4 -13  260.57   11.80
  -4  -4  13  256.97   10.80
   3   4 -13    7.30    2.30
   3   4 -13    3.90    1.80
  -3  -4  13    2.50    1.70
   2   4 -13  367.96   14.50
   2   4 -13  378.56   14.30
  -2  -4  13  393.76   16.10
   1   4 -13  -35.00   35.30
   0   4 -13   25.60    3.00
   0   4 -13   26.00    2.70
   0  -4  13   26.30    2.90
  -1   4 -13   63.89    4.70
  -1   4 -13   75.29    4.00
   1  -4  13   70.89    4.40
  -2   4 -13    8.90    1.10
  -2   4 -13    5.50    2.00
   2  -4  13    8.40    1.40
   2  -4  13    5.90    1.80
  -3   4 -13  169.68    8.40
   3  -4  13  174.68    7.60
   3  -4  13  178.98    6.80
  -4   4 -13    2.30    1.50
   4  -4  13    2.30    1.00
   4  -4  13    2.70    1.60
  -5   4 -13  523.65   18.60
   5  -4  13  505.75   17.40
   5  -4  13  504.35   17.10
  -6   4 -13  111.09    6.50
   6  -4  13  108.19    5.70
   6  -4  13  116.19    6.00
  -7   4 -13  136.69    7.50
   7  -4  13  141.99    6.90
   7  -4  13  128.19    6.70
  -8   4 -13    3.20    1.40
  -8   4 -13    5.30    2.20
   8  -4  13    2.70    2.00
  -9   4 -13   65.29    4.70
   9  -4  13   73.09    5.20
 -10   4 -13   28.60    3.40
  10  -4  13   29.10    3.70
  -6  -3  13    3.30    1.80
   5   3 -13   56.09    5.20
  -5  -3  13   56.29    4.50
  -5  -3  13   56.69    4.90
   4   3 -13   15.40    3.20
   4   3 -13   13.60    2.70
  -4  -3  13   12.80    2.60
   3   3 -13  281.47   12.30
   3   3 -13  307.77   12.10
  -3  -3  13  293.77   11.60
   2   3 -13   27.30    3.30
   2   3 -13   28.00    3.10
  -2  -3  13   25.70    3.00
   1   3 -13  627.64   21.50
   1   3 -13  631.44   21.30
  -1  -3  13  638.14   21.00
   0   3 -13    5.80    1.60
   0  -3  13    6.30    1.80
  -1   3 -13   67.59    3.80
  -1   3 -13   67.09    4.70
   1  -3  13   67.69    4.30
  -2   3 -13   33.40    2.20
  -2   3 -13   34.30    3.40
   2  -3  13   36.00    2.10
   2  -3  13   34.10    3.10
  -3   3 -13   12.20    2.40
   3  -3  13   12.60    1.50
   3  -3  13   12.80    2.40
  -4   3 -13   11.90    2.80
   4  -3  13   14.00    1.80
   4  -3  13    9.10    2.20
  -5   3 -13    2.60    1.50
   5  -3  13    2.70    1.50
   5  -3  13    2.10    1.30
  -6   3 -13  470.65   17.30
   6  -3  13  461.65   16.40
   6  -3  13  488.65   16.50
  -7   3 -13   21.40    3.10
  -7   3 -13   18.80    2.40
   7  -3  13   16.80    3.00
  -8   3 -13  370.96   14.60
   8  -3  13  381.86   15.10
  -9   3 -13   47.30    5.60
  -9   3 -13   42.00    3.70
   9  -3  13   41.10    4.00
 -10   3 -13   58.79    4.50
  10  -3  13   61.89    5.00
 -11   3 -13    5.90    2.00
  11  -3  13    8.50    3.00
  -6  -2  13    5.90    2.80
  -6  -2  13    9.10    2.40
   5   2 -13    9.40    2.70
  -5  -2  13   12.00    2.60
  -5  -2  13   11.00    3.00
   4   2 -13   10.10    2.80
   4   2 -13   13.40    2.70
  -4  -2  13    7.70    2.10
   3   2 -13   35.30    3.70
   3   2 -13   37.20    3.50
  -3  -2  13   39.20    3.50
   2   2 -13  188.08    8.80
   2   2 -13  189.18    8.70
   2   2 -13  125.59   63.09
  -2  -2  13  195.28    8.30
   1   2 -13   53.79    4.10
   1   2 -13   57.19   34.70
   1   2 -13   57.99    4.30
  -1  -2  13   54.69    3.90
   0   2 -13  420.76   15.60
   0  -2  13  438.36   15.00
  -1   2 -13   11.40    2.40
  -1   2 -13   11.70    2.00
   1  -2  13    9.80    2.10
  -2   2 -13  425.36   15.80
  -2   2 -13  423.56   14.10
   2  -2  13  444.46   13.70
   2  -2  13  451.45   15.10
  -3   2 -13   51.39    4.00
   3  -2  13   52.19    3.70
   3  -2  13   54.69    3.10
  -4   2 -13   16.50    2.50
   4  -2  13   13.60    2.30
   4  -2  13   13.50    1.90
  -5   2 -13   28.20    3.10
   5  -2  13   28.70    3.00
   5  -2  13   39.10    3.10
  -6   2 -13   55.49    4.00
  -6   2 -13   55.69    4.30
   6  -2  13   57.19    4.00
  -7   2 -13    8.80    2.10
  -7   2 -13   11.40    2.30
   7  -2  13    6.20    2.00
  -8   2 -13  108.19    6.20
  -8   2 -13  119.79    6.50
   8  -2  13  118.19    6.60
  -9   2 -13  266.67   11.10
  -9   2 -13  277.47   11.40
   9  -2  13  253.47   11.40
 -10   2 -13  247.08   13.20
 -10   2 -13  193.18    9.30
  10  -2  13  197.68    9.90
 -11   2 -13    2.40    1.50
  11  -2  13    4.70    2.20
   6   1 -13   82.89    6.30
  -6  -1  13   73.19    6.00
  -6  -1  13   79.59    5.30
   5   1 -13    9.90    2.90
  -5  -1  13    7.40    2.30
  -5  -1  13    6.00    2.80
   4   1 -13  272.07   12.20
  -4  -1  13  280.47   12.00
  -4  -1  13  285.57   11.20
   3   1 -13   70.29    4.80
   3   1 -13   64.49    4.90
  -3  -1  13   71.39    4.60
   2   1 -13   -4.60   32.10
   2   1 -13   49.90    4.00
   2   1 -13   47.50    3.90
  -2  -1  13   47.40    3.60
   1   1 -13  152.18   48.30
   1   1 -13  155.28    7.40
   1   1 -13  163.08    7.70
  -1  -1  13  154.88    7.00
   0   1 -13    1.80    1.20
   0   1 -13    2.60    1.40
   0   1 -13   -9.20   22.80
   0  -1  13    4.10    1.60
  -1   1 -13    7.20    1.90
  -1   1 -13   -7.30   17.70
  -1   1 -13    9.10    1.70
   1  -1  13   14.00    2.30
  -2   1 -13  161.18    7.60
  -2   1 -13  156.48    6.30
   2  -1  13  162.88    5.90
   2  -1  13  164.28    7.00
  -3   1 -13  344.67   11.50
  -3   1 -13  356.46   13.40
   3  -1  13  360.06   11.90
   3  -1  13  370.46   12.80
  -4   1 -13  248.78   10.20
   4  -1  13  239.18    9.00
   4  -1  13  248.18    9.70
  -5   1 -13   32.50    3.10
  -5   1 -13   27.10    2.80
   5  -1  13   27.10    2.80
   5  -1  13   29.80    2.90
  -6   1 -13   64.69    4.50
  -6   1 -13   60.49    4.20
   6  -1  13   59.79    4.30
  -7   1 -13    4.70    1.60
  -7   1 -13    2.40    1.30
   7  -1  13   -0.10    1.50
  -8   1 -13   13.10    2.60
  -8   1 -13   12.10    2.50
   8  -1  13    9.00    2.40
  -9   1 -13   11.20    2.50
  -9   1 -13    6.80    2.00
   9  -1  13    7.60    2.30
 -10   1 -13   15.80    2.30
  10  -1  13   12.10    3.10
 -11   1 -13    1.80    1.30
  11  -1  13    0.50    1.90
   6   0 -13   19.70    3.10
  -6   0  13   19.80    2.80
  -6   0  13   16.00    3.80
   5   0 -13   39.70    4.40
  -5   0  13   45.20    4.90
  -5   0  13   44.00    3.90
   4   0 -13   37.10    3.90
  -4   0  13   33.20    4.30
  -4   0  13   35.80    3.50
   3   0 -13  418.96   15.50
   3   0 -13  396.16   15.70
  -3   0  13  404.76   14.40
   2   0 -13   16.60   45.20
   2   0 -13   26.30    2.90
   2   0 -13   24.40    2.90
  -2   0  13   24.20    2.80
   1   0 -13   14.40    2.20
   1   0 -13   12.40    2.00
   1   0 -13    4.40   21.90
  -1   0  13   13.80    2.40
   0   0 -13   92.29   33.30
   0   0 -13   74.39    4.80
   0   0  13   71.99    4.30
  -1   0 -13   -0.50   14.80
  -1   0 -13   11.50    1.40
  -2   0 -13  -19.80   12.60
  -2   0 -13    1.10    1.10
  -2   0 -13    3.80   14.20
   2   0  13    4.00    1.00
   2   0  13    2.70    1.40
  -3   0 -13   63.89    3.20
  -3   0 -13   48.20   13.70
  -3   0 -13   69.89    4.50
   3   0  13   42.30   17.80
   3   0  13   72.09    4.20
   3   0  13   67.99    3.60
  -4   0 -13    4.80    1.60
   4   0  13    7.00    1.90
   4   0  13    8.80    1.90
  -5   0 -13    0.90    1.00
  -5   0 -13    2.50    1.30
   5   0  13    5.30    3.10
  -6   0 -13  663.03   22.10
  -6   0 -13  663.13   22.10
   6   0  13  665.83   21.80
  -7   0 -13  520.05   18.00
  -7   0 -13  516.45   17.90
   7   0  13  507.95   18.00
  -8   0 -13  250.47   10.30
   8   0  13  243.08   10.60
  -9   0 -13   13.60    2.60
   9   0  13   11.30    2.90
 -10   0 -13   16.60    3.00
  10   0  13   14.00    3.40
 -11   0 -13  131.49    7.30
  11   0  13  140.89    8.30
   6  -1 -13  134.29    7.90
  -6   1  13  114.49    7.60
  -6   1  13  116.29    6.30
   5  -1 -13  101.29    6.70
  -5   1  13  102.19    6.90
  -5   1  13   97.69    5.60
   4  -1 -13   51.49    4.70
  -4   1  13   60.49    4.20
  -4   1  13   51.19    5.00
   3  -1 -13  102.49    6.20
  -3   1  13   93.49    5.20
  -3   1  13   92.99    6.30
   2  -1 -13    3.40    1.60
   2  -1 -13  -26.80   25.30
   2  -1 -13    2.10    1.40
  -2   1  13    2.40    1.50
   1  -1 -13    2.60   18.50
   1  -1 -13   26.30    2.70
   1  -1 -13   28.20    2.90
  -1   1  13   28.00    2.70
   0  -1 -13  327.07   12.10
   0  -1 -13  322.47   12.40
   0  -1 -13  291.17   44.50
   0   1  13  326.77   11.60
  -1  -1 -13  632.14   21.00
  -1  -1 -13  582.04   55.79
  -1  -1 -13  621.04   20.60
   1   1  13  626.74   19.90
  -2  -1 -13  222.08    9.40
  -2  -1 -13  187.78   23.70
  -2  -1 -13  230.08    8.60
  -2  -1 -13  243.28   30.50
   2   1  13  226.18    7.90
   2   1  13  229.88    8.80
  -3  -1 -13    2.00    8.40
  -3  -1 -13    9.00    2.10
  -3  -1 -13    2.30   10.00
  -3  -1 -13    8.60    1.30
   3   1  13   11.50    1.90
   3   1  13    8.90    1.90
  -4  -1 -13   15.70    8.90
  -4  -1 -13   11.60    2.20
  -4  -1 -13    8.30    1.20
   4   1  13    8.60    1.90
  -5  -1 -13   37.50    3.30
  -5  -1 -13   42.10    3.20
   5   1  13   40.70    3.90
  -6  -1 -13   33.80    3.10
  -6  -1 -13   40.30    3.20
   6   1  13   40.90    3.60
  -7  -1 -13   73.69    4.60
  -7  -1 -13   66.09    4.40
   7   1  13   67.69    5.00
  -8  -1 -13  111.69    6.00
   8   1  13  118.49    6.70
  -9  -1 -13   16.50    2.00
  -9  -1 -13   12.10    2.60
   9   1  13   14.40    3.10
 -10  -1 -13  540.25   17.30
 -10  -1 -13  471.55   17.60
  10   1  13  456.95   18.30
 -11  -1 -13  104.89    6.30
  11   1  13  113.59    7.40
   6  -2 -13  201.38   10.10
  -6   2  13  180.98   10.00
  -6   2  13  188.38    8.30
   5  -2 -13  308.47   13.60
  -5   2  13  314.77   13.10
  -5   2  13  308.87   13.50
   4  -2 -13    8.90    2.40
  -4   2  13    6.20    2.80
  -4   2  13   10.50    2.30
   3  -2 -13    9.10    2.40
  -3   2  13   13.80    2.40
  -3   2  13    8.40    3.20
   2  -2 -13  -25.80   30.00
   2  -2 -13    3.30    1.60
  -2   2  13    3.10    2.00
  -2   2  13    4.30    1.60
   1  -2 -13    4.40    1.70
   1  -2 -13  -19.20   16.20
   1  -2 -13    2.20    1.30
  -1   2  13    0.70    1.20
   0  -2 -13   64.39    4.50
   0  -2 -13   63.79   25.50
   0  -2 -13   70.59    4.40
   0   2  13   75.89    4.20
  -1  -2 -13   24.10   11.00
  -1  -2 -13   32.10   12.00
  -1  -2 -13   34.10    2.90
  -1  -2 -13   38.30    3.20
   1   2  13   37.30    2.90
  -2  -2 -13  125.89    6.30
   2   2  13  125.79    5.80
   2   2  13  125.49    5.20
  -3  -2 -13  161.38    6.60
  -3  -2 -13  165.08    7.40
   3   2  13  167.28    7.00
   3   2  13  156.18    6.60
  -4  -2 -13 1775.62   53.39
  -4  -2 -13 1840.42   53.49
  -4  -2 -13 1755.92   51.99
   4   2  13 1788.32   52.79
   4   2  13 1790.52   52.69
  -5  -2 -13  552.84   18.40
  -5  -2 -13  560.14   18.30
   5   2  13  512.95   18.00
   5   2  13  528.45   18.00
  -6  -2 -13   34.60    3.00
  -6  -2 -13   42.10    3.20
   6   2  13   35.80    3.60
   6   2  13   34.40    3.90
  -7  -2 -13  229.38    9.50
   7   2  13  232.48   10.10
  -8  -2 -13  317.37   11.80
  -8  -2 -13  320.97   12.20
   8   2  13  301.07   12.60
  -9  -2 -13   71.09    4.00
  -9  -2 -13   64.49    4.40
   9   2  13   56.69    4.90
 -10  -2 -13  134.59    7.20
 -10  -2 -13  175.98    6.70
  10   2  13  137.79    8.20
 -11  -2 -13  367.66   14.30
  11   2  13  356.96   15.20
   6  -3 -13  174.38   10.50
  -6   3  13  172.98    7.60
  -6   3  13  168.48    9.70
   5  -3 -13    9.10    2.70
  -5   3  13    6.80    3.20
  -5   3  13   11.90    2.30
   4  -3 -13   21.00    3.10
  -4   3  13   18.70    4.00
  -4   3  13   18.70    2.50
   3  -3 -13  217.98   11.50
  -3   3  13  230.28   10.50
  -3   3  13  209.08    8.60
   2  -3 -13 1090.69   33.90
   2  -3 -13  938.51   92.79
  -2   3  13 1050.19   33.70
  -2   3  13 1040.50   31.90
   1  -3 -13  322.37   12.70
   1  -3 -13  281.27   45.40
  -1   3  13  335.27   13.10
  -1   3  13  325.37   11.50
   0  -3 -13   23.10    2.60
   0  -3 -13   36.90   13.90
   0  -3 -13   23.60    2.80
   0   3  13   21.20    2.40
  -1  -3 -13  317.87   12.00
  -1  -3 -13  319.07   12.50
   1   3  13  345.07   11.60
  -2  -3 -13   95.19    5.30
  -2  -3 -13   96.59    5.00
   2   3  13   95.39    4.60
   2   3  13   98.79    4.90
  -3  -3 -13   15.70    2.60
   3   3  13   14.70    2.40
   3   3  13   15.80    2.20
  -4  -3 -13  430.06   14.80
  -4  -3 -13  410.26   14.60
  -4  -3 -13  400.16   13.70
   4   3  13  412.66   14.40
  -5  -3 -13  839.62   26.10
  -5  -3 -13  816.62   26.10
   5   3  13  808.52   26.10
   5   3  13  807.12   26.50
  -6  -3 -13   72.69    4.50
   6   3  13   69.59    5.40
   6   3  13   77.79    5.00
  -7  -3 -13  305.47   14.00
  -7  -3 -13  285.87   11.00
   7   3  13  292.07   11.70
   7   3  13  211.18   27.00
   7   3  13  274.47   12.00
  -8  -3 -13   89.09    5.20
  -8  -3 -13   87.49    5.30
   8   3  13   81.29    5.90
  -9  -3 -13   27.10    2.70
  -9  -3 -13   18.70    2.50
   9   3  13   16.90    3.80
 -10  -3 -13   62.29    4.40
  10   3  13   66.39    5.50
 -11  -3 -13   83.29    5.30
  11   3  13   75.69    6.40
   5  -4 -13  167.08    9.20
  -5   4  13  158.98    9.30
  -5   4  13  172.28    7.20
   4  -4 -13   15.60    3.20
  -4   4  13   20.90    2.30
  -4   4  13   17.00    4.00
   3  -4 -13  134.89    7.50
  -3   4  13  135.39    7.80
  -3   4  13  126.69    5.90
   2  -4 -13   80.79   31.30
   2  -4 -13  114.29    6.70
  -2   4  13  110.89    5.30
  -2   4  13  114.89    6.90
   1  -4 -13  309.47   12.50
   1  -4 -13  273.27   39.70
  -1   4  13  317.67   12.70
  -1   4  13  315.67   11.00
   0  -4 -13   33.20    3.20
   0   4  13   33.80    3.80
   0   4  13   37.50    2.80
  -1  -4 -13  731.83   24.10
  -1  -4 -13  751.02   24.50
   1   4  13  729.33   22.70
   1   4  13  748.03   23.10
  -2  -4 -13  284.47   11.20
  -2  -4 -13  278.27   10.70
   2   4  13  271.37   10.10
   2   4  13  285.77   10.20
  -3  -4 -13   78.99    4.50
  -3  -4 -13   86.69    4.90
   3   4  13   80.59    4.70
   3   4  13   88.29    4.60
  -4  -4 -13  814.22   25.90
  -4  -4 -13  843.72   26.10
   4   4  13  791.92   27.00
  -5  -4 -13  298.37   11.40
  -5  -4 -13  311.57   11.60
   5   4  13  297.97   11.70
   5   4  13  303.27   12.60
  -6  -4 -13    3.00    1.30
   6   4  13    4.50    3.10
   6   4  13    5.60    2.20
  -7  -4 -13  151.68    6.50
  -7  -4 -13  147.09    7.00
   7   4  13  140.59    8.60
   7   4  13  150.48    7.80
  -8  -4 -13 1205.38   35.70
  -8  -4 -13 1182.08   36.70
   8   4  13 1163.68   37.50
   8   4  13 1166.58   38.40
  -9  -4 -13  302.97   12.20
  -9  -4 -13  321.37   11.00
   9   4  13  314.17   13.40
   9   4  13  313.77   12.90
 -10  -4 -13    4.20    1.60
  10   4  13    2.00    2.30
 -11  -4 -13   23.90    2.90
  11   4  13   25.00    4.40
   5  -5 -13  317.67   14.10
  -5   5  13  307.67   14.10
   4  -5 -13  147.89    8.30
  -4   5  13  150.58    8.70
  -4   5  13  137.19    6.00
   3  -5 -13  216.08   10.50
  -3   5  13  213.58    8.30
  -3   5  13  228.58   10.80
   2  -5 -13  595.74   22.50
  -2   5  13  592.84   21.50
  -2   5  13  560.84   18.50
   1  -5 -13   80.09    5.30
  -1   5  13   79.29    4.70
  -1   5  13   73.59    5.50
   0  -5 -13   20.50    1.60
   0  -5 -13   21.10    2.70
   0   5  13   22.30    3.50
   0   5  13   21.70    2.70
  -1  -5 -13  338.37   11.00
  -1  -5 -13  329.47   12.70
   1   5  13  339.47   13.00
   1   5  13  327.27   12.20
  -2  -5 -13 1469.05   42.70
  -2  -5 -13 1442.46   44.10
   2   5  13 1438.26   44.00
   2   5  13 1469.95   44.30
  -3  -5 -13  172.18    7.60
  -3  -5 -13  180.18    7.90
   3   5  13  182.08    7.40
  -4  -5 -13    5.80    1.80
  -4  -5 -13    5.60    1.50
   4   5  13    7.80    2.30
   4   5  13    7.30    3.00
  -5  -5 -13   52.49    3.60
   5   5  13   54.99    4.50
  -6  -5 -13    0.80    0.90
  -6  -5 -13    1.90    1.20
   6   5  13    1.00    1.90
   6   5  13    1.50    3.40
  -7  -5 -13  125.69    6.40
  -7  -5 -13  136.29    5.90
   7   5  13  124.59    7.20
  -8  -5 -13    9.10    2.30
  -8  -5 -13   17.50    1.70
   8   5  13   12.20    4.20
  -9  -5 -13   83.19    5.00
   9   5  13   78.79    6.20
 -10  -5 -13   21.50    2.70
  10   5  13   24.80    4.60
 -11  -5 -13  401.76   15.40
  11   5  13  410.76   17.10
   4  -6 -13  288.97   13.20
  -4   6  13  302.47   13.50
   3  -6 -13    2.20    1.70
  -3   6  13    4.10    1.20
  -3   6  13    2.20    2.80
   2  -6 -13  -37.40   31.00
   1  -6 -13   18.10    3.20
   1  -6 -13   85.59   27.80
  -1   6  13   19.70    3.60
  -1   6  13   19.20    2.00
   0  -6 -13  259.27    8.90
   0  -6 -13  255.67   11.00
   0   6  13  266.37   11.10
   0   6  13  261.17    9.30
  -1  -6 -13  700.43   23.60
  -1  -6 -13  715.23   21.60
   1   6  13  712.73   23.60
   1   6  13  684.53   21.70
  -2  -6 -13  136.49    6.80
   2   6  13  136.99    7.00
   2   6  13  135.29    6.50
  -3  -6 -13   21.40    2.60
  -3  -6 -13   26.10    2.30
   3   6  13   22.20    3.10
   3   6  13   23.60    2.40
  -4  -6 -13  119.39    5.50
  -4  -6 -13  118.79    5.80
   4   6  13  115.49    7.70
   4   6  13  120.49    6.10
  -5  -6 -13  908.31   28.40
   5   6  13  914.01   28.20
   5   6  13  879.91   30.80
   5   6  13  909.91   29.40
  -6  -6 -13  568.54   19.00
   6   6  13  551.34   21.70
   6   6  13  568.54   18.30
   6   6  13  579.04   20.20
  -7  -6 -13  104.39    5.50
   7   6  13  101.69    6.70
   7   6  13  105.29    4.90
   7   6  13   97.09    8.60
  -8  -6 -13  271.47   13.80
   8   6  13  274.77   14.00
   8   6  13  260.37   12.00
  -9  -6 -13  132.89    6.80
   9   6  13  123.89    8.10
   9   6  13  159.78   10.00
 -10  -6 -13   23.50    2.80
  10   6  13   21.90    4.40
   4  -7 -13   28.90    3.70
  -4   7  13   25.70    5.00
   3  -7 -13    6.70    2.30
  -3   7  13    4.30    2.80
   2  -7 -13  148.19    8.30
  -2   7  13  153.08    8.70
   1  -7 -13  518.55   19.20
   1  -7 -13  537.35   16.50
  -1   7  13  493.65   16.30
  -1   7  13  544.15   19.30
   0  -7 -13  357.36   14.00
   0   7  13  335.97   11.50
   0   7  13  357.86   14.00
  -1  -7 -13  271.77    9.60
  -1  -7 -13  272.17   11.40
   1   7  13  263.67    9.40
   1   7  13  276.27   11.30
  -2  -7 -13  221.58    9.80
   2   7  13  232.68    8.40
   2   7  13  229.78    9.80
  -3  -7 -13   23.60    2.30
  -3  -7 -13   21.30    2.80
   3   7  13   23.80    2.40
   3   7  13   23.70    3.10
  -4  -7 -13   38.90    3.10
   4   7  13   36.60    3.40
   4   7  13   39.10    5.70
  -5  -7 -13   47.00    3.50
  -5  -7 -13   42.90    3.20
   5   7  13   45.80    3.60
   5   7  13   44.60    6.20
  -6  -7 -13  218.78    9.10
  -6  -7 -13  223.88    9.00
   6   7  13  204.48    8.20
   6   7  13  212.78   12.30
   6   7  13  220.38   10.30
  -7  -7 -13   24.30    2.60
   7   7  13   30.00    6.50
   7   7  13   26.30    4.30
  -8  -7 -13  112.59    6.00
   8   7  13  116.99    9.90
   8   7  13  108.89    7.40
  -9  -7 -13  121.19    6.60
   9   7  13  154.68   10.70
   9   7  13  134.69    8.50
 -10  -7 -13   82.99    5.20
  10   7  13   89.09    7.10
   3  -8 -13   11.00    2.90
  -3   8  13   14.80    3.90
   2  -8 -13  227.68    8.10
   2  -8 -13  218.48   10.70
  -2   8  13  227.68   11.20
   1  -8 -13   63.09    5.20
   1  -8 -13   62.59    3.50
  -1   8  13   60.39    5.50
   0  -8 -13    7.00    1.60
   0  -8 -13    5.50    1.90
   0   8  13    5.50    2.60
   1   8  13    3.30    2.30
   1   8  13    1.90    1.10
  -2  -8 -13  189.38    9.10
  -2  -8 -13  198.58    7.80
   2   8  13  188.38    7.30
   2   8  13  197.48    8.90
  -3  -8 -13  413.26   14.20
   3   8  13  401.46   14.70
   3   8  13  414.56   17.60
  -4  -8 -13  269.07   10.40
  -4  -8 -13  275.27   10.20
   4   8  13  258.97   10.40
   4   8  13  272.37   13.70
  -5  -8 -13  266.07   10.20
   5   8  13  252.77   13.40
   5   8  13  240.88    9.50
  -6  -8 -13  194.98    8.70
  -6  -8 -13  194.78    8.20
   6   8  13  191.68    7.50
   6   8  13  189.18   12.10
  -7  -8 -13   80.89    4.80
   7   8  13   67.79    5.80
   7   8  13   81.49    9.00
  -8  -8 -13   51.69    3.80
   8   8  13   53.19    5.60
   8   8  13   62.79    8.50
  -9  -8 -13  213.08    9.20
   9   8  13  211.48   11.10
   9   8  13  207.98   13.40
   2  -9 -13  332.27   14.50
   2  -9 -13  336.97   11.80
  -2   9  13  350.66   15.00
   1  -9 -13  257.07   12.20
   1  -9 -13  287.77   10.00
  -1   9  13  274.17   12.50
   0  -9 -13  141.69    6.10
   0  -9 -13  123.79    7.50
   0   9  13  149.39    8.20
  -1  -9 -13   29.70    3.60
  -2  -9 -13   10.10    2.70
  -2  -9 -13    6.80    1.70
   2   9  13    7.20    1.50
   2   9  13    7.40    2.70
  -3  -9 -13  306.77   11.10
   3   9  13  288.27   11.50
   3   9  13  286.97   14.60
   3   9  13  276.37   10.10
  -4  -9 -13  345.87   12.80
   4   9  13  331.07   12.50
   4   9  13  328.57   11.80
   4   9  13  351.16   17.40
  -5  -9 -13    8.50    2.00
  -5  -9 -13   10.20    1.90
   5   9  13    9.40    2.30
   5   9  13    8.60    5.80
  -6  -9 -13   18.10    2.50
   6   9  13   20.50    6.40
  -7  -9 -13   37.60    3.80
  -7  -9 -13   34.30    3.60
   7   9  13   48.60    8.60
  -8  -9 -13   21.00    2.50
   8   9  13   26.50    7.20
   8   9  13   21.40    4.20
  -9  -9 -13   51.09    3.90
   9   9  13   39.90    5.60
   1 -10 -13    2.70    1.70
   1 -10 -13    6.00    2.20
  -1  10  13    8.10    3.30
   0 -10 -13   70.89    5.60
   0  10  13   73.19    6.20
  -1 -10 -13   52.69    4.80
  -1 -10 -13   46.90    4.50
   1  10  13   50.89    5.20
  -2 -10 -13  110.29    6.30
   2  10  13  111.09    9.50
   2  10  13  108.89    9.20
  -3 -10 -13  313.67   11.70
   3  10  13  305.17   15.80
   3  10  13  292.77   11.90
  -4 -10 -13   44.00    3.60
   4  10  13   40.30    3.00
   4  10  13   38.80    6.80
   4  10  13   42.20    4.10
  -5 -10 -13    2.50    1.20
  -5 -10 -13    1.70    1.20
   5  10  13    3.10    4.50
   5  10  13    0.10    1.50
  -6 -10 -13  164.58    7.30
  -6 -10 -13  154.38    7.80
   6  10  13  166.68   12.50
  -7 -10 -13  463.75   17.20
   7  10  13  479.35   22.80
  -8 -10 -13  242.08    9.70
  -8 -10 -13  220.18   10.50
   8  10  13  237.38   15.70
   8  10  13  210.98   11.70
   0 -11 -13  159.68    7.30
   0 -11 -13  160.58    9.10
   0  11  13  171.18    9.50
  -1 -11 -13  505.25   16.80
   1  11  13  462.55   21.30
   1  11  13  494.35   18.50
  -2 -11 -13   78.09    4.80
   2  11  13   83.39    6.00
   2  11  13   81.99    8.60
  -3 -11 -13    7.90    1.90
   3  11  13    5.30    3.20
   3  11  13    8.50    5.10
  -4 -11 -13   46.60    3.80
   4  11  13   43.30    4.20
   4  11  13   57.29    8.30
  -5 -11 -13    9.20    2.50
   5  11  13    5.80    5.80
  -6 -11 -13  106.19    5.40
  -6 -11 -13   85.99    5.60
   6  11  13   91.49   10.70
  -1   9 -14  117.79    7.20
   1  -9  14  106.49    6.40
  -2   9 -14   61.19    5.10
   2  -9  14   51.59    3.30
   2  -9  14   50.49    4.60
  -3   9 -14   21.50    3.30
   3  -9  14   20.30    3.40
   3  -9  14   20.80    4.40
  -4   9 -14   77.09    6.00
   4  -9  14   75.19    4.70
   4  -9  14   82.49    5.50
  -5   9 -14    8.80    2.60
   5  -9  14    4.30    2.40
   5  -9  14    6.00    1.90
   2   8 -14   45.70    3.40
   1   8 -14   12.50    2.80
  -1  -8  14    7.80    2.60
   0   8 -14   95.29    6.20
   0  -8  14  103.69    6.20
  -2   8 -14   28.80    3.50
   2  -8  14   29.40    3.60
   2  -8  14   27.40    2.20
  -3   8 -14   38.60    4.00
   3  -8  14   34.90    2.80
   3  -8  14   38.00    3.90
  -4   8 -14   42.90    4.50
   4  -8  14   42.30    4.20
   4  -8  14   49.80    3.50
  -5   8 -14  120.49    7.70
   5  -8  14  135.29    7.00
   5  -8  14  146.69    6.70
  -6   8 -14    1.80    1.60
   6  -8  14    1.10    1.30
   6  -8  14    1.10    1.80
  -7   8 -14    5.50    2.00
   7  -8  14    2.80    1.60
   7  -8  14    5.90    2.40
   3   7 -14   81.29    5.00
  -3  -7  14   65.09    5.20
   2   7 -14   38.40    3.60
  -2  -7  14   27.30    3.50
   0   7 -14   -0.60    1.20
   0  -7  14    1.40    1.70
  -1   7 -14    1.10    1.50
   1  -7  14    2.90    1.00
   1  -7  14    1.80    1.90
  -2   7 -14   43.10    4.40
   2  -7  14   43.60    4.00
   2  -7  14   48.40    2.90
  -3   7 -14   65.29    5.30
   3  -7  14   72.69    5.00
   3  -7  14   80.39    4.00
  -4   7 -14   60.29    5.20
   4  -7  14   69.59    4.80
   4  -7  14   67.89    3.90
  -5   7 -14    4.10    1.60
   5  -7  14    4.60    2.00
   5  -7  14    0.70    1.10
  -6   7 -14   30.00    3.60
   6  -7  14   33.30    3.10
   6  -7  14   28.90    3.60
  -7   7 -14    9.40    2.60
   7  -7  14   14.50    2.50
   7  -7  14    7.20    2.40
  -8   7 -14  173.78    9.30
   8  -7  14  165.18    8.20
   8  -7  14  169.68    8.40
   3   6 -14  135.29    6.90
   3   6 -14  149.29    7.70
  -3  -6  14  114.19    7.00
   2   6 -14  125.69    6.90
   2   6 -14  141.89    7.60
  -2  -6  14  115.09    6.70
   1   6 -14   17.80    2.50
  -1  -6  14   10.90    2.60
   0   6 -14    7.50    2.10
   0  -6  14    4.50    2.20
  -1   6 -14    0.70    1.20
   1  -6  14   -1.70    1.40
  -2   6 -14  167.08    8.60
   2  -6  14  161.18    6.30
   2  -6  14  166.88    7.90
  -3   6 -14  247.58   11.40
   3  -6  14  260.27   12.30
   3  -6  14  247.38    9.10
  -4   6 -14   -0.50    1.20
   4  -6  14    2.50    1.20
   4  -6  14   -0.40    1.60
  -5   6 -14   39.40    4.00
   5  -6  14   44.50    3.30
   5  -6  14   44.50    4.00
  -6   6 -14    1.20    1.70
   6  -6  14    1.00    1.70
   6  -6  14    1.50    1.40
  -7   6 -14   74.69    5.50
   7  -6  14   62.89    4.80
   7  -6  14   62.39    4.40
  -8   6 -14    6.20    1.90
   8  -6  14   -0.30    1.90
   8  -6  14    3.40    1.70
   9  -6  14   73.09    5.50
   9  -6  14   84.49    5.60
   4   5 -14  106.09    6.00
   4   5 -14  124.19    7.00
  -4  -5  14   91.49    6.10
   3   5 -14   49.30    4.30
   3   5 -14   43.00    3.90
  -3  -5  14   34.60    3.80
   2   5 -14    6.50    2.40
   2   5 -14    0.10    1.40
  -2  -5  14    1.10    1.50
   1   5 -14    6.60    2.20
  -1  -5  14    5.70    2.20
   0   5 -14   37.10    7.60
   0   5 -14   35.00    3.10
   0  -5  14   25.80    3.00
  -1   5 -14  262.47    9.60
  -1   5 -14  250.57   11.10
   1  -5  14  254.97   11.50
   2  -5  14   26.50    3.20
   2  -5  14   27.90    2.00
  -3   5 -14   89.69    6.10
   3  -5  14   99.49    5.50
   3  -5  14   95.19    5.00
  -4   5 -14   18.40    3.90
   4  -5  14   20.50    2.10
   4  -5  14   18.30    3.00
  -5   5 -14  289.67   12.70
   5  -5  14  286.47   10.90
   5  -5  14  300.47   12.10
  -6   5 -14  290.47   12.80
   6  -5  14  303.77   12.00
   6  -5  14  304.67   11.60
  -7   5 -14  118.59    7.20
   7  -5  14  120.79    6.40
   7  -5  14  121.99    6.50
  -8   5 -14   82.49    5.90
   8  -5  14   87.49    5.60
   8  -5  14   87.79    5.50
  -9   5 -14  180.68    8.90
   9  -5  14  162.58    8.20
   9  -5  14  169.78    8.50
   4   4 -14  148.69    7.60
   4   4 -14  144.49    8.00
  -4  -4  14  128.49    7.20
   3   4 -14   12.30    2.70
  -3  -4  14   11.20    2.60
   2   4 -14   14.60    3.20
   1   4 -14  269.07   12.40
   1   4 -14  245.58   11.50
  -1  -4  14  252.57   10.50
   0   4 -14  311.77   13.00
   0   4 -14  329.67   12.20
   0  -4  14  336.27   12.50
  -1   4 -14   95.49    4.60
  -1   4 -14   87.99    5.60
   1  -4  14   87.69    5.20
  -2   4 -14  189.28    9.10
  -2   4 -14  187.38    7.00
   2  -4  14  183.98    6.70
   2  -4  14  188.68    8.10
  -3   4 -14  286.47   12.10
   3  -4  14  289.27   10.00
   3  -4  14  282.27   11.00
  -4   4 -14   29.10    3.40
   4  -4  14   30.50    2.50
   4  -4  14   25.30    3.00
  -5   4 -14   72.39    5.20
   5  -4  14   72.89    4.80
   5  -4  14   74.19    4.20
  -6   4 -14  276.77   12.50
   6  -4  14  267.67   11.00
   6  -4  14  281.47   10.80
  -7   4 -14  228.18   10.50
   7  -4  14  238.68    9.70
   7  -4  14  214.98    9.60
  -8   4 -14   35.90    3.80
   8  -4  14   27.20    3.60
   8  -4  14   39.00    3.60
  -9   4 -14   61.79    4.80
  -9   4 -14   74.29    5.30
   9  -4  14   67.49    5.10
 -10   4 -14    4.10    1.80
  10  -4  14    2.40    1.80
  -5  -3  14   33.10    4.30
  -5  -3  14   36.10    3.90
   4   3 -14  272.37   11.50
   4   3 -14  271.07   12.20
  -4  -3  14  261.57   11.20
   3   3 -14   32.70    4.70
   3   3 -14   30.90    3.10
  -3  -3  14   28.20    3.30
   2   3 -14  258.27   12.60
   2   3 -14  252.27   11.00
  -2  -3  14  263.07   10.60
   1   3 -14  125.19    6.50
   1   3 -14  121.19    6.70
  -1  -3  14  120.49    6.40
   0   3 -14  435.06   16.20
   0   3 -14  291.77   79.69
   0  -3  14  454.25   15.50
  -1   3 -14  106.89    6.20
  -1   3 -14  101.19    5.00
   1  -3  14  106.39    5.60
  -2   3 -14  336.87   13.50
  -2   3 -14  354.06   11.70
   2  -3  14  342.67   12.60
  -3   3 -14   77.59    5.20
   3  -3  14   72.89    4.60
   3  -3  14   79.69    3.80
  -4   3 -14   28.00    3.30
   4  -3  14   30.20    3.20
  -5   3 -14  758.22   25.10
   5  -3  14  733.03   23.20
   5  -3  14  698.63   23.70
  -6   3 -14  602.64   21.10
   6  -3  14  599.14   19.90
   6  -3  14  577.74   20.00
  -7   3 -14    7.60    2.30
   7  -3  14    6.60    3.60
   7  -3  14    4.50    1.80
  -8   3 -14   11.50    2.80
  -8   3 -14   11.30    2.50
   8  -3  14   12.60    2.60
  -9   3 -14  326.47   13.50
  -9   3 -14  349.77   13.80
   9  -3  14  332.97   13.70
 -10   3 -14  532.55   18.30
 -10   3 -14  469.35   18.00
  10  -3  14  457.65   18.20
  -5  -2  14   30.40    4.30
  -5  -2  14   35.90    3.80
   4   2 -14  291.07   12.80
   4   2 -14  288.57   12.20
  -4  -2  14  291.87   11.80
   3   2 -14   11.90    2.80
  -3  -2  14   14.00    2.70
   2   2 -14  134.79    7.20
   2   2 -14  130.19    7.90
   1   2 -14  817.52  148.79
   1   2 -14  914.61   29.60
   1   2 -14  923.01   30.00
  -1  -2  14  941.01   29.20
   0   2 -14  452.05   16.90
   0  -2  14  481.55   16.20
  -1   2 -14    5.00    1.90
  -1   2 -14    6.00    1.50
   1  -2  14    3.40    1.60
  -2   2 -14    1.40    0.80
  -2   2 -14    7.20    1.90
   2  -2  14    0.30    1.40
  -3   2 -14  353.96   13.60
  -3   2 -14  333.07   11.10
   3  -2  14  353.76   12.70
   3  -2  14  345.27   11.50
  -4   2 -14  297.37   12.20
   4  -2  14  295.57   11.40
   4  -2  14  298.07   10.60
  -5   2 -14    9.90    2.50
   5  -2  14   12.20    2.40
   5  -2  14   11.80    2.10
  -6   2 -14   61.89    4.70
   6  -2  14   57.19    4.20
   6  -2  14   58.39    4.10
  -7   2 -14   37.90    3.50
  -7   2 -14   40.70    3.70
   7  -2  14   39.10    3.70
  -8   2 -14  148.79    7.80
  -8   2 -14  164.78    8.10
  -9   2 -14  174.68    8.40
   9  -2  14  165.88    8.60
 -10   2 -14   17.00    3.10
  10  -2  14   27.00    3.50
   5   1 -14   83.49    6.10
  -5  -1  14   66.79    5.80
  -5  -1  14   71.19    5.10
   4   1 -14    0.80    1.60
  -4  -1  14    0.50    1.40
  -4  -1  14    0.80    2.30
   3   1 -14  182.78    8.90
   3   1 -14  183.28   12.90
  -3  -1  14  183.68    8.30
   2   1 -14   48.00    4.10
   2   1 -14   47.70    4.10
  -2  -1  14   50.89    3.90
   1   1 -14  -18.20   33.60
  -1  -1  14    5.60    1.80
   0   1 -14   17.70   33.30
   0   1 -14   26.50    2.90
   0   1 -14   25.50    3.20
   0  -1  14   24.20    2.80
  -1   1 -14    1.40    1.20
  -1   1 -14   -7.10   23.30
  -1   1 -14    2.20    1.20
   1  -1  14    1.80    1.40
  -2   1 -14  931.61   30.10
  -2   1 -14  916.71   28.30
   2  -1  14  949.01   29.10
  -3   1 -14 1070.39   34.30
  -3   1 -14 1088.89   32.30
   3  -1  14 1117.49   33.60
   3  -1  14 1081.99   32.40
  -4   1 -14   21.50    2.70
   4  -1  14   19.20    2.10
   4  -1  14   19.00    2.60
  -5   1 -14    8.50    2.30
   5  -1  14    7.10    2.10
   5  -1  14   11.20    2.20
  -6   1 -14  493.15   17.40
  -6   1 -14  455.25   17.00
   6  -1  14  473.25   16.40
  -7   1 -14  472.15   17.00
  -7   1 -14  458.45   16.90
   7  -1  14  470.25   16.70
  -8   1 -14  233.88   10.30
  -8   1 -14  228.78   10.20
   8  -1  14  246.48   10.40
  -9   1 -14  349.77   14.00
  -9   1 -14  371.26   14.20
   9  -1  14  358.86   14.30
 -10   1 -14  302.27   15.30
 -10   1 -14  263.37   11.50
  10  -1  14  260.37   12.00
 -11   1 -14   26.10    3.20
  11  -1  14   29.50    3.80
   5   0 -14   60.29    5.00
  -5   0  14   56.29    4.30
  -5   0  14   53.19    5.40
   4   0 -14  709.63   25.30
  -4   0  14  730.83   25.30
  -4   0  14  735.53   24.00
   3   0 -14  582.74   25.00
   3   0 -14  590.14   20.80
   2   0 -14   12.20    2.40
   2   0 -14   11.90    2.60
  -2   0  14   15.10    2.60
   1   0 -14  140.59    7.10
   1   0 -14  139.09   47.10
   1   0 -14  143.59    7.40
  -1   0  14  141.69    6.70
   0   0 -14  403.46   15.10
   0   0 -14  337.77   78.29
   0   0 -14  403.56   14.60
   0   0  14  419.66   14.30
  -1   0 -14  113.79    6.10
  -1   0 -14  115.89   32.50
   1   0  14  116.69    5.70
  -2   0 -14  239.18   42.50
  -2   0 -14  280.47   11.40
  -2   0 -14  280.57   10.20
   2   0  14  293.97   10.70
  -3   0 -14  706.63   23.80
  -3   0 -14  717.33   22.10
   3   0  14  746.43   23.10
   3   0  14  699.03   22.00
  -4   0 -14  233.28    9.80
   4   0  14  225.68    8.70
   4   0  14  234.88    9.40
  -5   0 -14   25.50    2.80
   5   0  14   24.60    2.80
  -6   0 -14   81.19    5.00
  -6   0 -14   84.09    5.20
   6   0  14   76.99    4.90
  -7   0 -14  105.69    6.00
  -7   0 -14   94.79    5.70
   7   0  14  106.39    6.00
  -8   0 -14   56.99    4.20
  -8   0 -14   53.99    4.20
   8   0  14   56.69    4.60
  -9   0 -14   31.90    3.30
  -9   0 -14   47.00    3.90
   9   0  14   34.10    4.00
 -10   0 -14   52.79    4.20
  10   0  14   55.89    5.10
 -11   0 -14   75.59    5.30
  11   0  14   75.69    6.00
   5  -1 -14    2.00    2.00
  -5   1  14   -1.30    2.20
  -5   1  14    4.20    1.70
   4  -1 -14  135.79    8.00
  -4   1  14  148.59    7.10
  -4   1  14  137.89    8.30
   3  -1 -14  303.77   13.30
  -3   1  14  315.27   13.40
  -3   1  14  328.47   12.00
   2  -1 -14   15.00    2.60
   2  -1 -14   13.60    3.60
  -2   1  14   17.20    2.50
   1  -1 -14  245.28   10.30
   1  -1 -14  242.88   10.60
  -1   1  14  244.18    9.60
   0  -1 -14  330.67   12.90
   0  -1 -14  321.87   45.10
   0  -1 -14  322.77   12.30
   0   1  14  324.17   11.80
  -1  -1 -14  196.58   33.00
  -1  -1 -14  173.38    9.30
  -1  -1 -14  176.58    8.20
   1   1  14  178.08    7.50
  -2  -1 -14   41.90    3.60
  -2  -1 -14   39.10    2.90
  -2  -1 -14   34.20   15.00
   2   1  14   43.90    3.30
  -3  -1 -14  129.79   24.20
  -3  -1 -14  155.28    7.20
  -3  -1 -14  140.49    6.00
   3   1  14  143.39    6.60
   3   1  14  145.69    6.00
  -4  -1 -14  205.48    8.70
  -4  -1 -14  178.38    6.90
  -4  -1 -14  126.89   28.40
   4   1  14  208.88    7.90
   4   1  14  198.88    8.30
  -5  -1 -14  338.27   13.00
  -5  -1 -14  356.86   13.20
   5   1  14  337.07   12.40
  -6  -1 -14  583.54   19.80
  -6  -1 -14  589.94   20.00
   6   1  14  564.74   19.40
  -7  -1 -14  629.84   21.50
  -7  -1 -14  638.34   21.40
   7   1  14  638.84   21.50
  -8  -1 -14  148.39    7.60
  -8  -1 -14  159.88    7.50
   8   1  14  152.78    7.90
  -9  -1 -14   22.00    2.60
   9   1  14   18.00    3.70
 -10  -1 -14   18.80    2.80
  10   1  14   21.60    3.90
 -11  -1 -14  211.28    9.80
  11   1  14  194.58   10.30
   5  -2 -14  189.08   10.00
  -5   2  14  193.78   10.20
  -5   2  14  190.48    8.40
   4  -2 -14   74.99    5.80
  -4   2  14   76.39    5.50
  -4   2  14   75.19    6.20
   3  -2 -14  124.29    7.30
  -3   2  14  130.19    7.80
  -3   2  14  128.09    6.30
   2  -2 -14  213.28    9.70
   2  -2 -14  213.88   71.19
  -2   2  14  200.98   10.50
  -2   2  14  214.48    8.70
   1  -2 -14  268.87   52.09
   1  -2 -14  330.37   13.10
   1  -2 -14  332.37   13.00
  -1   2  14  335.57   12.00
   0  -2 -14  587.24   20.30
   0  -2 -14  624.24   51.59
   0  -2 -14  610.84   20.90
   0   2  14  595.84   19.50
  -1  -2 -14  581.24   45.60
  -1  -2 -14  607.34   20.20
  -1  -2 -14  623.94   20.90
   1   2  14  606.24   19.60
  -2  -2 -14  205.98    9.00
   2   2  14  200.98    7.40
   2   2  14  206.08    8.30
  -3  -2 -14    9.00    1.80
  -3  -2 -14    9.60    2.20
   3   2  14    9.30    1.80
   3   2  14   12.20    2.20
  -4  -2 -14   37.70    3.40
  -4  -2 -14   37.20    2.60
   4   2  14   37.30    3.30
   4   2  14   39.20    3.30
  -5  -2 -14  227.68    9.40
  -5  -2 -14  232.18    9.50
   5   2  14  222.88    9.10
   5   2  14  211.78    9.30
  -6  -2 -14   92.89    5.30
  -6  -2 -14   90.59    5.30
   6   2  14   94.89    5.50
  -7  -2 -14    6.00    1.80
  -7  -2 -14    4.60    1.70
   7   2  14    4.90    2.10
  -8  -2 -14   15.90    2.40
   8   2  14   17.10    3.40
  -9  -2 -14   71.89    4.90
  -9  -2 -14   87.79    4.40
   9   2  14   66.49    5.60
 -10  -2 -14  234.48   10.80
 -10  -2 -14  291.17   10.00
  10   2  14  245.08   11.70
 -11  -2 -14  154.48    8.20
  11   2  14  166.88    9.10
   5  -3 -14  264.37   12.40
  -5   3  14  281.17   12.90
  -5   3  14  266.17   10.60
   4  -3 -14    5.30    2.40
  -4   3  14   10.20    2.10
  -4   3  14    6.30    3.20
   3  -3 -14   89.39    5.90
  -3   3  14   82.09    6.30
  -3   3  14   80.89    4.80
   2  -3 -14   35.40   49.00
   2  -3 -14   22.40    3.10
  -2   3  14   23.10    2.70
  -2   3  14   24.30    3.90
   1  -3 -14   15.90   23.10
   1  -3 -14   16.40    2.60
  -1   3  14   15.50    3.20
  -1   3  14   16.50    2.50
   0  -3 -14    7.10    2.00
   0  -3 -14    5.40    1.90
   0   3  14   10.40    1.90
  -1  -3 -14  134.19    7.00
  -1  -3 -14  131.39    6.50
   1   3  14  135.89    6.10
  -2  -3 -14   36.70    3.40
  -2  -3 -14   33.80    3.00
   2   3  14   35.10    3.00
   2   3  14   36.20    2.80
  -3  -3 -14  148.99    7.10
   3   3  14  150.38    6.70
   3   3  14  142.99    6.40
  -4  -3 -14 1150.98   35.50
  -4  -3 -14 1134.59   34.50
   4   3  14 1145.59   35.00
  -5  -3 -14  582.64   19.20
  -5  -3 -14  566.64   19.20
   5   3  14  550.14   19.50
   5   3  14  552.64   18.80
  -6  -3 -14   19.40    2.50
  -6  -3 -14   24.00    2.60
   6   3  14   22.50    3.30
   6   3  14   21.40    3.80
  -7  -3 -14   14.90    2.70
   7   3  14   16.80    3.10
  -8  -3 -14  298.37   11.90
  -8  -3 -14  305.27   11.20
   8   3  14  280.87   12.40
  -9  -3 -14  509.85   16.50
  -9  -3 -14  455.05   17.20
   9   3  14  477.25   18.10
 -10  -3 -14   85.09    5.50
  10   3  14   87.79    6.50
 -11  -3 -14   69.39    4.90
  11   3  14   66.99    5.90
   4  -4 -14   60.69    5.10
  -4   4  14   64.39    3.90
  -4   4  14   53.69    5.50
   3  -4 -14  174.28    9.00
  -3   4  14  166.38    7.30
  -3   4  14  164.58    9.20
   2  -4 -14  838.82   28.40
  -2   4  14  844.82   28.50
  -2   4  14  833.72   26.20
   1  -4 -14  453.55   16.60
   1  -4 -14  332.17   45.30
  -1   4  14  457.25   14.90
  -1   4  14  428.76   18.20
   0  -4 -14   16.20    3.00
   0   4  14   14.10    3.30
   0   4  14   12.90    2.20
  -1  -4 -14    2.60    1.30
  -1  -4 -14    1.50    1.40
   1   4  14    3.60    1.50
  -2  -4 -14  576.14   19.60
  -2  -4 -14  594.04   20.20
   2   4  14  590.64   19.00
   2   4  14  579.14   18.70
  -3  -4 -14  270.77   10.90
  -3  -4 -14  278.97   10.40
   3   4  14  268.47   10.20
   3   4  14  270.47   10.30
  -4  -4 -14   31.80    2.90
  -4  -4 -14   33.10    2.00
   4   4  14   24.60    2.80
   4   4  14   30.60    3.20
  -5  -4 -14  146.69    6.80
  -5  -4 -14  144.29    6.90
   5   4  14  138.89    8.00
   5   4  14  139.39    7.00
  -6  -4 -14   30.10    2.90
   6   4  14   31.00    3.70
   6   4  14   31.70    5.00
  -7  -4 -14  244.58    9.50
  -7  -4 -14  248.08   10.10
   7   4  14  229.78   11.60
   7   4  14  230.08   10.40
  -8  -4 -14  235.18    9.00
  -8  -4 -14  232.78    9.90
   8   4  14  227.28   11.10
   8   4  14  225.38   11.60
  -9  -4 -14   20.60    2.70
   9   4  14   27.30    4.40
 -10  -4 -14   34.00    3.30
  10   4  14   30.10    4.40
 -11  -4 -14  121.79    7.10
  11   4  14  143.89    9.10
   4  -5 -14   43.30    4.50
  -4   5  14   43.70    5.30
  -4   5  14   46.70    3.10
   3  -5 -14   36.40    4.10
  -3   5  14   36.20    4.80
  -3   5  14   36.10    2.80
   2  -5 -14   23.40    3.30
  -2   5  14   25.60    2.50
  -2   5  14   24.90    4.20
   1  -5 -14  126.19    7.40
  -1   5  14  119.49    7.40
  -1   5  14  128.29    5.70
   0  -5 -14    3.20    1.70
   0   5  14    4.40    1.50
   0   5  14    4.20    2.60
  -1  -5 -14  891.11   28.90
   1   5  14  896.61   27.40
   1   5  14  898.91   29.20
   1   5  14  888.41   27.30
  -2  -5 -14  681.43   22.70
   2   5  14  697.93   22.00
   2   5  14  685.63   23.10
   2   5  14  687.33   21.80
  -3  -5 -14   22.60    2.70
  -3  -5 -14   14.30    2.30
   3   5  14   13.80    2.30
   3   5  14   16.70    2.70
  -4  -5 -14   39.50    3.40
  -4  -5 -14   35.60    3.20
   4   5  14   33.50    4.70
   4   5  14   38.90    3.70
   4   5  14   39.80    3.20
  -5  -5 -14  426.56   15.00
  -5  -5 -14  420.06   15.00
   5   5  14  420.96   16.70
   5   5  14  395.46   15.10
  -6  -5 -14  193.48    7.90
  -6  -5 -14  190.68    8.30
   6   5  14  186.48    8.90
   6   5  14  180.58   10.30
  -7  -5 -14   96.39    4.90
  -7  -5 -14   89.29    5.30
   7   5  14   95.49    6.20
   7   5  14   89.39    7.70
  -8  -5 -14  461.95   16.30
  -8  -5 -14  412.76   17.20
   8   5  14  463.45   17.30
   8   5  14  450.55   18.70
  -9  -5 -14  377.56   14.60
   9   5  14  387.86   15.70
   9   5  14  405.96   16.70
 -10  -5 -14    2.30    1.40
  10   5  14    3.30    2.50
   4  -6 -14  233.68   11.30
  -4   6  14  221.98   11.80
   3  -6 -14   19.00    3.10
  -3   6  14   22.80    4.40
   2  -6 -14  114.89    7.10
  -2   6  14  121.59    7.70
  -2   6  14  117.79    5.30
   1  -6 -14  328.07   13.50
  -1   6  14  324.77   11.30
  -1   6  14  326.77   13.70
   0  -6 -14  101.69    6.20
   0  -6 -14  101.59    4.30
   0   6  14  101.49    4.80
  -1  -6 -14  145.39    5.80
  -1  -6 -14  150.18    7.50
   1   6  14  142.49    7.70
   1   6  14  141.19    6.00
  -2  -6 -14  899.21   29.40
  -2  -6 -14  927.71   27.90
   2   6  14  908.51   28.10
   2   6  14  937.21   29.70
  -3  -6 -14  242.18   10.20
   3   6  14  244.28   10.20
   3   6  14  244.38    9.30
   4   6  14  138.29    8.60
   4   6  14  132.89    6.70
   4   6  14  134.19    7.00
   4   6  14  132.99    6.20
  -5  -6 -14   35.80    3.30
   5   6  14   40.80    3.70
   5   6  14   37.50    5.50
   5   6  14   42.80    4.20
  -6  -6 -14   70.99    4.50
   6   6  14   63.59    5.30
   6   6  14   68.19    4.30
   6   6  14   58.59    6.80
  -7  -6 -14   55.69    3.90
   7   6  14   56.39    7.90
   7   6  14   53.89    4.30
   7   6  14   59.49    7.20
  -8  -6 -14   38.20    3.50
   8   6  14   40.80    4.70
   8   6  14   41.30    6.50
  -9  -6 -14    1.60    1.20
   9   6  14    2.90    2.40
 -10  -6 -14    0.80    1.40
  10   6  14   -1.10    2.30
   3  -7 -14   35.20    4.20
  -3   7  14   32.40    5.50
   2  -7 -14  128.79    7.70
  -2   7  14  135.39    8.30
   1  -7 -14  114.29    7.00
  -1   7  14  133.49    7.80
  -1   7  14   98.29    6.40
   0  -7 -14    8.20    2.40
   0  -7 -14    6.30    1.40
   0   7  14    6.50    3.10
  -1  -7 -14   35.30    2.60
  -1  -7 -14   33.00    4.10
   1   7  14   33.40    2.70
   1   7  14   39.60    4.40
  -2  -7 -14  150.28    7.60
   2   7  14  154.58    7.80
   2   7  14  150.38    6.40
  -3  -7 -14   13.50    1.90
  -3  -7 -14    8.00    2.20
   3   7  14    6.80    1.80
   3   7  14    8.40    2.70
  -4  -7 -14   29.10    2.70
   4   7  14   22.70    3.20
   4   7  14   31.50    5.60
   4   7  14   29.00    2.80
  -5  -7 -14  714.63   23.10
  -5  -7 -14  724.03   23.40
   5   7  14  705.03   23.00
   5   7  14  709.53   26.40
   5   7  14  710.13   24.30
  -6  -7 -14  432.16   15.20
   6   7  14  428.26   18.60
   6   7  14  399.36   17.50
   6   7  14  416.86   14.40
   7   7  14   13.80    5.50
   7   7  14   13.30    2.50
   7   7  14   11.20    3.10
  -8  -7 -14    6.80    2.00
   8   7  14   13.60    5.20
   8   7  14    8.20    2.90
  -9  -7 -14  146.49    7.50
   9   7  14  145.29    8.90
   9   7  14  179.98   11.10
   2  -8 -14  129.79    7.90
  -2   8  14  137.99    8.70
   1  -8 -14  654.93   24.00
   1  -8 -14  681.33   21.00
  -1   8  14  683.03   24.10
   0  -8 -14  370.16   14.90
   0  -8 -14  355.26   12.40
   0   8  14  380.76   15.10
  -1  -8 -14    1.80    1.10
  -1  -8 -14    1.10    1.70
   1   8  14    3.00    1.20
   1   8  14    2.20    2.40
  -2  -8 -14    3.50    1.90
   2   8  14    5.00    1.30
   2   8  14    2.70    2.40
  -3  -8 -14   52.79    3.50
  -3  -8 -14   51.39    5.00
   3   8  14   42.70    4.20
   3   8  14   44.50    3.20
   3   8  14   46.90    7.60
  -4  -8 -14    4.00    1.50
   4   8  14    2.90    4.10
   4   8  14    2.90    2.10
   4   8  14    4.00    1.60
  -5  -8 -14   11.80    3.70
   5   8  14    9.90    4.60
   5   8  14    9.90    2.40
  -6  -8 -14  119.79    6.30
  -6  -8 -14  123.89    6.20
   6   8  14  121.89    7.60
   6   8  14  113.69    5.70
   6   8  14  128.79   10.30
  -7  -8 -14   21.10    2.90
   7   8  14   24.00    6.50
   7   8  14   21.90    4.10
  -8  -8 -14  140.89    7.00
   8   8  14  141.29   13.80
   8   8  14  139.29    8.70
  -9  -8 -14  237.28   10.40
   9   8  14  252.37   14.50
   9   8  14  250.47   12.40
   1  -9 -14    3.90    2.00
   1  -9 -14    3.80    1.70
  -1   9  14    5.60    3.00
   0  -9 -14   67.29    3.90
   0  -9 -14   61.59    5.40
   0   9  14   62.09    6.00
  -1  -9 -14   -0.60    0.80
  -1  -9 -14   -1.70    1.30
   1   9  14    2.80    2.50
  -2  -9 -14  251.77    9.50
  -2  -9 -14  237.68   10.90
   2   9  14  229.78   10.70
  -3  -9 -14  317.27   11.80
   3   9  14  322.17   12.50
   3   9  14  304.57   15.40
   3   9  14  295.77   10.80
  -4  -9 -14   71.49    4.50
   4   9  14   68.19    4.10
   4   9  14   77.89    8.20
   4   9  14   69.89    5.00
  -5  -9 -14   10.70    2.20
  -5  -9 -14   10.30    2.30
   5   9  14    8.10    4.80
   5   9  14    7.70    2.30
  -6  -9 -14   44.20    3.70
   6   9  14   45.80    7.90
  -7  -9 -14   60.39    4.10
   7   9  14   50.19    5.60
   7   9  14   49.20    8.60
  -8  -9 -14   31.60    3.00
   8   9  14   40.70    7.70
   8   9  14   32.30    5.40
   0 -10 -14   28.60    4.00
   0  10  14   33.80    5.20
  -1 -10 -14    0.40    1.70
   1  10  14    1.60    2.60
  -2 -10 -14   24.20    2.80
   2  10  14   29.00    4.40
   2  10  14   25.50    5.90
  -3 -10 -14  130.09    6.30
   3  10  14  119.49   10.00
   3  10  14  115.39    8.70
  -4 -10 -14  149.79    7.00
   4  10  14  138.89   11.10
   4  10  14  137.39    7.20
  -5 -10 -14   -0.10    1.40
   5  10  14    2.00    2.00
   5  10  14    2.10    1.30
   5  10  14    1.70    4.80
  -6 -10 -14  120.09    6.60
  -6 -10 -14  123.79    6.30
   6  10  14  115.79   11.00
  -7 -10 -14   36.80    3.80
   7  10  14   46.10    9.00
  -3 -11 -14    8.60    2.10
   3  11  14   12.50    5.70
   3  11  14    3.90    2.50
  -4 -11 -14   21.20    3.30
   4  11  14   29.30    7.80
   4  11  14   27.30    6.10
   0   8 -15   77.09    5.50
   0  -8  15   63.19    5.20
  -1   8 -15   62.79    4.90
   1  -8  15   40.90    4.30
  -2   8 -15   99.69    6.40
   2  -8  15   88.29    5.80
  -3   8 -15   91.19    6.30
   3  -8  15   78.69    4.20
   3  -8  15   75.59    5.50
  -4   8 -15  552.74   22.00
   4  -8  15  623.94   20.40
   4  -8  15  605.34   20.50
  -5   8 -15  148.29    8.90
   5  -8  15  158.98    7.80
   5  -8  15  160.18    7.20
   1   7 -15  149.29    7.90
  -1  -7  15  139.99    7.70
   0   7 -15   55.89    4.70
   0  -7  15   52.39    4.50
  -1   7 -15  186.88    9.60
   1  -7  15  196.98    9.10
  -2   7 -15   81.09    6.00
   2  -7  15   69.89    5.10
   2  -7  15   70.49    4.10
  -3   7 -15    9.50    2.60
   3  -7  15    9.90    1.70
   3  -7  15    8.30    2.50
  -4   7 -15   80.49    6.30
   4  -7  15   85.89    5.60
   4  -7  15   86.19    4.60
  -5   7 -15  305.67   13.70
   5  -7  15  320.67   11.90
   5  -7  15  316.77   12.40
  -6   7 -15   22.60    3.40
   6  -7  15   23.00    2.70
   6  -7  15   18.00    3.20
  -7   7 -15   51.29    4.70
   7  -7  15   41.20    4.30
   7  -7  15   47.10    3.80
   2   6 -15  117.09    6.60
  -2  -6  15  107.49    6.60
   1   6 -15  299.67   12.70
  -1  -6  15  317.97   12.60
   0   6 -15    2.90    1.70
   0  -6  15    4.50    2.00
  -1   6 -15  187.08    9.40
   1  -6  15  192.38    8.80
  -2   6 -15  160.18    8.50
   2  -6  15  153.88    7.70
  -3   6 -15  108.89    7.00
   3  -6  15  114.99    5.00
   3  -6  15  112.39    6.30
  -4   6 -15   73.49    5.50
   4  -6  15   76.59    4.10
   4  -6  15   69.29    4.90
  -5   6 -15   84.79    6.00
   5  -6  15   93.09    4.90
   5  -6  15   84.19    5.50
  -6   6 -15   21.60    3.50
   6  -6  15   24.60    2.70
   6  -6  15   20.80    3.30
  -7   6 -15  123.29    7.40
   7  -6  15  123.79    6.40
   7  -6  15  112.69    6.70
  -8   6 -15  504.25   19.00
   8  -6  15  474.35   17.60
   8  -6  15  486.35   17.70
   3   5 -15  220.58    9.70
  -3  -5  15  200.48    9.60
   2   5 -15  232.78    9.70
   2   5 -15  194.48    9.50
  -2  -5  15  188.48    9.20
   1   5 -15  116.59    7.00
   1   5 -15  143.99    5.80
  -1  -5  15  117.89    6.70
   0   5 -15   78.19    5.30
   0  -5  15   79.99    5.30
  -1   5 -15  142.59    7.70
   1  -5  15  146.49    7.20
  -2   5 -15  316.97   13.60
  -2   5 -15  350.56   10.90
   2  -5  15  306.87   12.40
  -3   5 -15  278.67   12.20
   3  -5  15  271.67   11.00
   3  -5  15  282.67    9.80
  -4   5 -15   30.30    3.70
   4  -5  15   29.90    2.30
  -5   5 -15    1.40    1.40
   5  -5  15    3.20    1.20
   5  -5  15    0.10    1.60
  -6   5 -15   12.80    3.00
   6  -5  15   13.00    2.90
   6  -5  15   14.30    2.50
  -7   5 -15    1.60    1.50
   7  -5  15    2.10    1.90
   7  -5  15    4.50    1.50
  -8   5 -15    5.80    2.10
   8  -5  15    2.60    1.40
   8  -5  15    3.10    2.00
   3   4 -15  236.58   10.20
   3   4 -15  219.28   10.00
  -3  -4  15  195.28    9.50
   2   4 -15    0.50    1.50
   2   4 -15   11.40    3.40
  -2  -4  15    0.20    1.50
   1   4 -15   71.59    5.10
  -1  -4  15   72.09    5.00
   0   4 -15   95.09    6.00
   0   4 -15  107.99    5.50
   0  -4  15   94.19    5.70
  -1   4 -15   77.39    5.50
  -1   4 -15   90.29    5.00
   1  -4  15   69.69    4.80
  -2   4 -15  126.29    7.50
  -2   4 -15  146.09    5.60
   2  -4  15  133.89    6.90
  -3   4 -15   23.20    3.40
   3  -4  15   17.30    3.40
   3  -4  15   21.60    1.80
  -4   4 -15   13.20    2.80
   4  -4  15   13.80    1.70
   4  -4  15   15.80    3.10
  -5   4 -15  497.75   18.80
   5  -4  15  519.95   17.00
   5  -4  15  494.45   17.60
  -6   4 -15  930.81   31.10
   6  -4  15  921.91   29.20
   6  -4  15  932.61   29.80
  -7   4 -15  235.08   11.00
   7  -4  15  247.38   10.30
   7  -4  15  236.98   10.20
  -8   4 -15   27.60    3.40
   8  -4  15   21.90    3.30
   8  -4  15   29.70    3.10
   9  -4  15   71.09    5.20
   9  -4  15   73.19    5.30
   4   3 -15  290.17   12.40
   4   3 -15  311.47   12.90
  -4  -3  15  284.97   12.10
   3   3 -15   48.60    4.20
  -3  -3  15   51.79    4.30
   2   3 -15   71.79    5.20
   2   3 -15   59.29    4.60
  -2  -3  15   51.09    4.40
   1   3 -15  374.66   14.20
   1   3 -15  361.86   14.40
  -1  -3  15  377.06   14.00
   0   3 -15  688.93   23.20
   0   3 -15  711.83   24.40
   0  -3  15  746.83   23.70
  -1   3 -15  199.58   10.90
  -1   3 -15  218.18    9.30
  -2   3 -15   26.60    3.20
  -2   3 -15   29.50    1.90
  -3   3 -15  244.88   11.00
   3  -3  15  247.98   10.10
   3  -3  15  255.77    8.80
  -4   3 -15   66.69    5.10
   4  -3  15   70.09    4.70
   4  -3  15   74.99    3.90
  -5   3 -15    2.30    1.60
   5  -3  15    5.30    1.40
  -6   3 -15  154.08   10.20
   6  -3  15  136.29    7.10
   6  -3  15  152.18    6.90
  -7   3 -15  156.68    8.20
   7  -3  15  146.29    7.60
   7  -3  15  158.18    7.50
  -8   3 -15   31.70    3.70
   8  -3  15   33.00    3.30
   8  -3  15   26.10    3.60
  -9   3 -15  279.87   12.10
  -9   3 -15  284.37   12.10
   9  -3  15  267.47   11.70
 -10   3 -15   46.50    4.40
  10  -3  15   47.80    4.50
  -4  -2  15    5.80    2.80
  -4  -2  15    8.30    2.40
   3   2 -15   32.80    3.70
   3   2 -15   32.60    3.60
  -3  -2  15   29.00    3.30
   2   2 -15  102.19    6.10
   2   2 -15  101.29    6.20
  -2  -2  15  102.19    5.90
   1   2 -15  124.89    6.80
   1   2 -15  132.09    7.20
  -1  -2  15  139.79    6.90
   0   2 -15   13.70    4.40
   0  -2  15   16.80    3.20
  -1   2 -15   97.09   43.40
  -1   2 -15   98.49    6.00
   1  -2  15  107.19    5.70
  -2   2 -15  328.27   13.10
  -2   2 -15  331.77   11.20
   2  -2  15  318.57   12.20
  -3   2 -15 1078.59   34.40
   3  -2  15 1059.49   33.10
   3  -2  15 1056.59   31.60
  -4   2 -15  220.18   10.00
   4  -2  15  207.98    9.00
  -5   2 -15   76.19    5.30
   5  -2  15   70.09    4.80
   5  -2  15   80.09    4.40
  -6   2 -15  369.46   14.40
   6  -2  15  361.26   12.90
   6  -2  15  326.57   15.20
  -7   2 -15  117.49    7.10
   7  -2  15  121.09    6.60
   7  -2  15  134.59    6.60
  -8   2 -15   14.90    2.90
  -8   2 -15   18.00    3.20
   8  -2  15   15.80    2.80
  -9   2 -15  147.09    7.80
  -9   2 -15  136.69    7.80
   9  -2  15  154.68    7.80
 -10   2 -15  495.85   18.70
 -10   2 -15  528.55   18.60
  10  -2  15  482.95   18.60
   4   1 -15  355.16   14.90
  -4  -1  15  375.96   14.10
  -4  -1  15  373.36   15.20
   3   1 -15  550.44   20.50
   3   1 -15  565.44   20.50
  -3  -1  15  587.14   19.60
   2   1 -15  110.09    6.60
   2   1 -15  115.59    6.70
  -2  -1  15  113.09    6.20
   1   1 -15  219.08    9.50
   1   1 -15  211.78    9.70
   0   1 -15  365.76   90.69
   0   1 -15  533.25   19.20
   0  -1  15  558.54   18.30
  -1   1 -15  160.78    7.10
  -1   1 -15  165.78    8.10
  -1   1 -15  128.39   42.80
   1  -1  15  160.98    7.30
  -2   1 -15   25.30   29.00
  -2   1 -15   30.00    2.40
  -2   1 -15   27.80    3.10
   2  -1  15   25.90    2.90
  -3   1 -15  437.56   14.30
  -3   1 -15  443.16   16.50
   3  -1  15  451.95   14.40
   3  -1  15  453.65   15.70
  -4   1 -15  873.91   28.40
   4  -1  15  842.42   26.40
   4  -1  15  860.21   27.40
  -5   1 -15    4.60    1.80
   5  -1  15    5.70    1.50
   5  -1  15    3.00    1.80
  -6   1 -15  163.08    8.00
   6  -1  15  158.58    7.20
   6  -1  15  146.49    7.50
  -7   1 -15    1.10    1.40
  -7   1 -15    3.70    1.60
   7  -1  15    2.60    1.60
  -8   1 -15    2.60    1.60
  -8   1 -15    0.90    1.30
   8  -1  15    3.00    1.80
  -9   1 -15   91.79    5.90
  -9   1 -15  100.99    6.40
   9  -1  15  100.69    6.20
 -10   1 -15   20.60    3.00
  10  -1  15   19.10    3.60
   4   0 -15   72.49    5.50
  -4   0  15   68.59    5.00
  -4   0  15   62.09    5.80
   3   0 -15  228.58   10.80
  -3   0  15  238.98    9.90
  -3   0  15  234.78   11.20
   2   0 -15  223.78   10.50
   2   0 -15  227.98   10.40
  -2   0  15  229.98    9.50
   1   0 -15   88.69    5.70
   1   0 -15   88.79    5.60
  -1   0  15   88.19    5.20
   0   0 -15  279.17   11.00
   0   0 -15  282.87   11.70
   0   0 -15  208.48   44.50
   0   0  15  283.77   10.70
  -1   0 -15  -30.20   22.90
  -2   0 -15  200.18    9.10
  -2   0 -15  195.08    7.80
  -2   0 -15  134.59   32.00
   2   0  15  198.18    8.30
  -3   0 -15  747.03   25.10
  -3   0 -15  757.32   62.09
  -3   0 -15  753.62   23.20
   3   0  15  746.23   22.90
   3   0  15  751.72   24.20
  -4   0 -15    8.20    1.20
  -4   0 -15    3.90    1.80
   4   0  15    5.70    1.80
   4   0  15    6.10    1.60
  -5   0 -15   17.60    3.00
   5   0  15   17.40    2.30
   5   0  15   13.50    2.60
  -6   0 -15  261.77   11.10
  -6   0 -15  276.07   11.40
   6   0  15  271.37   10.80
   6   0  15  272.57   10.70
  -7   0 -15  884.21   28.10
  -7   0 -15  803.22   27.70
   7   0  15  845.62   27.30
  -8   0 -15  184.48    8.50
  -8   0 -15  171.38    8.40
   8   0  15  159.58   10.00
  -9   0 -15    3.80    1.60
   9   0  15    6.60    2.00
 -10   0 -15   68.49    5.20
  10   0  15   79.89    5.90
   4  -1 -15  344.27   14.70
  -4   1  15  359.26   13.40
  -4   1  15  352.96   15.00
   3  -1 -15  426.46   17.00
  -3   1  15  455.55   15.70
  -3   1  15  437.66   17.20
   2  -1 -15   15.60    3.00
  -2   1  15   12.20    2.90
   1  -1 -15   31.50   55.69
   1  -1 -15   12.30    2.60
   1  -1 -15   12.70    2.60
  -1   1  15   13.80    2.60
   0  -1 -15  306.77   12.00
   0  -1 -15  269.07   49.80
   0  -1 -15  322.47   12.80
   0   1  15  309.77   11.60
  -1  -1 -15  771.22   64.59
  -1  -1 -15  846.12   27.50
   1   1  15  844.52   26.20
  -2  -1 -15  133.19    6.90
  -2  -1 -15  132.99    7.00
   2   1  15  130.09    6.30
  -3  -1 -15   27.80   10.10
  -3  -1 -15   45.60    3.80
  -3  -1 -15   39.00    2.80
   3   1  15   37.70    3.30
   3   1  15   40.60    2.70
  -4  -1 -15   85.49    4.00
  -4  -1 -15   88.29    5.40
   4   1  15   87.39    4.60
   4   1  15   82.09    5.00
  -5  -1 -15   28.90    3.00
   5   1  15   29.80    3.20
   5   1  15   27.10    2.80
  -6  -1 -15   47.60    3.90
  -6  -1 -15   50.09    4.10
   6   1  15   49.60    4.00
  -7  -1 -15   16.20    3.00
  -7  -1 -15   17.60    3.00
   7   1  15   21.00    3.30
  -8  -1 -15  137.49    7.00
   8   1  15  148.19   10.70
  -9  -1 -15    2.00    1.30
   9   1  15    4.00    2.00
 -10  -1 -15  224.78   10.70
 -10  -1 -15  288.67   10.20
  10   1  15  230.28   11.30
   4  -2 -15    9.10    2.50
  -4   2  15    6.90    3.20
  -4   2  15   10.70    2.40
   3  -2 -15    6.70    2.30
  -3   2  15    7.70    2.20
  -3   2  15   11.30    3.40
   2  -2 -15    4.70    1.90
  -2   2  15    4.30    1.70
  -2   2  15    6.70    2.80
   1  -2 -15  158.68    8.10
   1  -2 -15  104.89   37.30
   1  -2 -15  173.78    8.10
  -1   2  15  157.48    7.20
   0  -2 -15  236.08   45.70
   0  -2 -15  353.26   13.70
   0  -2 -15  332.17   13.00
   0   2  15  353.86   12.40
  -1  -2 -15   10.70    2.40
  -1  -2 -15   13.00   14.10
  -1  -2 -15    8.90    2.00
  -2  -2 -15   74.49    4.90
   2   2  15   73.09    4.40
  -3  -2 -15   99.89    5.70
  -3  -2 -15   97.29    4.90
   3   2  15  100.29    4.70
   3   2  15   94.49    5.30
  -4  -2 -15  415.56   14.30
  -4  -2 -15  460.55   15.90
   4   2  15  425.06   15.10
  -5  -2 -15  267.37   10.90
   5   2  15  252.47   10.70
   5   2  15  277.17   10.40
   5   2  15  268.97   10.60
  -6  -2 -15  142.89    7.20
  -6  -2 -15  145.49    7.10
   6   2  15  138.69    7.00
  -7  -2 -15  130.69    8.70
  -7  -2 -15  132.19    6.60
   7   2  15  120.29    6.70
  -8  -2 -15   58.79    4.50
   8   2  15   62.99    5.30
  -9  -2 -15    0.60    1.10
   9   2  15    3.70    2.20
 -10  -2 -15   48.20    4.10
  10   2  15   59.99    5.20
   4  -3 -15    9.50    2.50
  -4   3  15    8.70    2.10
  -4   3  15    5.90    3.00
   3  -3 -15  121.79    7.30
  -3   3  15  116.89    7.70
   2  -3 -15  246.98   11.20
  -2   3  15  255.97   10.00
  -2   3  15  256.57   11.80
   1  -3 -15  345.37   13.50
   1  -3 -15  239.68   44.20
  -1   3  15  323.67   13.70
  -1   3  15  341.57   12.20
   0  -3 -15  436.06   19.80
   0  -3 -15  381.56   14.80
   0   3  15  380.96   13.70
  -1  -3 -15  223.98   10.00
  -1  -3 -15  232.08    9.70
   1   3  15  222.38    8.80
  -2  -3 -15    2.90    1.60
  -2  -3 -15    4.10    1.70
   2   3  15    5.40    1.50
   2   3  15    4.00    1.50
  -3  -3 -15   14.30    2.70
   3   3  15   13.70    2.40
   3   3  15   14.30    2.30
  -4  -3 -15   41.00    2.90
  -4  -3 -15   41.90    3.60
   4   3  15   40.50    3.50
   4   3  15   39.80    3.40
  -5  -3 -15  223.38    9.50
   5   3  15  227.68    9.30
   5   3  15  219.98   10.10
   5   3  15  220.08    9.20
  -6  -3 -15  131.69    6.70
  -6  -3 -15  123.19    6.30
   6   3  15  122.89    6.60
   6   3  15  120.39    7.40
  -7  -3 -15    9.40    2.60
   7   3  15   10.30    2.70
  -8  -3 -15   81.29    4.50
  -8  -3 -15   59.89    4.60
   8   3  15   64.59    5.20
  -9  -3 -15   59.09    4.50
   9   3  15   63.19    5.30
 -10  -3 -15   31.90    3.40
  10   3  15   29.50    4.20
   4  -4 -15    8.20    2.20
  -4   4  15   14.90    2.10
  -4   4  15    4.00    3.00
   3  -4 -15   31.50    3.80
  -3   4  15   35.00    3.20
  -3   4  15   30.40    4.50
   2  -4 -15   34.00    3.70
  -2   4  15   37.80    3.10
  -2   4  15   31.90    4.60
   1  -4 -15   73.69    5.60
  -1   4  15   71.09    4.30
  -1   4  15   71.89    5.80
   0  -4 -15   56.29    4.30
   0   4  15   58.99    3.80
   0   4  15   52.29    5.00
  -1  -4 -15   38.50    3.70
  -1  -4 -15   41.00    3.70
   1   4  15   39.70    3.20
  -2  -4 -15  178.18    8.50
  -2  -4 -15  183.88    8.10
   2   4  15  180.18    7.60
   2   4  15  178.08    7.20
  -3  -4 -15  124.59    6.60
   3   4  15  121.89    5.90
   3   4  15  110.49    6.30
  -4  -4 -15   78.19    4.90
  -4  -4 -15   79.29    4.20
   4   4  15   76.29    4.70
   4   4  15   78.99    4.90
  -5  -4 -15   92.99    5.40
  -5  -4 -15  102.59    5.60
   5   4  15   91.19    5.50
   5   4  15   94.09    5.20
  -6  -4 -15   11.10    2.20
  -6  -4 -15    9.20    2.10
   6   4  15    9.60    2.50
   6   4  15    9.90    3.60
  -7  -4 -15   13.10    3.00
   7   4  15   15.30    3.90
   7   4  15    9.20    2.90
  -8  -4 -15  203.08    8.20
  -8  -4 -15  188.68    8.90
   8   4  15  184.48    9.30
  -9  -4 -15  267.37   11.70
  -9  -4 -15  312.17   10.70
   9   4  15  272.27   12.50
 -10  -4 -15   26.70    3.20
  10   4  15   29.40    4.60
   3  -5 -15  156.48    8.80
  -3   5  15  161.28    9.40
  -3   5  15  161.08    6.90
   2  -5 -15  213.98   10.30
  -2   5  15  206.38    8.30
  -2   5  15  212.18   10.70
   1  -5 -15  225.88   10.40
  -1   5  15  226.38    8.90
  -1   5  15  229.48   11.00
   0  -5 -15   20.30    4.00
   0   5  15   13.60    3.20
   0   5  15   17.50    2.50
  -1  -5 -15   20.10    2.70
   1   5  15   20.50    2.50
   1   5  15   20.80    4.50
  -2  -5 -15  237.08   10.00
   2   5  15  246.58   10.60
   2   5  15  232.58    9.10
   2   5  15  231.78    9.10
  -3  -5 -15  475.15   16.90
  -3  -5 -15  473.65   16.40
   3   5  15  464.05   15.90
   3   5  15  434.56   15.60
  -4  -5 -15    9.50    2.20
   4   5  15    9.60    2.20
   4   5  15   10.20    2.50
  -5  -5 -15   10.70    2.30
  -5  -5 -15   14.30    2.40
   5   5  15   10.80    2.60
   5   5  15   13.20    4.00
  -6  -5 -15    0.20    1.00
   6   5  15    0.30    2.90
   6   5  15    1.20    2.00
  -7  -5 -15   34.70    3.30
  -7  -5 -15   40.50    2.90
   7   5  15   35.10    6.10
   7   5  15   33.30    7.20
  -8  -5 -15  115.39    6.60
  -8  -5 -15  142.59    6.00
   8   5  15  112.59    7.30
   8   5  15  146.69    9.30
  -9  -5 -15   12.10    2.50
   9   5  15   16.70    4.10
 -10  -5 -15   52.99    4.40
  10   5  15   62.79    5.60
   3  -6 -15  116.39    7.30
  -3   6  15  115.69    8.20
   2  -6 -15    2.60    1.70
  -2   6  15    2.60    2.90
  -2   6  15    7.20    1.80
   1  -6 -15    3.40    1.90
  -1   6  15    6.70    2.80
  -1   6  15    6.80    1.60
   0  -6 -15   10.30    2.60
   0   6  15    4.70    1.50
   0   6  15    3.40    2.60
  -1  -6 -15  127.39    7.50
   1   6  15  120.39    5.60
   1   6  15  124.49    7.40
   1   6  15  118.69    5.70
  -2  -6 -15  221.18    9.80
   2   6  15  224.28    9.10
   2   6  15  233.18    8.90
   2   6  15  227.98   10.30
  -3  -6 -15   16.00    2.70
   3   6  15   20.20    3.00
   3   6  15   11.90    2.90
   3   6  15   16.90    2.50
   4   6  15   98.69    6.00
   4   6  15  105.39    6.10
   4   6  15  103.99    7.70
   4   6  15   97.19    5.40
  -5  -6 -15  135.59    6.60
   5   6  15  124.69    7.10
   5   6  15  120.49    8.80
   5   6  15  127.29    6.60
  -6  -6 -15  359.96   13.20
   6   6  15  327.97   12.40
   6   6  15  314.17   15.20
   6   6  15  342.67   13.60
  -7  -6 -15   39.90    3.50
   7   6  15   37.60    3.30
   7   6  15   43.10    4.70
   7   6  15   44.80    6.90
  -8  -6 -15    0.70    1.10
   8   6  15    3.80    3.20
   8   6  15   -0.30    1.90
  -9  -6 -15   45.90    3.90
   9   6  15   44.80    5.20
   2  -7 -15   75.59    5.70
  -2   7  15   70.79    6.60
   1  -7 -15  150.38    8.10
  -1   7  15  124.39    8.20
   0  -7 -15  209.98    8.10
   0  -7 -15  232.48   10.50
   0   7  15  209.38   10.60
   0   7  15  212.08    8.10
  -1  -7 -15   10.30    1.80
  -1  -7 -15   15.00    3.10
   1   7  15   14.80    1.90
   1   7  15   11.40    3.30
  -2  -7 -15   18.60    2.00
  -2  -7 -15   25.60    4.70
   2   7  15   22.80    2.40
   2   7  15   21.50    5.10
  -3  -7 -15  137.29    7.30
   3   7  15  148.29    7.60
   3   7  15  140.39    6.30
   4   7  15   41.20    4.20
   4   7  15   43.40    4.20
   4   7  15   47.70    6.40
   4   7  15   40.60    3.40
  -5  -7 -15  254.87   10.50
   5   7  15  263.57   11.30
   5   7  15  258.87   10.50
   5   7  15  258.77   13.60
   5   7  15  253.17   10.10
  -6  -7 -15   37.00    3.30
   6   7  15   32.50    3.40
   6   7  15   40.40    6.70
   6   7  15   32.60    4.40
  -7  -7 -15  216.88    9.30
   7   7  15  212.58   13.10
   7   7  15  218.78   10.50
   7   7  15  191.28    8.20
  -8  -7 -15    4.70    1.70
   8   7  15    6.70    4.50
   8   7  15    3.00    2.70
  -9  -7 -15  111.89    6.40
   9   7  15  106.39    7.90
   9   7  15  137.99   10.00
   1  -8 -15  217.88   10.90
  -1   8  15  232.88   11.60
   0  -8 -15   54.59    3.60
   0  -8 -15   64.69    5.30
   0   8  15   60.09    5.80
  -1  -8 -15   86.09    5.90
  -1  -8 -15   92.09    4.60
   1   8  15   86.39    6.50
  -2  -8 -15   41.90    4.20
  -2  -8 -15   49.00    3.20
   2   8  15   50.49    3.20
   2   8  15   49.99    5.00
  -3  -8 -15   58.59    4.70
  -3  -8 -15   63.29    4.10
   3   8  15   62.09    6.90
   3   8  15   67.79    4.00
   3   8  15   60.49    6.00
  -4  -8 -15    0.30    1.30
   4   8  15    2.80    2.10
   4   8  15    1.40    1.40
   4   8  15    3.90    3.70
  -5  -8 -15   61.89    4.10
   5   8  15   62.09    7.50
   5   8  15   55.39    4.40
   5   8  15   61.69    5.40
   5   8  15   52.99    3.90
  -6  -8 -15  127.79    7.90
   6   8  15  119.99    6.10
   6   8  15  121.89   11.00
   6   8  15  127.39    7.70
  -7  -8 -15   29.50    3.10
   7   8  15   28.20    4.70
   7   8  15   27.40    6.80
  -8  -8 -15  159.78    7.80
   8   8  15  158.48    9.30
   8   8  15  160.48   12.00
   0  -9 -15  168.98    9.00
   0  -9 -15  154.28    8.10
   0   9  15  162.78    9.40
  -1  -9 -15   53.39    4.80
  -1  -9 -15   47.40    3.40
   1   9  15   53.39    5.60
  -2  -9 -15  148.29    8.00
   2   9  15  139.99    8.10
  -3  -9 -15   17.60    2.60
   3   9  15   17.30    5.70
   3   9  15   17.00    3.40
  -4  -9 -15   86.19    5.00
   4   9  15   84.29    8.80
   4   9  15   93.79    5.90
   4   9  15   84.59    4.70
  -5  -9 -15    2.80    1.80
   5   9  15    1.20    4.10
   5   9  15    1.00    1.90
   5   9  15    5.10    1.70
  -6  -9 -15    3.60    1.60
  -6  -9 -15    4.00    1.60
   6   9  15    9.10    5.00
   6   9  15    8.20    3.20
  -7  -9 -15    2.50    1.30
   7   9  15    0.60    2.60
   7   9  15   -0.40    4.90
   2  10  15   57.99    7.90
   2  10  15   56.89    5.60
  -3 -10 -15   84.09    4.90
   3  10  15   77.89    8.70
   3  10  15   83.59    6.00
  -4 -10 -15   25.20    3.10
   4  10  15   33.20    4.00
   4  10  15   25.60    6.30
  -5 -10 -15  129.59    6.90
   5  10  15  139.79   11.60
   0   7 -16    5.80    2.10
   0  -7  16    2.50    1.90
  -1   7 -16  123.19    7.50
   1  -7  16  121.89    7.00
  -2   7 -16    7.30    2.50
   2  -7  16    2.90    2.10
  -3   7 -16   49.10    4.40
   3  -7  16   38.50    4.10
  -4   7 -16  615.14   23.30
   4  -7  16  634.04   20.40
   4  -7  16  642.54   21.70
  -5   7 -16  318.47   14.20
   5  -7  16  320.77   11.80
   5  -7  16  319.37   12.70
   1   6 -16  200.38    9.80
  -1  -6  16  213.78    9.70
  -1   6 -16   43.30    4.50
   1  -6  16   41.60    4.00
  -2   6 -16  312.87   13.80
   2  -6  16  344.37   13.10
  -3   6 -16   68.79    5.80
   3  -6  16   82.79    5.50
   3  -6  16   79.99    3.90
  -4   6 -16   62.09    5.30
   4  -6  16   74.09    3.90
   4  -6  16   67.49    4.90
  -5   6 -16  135.29    8.10
   5  -6  16  132.49    7.10
   5  -6  16  140.29    6.50
  -6   6 -16    7.60    2.20
   6  -6  16   12.40    2.20
   6  -6  16    8.10    2.40
  -7   6 -16   98.19    6.60
   7  -6  16   91.99    6.10
   7  -6  16  101.89    5.60
   1   5 -16   46.30    4.20
  -1  -5  16   37.40    3.80
   0   5 -16   12.90    2.70
   0  -5  16   12.90    2.80
  -1   5 -16  398.16   16.20
  -1   5 -16  472.65   14.20
   1  -5  16  385.46   15.30
  -2   5 -16  322.77   13.70
   2  -5  16  322.97   12.70
  -3   5 -16    5.10    2.30
   3  -5  16    6.50    2.10
   3  -5  16    6.10    1.10
  -4   5 -16   18.90    3.00
   4  -5  16   22.60    3.20
   4  -5  16   23.20    2.10
  -5   5 -16  149.09    8.40
   5  -5  16  154.08    6.70
   5  -5  16  141.19    7.40
  -6   5 -16  113.29    7.10
   6  -5  16  107.39    6.40
   6  -5  16  116.49    5.90
  -7   5 -16  123.19    7.60
   7  -5  16  116.09    6.70
   7  -5  16  119.29    6.30
  -8   5 -16  212.08   10.10
   8  -5  16  211.58    9.30
   8  -5  16  190.98    9.40
   2   4 -16   91.29    5.90
  -2  -4  16   87.59    5.70
   1   4 -16  108.29    6.70
  -1  -4  16  123.19    6.70
   0   4 -16  146.99    7.90
   0   4 -16  168.08    7.00
   0  -4  16  143.99    7.50
  -1   4 -16  163.88    8.50
   1  -4  16  160.78    7.80
  -2   4 -16  526.05   15.40
  -2   4 -16  443.36   17.70
   2  -4  16  451.65   16.80
  -3   4 -16  143.29    7.80
   3  -4  16  135.19    5.40
   3  -4  16  130.99    6.90
  -4   4 -16   11.60    3.00
   4  -4  16   14.90    1.60
   4  -4  16    8.00    2.30
  -5   4 -16   21.60    3.20
   5  -4  16   26.20    2.40
   5  -4  16   27.90    3.40
  -6   4 -16   21.20    4.00
   6  -4  16   20.20    2.50
   6  -4  16   17.80    3.30
  -7   4 -16   72.39    5.60
   7  -4  16   65.99    5.10
   7  -4  16   79.99    4.70
  -8   4 -16    7.30    2.40
   8  -4  16    3.80    2.20
   8  -4  16    8.10    2.00
   3   3 -16   51.29    4.20
  -3  -3  16   31.50    3.60
   2   3 -16   50.99    4.50
  -2  -3  16   49.10    4.30
   1   3 -16  119.89    6.90
   1   3 -16  125.79    7.30
  -1  -3  16  115.19    6.50
   0   3 -16   46.00    4.10
   0  -3  16   45.30    3.90
  -1   3 -16    3.70    1.90
   1  -3  16    2.60    1.80
  -2   3 -16   10.70    2.50
   2  -3  16    5.30    2.00
  -3   3 -16   44.50    4.10
   3  -3  16   40.20    2.40
   3  -3  16   34.80    3.50
  -4   3 -16   67.49    5.30
   4  -3  16   73.89    3.80
   4  -3  16   65.89    4.60
  -5   3 -16  165.88    8.70
   5  -3  16  151.08    7.60
   5  -3  16  165.48    6.90
  -6   3 -16  367.26   14.80
   6  -3  16  352.26   13.00
   6  -3  16  357.56   13.80
  -7   3 -16   52.89    4.60
   7  -3  16   46.80    4.30
  -8   3 -16   36.00    3.80
   8  -3  16   33.20    3.20
   8  -3  16   23.30    3.30
   9  -3  16    7.20    1.90
   9  -3  16    3.60    2.00
   3   2 -16  112.39    6.50
   3   2 -16   98.19    6.10
  -3  -2  16   93.59    6.00
   2   2 -16   75.59    5.50
   2   2 -16   96.59    5.70
  -2  -2  16   82.49    5.40
   1   2 -16  195.38    8.80
   1   2 -16  184.38    9.10
  -1  -2  16  193.68    8.70
   0   2 -16  561.54   20.20
   0  -2  16  561.54   19.30
  -1   2 -16   94.29    4.60
  -1   2 -16   78.99    5.50
   1  -2  16   77.09    5.00
  -2   2 -16   39.80    3.80
  -2   2 -16   47.40    3.00
   2  -2  16   49.60    3.90
  -3   2 -16    5.50    2.10
   3  -2  16    7.40    2.10
  -4   2 -16  155.38    8.30
   4  -2  16  156.68    6.20
   4  -2  16  146.69    7.30
  -5   2 -16   80.69    5.70
   5  -2  16   81.59    5.20
   5  -2  16   83.29    4.40
  -6   2 -16    1.10    1.60
   6  -2  16    0.30    1.50
   6  -2  16    3.20    1.50
  -7   2 -16   22.60    3.10
   7  -2  16   18.40    3.00
   7  -2  16   14.40    3.00
  -8   2 -16   12.40    2.70
   8  -2  16    6.40    2.10
   8  -2  16    4.30    2.10
  -9   2 -16  164.08    8.80
  -9   2 -16  194.68    9.00
   9  -2  16  164.48    8.50
   3   1 -16   20.20    3.00
   3   1 -16   12.50    2.60
  -3  -1  16    6.30    2.20
   2   1 -16   24.50    3.30
   2   1 -16   33.70    3.50
  -2  -1  16   23.80    3.20
   1   1 -16    4.30    1.90
   1   1 -16    7.90    2.10
  -1  -1  16    7.50    2.20
   0   1 -16    9.80    2.30
   0  -1  16   12.30    2.40
  -1   1 -16   47.10    3.90
  -1   1 -16   45.80    3.40
   1  -1  16   44.70    3.70
  -2   1 -16    8.30   36.60
  -2   1 -16   40.10    2.60
  -2   1 -16   31.10    3.50
  -3   1 -16  649.34   19.70
  -3   1 -16  548.35   78.29
  -3   1 -16  635.04   24.80
  -4   1 -16  193.18    9.50
   4  -1  16  191.78    7.80
   4  -1  16  171.48    9.80
  -5   1 -16   54.59    5.10
   5  -1  16   57.49    3.70
   5  -1  16   61.79    4.40
   6  -1  16    3.50    2.00
   6  -1  16    7.60    1.90
  -7   1 -16  201.08    9.50
   7  -1  16  182.58    8.80
   7  -1  16  192.68    8.60
  -8   1 -16   66.39    5.00
  -8   1 -16   66.79    5.00
   8  -1  16   65.99    4.80
  -9   1 -16   48.70    4.10
  -9   1 -16   38.30    3.80
   9  -1  16   34.30    3.80
 -10   1 -16   97.79    7.60
  10  -1  16  110.49    6.70
   3   0 -16  521.25   19.50
  -3   0  16  516.15   19.70
  -3   0  16  530.65   18.40
   2   0 -16  174.88    8.90
   2   0 -16  171.48    8.70
  -2   0  16  184.88    8.30
   1   0 -16   19.00    2.90
   1   0 -16   21.20    3.00
  -1   0  16   23.10    3.00
   0   0 -16   34.40    3.40
   0   0 -16   35.10    3.50
   0   0  16   42.60    3.70
  -1   0 -16  131.79   41.30
  -1   0 -16  189.18    7.90
  -1   0 -16  246.48   10.30
   1   0  16  246.48   10.60
  -2   0 -16    9.30    3.70
  -2   0 -16   13.10    1.80
   2   0  16   14.70    2.40
  -3   0 -16   27.70    2.20
  -3   0 -16    8.40   21.20
  -3   0 -16   22.40    3.10
   3   0  16   18.70    2.80
   3   0  16   32.00    2.10
  -4   0 -16  441.06   13.90
  -4   0 -16  455.65   16.50
  -4   0 -16  373.86   50.29
   4   0  16  426.66   15.70
  -5   0 -16   33.70    3.60
   5   0  16   34.20    3.00
   5   0  16   29.90    3.80
  -6   0 -16  204.88    9.30
   6   0  16  196.28    9.00
   6   0  16  208.88    8.70
  -7   0 -16   58.29    4.60
  -7   0 -16   58.89    4.50
   7   0  16   53.99    4.30
   7   0  16   58.89    4.40
  -8   0 -16   75.89    7.50
  -8   0 -16   76.89    5.30
   8   0  16   82.29    5.40
  -9   0 -16    6.80    2.10
   9   0  16   10.20    2.60
 -10   0 -16   27.10    3.50
   3  -1 -16   35.30    3.50
  -3   1  16   17.80    4.10
  -3   1  16   26.30    3.30
   2  -1 -16  357.66   14.50
   2  -1 -16  383.66   15.10
  -2   1  16  342.37   15.00
  -2   1  16  394.16   13.90
   1  -1 -16    1.50    1.50
   1  -1 -16    3.70    1.80
  -1   1  16    2.20    1.60
   0  -1 -16  379.96   14.90
   0  -1 -16  392.76   14.30
   0  -1 -16  264.77   57.29
   0   1  16  386.76   15.40
  -1  -1 -16   81.09    5.30
  -1  -1 -16   21.40   22.80
   1   1  16   79.39    4.80
  -2  -1 -16   66.89    5.30
  -2  -1 -16   71.39    4.20
   2   1  16   65.29    4.40
  -3  -1 -16    2.90    1.80
  -3  -1 -16    4.00    1.20
   3   1  16    2.40    1.60
   3   1  16    4.30    1.10
  -4  -1 -16   40.10    2.60
  -4  -1 -16   30.30    3.30
   4   1  16   41.00    2.90
   4   1  16   35.10    3.40
  -5  -1 -16   24.20    3.00
   5   1  16   27.60    2.90
   5   1  16   26.60    4.40
  -6  -1 -16   25.00    3.00
   6   1  16   24.50    3.10
   6   1  16   22.90    2.90
  -7  -1 -16  391.46   15.40
  -7  -1 -16  411.16   15.20
   7   1  16  402.26   14.80
  -8  -1 -16   80.89    5.50
  -8  -1 -16   92.99    5.60
   8   1  16   82.59    5.60
  -9  -1 -16  112.39    6.70
   9   1  16  118.99    7.00
 -10  -1 -16   65.29    5.10
  10   1  16   76.59    5.80
   3  -2 -16   89.59    5.70
  -3   2  16   82.99    5.20
  -3   2  16   80.39    6.60
   2  -2 -16   66.19    5.10
  -2   2  16   60.59    4.30
  -2   2  16   51.39    5.30
   1  -2 -16   42.80    3.90
   1  -2 -16   44.50    4.10
  -1   2  16   43.20    4.90
   0  -2 -16   65.49    4.60
   0  -2 -16   65.89    4.90
   0   2  16   64.89    4.30
  -1  -2 -16  606.34   21.40
  -1  -2 -16  604.74   20.50
   1   2  16  615.94   20.10
  -2  -2 -16   87.59    6.10
   2   2  16   93.29    5.20
  -3  -2 -16  184.18    8.70
  -3  -2 -16  180.68    7.60
   3   2  16  176.98    7.00
   3   2  16  181.18    8.00
  -4  -2 -16    5.10    1.80
  -4  -2 -16    9.00    1.50
   4   2  16    9.70    1.90
   4   2  16    5.20    2.00
  -5  -2 -16   47.50    3.90
   5   2  16   39.40    3.70
   5   2  16   43.20    3.60
   5   2  16   41.30    4.30
  -6  -2 -16    5.40    1.90
  -6  -2 -16    4.00    1.70
   6   2  16    4.00    1.90
   6   2  16    4.60    1.80
  -7  -2 -16   21.40    2.80
  -7  -2 -16   24.20    3.00
   7   2  16   25.40    3.50
  -8  -2 -16   77.69    4.70
  -8  -2 -16   54.69    4.50
   8   2  16   63.19    5.10
  -9  -2 -16   16.60    2.50
   9   2  16   25.80    3.70
 -10  -2 -16   98.99    6.30
  10   2  16  104.19    6.80
   3  -3 -16   37.30    3.90
  -3   3  16   28.40    4.90
  -3   3  16   27.10    3.00
   2  -3 -16    9.60    2.60
  -2   3  16    5.90    2.00
  -2   3  16    6.50    3.10
   1  -3 -16    7.20    2.10
  -1   3  16    8.20    2.10
  -1   3  16    7.00    3.10
   0  -3 -16   39.70    3.70
   0  -3 -16   37.40    3.70
   0   3  16   39.70    3.40
  -1  -3 -16   15.80    3.00
  -1  -3 -16   16.30    2.90
   1   3  16   14.30    2.60
  -2  -3 -16  248.88   13.30
  -2  -3 -16  221.98   10.20
   2   3  16  229.08    9.30
  -3  -3 -16    6.60    2.10
   3   3  16    7.50    2.10
   3   3  16    5.50    1.50
  -4  -3 -16  412.26   15.10
  -4  -3 -16  399.46   13.90
   4   3  16  399.16   14.50
   4   3  16  397.76   14.00
  -5  -3 -16   63.49    4.50
   5   3  16   57.99    4.30
   5   3  16   63.59    4.40
   5   3  16   60.39    5.40
  -6  -3 -16   30.30    3.20
  -6  -3 -16   23.90    2.90
   6   3  16   26.70    4.40
   6   3  16   29.10    3.60
  -7  -3 -16   47.60    4.10
  -7  -3 -16   52.59    4.10
   7   3  16   49.20    4.40
  -8  -3 -16    1.70    1.40
   8   3  16    0.70    1.90
  -9  -3 -16    1.30    1.30
   9   3  16    3.30    2.30
  10   3  16    9.60    2.90
   3  -4 -16   24.90    3.10
  -3   4  16   10.20    4.40
  -3   4  16   17.70    2.50
   2  -4 -16  168.38    8.80
  -2   4  16  163.68    9.40
   1  -4 -16   66.39    4.90
  -1   4  16   68.69    4.40
  -1   4  16   71.59    6.00
   0  -4 -16    5.10    2.10
   0   4  16    7.60    2.00
   0   4  16    5.50    2.60
  -1  -4 -16    8.60    2.30
   1   4  16    5.80    1.80
   1   4  16    5.30    2.50
  -2  -4 -16    0.90    2.20
  -2  -4 -16    0.60    1.30
   2   4  16    1.60    1.30
   2   4  16    1.50    1.10
  -3  -4 -16   31.90    3.30
   3   4  16   23.60    2.90
   3   4  16   27.20    2.80
  -4  -4 -16    1.80    1.50
  -4  -4 -16    0.70    1.10
   4   4  16    2.60    1.70
   4   4  16    2.10    1.50
  -5  -4 -16   42.30    3.70
   5   4  16   40.20    5.10
   5   4  16   39.70    3.70
   5   4  16   34.10    3.70
  -6  -4 -16   33.10    3.30
  -6  -4 -16   39.20    3.40
   6   4  16   32.70    6.00
   6   4  16   29.50    3.80
  -7  -4 -16    7.30    2.00
   7   4  16   10.00    4.10
   7   4  16    9.30    3.00
  -8  -4 -16  105.59    6.30
   8   4  16  105.39    6.70
  -9  -4 -16   -0.70    1.10
   9   4  16    0.00    1.90
   2  -5 -16    6.20    2.10
  -2   5  16    2.90    2.90
  -2   5  16    6.40    1.50
   1  -5 -16  100.19    6.50
  -1   5  16   96.89    7.10
  -1   5  16  101.99    5.20
   0  -5 -16   64.59    4.90
   0   5  16   60.79    4.00
   0   5  16   57.49    5.50
   1   5  16   55.69    3.80
   1   5  16   52.39    5.10
  -2  -5 -16  155.38    7.30
   2   5  16  120.49    7.20
   2   5  16  138.19    7.80
   2   5  16  137.09    6.40
  -3  -5 -16    1.30    1.20
  -3  -5 -16    1.80    1.40
   3   5  16    2.70    1.80
   3   5  16    2.30    1.60
  -4  -5 -16   38.00    3.60
   4   5  16   41.40    3.60
   4   5  16   37.40    3.60
  -5  -5 -16   44.30    3.80
   5   5  16   38.70    5.40
   5   5  16   31.80    3.80
   5   5  16   36.20    3.50
  -6  -5 -16   32.00    3.20
   6   5  16   26.60    3.70
   6   5  16   27.10    5.20
  -7  -5 -16   12.00    2.50
   7   5  16   10.50    2.90
   7   5  16   11.00    4.20
  -9  -5 -16   25.90    3.10
   9   5  16   35.70    5.00
   1  -6 -16    4.30    2.20
  -1   6  16    6.60    1.60
  -1   6  16    1.50    2.60
   0  -6 -16   28.50    3.50
   0   6  16   36.70    3.00
   0   6  16   30.10    4.60
  -1  -6 -16   42.50    4.20
   1   6  16   42.00    3.20
   1   6  16   40.10    4.80
  -2  -6 -16   13.40    3.90
   2   6  16   11.20    2.30
   2   6  16   14.50    2.40
   2   6  16   16.10    3.70
  -3  -6 -16   67.69    4.80
   3   6  16   66.89    4.40
   3   6  16   75.59    4.80
   3   6  16   72.39    6.40
   4   6  16    5.60    3.60
   4   6  16   10.40    2.30
   4   6  16    6.60    2.60
   4   6  16    9.70    2.70
   5   6  16  134.79    7.40
   5   6  16  134.79    7.10
   5   6  16  136.79    9.30
   5   6  16  138.29    6.90
  -6  -6 -16   46.30    3.80
   6   6  16   36.40    6.10
   6   6  16   41.40    3.90
   6   6  16   49.80    4.80
  -7  -6 -16   34.30    3.30
   7   6  16   30.70    3.30
   7   6  16   31.70    6.20
   7   6  16   33.20    4.70
  -8  -6 -16   16.30    3.00
   8   6  16   17.60    3.70
   8   6  16   21.50    6.00
  -9  -6 -16    1.10    1.50
   9   6  16    2.10    2.60
   1  -7 -16  127.49    7.30
  -1   7  16  107.89    7.80
   0  -7 -16    5.60    2.10
   0   7  16    5.40    3.10
  -1  -7 -16   41.10    4.10
   1   7  16   39.80    4.90
   1   7  16   45.10    3.10
  -2  -7 -16   22.60    3.20
   2   7  16   23.90    2.40
   2   7  16   27.70    3.30
   2   7  16   28.40    4.20
  -3  -7 -16   30.80    3.20
   3   7  16   33.10    4.30
   3   7  16   30.80    2.90
   3   7  16   26.60    3.50
   4   7  16  188.48   12.70
   4   7  16  176.78    7.80
   4   7  16  166.58   15.90
   4   7  16  176.48    8.60
   5   7  16   33.50    4.70
   5   7  16   28.10    3.30
   5   7  16   32.60    6.30
   5   7  16   31.50    3.70
  -6  -7 -16  116.69    6.40
   6   7  16  126.99    7.40
   6   7  16  115.39    9.50
   6   7  16  106.69    6.10
  -7  -7 -16   16.70    3.00
   7   7  16   17.70    3.70
   7   7  16   25.00    5.80
   7   7  16   16.90    2.80
  -8  -7 -16  267.27   11.20
   8   7  16  262.67   12.40
   8   7  16  248.38   14.40
   0  -8 -16  180.68    9.20
   0   8  16  169.48    9.70
  -1  -8 -16   39.40    3.90
  -1  -8 -16   29.80    4.70
   1   8  16   30.60    4.90
  -2  -8 -16  139.89    6.30
  -2  -8 -16  158.58    8.20
   2   8  16  149.79    8.40
   2   8  16  145.59    8.40
  -3  -8 -16   23.80    3.30
   3   8  16   30.30    2.80
   3   8  16   27.20    4.20
   3   8  16   23.70    5.60
   4   8  16   -1.50    3.40
   4   8  16    1.50    2.10
   4   8  16   -1.80    2.00
   4   8  16    1.00    1.30
   5   8  16   39.90    6.90
   5   8  16   46.40    4.30
   5   8  16   45.20    4.90
   5   8  16   51.09    5.80
   6   8  16    2.80    1.80
   6   8  16    1.20    4.20
   6   8  16    3.50    2.80
  -7  -8 -16  127.99    6.80
   7   8  16  137.29   11.10
   7   8  16  124.79    8.00
  -2  -9 -16   23.70    3.20
  -2  -9 -16   22.10    3.00
   2   9  16   18.80    4.00
   3   9  16   59.89    7.70
   3   9  16   54.29    5.30
  -4  -9 -16    0.80    1.40
   4   9  16    4.70    4.30
   4   9  16    1.60    2.20
   4   9  16    0.80    1.80
   5   9  16  220.08   13.60
   5   9  16  210.38   10.10
   5   9  16  243.78   11.10
  -1   6 -17  126.69    7.30
   1  -6  17  116.69    7.10
  -2   6 -17  160.68    8.80
   2  -6  17  160.98    8.10
  -3   6 -17    4.40    2.10
   3  -6  17    3.60    2.00
  -4   6 -17   30.90    4.20
   4  -6  17   25.50    3.60
  -5   6 -17   90.99    6.30
   5  -6  17   81.29    5.70
   5  -6  17   91.89    4.70
  -1   5 -17   51.49    4.60
   1  -5  17   44.00    4.20
  -2   5 -17  153.38    8.60
   2  -5  17  156.48    7.90
  -3   5 -17  312.47   13.50
   3  -5  17  297.87   12.20
  -4   5 -17    4.70    2.20
   4  -5  17    0.10    1.60
   4  -5  17    1.90    1.00
  -5   5 -17   21.00    3.30
   5  -5  17   16.20    3.00
   5  -5  17   24.30    2.20
  -6   5 -17    6.20    2.10
   6  -5  17    7.20    1.60
   6  -5  17    7.80    2.50
   1   4 -17    9.50    2.70
  -1  -4  17    5.90    2.00
   0   4 -17    3.90    1.80
   0  -4  17    0.70    1.70
  -1   4 -17   92.59    6.10
   1  -4  17   92.89    5.90
  -2   4 -17  120.39    7.50
   2  -4  17  134.39    7.00
  -3   4 -17   58.69    4.90
   3  -4  17   64.79    4.80
  -4   4 -17   73.09    5.60
   4  -4  17   74.59    3.70
   4  -4  17   67.89    5.00
  -5   4 -17   66.49    5.50
   5  -4  17   74.39    4.00
   5  -4  17   68.09    5.00
  -6   4 -17  137.59    8.10
   6  -4  17  134.79    7.30
   6  -4  17  138.89    7.50
   7  -4  17    7.90    1.90
   7  -4  17    6.60    2.50
   1   3 -17   64.09    4.90
  -1  -3  17   62.79    4.80
   0   3 -17  101.79    6.40
   0  -3  17   99.19    6.00
  -1   3 -17   40.40    4.20
   1  -3  17   42.30    4.00
  -2   3 -17   45.10    4.20
   2  -3  17   47.10    4.10
  -3   3 -17   39.30    3.90
   3  -3  17   33.60    3.60
  -4   3 -17   60.19    5.10
   4  -3  17   51.59    4.30
   4  -3  17   62.79    3.20
  -5   3 -17   23.50    4.00
   5  -3  17   22.40    3.10
   5  -3  17   29.80    2.50
  -6   3 -17   17.10    3.50
   6  -3  17   12.60    2.80
   6  -3  17   18.60    2.30
  -7   3 -17  101.29    6.70
   7  -3  17   95.69    6.10
   7  -3  17  101.79    5.50
   8  -3  17   20.30    2.90
   2   2 -17   39.50    3.80
  -2  -2  17   23.80    3.60
   1   2 -17   56.89    4.70
  -1  -2  17   52.09    4.40
   0   2 -17    8.30    2.20
   0  -2  17    6.80    2.20
  -1   2 -17  102.49    6.50
   1  -2  17  111.19    6.20
  -2   2 -17   15.20    2.90
   2  -2  17   13.40    2.70
  -3   2 -17   15.30    3.10
   3  -2  17   20.20    3.00
  -4   2 -17   16.30    3.20
   4  -2  17   10.90    2.50
   4  -2  17   18.40    1.60
  -5   2 -17   21.20    3.80
   5  -2  17   17.80    3.00
   5  -2  17   26.70    2.30
  -6   2 -17    2.20    1.80
   6  -2  17    0.00    1.50
   6  -2  17    4.70    1.00
  -7   2 -17    5.60    1.70
   7  -2  17    2.20    1.70
   7  -2  17    3.20    1.40
  -8   2 -17  105.49    6.10
   8  -2  17   83.29    5.40
   8  -2  17   74.69    5.50
   2   1 -17   35.00    3.70
  -2  -1  17   31.20    3.70
   1   1 -17   80.29    4.70
   1   1 -17   54.69    4.70
  -1  -1  17   68.29    4.80
   0   1 -17   39.80    4.00
   0  -1  17   37.50    3.70
  -1   1 -17    5.50    1.80
  -2   1 -17  125.79    7.20
  -2   1 -17  152.48    6.00
   2  -1  17  120.79    6.60
  -3   1 -17   11.70    2.60
   3  -1  17    9.20    2.40
  -4   1 -17   94.69    6.10
   4  -1  17  102.49    4.60
   4  -1  17  100.99    5.90
  -5   1 -17   79.79    5.60
   5  -1  17   72.19    5.10
   5  -1  17   83.29    4.30
  -6   1 -17   21.00    3.10
   6  -1  17   27.80    2.60
   6  -1  17   17.80    3.00
  -7   1 -17   49.10    4.20
   7  -1  17   47.50    3.90
   7  -1  17   39.40    4.00
   8  -1  17    1.10    1.80
   8  -1  17    3.60    1.60
  -9   1 -17    1.00    1.50
   9  -1  17    2.20    1.80
   2   0 -17  149.09    7.50
   2   0 -17  127.49    7.70
  -2   0  17  132.09    7.10
   1   0 -17  123.49    6.50
   1   0 -17  105.59    6.80
  -1   0  17  120.99    6.40
   0   0 -17    2.70    1.70
   0   0  17    2.90    1.70
  -1   0 -17    6.50    1.80
   1   0  17    4.20    1.80
  -2   0 -17    4.30    1.80
   2   0  17    4.70    1.80
  -3   0 -17   21.20    3.10
   3   0  17   12.80    2.60
  -4   0 -17    7.20    2.10
   4   0  17    5.00    1.30
   4   0  17    3.60    1.90
  -5   0 -17  104.89    6.30
   5   0  17   92.09    5.80
   5   0  17  102.39    5.00
  -6   0 -17  216.38    9.90
   6   0  17  200.28    9.30
   6   0  17  218.28    8.90
  -7   0 -17   31.00    3.50
   7   0  17   24.60    3.40
  -8   0 -17   94.59    5.70
  -8   0 -17   78.79    5.60
   8   0  17   87.89    5.60
   8   0  17   70.29    5.20
  -9   0 -17   30.00    3.60
   9   0  17   37.60    4.00
  -2   1  17   25.80    3.30
  -2   1  17   24.90    4.40
   1  -1 -17  283.17   11.90
   1  -1 -17  282.57   12.40
  -1   1  17  289.87   11.40
   0  -1 -17  196.78    8.90
   0  -1 -17  176.88    9.10
   0   1  17  192.38    8.50
  -1  -1 -17   85.99    5.70
   1   1  17   80.79    5.00
  -2  -1 -17   70.89    5.20
  -2  -1 -17   79.79    4.30
   2   1  17   65.89    4.60
  -3  -1 -17   62.99    4.70
  -3  -1 -17   69.99    3.80
   3   1  17   54.29    4.20
  -4  -1 -17   38.40    3.80
   4   1  17   40.60    3.80
   4   1  17   46.60    3.10
  -5  -1 -17   26.10    3.10
   5   1  17   30.60    3.40
   5   1  17   33.10    2.90
  -6  -1 -17   67.29    4.80
   6   1  17   63.49    4.40
   6   1  17   51.39    4.40
  -7  -1 -17  139.19    7.20
   7   1  17  127.19    7.00
  -8  -1 -17  104.39    6.70
  -8  -1 -17  142.89    6.80
   8   1  17  116.49    6.80
  -9  -1 -17  133.89    7.60
   9   1  17  134.69    7.60
   2  -2 -17   35.10    3.40
  -2   2  17   30.80    3.40
  -2   2  17   20.60    4.30
  -1   2  17   63.69    4.50
  -1   2  17   59.69    5.60
   0  -2 -17  136.59    8.60
   0  -2 -17  166.78    8.30
   0   2  17  142.19    7.10
  -1  -2 -17   81.79    5.00
  -1  -2 -17   74.39    5.40
   1   2  17   67.29    4.70
  -2  -2 -17  233.88    9.40
  -2  -2 -17  286.27   11.70
   2   2  17  287.77   10.80
  -3  -2 -17  213.58   10.00
  -3  -2 -17  232.88    8.80
   3   2  17  225.88    9.40
   3   2  17  222.98    8.10
  -4  -2 -17    5.70    1.80
   4   2  17    5.00    2.10
   4   2  17    7.00    1.70
  -5  -2 -17    6.70    2.10
   5   2  17    6.60    2.10
   5   2  17    8.80    2.00
   5   2  17    7.10    3.60
  -6  -2 -17   52.29    5.50
   6   2  17   58.49    4.30
   6   2  17   56.09    4.40
  -7  -2 -17   17.10    3.20
  -7  -2 -17   25.20    3.70
   7   2  17   19.00    3.20
   7   2  17   18.60    3.40
  -8  -2 -17    3.70    1.80
   8   2  17    7.40    2.40
  -9  -2 -17  187.08    7.10
  -9  -2 -17  170.08    9.00
   9   2  17  181.28    9.10
   1  -3 -17    6.20    2.00
  -1   3  17    4.60    1.90
  -1   3  17    4.30    2.90
   0  -3 -17   84.39    5.40
   0   3  17   75.39    6.20
   0   3  17   86.39    5.10
  -1  -3 -17   17.40    3.30
  -1  -3 -17   19.40    2.90
   1   3  17   19.50    2.70
  -2  -3 -17    3.30    1.60
   2   3  17    5.70    2.30
  -3  -3 -17  225.38    8.90
  -3  -3 -17  232.48   10.20
   3   3  17  212.58   10.00
   3   3  17  211.38    8.20
  -4  -3 -17  315.07   12.70
  -4  -3 -17  305.87   11.30
   4   3  17  305.07   12.00
   4   3  17  312.27   11.30
  -5  -3 -17   59.49    6.60
   5   3  17   57.59    4.40
   5   3  17   57.89    4.10
   5   3  17   59.39    5.50
  -6  -3 -17  149.88    9.30
   6   3  17  157.88    7.60
   6   3  17  157.98    7.80
  -7  -3 -17    8.80    2.40
   7   3  17    7.80    2.60
  -8  -3 -17    9.90    2.50
   8   3  17   10.60    2.80
  -9  -3 -17   31.20    3.60
   1  -4 -17  113.39    6.40
  -1   4  17   83.99    7.00
  -1   4  17   93.89    5.30
   0  -4 -17  135.09    7.10
   0   4  17  127.99    6.30
   0   4  17  124.69    8.00
  -1  -4 -17    3.20    1.60
   1   4  17    1.70    2.10
  -2  -4 -17   74.19    5.40
  -2  -4 -17   68.09    4.60
  -3  -4 -17   88.39    5.80
   3   4  17   89.79    4.60
  -4  -4 -17   11.50    2.60
   4   4  17    7.80    2.30
  -5  -4 -17   -0.30    2.10
   5   4  17    2.80    1.70
   5   4  17    1.50    1.60
   5   4  17    5.30    3.30
  -6  -4 -17  583.34   20.10
   6   4  17  558.34   19.00
   6   4  17  532.65   18.90
   6   4  17  486.05   19.90
  -7  -4 -17  372.56   14.50
   7   4  17  348.87   14.00
  -8  -4 -17   51.79    4.50
   8   4  17   54.09    4.80
  -9  -4 -17    0.00    1.30
   9   4  17    2.60    2.30
   0  -5 -17  436.86   16.70
   0   5  17  430.56   17.40
  -1  -5 -17  242.88   10.50
   1   5  17  234.18    9.80
   1   5  17  233.08   11.30
  -2  -5 -17   28.80    3.70
   2   5  17   26.10    4.10
   2   5  17   23.10    2.90
  -3  -5 -17    1.20    1.30
   3   5  17   -1.00    1.80
   3   5  17    3.40    1.40
  -4  -5 -17    7.10    2.10
   4   5  17    5.60    2.10
   4   5  17   12.80    2.50
  -5  -5 -17    0.80    1.70
   5   5  17    4.30    1.80
   5   5  17    7.50    2.20
   5   5  17    2.20    3.30
  -6  -5 -17    8.10    2.00
   6   5  17    4.20    2.00
   6   5  17    5.10    3.50
   6   5  17    8.00    2.40
  -7  -5 -17   22.40    3.00
   7   5  17   26.70    4.00
   0   6  17   37.10    3.10
   0   6  17   34.30    5.10
  -1  -6 -17   23.80    3.10
   1   6  17   19.80    2.50
   1   6  17   23.60    4.50
  -2  -6 -17   -0.80    1.30
   2   6  17   -0.10    2.30
   2   6  17    2.20    1.50
  -3  -6 -17  138.99    7.10
   3   6  17  133.99    7.80
   3   6  17  134.89    6.60
   3   6  17  120.69    7.10
   4   6  17  426.06   19.50
   4   6  17  424.16   16.20
   4   6  17  431.56   15.50
   4   6  17  426.56   15.40
   5   6  17  166.28   10.50
   5   6  17  161.58   10.80
   5   6  17  150.98    7.50
   5   6  17  150.88    8.00
   6   6  17   59.49    4.60
   6   6  17   63.19    7.00
   6   6  17   84.39    7.80
   6   6  17   69.59    5.50
  -7  -6 -17   38.70    3.70
   7   6  17   40.00    6.70
   7   6  17   33.40    4.40
   7   6  17   36.80    3.60
  -8  -6 -17   18.90    2.80
   8   6  17   26.40    4.40
  -1  -7 -17   68.59    4.90
   1   7  17   55.59    5.80
   1   7  17   54.59    5.20
   2   7  17   12.30    3.40
   2   7  17   12.00    2.10
  -3  -7 -17    8.30    2.00
   3   7  17    5.40    2.10
   3   7  17    4.30    2.60
   3   7  17    4.20    1.70
   4   7  17   17.50    2.80
   4   7  17   18.40    3.70
   4   7  17   13.90    4.90
   4   7  17   18.50    4.90
   5   7  17   96.69    5.70
   5   7  17  103.99    6.40
   5   7  17   87.29    8.50
   5   7  17   97.69    6.20
   6   7  17   53.09    4.40
   6   7  17   52.79    5.10
   6   7  17   48.30    7.20
   6   7  17   55.69    5.50
  -7  -7 -17   52.19    4.30
   7   7  17   51.49    5.30
   7   7  17   66.39    7.80
   3   8  17   60.29    4.70
   3   8  17   62.99    7.10
   3   8  17   57.79    5.50
   3   8  17   52.19    4.00
   4   8  17   73.29    5.60
   4   8  17   73.19    5.60
   4   8  17   77.79    8.30
   4   8  17   71.79    4.60
   5   8  17   80.99    8.40
   5   8  17   83.99    5.20
   5   8  17   86.59    5.80
   5   8  17   91.09    6.30
  -3   5 -18    9.00    3.40
   3  -5  18    1.30    2.20
  -4   5 -18  158.58   11.30
   4  -5  18  123.19    8.10
  -1   4 -18  154.98    8.50
   1  -4  18  145.19    8.20
  -2   4 -18   12.90    2.90
   2  -4  18   14.90    3.00
  -3   4 -18  234.28   11.10
   3  -4  18  231.38   10.30
  -4   4 -18   29.00    3.90
   4  -4  18   29.40    3.80
  -5   4 -18  303.47   13.10
   5  -4  18  269.67   11.70
   5  -4  18  288.87   10.50
  -6   4 -18   31.20    3.70
   6  -4  18   21.60    2.20
  -1   3 -18   49.20    4.40
   1  -3  18   37.40    4.00
  -2   3 -18    2.80    1.40
   2  -3  18    1.30    1.70
  -3   3 -18   60.39    5.00
   3  -3  18   59.99    4.70
  -4   3 -18  147.09    8.10
   4  -3  18  128.99    7.20
  -5   3 -18   11.40    2.90
   5  -3  18   10.60    2.60
  -6   3 -18   59.09    5.00
   6  -3  18   51.89    3.60
   6  -3  18   42.10    4.40
   7  -3  18   11.40    3.00
   7  -3  18   19.40    2.40
   0   2 -18  113.59    6.80
   0  -2  18  120.09    6.80
  -1   2 -18   19.90    3.80
   1  -2  18   13.10    2.80
  -2   2 -18  298.97   12.80
   2  -2  18  292.97   11.90
  -3   2 -18   91.99    6.10
   3  -2  18   87.09    5.50
  -4   2 -18    2.20    1.60
   4  -2  18    1.50    1.70
  -5   2 -18   46.10    4.60
   5  -2  18   33.30    3.80
   5  -2  18   50.19    2.90
  -6   2 -18    4.40    1.90
   6  -2  18    6.60    1.60
   6  -2  18    0.90    1.70
  -7   2 -18  109.79    6.40
   7  -2  18   85.49    5.90
   7  -2  18   96.29    5.30
   0   1 -18   62.19    5.00
   0  -1  18   57.99    4.70
  -1   1 -18  199.98    9.90
   1  -1  18  209.18    9.20
  -2   1 -18    3.50    2.00
   2  -1  18    1.30    1.90
  -3   1 -18    3.50    1.80
   3  -1  18    5.30    2.00
  -4   1 -18    7.60    2.20
   4  -1  18    6.90    2.10
  -5   1 -18  100.69    6.40
   5  -1  18   93.99    6.00
   5  -1  18  109.99    4.90
  -6   1 -18  160.28    8.40
   6  -1  18  157.88    7.00
   6  -1  18  149.19    7.90
  -7   1 -18  182.28    8.40
   7  -1  18  150.68    7.20
   7  -1  18  136.69    7.70
   8  -1  18   97.29    5.60
   8  -1  18   67.69    5.90
   1   0 -18   92.49    7.30
  -1   0  18   93.69    5.80
   0   0 -18  159.48    8.40
   0   0  18  152.08    7.60
  -1   0 -18  208.68    8.10
  -1   0 -18  179.98    9.20
   1   0  18  170.18    8.30
  -2   0 -18   80.19    5.70
   2   0  18   79.79    5.20
  -3   0 -18   41.80    4.00
   3   0  18   40.80    3.80
  -4   0 -18   14.20    3.10
   4   0  18   20.20    2.30
   4   0  18   13.50    2.90
  -5   0 -18   47.90    4.30
   5   0  18   55.89    3.30
   5   0  18   44.90    4.20
  -6   0 -18   19.30    3.00
   6   0  18   14.30    3.00
  -7   0 -18  110.99    6.30
   7   0  18   93.89    5.40
   7   0  18   83.99    5.90
   8   0  18    0.60    1.90
   8   0  18    8.70    2.20
   1  -1 -18  222.38    9.20
   1  -1 -18  193.18   11.60
  -1   1  18  190.98    9.00
  -1  -1 -18    8.90    2.20
   1   1  18    9.10    2.40
  -2  -1 -18   33.00    3.60
   2   1  18   29.00    3.30
  -3  -1 -18  187.08    9.50
  -3  -1 -18  234.48    8.20
   3   1  18  186.78    8.90
  -4  -1 -18  179.28    8.90
   4   1  18  179.78    8.40
   4   1  18  181.58    7.10
  -5  -1 -18  264.77   11.40
   5   1  18  257.37    9.80
   5   1  18  257.57   10.90
  -6  -1 -18  209.58    9.30
   6   1  18  169.48    8.70
   6   1  18  185.08    8.10
  -7  -1 -18   70.19    4.80
   7   1  18   64.09    4.50
   7   1  18   54.39    4.80
   8   1  18    8.90    2.30
   8   1  18    1.70    1.90
   0  -2 -18  332.87   12.70
   0  -2 -18  306.37   13.60
   0   2  18  323.97   12.40
  -1  -2 -18   17.90    3.50
   1   2  18   16.60    2.90
  -2  -2 -18   97.69    4.40
  -3  -2 -18   33.70    3.90
   3   2  18   37.70    3.60
  -4  -2 -18  361.26   12.00
  -4  -2 -18  339.77   13.70
   4   2  18  326.97   13.10
   4   2  18  341.67   11.90
  -5  -2 -18   27.50    3.20
   5   2  18   30.00    2.80
   5   2  18   23.80    3.40
  -6  -2 -18    9.10    2.10
   6   2  18    8.30    2.30
   6   2  18    3.50    2.20
  -7  -2 -18   10.90    2.60
   7   2  18    5.90    2.20
   7   2  18    7.80    2.30
  -8  -2 -18    2.50    1.90
   8   2  18    5.20    2.20
   8   2  18    4.00    1.90
   0   3  18   27.70    4.40
   0   3  18   32.20    3.40
  -1  -3 -18   13.80    3.10
   1   3  18   11.70    2.40
  -2  -3 -18  196.48    9.60
   2   3  18  191.58    8.50
  -3  -3 -18  610.74   21.80
  -3  -3 -18  626.84   20.30
   3   3  18  598.34   20.60
  -4  -3 -18   56.79    4.60
  -4  -3 -18   67.79    3.70
   4   3  18   49.99    3.50
   4   3  18   49.60    4.30
  -5  -3 -18   28.90    3.10
   5   3  18   21.20    3.50
   5   3  18   30.80    3.00
  -6  -3 -18  136.39    7.00
   6   3  18  122.59    7.50
   6   3  18  118.79    6.90
  -7  -3 -18  491.25   17.10
   7   3  18  441.56   17.00
   7   3  18  459.05   16.80
  -8  -3 -18  126.89    7.50
   8   3  18  140.89    7.60
   0  -4 -18  223.78    9.70
   0   4  18  203.98    8.80
   0   4  18  193.48   10.50
  -1  -4 -18  232.08    9.60
   1   4  18  213.58    9.00
   1   4  18  187.38   10.30
  -2  -4 -18   30.90    3.50
   2   4  18   25.30    3.20
  -3  -4 -18   60.39    4.80
   3   4  18   56.69    4.30
  -4  -4 -18  316.77   12.70
  -4  -4 -18  306.37   11.40
   4   4  18  297.07   11.90
   4   4  18  287.67   11.00
   5   4  18    8.50    2.40
   5   4  18    9.30    3.60
   5   4  18   11.60    2.30
  -6  -4 -18  237.38   10.00
   6   4  18  206.18    9.40
   6   4  18  209.38    9.80
   7   4  18   13.40    3.10
   7   4  18   17.90    3.20
   1   5  18   24.70    2.90
   1   5  18   25.60    4.70
   2   5  18    6.20    2.10
   2   5  18    7.40    3.00
   3   5  18   93.09    6.60
   3   5  18   94.89    5.50
  -4  -5 -18  209.78    9.50
   4   5  18  196.98    8.80
   4   5  18  183.98    8.20
   4   5  18  203.28   10.80
  -5  -5 -18  112.69    6.30
   5   5  18  100.79    7.90
   5   5  18   85.69    5.60
   5   5  18   94.29    5.90
  -6  -5 -18  258.47   10.20
   6   5  18  219.08    9.90
   6   5  18  212.08   10.00
   7   5  18  453.95   16.80
   7   5  18  452.75   17.00
   2   6  18   42.20    3.50
   2   6  18   46.50    5.20
   3   6  18   25.50    4.30
   3   6  18   25.30    3.00
   4   6  18    7.30    2.10
   4   6  18    9.00    4.10
   4   6  18    7.80    2.90
   4   6  18    9.50    2.30
   5   6  18   72.99    5.00
   5   6  18   63.59    5.30
   5   6  18   69.79    5.00
   5   6  18   65.89    7.30
   6   6  18    3.90    4.40
   6   6  18    3.10    2.00
   6   6  18   11.90    2.80
   6   6  18    3.70    2.10
  -2   2 -19  223.18   13.30
   2  -2  19  186.28   10.10
  -3   2 -19   11.80    2.80
   3  -2  19   11.50    2.70
  -4   2 -19  105.39    6.60
   4  -2  19   93.49    6.00
  -5   2 -19  220.48   10.30
   5  -2  19  188.78    9.80
  -2   1 -19  505.35   19.40
   2  -1  19  528.05   18.40
  -3   1 -19  285.97   12.40
   3  -1  19  268.07   11.30
  -4   1 -19   11.50    2.60
   4  -1  19    5.20    2.40
  -5   1 -19    7.10    2.10
   5  -1  19    3.30    2.10
  -6   1 -19   19.40    2.90
   6  -1  19   24.10    2.40
  -1   0 -19  131.99    9.30
   1   0  19  119.69    6.70
  -2   0 -19   81.59    5.70
   2   0  19   79.49    5.40
  -3   0 -19    7.20    2.00
   3   0  19    3.70    2.10
  -4   0 -19   59.59    4.80
   4   0  19   56.79    4.50
  -5   0 -19  390.56   15.20
   5   0  19  363.46   14.50
  -6   0 -19  398.16   15.10
   6   0  19  357.26   14.60
  -1  -1 -19  135.69    9.10
   1   1  19  132.79    7.10
  -2  -1 -19   46.30    4.30
   2   1  19   39.60    4.00
  -3  -1 -19   52.69    4.40
   3   1  19   47.90    4.30
  -4  -1 -19    7.30    2.40
   4   1  19    6.90    2.40
   5   1  19   -1.20    1.60
   6   1  19   32.80    3.90
  -2  -2 -19   87.39    6.10
   2   2  19   75.39    5.20
  -3  -2 -19  334.77   14.20
  -3  -2 -19  391.16   12.30
   3   2  19  307.57   13.00
  -4  -2 -19  312.17   13.00
   4   2  19  309.97   12.50
  -5  -2 -19   87.29    5.30
   5   2  19   76.29    5.00
   5   2  19   70.19    5.30
  -6  -2 -19   99.69    5.60
   6   2  19   86.79    5.00
   6   2  19   68.49    5.50
  -2  -3 -19    4.20    1.80
   2   3  19    5.50    2.00
  -3  -3 -19   37.30    3.90
   3   3  19   38.30    3.90
  -4  -3 -19  304.87   12.10
  -4  -3 -19  278.97   12.00
   4   3  19  262.17   11.40
  -5  -3 -19   97.89    5.80
   5   3  19   94.59    5.00
   5   3  19   78.69    5.60
  -6  -3 -19  111.19    5.70
   6   3  19   81.49    5.90
   6   3  19   84.99    5.20
  -3  -4 -19  166.98    8.30
   3   4  19  139.09    7.30
  -4  -4 -19  161.48    8.20
  -4  -4 -19  180.08    7.00
   4   4  19  134.79    7.50
   5   4  19    3.50    1.80
   5   4  19    0.00    1.70
   0   0   0    0.00    0.00

_computing_structure_solution     'SHELXT 2014/5 (Sheldrick, 2014)'
;
_shelx_hkl_checksum              33666
loop_
_space_group_symop_operation_xyz
'x, y, z'
'-x, -y, -z'
loop_
_atom_site_label
_atom_site_type_symbol
_atom_site_fract_x
_atom_site_fract_y
_atom_site_fract_z
_atom_site_U_iso_or_equiv
_atom_site_adp_type
_atom_site_occupancy
_atom_site_site_symmetry_order
_atom_site_calc_flag
_atom_site_refinement_flags_posn
_atom_site_refinement_flags_adp
_atom_site_refinement_flags_occupancy
_atom_site_disorder_assembly
_atom_site_disorder_group
Ru1 Ru 0.47625(2) 0.26666(2) 0.84977(2) 0.01207(5) Uani 1 1 d . . . . .
Ru2 Ru 0.66129(2) 0.43574(2) 0.68650(2) 0.01115(5) Uani 1 1 d . . . . .
H1 H 0.836(3) 0.315(3) 0.641(2) 0.013 Uiso 1 1 d . U . . .
Ru3 Ru 0.76517(2) 0.15110(2) 0.70975(2) 0.01146(5) Uani 1 1 d . . . . .
H2 H 0.673(3) 0.140(3) 0.613(2) 0.014 Uiso 1 1 d . U . . .
Ru4 Ru 0.46665(2) 0.22853(2) 0.64353(2) 0.01143(5) Uani 1 1 d . . . . .
H3 H 0.595(3) 0.373(3) 0.583(2) 0.014 Uiso 1 1 d . U . . .
Cu1 Cu 0.77752(4) 0.27232(3) 0.51522(2) 0.01872(7) Uani 1 1 d . . . . .
C1 C 0.5476(3) 0.3125(3) 0.9650(2) 0.0182(5) Uani 1 1 d . . . . .
C2 C 0.2761(3) 0.3751(3) 0.8959(2) 0.0176(5) Uani 1 1 d . . . . .
C3 C 0.3822(3) 0.1108(3) 0.9249(2) 0.0184(5) Uani 1 1 d . . . . .
C4 C 0.7428(3) 0.4868(3) 0.7954(2) 0.0168(5) Uani 1 1 d . . . . .
C5 C 0.4770(3) 0.5610(3) 0.7293(2) 0.0156(5) Uani 1 1 d . . . . .
C6 C 0.7940(3) 0.5528(3) 0.5759(2) 0.0162(5) Uani 1 1 d . . . . .
C7 C 0.8512(3) 0.1792(3) 0.8231(2) 0.0185(5) Uani 1 1 d . . . . .
C8 C 0.6902(3) -0.0187(3) 0.7673(2) 0.0187(5) Uani 1 1 d . . . . .
C9 C 0.9768(3) 0.0904(3) 0.6118(2) 0.0156(5) Uani 1 1 d . . . . .
C10 C 0.3506(3) 0.0791(3) 0.7146(2) 0.0181(5) Uani 1 1 d . . . . .
C11 C 0.2688(3) 0.3394(3) 0.6781(2) 0.0172(5) Uani 1 1 d . . . . .
C12 C 0.4664(3) 0.1883(3) 0.5010(2) 0.0156(5) Uani 1 1 d . . . . .
O1 O 0.5839(3) 0.3402(2) 1.03754(15) 0.0281(5) Uani 1 1 d . . . . .
O2 O 0.1541(2) 0.4378(2) 0.92560(15) 0.0266(5) Uani 1 1 d . . . . .
O3 O 0.3211(3) 0.0204(2) 0.97439(16) 0.0282(5) Uani 1 1 d . . . . .
O4 O 0.7967(3) 0.5231(2) 0.85726(16) 0.0257(5) Uani 1 1 d . . . . .
O5 O 0.3696(2) 0.6401(2) 0.75219(15) 0.0237(4) Uani 1 1 d . . . . .
O6 O 0.8673(2) 0.6326(2) 0.52077(16) 0.0228(4) Uani 1 1 d . . . . .
O7 O 0.9130(3) 0.1932(2) 0.88684(16) 0.0258(5) Uani 1 1 d . . . . .
O8 O 0.6491(3) -0.1227(2) 0.79809(17) 0.0275(5) Uani 1 1 d . . . . .
O9 O 1.1077(2) 0.0541(2) 0.56448(15) 0.0230(4) Uani 1 1 d . . . . .
O10 O 0.2758(3) -0.0106(2) 0.75236(16) 0.0255(4) Uani 1 1 d . . . . .
O11 O 0.1495(2) 0.4063(2) 0.69639(16) 0.0252(4) Uani 1 1 d . . . . .
O12 O 0.4505(3) 0.1582(2) 0.42303(15) 0.0230(4) Uani 1 1 d . . . . .
N1 N 0.8886(3) 0.2599(2) 0.36605(17) 0.0175(5) Uani 1 1 d . . . . .
C101 C 0.9337(3) 0.2494(3) 0.2754(2) 0.0174(5) Uani 1 1 d . . . . .
C102 C 0.9862(4) 0.2356(3) 0.1596(2) 0.0238(6) Uani 1 1 d . . . . .
H10A H 0.9241 0.1671 0.1422 0.036 Uiso 1 1 calc R U . . .
H10B H 1.1046 0.2091 0.1341 0.036 Uiso 1 1 calc R U . . .
H10C H 0.9651 0.3213 0.1246 0.036 Uiso 1 1 calc R U . . .
loop_
_atom_site_aniso_label
_atom_site_aniso_U_11
_atom_site_aniso_U_22
_atom_site_aniso_U_33
_atom_site_aniso_U_23
_atom_site_aniso_U_13
_atom_site_aniso_U_12
Ru1 0.01216(10) 0.01412(10) 0.00844(9) -0.00088(7) -0.00069(7) -0.00214(8)
Ru2 0.01058(10) 0.01117(10) 0.01102(9) -0.00111(7) -0.00190(7) -0.00220(7)
Ru3 0.01108(10) 0.01216(10) 0.01063(9) -0.00030(7) -0.00268(7) -0.00083(7)
Ru4 0.01042(9) 0.01333(10) 0.01059(9) -0.00134(7) -0.00271(7) -0.00261(7)
Cu1 0.01707(16) 0.02524(18) 0.01123(14) -0.00145(12) -0.00017(12) -0.00288(14)
C1 0.0180(13) 0.0200(14) 0.0143(12) -0.0006(10) -0.0012(10) -0.0027(11)
C2 0.0184(13) 0.0208(14) 0.0119(11) -0.0007(10) -0.0019(10) -0.0024(11)
C3 0.0198(13) 0.0235(14) 0.0120(11) -0.0015(10) -0.0047(10) -0.0024(11)
C4 0.0161(13) 0.0169(13) 0.0162(12) -0.0008(10) -0.0030(10) -0.0020(10)
C5 0.0164(13) 0.0154(13) 0.0154(12) 0.0003(10) -0.0049(10) -0.0036(10)
C6 0.0138(12) 0.0173(13) 0.0169(12) -0.0027(10) -0.0039(10) -0.0003(10)
C7 0.0211(14) 0.0146(13) 0.0184(12) 0.0017(10) -0.0046(11) -0.0017(11)
C8 0.0179(13) 0.0219(14) 0.0172(12) 0.0020(10) -0.0075(11) -0.0004(11)
C9 0.0178(13) 0.0141(13) 0.0156(12) -0.0013(9) -0.0062(11) -0.0013(10)
C10 0.0154(13) 0.0204(14) 0.0193(13) -0.0030(10) -0.0059(11) -0.0027(11)
C11 0.0155(13) 0.0222(14) 0.0153(12) -0.0018(10) -0.0055(10) -0.0054(11)
C12 0.0132(12) 0.0165(13) 0.0165(12) -0.0006(10) -0.0034(10) -0.0021(10)
O1 0.0314(12) 0.0389(13) 0.0157(9) -0.0052(9) -0.0073(9) -0.0096(10)
O2 0.0219(11) 0.0344(12) 0.0193(10) -0.0037(9) -0.0020(9) 0.0062(9)
O3 0.0344(12) 0.0274(12) 0.0216(10) 0.0067(9) -0.0060(9) -0.0125(10)
O4 0.0279(11) 0.0295(12) 0.0229(10) -0.0044(8) -0.0101(9) -0.0087(9)
O5 0.0215(10) 0.0259(11) 0.0213(10) -0.0020(8) -0.0047(8) 0.0051(9)
O6 0.0202(10) 0.0226(11) 0.0237(10) 0.0061(8) -0.0046(8) -0.0055(8)
O7 0.0288(12) 0.0311(12) 0.0224(10) -0.0009(8) -0.0140(9) -0.0060(9)
O8 0.0314(12) 0.0193(11) 0.0330(11) 0.0079(9) -0.0121(10) -0.0074(9)
O9 0.0160(10) 0.0267(11) 0.0242(10) -0.0059(8) -0.0028(8) 0.0003(8)
O10 0.0277(11) 0.0264(11) 0.0228(10) 0.0033(8) -0.0063(9) -0.0136(9)
O11 0.0183(10) 0.0320(12) 0.0253(10) -0.0059(9) -0.0074(9) 0.0041(9)
O12 0.0267(11) 0.0279(11) 0.0161(9) -0.0044(8) -0.0081(8) -0.0033(9)
N1 0.0158(11) 0.0181(12) 0.0174(11) 0.0003(9) -0.0036(9) -0.0017(9)
C101 0.0141(12) 0.0185(13) 0.0184(13) 0.0006(10) -0.0035(10) -0.0015(10)
C102 0.0230(15) 0.0323(17) 0.0132(12) -0.0019(11) -0.0004(11) -0.0054(12)
loop_
_atom_type_symbol
_atom_type_description
_atom_type_scat_dispersion_real
_atom_type_scat_dispersion_imag
_atom_type_scat_source
C C 0.0033 0.0016 'International Tables Vol C Tables 4.2.6.8 and 6.1.1.4'
H H 0.0000 0.0000 'International Tables Vol C Tables 4.2.6.8 and 6.1.1.4'
Cu Cu 0.3201 1.2651 'International Tables Vol C Tables 4.2.6.8 and 6.1.1.4'
N N 0.0061 0.0033 'International Tables Vol C Tables 4.2.6.8 and 6.1.1.4'
O O 0.0106 0.0060 'International Tables Vol C Tables 4.2.6.8 and 6.1.1.4'
Ru Ru -1.2594 0.8363 'International Tables Vol C Tables 4.2.6.8 and 6.1.1.4'
loop_
_geom_angle_atom_site_label_1
_geom_angle_atom_site_label_2
_geom_angle_atom_site_label_3
_geom_angle
_geom_angle_site_symmetry_1
_geom_angle_site_symmetry_3
_geom_angle_publ_flag
C3 Ru1 C1 92.22(11) . . ?
C3 Ru1 C2 94.21(12) . . ?
C1 Ru1 C2 93.40(11) . . ?
C3 Ru1 Ru3 99.58(8) . . ?
C1 Ru1 Ru3 102.21(8) . . ?
C2 Ru1 Ru3 158.64(8) . . ?
C3 Ru1 Ru4 101.71(7) . . ?
C1 Ru1 Ru4 162.03(8) . . ?
C2 Ru1 Ru4 96.80(7) . . ?
Ru3 Ru1 Ru4 64.555(7) . . ?
C3 Ru1 Ru2 161.05(8) . . ?
C1 Ru1 Ru2 99.94(8) . . ?
C2 Ru1 Ru2 99.47(8) . . ?
Ru3 Ru1 Ru2 63.780(7) . . ?
Ru4 Ru1 Ru2 63.825(7) . . ?
C4 Ru2 C5 91.56(11) . . ?
C4 Ru2 C6 95.05(11) . . ?
C5 Ru2 C6 94.88(11) . . ?
C4 Ru2 Cu1 135.27(8) . . ?
C5 Ru2 Cu1 132.71(7) . . ?
C6 Ru2 Cu1 77.64(7) . . ?
C4 Ru2 Ru1 83.37(8) . . ?
C5 Ru2 Ru1 85.87(8) . . ?
C6 Ru2 Ru1 178.28(7) . . ?
Cu1 Ru2 Ru1 102.987(11) . . ?
C4 Ru2 Ru3 93.23(8) . . ?
C5 Ru2 Ru3 142.57(8) . . ?
C6 Ru2 Ru3 121.57(8) . . ?
Cu1 Ru2 Ru3 57.279(9) . . ?
Ru1 Ru2 Ru3 57.954(7) . . ?
C4 Ru2 Ru4 140.38(8) . . ?
C5 Ru2 Ru4 93.61(8) . . ?
C6 Ru2 Ru4 123.51(7) . . ?
Cu1 Ru2 Ru4 56.758(9) . . ?
Ru1 Ru2 Ru4 57.933(7) . . ?
Ru3 Ru2 Ru4 60.585(7) . . ?
C4 Ru2 H1 90.5(8) . . ?
C5 Ru2 H1 177.9(8) . . ?
C6 Ru2 H1 84.6(9) . . ?
Cu1 Ru2 H1 45.2(8) . . ?
Ru1 Ru2 H1 94.7(9) . . ?
Ru3 Ru2 H1 37.5(9) . . ?
Ru4 Ru2 H1 85.0(9) . . ?
C4 Ru2 H3 174.6(9) . . ?
C5 Ru2 H3 93.4(9) . . ?
C6 Ru2 H3 86.5(9) . . ?
Cu1 Ru2 H3 40.1(9) . . ?
Ru1 Ru2 H3 95.0(9) . . ?
Ru3 Ru2 H3 81.6(9) . . ?
Ru4 Ru2 H3 37.2(9) . . ?
H1 Ru2 H3 84.5(12) . . ?
C8 Ru3 C7 93.39(11) . . ?
C8 Ru3 C9 97.97(11) . . ?
C7 Ru3 C9 94.39(11) . . ?
C8 Ru3 Cu1 129.22(8) . . ?
C7 Ru3 Cu1 136.68(8) . . ?
C9 Ru3 Cu1 74.58(7) . . ?
C8 Ru3 Ru1 88.13(8) . . ?
C7 Ru3 Ru1 82.71(8) . . ?
C9 Ru3 Ru1 173.41(8) . . ?
Cu1 Ru3 Ru1 103.482(10) . . ?
C8 Ru3 Ru2 144.27(8) . . ?
C7 Ru3 Ru2 93.85(8) . . ?
C9 Ru3 Ru2 116.26(8) . . ?
Cu1 Ru3 Ru2 57.589(9) . . ?
Ru1 Ru3 Ru2 58.266(7) . . ?
C8 Ru3 Ru4 93.46(8) . . ?
C7 Ru3 Ru4 139.53(8) . . ?
C9 Ru3 Ru4 123.95(7) . . ?
Cu1 Ru3 Ru4 56.538(9) . . ?
Ru1 Ru3 Ru4 57.724(7) . . ?
Ru2 Ru3 Ru4 59.739(7) . . ?
C8 Ru3 H1 174.7(8) . . ?
C7 Ru3 H1 91.8(8) . . ?
C9 Ru3 H1 80.4(9) . . ?
Cu1 Ru3 H1 45.5(8) . . ?
Ru1 Ru3 H1 93.7(8) . . ?
Ru2 Ru3 H1 36.2(8) . . ?
Ru4 Ru3 H1 83.3(8) . . ?
C8 Ru3 H2 89.2(10) . . ?
C7 Ru3 H2 173.8(9) . . ?
C9 Ru3 H2 90.9(9) . . ?
Cu1 Ru3 H2 42.1(10) . . ?
Ru1 Ru3 H2 91.7(9) . . ?
Ru2 Ru3 H2 80.8(9) . . ?
Ru4 Ru3 H2 34.5(9) . . ?
H1 Ru3 H2 85.8(13) . . ?
C11 Ru4 C10 91.12(12) . . ?
C11 Ru4 C12 96.05(10) . . ?
C10 Ru4 C12 95.77(11) . . ?
C11 Ru4 Cu1 131.71(8) . . ?
C10 Ru4 Cu1 136.56(8) . . ?
C12 Ru4 Cu1 75.60(8) . . ?
C11 Ru4 Ru1 87.38(7) . . ?
C10 Ru4 Ru1 81.52(7) . . ?
C12 Ru4 Ru1 175.70(8) . . ?
Cu1 Ru4 Ru1 104.049(10) . . ?
C11 Ru4 Ru2 93.48(8) . . ?
C10 Ru4 Ru2 139.17(7) . . ?
C12 Ru4 Ru2 123.93(8) . . ?
Cu1 Ru4 Ru2 57.774(9) . . ?
Ru1 Ru4 Ru2 58.242(7) . . ?
C11 Ru4 Ru3 143.17(7) . . ?
C10 Ru4 Ru3 94.55(8) . . ?
C12 Ru4 Ru3 119.43(8) . . ?
Cu1 Ru4 Ru3 57.236(9) . . ?
Ru1 Ru4 Ru3 57.721(7) . . ?
Ru2 Ru4 Ru3 59.676(7) . . ?
C11 Ru4 H2 172.2(9) . . ?
C10 Ru4 H2 94.9(9) . . ?
C12 Ru4 H2 88.2(8) . . ?
Cu1 Ru4 H2 43.2(9) . . ?
Ru1 Ru4 H2 88.7(8) . . ?
Ru2 Ru4 H2 78.7(9) . . ?
Ru3 Ru4 H2 31.4(8) . . ?
C11 Ru4 H3 92.3(8) . . ?
C10 Ru4 H3 173.9(8) . . ?
C12 Ru4 H3 88.9(8) . . ?
Cu1 Ru4 H3 41.2(8) . . ?
Ru1 Ru4 H3 93.6(8) . . ?
Ru2 Ru4 H3 35.5(8) . . ?
Ru3 Ru4 H3 79.8(8) . . ?
H2 Ru4 H3 81.3(12) . . ?
N1 Cu1 Ru4 134.25(7) . . ?
N1 Cu1 Ru3 142.02(7) . . ?
Ru4 Cu1 Ru3 66.226(10) . . ?
N1 Cu1 Ru2 146.78(7) . . ?
Ru4 Cu1 Ru2 65.468(9) . . ?
Ru3 Cu1 Ru2 65.132(9) . . ?
N1 Cu1 H1 136.2(8) . . ?
Ru4 Cu1 H1 89.5(8) . . ?
Ru3 Cu1 H1 43.2(8) . . ?
Ru2 Cu1 H1 41.3(8) . . ?
N1 Cu1 H2 128.7(8) . . ?
Ru4 Cu1 H2 42.8(8) . . ?
Ru3 Cu1 H2 37.7(8) . . ?
Ru2 Cu1 H2 84.3(8) . . ?
H1 Cu1 H2 79.3(12) . . ?
N1 Cu1 H3 129.3(9) . . ?
Ru4 Cu1 H3 43.3(9) . . ?
Ru3 Cu1 H3 88.1(9) . . ?
Ru2 Cu1 H3 40.2(9) . . ?
H1 Cu1 H3 80.7(12) . . ?
H2 Cu1 H3 82.8(12) . . ?
O1 C1 Ru1 177.0(2) . . ?
O2 C2 Ru1 178.2(3) . . ?
O3 C3 Ru1 176.7(2) . . ?
O4 C4 Ru2 176.1(3) . . ?
O5 C5 Ru2 177.2(2) . . ?
O6 C6 Ru2 171.5(2) . . ?
O7 C7 Ru3 175.4(3) . . ?
O8 C8 Ru3 177.2(3) . . ?
O9 C9 Ru3 171.9(2) . . ?
O10 C10 Ru4 175.5(2) . . ?
O11 C11 Ru4 178.3(2) . . ?
O12 C12 Ru4 172.5(2) . . ?
C101 N1 Cu1 170.2(2) . . ?
N1 C101 C102 178.3(3) . . ?
C101 C102 H10A 109.5 . . ?
C101 C102 H10B 109.5 . . ?
H10A C102 H10B 109.5 . . ?
C101 C102 H10C 109.5 . . ?
H10A C102 H10C 109.5 . . ?
H10B C102 H10C 109.5 . . ?
loop_
_geom_bond_atom_site_label_1
_geom_bond_atom_site_label_2
_geom_bond_distance
_geom_bond_site_symmetry_2
_geom_bond_publ_flag
Ru1 C3 1.889(3) . ?
Ru1 C1 1.892(3) . ?
Ru1 C2 1.897(3) . ?
Ru1 Ru3 2.7844(3) . ?
Ru1 Ru4 2.7845(3) . ?
Ru1 Ru2 2.7938(3) . ?
Ru2 C4 1.888(3) . ?
Ru2 C5 1.893(3) . ?
Ru2 C6 1.932(3) . ?
Ru2 Cu1 2.7421(4) . ?
Ru2 Ru3 2.9469(3) . ?
Ru2 Ru4 2.9489(3) . ?
Ru2 H1 1.81(3) . ?
Ru2 H3 1.79(3) . ?
Ru3 C8 1.895(3) . ?
Ru3 C7 1.899(3) . ?
Ru3 C9 1.935(3) . ?
Ru3 Cu1 2.7327(4) . ?
Ru3 Ru4 2.9739(3) . ?
Ru3 H1 1.87(3) . ?
Ru3 H2 1.70(3) . ?
Ru4 C11 1.890(3) . ?
Ru4 C10 1.892(3) . ?
Ru4 C12 1.939(2) . ?
Ru4 Cu1 2.7110(4) . ?
Ru4 H2 1.84(3) . ?
Ru4 H3 1.87(3) . ?
Cu1 N1 1.894(2) . ?
Cu1 H1 1.95(3) . ?
Cu1 H2 1.86(3) . ?
Cu1 H3 1.79(3) . ?
C1 O1 1.146(3) . ?
C2 O2 1.141(3) . ?
C3 O3 1.143(3) . ?
C4 O4 1.142(3) . ?
C5 O5 1.140(3) . ?
C6 O6 1.131(3) . ?
C7 O7 1.141(3) . ?
C8 O8 1.136(3) . ?
C9 O9 1.137(3) . ?
C10 O10 1.140(3) . ?
C11 O11 1.141(3) . ?
C12 O12 1.135(3) . ?
N1 C101 1.138(3) . ?
C101 C102 1.454(3) . ?
C102 H10A 0.9800 . ?
C102 H10B 0.9800 . ?
C102 H10C 0.9800 . ?
