#------------------------------------------------------------------------------
#$Date: 2021-09-06 14:20:08 +0300 (Mon, 06 Sep 2021) $
#$Revision: 268787 $
#$URL: file:///home/coder/svn-repositories/cod/cif/7/70/77/7707739.cif $
#------------------------------------------------------------------------------
#
# This file is available in the Crystallography Open Database (COD),
# http://www.crystallography.net/
#
# All data on this site have been placed in the public domain by the
# contributors.
#
data_7707739
loop_
_publ_author_name
'Gruhne, Michael S.'
'Lenz, Tobias'
'R\"osch, Markus'
'Lommel, Marcus'
'Wurzenberger, Maximilian H. H.'
'Klap\"otke, Thomas M'
'Stierstorfer, J\"org'
_publ_section_title
;
 Nitratoethyl-5H-tetrazoles: improving the oxygen balance through
 application of organic nitrates in energetic coordination compounds.
;
_journal_issue                   31
_journal_name_full
'Dalton transactions (Cambridge, England : 2003)'
_journal_page_first              10811
_journal_page_last               10825
_journal_paper_doi               10.1039/d1dt01898a
_journal_volume                  50
_journal_year                    2021
_chemical_formula_moiety         'C5 H8 N4 O2'
_chemical_formula_sum            'C5 H8 N4 O2'
_chemical_formula_weight         156.15
_chemical_name_common            1-ethylacetyl-5H-tetrazole
_chemical_name_systematic        '2-(1H-tetrazol-1-yl)ethyl acetate'
_space_group_IT_number           14
_space_group_name_Hall           '-P 2ybc'
_space_group_name_H-M_alt        'P 1 21/c 1'
_symmetry_cell_setting           monoclinic
_symmetry_Int_Tables_number      14
_symmetry_space_group_name_Hall  '-P 2ybc'
_symmetry_space_group_name_H-M   'P 1 21/c 1'
_atom_sites_solution_hydrogens   difmap
_atom_sites_solution_primary     difmap
_audit_creation_date             2020-10-07
_audit_creation_method
;
Olex2 1.3
(compiled 2020.07.31 svn.rc2a77460 for OlexSys, GUI svn.r6145)
;
_audit_update_record
;
2021-05-17 deposited with the CCDC.	2021-06-29 downloaded from the CCDC.
;
_cell_angle_alpha                90
_cell_angle_beta                 104.152(10)
_cell_angle_gamma                90
_cell_formula_units_Z            4
_cell_length_a                   7.6852(9)
_cell_length_b                   14.3722(13)
_cell_length_c                   6.6944(6)
_cell_measurement_reflns_used    951
_cell_measurement_temperature    106
_cell_measurement_theta_max      27.8460
_cell_measurement_theta_min      3.0280
_cell_volume                     716.98(13)
_computing_cell_refinement       'CrysAlisPro 1.171.40.82a (Rigaku OD, 2020)'
_computing_data_collection       'CrysAlisPro 1.171.40.82a (Rigaku OD, 2020)'
_computing_data_reduction        'CrysAlisPro 1.171.40.82a (Rigaku OD, 2020)'
_computing_molecular_graphics    'Diamond 2.1c, Crystal Impact GbR'
_computing_publication_material  'Microsoft Word 2016'
_computing_structure_refinement  'SHELXL 2018/3 (Sheldrick, 2015)'
_computing_structure_solution    'SHELXT 2018/2 (Sheldrick, 2018)'
_diffrn_ambient_temperature      106
_diffrn_detector                 'CCD plate'
_diffrn_detector_area_resol_mean 15.9809
_diffrn_detector_type            Sapphire3
_diffrn_measured_fraction_theta_full 0.998
_diffrn_measured_fraction_theta_max 0.999
_diffrn_measurement_details
;
List of Runs (angles in degrees, time in seconds):

  # Type    Start    End  Width  t~exp~   \w     \q     \k     \f   Frames
#--------------------------------------------------------------------------
  1  \w    -77.00   1.00   1.00    3.00    --  -15.43 -57.00 -90.00   78
  2  \w     39.00  85.00   1.00    3.00    --   16.37 178.00-150.00   46
  3  \w      2.00  86.00   1.00    3.00    --   16.37  37.00  60.00   84
;
_diffrn_measurement_device       'four-circle diffractometer'
_diffrn_measurement_device_type  'Xcalibur, Sapphire3'
_diffrn_measurement_method       '\w scans'
_diffrn_orient_matrix_UB_11      -0.0896156000
_diffrn_orient_matrix_UB_12      -0.0055594000
_diffrn_orient_matrix_UB_13      0.0084452000
_diffrn_orient_matrix_UB_21      -0.0318603000
_diffrn_orient_matrix_UB_22      0.0160775000
_diffrn_orient_matrix_UB_23      -0.1026569000
_diffrn_orient_matrix_UB_31      -0.0005105000
_diffrn_orient_matrix_UB_32      -0.0463359000
_diffrn_orient_matrix_UB_33      -0.0365886000
_diffrn_radiation_monochromator  graphite
_diffrn_radiation_probe          x-ray
_diffrn_radiation_type           'Mo K\a'
_diffrn_radiation_wavelength     0.71073
_diffrn_reflns_av_R_equivalents  0.0222
_diffrn_reflns_av_sigmaI/netI    0.0389
_diffrn_reflns_av_unetI/netI     0.0362
_diffrn_reflns_Laue_measured_fraction_full 0.998
_diffrn_reflns_Laue_measured_fraction_max 0.999
_diffrn_reflns_limit_h_max       9
_diffrn_reflns_limit_h_min       -5
_diffrn_reflns_limit_k_max       17
_diffrn_reflns_limit_k_min       -10
_diffrn_reflns_limit_l_max       6
_diffrn_reflns_limit_l_min       -8
_diffrn_reflns_number            3119
_diffrn_reflns_point_group_measured_fraction_full 0.998
_diffrn_reflns_point_group_measured_fraction_max 0.999
_diffrn_reflns_theta_full        25.242
_diffrn_reflns_theta_max         26.372
_diffrn_reflns_theta_min         2.733
_diffrn_source                   'fine-focus sealed X-ray tube'
_exptl_absorpt_coefficient_mu    0.115
_exptl_absorpt_correction_T_max  1.00000
_exptl_absorpt_correction_T_min  0.97324
_exptl_absorpt_correction_type   multi-scan
_exptl_absorpt_process_details
;
CrysAlisPro 1.171.40.82a (Rigaku Oxford Diffraction, 2020)
Empirical absorption correction using spherical harmonics,
implemented in SCALE3 ABSPACK scaling algorithm.
;
_exptl_crystal_colour            colourless
_exptl_crystal_density_diffrn    1.447
_exptl_crystal_description       block
_exptl_crystal_F_000             328
_exptl_crystal_size_max          0.5
_exptl_crystal_size_mid          0.5
_exptl_crystal_size_min          0.306
_refine_diff_density_max         0.170
_refine_diff_density_min         -0.220
_refine_diff_density_rms         0.043
_refine_ls_extinction_method     none
_refine_ls_goodness_of_fit_ref   1.068
_refine_ls_hydrogen_treatment    refall
_refine_ls_matrix_type           full
_refine_ls_number_parameters     132
_refine_ls_number_reflns         1466
_refine_ls_number_restraints     0
_refine_ls_restrained_S_all      1.068
_refine_ls_R_factor_all          0.0494
_refine_ls_R_factor_gt           0.0352
_refine_ls_shift/su_max          0.000
_refine_ls_shift/su_mean         0.000
_refine_ls_structure_factor_coef Fsqd
_refine_ls_weighting_details
'w=1/[\s^2^(Fo^2^)+(0.0341P)^2^+0.0800P] where P=(Fo^2^+2Fc^2^)/3'
_refine_ls_weighting_scheme      calc
_refine_ls_wR_factor_gt          0.0746
_refine_ls_wR_factor_ref         0.0830
_reflns_Friedel_coverage         0.000
_reflns_number_gt                1165
_reflns_number_total             1466
_reflns_threshold_expression     'I > 2\s(I)'
_cod_data_source_file            d1dt01898a2.cif
_cod_data_source_block           px352
_cod_depositor_comments
'Adding full bibliography for 7707739--7707758.cif.'
_cod_database_code               7707739
_shelx_space_group_comment
;
The symmetry employed for this shelxl refinement is uniquely defined
by the following loop, which should always be used as a source of
symmetry information in preference to the above space-group names.
They are only intended as comments.
;
_shelx_estimated_absorpt_t_min   0.945
_shelx_estimated_absorpt_t_max   0.966
_shelx_res_file
;
TITL px352_a.res in P2(1)/c
    px352.res
    created by SHELXL-2018/3 at 11:34:58 on 07-Oct-2020
REM Old TITL
REM SHELXT solution in P2(1)/c: R1 0.165, Rweak 0.280, Alpha 0.016
REM <I/s> 0.767 for 68 systematic absences, Orientation as input
REM Formula found by SHELXT: C8 N2 O
CELL 0.71073 7.6852 14.3722 6.6944 90 104.152 90
ZERR 4 0.0009 0.0013 0.0006 0 0.01 0
LATT 1
SYMM -X,0.5+Y,0.5-Z
SFAC C H N O
UNIT 20 32 16 8

L.S. 4 0 0
PLAN  5
SIZE 0.5 0.5 0.306
TEMP -167.15
CONF
BOND
list 4
MORE -1
BOND $H
fmap 2 53
acta
SHEL 1000 0.8
REM <olex2.extras>
REM <HklSrc "%.\\px352.hkl">
REM </olex2.extras>

WGHT    0.034100    0.080000
FVAR       0.99065
O1    4    0.495895    0.640622    0.036538    11.00000    0.02464    0.01750 =
         0.02878    0.00109    0.00697    0.00297
O2    4    0.462495    0.795279    0.044089    11.00000    0.03409    0.01794 =
         0.03986   -0.00258    0.00158    0.00230
N1    3    0.788743    0.554485    0.336039    11.00000    0.01899    0.01940 =
         0.01874   -0.00039    0.00400    0.00058
N4    3    0.753856    0.514000    0.634013    11.00000    0.03106    0.03014 =
         0.02506    0.00213    0.00841    0.00239
N2    3    0.896899    0.609365    0.475861    11.00000    0.02482    0.02927 =
         0.02484   -0.00502    0.00455   -0.00455
N3    3    0.874692    0.584524    0.654130    11.00000    0.02680    0.03568 =
         0.02405   -0.00327    0.00380    0.00142
C4    1    0.400010    0.718375    0.042790    11.00000    0.02880    0.02094 =
         0.01571   -0.00203   -0.00004    0.00520
C3    1    0.682316    0.653435    0.033863    11.00000    0.02660    0.02233 =
         0.02176    0.00291    0.00813    0.00120
C1    1    0.703251    0.497309    0.435724    11.00000    0.02447    0.02123 =
         0.02497    0.00045    0.00812   -0.00105
C2    1    0.778576    0.565342    0.116344    11.00000    0.02511    0.02363 =
         0.01925    0.00063    0.00758    0.00101
C5    1    0.212159    0.695401    0.046994    11.00000    0.02751    0.02956 =
         0.02946   -0.00236    0.00196    0.00570
H3A   2    0.730266    0.708155    0.114978    11.00000    0.02372
H3B   2    0.687989    0.663743   -0.108659    11.00000    0.01799
H5A   2    0.151386    0.662801   -0.076960    11.00000    0.03404
H2A   2    0.715218    0.511000    0.048318    11.00000    0.01907
H5B   2    0.211735    0.654206    0.163921    11.00000    0.03728
H2B   2    0.901477    0.567254    0.097139    11.00000    0.02365
H1    2    0.622357    0.453297    0.372687    11.00000    0.03489
H5C   2    0.146565    0.750218    0.055484    11.00000    0.04179
HKLF 4




REM  px352_a.res in P2(1)/c
REM wR2 = 0.0830, GooF = S = 1.068, Restrained GooF = 1.068 for all data
REM R1 = 0.0352 for 1165 Fo > 4sig(Fo) and 0.0494 for all 1466 data
REM 132 parameters refined using 0 restraints

END

WGHT      0.0341      0.0800

REM Highest difference peak  0.170,  deepest hole -0.220,  1-sigma level  0.043
Q1    1   0.7073  0.5486  0.3596  11.00000  0.05    0.17
Q2    1   0.4199  0.8402  0.1673  11.00000  0.05    0.15
Q3    1   0.7984  0.4746  0.5442  11.00000  0.05    0.15
Q4    1   0.9725  0.6121  0.7484  11.00000  0.05    0.14
Q5    1   0.7337  0.4811  0.7342  11.00000  0.05    0.14
;
_shelx_res_checksum              87685
_shelx_hkl_file
;
   0   0  -1   16.80    1.25
   0   0  -1   17.86    1.37
   0   0  -2 9974.66  154.26
   0   0   2 9852.01  154.22
   0   0  -2 9999.00  154.60
   0   0  -3   -1.24    0.96
   0   0   3    0.37    0.95
   0   0  -5    0.19    1.90
   0   0  -6  121.31    9.38
   0   0  -7   -0.17    2.08
   0   0  -8   12.94    4.26
   0   1  -1  618.77   11.52
   0  -1  -1  623.02   10.63
   0   1   1  610.09   11.72
   0  -1  -1  617.52   11.68
   0  -1   2 2794.17   48.21
   0   1  -2 2798.75   48.04
   0  -1  -2 2848.41   48.82
   0  -1  -2 2929.49   47.44
   0   1   2 2803.25   47.30
   0  -1   3 1092.38   23.90
   0   1  -3 1157.06   24.52
   0  -1  -3 1076.37   24.60
   0  -1  -3 1051.31   22.86
   0   1   3 1123.19   23.21
   0   1  -3 1107.95   23.82
   0  -1  -4 1065.22   26.45
   0   1  -4 1077.53   25.33
   0  -1  -5    7.69    2.59
   0   1  -6  258.84   13.85
   0  -1  -6  257.59   13.83
   0   1  -7   56.63    7.09
   0  -1  -7   48.37    6.50
   0   1  -8   92.13    9.72
   0  -1  -8   94.77    9.91
   0   2   0  471.51    9.31
   0  -2  -1  306.03    7.99
   0  -2  -1  306.54    6.41
   0   2   1  308.71    8.03
   0  -2   1  290.50    7.73
   0   2   1  298.43    6.35
   0   2  -1  305.97    7.86
   0   2   2 1932.80   33.99
   0  -2   2 1949.91   35.83
   0  -2  -2 1968.38   36.34
   0   2  -2 1941.76   35.72
   0  -2  -2 2012.88   33.94
   0   2   2 2023.32   36.38
   0  -2  -3  710.68   18.55
   0  -2  -3  735.38   16.73
   0   2  -3  720.92   17.93
   0   2   3  709.00   16.77
   0  -2   3  712.73   18.16
   0  -2  -4 1195.22   29.64
   0   2  -4 1280.47   29.00
   0   2   4 1263.79   27.49
   0  -2  -4 1281.19   27.52
   0  -2  -5  365.11   15.31
   0  -2  -6   24.64    4.21
   0   2  -7  120.53   10.29
   0  -2  -7  117.93   10.29
   0   2  -8   34.96    6.08
   0  -2  -8   38.94    6.36
   0   3   0   -0.32    0.89
   0   3   1 4571.25   72.08
   0   3   1 4705.89   75.34
   0  -3  -1 4588.51   75.39
   0   3  -1 4756.30   74.99
   0  -3  -1 4507.71   72.01
   0  -3   1 4720.23   74.96
   0  -3   2   37.56    3.13
   0   3  -2   33.87    3.24
   0   3   2   41.75    3.40
   0  -3  -2   38.78    2.39
   0   3   2   40.37    2.62
   0  -3  -2   42.74    3.59
   0   3   3    2.00    1.12
   0  -3  -3    0.69    1.37
   0  -3   3    1.32    1.17
   0   3  -3    1.49    1.75
   0   3   3    3.56    1.66
   0  -3  -3    2.04    1.03
   0   3   4  147.12    7.25
   0   3  -4  162.28    8.49
   0  -3  -4  159.92    7.31
   0  -3  -4  152.31    8.79
   0  -3  -5    0.49    1.95
   0   3  -5   -1.12    2.01
   0  -3  -6  271.76   14.66
   0   3  -7    0.36    2.03
   0  -3  -7    0.70    1.94
   0   3  -8   32.61    5.87
   0  -3  -8   22.35    5.35
   0   4   0    0.38    1.08
   0   4  -1    5.83    1.56
   0  -4   1    9.58    1.77
   0   4   1   11.65    1.92
   0   4   1    9.26    1.10
   0   4   2  125.36    4.70
   0   4   2  148.25    6.82
   0  -4   2  140.01    6.58
   0  -4  -2  136.00    6.69
   0   4  -2  145.46    6.84
   0  -4  -2  139.81    4.76
   0  -4  -3    7.75    1.48
   0   4  -3    9.05    2.49
   0  -4  -3   10.21    2.49
   0   4   3    9.80    1.78
   0  -4  -4  275.90    9.74
   0  -4  -4  259.37   11.95
   0   4  -4  273.40   11.75
   0   4   4  271.58   10.14
   0  -4  -5   57.90    6.43
   0   4  -5   71.49    6.57
   0  -4  -6   63.58    7.22
   0   4  -6   68.60    7.00
   0  -4  -7   46.23    6.67
   0  -4  -8    6.00    2.93
   0   4  -8    8.42    3.72
   0   5   0    0.95    1.16
   0   5   1    3.18    0.86
   0  -5   1   -0.70    1.10
   0   5   1   -0.49    0.93
   0   5  -1    0.75    1.56
   0  -5  -2   87.38    3.77
   0   5   2   85.07    3.71
   0   5   2   91.89    5.67
   0  -5  -2   78.14    5.44
   0   5  -2   84.39    5.44
   0  -5   2   87.53    5.48
   0   5   3   25.91    2.53
   0  -5  -3   25.73    3.51
   0  -5  -3   21.67    2.19
   0   5  -3   27.54    3.62
   0  -5  -4    1.37    1.04
   0   5  -4    0.38    2.37
   0  -5  -4   -0.93    1.91
   0  -5  -5  130.35    9.32
   0   5  -5  131.15    9.05
   0  -5  -6  111.22    9.57
   0   5  -6  149.66   10.43
   0  -5  -7    7.32    2.93
   0   6   0  214.45    8.02
   0   6   1   32.79    2.27
   0   6   1   38.86    3.58
   0  -6   1   30.17    3.22
   0   6  -1   33.89    3.47
   0   6  -2  629.51   17.19
   0   6   2  591.26   13.00
   0  -6  -3   78.80    4.21
   0   6  -3   81.07    6.18
   0   6   3   77.09    4.34
   0  -6  -3   80.25    6.36
   0   6   4   78.85    5.06
   0  -6  -4   90.23    5.12
   0   6  -4   71.42    6.25
   0  -6  -4   78.54    6.86
   0  -6  -5  153.52   10.44
   0   6  -5  153.27   10.04
   0  -6  -6   59.69    7.19
   0   6  -6   64.53    7.11
   0   6  -7   15.39    3.93
   0  -6  -7   20.61    4.63
   0   7   0    1.07    1.39
   0   7  -1  139.27    7.15
   0   7   1  126.43    4.99
   0  -7   1  147.05    7.33
   0   7  -2   49.66    4.67
   0   7   2   39.43    2.71
   0  -7  -3   35.94    2.90
   0   7   3   31.85    2.77
   0   7  -3   28.06    4.07
   0   7  -4  298.03   13.58
   0   7   4  281.69   10.02
   0  -7  -4  297.18   14.18
   0  -7  -4  281.67    9.70
   0  -7  -5  247.86   13.84
   0   7  -5  230.46   12.85
   0   7  -6   40.62    5.91
   0  -7  -6   31.62    5.51
   0  -7  -7   20.98    4.89
   0   7  -7   25.32    5.28
   0   8   0   42.33    3.92
   0   8   1   41.21    2.99
   0   8  -1   52.13    4.89
   0   8   2  204.56    6.94
   0   8  -2  208.23    9.98
   0   8  -3    1.42    2.65
   0   8   3    0.19    0.93
   0   8  -4  109.57    8.44
   0  -8  -4  130.30    6.21
   0   8   4  121.62    6.23
   0   8  -5    1.67    2.65
   0  -8  -5   -0.88    2.27
   0  -8  -6    8.88    3.31
   0   8  -6    3.38    2.73
   0  -8  -7   31.25    6.17
   0   8  -7   33.49    6.04
   0   9   0    2.06    1.99
   0   9   1  731.16   19.41
   0   9   1  716.91   16.54
   0   9  -1  741.57   20.56
   0   9  -2   50.91    5.29
   0   9   2   49.80    3.36
   0   9  -3  135.06    9.03
   0   9   3  127.25    5.68
   0   9  -4    2.44    2.68
   0   9   4    0.59    1.10
   0   9  -5   28.40    4.99
   0   9  -6    4.66    3.03
   0  -9  -6    1.73    2.38
   0   9  -7    1.73    3.94
   0  -9  -7   -2.43    2.37
   0  10   0  155.99    8.53
   0  10   1   16.41    3.13
   0  10   1   13.03    2.02
   0  10  -1   18.85    3.95
   0  10  -2  187.57   10.33
   0  10   2  194.71    7.22
   0  10  -3    1.15    2.38
   0  10   3    0.87    0.84
   0  10  -4    5.75    2.98
   0  10   4    8.89    1.75
   0  10  -5   52.96    6.71
   0  10  -6   21.08    4.79
   0  11   0   -0.47    1.68
   0  11   1  529.57   14.46
   0  11  -1  548.04   18.57
   0  11   1  546.99   17.62
   0  11   2   32.04    2.89
   0  11  -2   37.88    5.01
   0  11   3  102.07    5.27
   0  11  -3   99.29    8.43
   0  11  -4    3.39    3.10
   0  11  -5   -2.38    2.56
   0  11  -6    5.66    3.15
   0  12   0   34.42    4.54
   0  12   1  223.59   11.08
   0  12  -1  242.62   12.24
   0  12   1  242.13    9.30
   0  12   2  103.90    5.54
   0  12   2   91.27    6.90
   0  12  -2   91.19    7.76
   0  12   3  153.10    6.71
   0  12  -3  159.32   10.96
   0  12  -4  114.93    9.95
   0  12  -5    6.27    3.67
   0  12  -6    3.82    4.02
   0  13   0   26.02    4.46
   0  13   1  112.07    6.39
   0  13  -1  109.29    8.57
   0  13   1  112.47    8.07
   0  13   2    1.30    1.76
   0  13  -2    2.29    2.50
   0  13   2    1.27    1.02
   0  13  -3  109.90    9.37
   0  13  -4  315.71   16.91
   0  13  -5   29.70    6.05
   0  14   0  679.60   22.73
   0  14  -1  154.86   10.46
   0  14   1  137.46    7.42
   0  14   1  132.36    9.19
   0  14   2  166.36   10.33
   0  14  -2  148.78   10.93
   0  14  -3    9.20    3.61
   0  14   3   15.95    3.33
   0  14  -4    1.54    3.29
   0  14  -5  124.79   11.42
   0  15   0    0.54    2.02
   0  15  -1    2.43    2.65
   0  15   1    0.00    1.81
   0  15  -2  297.12   15.77
   0  15   2  268.15   13.58
   0  15  -3    3.72    2.70
   0  15   3    2.86    1.87
   0  15  -4   11.33    3.93
   0  16   0    9.34    2.89
   0  16  -1   46.70    6.26
   0  16   1   37.68    5.35
   0  16   2   15.31    3.91
   0  16  -2   11.34    3.85
   0  16  -3    5.87    4.18
   0  17   0   -0.56    2.01
   0  17  -1   43.62    6.22
   0  17   1   51.33    6.40
   0  17  -2   67.80    8.04
   0  17  -3   34.57    6.15
   0  18   0   15.33    3.81
   0  18  -1    8.51    2.96
   0  18   1    4.17    2.37
   0  18  -2   -2.86    2.98
   0  19   0    3.69    2.13
   0  19  -1   34.72    6.07
   1   0  -8   93.81    9.79
   1   0  -7    1.79    2.71
   1   0  -6  749.33   25.24
  -1   0   4   24.00    2.89
   1   0  -4   30.74    3.20
   1   0  -3    0.53    1.18
  -1   0   3   -0.45    0.85
  -1   0   2 2963.27   49.01
   1   0  -2 3033.04   48.95
  -1   0   1    0.20    0.42
   1   0  -1   -0.18    0.46
   1   0   0 1151.67   19.36
  -1   0   0 1128.90   19.33
  -1   0  -1    3.59    0.94
   1   0   1    2.17    1.16
  -1   0  -1    3.82    0.85
   1   0   2 1537.98   29.64
   1   0   2 1544.28   29.58
  -1   0  -2 1536.40   28.80
  -1   0  -2 1555.02   29.50
  -1   0  -3    0.69    1.08
  -1   0  -3    0.05    0.90
   1   0   3    0.81    1.11
  -1   0  -4  924.50   23.96
  -1   0  -5   -0.20    1.47
  -1   0  -6  133.12    9.68
  -1   0  -7   -0.57    2.26
  -1   0  -8    6.68    3.49
   1  -1  -8   11.87    3.70
   1   1  -8   11.46    3.69
   1   1  -7   79.62    8.24
   1  -1  -7   70.49    7.75
   1  -1  -6  153.15   10.49
   1  -1  -5  436.40   16.74
   1   1  -5  420.20   14.70
   1  -1  -4 1572.72   32.14
   1   1  -4 1560.51   32.45
   1  -1  -4 1562.45   34.99
  -1   1   4 1617.83   31.81
  -1  -1   4 1580.23   32.77
   1  -1  -3  493.06   14.73
  -1   1   3  504.00   12.45
   1   1  -3  518.90   13.26
  -1  -1   3  507.46   13.35
   1  -1  -2 1249.01   24.52
   1  -1  -2 1241.05   21.52
  -1  -1   2 1191.82   23.11
  -1   1   2 1225.03   21.68
   1   1  -2 1249.48   23.25
   1   1  -1 1854.50   30.52
  -1  -1   1 1805.24   30.54
   1  -1  -1 1786.46   30.51
   1  -1   0  182.05    4.37
  -1  -1   0  180.99    4.81
   1   1   0  175.34    4.75
  -1   1   0  169.89    4.28
   1  -1   1  357.63    9.02
  -1  -1  -1  369.38    8.50
   1   1   1  345.43    8.75
  -1  -1  -1  362.52    8.76
   1  -1   1  370.71    9.18
  -1   1  -1  365.86    9.14
   1   1   1  361.93    8.50
  -1  -1  -2   78.40    4.27
   1  -1   2   76.00    4.42
  -1   1  -2   76.87    4.48
   1   1   2   77.05    4.37
  -1  -1  -2   78.80    4.22
   1  -1   3   75.55    5.11
   1   1   3   73.57    5.01
   1   1   3   79.99    5.15
  -1   1  -3   87.59    5.56
  -1  -1  -3   85.90    5.17
  -1  -1  -3   80.48    5.21
  -1  -1  -4  320.56   12.57
  -1   1  -5    0.46    1.62
  -1  -1  -5    1.79    2.14
  -1   1  -6  467.38   19.04
  -1  -1  -6  485.66   19.56
  -1   1  -7    0.73    2.13
  -1  -1  -7    2.09    2.33
  -1  -1  -8  148.40   12.43
  -1   1  -8  148.93   12.32
   1  -2  -8    9.58    3.36
   1   2  -8    6.30    3.42
   1   2  -7   52.67    6.97
   1  -2  -7   51.63    6.80
   1  -2  -6   83.19    7.84
   1   2  -6   92.17    7.43
   1  -2  -5   68.41    6.51
   1   2  -5   79.87    6.25
  -1   2   4    2.37    1.05
   1  -2  -4   -1.57    1.48
   1  -2  -4   -0.44    1.03
   1   2  -4    2.39    1.85
  -1  -2   3   45.79    3.73
  -1   2   3   51.15    3.11
   1  -2  -3   41.97    3.94
   1  -2  -3   51.99    3.28
   1   2  -3   52.44    4.01
   1  -2  -2    1.12    0.57
   1   2  -2    1.75    1.27
  -1  -2   2   -0.01    1.04
  -1   2   2    1.46    0.64
   1  -2  -2   -1.65    1.39
  -1  -2   1  476.97   11.26
  -1   2   1  512.63   11.11
   1  -2  -1  499.29   11.00
   1   2  -1  499.78   11.39
  -1   2   0 2869.36   45.00
   1   2   0 2797.73   45.95
  -1   2   0 2820.52   44.96
   1  -2   0 2844.66   45.12
   1  -2   0 2849.47   44.91
   1  -2   1   76.49    3.75
   1   2   1   71.92    3.47
   1   2   1   71.53    3.57
  -1  -2  -1   77.77    3.50
  -1   2  -1   75.73    3.71
  -1  -2  -1   77.65    3.69
  -1   2  -1   69.75    3.67
  -1   2  -2 1814.54   34.48
  -1   2  -2 1815.37   34.58
  -1  -2  -2 1811.79   33.99
  -1  -2  -2 1883.11   33.32
   1  -2   2 1816.56   34.43
   1   2   2 1799.19   33.90
   1   2   2 1756.65   33.33
  -1   2  -3  122.90    6.82
  -1  -2  -3  129.48    6.84
  -1  -2  -3  130.91    6.36
   1   2   3  113.43    6.23
  -1  -2  -4  109.15    7.26
  -1  -2  -5   46.91    5.35
  -1  -2  -6    1.35    2.14
  -1   2  -6    1.78    1.99
  -1  -2  -7   -1.15    2.52
  -1   2  -7   -0.59    1.99
  -1   2  -8    2.30    2.17
  -1  -2  -8   -0.13    2.54
   1  -3  -8    5.65    3.07
   1   3  -8    2.77    2.41
   1  -3  -7    4.78    2.50
   1   3  -6   32.11    4.79
   1  -3  -6   40.94    5.70
   1  -3  -5    0.57    2.11
   1   3  -5    5.48    2.43
   1  -3  -4  123.15    5.93
  -1   3   4  116.29    5.69
   1  -3  -4  116.81    7.57
   1   3  -4  105.19    6.69
  -1   3   3   75.92    3.71
   1  -3  -3   74.70    3.77
  -1  -3   3   71.97    4.93
   1   3  -3   73.01    5.05
   1  -3  -3   67.45    5.15
  -1  -3   2  870.43   19.66
   1  -3  -2  891.57   20.09
   1   3  -2  873.42   19.63
   1  -3  -1  347.99    9.43
  -1   3   1  364.41    6.97
   1   3  -1  357.95    9.93
  -1   3   1  374.17    9.56
  -1   3   0 8159.94  125.59
   1  -3   0 8219.94  126.16
  -1   3  -1 1058.35   20.76
   1   3   1 1052.48   20.12
   1   3   1 1046.37   21.18
  -1  -3  -1 1022.86   19.92
  -1   3  -1 1024.50   20.67
   1  -3   1 1037.54   20.93
  -1   3  -2   10.16    1.98
   1  -3   2    9.15    1.84
   1   3   2   12.18    1.86
  -1  -3  -2   10.37    1.84
  -1  -3  -2   10.76    1.68
   1   3   2   10.46    1.76
  -1  -3  -3  361.18   12.63
  -1  -3  -3  384.91   11.62
  -1   3  -3  382.18   12.86
   1   3   3  360.57   12.59
   1   3   3  362.61   11.80
   1   3   4   53.00    4.66
  -1   3  -4   51.82    5.23
  -1  -3  -4   46.37    4.78
  -1  -3  -5   60.56    6.18
  -1  -3  -6  107.84    9.02
  -1  -3  -7   -3.01    3.07
  -1   3  -7    1.36    1.63
  -1  -3  -8    4.59    3.33
  -1   3  -8    0.05    2.17
   1  -4  -8    2.95    2.98
   1   4  -7   40.66    5.88
   1  -4  -7   43.38    6.46
   1   4  -6   92.53    7.82
   1  -4  -6   86.80    8.37
   1  -4  -5   32.84    4.67
   1   4  -5   35.81    4.68
   1   4  -4  157.70    8.57
  -1   4   4  158.69    6.60
   1  -4  -4  158.65    6.49
   1  -4  -4  157.63    9.03
   1  -4  -3  362.08    8.95
   1   4  -3  374.07   12.59
   1  -4  -3  343.94   12.57
  -1  -4   3  358.55   12.31
  -1   4   2    6.98    1.53
   1   4  -2    8.04    1.97
  -1  -4   2    6.93    1.56
   1  -4  -2    4.28    1.64
  -1   4   1   38.89    2.95
  -1   4   1   39.37    2.09
   1   4  -1   42.19    3.61
   1  -4   0  275.37    7.57
  -1   4   0  279.64    7.57
   1  -4   1    3.38    1.42
  -1  -4  -1    3.28    1.00
   1   4   1    4.29    1.14
   1   4   1    3.45    1.33
  -1   4  -1    4.53    1.58
  -1  -4  -2  103.60    4.87
   1   4   2   97.10    5.70
   1  -4   2   97.06    5.61
   1   4   2   89.93    4.67
  -1  -4  -2   93.15    5.68
  -1   4  -2  103.93    5.83
  -1   4  -2   96.83    5.60
   1   4   3  189.84    8.14
  -1   4  -3  196.43    9.19
  -1  -4  -3  199.51    9.29
  -1  -4  -3  212.33    8.23
  -1  -4  -4   66.83    5.96
  -1   4  -4   83.57    6.66
   1   4   4   80.41    5.77
  -1   4  -5  134.75    9.16
  -1  -4  -5  137.69    9.57
  -1  -4  -6   78.52    7.79
  -1   4  -7   69.74    7.89
  -1  -4  -7   66.27    7.92
  -1   4  -8    2.53    2.34
   1  -5  -8   49.40    7.43
   1  -5  -7    7.18    3.26
   1   5  -7    8.14    3.57
   1   5  -6   84.36    7.87
   1  -5  -6   98.29    8.87
   1   5  -5   32.71    4.71
   1  -5  -5   24.54    4.19
   1  -5  -5   28.53    3.01
   1  -5  -4  195.90   10.51
  -1   5   4  218.81    7.92
   1  -5  -4  204.31    7.27
   1   5  -4  220.67   10.63
   1  -5  -3  367.41    8.84
   1   5  -3  376.59   13.16
   1  -5  -3  366.57   13.33
  -1  -5   2  186.24    8.20
   1  -5  -2  183.41    8.28
  -1   5   2  174.38    4.18
   1   5  -2  191.33    8.32
  -1   5   2  204.25    8.50
  -1   5   1 2498.49   44.10
   1   5  -1 2444.57   44.49
  -1   5   1 2386.67   40.49
   1  -5   0  535.00   12.79
  -1   5   0  553.90   12.75
  -1   5  -1  968.08   20.80
   1  -5   1  935.16   20.81
   1   5   1  909.25   19.19
   1   5   1  991.37   22.03
  -1   5  -2  940.11   22.30
   1   5   2  911.87   20.07
   1   5   2  960.50   22.90
  -1  -5  -2  952.19   20.21
   1  -5   2  961.40   22.56
  -1  -5  -3    7.34    1.56
  -1  -5  -3    7.34    2.10
   1   5   3    9.83    1.94
  -1   5  -3   10.58    2.82
  -1  -5  -4  752.89   22.88
  -1   5  -4  776.04   22.66
   1   5   4  760.48   20.46
  -1   5  -5   17.94    3.96
  -1  -5  -5   23.79    4.40
  -1  -5  -6    5.69    2.20
  -1  -5  -7    1.42    2.00
  -1   5  -8   -3.55    2.64
   1   6  -7    1.42    3.10
   1  -6  -7    1.12    2.43
   1  -6  -6   40.41    5.87
   1   6  -6   52.12    6.22
   1  -6  -5   -0.17    0.82
   1   6  -5    0.11    2.33
   1  -6  -5   -1.54    2.09
   1  -6  -4    2.46    2.21
   1  -6  -4    3.10    1.16
   1   6  -4    2.60    2.50
   1   6  -3  328.87   12.78
   1  -6  -3  330.73   13.21
   1  -6  -3  337.95    8.04
  -1   6   2  109.21    6.45
   1   6  -2  102.18    6.39
  -1   6   2   97.62    2.90
  -1   6   1    1.12    1.33
   1   6  -1    3.71    1.99
  -1   6   1    1.89    0.89
   1  -6   0 1461.17   28.40
  -1   6   0 1482.43   28.30
   1   6   1  387.98   10.77
  -1   6  -1  416.91   12.34
   1  -6   1  396.90   12.18
  -1  -6  -2  296.28    9.48
  -1   6  -2  300.98   11.22
   1   6   2  296.17    9.40
  -1   6  -3   24.50    3.79
   1   6   3   26.19    3.00
  -1  -6  -3   31.13    3.10
  -1  -6  -3   30.46    4.14
   1   6   4   18.90    2.84
  -1  -6  -4   13.92    3.21
  -1   6  -4   21.24    3.87
  -1  -6  -5   79.25    7.70
  -1   6  -5   88.44    7.87
   1   6   5   73.89    6.19
  -1   6  -6   11.73    4.01
  -1  -6  -6    6.09    2.63
  -1  -6  -7   13.71    4.14
  -1   6  -8   18.63    4.53
   1   7  -7   79.52    8.29
   1  -7  -7   85.18    9.34
   1   7  -6   28.50    4.76
   1  -7  -6   16.59    3.49
   1  -7  -5  548.37   21.42
   1   7  -5  558.31   20.40
   1   7  -4   34.84    4.60
   1  -7  -4   36.67    2.69
   1  -7  -4   35.50    4.89
   1   7  -3  675.39   20.19
   1  -7  -3  659.06   20.76
  -1   7   2  246.65    5.67
   1   7  -2  242.75   10.61
  -1   7   1  148.57    6.19
   1   7  -1  158.78    8.07
  -1   7   0    8.40    1.86
   1  -7   0    7.14    1.63
   1  -7   1 1099.41   25.03
  -1   7  -1 1114.57   24.88
   1   7   1 1081.68   22.75
   1   7   2   24.13    2.72
  -1   7  -2   22.70    3.44
   1   7   3  169.48    7.55
  -1  -7  -3  166.00    7.39
  -1  -7  -4  159.94   10.34
   1   7   4  146.61    7.84
  -1   7  -4  154.36    9.66
  -1  -7  -5  265.28   14.63
  -1   7  -5  273.81   14.22
   1   7   5  279.46   12.19
  -1  -7  -6    0.67    1.98
  -1   7  -6    1.26    2.61
  -1  -7  -7  120.14   11.44
   1  -8  -7   36.03    6.25
   1   8  -7   35.52    6.10
   1   8  -6   12.77    4.00
   1  -8  -6    0.44    2.20
   1   8  -5   33.46    5.28
   1  -8  -5   32.71    5.36
   1  -8  -4  129.69    5.05
   1   8  -4  135.09    9.39
   1  -8  -4  142.73    9.88
  -1   8   3   43.12    2.38
   1   8  -3   49.91    5.50
   1   8  -2    1.94    2.03
  -1   8   2   -0.01    0.46
   1   8  -1  256.70   10.90
  -1   8   1  264.49    9.16
  -1   8   0   52.84    4.20
   1   8   0   49.71    4.59
   1   8   1  152.43    6.64
  -1   8  -1  146.64    7.62
  -1   8  -2   26.28    3.77
   1   8   2   23.73    2.74
  -1  -8  -3  551.31   15.12
  -1   8  -3  499.49   17.73
   1   8   3  507.88   14.74
   1   8   4    5.96    1.95
  -1   8  -4    6.89    3.22
  -1  -8  -5  255.07   14.61
   1   8   5  239.16   11.11
  -1   8  -5  230.42   13.42
  -1  -8  -6    2.59    2.80
  -1   8  -6   -1.85    3.04
  -1  -8  -7    1.34    2.51
   1   9  -7    2.61    2.85
   1  -9  -7    3.16    2.37
   1  -9  -6    3.78    2.83
   1   9  -6   -0.29    2.81
   1  -9  -5  145.60   11.12
   1   9  -5  155.98   10.93
   1   9  -4   36.62    5.41
  -1   9   3    0.65    0.51
   1   9  -3    3.60    2.95
   1   9  -2   11.64    3.02
  -1   9   2   10.64    1.92
  -1   9   2   13.08    1.36
  -1   9   1  180.08    7.79
   1   9  -1  170.01    9.24
  -1   9   0   71.77    5.17
   1   9   0   90.18    6.48
   1   9   1  297.91   10.12
  -1   9  -1  274.19   11.40
  -1   9  -2  330.09   13.47
   1   9   2  327.40   10.95
  -1   9  -3   56.45    6.01
   1   9   3   58.24    4.51
  -1   9  -4   30.58    4.91
   1   9   4   28.09    3.54
   1   9   5   61.92    5.69
  -1   9  -5   68.72    7.38
  -1   9  -6   -2.23    3.30
   1  10  -6  297.14   16.66
   1  10  -5    1.56    2.66
   1  10  -4  710.27   24.61
  -1  10   3   20.04    1.62
   1  10  -3   20.99    4.33
  -1  10   2   19.87    2.72
   1  10  -2   18.55    3.75
  -1  10   2   20.67    1.80
   1  10  -1   60.75    6.11
  -1  10   1   50.23    4.44
  -1  10   0   19.61    3.21
   1  10   0   14.31    2.95
  -1  10  -1   79.51    6.21
   1  10   1   73.66    4.98
  -1  10  -2   13.60    3.25
   1  10   2   12.78    2.17
  -1  10  -3    3.94    2.58
   1  10   3   -0.32    1.21
  -1  10  -4  281.24   14.60
   1  10   4  285.68   11.44
  -1  10  -5   41.66    6.15
   1  10   5   53.08    5.24
  -1  10  -6   60.24    7.99
   1  11  -6    8.20    4.08
   1  11  -5   68.88    7.85
   1  11  -4   33.91    5.71
  -1  11   3  119.85    6.86
  -1  11   3  118.52    4.27
   1  11  -3  105.78    8.62
  -1  11   2  173.93    8.42
  -1  11   2  180.04    5.97
   1  11  -2  183.79   10.92
  -1  11   1  535.61   16.26
   1  11  -1  515.10   18.45
   1  11   0  264.81   12.45
  -1  11   0  270.01   11.45
   1  11   1    2.03    1.40
  -1  11  -1    1.86    1.90
   1  11   2   -0.29    1.26
  -1  11  -2   -1.46    2.15
  -1  11  -3   99.58    8.31
   1  11   3   99.88    6.06
  -1  11  -4   38.73    5.72
   1  11   4   35.47    3.96
  -1  11  -5  170.12   12.36
  -1  11  -6    3.53    2.50
   1  12  -6   -4.97    3.56
   1  12  -5  284.19   16.44
   1  12  -4    6.09    3.56
   1  12  -3   32.04    5.26
  -1  12   3   33.42    3.74
  -1  12   2   22.04    3.36
  -1  12   2   17.87    1.85
   1  12  -2   20.12    4.29
  -1  12   1   92.57    6.49
   1  12  -1   92.46    7.91
   1  12   0  188.55   10.69
  -1  12   0  180.87    9.66
  -1  12  -1  169.91    9.96
   1  12   1  179.48    8.61
   1  12   1  178.98   10.40
  -1  12  -2  302.57   14.41
   1  12   2  308.24   11.42
  -1  12  -3  129.87    9.76
   1  12   3  151.04    7.73
  -1  12  -4   -5.57    3.42
  -1  12  -5   70.43    8.42
   1  13  -5  123.68   11.14
   1  13  -4  119.98   10.41
  -1  13   3   97.65    6.81
   1  13  -3   94.06    8.74
  -1  13   2  235.08   10.92
   1  13  -2  210.24   12.71
  -1  13   1   60.40    5.59
   1  13  -1   54.49    6.44
  -1  13   0   19.73    4.03
   1  13   0   12.51    3.58
  -1  13  -1   68.05    6.55
   1  13   1   71.73    6.93
   1  13   1   72.86    5.64
  -1  13  -2    6.87    3.32
   1  13   2    8.62    2.26
  -1  13  -3    9.28    3.22
  -1  13  -4    4.48    2.37
  -1  13  -5   41.77    6.83
   1  14  -5   10.57    4.07
   1  14  -4   48.18    7.33
   1  14  -3    0.71    2.62
  -1  14   2  419.66   15.64
   1  14  -2  408.02   18.54
   1  14  -1    1.46    2.37
  -1  14   1    4.75    1.65
  -1  14   1    3.05    2.10
   1  14   0  366.62   16.55
  -1  14   0  331.92   14.53
   1  14   1   85.98    6.34
   1  14   1   71.67    7.26
  -1  14  -1   68.97    6.96
  -1  14  -2  206.95   12.54
   1  14   2  191.68   11.63
   1  14   2  208.93    9.66
  -1  14  -3  130.81   10.48
  -1  14  -4  149.99   11.97
   1  15  -4  106.31   10.60
   1  15  -3    5.49    2.81
   1  15  -2    6.00    3.05
  -1  15   2    3.00    1.91
   1  15  -1    1.98    2.06
  -1  15   1    4.78    2.27
  -1  15   0    3.41    2.05
   1  15   0    2.68    1.83
  -1  15  -1  107.91    8.84
   1  15   1   98.84    6.96
   1  15   1  104.66    8.90
  -1  15  -2    1.76    2.75
   1  15   2    2.88    2.48
   1  15   3   36.40    5.49
  -1  15  -3   41.54    6.47
  -1  15  -4   49.69    7.16
   1  16  -3    1.99    2.94
   1  16  -2   47.42    6.88
  -1  16   1    4.91    2.59
   1  16  -1   -2.29    2.68
  -1  16   0   17.87    3.65
   1  16   0   21.69    4.52
   1  16   0   21.99    3.67
  -1  16  -1   25.28    4.84
   1  16   1   19.15    4.30
   1  16   2   -2.08    1.76
  -1  16  -2    1.90    2.41
  -1  16  -3   15.35    4.33
   1  16   3    3.79    2.26
   1  17  -3   37.19    6.49
   1  17  -2    6.41    3.99
   1  17  -1   25.06    5.22
  -1  17   1   31.31    4.73
  -1  17   0    5.08    2.87
   1  17   0   -1.33    2.03
  -1  17  -1   66.53    7.52
   1  17   1   59.10    7.18
   1  17   2   33.71    5.53
  -1  17  -2   32.83    5.83
  -1  17  -3   12.26    3.94
   1  18  -2   64.57    8.29
   1  18  -1   -3.18    3.35
   1  18   0   16.30    4.19
  -1  18   0   12.38    3.51
  -1  18  -1    0.01    1.84
   1  18   1    3.09    2.58
  -1  18  -2   -1.14    2.49
   1  19   0   19.51    4.93
   1  19   1   31.21    5.78
  -1  19  -1   45.42    6.61
   2   0  -8   -1.63    2.27
   2   0  -7    1.06    2.26
   2   0  -6   20.31    4.30
   2   0  -5   -0.09    1.79
  -2   0   4 1092.01   24.46
   2   0  -4 1198.23   24.39
   2   0  -3    0.05    0.91
  -2   0   3    2.15    1.09
   2   0  -2    1.35    0.89
   2   0  -1   -1.49    0.91
  -2   0   0 2359.21   39.93
   2   0   0 2365.25   40.19
  -2   0  -1    0.51    1.04
   2   0   1   -0.29    1.36
  -2   0  -1    0.22    0.56
  -2   0  -2 1750.56   33.29
  -2   0  -2 1657.98   30.78
   2   0   2 1641.36   33.33
  -2   0  -3   -0.60    1.35
   2   0   3    2.04    1.50
  -2   0  -4  832.06   22.18
  -2   0  -5    1.68    2.05
  -2   0  -6   16.63    3.58
  -2   0  -7    0.20    2.51
  -2   0  -8   -0.10    1.86
   2  -1  -8   11.24    3.82
   2   1  -8    3.02    2.92
   2   1  -7    9.57    3.45
   2  -1  -7   12.50    3.87
   2  -1  -6  109.38    9.10
   2   1  -6  126.24    7.98
   2   1  -5   -0.31    1.70
  -2   1   5   -1.22    1.20
   2  -1  -5   -0.81    2.24
   2   1  -4   45.98    3.85
   2  -1  -4   46.88    3.48
   2  -1  -4   55.55    5.25
  -2  -1   4   44.20    3.82
  -2   1   4   48.03    3.56
   2   1  -3  161.62    6.57
  -2  -1   3  166.73    6.74
  -2   1   3  156.01    5.54
   2  -1  -3  168.46    5.53
   2   1  -2  224.89    7.10
   2  -1  -1  575.72   11.62
   2  -1   0 1086.03   20.58
  -2  -1   0 1123.67   21.27
  -2   1   0 1107.34   20.62
   2   1   0 1095.63   21.19
   2  -1   1   56.81    3.83
  -2   1  -1   56.99    2.33
  -2   1  -1   60.99    3.72
   2   1   1   51.10    2.72
  -2  -1  -1   61.04    3.01
   2   1   1   55.72    3.76
   2  -1   2   27.86    3.02
  -2  -1  -2   24.92    2.45
  -2   1  -2   26.47    2.37
   2   1   2   24.69    2.91
  -2   1  -2   27.44    2.88
  -2  -1  -2   27.44    2.81
   2  -1   2   26.42    3.06
  -2  -1  -3  261.89    9.87
  -2   1  -3  261.96    9.55
   2   1   3  259.42   10.63
   2  -1   3  261.62   10.97
   2   1   4    7.58    2.84
  -2  -1  -4   10.53    2.33
  -2   1  -4    9.19    2.18
  -2  -1  -5    6.91    2.46
  -2   1  -5    5.22    2.49
  -2  -1  -6   -0.37    1.99
  -2   1  -6    6.63    2.68
  -2   1  -7   -0.90    1.82
  -2  -1  -7    0.43    2.03
  -2  -1  -8    0.62    2.39
  -2   1  -8   11.50    3.67
   2  -2  -8   -3.27    2.96
   2   2  -8   -0.20    2.52
   2  -2  -7   13.12    3.76
   2   2  -6   14.19    3.06
   2  -2  -6   10.75    2.92
   2   2  -5   11.23    2.54
   2  -2  -5   12.93    3.09
  -2   2   5   15.64    2.33
   2  -2  -4  313.11   12.65
  -2   2   4  300.35    9.14
   2   2  -4  311.54   11.24
  -2  -2   4  308.02   11.30
   2  -2  -3   61.70    4.69
   2   2  -3   58.24    4.23
  -2  -2   3   64.59    4.39
  -2   2   3   61.34    2.99
   2  -2  -2  320.54    9.81
   2   2  -2  329.79    9.79
   2  -2  -1 3865.35   60.25
   2  -2  -1 3809.31   61.65
  -2  -2   0 4433.67   70.14
   2   2   0 4232.53   70.02
   2  -2   0 4248.15   68.82
   2  -2   0 4258.10   68.59
  -2   2   0 4338.19   68.60
   2   2   1  709.50   15.44
   2   2   1  739.07   16.73
   2  -2   1  720.73   16.54
  -2   2  -1  745.33   16.65
   2  -2   1  722.65   16.74
   2  -2   2    6.08    1.57
  -2  -2  -2    7.62    1.68
   2  -2   2    9.12    2.01
   2   2   2    9.60    1.60
  -2   2  -2   10.81    2.12
   2   2   2    7.97    1.93
  -2  -2  -2    9.60    1.76
  -2  -2  -3    2.36    1.27
   2   2   3    2.29    1.71
  -2  -2  -4   88.06    6.44
   2   2   4   84.45    6.52
  -2  -2  -5  144.78    9.34
  -2   2  -5  132.26    8.71
  -2  -2  -6   32.77    5.01
  -2   2  -6   37.60    5.20
  -2   2  -7   24.53    4.66
  -2  -2  -7   27.80    5.32
  -2   2  -8    4.11    2.90
  -2  -2  -8    8.69    3.52
   2  -3  -8   40.75    6.76
   2   3  -8   43.77    6.95
   2  -3  -7    2.90    2.46
   2   3  -7    0.14    2.25
   2   3  -6  160.78    9.66
   2  -3  -6  142.87   10.32
   2   3  -5   -1.68    2.38
   2  -3  -5   -1.15    1.87
  -2   3   5    1.68    1.17
   2  -3  -5    0.13    0.94
   2   3  -4  439.72   14.41
   2  -3  -4  415.46   15.18
  -2   3   4  438.94   11.19
   2  -3  -4  442.83   11.92
   2  -3  -3   33.51    3.54
  -2  -3   3   31.89    3.34
   2   3  -3   32.30    3.38
  -2   3   3   31.68    1.88
   2  -3  -2  127.00    5.99
  -2   3   2  135.23    6.12
   2   3  -2  136.90    6.38
   2  -3  -1 1519.96   24.52
   2  -3  -1 1502.00   27.54
  -2   3   1 1562.31   27.63
   2  -3  -1 1530.64   24.96
  -2   3   1 1511.58   24.93
   2  -3   0 1344.64   24.46
   2  -3   0 1372.23   24.58
  -2   3   0 1342.15   24.29
   2   3   0 1354.53   26.11
   2  -3   1 1525.99   29.42
   2   3   1 1508.10   29.09
   2  -3   1 1526.31   29.55
  -2  -3  -1 1592.23   29.76
  -2   3  -1 1521.64   29.47
   2   3   1 1551.17   29.85
  -2  -3  -2    2.65    1.07
   2   3   2    1.60    0.92
  -2   3  -2    0.15    0.81
   2   3   2    2.72    1.31
  -2  -3  -2    4.89    1.46
  -2  -3  -3   73.04    5.35
   2   3   3   76.66    5.64
  -2  -3  -4    2.98    1.94
   2   3   4    4.34    2.00
  -2  -3  -5   19.03    3.59
   2   3   5    9.80    2.84
  -2  -3  -6   16.75    3.91
  -2   3  -6   21.90    4.17
  -2  -3  -7   -0.52    2.72
  -2   3  -7    1.18    1.78
  -2   3  -8   -2.02    2.36
   2  -4  -8   18.44    4.69
   2  -4  -7   -0.19    2.56
   2   4  -7   -0.03    2.18
   2  -4  -6  188.39   12.23
   2   4  -6  178.97   10.48
   2   4  -5   75.99    6.29
  -2   4   5   77.16    4.74
   2  -4  -5   77.16    7.08
   2  -4  -5   85.48    5.09
   2   4  -4  214.36   10.08
   2  -4  -4  202.43   10.41
   2  -4  -4  220.78    7.31
  -2   4   4  226.31    7.11
   2  -4  -3  454.69   14.80
  -2  -4   3  501.74   15.05
  -2   4   3  477.56    9.47
   2   4  -3  462.64   14.57
  -2   4   2  397.77   11.79
   2  -4  -2  366.91   11.56
   2   4  -2  371.97   12.01
  -2   4   1   80.79    2.69
  -2   4   1   91.13    4.39
  -2   4   1   75.22    2.43
   2  -4  -1   82.36    2.85
   2  -4   0 1598.08   28.79
   2   4   0 1600.57   30.45
  -2   4   0 1599.74   28.53
  -2   4   0 1579.49   28.23
   2   4   1   45.80    3.62
   2  -4   1   51.20    3.73
  -2   4  -1   46.99    3.57
  -2   4  -1   52.24    3.82
  -2  -4  -1   56.55    3.83
   2   4   1   51.46    3.75
   2   4   2   36.65    3.50
  -2   4  -2   29.99    3.32
  -2   4  -2   34.62    3.61
  -2  -4  -2   31.02    3.07
   2   4   2   36.92    3.41
  -2   4  -3   26.45    3.85
   2   4   3   31.03    3.62
  -2  -4  -3   35.84    4.11
  -2  -4  -4  381.85   14.99
   2   4   4  368.53   14.14
  -2  -4  -5  258.13   13.17
   2   4   5  266.12   12.85
  -2  -4  -6  104.84    9.12
  -2   4  -6   94.12    8.31
  -2  -4  -7   68.86    8.11
  -2   4  -7   64.45    7.50
  -2   4  -8   10.49    3.71
   2  -5  -8    9.46    3.74
   2   5  -8    6.42    2.79
   2  -5  -7   25.48    5.14
   2   5  -7   31.70    5.16
   2   5  -6   69.43    6.98
   2  -5  -6   50.51    6.40
   2   5  -5   19.36    3.87
   2  -5  -5   16.88    3.64
   2  -5  -5   13.52    1.98
  -2   5   5   15.88    2.13
   2   5  -4  255.90   11.55
   2  -5  -4  257.01   12.06
  -2   5   4  261.82    7.50
   2  -5  -4  264.60    7.47
   2   5  -3   38.44    4.22
  -2   5   3   38.26    1.83
   2  -5  -3   41.52    4.24
  -2   5   2    3.89    1.40
   2  -5  -2    2.40    1.35
   2   5  -2    5.52    2.01
  -2   5   1   89.48    4.82
  -2   5   1   94.99    3.44
   2  -5  -1   92.91    3.53
  -2   5   1   92.40    2.80
  -2   5   0 1262.74   23.93
  -2   5   0 1257.77   23.54
   2   5   0 1217.45   25.35
   2  -5   0 1232.25   24.06
   2   5   1   40.80    3.66
   2  -5   1   34.32    3.24
  -2   5  -1   41.73    3.56
  -2  -5  -1   39.51    3.31
   2   5   1   35.88    3.19
  -2   5  -1   36.30    3.19
   2   5   2   66.87    4.99
   2   5   2   69.28    4.76
  -2  -5  -2   69.34    4.70
  -2   5  -2   64.77    5.01
  -2  -5  -3  538.93   17.50
   2   5   3  523.37   16.14
  -2   5  -3  543.95   17.54
  -2   5  -4    9.80    3.12
   2   5   4    9.15    2.69
  -2  -5  -4   11.54    3.01
  -2  -5  -5  266.25   13.89
   2   5   5  271.09   13.02
  -2  -5  -6    1.46    2.49
  -2  -5  -7    3.91    2.53
  -2   5  -7   -2.74    2.31
  -2   5  -8   21.37    5.03
   2   6  -8   38.10    6.20
   2   6  -7   49.68    6.54
   2  -6  -7   45.62    6.63
   2   6  -6    2.93    2.28
   2  -6  -6    1.41    2.05
   2  -6  -5   41.60    3.06
   2  -6  -5   43.10    5.45
   2   6  -5   34.93    4.99
  -2   6   4   12.17    1.46
   2   6  -4   13.59    3.17
   2  -6  -4    9.34    2.41
   2  -6  -3   46.75    4.75
   2   6  -3   38.97    4.66
  -2   6   2    1.13    0.57
  -2   6   2    0.53    1.04
   2   6  -2    3.03    2.25
  -2   6   1   65.29    2.52
  -2   6   1   71.78    4.70
  -2   6   1   75.85    3.48
   2   6  -1   68.90    5.35
  -2   6   0  162.43    6.40
  -2   6   0  161.55    5.94
   2   6   0  154.84    7.01
   2  -6   0  170.90    6.60
  -2   6  -1  660.28   16.96
   2  -6   1  639.87   16.89
  -2   6  -1  666.94   16.76
   2   6   1  648.29   16.70
   2   6   2  247.21    9.58
  -2   6  -2  252.76   10.52
   2   6   3  675.70   18.84
  -2   6  -3  687.55   20.57
  -2  -6  -4    3.95    2.14
  -2   6  -4    1.94    2.17
   2   6   4    4.42    2.05
  -2  -6  -5   96.35    8.46
   2   6   5  105.18    7.97
  -2  -6  -6   12.69    3.28
  -2  -6  -7   60.83    7.94
   2   7  -8   -3.71    3.49
   2   7  -7    1.52    3.05
   2  -7  -7    3.56    2.79
   2   7  -6    7.47    3.19
   2  -7  -6    2.78    2.60
   2  -7  -5   -1.22    2.10
   2   7  -5   -1.06    2.15
   2   7  -4  157.73    9.59
   2  -7  -4  145.21    9.54
  -2   7   4  148.87    5.29
   2  -7  -4  149.64    3.93
   2  -7  -3  314.16   13.18
   2   7  -3  307.19   13.16
   2   7  -2  289.08   12.22
  -2   7   2  309.95    7.76
  -2   7   1 1546.10   28.32
  -2   7   1 1620.50   32.60
   2   7  -1 1602.63   34.07
  -2   7   0  267.82    9.09
   2   7   0  275.63    9.95
  -2   7   0  249.23    8.15
   2  -7   0  261.21    9.14
  -2   7  -1 1202.43   26.53
  -2   7  -1 1186.39   25.92
   2   7   1 1183.54   26.13
   2  -7   1 1225.82   27.14
  -2   7  -2   66.26    5.51
   2   7   2   66.99    4.87
  -2   7  -3    8.14    2.71
   2   7   3   19.85    2.95
  -2   7  -4    0.48    2.43
   2   7   4    3.22    2.02
  -2   7  -5  176.52   11.56
   2   7   5  162.58   10.01
  -2  -7  -6   16.96    4.25
  -2  -7  -7    6.08    2.76
   2  -8  -7    3.71    2.66
   2   8  -7    7.60    3.34
   2   8  -6   10.31    3.85
   2  -8  -6   12.94    3.96
   2  -8  -5   15.48    3.53
   2   8  -5   19.82    4.05
  -2   8   4    1.42    0.79
   2  -8  -4    0.69    2.03
   2   8  -4    4.49    2.50
  -2   8   3   53.88    3.02
   2   8  -3   55.81    5.81
  -2   8   2   16.74    1.84
   2   8  -2   13.33    3.22
   2   8  -1   32.22    4.28
  -2   8   1   35.90    2.22
  -2   8   1   32.19    2.80
  -2   8   0  121.57    6.25
   2   8   0  105.38    6.23
   2  -8   0  113.40    6.09
  -2   8   0  114.34    5.44
  -2   8  -1   38.03    4.04
  -2   8  -1   30.88    3.29
   2   8   1   36.55    3.68
  -2   8  -2    8.92    2.56
   2   8   2    8.16    2.12
   2   8   3  182.40    8.98
  -2   8  -3  179.92   10.22
   2   8   4    3.70    2.03
  -2   8  -4    0.48    2.35
  -2   8  -5    2.85    2.58
   2   8   5    5.62    2.32
   2   8   6    8.63    3.20
   2  -9  -7   62.89    8.75
   2   9  -7   76.29    8.55
   2   9  -6    6.19    3.24
   2  -9  -6    0.17    1.74
   2  -9  -5  320.27   16.79
   2   9  -5  316.24   15.78
   2   9  -4   36.56    5.41
   2   9  -3   -0.25    2.31
  -2   9   3    2.25    1.04
  -2   9   2   14.29    1.98
   2   9  -2   12.53    3.52
  -2   9   1   90.14    3.93
   2   9  -1   97.19    7.27
  -2   9   1   91.61    5.17
  -2   9   0  285.63   10.51
  -2   9   0  271.66    9.26
   2   9   0  257.56   10.54
   2  -9   0  265.19   10.34
  -2   9  -1   -1.43    1.73
   2   9   1    1.45    1.55
  -2   9  -2   13.82    3.13
   2   9   2   10.98    2.20
   2   9   3    3.95    1.99
  -2   9  -3   -0.10    1.96
  -2   9  -4    5.29    2.79
   2   9   4    3.48    1.60
   2   9   5    4.27    2.22
  -2   9  -5    1.61    3.14
   2  10  -7    2.10    2.99
   2  10  -6    7.22    4.13
   2 -10  -6   12.18    4.09
   2  10  -5    3.88    3.55
   2  10  -4    7.03    3.37
  -2  10   4    4.90    1.36
   2  10  -3   52.44    6.27
  -2  10   3   48.95    3.50
   2  10  -2  202.74   11.41
  -2  10   2  207.70    7.90
   2  10  -1  230.84   11.78
  -2  10   1  205.55    6.76
  -2  10   1  212.94    8.56
   2  10   0    0.78    1.61
  -2  10   0    1.64    1.46
  -2  10  -1   35.11    4.24
   2  10   1   37.54    4.16
  -2  10  -2   14.48    3.36
   2  10   2   17.49    2.92
  -2  10  -3  144.99    9.70
   2  10   3  129.66    7.75
  -2  10  -4    4.16    2.82
   2  10   4    1.43    1.49
  -2  10  -5   -1.43    3.50
   2  10   5    1.56    1.84
  -2  10  -6   64.87    8.21
   2  11  -6    4.96    3.64
   2  11  -5   47.71    6.76
   2  11  -4  267.95   14.77
   2  11  -3    1.06    2.91
  -2  11   3    2.80    1.21
  -2  11   2  161.26    3.67
  -2  11   2  141.91    3.63
   2  11  -2  166.00   10.60
  -2  11   2  162.56    7.31
  -2  11   1    3.71    1.88
  -2  11   1    1.60    0.80
   2  11  -1    5.70    2.94
  -2  11   0  100.42    6.70
   2  11   0  108.72    7.28
   2  11   0  107.96    8.42
  -2  11  -1  247.94   11.54
   2  11   1  234.25   10.51
  -2  11  -2  268.45   12.93
   2  11   2  280.77   11.74
  -2  11  -3  108.42    8.76
   2  11   3  101.30    6.97
  -2  11  -4   22.73    4.75
   2  11   4   23.93    3.72
  -2  11  -5   46.62    6.63
   2  12  -6   68.32    8.60
   2  12  -5  193.82   13.60
   2  12  -4   11.50    4.01
   2  12  -3   31.03    5.40
  -2  12   3   30.82    3.06
   2  12  -2  286.64   14.79
  -2  12   2  331.04   11.51
  -2  12   1   -5.20    1.82
   2  12  -1    1.48    2.47
   2  12   0  230.53   10.90
  -2  12   0  239.00   11.00
   2  12   0  219.22   12.27
  -2  12  -1  269.53   12.57
   2  12   1  268.86   11.68
  -2  12  -2   56.49    6.25
   2  12   2   58.84    5.41
  -2  12  -3   35.03    5.25
   2  12   3   32.18    4.13
  -2  12  -4   57.80    7.07
   2  12   4   64.41    6.01
  -2  12  -5  138.00   11.65
   2  13  -5    2.60    2.84
   2  13  -4   15.63    4.06
   2  13  -3   87.47    8.77
   2  13  -2  180.80   11.93
  -2  13   2  174.83    8.56
  -2  13   1  193.83    9.66
   2  13  -1  192.23   12.28
  -2  13   0   30.63    4.18
   2  13   0   32.58    5.15
   2  13   0   35.61    4.44
   2  13   1   60.02    5.50
  -2  13  -1   49.38    5.58
  -2  13  -2   45.91    5.84
   2  13   2   51.20    5.16
  -2  13  -3   35.41    5.54
   2  13   3   33.80    4.20
  -2  13  -4    6.19    3.43
  -2  13  -5    2.96    3.50
   2  14  -5    6.42    3.99
   2  14  -4    2.47    3.17
   2  14  -3  119.98   10.50
   2  14  -2   14.96    3.92
  -2  14   2   12.50    2.77
  -2  14   1  101.88    7.22
   2  14  -1  104.49    9.20
   2  14   0   -2.48    2.58
   2  14   0    2.91    2.15
  -2  14  -1   85.88    7.48
   2  14   1   81.08    6.60
   2  14   1   79.83    8.05
  -2  14  -2  130.84    9.82
   2  14   2  134.17    8.51
  -2  14  -3   16.25    4.02
  -2  14  -4  149.45   11.99
   2  15  -4   17.87    5.25
   2  15  -3   13.06    4.69
   2  15  -2   20.14    4.84
  -2  15   1   -1.18    1.76
   2  15  -1    1.42    2.35
  -2  15   0    5.36    2.40
   2  15   0    6.09    3.36
   2  15   0    2.77    1.47
   2  15   1   -0.41    2.07
   2  15   1    1.92    1.70
  -2  15  -1    3.69    2.27
  -2  15  -2    8.15    3.10
   2  15   2    8.10    2.86
  -2  15  -3    5.86    3.26
  -2  15  -4   84.50    9.07
   2  16  -3   -4.04    3.40
   2  16  -2   -5.16    3.26
   2  16  -1    5.88    3.43
  -2  16   0  109.63    8.71
   2  16   0  109.52    8.43
   2  16   0  112.60   10.09
   2  16   1   16.16    3.94
   2  16   1   14.23    3.15
  -2  16  -1   18.95    4.08
  -2  16  -2   19.33    4.39
   2  16   2   13.50    4.00
  -2  16  -3    1.86    3.18
   2  17  -2   91.96    9.86
   2  17  -1   -1.50    2.75
  -2  17   0    7.23    3.33
   2  17   0   10.77    4.52
   2  17   0    8.28    2.48
  -2  17  -1   87.91    8.42
   2  17   1   80.08    8.70
   2  17   2   -0.01    2.83
  -2  17  -2    0.31    2.50
  -2  17  -3   16.65    4.54
   2  17   3    8.60    3.47
   2  18  -1   40.27    6.73
   2  18  -1   33.19    5.09
   2  18   0  114.41   10.77
  -2  18  -1    7.54    3.55
   2  18   1    5.11    2.96
  -2  18  -2    2.01    2.46
   2  18   2   10.37    3.78
   3   0  -8    1.09    2.41
   3   0  -7    0.86    2.00
   3   0  -6   67.65    7.11
   3   0  -6   64.63    5.32
   3   0  -5   -2.05    1.36
  -3   0   5   -0.67    1.09
   3   0  -4  593.96   15.02
  -3   0   4  598.93   15.31
   3   0  -3   -0.19    0.91
   3   0  -2    0.64    1.15
   3   0  -1    0.76    1.10
   3   0   0 3020.55   53.34
  -3   0   0 3166.86   53.37
   3   0   1   -1.44    1.55
  -3   0  -1    0.36    1.15
  -3   0  -2  405.32   10.59
   3   0   2  396.93   13.48
  -3   0  -3   -0.65    1.13
   3   0   3   -1.47    2.01
  -3   0  -4  156.02    8.41
   3   0   4  154.95    9.68
  -3   0  -5    1.07    1.59
  -3   0  -6  104.50    8.52
  -3   0  -7    1.61    2.16
   3   1  -8    2.51    3.25
   3  -1  -8   -5.96    3.12
   3   1  -7   74.81    8.21
   3   1  -7   78.80    6.70
   3  -1  -7   63.70    7.57
   3   1  -6    0.61    1.74
   3  -1  -6   -0.23    1.89
   3  -1  -5    8.30    1.90
   3   1  -5   13.56    2.58
  -3   1   5   10.98    1.87
   3  -1  -5    9.40    2.88
   3   1  -4   58.61    4.43
   3  -1  -4   59.49    3.65
  -3  -1   4   60.90    4.50
  -3   1   4   65.03    3.95
   3  -1  -3  157.52    5.29
   3   1  -3  144.09    6.31
   3  -1  -2  602.27   12.48
   3   1  -2  585.10   14.32
   3  -1  -1   99.29    4.52
   3   1  -1   92.24    4.85
  -3   1   1   98.95    4.43
   3  -1   0  236.11    8.09
   3   1   0  255.99    8.77
  -3  -1   0  260.12    8.69
  -3   1   0  264.93    8.35
  -3   1  -1  135.31    3.54
   3   1   1  115.97    4.45
   3  -1   1  143.00    6.71
  -3   1  -1  139.59    6.47
   3   1   1  135.99    6.64
  -3  -1  -1  139.16    6.61
  -3  -1  -2   30.33    2.71
  -3   1  -2   29.73    2.39
   3   1   2   29.99    3.55
   3  -1   2   26.62    3.46
  -3  -1  -3  135.57    6.87
  -3   1  -3  132.42    6.47
   3  -1   3  125.65    7.99
   3   1   3  129.52    8.02
  -3  -1  -4   66.10    5.45
  -3   1  -4   55.48    4.88
   3  -1   4   62.02    6.45
   3   1   4   60.44    6.12
  -3  -1  -5  105.86    7.80
  -3   1  -5  109.79    7.85
  -3   1  -6    9.83    2.88
  -3  -1  -6   17.32    3.62
  -3  -1  -7   28.34    5.05
  -3   1  -7   25.86    4.98
   3  -2  -8   71.50    8.64
   3   2  -8   90.66    9.91
   3   2  -7   14.40    3.25
   3  -2  -7   11.93    3.75
   3  -2  -6  404.95   18.08
   3   2  -6  451.53   15.97
   3   2  -5   16.28    2.98
   3  -2  -5   13.39    3.17
  -3   2   5   16.81    2.26
  -3  -2   4   26.55    3.15
   3   2  -4   23.70    3.20
   3  -2  -4   29.51    2.30
   3  -2  -4   29.40    4.02
  -3   2   4   28.40    2.35
   3  -2  -3  186.22    8.36
   3   2  -3  174.84    7.50
   3  -2  -2  398.16   11.26
   3  -2  -2  402.21    9.81
   3   2  -2  423.32   12.02
   3  -2  -1  492.63   10.66
   3  -2  -1  505.09   11.65
  -3   2   1  472.59   11.29
   3   2  -1  469.53   12.92
   3   2   0   56.00    4.09
  -3  -2   0   61.31    4.07
  -3   2   0   63.26    3.79
   3  -2   0   61.29    3.79
   3   2   1  106.75    4.66
   3  -2   1  102.10    5.64
  -3   2  -1  111.98    3.06
   3  -2   1  112.20    6.02
  -3   2  -1  113.64    5.86
   3   2   1  108.89    5.98
  -3  -2  -1  118.86    6.17
   3   2   2  416.01   11.93
  -3   2  -2  442.71   10.74
   3  -2   2  425.60   14.21
   3   2   2  435.59   14.05
  -3  -2  -3    0.50    1.13
   3  -2   3    1.72    1.84
  -3   2  -3    1.40    1.09
   3   2   3    4.68    2.33
  -3  -2  -4  150.35    8.56
  -3   2  -4  150.16    7.99
   3   2   4  154.17    9.60
  -3  -2  -5    1.40    1.70
   3   2   5   -1.22    2.28
  -3   2  -5   -0.97    2.10
  -3  -2  -6    6.83    2.58
  -3   2  -6   13.52    3.17
  -3  -2  -7    6.25    2.67
  -3   2  -7    5.45    2.94
   3   3  -8    2.07    2.21
   3  -3  -8   -0.48    2.84
   3  -3  -7   44.68    6.48
   3   3  -7   56.15    6.25
   3   3  -6   76.95    6.67
   3  -3  -6   59.48    6.75
   3   3  -5  171.38    9.16
   3  -3  -5  164.67   10.21
   3  -3  -5  174.45    7.64
  -3   3   5  164.07    6.63
   3  -3  -4  324.29   13.17
  -3   3   4  332.30    8.24
   3   3  -4  309.66   11.92
   3  -3  -3   -1.72    1.42
   3   3  -3   -0.37    1.52
   3  -3  -2  273.70    9.21
   3  -3  -2  286.62    7.19
   3   3  -2  289.80   10.28
   3  -3  -1   31.32    2.26
   3  -3  -1   32.37    2.30
   3  -3  -1   30.30    1.97
  -3   3   1   32.94    2.29
   3   3  -1   32.22    3.09
   3  -3   0  164.79    6.41
  -3   3   0  167.32    6.32
  -3  -3   0  178.32    7.35
   3  -3   0  165.56    6.24
   3   3   0  148.95    6.99
   3   3   1   98.99    5.01
   3   3   1  100.29    5.84
  -3  -3  -1  112.39    6.03
   3  -3   1  103.82    5.67
   3  -3   1  101.76    5.74
  -3   3  -1  101.33    5.57
   3   3   2  347.62   11.18
   3   3   2  348.21   12.47
   3  -3   2  361.75   12.88
  -3  -3  -3  131.41    7.42
   3   3   3  132.88    8.11
  -3  -3  -4   72.14    6.17
  -3   3  -4   70.73    5.50
   3   3   4   71.38    6.61
  -3  -3  -5   24.07    4.09
   3   3   5   21.37    4.08
  -3   3  -5   20.96    3.60
  -3  -3  -6    7.61    3.28
  -3   3  -6    7.60    2.62
  -3   3  -7    0.59    1.88
  -3  -3  -7    3.25    2.29
   3  -4  -8    0.21    2.39
   3   4  -8    0.33    2.68
   3   4  -7   -1.54    1.90
   3  -4  -7    0.78    2.27
   3  -4  -6   80.15    8.01
   3   4  -6   74.74    6.76
   3  -4  -5    0.52    1.98
   3  -4  -5   -0.72    1.04
   3   4  -5    0.07    1.94
  -3   4   5    0.00    0.67
   3  -4  -4   22.32    3.51
   3   4  -4   18.86    3.20
   3  -4  -3  297.91   11.28
   3  -4  -3  278.63    6.72
   3   4  -3  284.15   11.14
   3  -4  -2  574.72   15.32
  -3   4   2  607.02   15.61
   3  -4  -2  610.28   11.49
   3   4  -2  600.53   16.93
   3  -4  -1  443.04    9.87
  -3   4   1  457.63   11.21
   3  -4  -1  451.87   10.37
  -3   4   1  449.52   10.21
  -3   4   0  418.70    9.52
   3  -4   0  419.76   11.26
  -3   4   0  430.84   11.21
   3   4   0  416.03   12.84
   3  -4   0  425.83   11.41
   3   4   1   30.13    2.98
  -3   4  -1   27.00    2.94
   3  -4   1   23.27    2.72
   3  -4   1   29.02    3.15
   3   4   1   34.39    3.63
   3   4   2    2.30    1.11
   3   4   2    1.53    1.43
   3   4   3    2.08    1.65
  -3  -4  -4   35.29    4.43
   3   4   4   39.63    4.94
  -3  -4  -5   16.55    3.56
   3   4   5   15.83    3.65
  -3   4  -5   17.43    3.33
  -3  -4  -6   21.97    4.28
  -3   4  -6   27.40    4.38
  -3  -4  -7   -2.25    3.08
   3  -5  -8    4.93    3.20
   3   5  -8    2.17    2.29
   3  -5  -7   20.39    4.86
   3   5  -7   21.08    4.48
   3   5  -6    0.51    2.13
   3  -5  -6    0.76    2.40
   3   5  -5  193.40   10.75
   3  -5  -5  197.45   11.57
   3  -5  -5  191.97    6.99
   3  -5  -4   48.07    5.22
   3   5  -4   47.94    5.21
   3  -5  -3    8.11    2.26
   3   5  -3   13.77    3.07
   3  -5  -2    1.61    1.24
   3   5  -2    2.97    2.26
   3  -5  -2    1.46    0.39
  -3   5   2    0.80    0.90
  -3   5   1  219.25    6.27
   3  -5  -1  224.71    6.47
   3  -5  -1  228.65    6.45
  -3   5   0  720.54   15.18
   3  -5   0  668.02   16.08
   3  -5   0  699.27   16.11
  -3   5   0  681.80   15.70
   3   5   0  672.39   17.97
   3   5   1  226.78    9.31
   3  -5   1  240.40    9.43
  -3   5  -1  228.07    8.94
   3   5   1  234.10    9.62
   3   5   2   22.32    3.11
   3   5   3   83.00    6.55
   3   5   4   40.20    5.10
  -3  -5  -5  108.80    8.84
   3   5   5   93.85    8.10
  -3  -5  -6   21.21    4.49
   3   5   6   20.86    4.29
  -3   5  -6   21.72    3.97
  -3  -5  -7    7.32    3.17
   3   6  -8    7.06    3.20
   3   6  -7   66.15    7.37
   3  -6  -7   50.51    7.04
   3   6  -6   23.97    4.57
   3  -6  -6   22.89    4.52
   3   6  -5  347.99   15.10
   3  -6  -5  327.62   15.54
   3  -6  -4  492.61   17.92
   3   6  -4  495.23   17.52
   3  -6  -3   88.21    6.45
   3   6  -3   87.05    6.79
  -3   6   2   34.88    3.58
   3   6  -2   29.35    3.89
  -3   6   1  331.86   10.40
  -3   6   1  313.70    7.93
   3  -6  -1  306.78    8.44
  -3   6   0  322.02    9.95
   3   6   0  318.14   11.55
  -3   6   0  308.62    9.44
   3  -6   0  308.96    9.99
  -3   6  -1  475.19   14.03
   3   6   1  450.50   14.58
  -3   6  -1  479.61   14.34
  -3   6  -2   28.80    3.83
   3   6   2   32.60    3.89
   3   6   3   13.50    2.61
   3   6   4   28.22    4.05
   3   6   5    9.19    2.80
   3   6   6   52.60    6.47
  -3  -6  -7    7.07    3.11
   3   7  -8    4.12    2.68
   3  -7  -7   13.94    3.82
   3   7  -7   19.09    4.63
   3  -7  -6   95.47    9.10
   3   7  -6   79.86    7.84
   3   7  -5  162.13   10.56
   3  -7  -5  170.88   11.22
   3   7  -4    1.67    2.19
   3  -7  -4    2.11    1.94
   3  -7  -3   18.08    3.17
   3   7  -3   18.96    3.65
   3   7  -2   -0.92    2.02
  -3   7   1 1509.58   30.81
  -3   7   1 1436.36   25.75
   3  -7  -1 1461.00   27.50
  -3   7   1 1485.97   27.04
   3   7   0  554.68   16.79
  -3   7   0  588.73   14.97
  -3   7   0  568.65   14.38
   3  -7   0  573.76   15.33
   3   7   1   14.52    2.78
  -3   7  -1   14.92    2.66
   3   7   2   27.54    3.75
  -3   7  -2   20.57    3.42
  -3   7  -3    0.22    2.23
   3   7   3   -1.32    2.05
   3   7   4   76.32    6.87
   3   7   5  244.26   13.29
   3   7   6   16.00    3.65
   3  -8  -7   19.84    4.94
   3   8  -7    3.80    2.60
   3  -8  -6    2.38    2.89
   3   8  -6    0.90    2.45
   3   8  -5    9.66    3.41
   3  -8  -5    8.03    3.15
   3  -8  -4  178.90   11.01
   3   8  -4  185.33   11.02
   3   8  -3  209.62   11.34
  -3   8   2   48.29    2.44
   3   8  -2   41.64    5.24
   3  -8  -1    1.80    0.84
  -3   8   1    3.65    0.81
  -3   8   1    1.56    0.94
  -3   8   1    3.11    1.56
  -3   8   0  242.26    8.66
   3  -8   0  243.64    9.48
   3   8   0  258.11   10.92
  -3   8   0  269.05    9.58
   3   8   1  343.22   12.89
  -3   8  -1  331.28   12.25
  -3   8  -2   42.08    4.70
   3   8   2   39.76    4.43
  -3   8  -3    4.70    2.58
   3   8   3    2.72    1.42
   3   8   4    0.36    1.91
   3   8   5    3.89    2.25
   3   8   6    6.94    2.56
   3   9  -7    1.46    3.20
   3  -9  -7    6.42    4.26
   3  -9  -6   27.40    5.27
   3   9  -6   33.96    5.60
   3  -9  -5   36.22    5.62
   3   9  -5   41.87    5.87
   3   9  -4   16.10    3.95
   3   9  -3   -0.11    2.23
  -3   9   2   91.99    3.98
   3   9  -2   89.33    7.57
  -3   9   1   65.99    4.14
  -3   9   1   71.54    3.46
   3   9  -1   73.88    6.85
  -3   9   0   66.38    4.82
  -3   9   0   72.30    4.61
   3   9   0   64.33    5.53
   3  -9   0   65.97    5.02
  -3   9  -1  102.41    6.74
   3   9   1  111.23    7.21
  -3   9  -2   33.60    4.44
   3   9   2   32.62    4.25
  -3   9  -3   35.50    5.01
   3   9   3   35.08    4.55
  -3   9  -4    2.38    2.59
   3   9   4    0.17    1.55
   3   9   5   61.13    6.64
   3   9   6   14.27    3.62
   3  10  -7    3.92    3.46
   3 -10  -6   -0.41    2.14
   3  10  -6    4.43    3.39
   3  10  -5   68.92    7.87
   3  10  -4   73.68    7.61
  -3  10   3  167.48    4.81
   3  10  -3  155.52   10.62
  -3  10   2    0.87    0.91
   3  10  -2    4.77    3.01
  -3  10   1    3.14    1.60
   3  10  -1    1.26    2.67
  -3  10   1    1.69    0.83
  -3  10   0    1.55    1.50
  -3  10   0    2.46    1.09
   3  10   0    2.08    1.79
   3  10   1   -0.12    1.58
  -3  10  -1    2.68    1.69
  -3  10  -2   47.17    5.29
   3  10   2   65.52    5.84
  -3  10  -3  124.58    9.23
   3  10   3  113.76    8.05
  -3  10  -4    6.84    3.42
   3  10   4    0.24    1.85
   3  10   5   11.65    3.36
   3  11  -6   25.58    5.46
   3  11  -5    1.38    2.89
   3  11  -4   -3.31    3.20
   3  11  -3    2.43    2.77
   3  11  -2    7.13    3.48
  -3  11   2    2.35    0.93
  -3  11   1   13.99    2.37
   3  11  -1   10.63    3.22
  -3  11   0    5.18    1.54
  -3  11   0    3.70    1.25
   3  11   0    3.17    2.21
  -3  11  -1   18.69    3.46
   3  11   1   13.09    2.94
  -3  11  -2    7.86    2.62
   3  11   2    8.62    2.53
  -3  11  -3   21.08    4.30
   3  11   3   12.77    3.24
   3  11   4   21.26    3.98
  -3  11  -4   22.48    4.60
   3  11   5    1.79    1.91
   3  12  -6   53.90    7.93
   3  12  -5  111.58   10.40
   3  12  -4    0.04    2.56
   3  12  -3   -1.82    3.32
  -3  12   2   75.42    4.71
   3  12  -2   67.85    7.62
  -3  12   1  113.45    6.56
   3  12  -1  113.36    9.32
  -3  12   0  150.16    8.52
   3  12   0  166.69    9.81
  -3  12  -1   -1.41    2.05
   3  12   1   -3.10    2.14
   3  12   2  211.86   11.24
  -3  12  -2  203.22   11.70
  -3  12  -3    3.34    2.78
   3  12   3    1.19    1.36
  -3  12  -4  139.70   11.26
   3  12   4  138.03    9.61
  -3  12  -5    2.10    2.57
   3  13  -5  104.89   10.44
   3  13  -4  126.29   11.05
   3  13  -3   61.20    7.72
   3  13  -2   62.10    7.64
  -3  13   1   -1.54    1.27
   3  13  -1   -3.17    2.98
  -3  13   0  203.92   10.40
   3  13   0  204.25   11.25
   3  13   0  208.57   13.04
  -3  13  -1   50.92    5.60
   3  13   1   59.18    5.94
  -3  13  -2   18.65    4.01
   3  13   2   17.44    3.60
  -3  13  -3  100.52    9.03
   3  13   3   85.56    7.35
  -3  13  -4   58.65    7.49
   3  14  -5   42.45    7.17
   3  14  -4   20.16    5.07
   3  14  -3   -3.88    3.60
   3  14  -2   22.23    4.99
   3  14  -1    2.58    1.58
  -3  14   1    0.21    1.48
   3  14  -1    2.91    2.48
  -3  14   0   11.42    2.89
   3  14   0    9.66    3.32
   3  14   0   12.63    3.30
   3  14   1  154.63    9.94
  -3  14  -1  152.80    9.99
   3  14   2    7.56    2.75
  -3  14  -2    5.94    2.66
  -3  14  -3   27.67    5.09
   3  14   3   26.09    4.25
  -3  14  -4   -5.92    3.13
   3  15  -4    8.68    4.54
   3  15  -3   11.96    3.43
   3  15  -2  174.10   13.05
   3  15  -1   26.32    5.33
   3  15  -1   22.83    4.28
  -3  15   0   32.81    4.50
   3  15   0   36.11    6.10
   3  15   0   35.25    5.13
  -3  15  -1   85.22    7.68
   3  15   1   81.53    7.41
   3  15   1   86.18    9.12
   3  15   2   27.57    4.46
  -3  15  -2   18.32    4.23
  -3  15  -3   22.84    4.81
   3  16  -3   22.34    5.35
   3  16  -2   24.07    5.64
   3  16  -1   65.42    8.28
   3  16  -1   71.51    7.46
   3  16   0   27.01    5.46
   3  16   0   31.08    4.79
   3  16   1    7.35    3.19
  -3  16  -1   15.06    3.93
   3  16   1    9.88    3.13
  -3  16  -2    1.87    1.96
  -3  16  -3   48.86    7.02
   3  17  -2   21.86    5.52
   3  17  -1   -2.26    3.03
   3  17  -1   -0.35    1.80
   3  17   0    0.79    2.79
   3  17   0    0.75    2.03
   3  17   1   51.96    7.53
   3  17   2   57.15    7.78
  -3  17  -2   58.73    7.26
   3  18  -1   10.28    3.44
   4   0  -8   90.46    9.90
   4   0  -7    2.09    2.41
   4   0  -6  282.23   11.04
   4   0  -5   -0.87    1.59
   4   0  -4  163.04    6.94
   4   0  -3   -1.51    1.34
   4   0  -2    6.28    1.77
   4   0  -1   -2.51    1.53
   4   0   0  704.80   12.44
   4   0   0  740.94   18.54
   4   0   1    0.36    1.43
   4   0   2  252.13   11.30
  -4   0  -3   -0.08    0.99
   4   0   3   -0.40    2.19
  -4   0  -4    1.68    1.24
   4   0   4    2.32    2.12
  -4   0  -5    0.47    1.26
  -4   0  -6   50.48    5.89
   4  -1  -8    3.76    2.47
   4   1  -8   14.21    4.10
   4   1  -7   12.48    2.93
   4  -1  -7   14.11    3.88
   4  -1  -6   41.00    3.83
   4  -1  -6   34.04    5.23
   4   1  -6   36.69    4.19
   4   1  -5  148.95    7.59
   4  -1  -5  128.77    8.98
   4  -1  -5  141.43    6.31
   4  -1  -4  923.14   19.21
   4   1  -4  892.95   21.28
   4   1  -3    1.35    1.31
   4  -1  -3    0.51    0.94
   4  -1  -2 1561.09   30.33
   4   1  -2 1560.62   31.41
   4  -1  -1  304.80    7.62
   4  -1  -1  311.23   10.05
  -4   1   1  317.62   10.09
   4   1  -1  317.30   10.67
   4  -1   0 1208.46   26.73
   4   1   0 1283.34   27.85
  -4   1   0 1281.91   27.06
   4   1   1   31.53    2.12
   4  -1   1   26.02    3.31
   4   1   1   24.65    3.33
  -4   1  -2  429.84   10.37
   4   1   2  412.15   15.04
   4  -1   2  441.71   15.57
  -4  -1  -3  201.56    8.53
  -4   1  -3  202.05    7.86
   4  -1   3  187.08   10.55
   4   1   3  169.52   10.23
  -4   1  -4    0.96    1.30
   4  -1   4    2.28    2.62
   4   1   4    0.43    1.95
  -4  -1  -4   -0.30    1.36
  -4  -1  -5  202.62   10.91
  -4   1  -5  210.82   10.78
   4   1   5  188.21   12.49
  -4  -1  -6   18.77    3.81
   4  -2  -8   20.52    5.00
   4   2  -8   21.65    5.22
   4   2  -7   -0.25    1.82
   4  -2  -7   -3.07    2.27
   4  -2  -6   89.65    8.21
   4   2  -6   90.61    6.74
   4  -2  -5   16.57    1.90
   4  -2  -5   20.73    3.94
   4   2  -5   18.62    3.30
   4  -2  -4  163.38    9.00
   4   2  -4  146.88    7.66
   4  -2  -3   23.40    2.43
   4  -2  -3   26.92    3.24
   4   2  -3   30.83    3.51
   4  -2  -2  108.47    5.30
   4  -2  -2  115.66    5.32
   4   2  -2  107.74    6.13
   4  -2  -1  616.79   12.64
   4   2  -1  632.18   16.89
  -4   2   1  644.56   15.49
   4  -2  -1  635.98   15.47
   4   2   0   95.19    5.96
  -4   2   0  102.35    5.56
   4  -2   0   89.71    5.37
   4   2   1   55.45    3.36
   4   2   1   58.01    4.95
   4  -2   1   62.21    5.01
  -4   2  -2  249.75    6.90
   4   2   2  239.99    8.52
   4  -2   2  249.62   11.28
   4   2   2  243.24   11.04
  -4   2  -3   33.86    3.02
   4  -2   3   23.22    4.08
   4   2   3   26.56    4.17
  -4  -2  -4  708.22   20.94
  -4   2  -4  730.47   19.54
   4  -2   4  666.29   23.62
   4   2   4  669.56   23.11
  -4  -2  -5   76.02    6.78
  -4   2  -5   73.02    6.24
   4   2   5   79.42    7.87
  -4  -2  -6   63.01    6.81
   4  -3  -8   -1.70    2.59
   4  -3  -7    5.41    2.94
   4   3  -7    5.95    2.57
   4   3  -6   20.04    3.73
   4  -3  -6   15.85    3.90
   4  -3  -5    3.22    1.61
   4   3  -5    2.09    1.74
   4  -3  -4  527.86   17.56
   4   3  -4  523.84   16.47
   4  -3  -3    1.57    1.20
   4   3  -3    0.78    1.63
   4  -3  -3   -0.20    0.76
   4  -3  -2   18.34    2.28
   4  -3  -2   21.32    2.13
   4  -3  -1  269.60    7.40
   4  -3  -1  295.32    9.12
   4   3  -1  276.66   10.60
  -4   3   1  291.49    9.08
   4  -3   0  439.51   13.03
  -4   3   0  437.06   12.71
   4  -3   0  441.91   12.74
   4   3   0  424.84   13.97
   4   3   1  443.44   12.31
   4  -3   1  483.14   15.09
   4   3   1  464.92   15.12
  -4   3  -2    1.59    0.74
   4   3   2    1.13    0.84
   4  -3   2    2.11    1.98
   4   3   2    0.02    1.58
  -4   3  -3    0.53    1.06
   4  -3   3    1.93    2.22
   4   3   3    1.80    2.03
  -4   3  -4   29.52    3.46
   4   3   4   32.09    4.94
  -4  -3  -5   -0.79    1.72
  -4   3  -5    1.35    1.38
   4   3   5    0.49    1.99
  -4  -3  -6    9.21    2.97
   4  -4  -8    8.06    3.58
   4   4  -8    9.21    3.09
   4  -4  -7    7.43    2.90
   4   4  -7    8.53    2.79
   4  -4  -6   24.75    4.77
   4   4  -6   23.54    4.01
   4  -4  -5   24.94    4.21
   4   4  -5   34.50    4.42
   4  -4  -4   62.17    5.69
   4   4  -4   54.80    5.27
   4  -4  -3   36.37    3.96
   4  -4  -3   41.40    2.63
   4   4  -3   43.66    4.62
   4  -4  -2   12.91    1.09
   4  -4  -2   13.42    1.66
   4  -4  -2   12.87    2.06
   4  -4  -1   28.43    2.38
   4  -4  -1   31.56    2.68
  -4   4   1   30.74    2.56
   4   4  -1   23.81    3.22
   4  -4   0  242.49    9.15
   4  -4   0  237.32    8.80
  -4   4   0  247.58    9.13
   4   4   0  232.26   10.11
   4   4   1  355.92   11.59
   4  -4   1  369.65   13.03
   4   4   1  388.41   13.89
   4   4   2    4.81    1.50
   4  -4   2    6.38    2.72
   4   4   2    5.87    2.25
  -4   4  -3  138.30    6.47
   4   4   3  138.77    9.07
  -4   4  -4   67.53    5.20
   4   4   4   67.58    7.03
  -4   4  -5   56.08    5.47
   4   4   5   54.74    6.89
   4   4   6    7.27    2.86
  -4  -4  -6   16.11    3.94
   4   5  -8   65.86    7.37
   4   5  -7   36.41    5.42
   4  -5  -7   35.09    5.70
   4   5  -6  250.27   13.09
   4  -5  -6  240.98   14.20
   4   5  -5   11.86    3.41
   4  -5  -5    4.66    2.20
   4   5  -4   -1.22    2.02
   4  -5  -4    1.85    1.64
   4  -5  -4    0.41    0.54
   4  -5  -3   55.70    4.87
   4  -5  -3   57.44    2.57
   4   5  -3   59.50    5.74
   4  -5  -2  139.40    6.85
   4  -5  -2  138.99    4.97
   4  -5  -2  146.58    3.66
   4  -5  -1 1497.39   28.24
  -4   5   1 1536.40   28.59
   4  -5  -1 1594.39   29.28
  -4   5   1 1516.69   28.67
   4   5  -1 1466.02   33.13
   4  -5   0  456.28   13.23
   4  -5   0  463.33   13.44
   4   5   0  458.25   15.25
  -4   5   0  459.82   13.16
   4   5   1  592.04   16.92
   4  -5   1  587.90   17.45
   4   5   1  615.62   18.77
   4   5   2   30.66    4.12
   4   5   3   17.61    3.47
   4   5   4   26.90    4.57
  -4   5  -4   28.49    3.66
   4   5   5    0.04    1.71
   4   5   6    6.91    3.31
   4   6  -8    0.59    2.47
   4   6  -7    4.65    2.76
   4  -6  -7    8.95    3.53
   4  -6  -6   16.26    4.08
   4   6  -6   13.39    3.76
   4   6  -5   19.16    3.98
   4  -6  -5   19.85    4.05
   4   6  -4    8.73    3.02
   4  -6  -4    6.27    2.35
   4  -6  -3  119.79    7.56
   4   6  -3  140.02    8.87
  -4   6   2  179.11    8.03
   4  -6  -2  180.31    5.38
   4  -6  -1    2.29    0.95
  -4   6   1    1.56    0.93
   4  -6  -1    3.69    1.18
  -4   6   1    1.85    0.97
   4   6  -1    0.48    1.84
  -4   6   0  812.41   17.11
   4  -6   0  805.88   19.61
   4  -6   0  822.65   19.70
  -4   6   0  801.56   19.10
   4   6   0  776.49   21.82
   4   6   1    2.45    2.23
   4   6   2   71.98    6.33
   4   6   3    4.45    2.38
   4   6   4    6.77    2.83
   4   6   5   76.11    7.95
   4   6   6   20.49    4.51
   4   7  -8   11.92    4.16
   4   7  -7   73.01    7.76
   4  -7  -7   64.51    8.14
   4  -7  -6   59.46    7.21
   4   7  -6   60.88    6.99
   4  -7  -5   44.55    5.91
   4   7  -5   46.16    5.87
   4   7  -4   14.25    3.69
   4  -7  -4   11.31    3.15
   4  -7  -3   81.92    6.43
   4   7  -3   63.92    6.52
   4   7  -2  166.26   10.03
  -4   7   1   29.45    3.04
  -4   7   1   29.88    2.48
   4  -7  -1   27.04    2.59
   4   7  -1   26.63    3.84
  -4   7   0    3.09    1.15
   4  -7   0    1.37    1.19
  -4   7   0    2.13    0.89
   4   7   0   -0.78    1.96
   4   7   1  238.39   11.24
   4   7   2    2.65    1.91
   4   7   3  593.74   20.64
   4   7   4    0.65    1.74
   4   7   5   64.58    7.38
   4   7   6   -0.93    1.90
   4   8  -7   81.37    8.69
   4  -8  -7   76.15    8.99
   4  -8  -6   70.66    8.07
   4   8  -6   58.25    7.09
   4  -8  -5  307.86   15.79
   4   8  -5  307.07   15.29
   4   8  -4   10.84    3.34
   4  -8  -4   10.55    3.01
   4   8  -3   96.36    8.02
   4   8  -2   66.11    6.68
  -4   8   1  109.00    6.30
  -4   8   1  109.99    4.95
   4   8  -1  110.70    7.59
   4  -8  -1  103.96    5.29
   4  -8   0    3.50    1.66
  -4   8   0    1.54    1.26
  -4   8   0    1.61    1.21
   4   8   0    1.37    1.82
   4   8   1  202.81   10.51
   4   8   2  111.23    7.93
   4   8   3    1.66    1.85
   4   8   4   41.95    5.57
   4   8   5   81.70    8.27
   4   8   6   33.77    5.82
   4   9  -7    0.81    3.35
   4  -9  -7   -0.66    2.21
   4  -9  -6    2.33    2.15
   4   9  -6   -1.28    2.75
   4  -9  -5   83.78    8.32
   4   9  -5   80.42    8.17
   4   9  -4   10.89    3.64
   4   9  -3   21.60    4.47
   4   9  -2   17.99    4.18
  -4   9   1  223.77    7.35
   4   9  -1  200.57   10.74
   4  -9  -1  211.48    8.28
  -4   9   0   19.43    2.47
   4   9   0   25.72    4.00
  -4   9   0   29.22    3.37
   4   9   1    3.94    2.01
   4   9   2  112.01    8.17
   4   9   3   33.56    4.81
   4   9   4    2.35    2.14
   4   9   5   11.84    3.49
   4   9   6    3.27    2.50
   4  10  -7    3.43    3.23
   4 -10  -6   10.55    3.63
   4  10  -6    8.96    3.45
   4  10  -5    0.94    2.82
   4  10  -4   13.48    4.19
   4  10  -3   67.75    7.50
   4  10  -2    3.52    2.53
  -4  10   1  121.94    6.10
   4  10  -1  119.61    8.38
   4 -10  -1  113.01    6.16
  -4  10   0   40.77    4.18
   4  10   0   39.19    4.97
   4  10   1   92.71    7.43
  -4  10  -1   82.10    6.54
   4  10   2    6.62    2.70
  -4  10  -2    9.60    3.03
   4  10   3   29.46    4.61
   4  10   4    8.67    2.96
   4  10   5   19.89    4.39
   4  11  -6   14.11    4.39
   4  11  -5   21.42    5.03
   4  11  -4   -0.21    3.26
   4  11  -3   69.62    7.87
   4  11  -2  121.64    9.91
  -4  11   1   42.53    3.76
   4  11  -1   45.33    6.26
   4  11  -1   37.68    5.07
  -4  11   0  137.90    7.95
   4  11   0  130.68    8.96
  -4  11  -1    7.68    2.64
   4  11   1   16.14    3.41
   4  11   2    6.96    2.65
  -4  11  -2    1.67    1.82
   4  11   3    1.77    1.86
   4  11   4   -1.86    1.88
   4  11   5    4.05    1.89
   4  12  -6    2.45    3.44
   4  12  -5   25.24    5.45
   4  12  -4   27.48    5.56
   4  12  -3  119.71   10.56
   4  12  -2   75.50    8.17
  -4  12   1  196.25    8.59
   4  12  -1  178.14   11.01
   4  12  -1  182.44   12.53
  -4  12   0   25.21    3.51
   4  12   0   23.77    4.07
  -4  12  -1    6.29    2.53
   4  12   1    6.72    2.59
  -4  12  -2   44.70    5.70
   4  12   2   52.12    6.08
  -4  12  -3    3.31    2.56
   4  12   3    1.19    1.78
   4  12   4   12.85    3.69
   4  13  -5   27.87    6.05
   4  13  -4   79.51    8.91
   4  13  -3   83.39    9.20
   4  13  -2   45.31    6.55
   4  13  -1    9.91    3.69
   4  13  -1   13.49    3.50
  -4  13   0   -1.39    1.46
   4  13   0    0.41    2.04
   4  13   1   -3.27    1.74
  -4  13  -1    0.67    1.56
  -4  13  -2   28.05    4.75
   4  13   2   26.42    4.48
  -4  13  -3    2.76    2.69
   4  13   3   12.28    3.36
   4  13   4   -5.00    2.34
   4  14  -4   -0.71    3.13
   4  14  -3   12.91    4.39
   4  14  -2   65.24    8.43
   4  14  -1    1.89    3.31
   4  14  -1    2.89    2.35
   4  14   0  117.15    9.14
   4  14   0  128.41   11.25
  -4  14   0  101.55    7.45
  -4  14  -1   49.36    5.83
   4  14   1   48.71    5.92
  -4  14  -2   41.15    5.87
   4  14   2   40.44    5.49
   4  14   3   76.49    7.68
  -4  14  -3   61.22    7.50
   4  15  -3    0.98    3.02
   4  15  -2   11.59    3.21
   4  15  -2   18.29    5.40
   4  15  -1    6.32    3.83
   4  15  -1    6.70    2.65
   4  15   0   38.05    6.39
   4  15   0   47.35    6.13
  -4  15  -1    2.39    2.14
   4  15   1    3.66    2.30
  -4  15  -2    0.55    1.91
   4  15   2   -0.41    1.76
  -4  15  -3    1.57    2.37
   4  16  -2   43.83    7.42
   4  16  -2   46.45    6.40
   4  16  -1    2.48    3.51
   4  16  -1   -1.45    1.76
   4  16   0  104.18    9.30
   4  16   0  106.69   10.74
   4  16   1   -0.64    3.77
   4  16   1    4.08    2.34
  -4  16  -2    2.04    2.89
   4  17  -2    7.62    2.93
   4  17  -1    1.95    2.26
   4  17   0   15.44    3.99
   5   0  -8   79.22    9.43
   5   0  -7    1.23    2.70
   5   0  -6  174.20    8.24
   5   0  -5    0.80    1.23
   5   0  -4  117.90    6.13
   5   0  -3    1.35    1.42
   5   0  -3   -0.18    1.37
   5   0  -2  509.11   15.15
   5   0  -1    0.22    1.35
   5   0   0  279.85   11.31
   5   0   1   -1.81    1.99
   5   0   2  444.85   16.79
   5   0   3   -1.13    2.04
  -5   0  -4  216.10    9.56
   5   0   4  198.99   12.69
   5   0   5   -2.65    3.14
   5   1  -8    0.97    2.24
   5  -1  -8   -0.22    2.49
   5  -1  -7    3.99    2.39
   5   1  -6    1.10    1.55
   5  -1  -6    0.94    2.20
   5  -1  -5   12.20    2.09
   5   1  -5    6.45    1.98
   5  -1  -5    8.54    2.72
   5   1  -4    8.79    2.26
   5  -1  -4    6.99    1.59
   5   1  -3   20.32    2.91
   5  -1  -3   18.44    2.32
   5  -1  -3   15.86    2.43
   5   1  -3   17.40    2.83
   5  -1  -2  219.29    9.00
   5   1  -2  228.46    9.69
   5  -1  -1   13.09    1.29
   5  -1  -1   14.37    2.48
   5   1  -1   18.82    3.02
   5   1   0  189.84    5.56
   5  -1   0  212.63    9.55
   5   1   0  196.35    9.45
   5  -1   1  101.37    6.97
   5   1   1  103.25    7.21
   5  -1   2   74.12    6.60
   5   1   2   73.82    6.72
   5  -1   3   11.94    3.38
   5   1   3   12.92    3.18
   5  -1   4   89.01    8.53
   5   1   4   74.32    7.89
   5   1   5   49.25    7.02
   5  -2  -8   16.07    4.53
   5   2  -8   20.41    4.94
   5  -2  -7   21.85    4.57
   5  -2  -6   39.45    5.65
   5   2  -6   39.91    4.58
   5  -2  -5  349.94   15.24
   5   2  -5  336.58   12.96
   5  -2  -4  245.78   11.30
   5  -2  -4  257.64    9.60
   5   2  -4  237.35   10.29
   5  -2  -3   49.86    4.26
   5  -2  -3   43.14    3.68
   5   2  -3   43.03    4.42
   5  -2  -3   44.69    3.05
   5  -2  -2  519.53   13.47
   5  -2  -2  522.26   14.56
   5   2  -2  522.13   16.25
   5  -2  -1  173.15    4.79
   5  -2  -1  174.03    7.87
   5   2  -1  175.30    8.81
   5  -2   0   14.32    2.51
   5   2   0   13.72    2.98
   5   2   1   21.75    2.15
   5  -2   1   21.27    3.48
   5   2   1   28.28    4.33
   5  -2   2    1.80    1.75
   5   2   2   -1.29    2.53
  -5   2  -3    2.62    0.99
   5  -2   3    1.30    2.27
   5   2   3    2.49    2.02
   5  -2   4   -0.74    2.32
   5   2   4    2.70    2.36
   5   2   5   67.84    7.94
   5  -3  -8   61.34    8.17
   5   3  -7   42.23    5.20
   5  -3  -7   33.31    5.42
   5   3  -6   69.95    6.37
   5  -3  -6   75.94    7.77
   5  -3  -5   53.02    5.83
   5   3  -5   62.04    5.60
   5  -3  -4   -0.08    0.39
   5  -3  -4   -0.98    2.10
   5   3  -4   -2.22    1.84
   5  -3  -4    0.99    0.91
   5  -3  -3   83.97    5.65
   5  -3  -3   93.35    5.08
   5   3  -3   83.55    6.27
   5  -3  -2   36.98    3.11
   5  -3  -2   40.94    3.51
   5   3  -2   37.30    4.28
   5  -3  -1   57.55    4.37
   5   3  -1   56.28    5.17
  -5   3   1   62.24    4.47
   5  -3   0   50.57    4.62
   5   3   0   55.06    5.18
   5   3   1   -0.68    0.66
   5  -3   1   -0.50    1.62
   5   3   1   -2.07    2.17
   5   3   2  129.78    6.49
   5  -3   2  139.50    9.10
   5   3   2  138.73    9.13
  -5   3  -3    6.50    1.26
   5  -3   3    6.26    2.97
   5   3   3    1.88    1.98
   5   3   4    9.04    3.35
   5   3   5    2.05    2.71
   5   4  -7    1.17    2.22
   5  -4  -7    4.16    2.44
   5   4  -6  203.36   11.34
   5  -4  -6  189.28   12.44
   5  -4  -5  244.88   12.91
   5  -4  -5  252.62    8.77
   5   4  -5  240.55   11.79
   5  -4  -4  184.94    9.89
   5  -4  -4  176.92    6.83
   5   4  -4  168.79    9.54
   5  -4  -3   11.86    2.30
   5   4  -3   13.80    3.27
   5  -4  -3   15.91    2.14
   5  -4  -2   51.46    3.78
   5  -4  -2   50.19    2.93
   5  -4  -2   47.31    3.58
   5   4  -2   46.52    4.76
   5  -4  -1   89.65    5.41
   5  -4  -1   88.17    4.96
   5   4  -1   95.03    6.70
  -5   4   1   91.25    5.34
   5   4   0  530.74   17.59
   5  -4   0  555.76   16.50
   5   4   1   94.15    5.54
   5  -4   1  114.23    7.44
   5   4   1  101.55    7.41
   5   4   2  338.23   11.99
   5  -4   2  379.25   15.40
   5   4   2  379.69   15.52
   5  -4   3   -1.77    2.13
   5   4   3   -0.12    2.04
   5   4   4   34.99    5.51
   5   4   5  106.65    9.92
   5  -5  -7  148.09   12.06
   5   5  -7  149.49   10.47
   5  -5  -6   50.39    6.57
   5   5  -6   51.14    6.00
   5  -5  -5  149.01   10.20
   5   5  -5  159.82   10.05
   5  -5  -4  144.51    8.93
   5  -5  -4  147.14    5.45
   5   5  -4  155.09    9.56
   5  -5  -3  133.44    7.52
   5  -5  -3  134.17    5.34
   5   5  -3  127.18    8.41
   5  -5  -2   11.53    1.94
   5  -5  -2   12.22    1.89
   5  -5  -2   12.82    1.46
   5   5  -2   14.56    3.21
   5  -5  -1  282.59    9.43
   5  -5  -1  284.96   10.15
   5   5  -1  286.11   12.45
  -5   5   1  310.80   10.21
   5  -5   0  120.52    7.04
   5   5   0  131.40    8.35
   5   5   1    1.28    0.85
   5  -5   1   -1.01    1.73
   5   5   1    1.19    1.99
  -5   5  -2    1.76    0.53
   5  -5   2    2.29    1.78
   5   5   2    1.92    2.20
   5   5   3   65.79    6.71
   5   5   4  185.85   12.32
   5   5   5   40.16    6.32
   5  -6  -7  130.82   11.46
   5   6  -7  127.43   10.19
   5   6  -6   94.56    8.36
   5  -6  -6  111.55    9.59
   5  -6  -5  173.40   11.13
   5   6  -5  166.10   10.71
   5  -6  -4   54.20    2.35
   5  -6  -4   46.28    5.15
   5   6  -4   61.87    6.33
   5  -6  -3  680.21   20.07
   5  -6  -3  713.19   14.42
   5   6  -3  697.90   22.52
   5  -6  -2  257.49    8.35
   5  -6  -2  248.42    6.66
   5  -6  -1  359.38   10.97
   5  -6  -1  367.55   11.58
  -5   6   1  362.95   11.25
   5   6  -1  331.39   14.04
   5  -6   0  180.70    8.69
   5   6   0  168.61    9.70
  -5   6  -1   40.93    1.88
   5  -6   1   44.54    4.78
   5   6   1   44.43    5.27
   5   6   2    8.90    2.98
   5   6   3   82.20    7.77
   5   6   4   57.08    6.97
   5   6   5  105.04   10.02
   5   7  -8    1.57    2.35
   5  -7  -7   -1.96    2.74
   5   7  -7    4.10    2.68
   5  -7  -6    3.26    2.78
   5   7  -6    7.47    3.24
   5   7  -5   38.41    5.50
   5  -7  -5   40.28    5.58
   5  -7  -4   89.61    7.44
   5   7  -4   68.35    7.02
   5   7  -3    2.26    2.76
   5  -7  -2   46.51    3.14
   5  -7  -2   45.02    2.43
   5   7  -2   40.39    5.13
  -5   7   1   54.20    3.84
   5  -7  -1   54.70    4.11
  -5   7   1   52.00    3.84
   5   7  -1   46.91    5.29
   5  -7  -1   44.35    3.60
  -5   7   0   17.93    1.84
   5   7   0   15.48    3.03
   5   7   1  934.87   27.26
   5   7   2    7.70    2.46
   5   7   3  327.59   15.87
   5   7   4   15.23    3.62
   5   7   5   -0.49    2.55
   5  -8  -7  121.03   11.42
   5   8  -7  107.91    9.99
   5  -8  -6    2.42    2.47
   5   8  -6    1.51    2.59
   5  -8  -5   78.14    7.83
   5   8  -5   90.17    8.39
   5  -8  -4    3.90    2.39
   5   8  -4   -0.38    2.96
   5   8  -3   51.51    6.64
   5   8  -2  373.57   15.68
  -5   8   1  321.54   10.79
  -5   8   1  318.43   10.25
   5   8  -1  302.84   13.93
   5  -8  -1  298.12   10.24
   5   8   0  615.78   20.94
   5   8   1   36.20    4.88
   5   8   2   24.63    4.06
   5   8   3  115.28    9.24
   5   8   4    7.86    2.92
   5   8   5   32.36    5.73
   5  -9  -7    9.96    3.86
   5   9  -7   24.88    5.48
   5  -9  -6   32.24    5.79
   5   9  -6   30.02    5.65
   5   9  -5    2.27    2.32
   5  -9  -5    1.97    2.31
   5   9  -4  226.12   13.73
   5   9  -3   84.49    8.40
   5   9  -2   18.04    4.54
   5   9  -2   14.74    3.49
   5   9  -1  599.21   21.15
   5   9   0   78.12    7.15
   5   9   1  199.69   11.75
   5   9   2   18.43    3.55
   5   9   3   54.34    6.52
   5   9   4   27.63    4.96
   5   9   5  117.43   10.68
   5 -10  -6    1.32    2.29
   5  10  -6    7.15    4.07
   5  10  -5   59.55    7.68
   5  10  -4  158.39   11.65
   5  10  -3   17.27    3.99
   5  10  -2   52.11    6.87
   5  10  -2   51.24    6.03
   5  10  -1   73.27    6.96
   5  10   0   34.87    5.01
   5  10   1    6.73    2.78
   5  10   2   20.51    3.95
   5  10   3   58.16    6.66
   5  10   4    8.84    3.15
   5  10   5   -4.02    3.14
   5  11  -6  154.23   12.59
   5  11  -5   -2.85    3.16
   5  11  -4    0.83    3.20
   5  11  -3    8.59    3.65
   5  11  -2   -0.63    3.01
   5  11  -2   -0.58    2.16
   5  11  -1  219.76   12.63
   5  11   0    6.72    2.85
   5  11   1  129.74    9.66
   5  11   2   74.45    7.57
   5  11   3    2.52    1.57
   5  11   4   21.50    4.56
   5  12  -5  190.51   14.00
   5  12  -4   -3.85    3.41
   5  12  -3   63.14    7.92
   5  12  -2    3.98    3.00
   5  12  -2   17.22    4.40
   5  12  -1   14.99    3.69
   5  12   0   67.86    7.19
   5  12   1    5.77    2.45
   5  12   2    3.36    1.67
   5  12   3    5.37    2.56
   5  12   4   21.94    4.66
   5  13  -4    1.63    2.91
   5  13  -3   85.21    9.50
   5  13  -2   35.37    6.21
   5  13  -2   30.24    5.05
   5  13  -1   19.57    4.89
   5  13  -1   26.22    4.64
   5  13   0    7.90    2.96
   5  13   1   14.96    3.80
   5  13   2    8.98    3.48
   5  13   3   93.87    9.02
   5  13   4   21.15    4.38
   5  14  -3   31.30    6.26
   5  14  -2    8.41    3.11
   5  14  -2    2.80    2.14
   5  14  -1   66.52    7.51
   5  14  -1   63.32    8.52
   5  14   0   12.22    3.47
   5  14   1   -0.72    1.76
   5  14   2    2.63    2.22
   5  14   3   -1.87    2.12
   5  15  -2    5.58    3.77
   5  15  -2   19.50    4.46
   5  15  -1   -4.09    3.17
   5  15  -1   -0.76    2.13
   5  15   0   15.70    4.90
   5  15   0   13.12    3.86
   5  15   1   14.19    3.59
   5  15   2   -0.63    1.71
   5  16  -1    3.44    2.49
   5  16   0   16.62    4.33
   5  16   1    0.61    1.71
   6   0  -7   -0.75    1.90
   6   0  -6    3.45    2.59
   6   0  -5    0.60    1.51
   6   0  -4   11.05    2.31
   6   0  -4   13.72    2.77
   6   0  -3    1.18    1.40
   6   0  -2   96.02    6.65
   6   0  -1   -1.17    1.53
   6   0   0   19.50    3.50
   6   0   1   -2.25    2.06
   6   0   2   -0.59    2.03
   6   0   3   -0.96    2.19
   6   0   4  219.59   14.26
   6   0   5    1.29    2.59
   6  -1  -7   53.88    7.12
   6   1  -7   74.75    8.47
   6  -1  -6   19.10    4.10
   6  -1  -5  577.33   20.77
   6  -1  -5  596.65   18.31
   6   1  -5  602.43   17.59
   6  -1  -4    0.94    1.43
   6   1  -4   -0.19    1.48
   6  -1  -4   -0.14    1.62
   6  -1  -4    0.44    1.02
   6   1  -4    4.10    2.03
   6  -1  -3   92.04    5.95
   6  -1  -3   96.98    6.44
   6   1  -3   99.18    6.91
   6  -1  -2   12.34    1.80
   6  -1  -2   10.35    2.44
   6   1  -2   10.86    2.66
   6  -1  -1   11.41    0.91
   6  -1  -1    9.11    2.49
   6   1  -1    9.75    2.70
   6   1   0   23.06    1.43
   6  -1   0   23.36    3.58
   6   1   0   27.26    4.06
   6  -1   1  337.52   14.61
   6   1   1  338.02   14.66
   6  -1   2   24.71    4.39
   6   1   2   24.58    4.29
   6  -1   3   -0.42    1.91
   6   1   3   -5.51    2.98
   6  -1   4   31.57    5.54
   6   1   4   25.54    5.40
   6   1   5  106.83   10.49
   6  -2  -7   62.17    7.67
   6  -2  -6   32.07    5.03
   6   2  -6   37.07    4.59
   6   2  -5    2.16    1.97
   6  -2  -5    1.97    1.69
   6  -2  -5    6.07    1.84
   6  -2  -4   41.19    4.63
   6   2  -4   39.89    4.61
   6  -2  -4   42.63    3.06
   6  -2  -4   33.66    3.71
   6   2  -4   36.09    4.39
   6  -2  -3    8.61    1.99
   6  -2  -3   10.61    2.16
   6   2  -3    6.45    2.49
   6  -2  -2    0.30    0.88
   6  -2  -2    1.05    1.37
   6  -2  -1    9.67    2.62
   6   2  -1    8.36    2.68
   6   2   0   71.03    3.67
   6  -2   0   69.58    5.91
   6   2   0   81.73    6.72
   6  -2   1    1.72    1.80
   6   2   1    4.71    2.51
   6  -2   2    2.93    2.07
   6   2   2    4.38    2.67
   6  -2   3   30.52    4.93
   6   2   3   21.52    4.50
   6  -2   4  193.55   13.25
   6   2   4  206.12   13.71
   6   2   5   16.83    4.34
   6  -3  -7   18.57    4.43
   6  -3  -6   53.91    6.70
   6   3  -6   55.36    5.78
   6  -3  -5   65.69    6.52
   6  -3  -5   59.81    4.77
   6   3  -5   73.22    6.33
   6  -3  -4    1.33    1.33
   6   3  -4    3.13    2.10
   6  -3  -4    1.14    0.99
   6  -3  -3  341.52   12.11
   6  -3  -3  342.71   11.85
   6   3  -3  346.48   14.25
   6  -3  -2    7.37    1.42
   6  -3  -2    4.73    1.72
   6   3  -2    6.90    2.29
   6  -3  -1  191.19    9.20
   6   3  -1  209.31   10.89
   6   3   0    0.63    0.77
   6  -3   0    3.72    2.19
   6   3   0   -0.17    2.00
   6  -3   1    4.28    2.28
   6   3   1    0.63    1.83
   6  -3   2   19.79    4.17
   6   3   2   12.23    3.35
   6  -3   3   20.71    4.44
   6   3   3   11.46    3.52
   6   3   4   81.82    8.75
   6  -3   4   78.35    8.73
   6  -4  -7   -2.45    2.90
   6  -4  -6    3.23    2.17
   6   4  -6    3.51    2.83
   6   4  -5    7.26    2.92
   6  -4  -5   12.40    3.08
   6  -4  -4    3.44    2.14
   6   4  -4    2.44    2.32
   6  -4  -4    0.87    0.96
   6  -4  -3   48.14    4.40
   6  -4  -3   41.86    3.66
   6   4  -3   39.10    5.14
   6   4  -3   39.07    5.00
   6  -4  -2  148.88    6.31
   6  -4  -2  154.91    7.55
   6  -4  -2  148.25    6.36
   6   4  -2  150.42    9.34
   6  -4  -1  322.41   12.10
   6   4  -1  305.78   13.69
   6  -4   0  202.55   10.24
   6   4   0  202.45   11.37
   6  -4   1  352.90   14.79
   6   4   1  325.25   14.83
   6  -4   2    2.24    2.40
   6   4   2    4.50    2.88
   6  -4   3   73.37    7.67
   6   4   3   61.05    7.27
   6   4   4   -0.82    3.20
   6  -5  -7   75.15    8.65
   6   5  -7   76.62    7.74
   6  -5  -6   16.38    4.05
   6   5  -6   18.05    4.12
   6   5  -5   -0.81    2.61
   6  -5  -5   -0.84    1.79
   6  -5  -4  173.68    9.83
   6  -5  -4  193.79    7.31
   6   5  -4  199.15   11.56
   6  -5  -3    8.25    1.91
   6   5  -3    9.27    3.32
   6  -5  -3   11.59    1.96
   6   5  -3    9.14    2.63
   6  -5  -2   69.69    4.03
   6  -5  -2   70.30    4.86
   6   5  -2   75.90    6.82
   6  -5  -1   31.47    3.68
   6  -5  -1   24.24    2.95
   6   5  -1   24.31    4.13
   6  -5   0  148.20    8.63
   6   5   0  133.40    9.36
   6  -5   1  339.47   14.62
   6   5   1  348.07   15.53
   6  -5   2   78.83    7.38
   6   5   2   92.47    8.26
   6   5   3  532.74   21.94
   6   5   4   20.75    4.86
   6  -6  -7   23.58    5.20
   6   6  -7   24.90    4.86
   6  -6  -6   -7.42    2.86
   6   6  -6    2.72    2.55
   6  -6  -5  191.32   11.65
   6   6  -5  200.01   12.04
   6  -6  -4  174.61    9.96
   6   6  -4  155.71   10.58
   6  -6  -3  181.01    9.07
   6  -6  -3  182.66    7.02
   6   6  -3  162.92   10.35
   6  -6  -2   38.84    3.46
   6   6  -2   26.41    4.18
   6  -6  -1  390.94   12.64
   6  -6  -1  413.73   13.83
   6   6  -1  396.96   16.49
   6  -6   0  123.02    7.79
   6   6   0   98.42    8.11
   6  -6   1  199.17   10.99
   6   6   1  188.10   11.43
   6   6   2  206.21   12.48
   6   6   3    0.63    2.48
   6   6   4    4.22    3.02
   6  -7  -7    1.45    2.43
   6   7  -7    4.27    3.36
   6  -7  -6   46.75    6.44
   6   7  -6   43.51    6.08
   6  -7  -5   90.40    8.13
   6   7  -5   88.15    8.31
   6  -7  -4   10.54    2.70
   6   7  -4   13.83    3.83
   6   7  -3   77.88    7.33
   6   7  -3   63.10    6.98
   6  -7  -2   19.17    2.45
   6   7  -2   15.54    3.53
   6  -7  -1  852.94   21.59
   6   7  -1  784.36   25.26
   6  -7   0   90.81    6.67
   6   7   0   79.04    7.41
   6   7   1   62.17    6.89
   6   7   2    1.83    2.24
   6   7   3   19.42    4.33
   6   7   4    3.62    2.58
   6  -8  -7    9.16    3.83
   6   8  -7    6.11    3.50
   6  -8  -6   70.50    8.19
   6   8  -6   56.60    7.25
   6   8  -5   52.90    6.71
   6  -8  -5   47.66    6.14
   6   8  -4   -1.09    2.92
   6   8  -3  302.03   14.97
   6   8  -3  305.30   15.79
   6   8  -2   25.22    4.49
   6   8  -1   17.32    3.77
   6   8   0    3.91    2.01
   6   8   1   32.29    5.08
   6   8   2   66.03    7.27
   6   8   3   -2.13    2.47
   6   8   4   -5.42    3.02
   6   9  -7   71.88    8.67
   6  -9  -6   74.43    8.45
   6   9  -6   78.85    8.74
   6   9  -5    2.78    3.27
   6  -9  -5    3.14    1.96
   6   9  -4   24.62    5.08
   6   9  -3   20.29    4.71
   6   9  -3   23.66    4.53
   6   9  -2   -1.12    2.16
   6   9  -1   75.42    7.52
   6   9   0    7.91    3.12
   6   9   1  107.01    9.19
   6   9   2    6.42    2.70
   6   9   3  140.03   11.16
   6   9   4   38.42    6.39
   6  10  -6   69.85    8.43
   6  10  -5    4.11    2.97
   6  10  -4   58.99    7.68
   6  10  -3   22.63    4.94
   6  10  -3   38.49    5.81
   6  10  -2  198.06   12.54
   6  10  -2  194.53   13.44
   6  10  -1   -1.10    2.44
   6  10   0  119.00    9.64
   6  10   1   29.83    5.37
   6  10   2   25.32    4.83
   6  10   3    7.29    3.12
   6  11  -5    5.32    2.53
   6  11  -4   -0.97    3.29
   6  11  -3   -3.35    3.71
   6  11  -3    0.33    2.67
   6  11  -2    7.57    3.65
   6  11  -2    4.75    2.49
   6  11  -1   -3.77    2.96
   6  11   0   12.00    3.47
   6  11   1   14.18    3.85
   6  11   2    7.23    2.74
   6  11   3   26.52    5.11
   6  12  -4   -0.75    2.70
   6  12  -3    3.41    3.24
   6  12  -3    7.00    3.47
   6  12  -2    3.19    3.44
   6  12  -2    2.13    2.10
   6  12  -1   -1.15    2.26
   6  12   0    7.04    2.79
   6  12   1    7.60    3.26
   6  12   2    7.49    2.83
   6  13  -3    0.26    2.72
   6  13  -3    3.80    2.83
   6  13  -2   -5.06    4.02
   6  13  -2   -5.47    2.71
   6  13  -1    3.09    4.08
   6  13  -1   -1.80    2.25
   6  13   0   67.69    7.68
   6  13   1   10.88    3.65
   6  13   2    1.14    1.95
   6  14  -2    1.35    2.20
   6  14  -1   50.06    6.89
   6  14   0   18.55    4.47
   6  14   1    4.11    2.73
   7   0  -7    4.16    3.16
   7   0  -6  210.01   13.18
   7   0  -6  228.29   11.87
   7   0  -5    2.45    2.00
   7   0  -5    1.25    1.95
   7   0  -4   11.99    2.67
   7   0  -4   12.77    2.92
   7   0  -3   -0.83    1.78
   7   0  -2   63.21    4.02
   7   0  -2   60.31    5.94
   7   0  -1    1.66    1.96
   7   0   0  118.24    8.65
   7   0   1   -2.05    2.37
   7   0   2  129.69   10.23
   7   0   3   -3.75    3.25
   7   0   4   18.02    4.56
   7  -1  -7   -0.45    2.19
   7   1  -7    1.39    1.76
   7  -1  -6   18.67    4.14
   7   1  -6   22.06    3.86
   7  -1  -5   72.90    6.86
   7  -1  -5   72.03    6.21
   7   1  -5   68.84    6.49
   7  -1  -4   32.31    4.07
   7   1  -4   37.31    4.37
   7  -1  -4   30.53    3.41
   7  -1  -4   33.20    4.03
   7   1  -4   36.74    4.64
   7  -1  -3   88.61    5.77
   7  -1  -3   85.61    6.60
   7   1  -3   99.49    7.55
   7  -1  -2   11.15    1.63
   7  -1  -2   10.62    2.82
   7   1  -2    5.10    2.20
   7  -1  -1  255.02   12.18
   7   1  -1  257.73   12.73
   7  -1   0   32.19    4.50
   7   1   0   23.00    4.22
   7  -1   1    1.27    1.78
   7   1   1    2.74    2.08
   7  -1   2    0.32    1.95
   7   1   2   -0.95    2.36
   7  -1   3   -1.72    2.50
   7   1   3   -1.05    3.02
   7  -1   4   38.02    6.47
   7   1   4   33.26    5.98
   7  -2  -7    4.81    2.66
   7  -2  -6   48.36    6.22
   7   2  -5   29.52    4.16
   7  -2  -5   28.18    4.42
   7  -2  -5   39.99    4.36
   7   2  -5   33.39    4.62
   7  -2  -4   30.28    3.98
   7   2  -4   28.69    4.19
   7  -2  -4   29.00    3.75
   7   2  -4   20.54    3.58
   7  -2  -3    5.75    1.74
   7  -2  -3    5.49    2.03
   7   2  -3    1.00    1.71
   7  -2  -2  211.95   10.38
   7   2  -2  200.32   11.16
   7  -2  -1    5.65    2.30
   7   2  -1    2.12    1.83
   7  -2   0   -0.97    1.74
   7   2   0    1.49    1.87
   7  -2   1  467.02   18.84
   7   2   1  465.43   19.17
   7  -2   2    5.25    2.46
   7   2   2    7.38    2.89
   7  -2   3  165.55   12.23
   7   2   3  142.39   11.57
   7  -2   4    4.90    3.62
   7  -3  -7   38.98    6.47
   7  -3  -6    4.61    2.21
   7  -3  -5  121.83    9.08
   7   3  -5  131.02    9.46
   7   3  -5  133.11    8.83
   7  -3  -4   37.87    4.41
   7   3  -4   40.83    5.17
   7  -3  -4   40.15    4.17
   7   3  -4   45.98    5.54
   7  -3  -3   -0.92    1.41
   7  -3  -3   -0.68    1.24
   7   3  -3    2.61    1.79
   7  -3  -2    1.35    1.35
   7   3  -2   -0.44    2.14
   7  -3  -1    3.75    2.23
   7   3  -1    5.08    2.65
   7  -3   0   81.43    6.97
   7   3   0   72.82    7.14
   7  -3   1   44.29    5.63
   7   3   1   50.35    6.26
   7  -3   2   24.32    4.54
   7   3   2   26.88    5.09
   7  -3   3    0.71    1.66
   7   3   3   -0.03    1.88
   7  -3   4   32.90    5.92
   7  -4  -7   16.45    4.42
   7  -4  -6   -0.92    1.87
   7  -4  -5  120.55    8.95
   7   4  -5  112.89    8.95
   7   4  -5  103.92    8.23
   7  -4  -4  124.28    8.01
   7  -4  -4  103.07    6.36
   7   4  -4  113.94    8.83
   7   4  -4   95.30    8.08
   7  -4  -3   46.99    4.15
   7  -4  -3   52.77    4.64
   7   4  -3   43.54    5.47
   7  -4  -2  265.03   11.39
   7   4  -2  266.30   13.47
   7  -4  -1  224.67   11.08
   7   4  -1  197.51   11.68
   7  -4   0   53.62    5.82
   7   4   0   51.78    6.15
   7  -4   1    0.59    2.12
   7   4   1    4.27    2.61
   7  -4   2   14.20    3.87
   7   4   2   13.62    3.69
   7  -4   3   18.67    4.32
   7   4   3   22.91    4.94
   7  -5  -7   -4.10    3.01
   7   5  -6   38.32    5.56
   7  -5  -6   42.75    6.13
   7  -5  -5   93.80    8.00
   7   5  -5   92.04    8.42
   7   5  -5  100.91    8.46
   7  -5  -4    8.74    2.36
   7   5  -4    6.21    2.82
   7   5  -4    7.52    2.87
   7  -5  -3  305.49   11.28
   7   5  -3  298.93   14.75
   7  -5  -2   36.14    4.10
   7   5  -2   36.47    5.16
   7  -5  -1   46.76    4.97
   7   5  -1   39.77    5.36
   7  -5   0   14.36    3.33
   7   5   0   10.74    2.90
   7  -5   1    1.72    1.97
   7   5   1    2.79    2.49
   7  -5   2   18.56    4.12
   7   5   2   14.39    3.44
   7   5   3   14.76    4.55
   7  -6  -7    6.52    3.09
   7   6  -6    6.40    3.30
   7  -6  -6    2.40    1.91
   7  -6  -5   11.11    2.86
   7   6  -5   11.35    3.81
   7  -6  -4    2.45    1.56
   7   6  -4    2.48    2.35
   7   6  -4   -0.66    2.06
   7   6  -3    2.60    2.66
   7   6  -3   -4.63    2.60
   7  -6  -2    0.87    1.35
   7   6  -2   -2.86    2.19
   7  -6  -1    2.78    1.57
   7   6  -1    1.81    2.12
   7  -6   0    2.49    1.99
   7   6   0    2.66    2.82
   7  -6   1   47.57    5.80
   7   6   1   49.64    6.42
   7  -6   2    0.65    2.19
   7   6   2    1.18    2.48
   7   6   3    6.94    3.06
   7  -7  -7   37.67    6.50
   7   7  -6    6.35    3.19
   7  -7  -6    9.23    3.25
   7  -7  -5    2.90    2.19
   7   7  -5   -0.62    2.33
   7   7  -4    1.61    2.43
   7   7  -4    3.32    2.74
   7   7  -3   34.76    5.73
   7   7  -3   26.41    4.77
   7  -7  -2   -0.42    1.06
   7   7  -2    1.57    2.11
   7  -7  -1   11.71    2.75
   7   7  -1   18.16    4.07
   7  -7   0    7.41    2.24
   7   7   0    6.27    2.93
   7  -7   1   15.13    3.58
   7   7   1   16.64    3.99
   7   7   2   12.75    3.62
   7   7   3   20.82    4.91
   7  -8  -7    2.17    2.27
   7   8  -6   22.17    4.94
   7  -8  -6   19.36    4.68
   7   8  -5   35.52    6.09
   7   8  -4   49.35    6.91
   7   8  -4   39.51    5.95
   7   8  -3   14.59    4.49
   7   8  -3   13.98    4.00
   7   8  -2   -1.11    1.88
   7  -8  -1   37.71    4.29
   7   8  -1   35.65    5.55
   7   8   0   86.35    8.61
   7   8   1   43.06    5.99
   7   8   2    1.91    2.54
   7   9  -6   -1.64    2.86
   7   9  -5   -3.82    3.68
   7   9  -4   17.04    4.66
   7   9  -4    9.37    3.22
   7   9  -3    8.34    3.66
   7   9  -3    4.89    2.28
   7   9  -2    7.06    2.81
   7   9  -1   26.54    5.14
   7   9   0   33.52    5.62
   7   9   1   -0.96    2.17
   7   9   2    7.84    3.55
   7  10  -5   23.05    5.22
   7  10  -4   -1.66    3.28
   7  10  -4   -1.46    2.26
   7  10  -3   18.85    4.63
   7  10  -3   18.68    4.40
   7  10  -2   25.46    4.92
   7  10  -1  118.60   10.34
   7  10   0   81.82    8.58
   7  10   1    0.07    2.53
   7  10   2   16.17    4.39
   7  11  -4    2.66    3.12
   7  11  -3   24.72    5.89
   7  11  -3   19.23    4.36
   7  11  -2   58.38    8.12
   7  11  -2   56.14    7.25
   7  11  -1   22.66    5.11
   7  11   0   74.95    8.32
   7  11   1   -3.78    2.96
   7  12  -3    2.17    2.97
   7  12  -2   34.14    6.61
   7  12  -2   31.36    5.63
   7  12  -1   40.65    6.33
   7  12   0   64.80    7.83
   8   0  -7   -2.60    2.12
   8   0  -6   -0.35    1.59
   8   0  -5    2.84    2.15
   8   0  -5   -0.05    1.48
   8   0  -4    1.63    1.31
   8   0  -3    3.12    2.26
   8   0  -2    6.06    2.61
   8   0  -1    0.21    1.94
   8   0   0   30.03    5.01
   8   0   1   -0.37    2.30
   8   0   2    3.68    2.47
   8  -1  -7   22.82    4.54
   8   1  -7   16.61    4.62
   8  -1  -6   18.20    3.92
   8   1  -6   22.64    4.43
   8   1  -6   21.37    4.05
   8  -1  -5   22.22    3.78
   8   1  -5   25.82    4.50
   8  -1  -4    2.62    1.50
   8   1  -4   -0.20    1.86
   8  -1  -3   37.33    4.97
   8   1  -3   34.10    4.72
   8  -1  -2   17.44    3.55
   8   1  -2   12.54    3.26
   8  -1  -1   10.21    2.95
   8   1  -1   14.98    3.34
   8  -1   0    3.68    2.30
   8   1   0    0.74    1.79
   8  -1   1   31.32    5.20
   8   1   1   25.58    4.90
   8  -1   2   -2.79    2.93
   8   1   2   -0.34    2.20
   8  -2  -7    0.88    1.84
   8   2  -7    0.43    1.72
   8   2  -6    5.61    2.37
   8   2  -5  123.50    9.51
   8   2  -4   12.48    3.24
   8  -2  -4   14.54    3.10
   8   2  -4    7.53    2.81
   8  -2  -3    4.00    1.92
   8   2  -3    2.38    1.62
   8  -2  -2    7.83    2.60
   8   2  -2    8.08    2.88
   8  -2  -1    1.65    1.86
   8   2  -1    0.28    2.32
   8  -2   0    8.62    2.85
   8   2   0   10.86    3.17
   8  -2   1   35.31    5.57
   8   2   1   16.28    4.29
   8  -2   2   11.03    3.64
   8   2   2   12.12    4.01
   8   3  -7   39.33    5.93
   8   3  -6   22.56    4.38
   8   3  -5   23.08    4.56
   8   3  -4   -1.35    2.31
   8   3  -4    1.48    1.80
   8  -3  -3    2.39    1.59
   8   3  -3    1.80    2.14
   8  -3  -2   13.94    3.21
   8   3  -2   19.21    3.86
   8  -3  -1    4.84    1.88
   8   3  -1    0.11    2.11
   8  -3   0  141.02   10.02
   8   3   0  132.10   10.27
   8  -3   1   -0.10    2.10
   8   3   1   -0.55    1.92
   8  -3   2   67.28    7.91
   8   3   2   56.44    7.43
   8   4  -7   -1.22    2.17
   8   4  -6   11.07    3.52
   8   4  -5  129.60   10.23
   8   4  -4    1.54    2.40
   8   4  -4    1.76    2.08
   8  -4  -3    0.66    1.05
   8   4  -3    0.70    1.84
   8  -4  -2    2.24    1.81
   8   4  -2    3.92    2.49
   8  -4  -1    1.36    1.85
   8   4  -1    0.54    2.40
   8  -4   0   21.77    4.47
   8   4   0   22.47    4.31
   8  -4   1   65.42    7.25
   8   4   1   57.47    7.13
   8  -4   2   44.64    6.65
   8   4   2   23.25    4.78
   8   5  -6    9.91    3.41
   8   5  -5    0.90    2.25
   8   5  -5    2.74    2.17
   8   5  -4    4.32    2.31
   8   5  -4    9.57    3.17
   8   5  -3    0.16    2.51
   8  -5  -2   31.76    4.25
   8   5  -2   33.57    5.41
   8  -5  -1   -0.94    1.73
   8   5  -1    6.61    3.24
   8  -5   0   78.67    7.56
   8   5   0   86.98    8.66
   8  -5   1   21.83    4.25
   8   5   1   15.24    4.28
   8  -5   2   14.86    4.26
   8   5   2   14.31    4.60
   8   6  -6    7.62    3.01
   8   6  -5    6.10    3.07
   8   6  -5   -1.48    1.78
   8   6  -4    5.91    3.15
   8   6  -4    4.89    2.59
   8   6  -3   84.56    8.36
   8   6  -2   10.68    3.18
   8  -6  -1   62.33    6.25
   8   6  -1   75.60    8.14
   8  -6   0   21.55    4.17
   8   6   0   18.68    4.28
   8  -6   1    8.88    2.72
   8   6   1    5.69    3.17
   8  -6   2   10.58    3.79
   8   7  -5    5.24    3.34
   8   7  -5   -0.71    2.61
   8   7  -4   13.07    3.89
   8   7  -4   18.55    4.42
   8   7  -3   42.84    6.60
   8   7  -3   32.56    5.55
   8   7  -2   43.69    6.36
   8   7  -1   33.83    5.60
   8  -7   0    7.89    2.65
   8   7   0   10.20    3.90
   8  -7   1   42.88    5.93
   8   7   1   52.42    7.34
   8   8  -5   11.26    4.36
   8   8  -4    6.11    3.39
   8   8  -4    0.37    2.18
   8   8  -3   13.45    4.92
   8   8  -3   14.54    3.87
   8   8  -2   28.37    5.33
   8   8  -1    7.20    3.55
   8   8   0   28.12    5.63
   8   9  -5   47.24    7.00
   8   9  -4   -1.21    3.32
   8   9  -3   22.63    5.66
   8   9  -3   23.58    5.08
   8   9  -2    6.38    3.75
   8   9  -1    5.81    3.03
   8   9   0   25.10    5.49
   8  10  -4   54.17    8.09
   8  10  -3    1.10    3.39
   9   0  -4    3.53    1.73
   9   0  -3   -0.51    1.64
   9   0  -2   98.23    8.64
   9   0  -1   -3.22    2.44
   9   0   0  104.18    9.65
   9   0   1    1.36    1.93
   9   1  -5   83.35    7.93
   9  -1  -4    8.22    2.81
   9   1  -4    2.90    1.66
   9  -1  -3   37.87    5.20
   9   1  -3   39.36    5.71
   9  -1  -2    4.48    2.50
   9   1  -2    1.99    1.92
   9  -1  -1   15.40    3.85
   9   1  -1   13.76    3.90
   9  -1   0    4.72    2.55
   9   1   0   -0.97    2.09
   9  -1   1   93.09    9.63
   9   1   1   83.72    9.27
   9   2  -5    1.85    1.80
   9   2  -4   24.68    4.53
   9  -2  -3    6.13    2.42
   9   2  -3   11.08    3.60
   9  -2  -2  101.40    8.43
   9   2  -2  109.24    9.49
   9  -2  -1    0.08    2.20
   9   2  -1    0.51    1.97
   9  -2   0   27.11    5.06
   9   2   0    8.48    3.14
   9  -2   1   -2.05    2.47
   9   2   1   -1.42    2.90
   9   3  -6   39.74    6.03
   9   3  -5    0.10    1.76
   9   3  -4   23.15    4.75
   9   3  -3   92.08    8.75
   9  -3  -2    2.77    1.90
   9   3  -2    1.45    1.97
   9  -3  -1   81.13    8.03
   9   3  -1   78.19    8.42
   9  -3   0    6.47    3.33
   9   3   0    7.42    3.31
   9  -3   1    1.89    2.71
   9   4  -6    7.99    3.19
   9   4  -5    0.43    1.95
   9   4  -4   22.81    4.78
   9   4  -3    4.17    2.70
   9  -4  -2   60.20    6.44
   9   4  -2   39.03    6.15
   9  -4  -1   -1.92    2.10
   9   4  -1   -1.32    2.62
   9  -4   0    6.29    2.87
   9   4   0   10.26    3.41
   9  -4   1   45.27    6.76
   9   5  -5    3.81    2.37
   9   5  -4   25.15    5.02
   9   5  -4   17.71    4.41
   9   5  -3    4.71    2.83
   9   5  -2   30.82    5.44
   9  -5  -1   12.19    3.29
   9   5  -1   10.41    3.50
   9  -5   0   13.40    3.94
   9   5   0   11.80    3.67
   9  -5   1   29.52    5.26
   9   6  -4    8.47    3.95
   9   6  -4    3.16    3.13
   9   6  -3   18.75    4.59
   9   6  -2   -1.12    2.25
   9   6  -1   89.69    9.54
   9  -6   0   39.33    5.74
   9  -6   1   10.23    3.38
   9   7  -4   29.80    5.85
   9   7  -3   40.01    7.05
   9  -7   1    1.94    1.89
   9   8  -4   -5.45    4.08
   9   8  -3   41.70    7.10
  10   0  -3   -2.84    2.91
  10   0  -2   23.28    4.90
  10   0  -1    1.04    2.09
  10   1  -4   23.52    4.84
  10  -1  -3   -3.67    2.01
  10   1  -3    4.18    2.53
  10  -1  -2    7.86    3.12
  10   1  -2   16.19    4.07
  10  -1  -1   -0.01    2.00
  10   1  -1   -7.88    3.40
  10   2  -4    0.99    2.27
  10   2  -3   92.90    9.26
  10  -2  -2    7.54    3.02
  10   2  -2    4.48    2.43
  10  -2  -1    9.06    3.31
  10   3  -3   37.53    6.08
  10  -3  -1   79.94    8.44
  10  -4   0    3.80    2.31
   0   0   0    0.00    0.00


TITL px352 in P2(1)/c
REM P2(1)/c (#14 in standard setting)
CELL 0.71073   7.685203  14.372234   6.694412  90.0000 104.1518  90.0000
ZERR   14.00   0.000921   0.001305   0.000631   0.0000   0.0105   0.0000
LATT  1
SYMM -x, y+1/2,-z+1/2
SFAC C H N O
UNIT 14.00 14.00 14.00 14.00
TREF
HKLF 4
END
_computing_structure_solution     'SHELXT 2018/2 (Sheldrick, 2018)'
;
_shelx_hkl_checksum              76617
_olex2_submission_original_sample_id px352
_olex2_submission_special_instructions 'No special instructions were received'
_oxdiff_exptl_absorpt_empirical_details
;
Empirical correction (ABSPACK) includes:
- Absorption correction using spherical harmonics
- Frame scaling
;
_oxdiff_exptl_absorpt_empirical_full_max 1.119
_oxdiff_exptl_absorpt_empirical_full_min 0.912
loop_
_space_group_symop_operation_xyz
'x, y, z'
'-x, y+1/2, -z+1/2'
'-x, -y, -z'
'x, -y-1/2, z-1/2'
loop_
_atom_site_label
_atom_site_type_symbol
_atom_site_fract_x
_atom_site_fract_y
_atom_site_fract_z
_atom_site_U_iso_or_equiv
_atom_site_adp_type
_atom_site_occupancy
_atom_site_site_symmetry_order
_atom_site_calc_flag
_atom_site_refinement_flags_posn
_atom_site_refinement_flags_adp
_atom_site_refinement_flags_occupancy
_atom_site_disorder_assembly
_atom_site_disorder_group
O1 O 0.49590(12) 0.64062(6) 0.03654(15) 0.0236(3) Uani 1 1 d . . . . .
O2 O 0.46249(14) 0.79528(7) 0.04409(16) 0.0319(3) Uani 1 1 d . . . . .
N1 N 0.78874(14) 0.55449(8) 0.33604(17) 0.0191(3) Uani 1 1 d . . . . .
N4 N 0.75386(16) 0.51400(8) 0.63401(19) 0.0285(3) Uani 1 1 d . . . . .
N2 N 0.89690(15) 0.60936(9) 0.47586(18) 0.0266(3) Uani 1 1 d . . . . .
N3 N 0.87469(16) 0.58452(9) 0.65413(18) 0.0293(3) Uani 1 1 d . . . . .
C4 C 0.40001(19) 0.71838(10) 0.0428(2) 0.0228(3) Uani 1 1 d . . . . .
C3 C 0.68232(19) 0.65344(10) 0.0339(2) 0.0232(3) Uani 1 1 d . . . . .
C1 C 0.7033(2) 0.49731(10) 0.4357(2) 0.0232(3) Uani 1 1 d . . . . .
C2 C 0.77858(19) 0.56534(10) 0.1163(2) 0.0223(3) Uani 1 1 d . . . . .
C5 C 0.2122(2) 0.69540(13) 0.0470(3) 0.0297(4) Uani 1 1 d . . . . .
H3A H 0.7303(19) 0.7082(10) 0.115(2) 0.024(4) Uiso 1 1 d . . . . .
H3B H 0.6880(18) 0.6637(9) -0.109(2) 0.018(4) Uiso 1 1 d . . . . .
H5A H 0.151(2) 0.6628(11) -0.077(3) 0.034(4) Uiso 1 1 d . . . . .
H2A H 0.7152(19) 0.5110(10) 0.048(2) 0.019(4) Uiso 1 1 d . . . . .
H5B H 0.212(2) 0.6542(11) 0.164(3) 0.037(5) Uiso 1 1 d . . . . .
H2B H 0.901(2) 0.5673(10) 0.097(2) 0.024(4) Uiso 1 1 d . . . . .
H1 H 0.622(2) 0.4533(12) 0.373(3) 0.035(4) Uiso 1 1 d . . . . .
H5C H 0.147(2) 0.7502(12) 0.055(3) 0.042(5) Uiso 1 1 d . . . . .
loop_
_atom_site_aniso_label
_atom_site_aniso_U_11
_atom_site_aniso_U_22
_atom_site_aniso_U_33
_atom_site_aniso_U_23
_atom_site_aniso_U_13
_atom_site_aniso_U_12
O1 0.0246(5) 0.0175(5) 0.0288(6) 0.0011(4) 0.0070(4) 0.0030(4)
O2 0.0341(6) 0.0179(5) 0.0399(7) -0.0026(5) 0.0016(5) 0.0023(5)
N1 0.0190(6) 0.0194(6) 0.0187(6) -0.0004(5) 0.0040(5) 0.0006(5)
N4 0.0311(7) 0.0301(7) 0.0251(7) 0.0021(6) 0.0084(6) 0.0024(6)
N2 0.0248(6) 0.0293(7) 0.0248(7) -0.0050(6) 0.0045(5) -0.0046(5)
N3 0.0268(7) 0.0357(8) 0.0241(7) -0.0033(6) 0.0038(5) 0.0014(6)
C4 0.0288(8) 0.0209(7) 0.0157(7) -0.0020(6) 0.0000(6) 0.0052(6)
C3 0.0266(8) 0.0223(8) 0.0218(8) 0.0029(7) 0.0081(6) 0.0012(6)
C1 0.0245(8) 0.0212(8) 0.0250(8) 0.0004(6) 0.0081(6) -0.0011(6)
C2 0.0251(8) 0.0236(8) 0.0193(7) 0.0006(6) 0.0076(6) 0.0010(6)
C5 0.0275(8) 0.0296(9) 0.0295(9) -0.0024(8) 0.0020(7) 0.0057(7)
loop_
_atom_type_symbol
_atom_type_description
_atom_type_scat_dispersion_real
_atom_type_scat_dispersion_imag
_atom_type_scat_source
C C 0.0033 0.0016 'International Tables Vol C Tables 4.2.6.8 and 6.1.1.4'
H H 0.0000 0.0000 'International Tables Vol C Tables 4.2.6.8 and 6.1.1.4'
N N 0.0061 0.0033 'International Tables Vol C Tables 4.2.6.8 and 6.1.1.4'
O O 0.0106 0.0060 'International Tables Vol C Tables 4.2.6.8 and 6.1.1.4'
loop_
_geom_angle_atom_site_label_1
_geom_angle_atom_site_label_2
_geom_angle_atom_site_label_3
_geom_angle
_geom_angle_site_symmetry_1
_geom_angle_site_symmetry_3
_geom_angle_publ_flag
C4 O1 C3 116.47(11) . . ?
N2 N1 C2 120.63(11) . . ?
C1 N1 N2 108.08(12) . . ?
C1 N1 C2 131.28(12) . . ?
C1 N4 N3 105.26(12) . . ?
N3 N2 N1 106.33(11) . . ?
N2 N3 N4 110.78(11) . . ?
O1 C4 C5 110.96(13) . . ?
O2 C4 O1 122.84(13) . . ?
O2 C4 C5 126.20(14) . . ?
O1 C3 C2 106.74(11) . . ?
O1 C3 H3A 109.6(9) . . ?
O1 C3 H3B 108.2(8) . . ?
C2 C3 H3A 113.0(8) . . ?
C2 C3 H3B 110.6(8) . . ?
H3A C3 H3B 108.7(12) . . ?
N1 C1 H1 124.0(10) . . ?
N4 C1 N1 109.55(13) . . ?
N4 C1 H1 126.4(10) . . ?
N1 C2 C3 111.11(11) . . ?
N1 C2 H2A 106.4(8) . . ?
N1 C2 H2B 108.5(8) . . ?
C3 C2 H2A 111.1(8) . . ?
C3 C2 H2B 109.3(8) . . ?
H2A C2 H2B 110.4(12) . . ?
C4 C5 H5A 111.0(10) . . ?
C4 C5 H5B 109.9(10) . . ?
C4 C5 H5C 110.5(11) . . ?
H5A C5 H5B 107.3(13) . . ?
H5A C5 H5C 107.6(14) . . ?
H5B C5 H5C 110.4(14) . . ?
loop_
_geom_bond_atom_site_label_1
_geom_bond_atom_site_label_2
_geom_bond_distance
_geom_bond_site_symmetry_2
_geom_bond_publ_flag
O1 C4 1.3448(16) . ?
O1 C3 1.4489(17) . ?
O2 C4 1.2043(16) . ?
N1 N2 1.3449(15) . ?
N1 C1 1.3292(18) . ?
N1 C2 1.4619(17) . ?
N4 N3 1.3589(17) . ?
N4 C1 1.3109(19) . ?
N2 N3 1.2963(16) . ?
C4 C5 1.488(2) . ?
C3 C2 1.5018(19) . ?
C3 H3A 0.975(15) . ?
C3 H3B 0.977(14) . ?
C1 H1 0.915(17) . ?
C2 H2A 0.973(14) . ?
C2 H2B 0.984(14) . ?
C5 H5A 0.968(17) . ?
C5 H5B 0.982(18) . ?
C5 H5C 0.944(18) . ?
loop_
_geom_contact_atom_site_label_1
_geom_contact_atom_site_label_2
_geom_contact_distance
_geom_contact_site_symmetry_1
_geom_contact_site_symmetry_2
_geom_contact_publ_flag
? ? ? ? ? ?
loop_
_geom_hbond_atom_site_label_D
_geom_hbond_atom_site_label_H
_geom_hbond_atom_site_label_A
_geom_hbond_distance_DH
_geom_hbond_distance_HA
_geom_hbond_distance_DA
_geom_hbond_angle_DHA
_geom_hbond_site_symmetry_A
? ? ? ? ? ? ? ?
loop_
_geom_torsion_atom_site_label_1
_geom_torsion_atom_site_label_2
_geom_torsion_atom_site_label_3
_geom_torsion_atom_site_label_4
_geom_torsion
_geom_torsion_site_symmetry_1
_geom_torsion_site_symmetry_2
_geom_torsion_site_symmetry_3
_geom_torsion_site_symmetry_4
_geom_torsion_publ_flag
O1 C3 C2 N1 -69.01(15) . . . . ?
N1 N2 N3 N4 0.12(15) . . . . ?
N2 N1 C1 N4 -0.12(16) . . . . ?
N2 N1 C2 C3 -71.33(15) . . . . ?
N3 N4 C1 N1 0.19(15) . . . . ?
C4 O1 C3 C2 156.33(11) . . . . ?
C3 O1 C4 O2 0.73(18) . . . . ?
C3 O1 C4 C5 -179.44(12) . . . . ?
C1 N1 N2 N3 -0.01(15) . . . . ?
C1 N1 C2 C3 107.31(16) . . . . ?
C1 N4 N3 N2 -0.19(15) . . . . ?
C2 N1 N2 N3 178.92(11) . . . . ?
C2 N1 C1 N4 -178.89(12) . . . . ?
