#------------------------------------------------------------------------------
#$Date: 2021-06-05 21:36:19 +0300 (Sat, 05 Jun 2021) $
#$Revision: 266023 $
#$URL: file:///home/coder/svn-repositories/cod/cif/7/70/70/7707044.cif $
#------------------------------------------------------------------------------
#
# This file is available in the Crystallography Open Database (COD),
# http://www.crystallography.net/
#
# All data on this site have been placed in the public domain by the
# contributors.
#
data_7707044
loop_
_publ_author_name
'Mao, Yumei'
'Dong, Xuehua'
'Deng, Yuandan'
'Li, Jing'
'Huang, Ling'
'Zeng, Hongmei'
'Zou, Guohong'
'Lin, Zhien'
_publ_section_title
;
 Amino acid-templated zinc phosphites: low-dimensional structures,
 fluorescence, and nonlinear optical properties.
;
_journal_issue                   16
_journal_name_full
'Dalton transactions (Cambridge, England : 2003)'
_journal_page_first              5442
_journal_page_last               5445
_journal_paper_doi               10.1039/d1dt00939g
_journal_volume                  50
_journal_year                    2021
_chemical_formula_moiety         'C3 H8 N O5 P Zn'
_chemical_formula_sum            'C3 H8 N O5 P Zn'
_chemical_formula_weight         234.44
_space_group_crystal_system      monoclinic
_space_group_IT_number           14
_space_group_name_Hall           '-P 2ybc'
_space_group_name_H-M_alt        'P 1 21/c 1'
_atom_sites_solution_hydrogens   mixed
_atom_sites_solution_primary     dual
_audit_creation_date             2021-02-28
_audit_creation_method
;
Olex2 1.2
(compiled 2018.05.29 svn.r3508 for OlexSys, GUI svn.r5506)
;
_audit_update_record
;
2021-03-02 deposited with the CCDC.	2021-03-30 downloaded from the CCDC.
;
_cell_angle_alpha                90
_cell_angle_beta                 95.095(4)
_cell_angle_gamma                90
_cell_formula_units_Z            4
_cell_length_a                   9.3318(3)
_cell_length_b                   5.2246(2)
_cell_length_c                   15.4277(9)
_cell_measurement_reflns_used    1974
_cell_measurement_temperature    295.0(3)
_cell_measurement_theta_max      27.8200
_cell_measurement_theta_min      4.1080
_cell_volume                     749.20(6)
_computing_cell_refinement
;
CrysAlisPro, Agilent Technologies,
Version 1.171.37.35 (release 13-08-2014 CrysAlis171 .NET)
(compiled Aug 13 2014,18:06:01)
;
_computing_data_collection
;
CrysAlisPro, Agilent Technologies,
Version 1.171.37.35 (release 13-08-2014 CrysAlis171 .NET)
(compiled Aug 13 2014,18:06:01)
;
_computing_data_reduction
;
CrysAlisPro, Agilent Technologies,
Version 1.171.37.35 (release 13-08-2014 CrysAlis171 .NET)
(compiled Aug 13 2014,18:06:01)
;
_computing_molecular_graphics    'Olex2 (Dolomanov et al., 2009)'
_computing_publication_material  'Olex2 (Dolomanov et al., 2009)'
_computing_structure_refinement  'ShelXL (Sheldrick, 2015)'
_computing_structure_solution    'ShelXT (Sheldrick, 2015)'
_diffrn_ambient_environment      air
_diffrn_ambient_temperature      295.0(3)
_diffrn_detector                 'CCD plate'
_diffrn_detector_area_resol_mean 15.9595
_diffrn_detector_type            EosS2
_diffrn_measured_fraction_theta_full 0.999
_diffrn_measured_fraction_theta_max 0.999
_diffrn_measurement_details
;
#__ type_ start__ end____ width___ exp.time_
  1 omega   35.00  119.00   1.0000    7.5000
omega____ theta____ kappa____ phi______ frames
    -       26.2420  178.0000 -180.0000 84

#__ type_ start__ end____ width___ exp.time_
  2 omega  -25.00  107.00   1.0000    7.5000
omega____ theta____ kappa____ phi______ frames
    -       26.2420   38.0000    0.0000 132

#__ type_ start__ end____ width___ exp.time_
  3 omega  -59.00  108.00   1.0000    7.5000
omega____ theta____ kappa____ phi______ frames
    -       26.2420  -19.0000  150.0000 167

#__ type_ start__ end____ width___ exp.time_
  4 omega  -17.00   63.00   1.0000    7.5000
omega____ theta____ kappa____ phi______ frames
    -       26.2420   77.0000 -180.0000 80
;
_diffrn_measurement_device       'four-circle diffractometer'
_diffrn_measurement_device_type  'New Gemini, Dual, Cu at zero, EosS2'
_diffrn_measurement_method       '\w scans'
_diffrn_orient_matrix_UB_11      -0.0739606000
_diffrn_orient_matrix_UB_12      -0.0113565000
_diffrn_orient_matrix_UB_13      -0.0145782000
_diffrn_orient_matrix_UB_21      -0.0151921000
_diffrn_orient_matrix_UB_22      0.1111546000
_diffrn_orient_matrix_UB_23      0.0239648000
_diffrn_orient_matrix_UB_31      0.0109499000
_diffrn_orient_matrix_UB_32      0.0771897000
_diffrn_orient_matrix_UB_33      -0.0366509000
_diffrn_radiation_monochromator  graphite
_diffrn_radiation_probe          x-ray
_diffrn_radiation_type           MoK\a
_diffrn_radiation_wavelength     0.71073
_diffrn_reflns_av_R_equivalents  0.0392
_diffrn_reflns_av_unetI/netI     0.0386
_diffrn_reflns_Laue_measured_fraction_full 0.999
_diffrn_reflns_Laue_measured_fraction_max 0.999
_diffrn_reflns_limit_h_max       11
_diffrn_reflns_limit_h_min       -11
_diffrn_reflns_limit_k_max       6
_diffrn_reflns_limit_k_min       -6
_diffrn_reflns_limit_l_max       19
_diffrn_reflns_limit_l_min       -18
_diffrn_reflns_number            4789
_diffrn_reflns_point_group_measured_fraction_full 0.999
_diffrn_reflns_point_group_measured_fraction_max 0.999
_diffrn_reflns_theta_full        25.242
_diffrn_reflns_theta_max         26.369
_diffrn_reflns_theta_min         3.287
_diffrn_source                   'Enhance (Mo) X-ray Source'
_exptl_absorpt_coefficient_mu    3.466
_exptl_absorpt_correction_T_max  1.00000
_exptl_absorpt_correction_T_min  0.54133
_exptl_absorpt_correction_type   multi-scan
_exptl_absorpt_process_details
;
CrysAlisPro, Agilent Technologies,
Version 1.171.37.35 (release 13-08-2014 CrysAlis171 .NET)
(compiled Aug 13 2014,18:06:01)
Empirical absorption correction using spherical harmonics,
 implemented in SCALE3 ABSPACK scaling algorithm.
;
_exptl_crystal_colour            'clear colourless'
_exptl_crystal_colour_lustre     clear
_exptl_crystal_colour_primary    colourless
_exptl_crystal_density_diffrn    2.078
_exptl_crystal_density_method    'not measured'
_exptl_crystal_description       plate
_exptl_crystal_F_000             472
_exptl_crystal_size_max          0.28
_exptl_crystal_size_mid          0.26
_exptl_crystal_size_min          0.14
_refine_diff_density_max         0.822
_refine_diff_density_min         -0.833
_refine_diff_density_rms         0.127
_refine_ls_extinction_method     none
_refine_ls_goodness_of_fit_ref   1.094
_refine_ls_hydrogen_treatment    constr
_refine_ls_matrix_type           full
_refine_ls_number_parameters     102
_refine_ls_number_reflns         1545
_refine_ls_number_restraints     0
_refine_ls_restrained_S_all      1.094
_refine_ls_R_factor_all          0.0508
_refine_ls_R_factor_gt           0.0419
_refine_ls_shift/su_max          0.000
_refine_ls_shift/su_mean         0.000
_refine_ls_structure_factor_coef Fsqd
_refine_ls_weighting_details
'w=1/[\s^2^(Fo^2^)+(0.0631P)^2^+0.3622P] where P=(Fo^2^+2Fc^2^)/3'
_refine_ls_weighting_scheme      calc
_refine_ls_wR_factor_gt          0.1087
_refine_ls_wR_factor_ref         0.1155
_reflns_Friedel_coverage         0.000
_reflns_number_gt                1304
_reflns_number_total             1545
_reflns_threshold_expression     'I > 2\s(I)'
_cod_data_source_file            d1dt00939g2.cif
_cod_data_source_block           1_CCDC2
_cod_depositor_comments
'Adding full bibliography for 7707042--7707044.cif.'
_cod_original_cell_volume        749.21(6)
_cod_database_code               7707044
_shelx_shelxl_version_number     2014/7
_shelx_space_group_comment
;
The symmetry employed for this shelxl refinement is uniquely defined
by the following loop, which should always be used as a source of
symmetry information in preference to the above space-group names.
They are only intended as comments.
;
_reflns_odcompleteness_completeness 99.71
_reflns_odcompleteness_iscentric 1
_reflns_odcompleteness_theta     26.32
_olex2_refinement_description
;
1. Fixed Uiso
 At 1.2 times of:
  All C(H) groups, All N(H,H,H) groups, All P(H) groups
 At 1.5 times of:
  All C(H,H,H) groups
2.a Riding coordinates:
 P1(H1)
2.b Ternary CH refined with riding coordinates:
 C2(H2)
2.c Idealised Me refined as rotating group:
 N1(H1A,H1B,H1C), C3(H3A,H3B,H3C)
;
_shelx_res_file
;
    1.res created by SHELXL-2014/7

TITL s1-122-1_a.res in P2(1)/c
REM Old TITL s1-122-1 in P21/c #14
REM SHELXT solution in P2(1)/c
REM R1 0.108, Rweak 0.411, Alpha 0.028, Orientation as input
REM Formula found by SHELXT: C3 N O5 P Zn
CELL 0.71073 9.331808 5.224634 15.427689 90 95.0952 90
ZERR 4 0.000313 0.000224 0.000897 0 0.004 0
LATT 1
SYMM -X,0.5+Y,0.5-Z
SFAC C H N O P Zn
UNIT 12 32 4 20 4 4
EQIV $1 1-X,0.5+Y,0.5-Z
EQIV $2 1+X,+Y,+Z
EQIV $3 1+X,1+Y,+Z

L.S. 10
PLAN  20
HTAB N1 O5_$1
HTAB N1 O1_$2
HTAB N1 O2_$3
BOND $H
LIST 6
fmap 2
acta
SHEL 999 0.8
REM <olex2.extras>
REM <HklSrc "%.\\1.hkl">
REM </olex2.extras>

WGHT    0.063100    0.362200
FVAR       0.61421
ZN1   6    0.157902    0.684118    0.327786    11.00000    0.01427    0.02350 =
         0.03599    0.00006    0.00014   -0.00070
P1    5   -0.016845    0.180486    0.365721    11.00000    0.01656    0.02064 =
         0.03041    0.00016    0.00130    0.00023
AFIX   3
H1    2   -0.063135    0.263106    0.442151    11.00000   -1.20000
AFIX   0
O1    4   -0.147286    0.232422    0.300210    11.00000    0.01776    0.02978 =
         0.03701   -0.00065   -0.00059    0.00425
O2    4    0.009476   -0.107094    0.376167    11.00000    0.01935    0.02074 =
         0.04173    0.00306    0.00398   -0.00060
O3    4    0.117301    0.324410    0.344717    11.00000    0.02087    0.02325 =
         0.05440    0.00260    0.00021   -0.00279
O4    4    0.350184    0.798431    0.370336    11.00000    0.01460    0.03767 =
         0.04966   -0.00876    0.00043    0.00021
O5    4    0.458459    0.457457    0.316243    11.00000    0.02232    0.03846 =
         0.05382   -0.01273    0.00380   -0.00625
N1    3    0.707742    0.707010    0.314809    11.00000    0.01509    0.02746 =
         0.03992   -0.00117    0.00153   -0.00134
AFIX 137
H1A   2    0.680698    0.765375    0.261667    11.00000   -1.20000
H1B   2    0.708446    0.536682    0.314118    11.00000   -1.20000
H1C   2    0.795564    0.764490    0.331753    11.00000   -1.20000
AFIX   0
C1    1    0.459009    0.671169    0.350940    11.00000    0.01565    0.03111 =
         0.02849   -0.00017    0.00003   -0.00225
C2    1    0.604390    0.798601    0.376824    11.00000    0.01524    0.03231 =
         0.03754   -0.00601    0.00368   -0.00075
AFIX  13
H2    2    0.594003    0.984793    0.371792    11.00000   -1.20000
AFIX   0
C3    1    0.660061    0.730225    0.469210    11.00000    0.02871    0.08419 =
         0.04064   -0.00403   -0.00728   -0.00873
AFIX 137
H3A   2    0.672564    0.548215    0.473885    11.00000   -1.50000
H3B   2    0.592179    0.785546    0.508557    11.00000   -1.50000
H3C   2    0.750700    0.813609    0.483700    11.00000   -1.50000
AFIX   0
HKLF 4

REM  s1-122-1_a.res in P2(1)/c
REM R1 =  0.0419 for    1304 Fo > 4sig(Fo)  and  0.0508 for all    1545 data
REM    102 parameters refined using      0 restraints

END

WGHT      0.0631      0.3622

REM Highest difference peak  0.822,  deepest hole -0.833,  1-sigma level  0.127
Q1    1   0.1533  0.8358  0.3266  11.00000  0.05    0.73
Q2    1  -0.1580  0.1847  0.2386  11.00000  0.05    0.65
Q3    1   0.1463  0.4905  0.3140  11.00000  0.05    0.51
Q4    1   0.1532  0.6967  0.4006  11.00000  0.05    0.45
Q5    1   0.0041  0.0217  0.3811  11.00000  0.05    0.42
Q6    1  -0.0140  0.1680  0.4333  11.00000  0.05    0.37
Q7    1   0.1330  0.4237  0.2695  11.00000  0.05    0.36
Q8    1   0.5069  0.4337  0.2640  11.00000  0.05    0.33
Q9    1   0.1757  0.7010  0.4355  11.00000  0.05    0.33
Q10   1   0.0019  0.1841  0.4759  11.00000  0.05    0.32
Q11   1   0.1596  0.0450  0.2885  11.00000  0.05    0.31
Q12   1   0.6739  0.4011  0.2275  11.00000  0.05    0.31
Q13   1   0.4087  0.4844  0.2989  11.00000  0.05    0.31
Q14   1   0.4572  0.5846  0.2913  11.00000  0.05    0.31
Q15   1   0.6034  0.9563  0.4927  11.00000  0.05    0.29
Q16   1  -0.0247 -0.0379  0.3328  11.00000  0.05    0.29
Q17   1  -0.0055  0.3366  0.3593  11.00000  0.05    0.29
Q18   1   0.6381  0.9635  0.4419  11.00000  0.05    0.28
Q19   1   0.6740  0.6850  0.2821  11.00000  0.05    0.28
Q20   1   0.6199  0.7450  0.4209  11.00000  0.05    0.27
;
_shelx_res_checksum              90474
_shelx_hkl_file
;
   0   0  -3    5.54    1.63
   0   0   3    8.33    2.22
   0   0   4 8602.27  149.02
   0   0  -4 8627.89  145.21
   0   0  -5    0.39    1.88
   0   0   5    2.39    2.38
   0   0   6 9826.87  162.60
   0   0  -6 9999.00  171.47
   0   0   6 9964.32  177.27
   0   0   7    0.63    0.98
   0   0  -7    0.21    1.61
   0   0   7    2.48    2.82
   0   0   8  154.91   13.67
   0   0   8  143.66    8.44
   0   0  -8  160.91   12.11
   0   0   9   -0.05    1.21
   0   0  -9    0.50    1.77
   0   0   9    0.99    2.54
   0   0 -10  217.04   15.90
   0   0  10  231.15   19.08
   0   0 -11    1.25    3.28
   0   0  11    4.76    2.84
   0   0 -12   17.07    4.92
   0   0  12   17.77    6.33
   0   0 -13   -3.53    3.78
   0   0  13   -1.13    3.18
   0   0  14  182.53   20.80
   0   0  15   -0.19    4.12
   0   0  16  137.04   19.61
   0   0  17    1.13    6.47
   0   0  18   -3.06    6.33
   0   0  19   -3.11    6.17
   0   0  20  132.31   22.30
   0  -1   0    7.36    1.81
   0   1   0    4.49    1.79
   0   1   0    7.99    1.42
   0  -1   1   22.06    2.29
   0   1  -1   28.57    3.59
   0   1   1   27.30    3.18
   0  -1  -1   20.85    3.26
   0   1   2 2915.88   57.88
   0  -1  -2 2758.40   58.28
   0   1  -2 2916.57   57.26
   0  -1   3  614.55   15.86
   0   1   3  674.49   22.51
   0  -1  -3  662.96   22.57
   0   1  -3  667.66   21.62
   0   1   4 1009.91   30.88
   0  -1  -4 1010.23   31.00
   0  -1   4 1003.96   25.48
   0   1  -4 1003.07   30.39
   0   1   5 1847.13   47.97
   0  -1  -5 1849.86   47.67
   0  -1   5 1901.68   42.36
   0   1  -5 1997.76   49.38
   0   1   6    9.45    3.27
   0   1  -6    6.12    1.59
   0  -1  -6    4.10    1.95
   0  -1   6    8.81    3.29
   0   1  -6    7.59    4.32
   0   1  -7   55.22    5.06
   0  -1   7   62.07    7.57
   0   1   7   66.01    9.09
   0  -1  -7   61.82    8.42
   0   1  -7   60.88    9.11
   0   1  -8  659.82   22.01
   0  -1   8  735.04   29.62
   0   1   8  705.21   31.89
   0  -1  -8  742.11   31.33
   0   1   9  932.81   39.27
   0   1  -9  858.45   27.95
   0  -1  -9  969.56   38.02
   0  -1   9  960.71   36.81
   0   1  -9 1059.46   43.08
   0  -1  10  664.11   29.18
   0  -1  10  742.22   33.76
   0  -1 -10  732.18   33.97
   0   1  10  763.95   36.56
   0  -1  11  600.84   32.00
   0  -1 -11  608.91   31.73
   0  -1  11  535.30   26.33
   0   1  11  572.70   33.10
   0  -1 -12  355.57   25.24
   0  -1  12  368.06   26.11
   0   1  12  399.46   28.68
   0  -1 -13    3.51    3.98
   0   1  13   19.14    8.18
   0  -1  13    9.02    5.18
   0  -1 -14  176.47   19.22
   0  -1  14  167.83   19.46
   0   1  14  166.22   20.13
   0  -1  15  195.09   21.64
   0   1  15  195.67   22.89
   0  -1 -15  196.55   20.96
   0  -1  16  488.99   35.82
   0   1  16  533.01   39.62
   0   1  17   23.96    9.33
   0   1  18   66.79   16.00
   0   1  19   -4.83    5.97
   0   2   0 9483.83  162.58
   0  -2   0 8997.50  161.52
   0   2   0 9115.77  154.22
   0   2   1  837.67   25.36
   0  -2  -1  840.55   28.90
   0  -2   1  828.93   25.36
   0   2  -1  899.98   29.44
   0   2  -1  817.75   19.91
   0  -2  -2  680.59   26.90
   0  -2   2  721.70   21.12
   0   2  -2  770.19   26.79
   0   2   2  719.93   25.09
   0  -2  -3  113.78   10.75
   0   2  -3  118.47   10.62
   0  -2   3  116.44    6.28
   0   2   3  112.70   10.07
   0   2   4 1211.96   36.77
   0   2  -4 1306.58   37.43
   0  -2  -4 1175.60   38.23
   0   2   5  468.83   23.37
   0  -2   5  388.92   12.68
   0   2  -5  469.16   22.85
   0  -2  -5  453.29   23.86
   0   2   6 1868.70   55.65
   0  -2  -6 1889.53   56.53
   0  -2   6 1801.34   40.57
   0  -2   7 1001.02   29.90
   0   2  -7 1103.25   40.41
   0   2   7 1022.01   40.42
   0  -2  -7 1068.68   41.63
   0   2   8   41.92    8.70
   0  -2   8   29.14    5.28
   0  -2  -8   34.24    7.49
   0   2  -8   46.65    9.08
   0   2  -9   39.17    8.55
   0  -2   9   28.75    5.76
   0   2   9   24.73    6.99
   0  -2  -9   34.89    8.11
   0   2 -10  128.78   15.94
   0  -2  10  106.22   11.65
   0  -2 -10  133.04   15.51
   0   2  10  115.26   14.67
   0   2  11  152.50   17.92
   0   2 -11  185.27   19.82
   0  -2 -11  178.78   18.92
   0  -2  12    9.85    5.42
   0   2  12   22.16    7.29
   0  -2 -12   15.19    5.92
   0   2 -12   17.69    8.01
   0   2  13  128.91   18.16
   0  -2 -13   99.88   15.35
   0   2  14   24.53    7.95
   0  -2 -14   25.94    9.15
   0  -2 -15   -0.84    4.76
   0   2  15   10.99    6.48
   0   2  16   -1.94    5.55
   0  -2 -16    8.05    5.65
   0   2  17    6.00    7.13
   0  -2 -17   -5.89    6.22
   0   2  18   -1.54    4.71
   0  -2 -18   -2.12    4.44
   0   3   0    1.84    1.89
   0   3   0    1.23    2.94
   0  -3   0   -0.10    2.13
   0   3  -1   37.69    7.14
   0  -3   1   34.57    5.73
   0  -3  -1   30.05    5.98
   0   3   1   32.36    5.19
   0   3  -1   32.29    4.18
   0   3   1   37.12    6.95
   0  -3  -2   84.28   10.52
   0   3  -2   78.19    5.07
   0   3   2   82.78    9.13
   0   3  -2   90.18   10.48
   0  -3   2  100.99    9.40
   0  -3  -3  550.90   29.36
   0   3  -3  630.89   29.19
   0  -3   3  561.30   21.42
   0   3   3  554.59   26.16
   0  -3   4  131.03    8.42
   0   3  -4  143.37   14.33
   0   3   4  141.79   13.26
   0  -3  -4  146.67   16.45
   0   3   5 1185.48   44.32
   0  -3  -5 1212.52   48.04
   0   3  -5 1284.49   46.14
   0  -3  -6   50.97    9.65
   0   3  -6   28.33    6.55
   0   3   6   48.04    8.97
   0   3   7    4.02    3.56
   0   3  -7    4.86    4.90
   0  -3  -7   -2.87    4.43
   0   3  -8  152.50   16.89
   0  -3  -8  132.38   16.38
   0   3   8  121.69   14.91
   0  -3  -9 1440.18   59.42
   0   3   9 1441.42   57.65
   0   3  -9 1602.93   58.91
   0   3 -10  215.56   21.58
   0  -3 -10  163.43   19.48
   0   3  10  156.65   18.98
   0   3  11  862.55   46.27
   0  -3 -11  880.18   47.79
   0   3 -11  972.91   49.23
   0  -3 -12   38.46   10.67
   0   3  12   51.44   11.72
   0   3 -12   58.72   12.86
   0   3 -13   80.10   15.85
   0  -3  13   65.50   13.13
   0  -3 -13   42.47   10.99
   0   3  13   70.17   14.24
   0  -3 -14   25.61    9.94
   0   3 -14   33.57   11.26
   0   3  14   30.12   10.33
   0   3 -15  565.88   42.85
   0  -3 -15  562.39   42.76
   0   3  15  626.70   44.75
   0   3  16   66.59   15.35
   0  -3 -16   63.63   15.29
   0  -3 -17   74.84   16.89
   0   4   0  210.01   21.45
   0  -4   0  150.18   16.77
   0   4  -1 2101.87   65.55
   0  -4  -1 1998.13   67.39
   0   4   1 2152.40   66.20
   0  -4   1 1941.25   61.77
   0   4   2   45.99   10.49
   0   4  -2   13.39    5.67
   0   4   3    2.20    4.07
   0  -4  -3    5.38    5.76
   0   4   3    0.11    2.74
   0   4  -3    1.24    2.90
   0  -4  -4   97.94   14.49
   0   4  -4   93.16   13.55
   0   4   4   90.40   11.99
   0  -4  -5 1012.11   50.43
   0   4   5  932.05   43.14
   0  -4  -6    7.57    5.24
   0   4   6    0.20    3.55
   0   4  -6    7.12    5.75
   0  -4  -7  800.16   46.33
   0   4  -7  863.18   43.23
   0  -4  -8   80.74   15.10
   0   4   8   65.34   12.07
   0   4  -8   72.41   12.74
   0   4   9   18.17    7.69
   0   4  -9   14.67    6.91
   0  -4  -9    4.30    5.01
   0  -4 -10   35.27   10.54
   0   4 -10   61.31   12.93
   0   4  10   36.13   10.18
   0   4  11   60.64   12.26
   0  -4 -11   63.62   14.37
   0   4 -11   70.20   14.37
   0   4  12    4.14    5.58
   0   4 -12    7.25    5.39
   0  -4 -12    3.74    4.53
   0   4 -13  105.16   18.93
   0  -4 -13   97.73   18.37
   0  -4  13  128.77   21.14
   0   4  13  103.21   17.83
   0   4 -14   18.20    9.24
   0   4  14   23.16    9.72
   0  -4 -14    0.86    6.71
   0  -4 -15   52.54   15.13
   0   4  15   34.11   10.69
   0   4 -15   35.77   12.42
   0   5   0    8.15    6.42
   0   5   1   56.29   11.81
   0   5  -1   66.55   12.31
   0   5   2   35.42    8.97
   0  -5  -2   52.95   12.39
   0   5  -2   62.73   13.49
   0   5   3  320.65   26.81
   0  -5  -3  289.79   29.25
   0   5  -3  307.96   26.67
   0  -5  -4  162.94   22.26
   0   5  -4  193.19   21.91
   0   5   4  202.67   20.91
   0   5   5  354.47   29.02
   0   5  -5  399.06   31.27
   0  -5  -5  340.33   32.91
   0   5  -6   87.29   15.31
   0  -5  -6   81.29   16.73
   0   5  -7   -5.34    3.83
   0  -5  -7   -7.70    6.90
   0   5  -8    4.99    5.93
   0  -5  -8    4.21    7.91
   0   5  -9  400.50   34.69
   0  -5  -9  392.91   38.57
   0   5 -10  186.35   24.04
   0  -5 -10  139.69   23.33
   0   5  10  128.67   19.80
   0   5  11  256.39   29.00
   0  -5 -11  300.17   34.44
   0   5 -11  317.11   31.50
   0   5  12   20.64    8.82
   0   5 -12   33.56   11.54
   0  -5 -12   11.98    8.28
   0  -5  12   25.18   12.51
   0   5  13   -0.63    4.40
   0  -5  13   -6.32   10.14
   0   6   0  608.28   41.85
   0   6  -1  185.60   23.18
   0   6   1  247.91   27.31
   0   6   2  103.39   18.14
   0   6  -2   69.68   14.33
   0   6   3   -2.57    4.48
   0   6  -3   10.54    6.26
   0   6   4  217.48   25.51
   0   6  -4  230.99   26.34
   0   6  -5   87.15   16.95
   0  -6  -5   90.73   18.85
   0   6   5   80.81   15.82
   0   6  -6  314.37   31.31
   0   6   6  314.55   31.24
   0  -6  -6  259.80   34.04
   0   6   7   90.79   17.41
   0   6  -7   60.95   14.43
   0  -6  -7   60.49   17.75
   0  -6  -8    6.64    6.77
   0   6   8   -6.74    7.39
  -1   0  20  112.51   20.70
  -1   0  19   11.11    8.58
  -1   0  18   10.35    5.58
  -1   0  17    5.60    3.74
  -1   0  16  454.53   35.42
  -1   0  15   -1.70    4.38
  -1   0  14  218.27   22.90
   1   0 -13    2.47    3.05
  -1   0  13    1.51    4.54
   1   0 -12    9.82    3.89
  -1   0  12   15.02    5.25
  -1   0  11    6.82    4.50
   1   0 -11   -2.03    2.77
  -1   0  10  354.08   23.33
   1   0 -10  372.90   20.90
  -1   0  10  331.02   16.49
  -1   0   9   -2.28    2.89
   1   0  -9    0.23    2.31
  -1   0   9    0.82    1.99
  -1   0   8  898.56   27.69
   1   0  -8  983.42   32.47
  -1   0   8  946.29   35.92
  -1   0   7   -1.71    1.50
  -1   0   7    0.41    2.57
   1   0  -7   -1.96    2.42
  -1   0   6 2108.04   52.35
   1   0  -6 2138.16   48.12
  -1   0   5    1.12    1.78
  -1   0   5   -0.38    1.49
   1   0  -5   -0.40    1.48
  -1   0   4   18.60    3.55
   1   0  -4   18.68    3.04
  -1   0   4   18.80    2.96
  -1   0   3   -0.40    1.26
   1   0  -3    0.66    0.99
   1   0  -2 4347.03   75.67
  -1   0  -2  242.31   10.05
   1   0   2  278.26   10.83
   1   0   3    0.97    1.63
  -1   0  -3   -0.38    1.17
   1   0   4 6698.90  122.61
  -1   0  -4 6861.85  120.88
  -1   0  -5    1.28    2.19
   1   0   5    0.41    1.73
  -1   0  -6   26.67    4.90
   1   0   6   22.49    5.02
  -1   0  -7    1.05    2.10
   1   0   7    2.81    2.64
   1   0   8  869.30   35.78
  -1   0  -8  960.46   33.77
   1   0   9   -0.48    2.56
  -1   0  -9    2.56    2.20
   1   0  10 1665.77   57.08
  -1   0 -10 1623.92   50.98
  -1   0 -11    0.08    2.71
   1   0  11   -3.96    4.57
  -1   0 -12    8.22    4.84
   1   0  12   11.07    5.81
  -1   0 -13   -2.72    4.07
   1   0  13   -2.80    5.08
   1   0  14  203.64   22.55
   1   0  15   -1.29    5.37
   1   0  16   97.66   16.68
   1   0  17    3.84    3.92
   1   0  18   39.60   12.01
   1   0  19   -4.49    5.48
  -1   1  19   -2.12    6.71
  -1   1  18  104.35   19.44
  -1   1  17   17.54    7.12
  -1   1  16  247.71   26.62
   1  -1 -16  208.75   22.54
  -1   1  15   18.92    7.90
   1  -1 -15   27.28    8.22
   1  -1 -14   16.29    6.07
  -1  -1  14   25.56    8.24
  -1   1  14   21.59    7.67
   1  -1 -13    0.69    2.80
  -1  -1  13   16.66    7.06
  -1   1  13    9.55    4.51
  -1  -1  12  885.55   40.54
   1  -1 -12  883.88   40.72
  -1   1  12  938.73   45.04
  -1  -1  11  261.55   20.05
  -1   1  11  245.87   21.45
  -1  -1  11  267.87   18.79
   1  -1 -11  285.26   21.25
  -1  -1  10 1101.21   41.24
   1   1 -10  989.01   31.64
  -1  -1  10 1136.58   40.33
  -1   1  10 1097.87   44.99
   1  -1 -10 1109.27   42.89
   1   1  -9   38.33    5.06
  -1   1   9   36.00    8.05
   1  -1  -9   36.00    7.57
  -1  -1   9   34.39    6.56
  -1  -1   9   37.20    6.48
  -1   1   8  425.06   24.36
   1   1  -8  401.35   16.21
   1  -1  -8  472.00   24.58
  -1  -1   8  446.83   21.94
   1   1  -8  441.44   25.94
  -1  -1   8  424.32   21.95
   1  -1  -7  407.64   21.80
   1   1  -7  450.33   24.49
   1   1  -7  367.85   14.22
  -1  -1   7  420.11   19.62
  -1  -1   7  398.84   20.40
  -1   1   7  438.50   23.33
  -1  -1   6 2464.18   59.64
  -1  -1   6 2326.82   54.57
   1   1  -6 2347.27   47.11
  -1   1   6 2545.98   62.59
   1  -1  -6 2468.02   61.06
   1   1  -6 2661.34   65.10
   1   1  -5  620.87   25.94
   1  -1  -5  625.21   24.34
  -1  -1   5  579.27   23.43
  -1  -1   5  566.76   19.58
   1   1  -5  550.84   15.04
  -1   1   5  604.00   24.49
  -1  -1   4  952.36   30.13
   1  -1  -4  998.08   30.70
  -1   1   4 1041.71   31.02
   1   1  -4 1002.00   30.76
  -1  -1   4  965.55   24.24
   1  -1  -3  277.49   13.98
   1   1  -3  268.28    8.90
  -1  -1   3  265.72   14.03
   1   1  -3  267.99   13.37
   1   1  -2 4398.22   81.90
  -1  -1   2 4276.27   85.17
   1   1  -2 4459.57   76.16
   1   1  -1 1397.07   31.82
   1   1  -1 1384.59   26.84
  -1  -1   1 1594.28   36.86
   1  -1  -1 1546.43   34.60
   1  -1   0 1421.52   31.99
  -1  -1   0 1455.40   32.57
   1   1   0 1408.14   28.41
  -1   1   0 1398.07   31.71
  -1  -1   0 1517.79   34.99
   1   1   1  133.96    7.49
  -1  -1  -1  130.08    8.52
  -1  -1  -1  123.11    7.90
  -1   1  -1  127.15    7.81
   1  -1   1  100.06    6.01
   1  -1   1  110.74    6.26
   1   1   2    9.44    2.62
  -1   1  -2    9.28    2.51
   1  -1   2    5.97    1.71
  -1  -1  -2    7.44    2.47
  -1  -1  -2   15.28    2.91
   1  -1   2    4.08    1.36
  -1  -1  -3  120.05    9.41
   1  -1   3  109.97    5.93
   1  -1   3  107.78    6.81
  -1   1  -3  122.06    8.69
   1   1   3  126.49    9.28
  -1  -1  -3  116.35    6.70
  -1  -1  -4  217.92    8.79
  -1  -1  -4  253.75   14.60
   1  -1   4  233.46   11.29
   1  -1   4  215.58    9.03
  -1   1  -4  244.59   13.76
   1   1   4  243.91   14.25
  -1  -1  -5  149.93    6.92
   1   1   5  194.79   13.61
  -1  -1  -5  193.83   13.52
  -1   1  -5  203.81   13.53
   1  -1   5  197.50   11.77
   1  -1   5  182.80    9.01
   1  -1   6   30.33    5.14
   1   1   6   22.00    5.01
  -1   1  -6   19.21    4.85
  -1  -1  -6   19.92    4.85
   1  -1   7  123.84   11.27
   1   1   7  131.22   12.66
  -1   1  -7  142.87   13.58
  -1  -1  -7  124.07   12.14
  -1   1  -8  296.49   21.21
  -1  -1  -8  260.67   18.45
   1  -1   8  252.76   17.62
   1   1   8  273.91   19.58
  -1   1  -9  183.35   17.25
   1   1   9  173.10   16.55
   1  -1   9  180.88   15.47
  -1  -1  -9  187.19   16.32
   1   1  10  875.47   40.14
   1  -1  10  832.99   37.32
  -1  -1 -10  889.79   38.82
   1  -1  11   -2.64    3.20
   1   1  11   -3.63    5.32
  -1  -1 -11   -3.18    3.54
   1  -1  12    8.46    5.01
   1   1  12    9.40    4.85
  -1  -1 -12    6.55    2.92
   1   1  13  161.49   19.39
  -1  -1 -13  153.45   17.77
   1  -1  13  140.51   17.37
   1   1  14  432.80   33.49
  -1  -1 -14  415.79   30.42
   1  -1  14  394.54   30.29
  -1  -1 -15   85.28   14.80
   1   1  15  130.65   20.07
   1  -1  15  133.58   17.94
   1  -1  16  399.38   32.87
   1   1  16  473.74   38.08
   1   1  17    8.75    5.59
   1   1  18   13.23    7.54
   1   1  19   43.54   13.72
   1  -2 -18   16.54    7.60
  -1   2  18  -10.12    7.58
   1  -2 -17  123.99   19.13
  -1   2  17  174.25   24.92
  -1   2  16  182.92   24.34
   1  -2 -16  168.48   22.09
  -1   2  15  222.05   25.44
   1  -2 -15  224.30   24.27
  -1   2  14  145.25   18.94
   1  -2 -14  141.92   18.94
  -1   2  13   12.11    4.76
   1  -2 -13   12.57    6.00
  -1  -2  12   65.97   11.13
   1   2 -12   64.80   12.93
  -1   2  12   72.46   13.07
   1  -2 -12   65.67   12.17
  -1   2  11  111.36   14.93
   1   2 -11   99.15   15.16
  -1  -2  11   88.79   12.93
   1  -2 -11   95.63   13.66
   1   2 -10  169.45   18.25
  -1   2  10  172.17   18.09
  -1  -2  10  166.01   17.06
   1  -2 -10  166.85   17.53
  -1   2   9  326.36   24.17
  -1  -2   9  320.09   18.48
  -1  -2   9  360.18   24.71
   1   2  -9  354.42   25.03
   1  -2  -9  354.61   24.93
  -1   2   8 1262.98   47.62
   1   2  -8 1351.84   48.31
  -1  -2   8 1257.73   47.14
   1  -2  -8 1257.02   47.78
   1   2  -7  255.75   18.70
  -1  -2   7  235.15   12.67
   1  -2  -7  274.40   20.21
  -1   2   7  263.86   19.77
  -1   2   6 1619.28   50.26
   1   2  -6 1615.85   48.97
   1  -2  -6 1603.26   50.91
   1   2  -5   13.61    3.98
   1  -2  -5   33.08    6.45
  -1  -2   5   18.98    2.19
  -1   2   5   27.42    5.89
  -1   2   4   38.83    6.48
   1  -2  -4   31.92    6.19
   1   2  -4   38.63    6.39
   1   2  -4   30.48    2.97
   1  -2  -3  339.53   19.29
  -1   2   3  345.13   17.75
   1   2  -3  356.82   18.44
  -1   2   2 1942.03   47.55
   1   2  -2 1995.08   48.94
  -1  -2   2 1894.40   42.62
   1  -2  -2 1837.44   50.57
   1  -2  -1  738.79   27.13
   1   2  -1  672.83   17.06
   1   2  -1  768.56   26.27
   1   2   0 1420.23   39.02
   1   2   0 1516.60   33.94
   1  -2   0 1404.02   39.58
  -1  -2   0 1548.62   40.66
  -1   2   0 1424.72   39.35
  -1  -2  -1  297.74   16.55
  -1   2  -1  342.21   17.30
   1   2   1  339.45   14.95
   1  -2   1  294.83   14.85
  -1  -2  -2   78.35    8.72
  -1   2  -2   79.92    8.30
   1  -2   2   76.95    6.81
   1   2   2   93.64    8.60
  -1  -2  -3  184.87   12.36
  -1  -2  -3  175.28   13.60
  -1   2  -3  204.27   13.99
   1  -2   3  159.83    8.24
   1  -2   3  169.80    9.21
   1   2   3  173.61   12.65
  -1   2  -4  700.95   27.80
   1  -2   4  623.96   17.90
  -1  -2  -4  682.36   29.29
  -1  -2  -4  675.52   24.08
   1  -2   4  625.65   19.34
   1   2   4  657.12   27.38
   1   2   5  967.29   35.67
  -1  -2  -5  890.91   35.41
  -1  -2  -5  985.88   28.53
  -1   2  -5 1023.45   35.32
   1  -2   5  892.02   25.47
   1  -2   6  149.89   10.03
  -1   2  -6  148.24   13.63
  -1  -2  -6  155.19   14.47
  -1  -2  -6  146.03    9.49
   1   2   6  139.53   13.68
  -1   2  -7  104.51   11.87
   1   2   7  102.45   12.36
  -1  -2  -7  102.12   12.27
  -1  -2  -7   76.13    6.01
   1  -2   7   86.73    8.33
   1   2   8    2.27    2.87
   1  -2   8   -3.41    3.07
  -1  -2  -8    8.23    4.95
  -1   2  -8    3.71    3.55
  -1  -2  -9  240.17   20.60
  -1   2  -9  257.23   21.39
   1  -2   9  242.01   16.73
   1   2   9  218.86   20.02
  -1   2 -10  378.59   26.66
   1   2  10  333.37   25.27
  -1  -2 -10  315.43   24.72
   1  -2  10  312.41   20.68
  -1   2 -11  268.12   23.95
  -1  -2 -11  284.36   24.51
   1   2  11  261.64   23.88
  -1  -2 -12   22.78    8.13
   1   2  12   25.38    7.55
  -1   2 -12   30.23    9.71
  -1  -2 -13    2.91    3.53
   1   2  13   -5.20    4.83
  -1   2 -13    5.29    6.94
  -1  -2 -14   60.36   12.42
   1   2  14   54.66   12.41
  -1  -2 -15   19.54    8.56
   1   2  15   24.04    9.64
   1   2  16   47.41   13.47
  -1  -2 -16   39.04   11.39
  -1  -2 -17   17.86    7.44
   1   2  17    7.98    6.18
   1   2  18   19.88    9.12
  -1  -2 -18    1.91    3.59
   1  -3 -17  148.31   23.04
  -1   3  17  158.72   24.72
   1  -3 -16    7.74    5.30
  -1   3  16    6.08    7.57
  -1   3  15  102.77   18.25
   1  -3 -15  113.99   18.67
   1  -3 -14   42.41   11.49
  -1   3  14   56.61   13.07
   1   3 -14   27.34    9.13
   1   3 -13  182.57   22.17
  -1   3  13  168.77   22.16
  -1  -3  13  170.76   20.73
   1  -3 -13  179.40   22.66
   1  -3 -12    9.06    6.34
   1   3 -12    8.20    4.56
  -1   3  12    8.61    6.78
  -1  -3  12   14.13    7.14
   1   3 -11 1384.05   59.73
  -1   3  11 1187.91   55.81
   1  -3 -11 1282.78   58.34
  -1  -3  11 1267.56   57.97
  -1  -3  10  105.10   16.12
  -1   3  10   85.38   14.15
   1   3 -10  111.72   15.46
   1  -3 -10   96.97   15.02
  -1   3   9  175.81   19.04
   1  -3  -9  205.10   21.16
   1   3  -9  234.32   21.07
  -1  -3   9  219.37   22.15
  -1   3   8   36.05    8.33
   1   3  -8   30.97    7.69
   1  -3  -8   31.86    8.36
   1  -3  -7  999.85   45.77
   1   3  -7 1093.82   44.71
  -1   3   7  942.59   42.29
  -1   3   6  243.34   19.87
   1  -3  -6  268.84   22.71
   1   3  -6  272.77   20.69
   1  -3  -5 2284.74   71.60
  -1   3   5 2312.44   67.30
   1   3  -5 2401.69   67.12
   1   3  -4    6.31    4.72
  -1   3   4   10.96    3.98
   1  -3  -4   10.56    4.89
   1   3  -3  120.06   12.77
  -1   3   3  112.46   11.83
   1  -3  -3  116.14   13.81
  -1  -3   3  105.55    8.69
  -1   3   2 1091.05   36.89
  -1  -3   2 1065.87   34.36
   1  -3  -2 1037.37   41.86
   1   3  -2 1126.95   39.50
  -1   3   1  874.14   33.39
   1  -3  -1  808.26   35.71
  -1  -3   1  940.52   33.21
   1   3  -1  937.68   35.99
   1   3  -1  852.10   22.45
  -1   3   1  819.72   30.19
  -1   3   0  205.10   13.26
  -1   3   0  213.48   17.22
   1   3   0  226.54   12.37
  -1  -3   0  215.72   16.25
   1   3   0  216.12   16.88
   1  -3   0  188.38   15.96
  -1  -3  -1 1322.32   44.62
  -1   3  -1 1303.48   43.46
   1  -3   1 1135.36   40.51
   1   3   1 1276.98   37.37
   1   3   1 1180.58   40.83
  -1   3  -2  115.56   12.17
   1  -3   2  131.39   11.67
   1   3   2  132.67   11.92
   1   3   2  133.10   12.35
  -1  -3  -3  225.20   18.30
  -1   3  -3  258.43   18.40
   1  -3   3  221.53   14.29
   1   3   3  230.05   16.50
  -1  -3  -4   65.27    9.88
  -1   3  -4   74.96   10.78
   1  -3   4   70.55    6.87
  -1  -3  -4   62.49    8.80
   1   3   4   75.23    9.99
  -1  -3  -5   30.47    6.03
  -1   3  -5   32.23    7.52
  -1  -3  -5   25.19    6.68
   1   3   5   25.20    5.99
  -1  -3  -6    4.23    4.08
  -1  -3  -6    2.80    2.51
  -1   3  -6   -3.78    4.48
   1   3   6    3.21    3.12
   1   3   7  275.41   21.72
  -1  -3  -7  298.44   24.08
  -1   3  -7  286.26   21.95
  -1   3  -8   68.26   11.59
   1   3   8   42.15    9.76
  -1  -3  -8   57.66   11.31
  -1   3  -9  512.75   32.14
   1   3   9  424.29   29.72
  -1  -3  -9  521.11   34.23
  -1  -3 -10  155.95   19.58
  -1   3 -10  142.62   17.40
   1   3  10  118.54   16.49
  -1   3 -11   54.28   12.13
  -1  -3 -11   41.48   10.34
   1   3  11   35.09    9.11
   1   3  12    8.77    5.53
  -1  -3 -12   10.47    6.04
  -1   3 -12   10.65    7.38
  -1   3 -13  153.30   20.72
   1   3  13  153.32   21.02
  -1  -3 -13  171.51   22.54
   1   3  14   64.24   14.45
  -1  -3 -14   86.14   16.14
  -1   3 -14   71.26   15.04
  -1   3 -15  286.72   30.62
   1   3  15  333.76   33.06
  -1  -3 -15  314.59   31.75
  -1  -3 -16   22.17    9.99
   1   3  16   33.93   10.99
  -1  -3 -17    8.15    7.58
   1   4 -15  237.23   29.24
   1  -4 -15  210.40   28.76
  -1   4  15  240.11   29.28
  -1  -4  14    9.37    6.33
   1  -4 -14   -1.77    4.28
  -1   4  14   -1.08    5.54
   1   4 -14   -7.49    6.38
   1  -4 -13    6.31    5.14
  -1  -4  13   -4.26    4.38
  -1   4  13   -3.79    7.10
   1   4 -13    9.86    7.80
  -1   4  12   27.71   10.34
   1   4 -12   30.97    9.33
   1  -4 -12   30.76   10.87
  -1  -4  12   21.70    7.44
   1  -4 -11  180.85   23.68
   1   4 -11  196.17   22.79
  -1   4  11  127.38   19.12
  -1  -4  11  178.81   23.64
   1  -4 -10  -10.87    7.99
  -1  -4  10  -14.81    8.75
   1   4 -10    0.77    5.27
  -1   4  10   -1.18    3.95
   1  -4  -9   80.15   15.53
   1   4  -9   84.84   13.91
  -1  -4   9   93.89   17.65
  -1   4   9   60.73   11.59
  -1   4   8   17.11    6.73
   1   4  -8   14.72    5.68
   1  -4  -8   20.67    7.41
  -1   4   7   15.29    6.95
   1  -4  -7   10.64    5.85
   1   4  -7   18.98    7.57
  -1   4   6   -0.34    5.09
   1  -4  -6    4.73    4.95
   1   4  -6   10.46    4.09
   1  -4  -5   63.98   12.36
  -1   4   5   55.94   10.21
   1   4  -5   70.49   11.76
  -1   4   4    3.73    3.26
   1   4  -4    0.16    3.82
   1  -4  -4    4.19    3.64
   1  -4  -3   74.26   12.35
   1   4  -3   73.09   11.51
  -1   4   3   74.01   11.04
  -1   4   3   74.04   10.35
   1  -4  -2   85.06   13.68
  -1   4   2   79.62   12.01
   1   4  -2   71.82   11.39
  -1   4   1 1001.06   42.43
   1  -4  -1  920.66   43.85
   1   4  -1  970.85   42.17
  -1  -4   1  905.73   38.67
  -1  -4   0  229.39   19.69
   1  -4   0  162.96   17.06
   1   4   0  271.46   22.30
  -1   4   0  197.77   18.78
  -1   4  -1  235.79   19.90
  -1  -4  -1  244.23   21.14
   1   4   1  217.18   19.33
   1  -4   1  214.73   18.65
  -1   4  -2   58.46   11.02
   1   4   2   46.79    9.16
  -1  -4  -2   51.94   10.34
  -1   4  -3  808.72   39.11
  -1  -4  -3  814.01   42.29
   1   4   3  761.13   36.82
  -1   4  -4  305.19   23.94
  -1  -4  -4  274.03   24.87
  -1  -4  -4  226.04   20.34
   1   4   4  253.74   20.76
   1   4   5 1069.73   46.17
  -1   4  -5 1217.26   50.53
  -1  -4  -5 1013.49   44.45
  -1  -4  -5 1170.16   54.36
  -1  -4  -6   70.46   14.19
   1   4   6   58.80   10.91
  -1   4  -6   70.39   12.58
  -1  -4  -7   14.10    7.38
   1   4   7    1.64    3.02
  -1   4  -7    8.57    5.39
  -1  -4  -8   59.47   12.57
   1   4   8   39.70    9.43
  -1   4  -8   60.64   11.84
  -1  -4  -9  540.84   39.81
   1   4   9  524.79   36.38
  -1   4 -10   12.91    7.33
   1   4  10    6.94    5.86
  -1  -4 -10   10.72    8.15
  -1  -4 -11  149.64   21.69
  -1   4 -11  131.03   18.77
   1   4  11  107.91   17.79
   1   4  12    4.83    5.48
  -1   4 -12   -7.25    3.83
  -1  -4 -12   -3.90    5.61
   1   4  13   38.62   12.48
  -1   4 -13   12.98    7.02
  -1  -4 -13   24.16    9.62
  -1   4 -14   -5.44    4.47
  -1  -4 -14    4.34    5.91
   1   4  14   -7.11    6.19
   1   4  15   23.06    8.29
  -1  -5  13   71.41   19.13
  -1   5  13   49.59   13.41
   1  -5 -12  122.51   22.85
  -1   5  12   88.47   17.73
   1   5 -12  116.68   20.52
  -1  -5  12  103.59   20.74
   1   5 -11  213.43   26.19
  -1   5  11  178.64   24.24
  -1  -5  11  246.56   31.68
   1  -5 -11  213.41   29.48
   1   5 -10   72.84   15.04
  -1   5  10   28.85    9.63
  -1  -5  10   63.18   16.57
   1  -5 -10   64.50   15.02
   1  -5  -9   19.85    8.45
   1   5  -9   16.17    8.26
  -1  -5   9    9.17    7.23
   1  -5  -8   53.61   14.52
   1   5  -8   67.58   14.29
   1  -5  -7  167.55   24.31
   1   5  -7  151.58   19.99
  -1  -5   7  148.23   22.96
   1   5  -6  296.81   27.00
   1  -5  -6  240.59   27.99
  -1   5   5  361.22   28.39
   1   5  -5  342.16   29.18
   1  -5  -5  328.50   31.87
   1  -5  -4   28.86    9.01
   1   5  -4   23.90    8.52
  -1   5   4   16.19    7.17
  -1   5   3   25.80    8.52
   1   5  -3   46.89   11.12
   1  -5  -3   51.12   12.87
   1   5  -2   53.70   11.07
   1  -5  -2   61.84   13.12
  -1   5   2   71.75   12.88
  -1   5   1  197.56   21.34
   1   5  -1  190.36   20.75
   1   5   0  116.55   16.35
  -1   5   0  157.17   19.07
  -1   5  -1  452.89   31.91
   1   5   1  545.81   35.27
   1   5   2    7.61    7.46
  -1   5  -2    0.46    3.89
  -1  -5  -2   22.37    9.51
  -1  -5  -2   13.55    7.57
  -1  -5  -3   65.93   13.13
  -1   5  -3   74.82   13.13
   1   5   3   91.89   15.09
  -1  -5  -3   72.04   14.01
   1   5   4   14.48    7.09
  -1   5  -4    8.13    5.99
  -1  -5  -4    6.13    7.82
  -1  -5  -4    3.63    4.02
  -1  -5  -5   64.93   14.21
   1   5   5   89.95   13.90
  -1   5  -5   93.13   15.60
  -1   5  -6    8.15    5.99
  -1  -5  -6    6.47    5.03
  -1  -5  -7  149.37   23.15
  -1   5  -7  179.50   21.55
  -1  -5  -8    5.89    5.73
  -1   5  -8   17.81    8.81
  -1  -5  -9  103.89   19.84
  -1   5  -9   96.01   16.71
  -1  -5 -10   -2.52    7.98
  -1   5 -10    1.57    4.57
   1   5  11    9.02    5.24
  -1   5 -11    6.92    4.48
  -1  -5 -11   -6.49    9.53
  -1  -5 -12    8.00    5.41
   1   5  12    1.31    4.18
   1   5  13   37.63   13.92
   1  -6  -8   46.65   16.09
  -1   6   7   18.00    8.63
   1   6  -7   25.68    8.52
   1  -6  -7   -4.90    8.67
  -1  -6   7    6.24    6.31
   1   6  -6   44.81   11.95
   1  -6  -6   23.32   11.15
  -1   6   6   20.77    9.42
  -1  -6   6   25.04   12.17
   1  -6  -5   49.52   14.73
  -1   6   5   70.32   15.40
   1   6  -5   78.65   15.59
  -1  -6   5   65.22   19.49
   1   6  -4   37.71   11.90
  -1  -6   4   17.55   12.13
  -1   6   4   30.70    9.97
  -1  -6   3    6.08    6.20
  -1   6   3    3.66    6.63
   1   6  -3    1.57    4.85
  -1   6   2  263.72   27.45
  -1  -6   2  252.70   32.53
   1   6  -2  282.02   29.08
  -1  -6   1  218.32   29.82
  -1   6   1  257.24   27.03
   1   6  -1  286.34   28.92
   1   6   0  207.81   24.90
  -1   6   0  167.60   22.06
  -1  -6   0  165.95   24.97
   1   6   1  162.01   21.86
  -1  -6  -1  107.47   20.24
  -1   6  -1  108.31   18.00
  -1   6  -2   54.23   13.49
   1   6   2   76.34   15.32
  -1  -6  -2   48.97   13.40
  -1  -6  -3   61.89   13.89
  -1   6  -3   87.47   16.90
   1   6   3   74.96   15.37
  -1   6  -4  432.52   36.27
   1   6   4  424.71   36.58
  -1   6  -5  164.24   22.78
   1   6   5  198.52   24.86
  -1  -6  -5  146.41   24.90
  -1   6  -6  152.20   22.12
  -1  -6  -6  174.13   27.85
   1   6   6  149.83   21.81
   1   6   7    8.55    6.86
  -1  -6  -7   12.49   10.21
  -1  -6  -8   48.53   16.66
   1   6   8   53.05   13.55
  -2   0  20   18.92    9.45
  -2   0  19   16.62    6.88
  -2   0  18  245.84   27.83
  -2   0  17   17.13    8.53
  -2   0  16  700.74   44.29
  -2   0  15   -3.33    5.39
  -2   0  14   -2.68    6.02
  -2   0  13    2.93    3.54
   2   0 -13    0.90    3.36
  -2   0  12 1098.49   47.67
   2   0 -12 1067.32   42.21
   2   0 -11    0.52    2.68
  -2   0  11   -0.96    2.92
  -2   0  10  446.30   23.03
   2   0 -10  458.86   23.97
  -2   0  10  432.83   26.82
  -2   0   9    3.02    3.48
  -2   0   9   -1.32    2.53
   2   0  -9    0.78    2.01
   2   0  -8    5.42    2.88
  -2   0   8    3.95    3.15
  -2   0   8    4.91    2.77
   2   0  -7    4.16    2.55
  -2   0   7    0.00    2.27
  -2   0   7   -1.12    1.98
  -2   0   6  277.59   15.82
  -2   0   6  293.63   16.79
   2   0  -6  303.24   15.58
   2   0  -5    2.30    2.59
  -2   0   5   -2.00    2.27
   2   0  -4   73.92    6.82
  -2   0   4   61.16    6.62
  -2   0   3    0.77    2.11
   2   0  -3    1.92    2.26
  -2   0   2 1307.59   37.01
   2   0  -2 1352.94   32.76
   2   0  -1    4.43    2.07
  -2   0   1    5.09    2.67
   2   0  -1    1.81    1.29
   2   0   0  497.26   17.27
   2   0   0  503.80   17.13
   2   0   1    1.12    1.12
   2   0   1   -0.41    1.22
  -2   0  -1    3.27    2.57
   2   0   2 2898.74   59.51
  -2   0  -2 2930.27   54.79
   2   0   2 2961.32   61.14
   2   0   3    2.08    1.78
   2   0   4 5799.25  110.11
   2   0   5   -1.20    2.28
   2   0   6   18.87    4.57
   2   0   7    2.31    2.56
  -2   0  -7    0.26    2.49
  -2   0  -8 5532.35  114.12
   2   0   8 5399.21  118.74
   2   0   9   -2.50    4.24
  -2   0  -9    0.82    2.90
   2   0  10 1740.39   59.42
  -2   0 -10 1704.24   54.02
  -2   0 -11   -2.09    3.11
   2   0  11   13.49    6.89
  -2   0 -12   61.77   10.11
   2   0  12   70.42   11.93
   2   0  13   -2.91    4.86
   2   0  14 1164.15   56.48
   2   0  15    1.53    4.51
   2   0  16  207.34   24.87
   2   0  17   -8.34    8.26
   2   0  18   -4.99    8.08
   2   0  19   -4.46    7.99
  -2   1  19   10.86    6.86
  -2   1  18    3.02    5.64
  -2   1  17   -7.18    6.53
  -2   1  16   47.42   12.36
   2  -1 -16   26.71    8.11
  -2  -1  15   -3.03    3.51
  -2   1  15   -7.05    6.29
   2  -1 -15   -3.94    4.86
  -2  -1  14  293.71   24.71
   2  -1 -14  291.70   24.60
  -2   1  14  346.40   29.15
  -2  -1  13   22.39    6.42
  -2   1  13   30.27    8.67
   2  -1 -13   29.20    6.71
   2  -1 -12  127.63   15.23
  -2   1  12  106.89   15.16
  -2  -1  12   95.74   13.03
  -2   1  11  186.85   18.83
  -2  -1  11  159.41   15.75
  -2  -1  11  193.85   17.02
   2  -1 -11  189.75   17.75
  -2  -1  10  211.63   17.12
   2  -1 -10  224.19   18.59
  -2  -1  10  214.48   17.80
   2   1 -10  214.10   13.79
  -2   1  10  219.58   19.70
   2   1  -9   10.56    2.84
  -2  -1   9   14.05    5.11
   2  -1  -9   20.47    5.15
  -2  -1   9    2.06    2.66
  -2   1   9    7.89    4.28
  -2  -1   8 3137.83   77.48
  -2  -1   8 3046.57   73.27
  -2   1   8 3224.12   81.13
   2  -1  -8 3136.77   77.57
   2   1  -8 3025.56   65.00
   2  -1  -7  929.16   34.76
   2   1  -7  909.37   36.94
  -2  -1   7  863.64   33.88
   2   1  -7  842.28   25.84
  -2  -1   7  827.38   30.02
  -2   1   7  909.71   35.50
   2   1  -6 1237.27   42.37
  -2  -1   6 1232.30   35.10
  -2   1   6 1309.94   41.11
   2  -1  -6 1263.65   40.24
   2   1  -6 1166.72   30.97
  -2  -1   6 1194.28   40.09
   2   1  -5  861.25   31.71
   2   1  -5  829.22   23.72
  -2  -1   5  782.93   30.51
   2  -1  -5  870.62   30.61
   2  -1  -4  980.52   31.15
  -2  -1   4  903.65   31.88
   2   1  -4  900.81   25.18
   2   1  -4  974.68   31.43
   2   1  -3  159.41   10.48
   2  -1  -3  164.47   11.20
   2   1  -3  164.84    9.35
  -2  -1   3  160.57   12.06
   2  -1  -2 5008.04   93.70
   2   1  -2 4881.58   89.32
  -2  -1   2 4709.11   95.78
   2   1  -2 4984.58   86.61
   2   1  -2 4779.53   88.93
  -2  -1   1 1465.08   38.16
   2  -1  -1 1469.96   36.11
   2   1  -1 1420.02   34.51
   2   1  -1 1395.79   31.41
   2  -1   0 5179.11   97.79
   2   1   0 5376.10   93.65
   2   1   0 5097.81   90.08
  -2  -1   0 5537.97  100.46
  -2   1   0 5316.58   94.51
   2  -1   1   44.52    5.20
  -2   1  -1   50.05    5.11
   2  -1   1   52.24    5.41
   2   1   1   55.77    5.50
  -2  -1  -1   53.81    6.20
   2   1   2  143.83    9.74
  -2  -1  -2  138.61    9.37
  -2   1  -2  136.93    9.08
   2  -1   2  141.89    8.98
  -2  -1  -2  132.53   10.03
   2  -1   2  137.39    8.81
  -2   1  -3  146.45    9.92
  -2  -1  -3  138.06    9.29
   2  -1   3  134.04    9.38
   2  -1   3  141.13    9.48
  -2  -1  -3  157.87   11.66
   2   1   3  182.45   11.82
  -2  -1  -4  564.26   24.37
  -2  -1  -4  512.06   19.06
  -2   1  -4  548.07   21.65
   2   1   4  567.48   23.75
   2  -1   4  517.29   19.66
   2  -1   4  546.12   20.88
   2  -1   5   37.97    5.89
  -2   1  -5   31.27    5.88
  -2  -1  -5   31.74    6.15
   2   1   5   42.38    6.82
   2  -1   5   32.62    4.89
  -2  -1  -5   31.75    4.54
   2  -1   6 1506.32   42.01
  -2   1  -6 1656.02   47.80
  -2  -1  -6 1529.39   37.28
  -2  -1  -6 1638.48   49.91
   2   1   6 1587.94   48.89
   2  -1   6 1604.85   45.17
  -2  -1  -7    7.83    3.41
   2  -1   7   19.48    4.43
   2  -1   7   14.80    4.61
  -2   1  -7   22.92    6.15
   2   1   7   16.07    4.69
  -2  -1  -8  182.80   16.42
  -2   1  -8  181.39   16.74
   2  -1   8  168.16   13.54
   2   1   8  183.04   16.65
   2  -1   8  189.94   15.60
  -2   1  -9    7.17    4.48
   2  -1   9    8.77    4.77
   2   1   9   -0.03    3.53
  -2  -1  -9   16.20    5.76
   2   1  10   -3.83    4.02
  -2  -1 -10   -2.34    3.52
   2  -1  10    3.70    2.89
  -2  -1 -11    7.49    3.07
   2   1  11    4.15    5.50
   2  -1  11    8.71    4.60
   2  -1  12  198.16   19.96
   2   1  12  178.49   20.08
  -2  -1 -12  178.61   18.94
   2  -1  13   83.24   13.35
   2   1  13  108.42   16.29
  -2  -1 -13  100.36   14.65
   2  -1  14  383.09   30.29
   2   1  14  421.92   33.08
  -2  -1 -14  366.02   29.19
   2  -1  15   15.54    6.41
   2   1  15   20.62    8.49
  -2  -1 -15   15.22    8.35
   2  -1  16   14.72    7.71
   2   1  16   10.60    7.27
   2   1  17   18.32    9.24
   2   1  18  150.73   23.43
   2  -2 -18   82.13   15.96
  -2   2  18  109.28   20.88
  -2   2  17  193.05   26.71
   2  -2 -17  185.63   23.39
  -2   2  16  172.10   24.17
   2  -2 -16  171.59   22.03
   2  -2 -15   16.72    6.81
  -2   2  15    2.04    4.94
   2  -2 -14   10.49    5.92
  -2   2  14    0.97    4.80
  -2   2  13  281.90   26.84
   2  -2 -13  292.18   26.09
  -2   2  12  375.89   29.77
  -2  -2  12  401.72   28.51
   2  -2 -12  368.30   28.71
  -2   2  11  428.47   30.47
  -2  -2  11  410.50   28.40
   2   2 -11  382.25   29.33
   2  -2 -11  399.93   28.88
   2   2 -10  171.62   18.59
  -2   2  10  153.55   17.82
  -2  -2  10  155.30   17.02
   2  -2 -10  167.71   17.89
   2   2  -9   25.84    6.92
  -2  -2   9   23.29    6.79
   2  -2  -9   13.82    6.48
  -2   2   9   16.14    5.73
   2  -2  -8    0.66    2.94
  -2  -2   8    1.71    4.53
   2   2  -8    2.27    4.39
  -2  -2   8    2.33    2.25
  -2   2   8   -2.66    3.18
   2  -2  -7  305.13   21.44
   2   2  -7  322.10   21.66
  -2   2   7  315.88   21.97
  -2  -2   7  304.44   21.76
  -2  -2   7  257.59   13.77
   2   2  -6  486.40   16.05
  -2  -2   6  477.14   17.58
   2   2  -6  538.25   26.38
  -2   2   6  590.24   28.39
  -2  -2   6  516.52   28.10
   2  -2  -6  540.75   27.63
  -2  -2   5  589.85   18.15
   2   2  -5  721.92   29.53
   2   2  -5  646.27   20.18
  -2   2   5  718.92   30.18
  -2  -2   5  650.64   31.25
   2  -2  -5  689.90   30.78
   2   2  -4  326.20   18.55
  -2  -2   4  296.90   19.83
   2   2  -4  309.17   13.60
   2  -2  -4  318.63   19.80
   2   2  -3  210.04   11.80
  -2  -2   3  246.50   17.25
   2   2  -3  221.99   14.40
   2  -2  -3  239.18   16.32
   2   2  -2   41.86    3.86
   2  -2  -2   57.17    7.90
   2   2  -2   53.32    6.74
  -2  -2   2   51.94    7.71
   2   2  -1   32.49    4.98
  -2  -2   1   28.69    6.03
   2  -2  -1   28.43    5.59
   2   2  -1   20.66    2.99
   2  -2   0  473.86   21.16
   2   2   0  457.86   19.84
   2   2   0  451.84   16.82
  -2  -2   0  474.13   23.15
  -2  -2   0  464.17   20.89
  -2   2   0  481.30   20.86
   2  -2   1  683.30   25.70
   2   2   1  632.18   23.32
  -2  -2  -1  672.49   27.91
  -2   2  -1  731.99   27.41
  -2  -2  -1  677.84   27.10
   2   2   1  721.25   23.87
  -2  -2  -2 1822.31   51.41
  -2   2  -2 1854.34   48.73
   2  -2   2 1710.19   44.79
  -2  -2  -2 1786.70   49.58
   2   2   2 1859.23   47.22
  -2  -2  -3  900.47   31.40
   2  -2   3  803.79   26.49
  -2   2  -3  940.69   32.90
   2  -2   3  843.20   27.25
   2   2   3  915.29   32.26
  -2  -2  -3  883.03   34.62
   2  -2   4 1124.81   31.67
  -2   2  -4 1163.98   38.85
  -2  -2  -4 1159.31   35.44
   2  -2   4 1061.97   32.47
  -2  -2  -4 1181.39   41.96
   2   2   4 1206.32   40.09
  -2   2  -5  414.57   22.44
   2  -2   5  363.71   15.61
   2  -2   5  374.49   18.26
  -2  -2  -5  369.29   17.71
  -2  -2  -5  395.69   23.88
   2   2   5  431.67   23.69
   2   2   6   58.21    9.80
   2  -2   6   39.12    4.80
   2  -2   6   45.88    6.62
  -2  -2  -6   44.87    8.60
  -2   2  -6   41.42    7.36
  -2  -2  -6   35.01    5.28
   2  -2   7  248.59   15.93
  -2   2  -7  256.59   19.19
  -2  -2  -7  217.61   12.37
  -2  -2  -7  272.46   21.00
   2   2   7  282.54   21.10
  -2   2  -8 2072.31   62.53
   2   2   8 1866.89   64.14
  -2  -2  -8 1941.37   64.91
   2  -2   8 2072.43   57.25
   2   2   9 1264.71   52.32
   2  -2   9 1373.88   46.53
  -2   2  -9 1310.39   51.07
  -2  -2  -9 1275.81   52.38
   2   2  10  931.39   46.23
  -2  -2 -10  979.75   46.59
   2  -2  10 1034.82   41.47
  -2   2 -10 1044.22   46.71
   2   2  11  285.54   25.19
  -2  -2 -11  300.62   26.02
  -2   2 -11  320.47   26.19
   2  -2  11  302.31   22.59
  -2   2 -12    8.48    6.19
   2   2  12    6.60    5.64
  -2  -2 -12   -2.79    5.45
  -2   2 -13  162.13   20.31
  -2  -2 -13  165.30   20.28
   2   2  13  155.55   20.81
  -2  -2 -14  536.03   38.56
   2   2  14  567.71   40.19
   2   2  15  398.71   34.71
  -2  -2 -15  410.28   34.62
   2   2  16  169.17   23.52
  -2  -2 -16  150.27   21.64
   2   2  17    5.17    6.49
  -2  -2 -17   12.87    8.21
  -2  -2 -18    3.00    4.76
   2  -3 -17    6.59    5.16
   2  -3 -16   -3.46    5.96
  -2   3  16    6.69    5.00
   2  -3 -15    5.71    5.35
  -2   3  15    8.76    6.27
   2  -3 -14   -0.53    3.82
   2   3 -14   12.45    9.17
  -2   3  14    3.76    5.41
   2   3 -13  138.70   20.01
  -2  -3  13   99.80   16.20
  -2   3  13  108.92   17.82
   2  -3 -13   87.17   16.29
  -2   3  12   -0.87    4.32
   2   3 -12    7.76    5.74
   2  -3 -12    3.59    4.50
  -2  -3  12   11.48    6.82
   2  -3 -11  154.06   19.85
   2   3 -11  142.75   18.83
  -2  -3  11  146.41   18.81
  -2   3  11  137.06   18.47
   2   3 -10    0.64    3.88
   2  -3 -10   14.25    5.07
  -2  -3  10    7.21    6.17
  -2   3  10    1.47    4.60
  -2   3   9  140.75   17.76
   2   3  -9  140.34   16.81
  -2  -3   9  135.70   17.86
   2  -3  -9  191.14   20.28
   2   3  -8  253.01   21.34
  -2  -3   8  257.92   23.25
   2  -3  -8  262.11   23.54
  -2   3   8  256.54   22.28
   2  -3  -7 2118.79   71.60
   2   3  -7 2280.45   69.30
  -2  -3   7 2151.76   72.73
  -2   3   7 2125.86   69.05
  -2   3   6  375.89   25.00
  -2  -3   6  354.26   26.60
   2   3  -6  375.25   24.35
   2  -3  -6  393.52   27.39
  -2  -3   5  878.50   41.85
   2   3  -5  913.83   37.57
  -2   3   5  878.83   38.06
   2  -3  -5  871.95   41.07
   2   3  -4   12.85    3.22
   2   3  -4   23.55    6.30
   2  -3  -4   25.98    6.80
  -2   3   4   14.87    4.99
  -2  -3   4    9.41    4.96
  -2   3   3 1234.80   42.25
   2   3  -3 1179.89   42.40
  -2  -3   3 1125.68   46.61
   2  -3  -3 1170.17   46.20
   2   3  -2  626.61   28.96
   2  -3  -2  696.00   33.73
  -2  -3   2  589.28   31.89
  -2  -3   1 4557.22  108.39
   2   3  -1 4851.10  101.22
  -2  -3   1 4723.93   98.86
  -2   3   1 4858.60  101.67
   2  -3  -1 4619.13  106.50
  -2  -3   0  582.44   31.46
   2  -3   0  432.29   25.72
   2   3   0  701.89   30.63
  -2  -3   0  621.78   28.55
  -2   3   0  483.69   25.63
   2   3   0  594.43   21.22
  -2   3  -1  859.41   35.16
  -2  -3  -1  889.46   36.50
   2   3   1  827.39   33.47
   2   3   1  842.09   29.39
  -2  -3  -1  865.82   37.07
   2  -3   1  813.03   34.48
   2   3   2   43.82    7.22
  -2  -3  -2   53.34    9.38
   2  -3   2   42.79    7.17
  -2  -3  -2   61.33    9.86
   2   3   2   56.84    7.65
  -2   3  -2   40.94    7.73
  -2   3  -3  896.15   36.58
  -2  -3  -3  864.77   38.99
  -2  -3  -3  835.47   35.68
   2   3   3  912.19   35.39
   2  -3   3  823.35   32.64
  -2  -3  -4    6.81    5.06
  -2   3  -4    2.11    3.25
   2   3   4    4.70    3.67
   2  -3   4    4.19    2.52
  -2  -3  -4    5.35    2.77
  -2   3  -5 1747.75   57.40
   2   3   5 1711.77   56.64
  -2  -3  -5 1608.03   50.99
  -2  -3  -5 1657.90   59.65
   2   3   6    2.19    4.72
  -2   3  -6    9.20    4.82
  -2  -3  -6   10.68    4.32
  -2  -3  -6   13.05    7.17
  -2   3  -7  410.66   27.24
  -2  -3  -7  393.45   28.78
   2   3   7  407.63   27.91
  -2  -3  -8   27.35    7.99
  -2   3  -8   40.29    8.87
   2   3   8   15.99    6.09
  -2  -3  -9    2.02    3.51
   2   3   9   -4.22    5.87
  -2   3  -9    0.47    3.84
   2   3  10   46.28   10.85
  -2  -3 -10   47.72   11.00
  -2   3 -10   35.01    9.17
   2   3  11  162.00   20.49
  -2   3 -11  152.50   19.78
  -2  -3 -11  179.72   21.54
  -2  -3 -12    3.94    4.71
  -2   3 -12    5.56    7.76
   2   3  12    1.29    4.05
  -2   3 -13  393.38   33.84
   2   3  13  374.96   33.60
  -2  -3 -13  365.13   33.15
  -2   3 -14   39.45   12.10
   2   3  14   57.71   13.68
  -2  -3 -14   54.86   13.88
   2   3  15   73.40   16.03
  -2   3 -15   67.88   14.97
  -2  -3 -15   76.04   15.85
   2   3  16   -0.06    4.36
  -2  -3 -16   -6.80    7.04
  -2  -3 -17   33.20   11.99
   2   4 -15   46.54   13.08
   2  -4 -15   36.42   11.54
  -2   4  15   20.98   10.34
   2   4 -14   14.28    8.02
   2  -4 -14    9.87    6.27
  -2   4  14    6.50    6.12
  -2  -4  14    9.25    5.60
  -2   4  13  188.73   24.74
  -2  -4  13  212.46   26.52
   2  -4 -13  204.31   26.72
   2   4 -13  231.75   27.29
   2   4 -12   27.09   10.14
   2  -4 -12   27.87    9.60
  -2   4  12   18.15    8.04
  -2  -4  12   38.44   12.17
  -2  -4  11  386.82   34.94
   2  -4 -11  372.40   33.91
   2   4 -11  424.78   34.60
  -2   4  11  331.90   30.86
  -2  -4  10   -5.51    7.76
   2   4 -10   -0.81    5.15
   2  -4 -10    0.20    5.51
  -2   4  10    2.27    5.15
   2  -4  -9    0.82    6.46
   2   4  -9    1.62    6.14
  -2   4   9   -0.15    4.51
  -2  -4   9    9.52    6.84
  -2   4   8   24.51    8.11
   2  -4  -8   32.41    9.83
  -2  -4   8   31.67    9.04
  -2   4   7  162.66   18.93
  -2  -4   7  212.29   23.60
   2   4  -7  204.87   20.77
   2  -4  -7  195.30   22.96
   2  -4  -6   -6.31    6.04
   2   4  -6    6.92    5.14
  -2  -4   6    5.93    5.53
  -2   4   6   13.24    5.49
   2  -4  -5  103.87   16.32
   2   4  -5   72.56   12.08
  -2  -4   5   87.64   14.84
  -2   4   5   67.07   11.53
   2  -4  -4    6.81    5.89
   2   4  -4   -5.55    4.14
  -2  -4   4   -3.35    5.14
  -2   4   4    3.35    3.92
   2   4  -3   57.41   10.17
  -2   4   3   44.10    9.13
   2  -4  -3   48.81   11.17
  -2  -4   3   41.29   10.36
  -2   4   3   46.11    8.55
  -2   4   2   45.33    9.08
   2  -4  -2   45.71   10.46
   2   4  -2   43.99    8.53
  -2   4   2   33.61    7.47
  -2  -4   2   40.51    9.59
   2   4  -1  161.22   16.07
  -2  -4   1  131.82   14.07
  -2  -4   1  136.35   17.79
  -2   4   1  149.23   15.62
   2  -4  -1  125.95   16.46
  -2   4   0   90.83   12.45
   2   4   0  100.16   13.41
   2  -4   0   71.20   12.31
  -2  -4   0   90.53   14.22
  -2  -4   0   93.47   12.16
  -2   4  -1   47.74    9.80
   2  -4   1   49.28   10.07
  -2  -4  -1   45.38    8.70
   2   4   1   58.57   10.28
  -2  -4  -1   42.07    9.59
   2   4   2   17.95    6.70
  -2  -4  -2   19.60    6.93
  -2  -4  -2   26.26    7.45
  -2   4  -2   34.92   10.10
  -2  -4  -3  952.18   46.98
  -2   4  -3  919.31   42.27
  -2  -4  -3  847.31   41.58
   2   4   3  951.02   41.70
   2   4   4  225.38   20.10
  -2  -4  -4  168.95   17.79
  -2   4  -4  223.54   21.15
  -2  -4  -4  205.86   21.76
   2   4   4  207.90   18.82
  -2  -4  -5  528.28   36.69
  -2   4  -5  515.21   33.04
  -2  -4  -5  484.41   29.73
   2   4   5  523.89   31.68
  -2   4  -6    9.99    5.79
   2   4   6    7.16    4.01
  -2   4  -7  312.09   26.17
  -2  -4  -7  297.10   28.17
   2   4   7  265.72   24.63
  -2   4  -8   14.25    8.13
   2   4   8   27.88    9.69
  -2  -4  -8   15.63    7.63
   2   4   9 1048.94   53.48
  -2   4  -9 1135.23   55.01
  -2  -4  -9 1027.76   57.11
  -2  -4 -10   27.09   11.55
  -2   4 -10   12.45    7.99
   2   4  10    8.65    7.10
   2   4  11   90.78   16.57
  -2  -4 -11  107.86   18.84
  -2   4 -11  114.53   18.19
  -2   4 -12    7.88    5.78
   2   4  12    5.02    5.31
  -2  -4 -12    6.30    7.65
  -2   4 -13  185.75   24.55
  -2  -4 -13  177.13   24.87
   2   4  13  167.06   23.15
  -2  -4 -14   -1.58    6.48
  -2   4 -14    9.78    6.23
   2   4  14    7.87    7.17
  -2   5  13   59.11   15.23
  -2  -5  13   96.97   21.64
  -2   5  12   24.75    9.73
   2  -5 -12   51.24   15.39
   2   5 -12   35.04   11.10
  -2  -5  12   50.47   13.87
  -2   5  11   15.20    8.44
   2  -5 -11   19.78    9.93
   2   5 -11   23.90   10.09
  -2  -5  11   40.35   12.99
  -2   5  10    4.40    5.58
   2  -5 -10    1.45    4.30
   2   5 -10   10.32    7.38
  -2  -5  10   13.41    9.25
   2  -5  -9   68.18   16.29
   2   5  -9   90.58   16.42
  -2  -5   9   73.33   16.75
  -2   5   9   77.09   15.08
   2  -5  -8   32.85   10.81
  -2  -5   8   23.29   10.56
   2   5  -8   26.89   10.62
   2   5  -7  582.16   39.59
  -2  -5   7  590.13   46.14
   2  -5  -7  556.51   43.88
   2  -5  -6   84.05   16.14
  -2  -5   6   61.04   14.49
   2   5  -6   96.34   16.05
  -2   5   5  176.71   19.65
   2  -5  -5  180.56   24.59
  -2  -5   5  194.14   25.65
   2   5  -5  183.14   21.06
   2  -5  -4    7.06    7.50
  -2   5   4    2.49    4.43
   2   5  -4    8.49    6.69
  -2  -5   4   -7.38    6.91
   2   5  -3  194.85   21.22
  -2  -5   3  186.10   24.87
   2  -5  -3  199.79   24.71
  -2   5   3  210.13   21.21
   2  -5  -2  115.79   19.91
  -2   5   2  133.82   17.87
   2   5  -2   79.84   13.66
  -2  -5   2   76.46   15.67
   2   5  -1 1007.90   48.77
  -2   5   1  984.73   48.59
  -2  -5   1  895.15   52.38
  -2   5   0   32.46   11.32
  -2  -5   0   48.83   12.86
   2   5   1  290.89   25.98
  -2  -5  -1  218.74   24.01
  -2   5  -1  223.95   22.33
  -2  -5  -2   19.57    7.90
  -2  -5  -2   12.57    7.34
  -2   5  -2   18.00    7.92
   2   5   2   24.93    8.90
   2   5   3  137.57   18.08
  -2  -5  -3  145.69   19.98
  -2   5  -3  131.25   17.57
  -2  -5  -3  124.76   17.69
  -2  -5  -4   56.29   13.23
   2   5   4   57.19   11.88
  -2   5  -4   38.53   10.70
  -2  -5  -4   44.69   10.79
  -2  -5  -5  499.17   40.08
  -2   5  -5  514.06   36.48
   2   5   5  519.21   35.95
  -2   5  -6   11.51    6.78
  -2  -5  -6    2.05    6.35
   2   5   6    9.44    7.41
  -2  -5  -7  126.66   21.30
  -2   5  -7  137.76   19.57
  -2  -5  -8   -3.18    6.60
  -2   5  -8    3.09    6.21
  -2  -5  -9   13.20    6.69
  -2   5  -9   17.12    7.98
  -2  -5 -10   -4.42    6.16
  -2   5 -10   -3.26    5.62
  -2  -5 -11   50.36   15.27
  -2   5 -11   57.21   14.37
   2   5  12   11.15    5.79
   2   5  13   68.06   16.45
   2  -6  -8   20.25    9.70
   2   6  -8    2.18    4.28
   2  -6  -7   63.12   18.62
   2   6  -7   71.02   16.48
   2  -6  -6   22.79   10.74
  -2   6   6   28.51   10.38
  -2  -6   6   26.78   11.63
   2   6  -6   37.21   11.94
   2  -6  -5   39.17   14.13
  -2   6   5   31.09    9.24
  -2  -6   5   33.94   12.63
   2   6  -5   35.34   10.34
   2   6  -4   93.47   16.97
  -2  -6   4   48.17   14.13
  -2   6   4   85.94   16.08
   2   6  -3   11.21    6.38
  -2   6   3    7.49    6.45
  -2  -6   3   12.60    9.65
  -2   6   2   77.41   15.06
   2   6  -2  112.24   18.22
  -2  -6   2   79.79   18.41
  -2   6   1    5.20    5.90
   2   6  -1   17.44    7.38
  -2  -6   1    8.14    7.22
   2   6   0   18.85    8.84
  -2  -6   0    2.91    5.05
  -2   6   0   15.68    7.53
  -2   6  -1   55.58   12.58
   2   6   1   40.07   11.67
  -2  -6  -1   48.19   13.42
  -2   6  -2  144.00   20.66
   2   6   2  157.15   22.04
  -2  -6  -2  119.14   20.30
  -2   6  -3  249.69   27.66
   2   6   3  218.50   26.53
   2   6   4  328.91   33.32
  -2   6  -4  278.49   29.46
  -2   6  -5   61.64   13.95
  -2  -6  -5   55.46   16.34
   2   6   5   50.75   12.86
  -2   6  -6   18.60    9.22
   2   6   6    7.22    5.74
  -2  -6  -6    6.62    7.57
   2   6   7  104.75   19.28
  -2  -6  -7   96.09   21.44
   2   6   8  153.27   24.05
  -2  -6  -8  164.39   27.98
   2   6   9  234.78   30.69
  -3   0  19    8.84    8.03
  -3   0  18  191.73   25.56
  -3   0  17   -2.21    3.98
  -3   0  16  179.30   22.13
  -3   0  15   -3.68    3.92
  -3   0  14  197.08   22.04
   3   0 -13   -3.56    2.50
  -3   0  13   -2.76    4.24
  -3   0  12 2365.91   76.50
   3   0 -12 2246.79   67.12
   3   0 -11    0.45    2.74
  -3   0  11   -4.37    4.72
  -3   0  10  163.20   16.26
  -3   0  10  165.54   16.84
   3   0 -10  178.89   15.32
  -3   0   9    2.36    3.52
   3   0  -9    1.56    2.16
  -3   0   9   -1.33    4.02
   3   0  -8 2771.12   67.71
  -3   0   8 2605.62   72.20
  -3   0   8 2714.99   71.51
  -3   0   7   -4.25    3.08
   3   0  -7   -0.93    2.33
   3   0  -6 3512.67   76.91
  -3   0   6 3397.70   83.72
  -3   0   5    8.23    3.96
   3   0  -5    1.36    2.03
   3   0  -4  381.01   17.87
  -3   0   4  361.89   20.54
  -3   0   3    1.12    2.71
   3   0  -3   -2.71    2.21
  -3   0   2 1176.07   38.19
   3   0  -2 1150.09   34.20
   3   0  -1    0.09    1.72
  -3   0   1    2.99    3.65
   3   0  -1    0.43    1.59
   3   0   0  485.08   20.42
  -3   0   0  558.88   23.57
   3   0   0  513.50   20.48
  -3   0  -1    2.92    3.43
   3   0   1    3.46    2.69
   3   0   1    1.56    1.74
   3   0   2 6850.00  128.11
  -3   0  -2 6761.99  114.03
   3   0   2 6748.24  124.37
   3   0   3    2.84    2.30
   3   0   3   -0.13    2.22
   3   0   4 2121.85   55.35
   3   0   4 2039.10   53.02
   3   0   5    3.08    2.54
   3   0   5    1.20    1.93
   3   0   6 1869.58   53.78
   3   0   7    2.38    3.96
   3   0   8 6044.62  131.14
   3   0   9   -2.09    2.98
   3   0  10  394.55   27.14
   3   0  11    2.37    3.50
   3   0  12 1390.18   58.41
   3   0  13    6.34    6.62
   3   0  14  707.47   43.75
   3   0  15    5.45    3.96
   3   0  16   16.55    7.96
   3   0  17   -2.24    4.35
   3   0  18  219.86   28.29
  -3   1  19    4.28    5.03
  -3   1  18   61.28   15.14
  -3   1  17   60.63   14.86
  -3   1  16  138.49   20.48
   3  -1 -16  142.99   18.72
  -3   1  15    0.38    4.83
   3  -1 -15    9.51    5.14
  -3  -1  14  125.28   16.17
  -3   1  14  149.15   19.74
   3  -1 -14  120.82   16.54
   3  -1 -13   -1.91    2.99
  -3  -1  13   -0.79    2.73
  -3   1  13    2.63    4.01
   3  -1 -12    6.31    4.42
  -3  -1  12   16.86    6.14
  -3   1  12   11.85    4.97
  -3  -1  11    6.94    5.51
  -3  -1  11    8.31    3.88
   3  -1 -11    1.75    3.59
  -3   1  11   13.26    6.76
   3  -1 -10  678.89   33.93
   3   1 -10  633.38   27.30
  -3  -1  10  714.06   33.30
  -3  -1  10  710.12   35.49
  -3   1  10  761.01   38.26
   3   1  -9  123.29   10.86
  -3   1   9  141.35   15.21
  -3  -1   9  138.53   14.87
  -3  -1   9  120.32   12.41
   3  -1  -9  166.94   15.56
  -3  -1   8 1301.06   42.76
  -3   1   8 1425.28   49.25
   3  -1  -8 1417.04   47.63
  -3  -1   8 1349.40   48.42
   3   1  -8 1293.10   38.88
   3  -1  -7 1085.68   39.41
   3   1  -7 1051.79   32.82
  -3  -1   7 1055.49   41.07
   3  -1  -6  349.18   20.26
   3   1  -6  365.44   17.18
  -3  -1   6  316.12   20.73
   3  -1  -5  194.87   14.41
   3   1  -5  167.13   11.48
   3   1  -5  192.89   14.92
  -3  -1   5  173.98   14.82
   3  -1  -4  787.95   29.52
   3   1  -4  788.73   26.92
   3   1  -4  785.57   29.76
  -3  -1   4  774.36   32.13
   3   1  -3 2890.93   63.22
  -3  -1   3 2681.95   69.29
   3   1  -3 2873.89   62.83
   3  -1  -3 2851.01   65.64
   3  -1  -2 1110.35   33.79
   3   1  -2  993.80   28.25
   3   1  -2 1027.84   31.57
  -3  -1   2 1048.05   36.03
   3   1  -2 1059.42   30.65
   3  -1  -1 3462.61   72.68
   3   1  -1 3327.88   71.62
  -3  -1   1 3476.75   76.64
   3   1  -1 3361.19   68.14
   3   1   0  510.33   21.56
   3   1   0  500.17   19.66
   3  -1   0  516.17   20.94
  -3   1   0  485.83   17.26
   3   1   0  448.12   13.20
   3  -1   0  508.36   20.90
  -3  -1   0  510.82   23.22
  -3   1  -1   86.29    7.03
   3  -1   1   69.14    7.95
  -3  -1  -1   73.99    8.63
   3  -1   1   74.05    7.93
   3   1   1   78.22    7.51
   3   1   1   57.23    3.97
   3   1   1   71.56    8.21
  -3  -1  -2  103.38   10.25
  -3   1  -2  113.69    8.51
   3  -1   2  115.00    9.67
   3  -1   2  110.22    9.87
   3   1   2  124.04   10.08
   3  -1   3 2530.85   61.14
  -3   1  -3 2507.35   55.92
   3  -1   3 2477.31   59.48
  -3  -1  -3 2521.28   61.35
   3   1   3 2654.38   61.38
   3  -1   4 1214.49   37.70
   3  -1   4 1208.75   37.95
  -3   1  -4 1183.10   35.40
  -3  -1  -4 1123.72   36.96
   3   1   4 1268.99   39.83
  -3  -1  -5  306.30   16.78
  -3   1  -5  334.74   17.81
   3  -1   5  324.51   18.06
   3  -1   5  311.02   17.94
   3   1   5  326.75   19.84
  -3   1  -6   -2.15    2.83
   3  -1   6    4.39    3.01
  -3  -1  -6    4.19    2.66
   3   1   6    6.51    4.18
   3  -1   6    1.87    2.98
  -3  -1  -6    2.22    2.91
   3  -1   7  116.98   12.08
   3  -1   7  111.41   11.92
  -3  -1  -7  116.30   12.97
   3   1   7  122.72   13.44
  -3   1  -7  111.20   12.24
   3  -1   8  476.34   25.46
  -3   1  -8  526.09   28.32
  -3  -1  -8  473.08   27.37
   3  -1   8  452.15   26.14
   3   1   8  424.27   26.57
  -3   1  -9   95.21   13.29
   3  -1   9   95.01   11.57
  -3  -1  -9   85.23   12.07
   3  -1   9   83.97   11.75
   3   1   9   94.56   12.73
   3  -1  10  608.88   31.93
   3   1  10  595.19   34.42
  -3  -1 -10  593.52   33.55
   3  -1  10  647.08   34.17
   3   1  11   11.48    5.22
   3  -1  11   17.37    7.08
  -3  -1 -11   11.01    4.95
   3  -1  12   13.63    7.04
  -3  -1 -12   23.78    6.97
   3   1  12   12.48    5.90
  -3  -1 -13   -5.57    4.75
   3  -1  13    8.86    4.87
   3   1  13   -0.92    5.23
   3  -1  14   85.77   14.94
   3   1  14   90.37   16.17
  -3  -1 -14   85.94   14.24
   3  -1  15   -5.15    6.53
   3   1  15    0.87    5.15
  -3  -1 -15   -1.38    5.55
   3  -1  16   34.15   10.66
   3   1  16   37.81   11.41
   3  -1  17   29.95   11.08
   3   1  17   17.78    7.56
   3   1  18   31.00   12.13
   3  -2 -18   91.40   17.04
  -3   2  18   83.02   18.42
   3  -2 -17   92.82   17.13
  -3   2  17   64.34   16.02
   3  -2 -16   54.80   13.05
  -3   2  16   29.92    9.22
   3  -2 -15   12.66    7.83
  -3   2  15   19.84    8.63
  -3   2  14    9.06    4.84
   3  -2 -14   16.29    8.64
  -3   2  13  279.84   27.21
   3  -2 -13  302.70   27.15
  -3   2  12  478.69   34.80
  -3  -2  12  441.11   30.78
   3  -2 -12  399.75   30.28
  -3   2  11  179.35   20.12
  -3  -2  11  173.87   19.33
   3  -2 -11  201.91   20.74
   3   2 -10   33.70    9.25
   3  -2 -10   34.83    8.65
  -3  -2  10   31.08    8.85
  -3   2  10   22.77    7.01
  -3   2   9   43.98    9.17
   3   2  -9   61.36   10.99
   3  -2  -9   35.97    8.37
  -3  -2   9   43.97    9.20
  -3  -2   8  351.49   18.78
  -3   2   8  408.90   26.93
   3   2  -8  413.00   26.64
  -3  -2   8  439.53   28.43
   3  -2  -8  389.02   25.78
   3   2  -7  516.10   20.10
  -3  -2   7  453.73   20.27
  -3  -2   7  496.37   29.80
  -3   2   7  561.50   30.35
   3   2  -7  530.23   28.86
   3  -2  -7  559.00   30.03
   3  -2  -6  475.67   26.80
   3   2  -6  423.24   18.53
  -3  -2   6  447.90   27.63
   3   2  -6  477.77   25.81
   3  -2  -5  568.41   28.69
   3   2  -5  572.63   22.51
   3   2  -5  584.91   26.71
  -3  -2   5  546.85   29.73
  -3  -2   4   18.34    5.99
   3  -2  -4   14.79    4.67
   3   2  -4   16.81    4.87
   3   2  -4   23.43    4.67
   3  -2  -3    6.83    3.34
   3   2  -3    8.63    2.83
   3   2  -3   16.02    4.22
  -3  -2   3   11.15    4.86
   3   2  -2  465.12   21.24
   3   2  -2  457.99   20.08
  -3  -2   2  500.88   26.26
   3   2  -2  475.03   18.01
   3  -2  -2  486.68   24.38
   3   2  -1  947.74   32.79
   3   2  -1  938.49   28.21
   3  -2  -1  924.05   34.41
  -3  -2   1  972.31   37.49
   3   2  -1  902.42   29.12
   3  -2   0  168.68   13.25
  -3  -2   0  170.41   14.62
   3   2   0  150.27   10.52
   3   2   0  159.79   10.75
  -3   2   0  169.65   12.37
   3  -2   1  639.66   26.51
  -3   2  -1  653.59   26.67
  -3  -2  -1  661.86   28.94
   3   2   1  644.28   24.43
   3   2   1  589.36   22.35
   3  -2   2  593.14   25.11
   3  -2   2  551.15   23.17
  -3  -2  -2  597.08   27.03
  -3   2  -2  587.58   25.27
   3   2   2  641.30   25.51
  -3  -2  -3    4.61    3.06
   3  -2   3    2.56    2.32
   3   2   3    5.21    3.08
   3  -2   3    0.03    1.63
  -3   2  -3    5.97    3.90
  -3  -2  -3   -1.08    2.45
  -3   2  -4   61.67    8.73
   3  -2   4   41.76    7.12
   3   2   4   52.03    7.87
  -3  -2  -4   66.64    9.49
   3  -2   4   45.19    6.69
  -3  -2  -4   45.80    7.23
   3   2   5  248.80   18.59
   3  -2   5  220.36   14.94
   3  -2   5  236.41   15.73
  -3   2  -5  251.90   17.89
  -3  -2  -5  234.13   15.68
  -3  -2  -5  221.04   18.15
   3  -2   6  491.45   22.74
  -3  -2  -6  476.09   22.79
  -3   2  -6  512.95   26.98
   3  -2   6  513.41   25.74
  -3  -2  -6  443.80   27.25
   3   2   6  519.85   28.47
   3  -2   7  210.28   15.04
  -3   2  -7  241.42   18.62
  -3  -2  -7  219.22   19.23
   3  -2   7  223.18   16.69
   3   2   7  222.45   19.11
  -3   2  -8 1126.62   44.44
   3   2   8 1153.39   48.46
   3  -2   8 1146.79   42.48
  -3  -2  -8 1077.22   46.99
  -3   2  -9  171.84   17.80
   3  -2   9  147.55   14.86
  -3  -2  -9  152.99   17.76
   3   2   9  155.38   18.00
  -3  -2 -10   69.20   12.32
  -3   2 -10   71.30   12.18
   3  -2  10   61.98   10.49
   3   2  10   77.63   12.67
  -3   2 -11   13.85    6.74
   3  -2  11   12.07    4.77
  -3  -2 -11    4.81    3.97
  -3   2 -12  433.48   32.24
  -3  -2 -12  417.59   32.20
   3   2  12  419.85   32.44
  -3   2 -13  219.81   24.05
   3   2  13  219.81   24.46
  -3  -2 -13  225.05   23.98
  -3  -2 -14  233.01   25.30
   3   2  14  236.26   26.23
   3   2  15   47.27   12.89
  -3  -2 -15   65.09   13.50
   3   2  16   10.17    7.89
  -3  -2 -16   -4.94    4.49
  -3  -2 -17   26.20   10.27
   3   2  17   24.42   10.14
   3  -3 -17   65.00   16.14
   3  -3 -16   25.43    9.68
  -3   3  16   33.81   12.31
   3  -3 -15   11.25    5.47
  -3   3  15    8.90    4.44
  -3   3  14   18.37    7.90
   3  -3 -14   14.59    8.39
   3   3 -13   14.33    6.80
  -3  -3  13   13.33    8.08
   3  -3 -13   16.52    8.72
  -3   3  13    7.78    5.62
   3   3 -12    6.67    6.61
   3  -3 -12   -0.61    3.82
  -3  -3  12   -1.87    4.94
  -3   3  12   11.22    6.76
   3   3 -11   32.27   10.96
   3  -3 -11   30.62    9.59
  -3  -3  11   36.82   11.19
  -3   3  11   36.49    9.39
  -3  -3  10   65.39   13.82
   3  -3 -10   67.62   13.04
   3   3 -10   54.08   11.60
  -3   3  10   51.88   11.55
  -3   3   9  182.88   20.29
   3   3  -9  186.49   19.65
  -3  -3   9  182.34   20.81
   3  -3  -9  193.86   20.94
  -3   3   8  260.66   23.45
   3   3  -8  274.76   22.41
  -3  -3   8  270.68   24.73
   3  -3  -8  248.71   23.06
  -3   3   7 1369.89   54.20
  -3  -3   7 1325.43   56.40
   3   3  -7 1378.16   51.24
   3  -3  -7 1331.43   54.76
  -3  -3   6  195.62   20.30
  -3   3   6  210.79   19.08
   3   3  -6  244.88   19.92
   3  -3  -6  248.68   21.59
   3   3  -5  172.36   15.84
  -3  -3   5  175.64   18.42
   3  -3  -5  192.88   18.75
   3   3  -4   52.64    7.16
   3  -3  -4   72.04   11.39
  -3  -3   4   66.07   11.08
   3   3  -4   79.92   10.35
  -3  -3   3 2512.35   76.83
   3   3  -3 2422.60   62.41
   3   3  -3 2633.18   68.22
   3  -3  -3 2578.51   75.30
   3   3  -2  447.89   24.25
  -3  -3   2  385.76   26.74
   3  -3  -2  445.23   27.97
   3  -3  -1 2764.32   75.46
  -3   3   1 2705.17   69.09
   3   3  -1 2492.99   56.39
   3   3  -1 2650.91   67.21
  -3  -3   1 2561.45   75.93
   3  -3   0  112.43   12.96
  -3   3   0  112.62   12.26
  -3  -3   0  251.53   21.31
   3   3   0  236.28   18.85
   3   3   0  212.93   13.64
   3  -3   1  344.52   22.34
  -3   3  -1  353.82   22.09
  -3  -3  -1  352.70   24.19
   3   3   1  351.44   20.79
   3   3   1  330.54   18.26
  -3  -3  -2   52.04    9.44
   3   3   2   30.37    6.58
   3  -3   2   27.09    6.73
   3   3   2   33.44    6.19
  -3  -3  -2   56.27   10.17
  -3   3  -2   42.66    9.16
   3  -3   3 3434.89   85.74
   3   3   3 3474.71   83.63
  -3  -3  -3 3697.24   94.01
  -3   3  -3 3751.13   90.39
  -3  -3  -3 3625.57   90.81
   3   3   3 3697.41   87.61
  -3  -3  -4   65.19   10.93
  -3   3  -4   67.22   10.39
   3  -3   4   63.51    9.06
   3   3   4   77.75   10.95
  -3  -3  -4   80.73   11.44
  -3  -3  -5  327.76   21.62
   3  -3   5  362.65   20.03
  -3   3  -5  373.23   25.36
  -3  -3  -5  408.22   27.86
   3   3   5  382.54   25.05
  -3  -3  -6    8.76    4.16
  -3  -3  -6   -1.69    3.76
   3   3   6    5.65    4.17
  -3   3  -6    6.23    3.74
  -3   3  -7  760.84   38.51
  -3  -3  -7  724.41   40.51
   3   3   7  768.04   39.73
  -3  -3  -8   -5.46    5.21
  -3   3  -8    3.62    4.34
   3   3   8    1.96    3.84
  -3   3  -9  613.10   36.58
   3   3   9  579.11   36.87
  -3  -3  -9  550.90   37.00
  -3  -3 -10   23.55    7.83
  -3   3 -10   26.14    8.27
   3   3  10   27.60    8.30
  -3  -3 -11   22.63    8.63
  -3   3 -11   14.78    7.07
   3   3  11    8.36    5.57
  -3  -3 -12    1.21    6.14
  -3   3 -12    6.46    6.60
   3   3  12    2.47    4.13
  -3   3 -13   31.10    9.52
  -3  -3 -13   31.56    9.45
   3   3  13   16.44    8.83
  -3   3 -14    4.68    4.51
   3   3  14   -0.22    5.26
  -3  -3 -14   -0.62    5.38
  -3   3 -15   20.55    8.57
   3   3  15    9.85    5.63
  -3  -3 -15   13.18    6.92
  -3  -3 -16    6.14    4.64
   3   4 -15   21.06   11.16
   3   4 -14   15.44    8.19
  -3  -4  14    5.39    6.87
   3  -4 -14   13.14    8.50
  -3   4  14   17.67    5.99
  -3   4  13  429.57   38.14
   3   4 -13  474.96   39.49
  -3  -4  13  489.34   41.70
   3  -4 -13  459.76   39.77
   3   4 -12    9.89    7.15
   3  -4 -12   21.35    9.60
  -3  -4  12   37.12   12.26
  -3   4  12    6.70    7.67
   3   4 -11  341.42   31.22
  -3  -4  11  393.20   35.87
   3  -4 -11  296.75   31.01
  -3   4  11  276.97   28.70
   3  -4 -10   -2.14    7.35
  -3  -4  10   -0.67    6.08
   3   4 -10    3.65    5.40
  -3   4  10   -4.25    6.37
   3  -4  -9  112.96   18.81
   3   4  -9  133.02   17.88
  -3  -4   9  156.18   21.51
  -3   4   9  130.55   18.47
   3  -4  -8    5.15    5.49
  -3  -4   8   -5.69    5.64
   3   4  -8    9.41    5.09
  -3   4   8   -3.30    5.80
  -3   4   7  845.14   45.00
  -3  -4   7  883.87   50.41
   3   4  -7  902.13   45.06
   3  -4  -7  840.90   49.21
   3  -4  -6    1.79    5.78
  -3   4   6    0.33    3.68
   3   4  -6    7.97    5.20
  -3  -4   6   -0.20    4.32
  -3   4   5  320.78   25.44
   3   4  -5  416.57   28.17
  -3  -4   5  373.58   31.62
   3  -4  -5  387.15   31.35
   3   4  -4   16.13    6.67
  -3   4   4   19.31    6.54
   3  -4  -4    4.93    4.64
  -3  -4   4   19.08    8.34
  -3   4   3   29.61    7.13
  -3   4   3   27.08    7.59
   3   4  -3   35.16    8.19
   3  -4  -3   41.42    9.93
  -3  -4   3   19.03    7.61
  -3  -4   2   22.85    7.69
   3   4  -2   18.45    6.44
  -3   4   2   25.65    8.23
   3   4  -1  393.76   25.72
  -3  -4   1  304.82   26.60
  -3   4   1  343.49   24.91
   3  -4  -1  352.38   27.73
  -3  -4   0   30.39   10.28
   3  -4   0   15.73    7.33
  -3   4   0   47.29   11.18
   3   4   0   35.97    8.77
  -3  -4  -1  507.95   31.07
   3   4   1  556.48   31.33
  -3  -4  -1  461.17   31.77
  -3   4  -1  530.38   31.79
   3  -4   1  483.87   31.78
  -3  -4  -2    6.39    5.36
  -3   4  -2    6.83    6.24
   3   4   2    4.38    5.18
  -3   4  -3  220.35   20.57
  -3  -4  -3  200.22   20.38
  -3  -4  -3  230.57   22.16
   3   4   3  232.29   20.31
  -3   4  -4    0.70    3.58
   3   4   4    1.76    3.53
  -3  -4  -4   -1.85    4.04
  -3  -4  -5   46.93   10.15
  -3   4  -5   67.75   12.25
   3   4   5   49.93   10.08
  -3  -4  -5   49.39    9.72
  -3   4  -6   13.12    6.29
  -3  -4  -6   22.68    8.45
   3   4   6   20.78    6.69
  -3  -4  -7  552.97   39.08
   3   4   7  503.59   34.94
  -3   4  -8   13.20    6.10
   3   4   8    5.47    4.49
  -3  -4  -8   16.16    8.35
  -3   4  -9  339.42   29.68
  -3  -4  -9  340.49   32.21
   3   4   9  330.87   29.62
  -3  -4 -10   39.70   12.22
  -3   4 -10   22.08    8.28
   3   4  10   14.80    7.23
  -3  -4 -11   22.19   10.62
  -3   4 -11   19.80    7.68
   3   4  11   25.54    9.36
  -3  -4 -12   18.94    8.22
  -3   4 -12   32.55   10.85
   3   4  12   42.28   11.15
  -3   4 -13  252.75   29.62
  -3  -4 -13  229.78   29.04
   3   4  13  219.57   26.73
  -3   4 -14   10.26    5.77
   3   4  14    4.22    5.05
  -3   5  12   -0.84    5.38
   3   5 -12   19.18    9.69
  -3  -5  12    3.93    8.72
   3  -5 -11    7.28    9.12
   3   5 -11    2.47    5.84
  -3  -5  11   17.06    9.84
  -3   5  11    9.17    7.05
   3  -5 -10   15.47   10.03
   3   5 -10   10.80    4.35
  -3   5  10    5.34    4.07
  -3  -5  10    9.74    4.99
   3   5  -9  174.58   22.18
   3  -5  -9  115.72   21.47
  -3  -5   9  142.98   24.42
  -3   5   9  103.30   17.97
  -3  -5   8   59.09   16.14
   3  -5  -8   51.53   14.17
   3   5  -8   63.51   13.56
  -3  -5   7  322.31   34.29
   3   5  -7  367.75   31.04
   3  -5  -7  287.24   32.76
  -3  -5   6    4.97    6.30
   3  -5  -6  -10.43    7.62
   3   5  -6   11.42    7.90
   3  -5  -5   29.99   11.26
  -3   5   5   25.62    9.11
  -3  -5   5   13.23    6.90
   3   5  -5   29.12    8.94
   3   5  -4  137.78   17.57
  -3   5   4  123.14   16.79
   3  -5  -4  140.80   21.94
  -3  -5   4  138.67   21.20
   3   5  -3  628.02   38.94
  -3  -5   3  516.11   41.11
  -3   5   3  582.65   36.33
   3  -5  -3  554.95   43.52
   3   5  -2  426.66   32.11
  -3  -5   2  367.84   33.57
  -3   5   2  416.91   31.33
   3  -5  -2  413.44   36.43
  -3   5   1  747.47   42.64
   3   5  -1  797.02   43.89
  -3  -5   1  709.61   46.51
  -3  -5   0   53.51   13.78
   3   5   0   83.02   15.29
  -3  -5  -1   20.21    8.83
  -3   5  -1   34.47   11.11
   3   5   1   17.72    6.59
   3   5   2  325.66   27.92
  -3   5  -2  332.06   28.48
  -3  -5  -2  284.58   27.89
  -3  -5  -2  268.57   26.10
  -3   5  -3  844.29   45.75
  -3  -5  -3  721.72   44.88
   3   5   3  918.48   48.35
  -3  -5  -3  776.77   46.76
  -3   5  -4  306.89   27.92
  -3  -5  -4  311.36   30.07
   3   5   4  319.31   28.64
  -3   5  -5  205.12   23.16
  -3  -5  -5  196.91   24.43
   3   5   5  211.93   22.87
  -3   5  -6    8.28    6.49
   3   5   6   21.81    8.78
  -3  -5  -6   15.67    9.53
   3   5   7  131.61   19.20
  -3  -5  -7   93.33   17.62
  -3   5  -7  122.95   18.90
  -3  -5  -8   68.09   15.84
  -3   5  -8   62.86   13.60
  -3  -5  -9  173.30   25.98
  -3   5  -9  188.72   24.42
  -3  -5 -10   14.75    7.70
  -3   5 -10   42.33   11.80
  -3   5 -11    2.22    5.82
   3   6  -8   54.41   13.51
   3  -6  -8   47.10   15.56
   3  -6  -7   20.82   11.76
   3   6  -7   61.39   15.17
   3  -6  -6  116.22   22.54
  -3  -6   6  126.92   25.29
   3   6  -6  161.29   22.40
  -3   6   5   11.32    5.83
  -3  -6   5   12.02    7.35
   3   6  -5   18.40    8.57
   3   6  -4   19.60    9.24
  -3   6   4   22.80    9.15
  -3  -6   4   24.73    9.61
   3   6  -3    9.61    8.06
  -3  -6   3   11.15    9.74
  -3   6   3   -2.52    3.82
   3   6  -2   13.38    6.00
  -3   6   2   12.24    7.20
  -3  -6   2    0.26    5.50
  -3   6   1   11.44    7.66
   3   6  -1   11.35    6.61
  -3  -6   1    3.38    7.32
   3   6   0   78.02   15.37
  -3  -6   0   74.40   16.35
  -3   6   0   56.06   12.18
   3   6   1   28.12   10.06
  -3   6  -1   29.76    9.82
  -3  -6  -1   21.81    9.47
  -3   6  -2   55.72   12.77
  -3  -6  -2   56.63   14.24
   3   6   2   44.84   11.51
   3   6   3   22.34    9.89
  -3   6  -3   11.79    6.39
  -3   6  -4   10.69    6.14
  -3   6  -5   -0.14    4.59
  -3  -6  -5    5.42    7.00
  -3  -6  -6   42.59   14.92
  -3  -6  -7   40.95   13.88
  -4   0  19   -0.11    4.23
  -4   0  18   21.96    9.24
  -4   0  17    0.73    4.92
  -4   0  16   22.25    8.11
  -4   0  15    9.31    6.16
  -4   0  14  628.32   40.49
   4   0 -13    5.01    4.34
  -4   0  13    3.96    3.33
  -4   0  12  178.54   19.66
   4   0 -12  155.65   16.13
  -4   0  11   -3.92    4.60
   4   0 -11   -0.47    3.51
  -4   0  11   -5.42    5.80
   4   0 -10  868.81   37.18
  -4   0  10  881.57   40.69
  -4   0  10  878.96   42.53
   4   0  -9   -0.79    2.88
  -4   0   9   10.02    5.79
   4   0  -8 3855.41   90.04
  -4   0   8 3743.74   98.80
   4   0  -7    3.42    2.63
  -4   0   7    0.27    4.24
   4   0  -6   97.18   10.38
  -4   0   6   80.60   11.96
   4   0  -5    0.30    1.90
  -4   0   5    2.55    5.31
   4   0  -4 2357.92   60.37
  -4   0   4 2379.43   68.19
  -4   0   3    0.24    4.17
   4   0  -3    3.39    2.89
   4   0  -2 4688.90  100.36
  -4   0   2 4883.79  108.19
   4   0  -2 4989.09   99.11
   4   0  -1    2.01    1.93
   4   0  -1    0.29    2.49
  -4   0   1    5.57    3.79
  -4   0   0 1608.60   49.18
   4   0   0 1611.00   42.72
   4   0   0 1496.37   43.47
   4   0   1    2.97    2.89
   4   0   1    0.03    2.53
  -4   0  -1    1.15    3.67
   4   0   2  708.14   29.37
   4   0   2  760.62   28.78
   4   0   3   -1.05    2.20
   4   0   3    3.01    3.49
   4   0   4 1567.09   50.32
   4   0   4 1543.34   46.90
   4   0   5    1.53    2.69
   4   0   5    0.17    2.26
   4   0   6 1979.03   61.33
   4   0   6 1917.16   58.39
   4   0   7    2.81    3.83
   4   0   7    5.19    5.22
   4   0   8    9.11    4.28
   4   0   8    1.70    3.55
   4   0   9   -1.23    3.68
   4   0   9    2.34    4.41
   4   0  10  583.50   34.63
   4   0  11   -1.25    3.10
   4   0  12  701.82   41.62
   4   0  13    7.91    5.01
   4   0  14   45.77   11.34
   4   0  15   -7.82    6.89
   4   0  16  215.79   26.33
   4   0  17    5.36    6.53
   4   0  18  242.63   30.43
  -4   1  18  224.55   29.20
  -4   1  17    7.45    7.27
   4  -1 -16   95.73   15.90
  -4   1  16   94.68   17.85
   4  -1 -15   15.97    7.10
  -4   1  15    9.93    6.80
  -4  -1  14  187.85   20.52
  -4   1  14  239.56   26.12
   4  -1 -14  195.21   21.27
   4  -1 -13   65.27   11.73
  -4  -1  13   49.53   10.41
  -4   1  13   55.92   12.10
  -4  -1  12  463.28   32.15
  -4  -1  12  393.36   27.43
  -4   1  12  461.94   33.60
   4  -1 -12  442.16   30.16
  -4   1  11    1.63    4.16
   4  -1 -11    3.88    3.92
  -4  -1  11    4.16    4.69
  -4  -1  11    3.93    4.27
  -4  -1  10    3.19    2.46
  -4   1  10   10.88    5.11
   4  -1 -10    1.90    4.29
   4   1 -10    6.70    3.47
  -4  -1  10    4.50    4.93
   4  -1  -9    7.62    3.82
   4   1  -9   10.64    3.89
  -4  -1   9    1.89    3.81
   4  -1  -8  185.80   16.63
   4   1  -8  198.29   14.80
  -4  -1   8  186.20   18.56
   4  -1  -7   39.31    7.73
   4   1  -7   26.66    5.24
  -4  -1   7   40.33    9.05
   4  -1  -6  382.92   22.70
   4   1  -6  411.76   20.60
  -4  -1   6  375.14   25.17
   4  -1  -5  186.57   14.82
   4   1  -5  206.00   14.54
  -4  -1   5  165.67   16.36
  -4  -1   4   59.24   10.00
   4  -1  -4   56.96    8.08
   4   1  -4   52.73    7.65
   4  -1  -3  232.91   16.16
   4   1  -3  250.32   16.15
  -4  -1   3  232.16   18.18
   4   1  -2   42.07    5.88
  -4  -1   2   45.76    7.85
   4  -1  -2   45.89    6.76
   4   1  -2   47.83    7.12
   4  -1  -1  254.36   16.56
   4   1  -1  215.91    9.98
   4   1  -1  244.98   15.86
   4   1  -1  238.84   14.88
  -4  -1   1  249.30   18.24
   4  -1   0 1563.30   46.25
   4   1   0 1516.47   45.82
   4   1   0 1580.19   43.27
  -4  -1   0 1655.42   50.53
   4  -1   0 1571.53   45.46
  -4   1   0 1554.08   37.26
   4  -1   1 1999.27   55.41
   4   1   1 2025.47   56.26
  -4  -1  -1 2065.19   59.60
   4   1   1 2008.55   52.76
   4  -1   1 1973.12   54.22
  -4   1  -1 2078.47   47.13
   4  -1   2 3867.87   88.11
   4   1   2 3895.58   90.35
  -4   1  -2 3853.72   77.96
  -4  -1  -2 3852.51   91.78
   4  -1   2 4218.70   89.05
   4   1   2 3895.34   85.66
   4  -1   3  388.82   23.03
   4   1   3  408.36   23.19
   4  -1   3  410.73   21.90
  -4   1  -3  375.97   17.27
  -4  -1  -3  410.66   23.87
   4   1   3  420.56   22.08
   4  -1   4  290.13   18.85
  -4  -1  -4  266.82   18.35
  -4   1  -4  264.19   15.20
   4  -1   4  281.89   18.57
   4   1   4  287.31   18.79
   4  -1   5  296.56   19.75
   4  -1   5  327.45   20.65
  -4   1  -5  300.17   17.17
  -4  -1  -5  299.25   18.94
   4   1   5  321.14   20.93
   4  -1   6 2574.12   69.72
  -4   1  -6 2411.26   63.21
  -4  -1  -6 2278.66   62.51
   4  -1   6 2443.07   67.33
   4   1   6 2502.10   69.43
   4  -1   7  964.71   39.52
  -4   1  -7  864.83   35.93
   4  -1   7  972.03   40.11
   4   1   7  930.51   40.21
  -4   1  -8 2682.41   75.08
   4  -1   8 2725.78   77.62
   4  -1   8 2885.12   79.70
   4   1   8 2664.58   78.80
  -4   1  -9  110.49   13.87
   4  -1   9  119.97   15.00
   4  -1   9  131.54   15.23
   4   1   9  121.36   15.51
   4  -1  10    5.84    4.03
   4   1  10   11.92    6.02
   4  -1  10   -0.65    3.39
   4  -1  11   19.67    5.82
   4   1  11   28.05    9.16
   4  -1  12  335.13   28.33
   4   1  12  307.48   27.75
   4  -1  13   59.93   12.44
   4   1  13   62.58   13.62
   4  -1  14  193.09   22.56
   4   1  14  227.25   25.92
   4  -1  15   36.54   10.03
   4   1  15   35.79   11.23
   4  -1  16   16.74    8.51
   4   1  16    6.40    7.57
   4  -1  17   -3.95    7.05
   4   1  17    7.18    7.01
   4  -2 -18   27.13    9.87
  -4   2  17    1.52    5.82
   4  -2 -17    5.91    5.86
   4  -2 -16   12.13    4.75
  -4   2  16   33.14   12.29
  -4   2  15  128.65   21.07
   4  -2 -15   97.52   17.03
  -4   2  14  334.64   32.67
   4  -2 -14  317.25   29.47
  -4   2  13  362.00   32.35
  -4  -2  13  365.68   31.20
   4  -2 -13  359.91   30.11
  -4  -2  12   48.91   11.23
   4  -2 -12   37.17    9.18
  -4   2  12   28.47    9.57
  -4   2  11   -0.31    4.89
   4  -2 -11    3.71    5.84
  -4  -2  11   -7.50    5.91
  -4   2  10  220.91   22.27
  -4  -2  10  230.07   22.52
   4  -2 -10  213.11   21.01
   4   2  -9 1042.05   46.64
  -4  -2   9  994.73   47.19
  -4   2   9 1051.14   48.18
   4  -2  -9  976.44   45.25
   4  -2  -8 1065.78   45.96
  -4  -2   8 1123.64   49.15
   4   2  -8 1109.17   46.67
   4  -2  -7 1216.08   47.85
   4   2  -7 1345.24   48.41
  -4  -2   7 1199.30   49.32
   4  -2  -6  273.77   20.89
   4   2  -6  319.40   18.18
   4   2  -6  311.77   21.28
  -4  -2   6  254.37   21.27
   4  -2  -5  119.72   13.62
   4   2  -5  107.48   11.73
   4   2  -5  102.85   10.49
  -4  -2   5  107.86   13.63
   4   2  -4   45.32    6.75
   4  -2  -4   53.19    8.69
   4   2  -4   49.97    7.64
  -4  -2   4   41.30    8.70
   4  -2  -3 2325.42   64.75
   4   2  -3 2346.78   59.67
   4   2  -3 2236.10   53.36
   4   2  -3 2160.17   55.76
  -4  -2   3 2195.02   67.01
   4  -2  -2 1202.43   42.47
   4   2  -2 1181.26   39.84
   4   2  -2 1094.01   34.08
  -4  -2   2 1190.94   45.46
   4   2  -2 1171.80   35.26
   4  -2  -1  951.24   36.80
  -4   2   1  927.05   31.99
  -4  -2   1 1001.01   40.47
   4   2  -1  942.74   31.43
   4   2  -1  952.04   35.76
   4  -2   0 1412.93   46.02
  -4  -2   0 1522.69   51.30
   4   2   0 1430.12   46.63
   4   2   0 1395.29   41.79
  -4   2   0 1442.43   42.54
   4  -2   1  332.25   20.74
   4   2   1  328.63   15.30
  -4  -2  -1  378.14   23.80
  -4   2  -1  377.93   20.46
   4   2   1  354.80   19.32
   4   2   2    3.05    1.45
  -4  -2  -2   10.33    4.09
   4  -2   2    3.14    3.43
   4   2   2    5.70    3.79
  -4   2  -2    8.97    4.06
   4  -2   2   -0.34    2.57
   4  -2   3  657.18   29.56
  -4  -2  -3  620.87   30.73
  -4   2  -3  710.24   29.95
   4  -2   3  659.36   29.09
   4   2   3  690.09   30.47
   4  -2   4  325.05   20.03
   4  -2   4  313.35   20.65
  -4   2  -4  336.00   20.38
  -4  -2  -4  322.17   21.36
   4   2   4  309.23   20.93
   4  -2   5   37.84    7.60
   4   2   5   33.40    7.09
   4  -2   5   29.40    6.59
  -4  -2  -5   35.51    7.46
  -4   2  -5   38.31    7.08
   4  -2   6  454.52   24.88
  -4   2  -6  429.95   25.20
   4  -2   6  495.23   26.58
   4   2   6  429.65   26.92
   4  -2   7    5.21    3.92
   4   2   7    0.80    2.85
  -4   2  -7    7.67    4.10
   4  -2   7   -2.31    3.90
   4  -2   8    8.53    4.21
  -4   2  -8   -0.25    3.34
   4   2   8    9.26    6.15
  -4   2  -9   11.78    6.27
   4  -2   9   13.09    4.49
   4   2   9   19.01    5.93
  -4   2 -10   54.02   10.94
   4  -2  10   53.24   11.09
   4   2  10   55.07   11.52
  -4  -2 -10   56.25   11.60
  -4   2 -11   44.37   10.87
   4  -2  11   49.66   10.68
   4   2  11   43.21   11.09
  -4  -2 -11   40.29    9.65
  -4   2 -12   71.99   14.04
   4  -2  12   97.78   15.34
   4   2  12   79.47   14.59
  -4  -2 -12   67.38   13.04
   4   2  13  211.93   24.69
   4   2  14    5.25    5.36
   4   2  15    0.70    4.69
   4   2  16   36.00   11.07
   4  -3 -16    1.50    3.96
  -4   3  16   -4.81    5.92
   4  -3 -15   -1.28    6.03
  -4   3  15    2.69    4.77
   4  -3 -14   38.61   12.88
  -4   3  14   30.13   11.85
   4  -3 -13   95.26   17.55
  -4  -3  13   82.46   15.25
  -4   3  13  129.49   20.47
   4   3 -12   13.42    7.54
   4  -3 -12    8.23    6.51
  -4  -3  12   17.14    7.35
  -4   3  12    9.39    6.62
  -4   3  11  164.15   21.52
   4   3 -11  143.15   19.48
   4  -3 -11  118.26   17.85
  -4  -3  11  118.01   17.87
  -4   3  10   77.28   14.93
   4   3 -10   66.01   12.43
   4  -3 -10   77.15   14.52
  -4  -3  10   66.26   13.06
  -4   3   9   85.12   14.30
   4   3  -9   87.86   13.53
  -4  -3   9   90.64   15.54
   4  -3  -9   76.25   13.14
  -4   3   8   31.04    8.58
  -4  -3   8   29.58    9.25
   4   3  -8   28.88    8.38
   4  -3  -8   33.76    8.57
  -4   3   7   19.46    7.34
   4   3  -7   20.49    7.06
   4  -3  -7   19.32    6.53
  -4  -3   7   12.72    6.26
   4  -3  -6    2.07    4.13
   4   3  -6    8.44    4.11
   4  -3  -5  648.10   36.65
   4   3  -5  716.50   33.31
  -4  -3   5  597.28   36.68
   4   3  -4   21.26    6.49
   4  -3  -4   19.76    6.78
   4   3  -4   13.72    4.34
  -4  -3   4    6.91    4.30
   4  -3  -3 1042.99   44.85
   4   3  -3  990.44   37.46
  -4  -3   3 1013.26   46.41
   4   3  -3  954.35   37.03
   4   3  -2   30.81    7.43
   4  -3  -2   15.12    5.66
  -4   3   2   20.71    6.04
   4   3  -2   38.96    8.48
  -4  -3   2   31.52    8.88
   4   3  -1   12.11    3.70
   4   3  -1    9.27    3.23
   4  -3  -1   19.33    6.78
  -4   3   1   13.74    5.23
   4   3  -1   17.65    5.61
  -4  -3   1   21.04    7.61
   4  -3   0  315.72   23.00
   4   3   0  230.67   15.54
   4   3   0  257.64   17.19
  -4  -3   0  241.36   20.66
  -4   3   0  329.25   21.94
   4  -3   1 1927.84   62.67
   4   3   1 2026.57   56.79
  -4   3  -1 2153.20   63.01
  -4  -3  -1 1900.53   64.16
   4   3   1 2089.22   56.78
   4  -3   2  631.25   32.41
  -4   3  -2  645.88   31.72
  -4  -3  -2  679.10   35.10
   4   3   2  616.90   28.49
   4   3   2  690.86   30.96
   4  -3   3 1298.60   47.84
  -4   3  -3 1349.45   48.54
  -4  -3  -3 1263.02   49.93
   4   3   3 1360.56   47.56
   4   3   3 1239.57   42.62
  -4  -3  -4    4.30    3.40
  -4   3  -4   -1.94    3.04
   4   3   4    6.80    5.22
   4  -3   4   -3.27    4.43
  -4   3  -5   50.90    9.46
   4  -3   5   45.86    8.32
  -4  -3  -5   55.02   10.02
   4   3   5   79.83   12.06
  -4   3  -6  637.13   35.06
  -4  -3  -6  653.20   37.99
   4   3   6  680.26   36.90
  -4   3  -7 1368.12   54.26
  -4  -3  -7 1280.70   56.65
   4   3   7 1343.65   56.17
  -4   3  -8  346.07   26.86
  -4  -3  -8  317.47   27.69
   4   3   8  337.34   27.87
  -4   3  -9  440.66   31.03
  -4  -3  -9  417.99   32.55
   4   3   9  478.61   34.53
  -4  -3 -10   14.21    9.09
  -4   3 -10    7.35    3.88
   4   3  10   -6.27    5.88
  -4  -3 -11   27.45   10.86
  -4   3 -11   41.90   10.46
   4   3  11   35.06   10.47
  -4  -3 -12   30.10   10.36
  -4   3 -12   43.40   11.29
   4   3  12   21.44    7.87
  -4   3 -13  217.76   25.37
  -4  -3 -13  197.24   24.87
   4   3  13  164.05   22.53
  -4   3 -14   27.74   10.24
  -4  -3 -14   25.34    8.18
   4   3  14   23.43    9.53
  -4   3 -15   47.72   13.50
   4   3  15   50.60   14.29
  -4  -3 -15   50.26   13.37
   4   4 -14    2.99    4.81
   4  -4 -14   14.35    8.88
  -4  -4  14   -3.18    5.36
  -4   4  14   -2.00    5.26
  -4   4  13  258.97   30.40
   4   4 -13  315.88   32.64
  -4  -4  13  296.36   32.50
   4  -4 -13  271.29   31.59
   4   4 -12   52.79   13.52
   4  -4 -12   39.91   11.60
  -4  -4  12   64.66   15.83
  -4   4  12   60.66   14.37
   4   4 -11   -3.04    5.71
   4  -4 -11   -5.28    5.55
  -4  -4  11   15.81    7.42
  -4   4  11   11.57    7.01
   4   4 -10    8.86    6.92
   4  -4 -10    3.90    4.66
  -4  -4  10    1.33    4.64
  -4   4  10   -4.56    6.45
  -4   4   9 1025.76   55.34
   4   4  -9 1104.51   53.39
  -4  -4   9 1164.38   61.81
   4  -4  -9 1068.29   58.73
  -4   4   8   49.45   11.69
   4  -4  -8   53.56   12.22
   4   4  -8   46.51   10.91
  -4  -4   8   44.50   13.80
  -4   4   7  987.80   50.17
   4   4  -7 1052.35   48.67
  -4  -4   7 1024.56   56.30
   4  -4  -7  995.41   54.15
  -4   4   6    7.78    5.24
   4  -4  -6   12.74    7.29
   4   4  -6    8.76    5.82
  -4  -4   6    6.52    6.26
  -4   4   5  329.09   26.27
   4   4  -5  377.86   27.06
  -4  -4   5  389.99   32.29
   4  -4  -5  374.00   31.16
   4  -4  -4   73.21   13.94
  -4  -4   4   71.02   13.37
   4   4  -4   49.54    9.79
  -4   4   3 2172.91   69.41
   4   4  -3 2357.47   71.66
  -4  -4   3 2133.33   80.44
   4  -4  -3 2319.91   81.99
   4  -4  -2   35.73   10.26
  -4  -4   2   47.78   14.03
  -4  -4   1  281.90   26.40
   4   4  -1  328.83   23.44
  -4   4   1  304.70   23.94
   4  -4  -1  299.36   26.97
   4   4   0  105.53   13.49
   4  -4   0  106.34   16.16
  -4   4   0  106.22   14.71
  -4  -4   0  122.13   17.44
  -4  -4  -1  492.41   33.79
   4   4   1  523.65   29.60
  -4   4  -1  511.81   31.97
   4  -4   1  465.28   32.63
   4   4   2    5.00    3.73
  -4  -4  -2   14.23    7.46
  -4   4  -2    4.69    6.32
  -4  -4  -3  344.30   27.24
  -4   4  -3  376.00   27.67
   4   4   3  401.68   26.89
  -4   4  -4   14.88    7.36
  -4  -4  -4    7.53    4.46
  -4   4  -5   16.89    6.68
   4   4   5   31.69    8.05
  -4  -4  -5   30.01    9.82
  -4   4  -6    8.95    5.66
  -4  -4  -6    8.38    6.59
   4   4   6    8.14    4.97
  -4  -4  -7   23.69    8.00
   4   4   7   41.46   10.47
  -4   4  -7   17.22    6.92
  -4  -4  -8   23.99    9.97
  -4   4  -8   42.38   11.00
   4   4   8   37.76   11.38
  -4  -4  -9    4.25    4.71
  -4   4  -9    0.55    5.21
   4   4   9    9.86    6.30
  -4  -4 -10   -1.73    4.01
  -4   4 -10    6.13    7.47
   4   4  10    1.71    4.56
  -4  -4 -11  151.75   22.71
  -4   4 -11  185.14   23.27
   4   4  11  161.82   23.03
  -4  -4 -12   15.01    7.88
  -4   4 -12    6.95    6.38
   4   4  12   17.05    6.87
  -4   4 -13  255.05   29.52
  -4  -4 -13  257.92   30.77
   4   4  13  181.76   25.41
   4   5 -12   46.14   13.11
  -4   5  12   42.73   13.80
   4   5 -11   50.83   13.38
   4  -5 -11   49.47   14.74
  -4  -5  11   76.27   18.09
  -4   5  11   38.69   11.17
   4  -5 -10    3.24    6.83
   4   5 -10    1.54    5.68
  -4   5  10    2.64    6.32
   4  -5  -9   14.02    7.45
   4   5  -9   28.57    9.43
  -4  -5   9   40.50   14.24
  -4   5   9   35.27   11.70
   4  -5  -8    9.25    7.55
   4   5  -8   15.64    6.96
  -4  -5   8   19.06   10.26
  -4   5   8    3.37    5.01
   4  -5  -7   33.70   12.48
   4   5  -7   47.04   11.61
  -4  -5   7   58.47   15.07
   4  -5  -6   81.49   17.78
  -4  -5   6   48.75   13.63
   4   5  -6   75.08   14.26
  -4   5   5  247.15   23.74
   4   5  -5  288.13   26.50
  -4  -5   5  254.34   29.55
   4  -5  -5  248.20   29.85
   4  -5  -4   95.68   18.84
  -4   5   4   91.69   15.17
  -4  -5   4   79.97   16.78
   4   5  -4   84.39   14.08
   4   5  -3   98.64   15.03
  -4   5   3   89.37   14.91
   4  -5  -3   84.68   16.56
  -4  -5   3  100.79   18.54
  -4  -5   2    6.67    7.21
   4   5  -2   12.46    6.01
  -4   5   2   25.88    8.66
   4  -5  -2   12.03    7.30
   4   5  -1   87.47   14.20
  -4   5   1   81.38   14.02
  -4  -5   1   85.39   16.12
  -4   5   0   79.59   15.24
  -4  -5   0   47.52   12.03
  -4  -5  -1  468.30   36.87
  -4   5  -1  487.22   34.32
  -4   5  -2  152.59   19.99
  -4  -5  -2  162.88   21.30
  -4   5  -3  256.39   25.31
  -4  -5  -3  204.90   23.45
  -4   5  -4   18.94    8.01
  -4   5  -5   -3.25    4.69
  -4   5  -6   66.98   13.83
  -4  -5  -6   59.72   14.89
  -4   5  -7  474.46   37.40
  -4  -5  -7  442.07   39.76
  -4  -5  -8   61.01   15.82
  -4   5  -8   64.18   14.64
  -4   5  -9  279.67   29.93
  -4  -5  -9  259.32   31.95
  -4   5 -10    5.82    5.52
   4   6  -8  174.30   25.53
   4   6  -7  158.82   23.53
   4  -6  -7  166.13   28.54
   4  -6  -6   41.79   15.72
  -4   6   4   73.05   15.61
  -4  -6   4   64.28   17.31
  -4  -6   3  192.70   28.69
  -4   6   3  224.20   25.34
  -4   6   2  239.47   26.30
  -4  -6   2  235.30   31.10
  -4   6   1   23.86    7.88
  -4  -6   1   29.05   11.94
  -4  -6   0   23.63    9.42
  -4   6   0   28.93   10.15
  -4   6  -1   39.44   11.91
  -4  -6  -1   21.73    7.63
  -4   6  -2   52.95   12.44
  -4  -6  -2   36.67   10.97
  -4   6  -3   -2.48    4.57
  -5   0  18   67.80   15.48
  -5   0  17    9.97    8.78
  -5   0  16   33.68    9.92
  -5   0  15   -2.76    3.71
  -5   0  14  123.64   18.02
  -5   0  13    0.07    4.12
   5   0 -13   -0.34    3.23
  -5   0  12   95.96   15.16
   5   0 -12   90.58   13.28
  -5   0  11    8.25    4.83
   5   0 -11    3.30    4.26
  -5   0  11    1.69    6.09
   5   0 -10  700.29   35.01
  -5   0  10  769.62   43.39
   5   0  -9    1.69    3.63
  -5   0   9    1.92    4.52
   5   0  -8 2757.32   74.81
  -5   0   8 2720.36   85.57
   5   0  -7    5.37    3.52
  -5   0   7   -2.10    5.28
   5   0  -6  242.90   18.17
  -5   0   6  215.46   20.79
   5   0  -5    1.52    3.44
  -5   0   5   -5.43    5.76
   5   0  -4 4286.56   96.56
  -5   0   4 4204.31  106.84
  -5   0   3   10.22    5.99
   5   0  -3    2.84    3.48
  -5   0   2 2349.70   71.33
   5   0  -2 2464.95   66.77
   5   0  -2 2480.13   63.75
   5   0  -1    3.13    2.41
   5   0  -1    1.41    2.27
   5   0   0  566.20   28.29
   5   0   0  609.08   27.65
   5   0   1   -4.02    3.25
   5   0   1   -2.77    2.88
  -5   0  -1    2.77    4.41
   5   0   2 1781.86   56.26
   5   0   2 1853.35   54.67
   5   0   3    1.06    2.73
   5   0   3    1.37    3.85
   5   0   4   18.18    5.11
   5   0   4   15.50    5.03
   5   0   5    1.23    2.97
   5   0   5   -1.22    4.75
   5   0   6  307.14   23.82
   5   0   6  300.59   21.97
   5   0   7    8.14    5.09
   5   0   7   -3.72    4.17
   5   0   8   42.19    8.98
   5   0   8   45.72   10.28
   5   0   9    3.95    4.46
   5   0   9    1.85    3.16
   5   0  10  238.69   23.61
   5   0  10  251.03   23.85
   5   0  11    3.56    4.10
   5   0  11   -3.13    5.96
   5   0  12   68.42   13.41
   5   0  12   73.92   14.15
   5   0  13    2.14    4.47
   5   0  14   17.23    7.38
   5   0  15    6.71    6.53
   5   0  16  380.80   37.03
   5   0  17    7.77    6.74
  -5   1  18  103.10   21.15
  -5   1  17   22.68   10.42
  -5   1  16  149.19   22.88
   5  -1 -16  145.13   20.26
   5  -1 -15   80.93   14.17
  -5   1  15   87.32   16.90
  -5   1  14  539.87   40.51
   5  -1 -14  493.03   34.72
  -5  -1  13  121.72   16.10
  -5   1  13  170.57   21.69
   5  -1 -13  140.78   18.01
  -5  -1  12  208.33   20.49
  -5   1  12  236.41   24.42
  -5  -1  12  223.35   24.63
   5  -1 -12  225.70   22.06
  -5  -1  11    2.90    2.84
  -5   1  11    5.05    4.71
  -5  -1  11    4.22    5.48
   5  -1 -11    4.04    4.32
   5  -1 -10  322.85   24.78
   5   1 -10  329.81   22.25
  -5  -1  10  392.02   31.07
   5  -1  -9  133.52   15.13
   5   1  -9  129.46   13.43
  -5  -1   9  143.36   18.66
   5  -1  -8 1158.54   46.49
   5   1  -8 1188.30   43.30
  -5  -1   8 1131.36   52.20
   5  -1  -7   -2.00    2.66
   5   1  -7    2.11    2.45
   5  -1  -6 1028.53   41.33
   5   1  -6 1103.70   39.78
  -5  -1   6 1038.99   47.90
   5  -1  -5    1.58    2.36
   5   1  -5    5.40    3.10
  -5  -1   5   11.23    6.66
  -5  -1   4    3.74    4.60
   5  -1  -4    4.85    2.90
   5   1  -4   11.80    3.99
   5  -1  -3  140.41   13.65
   5   1  -3  161.42   14.10
  -5  -1   3  154.65   15.93
   5  -1  -2 1818.18   54.96
   5   1  -2 1818.11   55.26
  -5  -1   2 1860.25   62.35
   5   1  -2 1862.36   53.27
   5  -1  -1   89.35   10.73
   5   1  -1   87.01   10.99
  -5  -1   1  103.07   13.88
   5   1  -1   81.23    9.89
   5  -1   0 1733.34   53.30
   5   1   0 1595.32   52.21
  -5  -1   0 1722.40   59.68
   5  -1   0 1690.26   52.18
   5   1   0 1733.06   51.01
  -5   1   0 1735.38   42.66
   5  -1   1  466.53   25.39
  -5   1  -1  456.38   18.51
   5  -1   1  492.25   26.54
   5   1   1  483.70   24.77
   5   1   1  470.07   26.18
  -5  -1  -1  464.82   28.49
   5  -1   2  909.27   37.71
   5   1   2  862.28   37.01
  -5   1  -2  806.32   26.71
  -5  -1  -2  834.00   38.91
   5  -1   2  892.81   35.82
   5   1   2  844.23   34.66
   5  -1   3  357.33   22.97
   5   1   3  286.75   21.44
  -5   1  -3  288.20   15.24
  -5  -1  -3  302.12   21.84
   5  -1   3  328.60   21.39
   5   1   3  331.98   20.74
   5  -1   4  160.08   16.23
   5   1   4  141.14   15.55
  -5  -1  -4  141.35   14.67
  -5   1  -4  144.33   11.16
   5  -1   4  163.26   15.23
   5   1   4  162.22   15.00
  -5  -1  -5  137.77   14.64
   5  -1   5  161.94   16.33
   5   1   5  169.92   17.38
  -5   1  -5  134.21   11.63
   5  -1   5  171.23   16.25
   5   1   5  148.87   15.34
   5  -1   6 1064.71   45.31
   5   1   6 1030.53   46.06
   5  -1   6 1115.36   44.91
   5   1   6 1103.08   45.04
   5  -1   7  433.30   28.12
  -5   1  -7  343.57   22.07
   5   1   7  364.23   27.91
   5  -1   7  407.26   26.90
   5   1   7  395.21   26.85
  -5   1  -8  741.13   35.51
   5  -1   8  851.87   41.89
   5  -1   8  896.02   41.95
   5   1   8  815.58   41.02
   5  -1   9    3.84    4.73
   5   1   9    1.24    4.17
   5  -1   9    4.44    4.57
   5  -1  10    0.57    3.43
   5   1  10    0.55    5.05
   5  -1  11  185.79   21.73
   5   1  11  178.11   20.85
   5  -1  12  492.23   36.37
   5   1  12  463.88   35.37
   5  -1  13   43.63   11.06
   5   1  13   41.12   11.48
   5  -1  14  101.21   17.78
   5   1  14   66.83   14.48
   5  -1  15   -9.25    6.60
   5   1  15    5.75    5.16
   5  -1  16    8.52    6.32
   5   1  16   18.97    9.81
   5  -1  17   16.94    8.90
   5  -2 -18   52.42   14.32
   5  -2 -17   61.46   14.03
  -5   2  17   89.33   19.82
   5  -2 -16   30.65   11.16
  -5   2  16   22.54   10.76
   5  -2 -15   82.86   16.43
  -5   2  15   84.92   17.99
   5  -2 -14   21.33    8.28
  -5   2  14   10.95    8.02
   5  -2 -13    2.75    4.36
  -5  -2  13    7.22    5.77
  -5   2  13    1.13    6.25
  -5   2  12    2.63    3.88
  -5  -2  12   11.57    7.49
   5  -2 -12    4.89    3.40
  -5   2  11  423.41   33.61
  -5  -2  11  441.00   35.05
   5  -2 -11  405.50   31.28
  -5   2  10  360.83   29.65
  -5  -2  10  406.57   32.58
   5  -2 -10  337.76   27.17
   5  -2  -9  459.98   31.39
  -5  -2   9  480.24   34.87
   5  -2  -8  598.99   34.61
  -5  -2   8  661.99   39.98
   5   2  -7    0.78    3.03
  -5  -2   7   -2.01    4.48
   5  -2  -7   -1.50    4.11
   5   2  -7   -2.05    3.56
   5   2  -6   27.93    7.35
   5  -2  -6    8.87    4.39
   5   2  -6   15.89    4.90
  -5  -2   6   14.02    7.32
   5  -2  -5  660.91   34.11
   5   2  -5  736.19   32.70
   5   2  -5  669.65   31.12
  -5  -2   5  694.59   38.61
   5  -2  -4 1484.37   52.75
   5   2  -4 1532.68   49.19
   5   2  -4 1430.67   45.86
  -5  -2   4 1403.41   56.70
   5  -2  -3  964.21   40.30
   5   2  -3  973.49   38.25
   5   2  -3  891.84   32.43
  -5  -2   3  955.28   44.18
   5   2  -3  936.34   34.06
   5  -2  -2 1113.69   43.68
   5   2  -2 1187.44   42.99
   5   2  -2 1040.13   33.17
  -5  -2   2 1113.97   48.17
   5   2  -2 1182.39   38.82
   5   2  -1   25.55    6.76
   5   2  -1   17.63    4.85
   5  -2  -1   23.54    6.22
  -5   2   1   15.31    4.48
   5   2  -1    8.05    2.99
  -5  -2   1   15.58    6.57
   5   2   0   70.14    9.45
   5  -2   0   68.81   10.16
   5   2   0   73.39   10.50
  -5   2   0   71.17    8.82
  -5  -2   0   74.64   12.23
   5  -2   1  562.31   29.94
   5   2   1  547.88   30.60
  -5  -2  -1  615.14   33.87
  -5   2  -1  609.88   27.29
   5   2   1  581.12   28.22
  -5  -2  -2 1294.76   50.63
   5  -2   2 1192.53   46.12
   5   2   2 1203.48   47.88
   5  -2   2 1284.76   45.61
  -5   2  -2 1316.37   42.47
   5   2   2 1267.24   44.56
   5  -2   3  840.33   37.08
   5   2   3  838.73   40.30
  -5   2  -3  880.99   34.82
  -5  -2  -3  875.99   40.73
   5  -2   3  957.59   38.59
   5   2   3  886.45   37.61
   5  -2   4  231.19   18.69
  -5   2  -4  230.18   17.24
  -5  -2  -4  237.88   20.72
   5  -2   4  237.61   19.56
   5   2   4  233.91   19.43
   5  -2   5    2.56    3.38
   5   2   5   11.80    5.19
   5  -2   5   12.07    4.64
  -5  -2  -5    9.27    5.27
  -5   2  -5   10.66    3.61
  -5  -2  -6  114.18   13.78
   5  -2   6  129.49   15.11
  -5   2  -6  117.16   13.08
   5   2   6   97.85   13.37
   5  -2   6  152.70   16.67
   5  -2   7  148.24   16.19
  -5   2  -7  118.13   13.53
   5  -2   7  161.65   16.91
   5   2   7  148.73   16.90
   5  -2   8  102.13   14.13
  -5   2  -8   85.94   12.08
   5   2   8   99.56   14.65
  -5   2  -9  132.23   16.04
   5   2   9  120.27   16.55
   5  -2   9  151.32   17.72
  -5   2 -10  115.68   15.76
   5   2  10  124.61   17.92
   5  -2  10  157.73   19.34
  -5   2 -11   24.99    8.21
   5  -2  11   44.75    9.90
   5   2  11   51.26   12.34
  -5   2 -12   14.91    7.23
   5  -2  12   30.02    9.88
   5   2  12   36.26   11.57
   5   2  13   19.41    8.02
   5   2  14    0.37    5.90
   5   2  15   21.26    9.60
   5  -3 -16    0.44    4.93
  -5   3  15  308.36   34.98
   5  -3 -15  305.60   32.73
   5  -3 -14   38.35   12.27
  -5  -3  14   30.50   10.59
  -5   3  14   17.56   10.03
  -5   3  13  476.40   40.79
  -5  -3  13  478.31   39.94
   5  -3 -13  499.33   39.76
   5  -3 -12    6.20    4.40
  -5  -3  12   19.32    7.55
  -5   3  12    5.14    6.57
  -5   3  11    5.01    4.93
   5   3 -11    9.82    6.20
   5  -3 -11   12.46    7.89
  -5  -3  11    8.83    5.15
  -5   3  10   59.29   13.64
   5   3 -10   37.80   10.14
   5  -3 -10   45.10   11.50
  -5  -3  10   46.30   11.45
   5   3  -9  655.58   38.69
  -5   3   9  648.32   41.39
  -5  -3   9  630.94   42.20
   5  -3  -9  657.62   41.05
   5   3  -8   27.79    7.90
   5  -3  -8   33.77    9.78
  -5  -3   8   26.99    8.49
   5  -3  -7  328.15   27.32
   5   3  -7  326.24   24.77
  -5  -3   7  312.95   27.89
   5   3  -6    8.58    4.42
   5  -3  -6    7.34    4.88
  -5  -3   6    3.54    4.42
   5  -3  -5   19.55    6.69
   5   3  -5   12.56    4.97
  -5  -3   5    3.80    5.30
   5  -3  -4   49.32   10.64
   5   3  -4   29.86    6.96
   5   3  -4   38.90    7.51
  -5  -3   4   35.32    9.37
   5  -3  -3    7.10    5.60
   5   3  -3    6.06    4.23
   5   3  -3   -0.86    3.03
  -5  -3   3   -3.28    4.93
  -5   3   2   13.97    5.82
   5   3  -2   12.02    4.77
  -5  -3   2   10.37    6.62
   5   3  -2   15.72    4.22
   5  -3  -1  178.72   18.07
   5   3  -1  168.22   16.55
  -5  -3   1  137.10   17.22
  -5   3   1  153.53   15.27
   5  -3   0  161.53   17.53
   5   3   0  184.85   18.28
  -5  -3   0  155.35   18.46
   5   3   0  177.91   15.06
  -5   3   0  209.38   18.19
   5  -3   1 1380.96   53.56
   5   3   1 1408.01   55.11
  -5  -3  -1 1439.00   57.99
  -5   3  -1 1438.09   51.13
   5   3   1 1423.61   48.13
   5  -3   2  265.91   21.92
  -5  -3  -2  300.79   25.55
  -5   3  -2  232.92   19.37
   5   3   2  272.92   20.09
   5  -3   3  572.47   33.03
  -5   3  -3  603.81   32.51
  -5  -3  -3  562.59   34.32
   5   3   3  581.55   31.78
   5  -3   4   11.94    5.09
  -5   3  -4   16.03    5.50
   5   3   4   23.02    7.39
   5  -3   4    7.01    5.11
  -5  -3  -4   10.78    5.20
   5  -3   5  530.04   30.97
  -5   3  -5  597.71   33.55
  -5  -3  -5  565.19   33.99
   5   3   5  625.01   35.24
   5  -3   6  103.51   13.27
  -5   3  -6   87.16   13.34
   5   3   6  120.01   15.75
  -5   3  -7 1762.94   64.64
   5   3   7 1801.53   68.11
   5   3   8   40.53   10.59
  -5   3  -8   30.65    8.94
  -5   3  -9  118.59   16.34
   5   3   9  117.09   17.58
  -5   3 -10    3.04    6.11
   5   3  10    9.20    7.10
  -5   3 -11  461.45   35.42
   5   3  11  492.33   37.91
  -5   3 -12    1.47    5.86
   5   3  12   -1.02    4.14
  -5   3 -13  277.89   28.89
   5   3  13  291.90   30.85
  -5   3 -14   -0.48    4.73
   5   3  14    0.07    4.84
  -5  -4  14   -6.84    7.41
   5   4 -13    6.50    5.67
   5  -4 -13   17.15    9.41
  -5  -4  13   -0.31    6.42
  -5   4  13   27.68   11.47
   5   4 -12   -4.22    4.54
   5  -4 -12   -2.23    4.68
  -5  -4  12  -12.06    9.75
  -5   4  12   -2.52    5.77
   5   4 -11  176.38   22.49
  -5  -4  11  160.17   23.21
  -5   4  11  162.52   23.62
   5  -4 -11  181.54   24.82
  -5  -4  10    2.64    6.47
   5   4 -10    0.04    5.34
   5  -4 -10    1.13    4.51
  -5   4  10    6.96    7.06
  -5   4   9  501.10   38.84
   5   4  -9  519.19   36.39
  -5  -4   9  502.73   40.68
   5  -4  -9  538.67   41.25
  -5   4   8   -6.04    7.68
   5   4  -8    9.93    5.33
   5  -4  -8    4.48    5.36
  -5  -4   8   -5.90    9.06
  -5   4   7   44.12   11.77
   5  -4  -7   43.36   11.42
   5   4  -7   24.27    7.39
  -5  -4   7   27.09    9.59
   5  -4  -6   57.95   12.99
   5   4  -6   50.26   10.17
  -5  -4   6   49.14   11.86
  -5  -4   5  523.78   38.92
   5  -4  -5  561.07   39.89
  -5  -4   4   71.31   14.75
   5  -4  -4   79.32   14.83
  -5   4   4   72.97   12.38
  -5  -4   3  630.34   41.33
   5  -4  -3  717.89   43.93
  -5   4   3  674.84   36.22
  -5   4   2    7.39    4.22
   5  -4  -2    1.93    5.87
  -5  -4   2   19.92    9.75
   5  -4  -1   22.80    8.19
  -5   4   1    9.77    5.46
   5   4  -1   14.90    5.23
  -5  -4   1    8.77    5.56
   5  -4   0   35.80    9.92
   5   4   0   42.83    9.94
  -5  -4   0   17.17    6.55
   5  -4   1  426.14   32.06
  -5  -4  -1  416.96   32.08
  -5   4  -1  424.87   29.16
  -5  -4  -2   40.02   10.79
  -5   4  -2   21.12    6.97
  -5   4  -3  195.58   20.71
  -5  -4  -3  221.04   23.38
  -5   4  -4    7.47    5.08
  -5  -4  -4    7.73    6.50
  -5   4  -5    7.79    6.29
   5   4   6   13.49    7.22
  -5   4  -6   16.80    8.22
   5   4   7   46.05   11.17
  -5   4  -7   40.20   11.08
   5   4   8   -8.88    5.33
  -5   4  -8    7.57    7.44
   5   4   9   52.82   13.67
  -5   4  -9   28.82    8.73
   5   4  10   13.60    8.32
  -5   4 -10    1.91    5.11
  -5   4 -11   31.52   10.15
   5   4  11   26.91    9.45
  -5   4 -12   15.92    8.63
   5   4  12   13.85    8.83
  -5   4 -13    0.03    7.16
  -5   5  11   -1.37    4.70
   5  -5 -10   -0.49    4.23
  -5   5  10    4.75    4.75
   5  -5  -9  125.32   23.04
  -5  -5   9  114.98   22.96
  -5   5   9  112.36   19.74
   5  -5  -8   43.32   14.05
  -5  -5   8   20.50    9.00
  -5   5   8   33.48   10.37
   5  -5  -7  141.50   23.37
  -5  -5   7  113.58   21.01
   5  -5  -6    0.84    7.30
  -5   5   6    3.15    4.69
  -5  -5   6   14.09    7.74
   5  -5  -5   41.40   13.71
  -5   5   5   23.30    8.55
  -5  -5   5   19.35    9.05
   5  -5  -4   19.25   10.18
  -5   5   4    9.30    6.15
  -5  -5   4   20.15   10.05
   5  -5  -3   -3.28    6.88
  -5  -5   3    1.51    5.10
  -5   5   3    8.05    5.26
   5  -5  -2   -0.87    5.49
  -5   5   2    5.56    3.53
  -5  -5   2   -8.21    4.83
  -5   5   1   56.97   12.22
  -5  -5   1   31.30    9.26
  -5   5   0   20.66    9.30
  -5  -5   0   11.02    7.78
  -5  -5  -1  187.08   23.50
  -5   5  -1  220.32   23.01
  -5  -5  -2   -0.40    5.57
  -5   5  -2    8.02    6.97
  -5   5  -3  128.30   18.49
  -5  -5  -3   96.75   17.03
  -5   5  -4   -5.80    5.02
  -5   5  -5   92.81   16.78
  -5   5  -6   54.56   13.22
  -5   5  -7  462.11   37.52
  -5   5  -8   15.21    7.12
  -5   5  -9   55.40   14.32
   5  -6  -6   -4.60   10.66
  -5  -6   2  115.76   21.23
  -5  -6   1   11.31    5.03
  -5  -6   0   21.94    7.87
  -5  -6  -1   28.82   11.38
  -6   0  18    7.87    4.76
  -6   0  17   -2.58    6.35
  -6   0  16   16.96    8.49
  -6   0  15    1.02    5.00
  -6   0  14   25.91    9.31
  -6   0  13    0.97    4.01
   6   0 -13   -4.27    3.54
  -6   0  12    8.51    4.76
   6   0 -12    3.79    3.73
  -6   0  11   21.03    8.92
   6   0 -11    6.99    5.90
   6   0 -10  160.67   17.24
  -6   0  10  197.40   23.65
   6   0  -9    2.35    3.38
  -6   0   9    6.77    7.81
   6   0  -8  183.28   17.68
  -6   0   8  181.22   21.95
   6   0  -7   -5.87    4.85
  -6   0   7   -2.55    5.18
   6   0  -6  880.83   38.93
  -6   0   6  969.15   49.46
   6   0  -5    0.67    2.92
  -6   0   5    2.58    4.85
   6   0  -4 2440.15   70.09
  -6   0   4 2581.81   81.70
   6   0  -3    4.96    5.04
  -6   0   3   -1.88    4.46
   6   0  -2    9.63    4.55
   6   0  -2    7.06    4.07
  -6   0   2   13.87    6.42
   6   0  -1    1.65    3.06
   6   0  -1    1.83    3.64
  -6   0   1    9.76    6.62
   6   0   0 6477.78  143.56
   6   0   0 6772.27  141.45
   6   0   1    1.03    4.00
   6   0   1    9.65    5.79
   6   0   2 3195.08   88.84
   6   0   2 3354.59   86.11
   6   0   3   -1.19    4.38
   6   0   3   -4.92    5.03
   6   0   4  200.99   19.62
   6   0   4  217.46   19.26
   6   0   5    5.69    3.55
   6   0   5    4.19    5.04
   6   0   6 2626.62   83.03
   6   0   6 2532.00   78.57
   6   0   7   -0.67    3.68
   6   0   7   -3.76    4.71
   6   0   8  857.95   46.81
   6   0   8  838.33   43.45
   6   0   9    1.82    4.17
   6   0   9   -6.40    4.52
   6   0  10   12.32    7.85
   6   0  10    4.78    4.70
   6   0  11    2.25    4.34
   6   0  11   13.49    7.40
   6   0  12  117.27   18.65
   6   0  12  103.16   18.35
   6   0  13   -8.21    6.38
   6   0  14  181.67   25.38
   6   0  15   -7.73    6.09
   6   0  16   27.29    9.61
  -6   1  17   -2.12    5.12
   6  -1 -16  115.95   18.51
  -6   1  16  184.78   25.54
   6  -1 -15  104.22   16.93
  -6   1  15  119.20   20.65
  -6   1  14  371.79   34.43
   6  -1 -14  295.63   28.24
  -6  -1  13   34.64    9.31
  -6   1  13   50.90   11.32
   6  -1 -13   34.49    9.06
  -6  -1  12   21.59    7.27
  -6   1  12    7.56    4.62
   6  -1 -12   27.77    8.91
  -6  -1  12   12.49    5.45
   6  -1 -11   96.28   14.10
  -6  -1  11   87.36   16.75
   6  -1 -10  769.36   41.10
   6   1 -10  772.89   37.55
   6  -1  -9  302.61   24.33
   6   1  -9  275.50   21.35
  -6  -1   9  332.44   30.18
   6  -1  -8 1007.38   45.44
   6   1  -8 1093.47   44.42
  -6  -1   8 1114.09   57.09
   6  -1  -7   24.41    6.48
   6   1  -7   33.79    7.09
  -6  -1   7   26.85    9.79
   6  -1  -6   65.91   11.03
   6   1  -6   56.27    9.22
  -6  -1   6   49.78   11.31
   6  -1  -5   58.78    9.89
   6   1  -5   56.48    9.76
  -6  -1   5   64.24   13.88
   6  -1  -4 1201.90   46.63
   6   1  -4 1215.13   46.99
  -6  -1   4 1169.70   55.10
   6  -1  -3   46.15    8.70
   6   1  -3   41.46    8.53
   6   1  -3   48.52    8.10
  -6  -1   3   46.76   10.47
   6  -1  -2  888.47   38.56
   6   1  -2  869.76   38.53
  -6  -1   2  901.79   45.48
   6   1  -2  847.95   36.20
   6  -1  -1  156.37   15.60
   6   1  -1  157.82   15.44
  -6  -1   1  167.13   18.74
   6   1  -1  163.07   14.80
  -6   1   1  170.18   11.19
  -6   1   0   15.05    3.41
   6  -1   0   11.55    4.40
   6   1   0   10.36    4.41
   6  -1   0   12.96    4.62
   6   1   0   14.19    6.14
  -6  -1   0    0.71    5.07
   6  -1   1  159.56   16.24
   6   1   1  148.28   15.95
  -6  -1  -1  172.33   18.30
   6  -1   1  147.40   15.21
   6   1   1  163.20   15.46
   6  -1   2  565.86   31.68
   6   1   2  472.26   29.07
  -6  -1  -2  484.70   30.89
   6  -1   2  555.68   30.07
   6   1   2  511.68   28.51
   6  -1   3    2.62    3.07
   6   1   3    5.50    4.42
   6  -1   3   13.00    6.59
   6   1   3   11.90    5.23
  -6  -1  -3   16.34    7.12
   6  -1   4  225.92   20.57
   6   1   4  199.13   19.41
   6  -1   4  189.85   18.52
  -6  -1  -4  185.78   18.38
   6   1   4  166.88   16.87
   6  -1   5  512.86   31.92
   6   1   5  441.14   31.10
  -6  -1  -5  497.01   30.11
   6  -1   5  489.93   30.09
   6   1   5  472.85   29.53
   6  -1   6  205.30   20.68
   6   1   6  169.06   19.63
   6  -1   6  201.54   19.59
   6   1   6  203.93   19.93
   6  -1   7  155.04   18.67
   6   1   7  148.81   19.16
   6  -1   7  166.41   18.66
   6   1   7  154.06   18.09
   6  -1   8   70.45   12.41
   6  -1   8   87.78   13.79
   6   1   8  104.74   15.22
   6   1   8   93.96   15.24
   6  -1   9   98.16   15.26
   6   1   9   99.81   15.27
   6  -1   9   88.55   15.36
   6   1   9   67.56   13.93
   6   1  10  380.31   32.77
   6  -1  10  445.46   33.86
   6   1  10  433.24   33.52
   6   1  11  179.96   23.74
   6  -1  11  249.10   25.63
   6   1  11  200.39   23.30
   6   1  12  278.71   29.56
   6  -1  12  243.24   26.73
   6   1  12  262.46   27.67
   6   1  13   -5.03    6.92
   6   1  13    5.20    4.70
   6  -1  14   57.74   14.23
   6   1  14   42.35   12.85
   6   1  14   56.17   14.42
   6  -1  15   53.93   13.52
   6   1  15   52.74   14.53
   6   1  15   38.54   13.34
   6  -1  16  265.53   32.10
   6  -2 -17   -7.86    8.74
   6  -2 -16  -13.74    7.48
  -6   2  16   -5.58    7.09
   6  -2 -15   10.35    7.28
  -6   2  15   19.83   10.86
   6  -2 -14    6.23    6.39
  -6   2  14    3.99    4.83
  -6   2  13   33.32   11.96
   6  -2 -13   55.50   13.10
  -6  -2  13   39.78   13.01
  -6   2  12    8.64    5.19
  -6  -2  12    7.36    7.45
   6  -2 -12    5.12    4.70
  -6   2  11   16.60    8.29
   6  -2 -11   19.67    7.21
  -6  -2  11   29.58   12.03
   6  -2 -10    5.97    5.22
  -6  -2  10    3.19    5.75
   6  -2  -9   -5.11    4.79
  -6  -2   9    2.09    4.86
   6  -2  -8    5.87    4.53
  -6  -2   8    0.45    5.93
   6  -2  -7  140.29   16.60
   6   2  -7  121.62   13.87
  -6  -2   7  110.04   17.42
   6  -2  -6  164.68   17.46
   6   2  -6  127.00   14.04
  -6  -2   6  124.44   17.71
   6  -2  -5  293.28   23.52
   6   2  -5  296.13   21.53
  -6  -2   5  308.63   27.97
   6  -2  -4  133.14   15.60
   6   2  -4  142.10   15.24
  -6  -2   4  156.23   19.75
   6   2  -3   63.44    8.91
   6  -2  -3   85.49   12.20
   6   2  -3   62.07    9.94
  -6  -2   3   77.32   13.16
   6   2  -2   54.16    8.44
   6  -2  -2   51.11    9.64
   6   2  -2   49.45    9.65
  -6  -2   2   45.80   11.03
   6  -2  -1  453.96   28.56
   6   2  -1  450.70   28.12
  -6  -2   1  480.03   32.92
   6   2  -1  431.34   24.81
  -6   2   1  430.24   22.83
   6  -2   0 1680.53   59.65
   6   2   0 1566.28   57.74
   6   2   0 1693.20   54.84
  -6  -2   0 1605.21   64.01
  -6   2   0 1785.06   52.42
   6  -2   1 1381.34   52.40
  -6  -2  -1 1306.78   56.60
   6   2   1 1296.74   52.24
  -6   2  -1 1331.28   44.10
   6   2   1 1328.88   48.59
   6  -2   2  740.24   36.95
   6   2   2  708.54   38.15
  -6   2  -2  674.75   30.05
  -6  -2  -2  673.52   39.28
   6  -2   2  643.25   35.08
   6   2   2  697.48   34.69
   6  -2   3  115.79   14.34
  -6   2  -3  106.64   11.71
   6   2   3  103.20   14.88
   6  -2   3   95.65   13.75
  -6  -2  -3  116.73   16.10
   6   2   3  103.37   13.27
   6  -2   4  174.22   18.91
   6   2   4  186.49   19.85
  -6   2  -4  185.63   15.62
  -6  -2  -4  185.95   19.87
   6  -2   4  189.23   18.80
   6   2   4  187.95   18.22
   6  -2   5  738.09   38.15
   6   2   5  644.92   38.81
  -6   2  -5  637.60   31.05
  -6  -2  -5  626.29   36.82
   6  -2   5  736.44   37.94
   6   2   5  685.51   37.41
   6  -2   6 1328.37   54.50
   6   2   6 1313.35   58.46
   6  -2   6 1434.84   56.93
   6   2   6 1294.78   55.08
   6   2   7  852.44   48.51
   6  -2   7  982.93   47.22
   6   2   7  957.36   47.96
   6  -2   8  396.17   30.44
   6   2   8  387.79   30.97
   6  -2   9    6.17    4.55
   6   2   9   -3.94    4.53
   6  -2  10   32.32    9.18
   6   2  10   33.10   10.10
   6  -2  11  149.25   20.67
   6   2  11  156.12   21.03
   6  -2  12  125.38   19.59
   6   2  12  103.19   17.23
   6   2  13   92.33   16.94
   6   2  14   79.37   16.17
   6  -3 -15  152.72   23.84
   6  -3 -14   70.67   14.84
  -6  -3  14   70.39   18.50
  -6   3  14   84.91   19.03
   6  -3 -13   46.65   12.73
  -6  -3  13   76.10   16.84
  -6   3  13   41.90   12.67
  -6   3  12    7.77    4.45
   6  -3 -12    0.20    4.24
  -6  -3  12    7.43    8.23
  -6   3  11  155.55   22.24
   6  -3 -11  132.25   20.18
  -6  -3  11  165.99   24.29
  -6   3  10  159.10   22.41
  -6  -3  10  143.83   21.88
   6  -3 -10  152.85   21.02
  -6  -3   9  464.72   38.38
   6  -3  -9  428.56   34.21
  -6  -3   8  107.57   18.60
   6  -3  -8  113.10   16.93
   6  -3  -7   29.85    8.44
  -6  -3   7   10.59    7.70
   6  -3  -6   13.83    6.19
  -6  -3   6    8.51    6.83
   6  -3  -5  278.61   25.29
   6   3  -5  240.70   20.61
  -6  -3   5  276.80   27.40
   6   3  -4   25.70    7.43
   6  -3  -4   18.75    8.32
  -6  -3   4   25.04    9.76
   6  -3  -3  218.86   21.87
  -6   3   3  220.77   18.43
   6   3  -3  204.04   19.15
  -6  -3   3  227.63   24.81
   6  -3  -2   21.64    7.22
   6   3  -2   23.20    7.16
  -6   3   2   17.12    6.00
  -6  -3   2   31.05   10.84
   6  -3  -1   78.43   13.13
   6   3  -1   63.06   10.80
  -6  -3   1   86.38   15.75
  -6   3   1   80.72   11.31
   6   3   0   42.03    7.80
  -6   3   0   38.23    7.70
   6  -3   0   37.88    9.22
   6   3   0   41.12    9.39
  -6  -3   0   47.59   11.20
  -6   3  -1    2.44    3.94
   6   3   1    1.42    2.99
   6  -3   1    7.99    5.00
   6   3   1   -3.62    5.37
  -6  -3  -1    4.58    3.96
   6   3   2    1.83    3.87
   6  -3   2    2.20    2.93
  -6   3  -2   -2.04    3.98
   6   3   2    1.75    3.13
  -6  -3  -2   11.87    7.84
   6  -3   3  129.14   16.50
   6   3   3  151.02   19.01
  -6   3  -3  152.30   16.45
  -6  -3  -3  138.80   18.82
   6   3   3  158.45   16.98
  -6   3  -4    7.59    5.34
   6   3   4   17.43    6.42
  -6  -3  -4   25.30    8.20
   6  -3   4    7.75    4.72
   6   3   4   17.64    6.58
   6  -3   4    8.87    4.35
  -6   3  -5  707.69   37.25
  -6  -3  -5  669.67   41.06
   6  -3   5  641.95   37.65
   6   3   5  715.33   40.22
   6  -3   6   75.92   12.78
  -6   3  -6   60.37   11.39
   6   3   6   89.32   14.76
  -6   3  -7  144.89   17.74
   6   3   7  178.84   21.45
   6   3   8    6.89    4.52
   6   3   9  355.38   32.06
   6   3  10   41.16   11.33
   6   3  11  735.98   48.76
   6   3  12   14.85    7.94
   6   3  13   23.12    8.74
  -6  -4  13   34.45   13.58
   6  -4 -12    5.84    6.96
  -6  -4  12   -4.93    7.28
  -6   4  12   -4.84    5.69
  -6   4  11   30.99   10.49
   6  -4 -11   17.11    8.96
  -6  -4  11   33.50   12.70
  -6   4  10   -0.56    4.30
   6  -4 -10   -4.88    4.08
  -6  -4  10   -2.68    7.36
  -6   4   9   39.12   11.93
   6  -4  -9   23.61   10.38
  -6  -4   9   26.83   12.97
  -6   4   8   37.88   10.64
   6  -4  -8   13.65    7.78
  -6  -4   8   28.91   10.45
   6  -4  -7   62.42   14.34
  -6  -4   7   66.61   15.06
   6  -4  -6   12.23    6.36
  -6  -4   6   -8.51    7.56
   6  -4  -5  605.60   42.34
  -6  -4   5  533.86   41.06
  -6   4   4  109.59   15.30
   6  -4  -4  100.84   17.25
  -6  -4   4   88.28   17.62
   6  -4  -3  181.61   22.66
  -6  -4   3  173.84   23.41
  -6   4   3  198.98   19.63
   6  -4  -2   27.69    9.96
   6   4  -2   18.74    7.86
  -6  -4   2    9.47    7.49
  -6   4   2    8.43    6.18
   6  -4  -1  539.86   38.27
   6   4  -1  486.46   33.84
  -6  -4   1  501.52   39.31
  -6   4   1  536.21   33.98
  -6   4   0   86.89   14.92
   6  -4   0   67.85   14.72
   6   4   0   30.56    9.67
  -6  -4   0   33.62   11.06
   6  -4   1 1308.69   61.04
   6   4   1 1291.95   60.30
  -6  -4  -1 1235.81   61.42
  -6   4  -1 1318.70   54.99
  -6   4  -2   11.87    6.25
   6   4   2   32.85   12.86
  -6   4  -3   63.58   12.41
   6   4   3   56.62   12.74
  -6  -4  -3   76.90   15.34
  -6   4  -4   -4.91    6.70
  -6  -4  -4    6.19    5.76
  -6   4  -5  451.10   33.36
  -6   4  -6   -2.62    4.58
  -6   4  -7  496.38   36.62
   6   4   7  544.74   40.19
   6   4   8   12.70    7.38
  -6   4  -8    6.19    6.26
   6   4   9    1.17    4.62
  -6   4  -9   11.91    6.63
   6   4  10    0.96    3.96
   6   4  11   54.44   14.40
  -6   5  10   71.72   16.02
  -6   5   9  133.97   22.14
  -6   5   8   42.43   12.54
   6  -5  -8   41.28   12.03
  -6  -5   8   35.82   12.11
  -6   5   7   47.17   13.82
   6  -5  -7   56.23   15.15
  -6  -5   7   36.10   13.46
  -6   5   6   13.07    6.96
   6  -5  -6    3.39    6.67
  -6  -5   6   -2.36    9.21
   6  -5  -5   52.15   13.98
  -6  -5   5   56.58   14.45
  -6   5   5   53.91   11.66
  -6   5   4  121.50   17.45
   6  -5  -4  123.82   21.43
  -6  -5   4   73.69   16.83
   6  -5  -3  135.56   22.74
  -6  -5   3  130.44   20.90
  -6   5   3  153.96   19.56
  -6   5   2   49.76   11.38
  -6  -5   2   31.09   11.28
  -6   5   1   45.81   12.01
  -6  -5   1   32.17   10.94
  -6   5   0    4.47    4.84
  -6  -5   0    0.58    5.52
  -6   5  -1    0.23    3.34
  -6  -5  -1    6.41    5.95
  -6   5  -2   10.94    4.71
   6   5   2   17.56    8.20
  -6  -5  -2    4.75    4.94
  -6   5  -3   54.84   12.19
   6   5   3   40.74   12.60
  -6   5  -4   58.55   13.53
  -6   5  -5   76.32   14.64
  -6   5  -6   43.92   11.62
  -6   5  -7   35.36   10.20
  -6   5  -8   17.26   10.08
  -7   0  17   -6.83    9.15
  -7   0  16  281.45   31.07
  -7   0  15   10.66    7.24
  -7   0  14  143.30   20.79
  -7   0  13    0.19    4.27
   7   0 -13    4.69    4.71
   7   0 -12    0.79    3.99
   7   0 -11    1.49    3.12
  -7   0  11   -3.83    4.85
   7   0 -10  237.94   22.39
  -7   0  10  338.41   32.33
   7   0  -9    1.85    3.86
  -7   0   9    5.64    6.56
   7   0  -8  491.03   31.52
  -7   0   8  493.17   37.97
   7   0  -7    3.33    4.04
  -7   0   7   -0.07    6.31
   7   0  -6 1039.43   45.81
  -7   0   6 1068.88   55.83
   7   0  -5    0.40    4.52
  -7   0   5    8.56    9.29
   7   0  -4   11.17    6.07
  -7   0   4   35.19    9.54
   7   0  -3   -1.44    2.73
  -7   0   3   -5.06    5.43
   7   0  -2 2852.09   83.93
   7   0  -2 2861.60   80.12
   7   0  -1    4.01    4.03
   7   0  -1    0.50    3.81
  -7   0   1   10.42    7.62
   7   0   0 3600.02   97.99
   7   0   0 3482.61   93.83
   7   0   1    3.90    5.44
   7   0   1   10.94    6.43
   7   0   2  190.81   19.59
   7   0   2  194.30   18.67
   7   0   3   -0.25    3.68
   7   0   3    4.61    3.90
   7   0   4 2037.40   73.82
   7   0   4 2021.91   68.71
   7   0   5    4.73    5.42
   7   0   5    4.76    4.91
   7   0   6 1478.48   63.73
   7   0   6 1510.15   61.66
   7   0   7   -3.65    3.64
   7   0   7   -3.17    3.99
   7   0   8   53.13   12.00
   7   0   8   64.36   13.16
   7   0   9    4.99    3.85
   7   0   9   -0.17    4.39
   7   0  10  367.03   34.41
   7   0  10  356.25   31.73
   7   0  11    0.20    4.58
   7   0  11   -2.74    6.73
   7   0  12  228.12   28.01
   7   0  12  263.78   29.12
   7   0  13    5.63    5.63
   7   0  14    8.61    7.21
   7  -1 -16  116.89   19.54
  -7   1  16  122.14   21.78
  -7   1  15   27.47   10.32
   7  -1 -15   12.87    8.08
  -7   1  14   83.77   17.43
   7  -1 -14   90.56   15.70
  -7   1  13   -2.79    6.10
   7  -1 -13    0.11    5.04
   7  -1 -12  221.71   23.75
  -7  -1  12  234.28   29.48
   7  -1 -11  217.92   23.01
  -7  -1  11  243.39   29.52
   7  -1 -10 1267.18   57.08
   7   1 -10 1254.32   52.79
   7  -1  -9   89.01   14.21
   7   1  -9   76.69   12.42
  -7  -1   9   74.91   16.83
   7  -1  -8  127.82   16.48
   7   1  -8  153.73   16.81
  -7  -1   8  141.51   21.69
   7  -1  -7  127.95   16.14
   7   1  -7  157.79   16.62
  -7  -1   7  169.21   23.50
   7  -1  -6 1306.32   54.01
   7   1  -6 1257.80   51.74
  -7  -1   6 1402.98   66.98
   7  -1  -5  560.86   33.26
   7   1  -5  565.90   32.50
  -7  -1   5  615.35   42.89
   7  -1  -4 2575.05   78.87
   7   1  -4 2526.72   78.28
  -7  -1   4 2544.22   91.69
   7  -1  -3   45.53    9.42
   7   1  -3   48.20   10.34
  -7  -1   3   46.20   13.42
   7   1  -2   52.79    9.56
   7  -1  -2   83.19   13.25
   7   1  -2   59.00   10.55
  -7  -1   2   93.66   16.25
   7  -1  -1  118.76   14.67
   7   1  -1  140.85   16.31
  -7  -1   1  122.26   19.17
   7   1  -1  127.49   14.52
   7  -1   0 2146.92   69.46
   7   1   0 1889.12   66.81
  -7  -1   0 1939.62   73.19
   7  -1   0 2003.24   64.78
   7   1   0 1904.93   64.03
   7  -1   1  248.69   22.11
   7   1   1  241.07   21.89
  -7  -1  -1  224.09   23.71
   7  -1   1  229.79   20.19
   7   1   1  237.60   20.63
   7  -1   2  550.33   34.84
   7   1   2  539.92   33.93
  -7  -1  -2  513.40   34.43
   7  -1   2  558.92   32.78
   7   1   2  557.74   32.48
   7  -1   3  150.87   18.39
   7   1   3  159.36   18.27
  -7  -1  -3  136.25   18.41
   7  -1   3  135.15   16.63
   7   1   3  148.79   17.02
   7  -1   4   89.52   13.85
   7   1   4   94.78   13.96
   7  -1   4   93.43   14.52
   7   1   4   91.68   15.20
  -7  -1  -4   60.02   11.21
   7  -1   5   15.64    6.90
   7   1   5    7.08    4.65
   7  -1   5   15.63    7.49
   7   1   5   11.08    5.30
   7  -1   6  144.94   18.58
   7   1   6  141.35   18.74
   7  -1   6  140.56   18.10
   7   1   6  148.65   18.14
   7  -1   7   78.88   13.75
   7   1   7   63.83   12.53
   7  -1   7   53.51   11.67
   7   1   7   62.12   14.15
   7  -1   8   27.76    8.66
   7   1   8   37.78   10.44
   7  -1   8   44.89   11.24
   7   1   8   32.00    9.77
   7  -1   9  193.31   23.50
   7   1   9  172.64   23.47
   7  -1   9  180.54   21.83
   7   1   9  187.80   22.29
   7   1  10  283.48   30.32
   7  -1  10  289.69   29.39
   7   1  10  254.99   26.93
   7  -1  11   33.73   11.25
   7   1  11   21.75    8.92
   7   1  11    9.86    4.10
   7  -1  12   12.65    7.50
   7   1  12   17.38    8.38
   7   1  12   23.20    8.28
   7  -1  13   -5.04    7.34
   7   1  13   13.37    6.68
   7   1  13   25.28   10.40
   7  -1  14   49.74   13.96
   7   1  14   73.59   17.41
   7   1  14   46.17   14.33
   7  -1  15   36.68   12.75
   7  -2 -16   71.56   16.44
  -7   2  15  177.48   27.66
   7  -2 -15  146.83   22.55
  -7   2  14   52.47   14.96
   7  -2 -14   54.01   13.16
  -7   2  13  111.11   20.00
   7  -2 -13  116.62   18.90
  -7  -2  13  130.09   23.79
  -7   2  12   46.12   13.33
   7  -2 -12   15.09    6.91
  -7  -2  12   26.22   11.18
   7  -2 -11   15.36    7.26
  -7  -2  11   15.24   10.11
   7  -2 -10   53.54   12.06
  -7  -2  10   62.49   16.26
   7  -2  -9  294.20   27.04
  -7  -2   9  327.05   33.70
   7  -2  -8  228.61   23.17
   7   2  -8  217.03   20.32
  -7  -2   8  239.45   27.94
   7  -2  -7  220.98   22.49
   7   2  -7  220.03   20.35
  -7  -2   7  252.65   27.59
   7  -2  -6  409.41   30.17
   7   2  -6  408.43   28.35
  -7  -2   6  443.56   37.09
   7  -2  -5   40.43    8.83
   7   2  -5   40.06    8.79
  -7  -2   5   16.76    6.84
   7  -2  -4    7.13    3.68
   7   2  -4   18.74    5.78
  -7  -2   4   30.00   10.62
   7   2  -3   86.21   11.38
   7  -2  -3  104.62   15.18
   7   2  -3   90.25   12.87
  -7  -2   3   66.41   13.75
   7  -2  -2  430.60   30.35
   7   2  -2  414.52   29.04
  -7  -2   2  478.42   36.79
   7   2  -2  431.05   27.09
   7  -2  -1  625.11   36.34
   7   2  -1  547.78   34.27
  -7  -2   1  633.93   42.02
   7   2  -1  626.95   32.91
   7  -2   0  792.00   41.13
   7   2   0  666.26   38.22
  -7  -2   0  770.10   47.09
   7   2   0  708.51   36.34
   7  -2   1  596.33   35.95
   7   2   1  555.99   35.15
  -7  -2  -1  625.91   41.08
   7   2   1  538.13   32.20
   7  -2   2  263.78   24.22
   7   2   2  236.55   22.95
  -7  -2  -2  262.72   26.21
   7  -2   2  258.87   23.15
   7   2   2  253.24   22.22
   7  -2   3   87.55   13.01
   7   2   3   72.21   12.23
   7  -2   3   72.10   12.58
   7   2   3   61.51   12.30
  -7  -2  -3   78.48   14.34
   7  -2   4  223.16   22.52
   7   2   4  196.55   22.26
  -7  -2  -4  210.58   22.60
   7  -2   4  254.39   23.26
   7   2   4  212.38   21.37
   7  -2   5  925.92   47.88
   7   2   5  918.03   50.00
  -7  -2  -5  797.70   44.64
   7  -2   5 1022.19   49.56
   7   2   5  958.46   47.88
   7  -2   6  359.04   29.80
   7   2   6  347.95   30.80
  -7  -2  -6  304.86   25.90
   7  -2   6  401.73   30.59
   7   2   6  364.78   29.69
   7   2   7  204.65   24.16
   7  -2   7  231.89   24.21
   7   2   7  210.46   22.34
   7  -2   8   66.62   13.45
   7   2   8   59.10   13.21
   7   2   8   69.10   14.39
   7   2   9  180.13   24.53
   7  -2   9  212.20   24.18
   7   2   9  188.55   23.23
   7  -2  10   92.11   16.74
   7   2  10   89.65   17.05
   7   2  10   64.03   14.73
   7   2  11  235.18   29.30
   7  -2  11  249.97   28.20
   7   2  11  266.14   29.56
   7  -2  12   71.39   16.55
   7   2  12   71.13   15.54
   7   2  12   72.31   16.71
   7   2  13   -7.69    7.28
   7   2  13   -4.40    7.04
  -7  -3  14   21.37   12.16
  -7   3  13    3.61    5.63
   7  -3 -13    6.43    6.98
  -7  -3  13    5.25   11.45
  -7   3  12   23.13    9.45
   7  -3 -12    0.59    5.73
  -7  -3  12   31.75   11.08
  -7   3  11  530.58   43.18
  -7  -3  11  492.52   44.24
   7  -3 -11  488.60   39.31
   7  -3 -10  142.10   20.28
  -7  -3  10  149.29   24.51
   7  -3  -9  341.01   31.46
  -7  -3   9  338.16   34.97
   7  -3  -8   -3.66    4.78
  -7  -3   8   -0.15    6.74
   7  -3  -7   81.70   14.83
  -7  -3   7   71.56   15.99
   7  -3  -6  145.67   19.46
  -7  -3   6  145.68   22.09
   7  -3  -5  853.94   47.74
   7   3  -5  852.08   42.53
  -7  -3   5  843.33   53.30
   7  -3  -4  164.78   20.47
   7   3  -4  111.94   15.57
  -7  -3   4  118.82   20.46
  -7   3   3  301.31   22.55
   7  -3  -3  344.90   28.77
   7   3  -3  304.32   25.27
  -7  -3   3  323.94   31.24
  -7   3   2   68.29   11.01
   7  -3  -2   83.68   14.47
   7   3  -2   85.68   13.79
  -7  -3   2  105.50   17.35
   7  -3  -1   72.00   13.14
  -7   3   1   81.78   12.20
   7   3  -1   81.03   12.88
  -7  -3   1   89.02   16.39
   7  -3   0  100.26   15.63
   7   3   0   92.74   14.86
  -7  -3   0  110.32   18.48
   7  -3   1  407.34   31.23
   7   3   1  406.48   31.53
  -7  -3  -1  387.10   33.96
   7   3   1  396.55   27.76
   7   3   2   24.61    8.34
   7  -3   2   11.61    5.58
   7   3   2    2.50    5.23
  -7  -3  -2   21.57    9.54
   7  -3   3  259.92   24.91
   7   3   3  258.02   26.52
  -7  -3  -3  258.00   27.68
   7   3   3  237.74   22.90
   7   3   4    5.72    4.73
   7   3   4    5.54    4.29
  -7  -3  -4    3.35    4.55
   7  -3   5   10.92    6.89
   7   3   5    0.57    5.07
   7   3   5   -6.37    5.40
   7  -3   6   -6.45    6.19
   7   3   6    8.70    6.61
   7   3   6   -4.01    4.96
   7  -3   7   99.74   16.02
   7   3   7   92.03   16.64
   7   3   7   75.87   16.32
   7   3   8   35.76   10.98
   7   3   8   36.59   12.43
   7   3   9  180.39   25.80
   7   3   9  218.55   26.73
   7   3  10   92.85   17.60
   7   3  10   90.14   18.93
   7   3  11   44.50   13.36
   7   3  11   63.47   17.40
  -7   4  11   87.90   18.71
  -7  -4  11   75.61   19.11
  -7   4  10    7.22    6.51
   7  -4 -10   12.68    7.08
  -7  -4  10   26.15   14.05
  -7   4   9  226.12   27.93
  -7  -4   9  200.97   28.46
   7  -4  -9  189.73   26.01
  -7  -4   8   27.15   12.47
   7  -4  -8   26.60    9.17
   7  -4  -7  136.45   21.08
  -7  -4   7   98.34   19.99
   7  -4  -6   15.98    8.22
  -7  -4   6   -6.85    9.74
   7  -4  -5   44.66   12.46
  -7   4   5   58.40   11.11
  -7  -4   5   60.14   14.51
   7  -4  -4   24.21   10.25
  -7  -4   4   35.87   11.29
  -7   4   4   25.54    7.68
  -7   4   3   67.59   12.52
   7  -4  -3   82.44   15.37
  -7  -4   3   87.36   17.21
   7  -4  -2   32.24   11.51
   7   4  -2   12.74    6.90
  -7   4   2   38.97   11.85
  -7  -4   2   19.82    8.74
   7  -4  -1  837.07   50.14
   7   4  -1  832.68   46.99
  -7  -4   1  809.79   52.49
  -7   4   1  841.90   44.73
  -7   4   0   30.04   10.67
   7  -4   0   37.97   11.89
   7   4   0   57.97   13.48
  -7  -4   0   65.38   16.31
   7   4   1  522.08   39.17
  -7  -4  -1  566.74   43.48
  -7   4  -1  524.47   34.66
   7   4   2   20.59    9.11
  -7  -4  -2   30.20   11.60
   7   4   3  195.68   24.57
  -7  -4  -3  170.33   23.60
   7   4   4   31.20   10.12
   7   4   5  993.03   59.74
   7   4   6   21.14    8.63
   7   4   7  133.30   21.77
   7   4   8   39.89   12.30
   7   4   8   46.73   14.19
   7   4   9  206.50   27.40
   7   4  10   15.68    6.86
  -7   5   8    0.75    4.91
  -7   5   7    8.67    7.34
  -7   5   7   15.22    7.60
   7  -5  -7    8.75    7.48
   7  -5  -6  162.09   26.18
  -7   5   6  163.27   21.36
  -7  -5   5  203.26   29.09
  -7   5   5  242.34   25.37
   7  -5  -5  249.04   31.46
   7  -5  -4  166.70   25.99
  -7  -5   4  141.07   24.35
  -7   5   4  149.09   19.97
   7  -5  -3  164.18   25.68
  -7  -5   3  156.68   25.36
  -7   5   3  143.68   19.86
  -7   5   2    9.99    6.19
  -7  -5   2    7.23    8.76
  -7   5   1   31.61    9.65
  -7  -5   1    5.56    7.11
  -7   5   0  196.10   23.07
  -7  -5   0  155.06   24.56
  -7   5  -1  215.97   24.22
  -7  -5  -1  244.51   29.90
  -7   5  -2   80.11   15.15
   7   5   2   51.04   14.23
  -7  -5  -2   73.57   17.27
  -7   5  -3  143.11   20.57
   7   5   3  153.16   23.72
   7   5   4    1.24    5.67
   7   5   5   -6.75    6.25
  -8   0  16  362.94   36.55
  -8   0  15    1.40    5.26
  -8   0  14  105.48   19.72
   8   0 -13   -2.38    4.20
   8   0 -12  366.17   30.83
   8   0 -11    2.39    4.53
  -8   0  11    0.30    8.84
   8   0 -10  416.56   31.52
  -8   0  10  456.52   40.17
   8   0  -9    3.66    4.35
  -8   0   9    3.52    5.58
   8   0  -8   15.69    6.68
  -8   0   8   22.87   10.59
   8   0  -7    1.58    4.15
  -8   0   7   11.09    7.31
   8   0  -6  308.37   25.38
  -8   0   6  294.47   29.84
   8   0  -5    5.94    6.19
  -8   0   5   -8.67    9.08
   8   0  -4   69.27   11.89
  -8   0   4   38.10   11.36
   8   0  -3   -5.43    4.63
  -8   0   3    8.56    7.58
   8   0  -2    6.15    6.06
   8   0  -1    0.43    4.32
   8   0  -1    8.04    6.78
   8   0   0  221.96   22.23
   8   0   0  240.78   21.56
   8   0   1    2.15    4.48
   8   0   1    4.27    4.85
   8   0   2    5.40    4.79
   8   0   2   21.54    7.84
   8   0   3    4.64    4.06
   8   0   3   -1.34    5.44
   8   0   4  701.33   43.56
   8   0   4  651.91   39.64
   8   0   5    4.62    6.79
   8   0   5   11.48    7.33
   8   0   6  321.13   30.50
   8   0   6  292.82   27.49
   8   0   7    6.87    6.06
   8   0   7    0.71    5.84
   8   0   8  687.74   47.40
   8   0   8  673.03   44.59
   8   0   9   -8.10    5.37
   8   0   9   -1.46    6.07
   8   0  10  732.81   51.18
   8   0  10  747.46   49.87
   8   0  11    1.69    7.21
   8   0  11    6.27    8.03
   8   0  12  -12.56    7.01
   8  -1 -16   -6.99    7.58
  -8   1  15   20.85   11.08
   8  -1 -15    3.05    4.62
  -8   1  14   75.75   17.29
   8  -1 -14   80.29   15.87
   8  -1 -13    0.24    3.39
   8  -1 -12  157.97   21.14
  -8  -1  12  218.11   29.72
   8  -1 -11   32.56   10.04
  -8  -1  11   42.59   15.87
   8  -1 -10    9.67    5.81
   8   1 -10   14.10    6.20
  -8  -1  10   15.07    9.22
   8  -1  -9    6.06    5.00
   8   1  -9   17.02    7.73
  -8  -1   9   23.20    9.88
   8  -1  -8  500.69   35.11
   8   1  -8  487.04   32.41
  -8  -1   8  483.55   42.74
   8  -1  -7   88.32   14.02
   8   1  -7   86.51   13.31
  -8  -1   7  105.37   20.53
   8  -1  -6  748.70   42.46
   8   1  -6  820.38   42.21
  -8  -1   6  742.89   52.43
   8  -1  -5  103.19   15.15
   8   1  -5   90.57   13.53
  -8  -1   5   96.41   18.32
   8  -1  -4    0.97    3.86
   8   1  -4    3.24    4.62
  -8  -1   4   -4.75    7.17
   8  -1  -3   36.97    9.99
   8   1  -3   38.74    9.94
  -8  -1   3   65.58   15.18
   8  -1  -2  953.46   46.61
   8   1  -2  924.42   46.50
  -8  -1   2  896.70   52.46
   8   1  -2  859.71   41.72
   8  -1  -1  303.57   25.92
   8   1  -1  316.16   26.76
  -8  -1   1  305.39   31.00
   8   1  -1  298.64   24.36
   8  -1   0 1594.08   62.74
   8   1   0 1431.27   60.61
  -8  -1   0 1394.81   64.50
   8  -1   0 1544.99   59.82
   8   1   0 1448.50   58.03
   8  -1   1   -4.49    5.15
   8   1   1   14.40    6.57
   8  -1   1   10.39    5.60
   8   1   1    9.26    4.76
  -8  -1  -1   10.10    7.68
   8  -1   2   20.81    7.28
   8   1   2   18.53    6.43
   8  -1   2   27.08    8.90
   8   1   2   38.62   10.02
  -8  -1  -2   48.38   12.52
   8  -1   3  114.10   15.95
   8   1   3  123.21   16.77
   8  -1   3  127.69   18.21
   8   1   3   87.59   14.54
  -8  -1  -3  107.23   17.17
   8  -1   4  421.85   33.70
   8   1   4  445.57   34.58
   8  -1   4  366.08   29.95
   8   1   4  367.47   29.43
   8  -1   5   56.86   11.42
   8   1   5   54.38   11.53
   8  -1   5   56.20   12.48
   8   1   5   37.57   11.60
   8  -1   6  647.27   43.72
   8   1   6  663.79   44.50
   8  -1   6  638.06   41.70
   8   1   6  687.93   43.01
   8  -1   7    5.42    5.75
   8   1   7   14.08    7.41
   8  -1   7   -2.05    5.71
   8   1   7    3.80    5.46
   8  -1   8   59.45   13.04
   8   1   8   56.34   13.57
   8  -1   8   52.78   13.42
   8   1   8   56.13   14.23
   8  -1   9    2.75    6.12
   8   1   9    1.20    4.03
   8  -1   9    1.36    3.76
   8   1   9   -1.69    6.27
   8  -1  10   22.47    9.09
   8   1  10    2.78    4.41
   8   1  10   31.03   10.44
   8  -1  11    4.16    7.70
   8   1  11    2.39    4.88
   8   1  11   -4.72    6.38
   8  -1  12   32.72   10.64
   8   1  12   32.73   11.95
   8   1  12   40.88   12.66
   8  -1  13   20.07   11.28
   8   1  13   28.87   12.00
   8  -2 -14   40.96   12.73
  -8   2  13   -3.20    6.51
   8  -2 -13  -13.27    7.32
  -8  -2  13  -17.44   12.14
   8  -2 -12  114.01   18.57
  -8  -2  12  138.22   25.34
   8  -2 -11  204.75   24.32
  -8  -2  11  260.66   33.43
   8  -2 -10  307.79   29.82
  -8  -2  10  290.98   34.81
   8  -2  -9  182.59   22.35
  -8  -2   9  194.96   28.12
   8  -2  -8   25.90    8.89
   8   2  -8   16.95    6.60
  -8  -2   8   24.69   11.28
   8  -2  -7   -0.80    3.61
   8   2  -7    1.81    3.51
  -8  -2   7  -10.07    9.86
   8   2  -6  117.51   15.97
   8  -2  -6  126.48   17.71
  -8  -2   6  111.98   19.19
   8  -2  -5  292.69   26.68
   8   2  -5  304.76   26.45
  -8  -2   5  320.73   33.79
   8  -2  -4   18.03    5.99
   8   2  -4   16.64    6.75
  -8  -2   4    4.66    8.64
   8  -2  -3  287.93   26.38
   8   2  -3  253.77   23.97
  -8  -2   3  236.62   28.46
   8   2  -3  204.14   19.81
   8   2  -2   16.09    6.15
   8  -2  -2   12.65    5.81
   8   2  -2   22.82    8.59
  -8  -2   2   14.22   11.17
   8   2  -1    0.37    3.51
   8  -2  -1    5.57    5.14
   8   2  -1    3.67    3.76
  -8  -2   1    4.08    6.59
   8   2   0   61.74   11.41
   8  -2   0   70.70   12.92
   8   2   0   74.41   13.62
  -8  -2   0   51.08   14.78
   8   2   1  137.20   18.96
   8  -2   1  116.56   17.09
  -8  -2  -1  134.55   20.59
   8   2   1  124.84   16.83
   8   2   2    3.18    3.36
   8  -2   2   10.32    6.70
   8   2   2   -2.53    5.47
   8  -2   2   -0.69    3.90
  -8  -2  -2    5.06    8.69
   8  -2   3  182.84   21.66
   8   2   3  164.56   21.04
   8  -2   3  171.60   19.89
  -8  -2  -3  151.06   20.96
   8   2   3  184.83   21.04
   8  -2   4  235.65   25.65
   8   2   4  265.16   27.29
  -8  -2  -4  263.20   27.04
   8  -2   4  284.61   26.24
   8   2   4  273.58   26.06
   8  -2   5  100.79   16.48
   8   2   5  110.84   16.90
   8  -2   5  124.39   18.78
   8   2   5  117.05   19.20
  -8  -2  -5  114.50   17.31
   8  -2   6  206.26   24.03
   8   2   6  215.02   25.92
   8  -2   6  225.99   24.82
   8   2   6  209.45   24.08
   8  -2   7   15.74    7.32
   8   2   7    6.55    5.14
   8   2   7   11.80    8.13
   8   2   8  195.63   25.98
   8  -2   8  214.42   25.96
   8   2   8  185.32   23.60
   8   2   9  202.10   27.10
   8  -2   9  210.69   26.90
   8   2   9  208.20   25.30
   8   2  10  270.64   32.13
   8  -2  10  347.43   34.35
   8   2  10  281.58   30.90
   8  -2  11  166.53   25.10
   8   2  11  124.29   20.61
   8   2  11  109.00   21.25
   8  -2  12    5.49    6.75
  -8  -3  13    7.41    8.13
  -8  -3  12   -1.24    6.86
   8  -3 -11   83.18   16.72
  -8  -3  11  113.38   22.68
   8  -3 -10    5.25    4.33
  -8  -3  10    1.04    6.48
   8  -3  -9    6.77    5.05
  -8  -3   9   10.95    8.97
   8  -3  -8   51.38   12.91
  -8  -3   8   59.89   17.02
   8  -3  -7  413.61   34.83
  -8  -3   7  429.01   41.39
   8  -3  -6   48.49   12.06
  -8  -3   6   52.62   16.12
   8  -3  -5  629.05   42.49
   8   3  -5  614.61   38.42
  -8  -3   5  611.45   48.32
   8  -3  -4   38.29   10.23
   8   3  -4   50.10   11.45
  -8  -3   4   45.63   14.41
   8  -3  -3   19.41    8.37
   8   3  -3   25.73    8.60
  -8  -3   3   13.93    9.10
   8  -3  -2  162.92   21.20
   8   3  -2  127.46   17.91
  -8  -3   2  118.23   21.36
   8  -3  -1 1162.34   58.17
   8   3  -1 1096.52   54.86
  -8  -3   1 1237.78   67.50
   8   3   0  108.72   18.87
  -8  -3   0  147.58   23.75
   8  -3   1  404.32   33.47
   8   3   1  370.16   31.95
  -8  -3  -1  395.10   37.09
   8   3   1  380.70   29.84
   8   3   2    6.33    5.96
   8  -3   2    1.20    4.16
   8   3   2   28.69   11.53
  -8  -3  -2   18.79    7.73
   8   3   3  115.27   16.84
   8  -3   3  115.25   17.96
   8   3   3   96.69   17.09
  -8  -3  -3  102.46   18.25
   8   3   4   15.57    8.26
   8   3   4    5.27    4.90
  -8  -3  -4    5.53    8.33
   8   3   5  240.52   28.05
   8  -3   5  278.75   27.03
   8   3   5  294.83   29.22
   8  -3   6   15.05    7.39
   8   3   6   32.94   10.39
   8   3   6   23.00    7.29
   8  -3   7   48.81   12.25
   8   3   7   54.67   13.30
   8   3   7   56.49   14.24
   8   3   8    7.90    3.53
   8   3   8    9.16    6.86
   8   3   9    5.66    7.39
   8   3   9   -7.65    6.74
   8   3  10    5.60    4.36
   8  -4  -8   22.27    8.27
  -8  -4   8    9.61   10.63
   8  -4  -7    8.12    7.57
  -8  -4   7   13.63    9.67
   8  -4  -6    1.28    7.85
  -8  -4   6   12.05    9.48
   8  -4  -5   80.98   16.90
  -8  -4   5   73.04   18.07
   8  -4  -4   -6.32    6.85
  -8  -4   4    3.78    8.18
   8  -4  -3   97.36   18.17
  -8  -4   3   91.96   19.59
   8  -4  -2    9.33    4.16
  -8  -4   2   14.53    8.47
   8  -4  -1   22.90    9.92
   8   4  -1    9.19    7.99
  -8  -4   1   32.06   12.91
   8  -4   0    6.95    6.86
   8   4   0    6.22    5.79
   8   4   1   68.46   15.20
  -8  -4  -1   52.94   14.48
   8   4   2   10.82    7.07
  -8  -4  -2    8.52    8.26
   8   4   3  194.94   25.79
  -8  -4  -3  156.05   24.03
   8   4   4   52.74   14.54
   8   4   5   46.31   13.09
   8   4   6    0.70    4.51
   8  -5  -4   21.67   11.03
   8  -5  -3   -2.63    6.80
  -8  -5   0   57.67   16.02
  -8  -5  -1  133.00   24.67
   8   5   2    7.21    8.66
  -8  -5  -2   11.97    9.66
  -9   0  15    0.84    6.97
   9   0 -13   -2.53    4.26
   9   0 -12  433.76   35.24
   9   0 -11    0.65    4.65
  -9   0  11   11.17    8.17
   9   0 -10   67.45   13.61
  -9   0  10   52.89   14.34
   9   0  -9   -0.93    3.36
  -9   0   9   -7.82    8.27
   9   0  -8  217.89   23.47
  -9   0   8  203.49   28.51
   9   0  -7    8.49    5.77
  -9   0   7   -3.65    8.17
   9   0  -6  295.74   26.84
  -9   0   6  344.94   35.61
   9   0  -5    5.75    5.52
  -9   0   5   12.76    7.68
   9   0  -4  144.10   18.69
   9   0  -3    1.86    4.10
   9   0  -2   -1.64    5.08
   9   0  -1   -0.15    4.52
   9   0  -1   -4.37    4.05
   9   0   0   89.40   14.43
   9   0   0   92.75   16.06
   9   0   1    4.50    5.43
   9   0   1   14.14    8.47
   9   0   2  758.46   47.15
   9   0   2  806.56   45.43
   9   0   3    4.34    4.46
   9   0   3    6.64    5.19
   9   0   4  301.19   30.32
   9   0   4  324.25   29.48
   9   0   5    6.69    7.43
   9   0   5   -5.79    6.72
   9   0   6  132.38   19.38
   9   0   6  128.43   20.87
   9   0   7    1.52    6.89
   9   0   7   -5.63    5.13
   9   0   8  817.44   55.92
   9   0   8  922.48   55.63
   9   0   9    8.87    6.81
   9   0   9    1.43    6.60
   9   0  10  331.32   37.15
   9   0  10  348.95   35.92
   9   0  11   -8.37   10.06
   9  -1 -14   16.48    8.02
   9  -1 -13   -9.49    5.26
   9  -1 -12   31.31   10.44
  -9  -1  12   28.31   14.24
   9  -1 -11   21.65    8.17
  -9  -1  11  -14.26   11.09
   9  -1 -10  131.78   19.56
   9   1 -10  117.60   17.47
  -9  -1  10  161.44   27.21
   9  -1  -9   18.59    7.45
   9   1  -9   13.73    6.65
  -9  -1   9    8.09    7.95
   9  -1  -8  156.83   21.00
   9   1  -8  187.30   21.24
  -9  -1   8  190.97   29.09
   9  -1  -7  130.80   19.06
   9   1  -7  127.24   18.24
  -9  -1   7  181.06   26.57
   9  -1  -6  278.02   27.30
   9   1  -6  290.86   26.71
  -9  -1   6  337.01   37.12
   9  -1  -5   59.30   13.00
   9   1  -5   39.85   10.20
  -9  -1   5   50.12   15.31
   9  -1  -4   40.79   10.55
   9   1  -4   39.03   10.02
  -9  -1   4   43.82   14.03
   9  -1  -3  125.10   17.93
   9   1  -3  112.61   16.94
  -9  -1   3  158.34   23.65
   9  -1  -2 1614.77   66.52
   9   1  -2 1441.81   63.79
  -9  -1   2 1442.33   72.43
   9   1  -2 1407.56   58.83
   9  -1  -1  305.82   28.09
   9   1  -1  268.14   26.54
  -9  -1   1  315.60   32.34
   9   1  -1  286.25   25.35
   9  -1   0 1158.23   56.78
   9   1   0 1047.88   54.98
  -9  -1   0 1045.22   58.93
   9   1   0 1020.12   50.98
   9  -1   1   16.37    7.72
   9   1   1   23.88    8.22
   9  -1   1   23.96    8.05
   9   1   1   -0.01    5.64
  -9  -1  -1   25.59   11.03
   9  -1   2  125.45   17.74
   9   1   2  119.83   17.37
   9  -1   2   94.34   16.43
   9   1   2  118.03   19.19
  -9  -1  -2  124.48   20.57
   9  -1   3   84.96   15.12
   9   1   3   82.16   14.43
   9  -1   3   78.88   15.34
   9   1   3   86.01   16.56
   9  -1   4 1794.15   77.68
   9   1   4 1672.27   75.64
   9  -1   4 1618.04   71.31
   9   1   4 1668.05   71.47
   9  -1   5   85.19   15.64
   9   1   5   74.88   14.82
   9  -1   5   68.16   14.30
   9   1   5   84.86   15.99
   9   1   6  157.22   21.12
   9  -1   6  167.08   22.98
   9   1   6  165.66   23.70
   9  -1   6  173.49   22.49
   9  -1   7   11.39    9.37
   9   1   7    7.45    5.52
   9  -1   7   13.84    9.01
   9   1   7    3.70    5.81
   9   1   8  179.76   26.14
   9  -1   8  172.27   23.98
   9  -1   8  175.42   25.40
   9   1   8  172.65   23.64
   9  -1   9   11.59    7.81
   9   1   9   -0.55    6.26
   9  -1   9    6.43    4.90
   9   1   9   -2.83    5.80
   9   1  10  256.40   32.01
   9  -1  10  243.68   30.62
   9   1  10  264.85   31.21
   9  -1  11   15.78   11.47
   9   1  11   14.71    8.72
  -9  -2  13   55.51   15.76
   9  -2 -12   89.29   17.28
  -9  -2  12  125.66   25.56
   9  -2 -11  203.17   25.79
  -9  -2  11  279.84   37.78
   9  -2 -10   13.09    7.67
  -9  -2  10    4.78   10.75
   9  -2  -9    3.43    6.02
  -9  -2   9   -9.05    7.33
   9  -2  -8   85.87   16.59
  -9  -2   8  100.09   23.03
   9  -2  -7  348.14   31.53
   9   2  -7  420.23   31.81
  -9  -2   7  403.45   42.21
   9  -2  -6  144.41   20.14
   9   2  -6  127.52   17.89
  -9  -2   6  153.87   25.90
   9  -2  -5  473.16   36.27
   9   2  -5  431.62   33.72
  -9  -2   5  511.34   45.70
   9  -2  -4   50.71   12.21
   9   2  -4   34.00    9.18
  -9  -2   4   37.35   13.50
   9  -2  -3   25.73    8.70
   9   2  -3   27.97    8.84
  -9  -2   3   26.64   11.79
   9   2  -2   56.49   10.87
   9  -2  -2   65.12   14.24
   9   2  -2   52.60   12.31
  -9  -2   2   60.34   15.93
   9  -2  -1  357.24   31.44
   9   2  -1  362.38   31.43
  -9  -2   1  379.54   37.92
   9   2  -1  358.83   28.77
   9  -2   0  160.55   20.85
   9   2   0  163.13   21.05
  -9  -2   0  155.31   23.69
   9   2   0  175.46   20.58
   9  -2   1  157.79   21.04
   9   2   1  155.81   21.55
  -9  -2  -1  158.76   23.50
   9   2   1  149.26   19.32
   9  -2   2  244.44   26.31
   9   2   2  219.77   25.18
  -9  -2  -2  213.30   27.71
   9   2   2  239.32   24.68
   9  -2   3   29.85    9.42
   9   2   3   14.46    7.04
   9  -2   3   30.76   10.62
   9   2   3   21.16    8.91
  -9  -2  -3   39.96   13.02
   9  -2   4   19.48    8.21
   9   2   4    9.95    7.49
   9  -2   4    7.25    5.92
   9   2   4   30.91   11.03
  -9  -2  -4   13.91    6.94
   9  -2   5    7.16    5.42
   9   2   5    5.86    6.04
   9  -2   5    1.31    3.72
   9   2   5   -0.02    5.30
  -9  -2  -5   -0.70    5.77
   9  -2   6   90.10   17.19
   9   2   6   86.08   16.41
   9  -2   6  103.31   18.51
   9   2   6   73.99   16.06
   9  -2   7   94.67   18.36
   9   2   7   90.12   17.41
   9   2   7   92.35   18.67
   9   2   8  268.91   32.04
   9  -2   8  366.38   35.32
   9   2   8  345.64   34.81
   9   2   9  192.08   27.92
   9  -2   9  246.48   29.59
   9   2   9  216.86   28.06
   9  -2  10  143.70   24.25
  -9  -3  10    5.92    7.48
   9  -3  -9   56.66   13.72
  -9  -3   9   40.17   13.04
   9  -3  -8   34.12   11.08
  -9  -3   8   45.74   13.90
   9  -3  -7  182.24   24.29
  -9  -3   7  201.04   29.50
   9  -3  -6  103.42   18.75
  -9  -3   6  106.73   21.33
   9  -3  -5   19.56    9.04
   9   3  -5   14.47    7.40
  -9  -3   5   21.85    9.35
   9   3  -4   -0.41    4.09
  -9  -3   4   -5.18    6.49
   9  -3  -3  348.83   32.52
   9   3  -3  306.79   28.83
  -9  -3   3  372.32   39.72
   9  -3  -2  243.58   27.51
   9   3  -2  227.87   25.33
  -9  -3   2  229.32   31.80
   9  -3  -1  633.32   44.79
   9   3  -1  622.17   43.22
  -9  -3   1  656.81   52.39
   9   3   0  140.27   21.14
   9  -3   0   93.43   17.05
   9  -3   1    7.47    4.83
   9   3   1   24.08    9.33
  -9  -3  -1    9.31    9.31
   9   3   2   -4.35    4.14
   9  -3   2   -6.37    5.44
   9   3   2   -3.51    6.56
  -9  -3  -2    7.69    5.90
   9  -3   3  437.07   37.57
   9   3   3  394.02   36.38
  -9  -3  -3  426.37   40.69
   9   3   3  409.36   34.51
   9   3   4   66.05   14.64
   9   3   4   50.11   13.85
  -9  -3  -4   74.72   17.40
   9   3   5  401.13   38.58
   9   3   5  452.94   38.52
   9  -3   6    1.06    6.05
   9   3   6   15.35    7.22
   9   3   6   -6.24    6.65
   9  -3   7   12.15    6.94
   9   3   7    0.88    4.40
   9   3   8    6.48    4.95
   9  -4  -5  213.38   28.16
   9  -4  -4    0.86    6.11
  -9  -4   4    2.14    8.54
   9  -4  -3    8.81    4.81
  -9  -4   3  -13.52   12.49
   9  -4  -2    2.51    5.12
  -9  -4   2  -10.61   11.09
   9  -4  -1   92.27   18.55
   9   4  -1  107.33   18.84
  -9  -4   1  129.82   24.68
   9  -4   0   21.44   10.25
   9   4   0    9.47    5.31
  -9  -4   0    8.00    6.81
   9   4   1   70.59   15.13
  -9  -4  -1   86.85   19.68
   9   4   2   -1.00    4.42
  -9  -4  -2   -2.37   11.81
   9   4   3   61.51   14.69
  10   0 -13    4.98    6.68
  10   0 -12  150.20   21.64
  10   0 -11   -0.67    3.58
  10   0 -10    2.40    4.29
  10   0  -9    9.53    6.80
  10   0  -8  813.82   49.14
  10   0  -7   12.54    7.38
  10   0  -6  468.97   36.14
  10   0  -5   -1.37    3.57
  10   0  -4  115.04   17.71
  10   0  -3    6.85    6.24
  10   0  -2  884.92   50.99
  10   0  -1    1.65    4.23
  10   0   0  450.68   37.25
  10   0   0  453.31   34.99
  10   0   1    0.03    5.20
  10   0   1   -0.33    4.90
  10   0   2    6.50    6.28
  10   0   2   10.70    6.58
  10   0   3   -1.32    3.75
  10   0   3   13.35    8.77
  10   0   4  111.58   18.52
  10   0   4  118.94   20.38
  10   0   5    3.08    7.19
  10   0   5    2.96    7.06
  10   0   6  284.13   33.32
  10   0   6  297.32   31.50
  10   0   7    1.89    4.60
  10   0   7  -13.08    9.29
  10   0   8   44.72   12.90
  10   0   8   70.15   17.36
  10   0   9   -0.74    4.85
  10   0  10    5.14    7.21
 -10  -1  12   91.78   23.95
  10  -1 -11    6.29    6.83
 -10  -1  11   28.38   14.04
  10  -1 -10   94.81   17.05
  10   1 -10   86.64   15.68
 -10  -1  10  134.95   26.58
  10  -1  -9    0.79    4.16
  10   1  -9   -4.02    4.88
 -10  -1   9    5.63    7.06
  10  -1  -8   30.16    8.93
  10   1  -8   40.33   11.02
 -10  -1   8   37.79   15.88
  10  -1  -7    3.41    4.41
  10   1  -7   -5.43    3.82
 -10  -1   7   -0.39    7.34
  10  -1  -6   -1.55    3.50
  10   1  -6   11.01    6.08
 -10  -1   6   13.84    8.66
  10  -1  -5    1.72    3.54
  10   1  -5   15.08    6.50
  10  -1  -4   77.49   15.53
  10   1  -4   72.02   14.23
 -10  -1   4  101.77   19.34
  10  -1  -3  109.40   17.58
  10   1  -3  136.98   19.63
 -10  -1   3  118.16   22.91
  10  -1  -2  296.69   29.69
  10   1  -2  234.75   26.27
 -10  -1   2  286.09   32.96
  10   1  -1   14.79    6.38
  10  -1  -1   35.72   11.05
  10   1  -1   39.83   12.21
 -10  -1   1   26.31    9.26
  10   1   0    7.68    5.36
  10  -1   0   14.45    8.59
  10   1   0    3.54    4.99
 -10  -1   0   -3.10    5.74
  10   1   1   97.66   16.41
  10  -1   1  109.80   18.67
  10   1   1   95.67   17.50
  10  -1   1  111.04   16.91
  10  -1   2  487.01   40.02
  10   1   2  479.69   39.85
  10  -1   2  527.45   39.15
  10   1   2  462.04   36.43
  10  -1   3  188.74   25.05
  10   1   3  191.80   25.53
  10   1   3  157.40   21.81
  10  -1   3  223.08   25.73
  10  -1   4  270.75   30.85
  10   1   4  302.41   32.35
  10  -1   4  318.96   31.85
  10   1   4  244.83   27.75
  10  -1   5    5.83    6.14
  10   1   5    8.27    5.80
  10  -1   5   19.21   10.25
  10   1   5   10.08    6.98
  10  -1   6  149.56   22.75
  10   1   6  120.58   20.04
  10  -1   6  133.29   22.58
  10   1   6  140.10   22.99
  10  -1   7   73.58   17.46
  10   1   7   91.47   17.86
  10  -1   7   82.95   19.35
  10   1   7   73.13   16.59
  10  -1   8  639.15   51.91
  10   1   8  653.34   52.78
  10  -1   8  737.82   53.48
 -10  -2  10   11.19   11.34
  10  -2  -9   42.20   12.62
 -10  -2   9    8.33   10.99
  10  -2  -8  133.93   20.62
 -10  -2   8  135.07   26.91
  10  -2  -7  358.29   33.77
  10   2  -7  365.20   32.51
  10   2  -6  140.26   19.58
  10  -2  -6  145.17   21.43
 -10  -2   6  158.57   28.87
  10  -2  -5   95.19   17.84
  10   2  -5   99.60   16.91
 -10  -2   5  100.18   21.37
  10  -2  -4    4.25    4.32
  10   2  -4   15.72    7.72
 -10  -2   4   -2.85    8.89
  10  -2  -3  292.46   30.25
  10   2  -3  271.56   28.31
 -10  -2   3  274.96   34.64
  10  -2  -2  224.41   26.41
  10   2  -2  193.43   24.40
 -10  -2   2  221.25   31.50
  10   2  -2  216.87   23.24
  10  -2  -1  518.91   41.03
  10   2  -1  507.74   40.26
 -10  -2   1  520.59   46.82
  10   2  -1  538.02   37.60
  10  -2   0  144.27   21.53
  10   2   0  137.23   21.34
 -10  -2   0  117.14   21.86
  10   2   0  152.96   20.65
  10   2   1    3.97    5.13
  10  -2   1    8.65    6.53
  10   2   1  -16.37    7.89
 -10  -2  -1    7.58    9.56
  10   2   2   24.71    9.83
  10  -2   2    4.06    4.59
  10   2   2   15.70    8.20
 -10  -2  -2   21.70   11.06
  10  -2   3  193.15   26.02
  10   2   3  184.45   25.18
  10  -2   3  173.58   22.74
 -10  -2  -3  177.06   25.64
  10   2   3  182.77   23.46
  10  -2   4   49.96   13.23
  10   2   4   40.79   12.08
  10  -2   4   27.84   10.19
 -10  -2  -4   32.45   11.88
  10   2   4   43.96   13.11
  10  -2   5   74.31   16.69
  10   2   5   89.20   17.92
  10  -2   5   63.09   15.01
  10   2   5   67.53   16.69
  10  -2   6   52.42   13.79
  10   2   6   32.17   10.35
  10   2   6   47.95   11.92
  10  -2   7   -0.55    6.36
  10   2   7    1.69    5.01
  10  -3  -6    1.32    5.26
  10  -3  -5   10.13    7.50
 -10  -3   5   20.97   12.64
  10  -3  -4    5.83    5.43
  10   3  -4   14.15    8.12
 -10  -3   4    4.29   16.52
  10  -3  -3  125.29   20.36
  10   3  -3  140.30   20.95
 -10  -3   3   93.21   21.33
  10  -3  -2   39.34   12.12
  10   3  -2   41.71   11.95
 -10  -3   2   10.99    8.59
  10  -3  -1   69.63   15.84
  10   3  -1   57.84   13.28
 -10  -3   1   96.13   22.30
  10  -3   0    5.24    6.20
  10   3   0    9.34    6.12
 -10  -3   0   16.34   11.01
  10  -3   1  103.56   19.64
  10   3   1  102.31   19.21
 -10  -3  -1  117.05   23.41
  10  -3   2   47.12   13.92
 -10  -3  -2   61.77   17.40
  10   3   3  352.49   36.42
 -10  -3  -3  298.11   34.88
  10   3   3  309.48   32.20
  10   3   4    4.55    6.01
  10   3   5   21.38    9.20
  10   4  -1  351.94   36.30
  11   0  -9    9.17    8.09
  11   0  -8  281.06   30.04
  11   0  -7    3.65    4.01
  11   0  -6   14.17    6.79
  11   0  -5   -8.02    5.95
  11   0  -4  772.56   50.78
  11   0  -3   14.85    7.92
  11   0  -2  589.46   43.52
  11   0  -1   -0.20    5.44
  11   0   0   54.75   13.95
  11   0   0   44.00   11.12
  11   0   1    8.71    7.57
  11   0   1    0.51    5.91
  11   0   2  583.89   47.23
  11   0   2  612.92   44.52
  11   0   3   -5.83    5.83
  11   0   3   -9.17    8.32
  11   0   4  111.39   19.45
  11   0   4  121.09   22.35
  11   0   5   -1.77    5.32
  11   1 -10    8.65    6.91
  11   1  -9   41.22   11.97
  11   1  -8  239.77   27.65
  11  -1  -7   17.18    8.91
  11   1  -7   13.86    6.37
 -11  -1   7   23.49   16.32
  11  -1  -6  234.36   27.96
  11   1  -6  233.87   27.05
 -11  -1   6  236.86   33.83
  11  -1  -5    7.75    6.76
  11   1  -5   -3.48    5.48
 -11  -1   5   -5.77    6.83
  11  -1  -4   10.68    7.26
  11   1  -4   -1.56    6.64
 -11  -1   4    6.32    8.63
  11  -1  -3   21.66    9.21
  11   1  -3   19.55    8.26
 -11  -1   3   11.18    9.14
  11  -1  -2  256.44   28.96
  11   1  -2  230.45   27.47
 -11  -1   2  217.52   30.99
  11  -1  -1   10.10    8.90
  11   1  -1    1.99    4.59
  11   1  -1    2.71    3.25
  11  -1   0  382.11   36.97
  11   1   0  405.45   37.43
  11   1   0  317.25   31.13
  11   1   1   33.56   11.44
  11  -1   1   13.39    8.02
  11   1   1   27.07   11.06
  11  -1   2  202.27   27.12
  11   1   2  126.74   21.69
  11  -1   2  168.77   23.37
  11   1   2  207.13   25.78
  11  -1   3   12.53    9.00
  11   1   3   -0.08    4.95
  11  -1   3    4.15    4.41
  11   1   3   11.61    6.59
  11   1   4   48.98   13.92
  11  -1   4   27.94   11.40
  11  -1   5    7.44    6.93
  11  -1   6  253.87   33.21
  11   2  -7   61.00   13.84
  11   2  -6   37.43   11.14
  11   2  -5   55.14   13.41
  11   2  -4  216.53   26.78
  11  -2  -3  417.11   38.80
  11   2  -3  421.81   37.94
 -11  -2   3  431.68   45.99
  11  -2  -2  447.63   40.25
  11   2  -2  376.95   36.19
 -11  -2   2  422.23   44.61
  11   2  -1   75.26   15.08
  11  -2  -1  123.53   21.13
  11   2  -1  122.69   21.10
 -11  -2   1  120.12   23.52
  11   2   0   10.88    5.91
  11  -2   0    0.59    6.58
  11   2   0   18.36   11.27
 -11  -2   0    2.81    6.62
  11   2   1  119.61   19.40
  11  -2   1  140.73   22.82
  11   2   1   99.93   19.63
 -11  -2  -1  105.26   21.80
  11  -2   2  172.14   25.78
 -11  -2  -2  198.02   29.25
  11   2   2  204.60   26.01
  11  -2   3  310.46   34.75
  11   2   3  293.41   32.03
  11  -2   4   70.99   17.04
  11  -2   5   21.11   11.18

TITL s1-122-1 in P2(1)/c
REM P2(1)/c (#14 in standard setting)
CELL 0.71073   9.331808   5.224634  15.427689  90.0000  95.0952  90.0000
ZERR    3.00   0.000313   0.000224   0.000897   0.0000   0.0040   0.0000
LATT  1
SYMM -x, y+1/2,-z+1/2
SFAC C H N O
UNIT 33.00 30.00 3.00 3.00
TREF
HKLF 4
END
_computing_structure_solution     'SHELXT 2014/4 (Sheldrick, 2014)'
;
_shelx_hkl_checksum              63413
_olex2_submission_special_instructions 'No special instructions were received'
loop_
_space_group_symop_operation_xyz
'x, y, z'
'-x, y+1/2, -z+1/2'
'-x, -y, -z'
'x, -y-1/2, z-1/2'
loop_
_atom_site_label
_atom_site_type_symbol
_atom_site_fract_x
_atom_site_fract_y
_atom_site_fract_z
_atom_site_U_iso_or_equiv
_atom_site_adp_type
_atom_site_occupancy
_atom_site_site_symmetry_order
_atom_site_calc_flag
_atom_site_refinement_flags_posn
_atom_site_refinement_flags_adp
_atom_site_refinement_flags_occupancy
_atom_site_disorder_assembly
_atom_site_disorder_group
Zn1 Zn 0.15790(5) 0.68412(9) 0.32779(3) 0.0247(2) Uani 1 1 d . . . . .
P1 P -0.01685(11) 0.18049(19) 0.36572(7) 0.0226(3) Uani 1 1 d . . . . .
H1 H -0.0631 0.2631 0.4422 0.027 Uiso 1 1 d R . . . .
O1 O -0.1473(3) 0.2324(6) 0.3002(2) 0.0284(7) Uani 1 1 d . . . . .
O2 O 0.0095(3) -0.1071(5) 0.37617(19) 0.0272(6) Uani 1 1 d . . . . .
O3 O 0.1173(3) 0.3244(5) 0.3447(2) 0.0330(7) Uani 1 1 d . . . . .
O4 O 0.3502(3) 0.7984(6) 0.3703(2) 0.0341(7) Uani 1 1 d . . . . .
O5 O 0.4585(3) 0.4575(6) 0.3162(2) 0.0382(8) Uani 1 1 d . . . . .
N1 N 0.7077(4) 0.7070(7) 0.3148(2) 0.0275(8) Uani 1 1 d . . . . .
H1A H 0.6807 0.7654 0.2617 0.033 Uiso 1 1 calc GR . . . .
H1B H 0.7084 0.5367 0.3141 0.033 Uiso 1 1 calc GR . . . .
H1C H 0.7956 0.7645 0.3318 0.033 Uiso 1 1 calc GR . . . .
C1 C 0.4590(4) 0.6712(8) 0.3509(3) 0.0252(9) Uani 1 1 d . . . . .
C2 C 0.6044(4) 0.7986(8) 0.3768(3) 0.0283(9) Uani 1 1 d . . . . .
H2 H 0.5940 0.9848 0.3718 0.034 Uiso 1 1 calc R . . . .
C3 C 0.6601(6) 0.7302(12) 0.4692(3) 0.0518(15) Uani 1 1 d . . . . .
H3A H 0.6726 0.5482 0.4739 0.078 Uiso 1 1 calc GR . . . .
H3B H 0.5922 0.7855 0.5086 0.078 Uiso 1 1 calc GR . . . .
H3C H 0.7507 0.8136 0.4837 0.078 Uiso 1 1 calc GR . . . .
loop_
_atom_site_aniso_label
_atom_site_aniso_U_11
_atom_site_aniso_U_22
_atom_site_aniso_U_33
_atom_site_aniso_U_23
_atom_site_aniso_U_13
_atom_site_aniso_U_12
Zn1 0.0143(3) 0.0235(3) 0.0360(3) 0.00006(19) 0.0001(2) -0.00070(17)
P1 0.0166(5) 0.0206(5) 0.0304(6) 0.0002(4) 0.0013(4) 0.0002(4)
O1 0.0178(14) 0.0298(16) 0.0370(17) -0.0006(13) -0.0006(12) 0.0042(12)
O2 0.0193(14) 0.0207(14) 0.0417(17) 0.0031(13) 0.0040(12) -0.0006(12)
O3 0.0209(14) 0.0232(16) 0.054(2) 0.0026(13) 0.0002(14) -0.0028(12)
O4 0.0146(14) 0.0377(18) 0.050(2) -0.0088(15) 0.0004(13) 0.0002(13)
O5 0.0223(15) 0.0385(19) 0.054(2) -0.0127(16) 0.0038(14) -0.0062(14)
N1 0.0151(16) 0.0275(19) 0.040(2) -0.0012(15) 0.0015(15) -0.0013(14)
C1 0.0157(18) 0.031(2) 0.028(2) -0.0002(17) 0.0000(16) -0.0023(16)
C2 0.0152(19) 0.032(2) 0.038(2) -0.0060(18) 0.0037(17) -0.0008(17)
C3 0.029(3) 0.084(4) 0.041(3) -0.004(3) -0.007(2) -0.009(3)
loop_
_atom_type_symbol
_atom_type_description
_atom_type_scat_dispersion_real
_atom_type_scat_dispersion_imag
_atom_type_scat_source
C C 0.0033 0.0016 'International Tables Vol C Tables 4.2.6.8 and 6.1.1.4'
H H 0.0000 0.0000 'International Tables Vol C Tables 4.2.6.8 and 6.1.1.4'
N N 0.0061 0.0033 'International Tables Vol C Tables 4.2.6.8 and 6.1.1.4'
O O 0.0106 0.0060 'International Tables Vol C Tables 4.2.6.8 and 6.1.1.4'
P P 0.1023 0.0942 'International Tables Vol C Tables 4.2.6.8 and 6.1.1.4'
Zn Zn 0.2839 1.4301 'International Tables Vol C Tables 4.2.6.8 and 6.1.1.4'
loop_
_geom_angle_atom_site_label_1
_geom_angle_atom_site_label_2
_geom_angle_atom_site_label_3
_geom_angle
_geom_angle_site_symmetry_1
_geom_angle_site_symmetry_3
_geom_angle_publ_flag
O2 Zn1 O1 109.47(12) 1_565 2 ?
O3 Zn1 O1 105.32(13) . 2 ?
O3 Zn1 O2 109.55(12) . 1_565 ?
O3 Zn1 O4 115.89(13) . . ?
O4 Zn1 O1 105.03(13) . 2 ?
O4 Zn1 O2 111.19(12) . 1_565 ?
O1 P1 H1 102.7 . . ?
O2 P1 H1 106.3 . . ?
O2 P1 O1 110.71(17) . . ?
O3 P1 H1 111.0 . . ?
O3 P1 O1 113.08(18) . . ?
O3 P1 O2 112.40(16) . . ?
P1 O1 Zn1 126.80(18) . 2_545 ?
P1 O2 Zn1 128.22(18) . 1_545 ?
P1 O3 Zn1 133.05(19) . . ?
C1 O4 Zn1 119.4(3) . . ?
H1A N1 H1B 109.5 . . ?
H1A N1 H1C 109.5 . . ?
H1B N1 H1C 109.5 . . ?
C2 N1 H1A 109.5 . . ?
C2 N1 H1B 109.5 . . ?
C2 N1 H1C 109.5 . . ?
O4 C1 C2 114.8(4) . . ?
O5 C1 O4 126.9(4) . . ?
O5 C1 C2 118.3(4) . . ?
N1 C2 C1 107.5(3) . . ?
N1 C2 H2 109.4 . . ?
N1 C2 C3 109.8(4) . . ?
C1 C2 H2 109.4 . . ?
C3 C2 C1 111.4(4) . . ?
C3 C2 H2 109.4 . . ?
C2 C3 H3A 109.5 . . ?
C2 C3 H3B 109.5 . . ?
C2 C3 H3C 109.5 . . ?
H3A C3 H3B 109.5 . . ?
H3A C3 H3C 109.5 . . ?
H3B C3 H3C 109.5 . . ?
loop_
_geom_bond_atom_site_label_1
_geom_bond_atom_site_label_2
_geom_bond_distance
_geom_bond_site_symmetry_2
_geom_bond_publ_flag
Zn1 O1 1.984(3) 2 ?
Zn1 O2 1.962(3) 1_565 ?
Zn1 O3 1.939(3) . ?
Zn1 O4 1.949(3) . ?
P1 H1 1.3615 . ?
P1 O1 1.536(3) . ?
P1 O2 1.529(3) . ?
P1 O3 1.520(3) . ?
O1 Zn1 1.984(3) 2_545 ?
O2 Zn1 1.962(3) 1_545 ?
O4 C1 1.272(5) . ?
O5 C1 1.238(5) . ?
N1 H1A 0.8900 . ?
N1 H1B 0.8900 . ?
N1 H1C 0.8900 . ?
N1 C2 1.496(5) . ?
C1 C2 1.532(5) . ?
C2 H2 0.9800 . ?
C2 C3 1.516(7) . ?
C3 H3A 0.9600 . ?
C3 H3B 0.9600 . ?
C3 H3C 0.9600 . ?
loop_
_geom_hbond_atom_site_label_D
_geom_hbond_atom_site_label_H
_geom_hbond_atom_site_label_A
_geom_hbond_distance_DH
_geom_hbond_distance_HA
_geom_hbond_distance_DA
_geom_hbond_angle_DHA
_geom_hbond_site_symmetry_A
N1 H1A O5 0.89 1.96 2.766(5) 148.9 2_655
N1 H1B O1 0.89 2.11 2.843(5) 139.6 1_655
N1 H1C O2 0.89 2.16 3.049(4) 178.0 1_665
