#------------------------------------------------------------------------------
#$Date: 2021-07-05 20:44:22 +0300 (Mon, 05 Jul 2021) $
#$Revision: 267195 $
#$URL: file:///home/coder/svn-repositories/cod/cif/7/70/73/7707316.cif $
#------------------------------------------------------------------------------
#
# This file is available in the Crystallography Open Database (COD),
# http://www.crystallography.net/
#
# All data on this site have been placed in the public domain by the
# contributors.
#
data_7707316
loop_
_publ_author_name
'Li, Han-Ying'
'Lii, Kwang-Hwa'
_publ_section_title
;
 Hydrothermal synthesis, crystal structures, and X-ray photoelectron
 spectroscopy of lead tellurium(IV) and tellurium(VI) oxycompounds:
 Ba<sub>3</sub>PbTe<sub>6</sub>O<sub>16</sub> and
 Na<sub>2</sub>Pb<sub>9</sub>(\m<sub>6</sub>-O)<sub>2</sub>(Te<sub>2</sub>O<sub>10</sub>)<sub>2</sub>.
;
_journal_issue                   23
_journal_name_full
'Dalton transactions (Cambridge, England : 2003)'
_journal_page_first              8189
_journal_page_last               8195
_journal_paper_doi               10.1039/d1dt00566a
_journal_volume                  50
_journal_year                    2021
_chemical_formula_sum            'Na2 O22 Pb9 Te4'
_chemical_formula_weight         2773.09
_chemical_name_systematic        Na2Pb9Te4O22
_space_group_crystal_system      orthorhombic
_space_group_IT_number           63
_space_group_name_Hall           '-C 2c 2'
_space_group_name_H-M_alt        'C m c m'
_atom_sites_solution_hydrogens   none
_atom_sites_solution_primary     direct
_atom_sites_solution_secondary   difmap
_audit_creation_method           SHELXL-2017/1
_audit_update_record
;
2021-02-05 deposited with the CCDC.	2021-05-04 downloaded from the CCDC.
;
_cell_angle_alpha                90
_cell_angle_beta                 90
_cell_angle_gamma                90
_cell_formula_units_Z            2
_cell_length_a                   8.9630(2)
_cell_length_b                   11.3476(3)
_cell_length_c                   11.2907(3)
_cell_measurement_reflns_used    3126
_cell_measurement_temperature    296(2)
_cell_measurement_theta_max      28.26
_cell_measurement_theta_min      2.90
_cell_volume                     1148.36(5)
_computing_molecular_graphics    Diamond
_computing_structure_refinement  'SHELXL-2017/1 (Sheldrick, 2017)'
_computing_structure_solution    'SHELXT 2014/5 (Sheldrick, 2014)'
_diffrn_ambient_temperature      296(2)
_diffrn_measured_fraction_theta_full 0.995
_diffrn_measured_fraction_theta_max 0.996
_diffrn_measurement_device_type
'Bruker D8 QUEST CMOS PHOTON II KAPPA diffractometer'
_diffrn_measurement_method       '\f and \w scans'
_diffrn_radiation_monochromator  graphite
_diffrn_radiation_type           MoK\a
_diffrn_radiation_wavelength     0.71073
_diffrn_reflns_av_R_equivalents  0.0434
_diffrn_reflns_av_unetI/netI     0.0270
_diffrn_reflns_Laue_measured_fraction_full 0.995
_diffrn_reflns_Laue_measured_fraction_max 0.996
_diffrn_reflns_limit_h_max       11
_diffrn_reflns_limit_h_min       -11
_diffrn_reflns_limit_k_max       14
_diffrn_reflns_limit_k_min       -15
_diffrn_reflns_limit_l_max       14
_diffrn_reflns_limit_l_min       -15
_diffrn_reflns_number            5467
_diffrn_reflns_point_group_measured_fraction_full 0.995
_diffrn_reflns_point_group_measured_fraction_max 0.996
_diffrn_reflns_theta_full        25.242
_diffrn_reflns_theta_max         28.28
_diffrn_reflns_theta_min         2.90
_diffrn_source                   'fine-focus sealed tube'
_exptl_absorpt_coefficient_mu    70.829
_exptl_absorpt_correction_T_max  0.3907
_exptl_absorpt_correction_T_min  0.1005
_exptl_absorpt_correction_type   'Numerical Mu Calculated'
_exptl_crystal_colour            'light yellow'
_exptl_crystal_density_diffrn    8.020
_exptl_crystal_density_method    'not measured'
_exptl_crystal_description       block
_exptl_crystal_F_000             2288
_exptl_crystal_size_max          0.120
_exptl_crystal_size_mid          0.113
_exptl_crystal_size_min          0.047
_refine_diff_density_max         6.751
_refine_diff_density_min         -3.817
_refine_diff_density_rms         0.543
_refine_ls_extinction_method     none
_refine_ls_goodness_of_fit_ref   1.125
_refine_ls_hydrogen_treatment    none
_refine_ls_matrix_type           full
_refine_ls_number_parameters     54
_refine_ls_number_reflns         798
_refine_ls_number_restraints     0
_refine_ls_restrained_S_all      1.125
_refine_ls_R_factor_all          0.0369
_refine_ls_R_factor_gt           0.0355
_refine_ls_shift/su_max          0.000
_refine_ls_shift/su_mean         0.000
_refine_ls_structure_factor_coef Fsqd
_refine_ls_weighting_details
'w=1/[\s^2^(Fo^2^)+(0.0414P)^2^+159.3967P] where P=(Fo^2^+2Fc^2^)/3'
_refine_ls_weighting_scheme      calc
_refine_ls_wR_factor_gt          0.0985
_refine_ls_wR_factor_ref         0.0993
_reflns_Friedel_coverage         0.000
_reflns_number_gt                769
_reflns_number_total             798
_reflns_threshold_expression     >2sigma(I)
_cod_data_source_file            d1dt00566a2.cif
_cod_data_source_block           NPTO
_cod_depositor_comments
'Adding full bibliography for 7707315--7707316.cif.'
_cod_database_code               7707316
_shelx_shelxl_version_number     2017/1
_shelx_space_group_comment
;
The symmetry employed for this shelxl refinement is uniquely defined
by the following loop, which should always be used as a source of
symmetry information in preference to the above space-group names.
They are only intended as comments.
;
_shelx_res_file
;
TITL Na2Pb9Te4O22 in Cmcm
    NPTO.res
    created by SHELXL-2017/1 at 15:01:55 on 04-Feb-2021
CELL  0.71073   8.9630  11.3476  11.2907   90.000   90.000   90.000
ZERR    2.000   0.0002   0.0003   0.0003    0.000    0.000    0.000
LATT  7
SYMM -X, -Y, 1/2+Z
SYMM -X, Y, 1/2-Z
SYMM X, -Y, -Z
SFAC NA O PB TE
UNIT 4 44 18 8
TEMP 23
L.S. 5
BOND $H
LIST 4
FMAP 2
ACTA
PLAN 20
WGHT    0.041400  159.396698
FVAR       0.09458
NA1   1    0.500000    0.579747    0.750000    10.25000    0.01872    0.00994 =
         0.00674    0.00000    0.00000    0.00000
PB1   3    0.500000    0.781535    0.520347    10.50000    0.02003    0.01007 =
         0.02192    0.00054    0.00000    0.00000
PB2   3    0.000000    0.498225    0.250000    10.25000    0.04215    0.00933 =
         0.01482    0.00000    0.00000    0.00000
PB3   3    0.260843    0.717349    0.250000    10.37500    0.01373    0.02402 =
         0.01967    0.00000    0.00000   -0.00119
TE1   4    0.323388    0.500000    0.500000    10.50000    0.00451    0.00452 =
         0.00354   -0.00085    0.00000    0.00000
O1    2    0.500000    0.437468    0.593165    10.50000    0.00707    0.00345 =
         0.00934   -0.00208    0.00000    0.00000
O2    2    0.330239    0.640931    0.593437    11.00000    0.01263    0.00615 =
         0.01173   -0.00424    0.00175    0.00248
O3    2    0.189521    0.569463    0.391537    11.00000    0.01011    0.01197 =
         0.00916    0.00174   -0.00178    0.00323
O4    2    0.000000    0.696592    0.250000    10.25000    0.01818    0.00932 =
         0.01349    0.00000    0.00000    0.00000
FREE NA1 TE1 !experimental does not work with EQIV AND PART
FREE PB3 PB2 !experimental does not work with EQIV AND PART
HKLF 4




REM  Na2Pb9Te4O22 in Cmcm
REM R1 =  0.0355 for     769 Fo > 4sig(Fo)  and  0.0369 for all     798 data
REM     54 parameters refined using      0 restraints

END

WGHT      0.0422    153.4850

REM Highest difference peak  6.751,  deepest hole -3.817,  1-sigma level  0.543
Q1    1   0.5000  0.7800  0.4631  10.50000  0.05    6.75
Q2    1   0.3282  0.4992  0.4546  11.00000  0.05    1.85
Q3    1   0.5000  0.7647  0.2500  10.25000  0.05    1.82
Q4    1   0.1453  0.7111  0.2500  10.50000  0.05    1.73
Q5    1   0.5000  0.7507  0.6243  10.50000  0.05    1.70
Q6    1   0.5220  0.7395  0.5375  11.00000  0.05    1.70
Q7    1   0.5432  0.8093  0.5328  11.00000  0.05    1.60
Q8    1   0.1915  0.6583  0.2500  10.50000  0.05    1.59
Q9    1   0.3341  0.8028  0.2500  10.50000  0.05    1.56
Q10   1   0.3420  0.4741  0.4969  11.00000  0.05    1.55
Q11   1   0.5000  0.7613  0.3764  10.50000  0.05    1.34
Q12   1   0.5000  0.4883  0.5365  10.50000  0.05    1.28
Q13   1   0.5000  0.4876  0.6808  10.50000  0.05    1.26
Q14   1   0.3250  0.6130  0.5531  11.00000  0.05    1.16
Q15   1   0.3239  0.6386  0.2500  10.50000  0.05    1.15
Q16   1   0.5000  0.7074  0.3963  10.50000  0.05    1.15
Q17   1   0.1757  0.4903  0.4479  11.00000  0.05    1.12
Q18   1  -0.0723  0.7087  0.3159  11.00000  0.05    1.03
Q19   1   0.5434  0.6939  0.5687  11.00000  0.05    1.02
Q20   1   0.5724  0.7279  0.4108  11.00000  0.05    1.02
;
_shelx_res_checksum              34481
_shelx_hkl_file
;
  -2   0   0  444.86   23.70
  -2   0   0  463.45   24.20
  -4   0   0 9033.20  435.86
  -4   0   0 8683.93  436.66
   6   0   0 4075.09  203.98
  -6   0   0 3826.22  204.78
  -6   0   0 4313.77  205.68
  -8   0   0 1405.26   73.39
  -8   0   0 1353.66   75.99
   8   0   0 1351.16   73.89
 -10   0   0  309.97   26.00
  10   0   0  336.57   23.90
 -10   0   0  308.07   22.90
  -1   1   0  193.38   12.20
   1  -1   0  180.58   11.00
   1  -1   0  210.38   12.20
  -1   1   0  184.78   11.00
   3  -1   0 3342.87  164.78
  -3  -1   0 3196.38  163.38
  -3   1   0 3475.35  166.78
   3   1   0 3248.27  163.58
  -3   1   0 3293.17  164.88
  -5  -1   0   14.30    2.80
   5   1   0   10.60    3.10
  -5  -1   0   11.90    3.00
  -5   1   0   10.00    3.00
  -5   1   0   15.00    3.30
   5  -1   0   13.40    3.50
  -7  -1   0  173.58   12.50
   7   1   0  167.38   13.00
  -7  -1   0  149.49   13.10
   7  -1   0  175.08   13.80
  -9   1   0  549.85   38.70
   9  -1   0  593.64   36.80
  -9  -1   0  581.64   37.50
  -9  -1   0  579.14   34.80
   9   1   0  583.94   38.30
  -9   1   0  620.64   36.50
 -11   1   0   30.80    8.70
  11   1   0   31.40    8.80
  11  -1   0   30.30    7.90
   0   2   0  304.97   16.10
   0  -2   0  288.57   15.20
   0   2   0  297.77   15.30
   0  -2   0  311.47   16.20
  -2   2   0  186.68   13.40
   2  -2   0  181.98   12.90
  -2   2   0  161.38   11.40
   4  -2   0 2844.22  150.18
  -4   2   0 2912.21  149.19
   4  -2   0 2982.30  149.39
  -4   2   0 3118.59  153.18
   4   2   0 2931.01  146.89
  -6   2   0  913.31   51.29
   6  -2   0  910.71   51.39
  -6   2   0  942.01   54.79
   6   2   0  943.01   49.70
  -8   2   0 2559.04  130.49
   8  -2   0 2447.85  127.29
   8   2   0 2467.35  125.49
  -8   2   0 2410.36  126.69
  -8  -2   0 2291.87  128.49
  10  -2   0   17.20    6.30
 -10  -2   0   27.40    7.80
 -10   2   0   16.10    7.50
  10   2   0   18.90    5.40
 -10   2   0   12.10    7.00
  -1  -3   0  325.47   17.90
   1  -3   0  327.67   19.90
   1   3   0  346.67   17.80
   1  -3   0  356.56   18.20
  -1   3   0  323.67   19.80
  -1   3   0  329.67   18.20
   3  -3   0   87.79    7.60
  -3   3   0   71.19    7.10
  -3   3   0   78.59    9.00
   5   3   0  331.27   19.60
   5  -3   0  325.87   22.30
  -5   3   0  360.36   25.00
   5  -3   0  343.17   23.20
   7   3   0  194.98   14.70
  -7   3   0  243.58   19.60
  -7   3   0  207.48   17.00
   7  -3   0  228.18   17.50
  -9  -3   0  147.09   13.70
   9  -3   0  153.38   15.40
   9   3   0  157.68   14.30
  -9   3   0  144.59   14.90
  -9   3   0  153.78   16.60
 -11  -3   0  508.55   37.60
  11   3   0  520.95   35.60
  11  -3   0  633.04   38.90
  -2  -4   0  442.06   23.20
  -2   4   0  443.56   24.60
   2  -4   0  429.96   24.40
  -2   4   0  417.56   27.00
  -4   4   0 4354.96  205.88
  -4   4   0 3890.91  201.48
   4   4   0 3852.51  198.18
   4  -4   0 3839.22  201.28
   4  -4   0 4140.89  203.78
  -6   4   0 1735.33   88.89
   6  -4   0 1573.44   84.99
  -6   4   0 1543.95   84.89
   6   4   0 1551.24   81.89
  -8   4   0  681.93   39.40
  -8  -4   0  570.44   35.50
   8   4   0  605.14   36.10
  -8   4   0  673.03   41.60
   8  -4   0  618.84   38.80
 -10  -4   0  138.39   14.10
  10   4   0  156.08   14.30
  10  -4   0  137.79   15.20
 -10   4   0  117.19   22.40
  -1   5   0 2744.33  139.29
   1  -5   0 2746.43  136.39
  -1  -5   0 2818.92  137.59
   1   5   0 2736.33  136.79
   1   5   0 2816.92  135.89
   1  -5   0 2579.04  139.59
  -1   5   0 2780.02  136.69
   3  -5   0 8582.14  399.56
  -3   5   0 7942.10  399.26
   3  -5   0 7359.46  395.86
  -3  -5   0 8112.39  392.66
  -3   5   0 7936.11  395.56
   5   5   0  524.95   29.40
  -5   5   0  552.74   32.90
   5  -5   0  543.45   34.40
   5  -5   0  510.95   32.30
  -5   5   0  582.34   36.40
  -7   5   0 2311.27  120.39
   7   5   0 2083.59  113.09
  -7   5   0 2333.77  117.19
   7  -5   0 2179.48  116.29
   9  -5   0 1064.39   59.69
  -9   5   0 1096.09   63.29
  -9  -5   0  946.81   56.39
   9   5   0 1043.40   57.39
  11  -5   0  189.68   18.50
  11   5   0  171.58   16.70
 -11  -5   0  155.28   17.80
   0   6   0  279.27   15.60
   0   6   0  274.07   17.40
   0  -6   0  272.27   18.00
   2  -6   0   24.60    4.10
  -2   6   0   31.90    4.70
  -2  -6   0   37.30    4.30
   2  -6   0   26.30    6.50
  -2   6   0   36.40    7.20
  -4   6   0  322.57   24.40
   4  -6   0  266.17   20.20
   4  -6   0  332.77   23.70
  -4   6   0  341.27   21.80
   6  -6   0  747.13   43.30
  -6   6   0  699.63   41.20
  -6   6   0  770.02   45.70
   6   6   0  624.54   37.50
   6  -6   0  667.63   40.80
  -8   6   0  531.75   34.70
   8  -6   0  590.44   34.80
   8   6   0  502.55   31.30
  -8   6   0  518.65   37.20
  10   6   0    4.10    4.20
 -10  -6   0    2.00    4.80
  10  -6   0    7.20    5.60
   1  -7   0  983.70   56.69
  -1  -7   0 1031.30   54.89
   1   7   0 1040.40   53.79
  -1   7   0 1003.60   56.09
  -1   7   0 1010.70   53.09
   1  -7   0 1027.60   52.39
   1   7   0 1038.60   52.39
  -3  -7   0  168.08   11.70
   3  -7   0  169.68   12.50
  -3   7   0  165.28   12.80
  -3   7   0  158.98   15.90
   3  -7   0  167.18   16.60
   5  -7   0  923.91   53.69
  -5   7   0  936.41   54.19
   5  -7   0 1011.20   56.89
  -5   7   0 1079.49   59.49
  -5  -7   0  888.21   50.39
   7   7   0  553.64   33.40
   7  -7   0  627.44   38.70
   7  -7   0  587.14   36.80
  -7   7   0  626.14   42.00
  -7  -7   0  560.74   33.00
  -7   7   0  627.84   37.70
   9  -7   0  235.08   18.90
   9   7   0  221.98   16.40
  -9  -7   0  188.18   14.80
   0   8   0 1273.27   63.79
   0  -8   0 1209.48   67.29
   0   8   0 1231.68   66.19
   2  -8   0    7.80    4.50
  -2   8   0   15.30    3.70
  -2  -8   0   14.90    4.10
   2   8   0   11.00    2.40
  -2   8   0   11.30    4.00
   2  -8   0   11.20    3.10
  -4  -8   0    8.50    3.20
  -4   8   0   11.80    4.40
   4  -8   0    9.40    3.50
   4  -8   0   16.80    6.50
  -4   8   0    0.00    3.50
   6  -8   0  792.52   48.40
   6  -8   0  765.12   45.80
  -6   8   0  835.42   51.29
  -6  -8   0  774.82   42.70
  -6   8   0  824.22   51.99
   6   8   0  735.73   42.20
   8  -8   0   95.39   11.30
  -8  -8   0   87.49    8.80
   8   8   0   92.19   11.90
 -10  -8   0   13.60    5.00
 -10  -8   0   16.40    5.80
  10   8   0   17.60    6.40
   1   9   0 1667.53   88.99
   1  -9   0 1731.23   93.19
  -1   9   0 1712.43   91.69
  -1  -9   0 1730.93   91.09
  -1   9   0 1732.23   88.09
   3  -9   0 5481.25  279.97
  -3   9   0 5562.64  281.17
   3  -9   0 5841.12  288.37
  -3  -9   0 5580.04  281.07
   3   9   0 5855.31  278.77
  -3   9   0 5449.75  286.67
   5  -9   0  397.66   30.20
  -5   9   0  456.45   33.60
   5  -9   0  414.06   27.50
  -5  -9   0  418.36   26.00
  -5   9   0  451.85   29.20
   7  -9   0 1740.33   87.69
  -7  -9   0 1562.74   83.49
   7   9   0 1551.34   83.19
   7  -9   0 1551.74   88.99
   9   9   0  902.81   50.99
   9  -9   0  949.90   54.19
  -9  -9   0  857.81   49.50
   0 -10   0 2916.91  153.68
   0  10   0 2970.30  151.58
   0  10   0 2960.40  148.49
  -2 -10   0   97.99   10.70
   2 -10   0   98.69    8.20
   2 -10   0  123.19   17.00
   2  10   0   99.29    8.20
  -2  10   0   81.99   12.20
  -2  10   0   89.29    9.10
  -4  10   0  836.42   52.59
   4 -10   0  886.21   51.89
   4 -10   0  769.52   45.00
  -4  10   0  767.92   46.90
   4  10   0  778.52   43.20
  -4 -10   0  778.82   45.40
   6 -10   0  733.63   43.50
   6 -10   0  713.13   46.40
  -6 -10   0  723.13   41.50
   8  10   0   88.69    9.60
   8 -10   0   90.19   12.60
  -8 -10   0   87.09    9.90
  -1  11   0  235.08   17.00
  -1  11   0  256.77   20.90
  -1 -11   0  235.68   20.20
   1 -11   0  269.27   22.80
   1  11   0  267.17   16.70
   1  11   0  234.18   18.10
   3 -11   0   10.00    6.10
  -3 -11   0   19.20    5.00
  -3  11   0   10.60    5.80
   3  11   0   17.10    3.70
   3 -11   0   15.50    3.80
  -3  11   0   12.00    4.40
   5 -11   0  275.97   23.30
   5 -11   0  223.48   18.80
   5  11   0  271.17   17.70
  -5 -11   0  257.87   19.40
  -7 -11   0  192.98   16.10
   7 -11   0  216.78   20.70
   7  11   0  178.78   14.60
   7 -11   0  195.38   17.30
   0  12   0    8.90    5.00
   0  12   0   12.50    4.50
   2  12   0   31.90    5.70
  -2  12   0   17.10    7.60
  -2 -12   0   33.50    8.20
   2 -12   0   31.90    8.90
   4 -12   0  457.15   32.40
  -4 -12   0  352.56   26.80
   4  12   0  404.96   24.40
   4 -12   0  355.96   24.40
   6 -12   0  312.37   26.40
   6  12   0  271.17   19.90
  -6 -12   0  304.97   22.30
   6 -12   0  283.97   21.90
   1  13   0  255.07   21.00
   1 -13   0  309.67   27.10
  -1  13   0  247.08   23.20
  -1  13   0  271.27   19.70
  -1 -13   0  285.17   24.10
   3  13   0 1510.65   79.29
   3 -13   0 1466.05   87.19
   5 -13   0   69.09   20.30
  -5 -13   0   73.29   12.10
   5  13   0   58.39    8.80
   5 -13   0   69.29    9.80
   0 -14   0 4088.49  216.18
  -2 -14   0  146.19   17.70
   2  14   0  120.69   12.40
   2 -14   0   97.19   16.20
  -4 -14   0 1240.88   74.19
   4 -14   0 1326.27   77.39
  -1 -15   0   10.00    8.90
   1 -15   0   16.10    9.10
  -2   0   1    1.40    1.50
  -2   0  -1    1.30    0.80
   2   0  -1    1.70    1.30
   2   0  -1    0.30    0.70
   2   0   1    3.10    0.90
  -2   0   1    1.90    0.90
  -4   0   1    0.50    1.20
   4   0   1    0.10    1.30
  -4   0  -1    2.90    1.60
   4   0  -1    1.70    1.40
  -4   0   1    7.50    3.10
  -6   0  -1    3.90    2.00
  -6   0  -1    5.30    2.50
  -6   0   1    0.40    1.60
  -6   0   1    1.10    2.20
   6   0  -1    2.50    1.90
   6   0   1    0.30    1.80
  -8   0   1    3.10    4.00
  -8   0  -1    2.70    3.20
   8   0   1    1.80    3.10
  -8   0  -1    1.40    2.70
  -8   0   1    0.40    2.60
   8   0  -1    1.50    2.80
  10   0  -1    1.70    3.70
 -10   0   1    5.20    4.80
 -10   0   1   -1.50    5.10
 -10   0  -1    3.10    4.50
  10   0   1    1.60    3.90
 -10   0  -1    6.70    5.80
  -1   1   1  117.69    7.20
  -1   1   1  118.99    7.20
   1  -1   1  115.99    6.90
  -1   1  -1  115.59    7.30
  -1   1  -1  112.39    6.90
   1  -1  -1  115.59    7.10
   1  -1  -1  110.19    7.10
   3  -1   1   84.59    6.50
  -3   1   1   84.89    6.90
   3   1  -1   82.49    5.80
  -3  -1  -1   81.79    5.80
  -3   1   1   90.39    8.50
  -3   1  -1   81.89    6.90
  -3  -1   1   87.99    8.30
  -3  -1   1   88.29    5.50
  -3   1  -1   73.09    6.40
   3  -1  -1   70.69    7.30
  -5   1   1    9.80    4.00
  -5  -1  -1    3.50    1.70
   5   1  -1    2.50    1.60
  -5   1   1    4.60    2.10
   5  -1   1    5.20    2.10
   5  -1  -1    0.50    1.60
  -5   1  -1    7.90    2.70
   5   1   1    1.70    1.70
  -5  -1   1    4.90    2.20
  -5   1  -1    0.90    2.00
  -5  -1   1    5.00    1.80
   7   1  -1  242.68   16.90
  -7  -1  -1  238.08   16.20
  -7  -1  -1  230.08   16.90
  -7   1   1  264.97   20.00
  -7   1   1  241.68   17.10
   7  -1   1  231.98   17.10
  -7   1  -1  229.88   17.10
  -7  -1   1  263.97   18.70
   7   1   1  241.98   16.80
  -7  -1   1  254.67   16.10
  -7   1  -1  213.68   17.80
   7  -1  -1  233.28   17.60
  -9  -1  -1   53.79    9.40
  -9   1   1   71.59   11.20
   9  -1   1   62.69    9.60
  -9   1   1   79.89   10.30
  -9  -1   1   77.29   12.00
   9   1   1   81.99    9.60
   9  -1  -1   94.69   11.00
  -9  -1   1   72.79    8.70
  -9   1  -1   96.49   14.50
  11   1  -1  190.98   18.00
  11  -1   1  176.28   18.10
 -11   1   1  190.08   20.20
 -11  -1  -1  163.88   19.80
 -11  -1   1  211.98   20.00
  11  -1  -1  219.68   19.60
  11   1   1  171.18   16.80
   0  -2   1  333.17   18.30
   0   2   1  314.07   16.40
   0   2  -1  309.97   15.60
   0  -2  -1  309.27   16.80
   0   2   1  332.67   17.10
   0  -2  -1  307.17   16.30
   0   2  -1  295.17   17.30
  -2   2   1  165.98   11.30
  -2   2   1  155.28   10.50
   2  -2   1  180.88   11.50
   2  -2  -1  122.89    9.80
  -2   2  -1  138.99   10.00
  -4   2   1  225.38   16.50
  -4   2   1  283.67   19.30
   4   2  -1  267.57   14.80
   4   2   1  250.07   14.90
   4  -2  -1  254.17   17.40
   4  -2  -1  252.17   17.70
  -4   2  -1  256.77   16.70
  -4   2  -1  251.87   17.80
   6   2  -1   79.89    7.70
   6  -2   1   92.59    8.90
  -6   2   1   85.69    9.00
  -6   2   1  110.49   11.50
  -6   2  -1   85.39    8.90
   6   2   1   95.09    8.10
   6  -2  -1   98.29    9.90
  -6  -2   1   89.29    8.20
  -6   2  -1   72.79    9.30
  -8  -2  -1   59.59    8.50
   8   2  -1   39.20    7.10
   8  -2   1   56.29    8.60
  -8   2   1   67.59   10.70
  -8   2   1   53.69    8.60
   8   2   1   81.69    8.40
  -8   2  -1   64.19    9.60
  -8  -2   1   67.29    9.30
   8  -2  -1   61.79    9.80
  -8   2  -1   44.20   10.10
 -10   2   1    4.40    5.80
 -10  -2  -1    5.00    5.40
  10  -2   1   12.70    5.60
 -10   2   1    5.00    5.40
  10   2  -1    6.90    3.90
  10  -2  -1   17.40    6.20
  10   2   1   13.50    5.30
 -10  -2   1   10.10    5.50
 -10   2  -1   11.60    7.20
   1   3  -1    5.10    1.10
  -1   3   1    6.10    1.50
  -1  -3  -1    4.80    1.30
   1  -3   1    6.80    1.50
  -1   3   1    6.60    2.10
   1  -3   1    5.70    2.50
  -1  -3   1    6.10    1.40
  -1   3  -1    3.50    2.30
   1  -3  -1    4.40    1.60
  -1   3  -1    3.60    1.30
   1  -3  -1    6.80    1.70
   3  -3   1  299.37   20.50
  -3   3   1  308.87   21.30
   3  -3   1  315.67   19.20
  -3   3   1  295.77   19.30
  -3   3  -1  297.07   19.00
   3  -3  -1  303.37   21.40
  -3   3  -1  319.97   22.20
   3  -3  -1  307.27   19.30
   5  -3   1   62.69    7.40
  -5   3   1   85.89   12.00
   5   3   1   55.49    5.50
   5  -3  -1   64.09    7.60
   5  -3  -1   74.79    8.40
  -5   3  -1   51.89    9.60
  -5   3  -1   40.60    8.10
   7  -3   1  143.59   13.60
   7   3  -1  157.68   12.10
  -7   3   1  155.08   13.90
  -7   3   1  175.88   16.10
  -7   3  -1  171.58   16.60
  -7  -3   1  157.58   12.20
  -7   3  -1  159.48   14.40
   7  -3  -1  160.78   14.30
   7   3   1  167.38   12.50
  -9   3   1   25.60    6.80
   9   3  -1   42.50   10.90
   9  -3   1   18.40    5.70
  -9  -3  -1   23.70    5.70
  -9   3   1   39.40    8.70
  -9   3  -1    9.10    5.60
  -9   3  -1   21.10    7.90
   9  -3  -1   25.20    7.20
   9   3   1   33.80    6.30
 -11  -3  -1   80.89   16.20
  11  -3   1   75.29   12.30
  11   3  -1   69.59   11.10
  11   3   1   74.19   11.50
  11  -3  -1   65.09   12.00
 -11  -3   1   75.79   12.70
   0   4   1  638.84   34.20
   0   4  -1  626.24   32.50
   0  -4  -1  634.44   33.00
   0   4  -1  672.33   34.70
   0  -4  -1  644.84   34.30
   0  -4   1  659.13   35.40
   0   4   1  634.64   33.20
  -2  -4  -1  133.79    8.70
   2  -4   1  117.89    8.90
  -2   4   1  133.29    9.40
  -2   4   1  124.89   10.70
  -2  -4   1  133.39    8.10
   2  -4  -1  123.69   10.50
  -2   4  -1  146.09   10.10
   2  -4  -1  128.49    9.40
  -2   4  -1  144.29   12.30
   4  -4   1  689.63   40.90
  -4   4   1  751.32   44.80
   4  -4   1  753.92   43.30
   4   4  -1  760.02   38.30
  -4   4   1  744.63   41.70
   4  -4  -1  769.22   44.00
   4  -4  -1  736.83   41.80
  -4   4  -1  693.93   41.20
  -6   4   1  230.58   18.80
   6   4  -1  211.58   13.70
   6  -4   1  214.28   16.50
  -6   4   1  203.78   16.30
   6  -4  -1  197.38   16.70
  -6   4  -1  182.58   15.80
   6   4   1  204.48   13.90
  -6   4  -1  230.68   19.20
   6  -4  -1  215.88   16.40
   8  -4   1  328.77   23.70
   8   4  -1  316.37   21.30
  -8   4   1  337.07   23.70
  -8   4   1  367.06   26.80
   8  -4  -1  326.27   23.80
  -8   4  -1  325.67   25.80
   8   4   1  332.87   21.60
  -8  -4   1  276.17   20.60
  -8   4  -1  357.46   26.60
  10  -4   1   50.89   10.30
  10   4  -1   58.49    9.60
 -10  -4  -1   57.69    9.50
 -10   4   1   57.39   11.30
 -10  -4   1   54.49    9.80
  10  -4  -1   56.89   10.60
  10   4   1   82.69   11.20
   1   5  -1    3.40    1.50
  -1   5   1    6.70    1.80
   1   5  -1    1.20    0.70
  -1  -5  -1    2.10    1.50
  -1   5   1    3.40    2.10
   1  -5   1    0.60    0.80
  -1  -5   1    2.40    1.40
  -1   5  -1    2.80    2.00
   1  -5  -1    2.80    1.80
   1   5   1    3.40    1.20
   1   5   1    7.30    2.00
   1  -5  -1    0.50    1.10
  -1   5  -1    2.30    1.30
  -3   5   1   17.70    3.90
  -3   5   1   36.30    7.50
   3  -5   1   14.90    3.60
   3  -5   1   26.40    6.30
   3  -5  -1   17.00    5.20
  -3   5  -1   16.60    4.70
  -3   5  -1   16.40    4.10
  -3  -5   1   29.10    3.00
   3  -5  -1   22.10    4.50
  -5   5   1    5.80    4.20
   5  -5   1    6.00    3.50
   5   5  -1    7.50    2.20
   5  -5   1    3.50    2.70
  -5   5   1    5.50    2.90
   5   5   1    5.30    1.90
  -5   5  -1    1.50    3.30
  -5   5  -1    7.50    2.90
   5  -5  -1    8.40    3.40
   5  -5  -1   11.40    3.60
  -7   5   1   21.30    5.80
   7  -5   1   23.60    6.20
  -7   5   1   31.10    8.30
   7   5  -1   34.00    5.30
   7   5   1   29.10    5.10
   7  -5  -1   28.30    7.00
  -7   5  -1   14.20    4.50
   7  -5  -1   24.70    6.30
  -7   5  -1   21.10    6.60
   9   5  -1   15.10    5.00
   9  -5   1   17.40    6.30
  -9   5   1    9.30    6.80
  -9  -5   1   14.10    4.50
   9   5   1   10.80    4.20
  -9   5  -1    8.60    6.40
   9  -5  -1   20.70    5.90
  11   5  -1   36.00    8.40
 -11  -5  -1   27.90    8.10
  11  -5   1   38.80   10.60
 -11  -5   1   25.90    8.70
  11   5   1   34.60    8.30
  11  -5  -1   31.20    8.60
   0   6   1 1482.25   75.99
   0   6  -1 1438.66   73.69
   0  -6  -1 1494.25   76.59
   0  -6   1 1463.85   77.99
   0  -6  -1 1419.46   73.89
   0   6  -1 1494.75   76.19
   0   6   1 1498.15   74.39
   2   6  -1  512.25   28.70
  -2   6   1  551.44   33.10
   2  -6   1  591.24   35.40
   2  -6   1  527.45   29.40
  -2  -6  -1  549.35   30.20
  -2   6   1  569.74   30.50
   2  -6  -1  523.15   32.80
  -2  -6   1  554.64   30.10
   2   6   1  552.54   29.10
  -2   6  -1  574.64   30.50
  -2   6  -1  472.25   33.40
  -4  -6  -1  712.33   38.70
  -4   6   1  729.33   42.00
   4  -6   1  807.22   44.50
   4  -6   1  712.73   40.60
  -4   6   1  697.03   45.00
  -4   6  -1  766.42   45.20
  -4   6  -1  771.52   41.70
   4  -6  -1  607.94   40.50
  -4  -6   1  709.43   37.80
   4  -6  -1  690.13   44.40
   6   6  -1  149.88   11.40
  -6   6   1  206.98   18.30
  -6   6   1  151.18   14.20
   6  -6   1  150.68   13.60
   6  -6  -1  181.18   16.30
  -6  -6   1  152.98   12.60
  -6   6  -1  180.68   15.00
   6   6   1  179.48   12.20
  -6   6  -1  194.48   17.90
   6  -6  -1  173.98   15.00
   8  -6   1  262.67   20.20
   8   6  -1  257.87   18.20
  -8   6   1  262.37   25.50
  -8   6   1  298.77   21.60
  -8  -6   1  244.28   17.00
  -8   6  -1  249.68   22.80
  -8   6  -1  280.37   21.30
   8   6   1  252.37   18.10
   8  -6  -1  294.37   21.40
 -10  -6  -1   62.09    9.90
  10  -6   1   68.59   11.30
  10   6  -1   64.39   10.20
  10   6   1   67.79   10.50
  10  -6  -1   84.49   12.20
   1  -7   1   14.70    4.90
  -1   7   1   11.50    2.70
  -1  -7  -1    6.90    2.80
  -1   7   1    6.70    3.10
   1  -7   1   13.20    2.30
   1   7  -1   10.20    2.00
   1   7  -1   14.70    3.30
   1  -7  -1    8.30    3.20
  -1  -7   1   14.30    3.80
   1  -7  -1   10.00    2.50
   1   7   1   13.40    3.20
  -1   7  -1   13.60    2.70
  -1   7  -1    7.90    3.10
   1   7   1    6.80    2.00
  -3   7   1    6.30    2.80
  -3   7   1    5.70    3.10
   3  -7   1    7.90    4.20
   3  -7   1    9.00    2.80
  -3  -7  -1    8.00    2.40
   3  -7  -1    8.30    3.90
  -3  -7   1   12.40    3.10
  -3   7  -1    5.00    2.90
  -3   7  -1    9.70    4.30
   3  -7  -1   11.30    3.30
  -5   7   1   11.10    6.10
   5  -7   1   10.60    4.30
  -5   7   1    7.20    4.00
   5  -7   1    4.80    3.10
  -5  -7  -1    9.80    3.30
   5  -7  -1    3.50    3.30
  -5   7  -1    5.70    3.70
  -5  -7   1    4.70    2.50
  -5   7  -1    4.30    4.30
   5  -7  -1    5.80    3.50
  -7  -7  -1    9.70    3.30
  -7   7   1   13.70    6.70
   7   7  -1    5.40    2.70
  -7   7   1    3.30    3.70
   7  -7   1    9.60    4.40
  -7  -7   1   11.10    3.20
   7  -7  -1    5.50    4.40
   7  -7  -1   14.60    6.10
  -7   7  -1    4.60    4.00
   7   7   1    7.40    3.30
   9  -7   1    6.40    5.00
   9   7  -1    5.50    3.60
  -9  -7   1    3.90    3.40
  -9  -7   1    4.00    3.00
   9   7   1   -0.30    2.80
   9  -7  -1   -3.30    4.40
   0   8   1  965.00   51.69
   0  -8  -1 1033.10   54.79
   0   8  -1  973.60   53.69
   0   8   1  961.90   53.59
   0   8  -1  960.00   50.89
   0  -8   1 1020.90   56.19
   2   8  -1  382.46   21.20
  -2  -8  -1  364.16   23.50
   2   8  -1  377.66   22.00
   2  -8   1  375.16   21.60
   2  -8   1  413.66   28.90
  -2   8   1  387.56   23.20
  -2   8   1  353.16   25.80
  -2   8  -1  382.16   27.00
  -2  -8   1  381.66   24.10
   2  -8  -1  383.96   26.50
   2   8   1  409.76   22.20
   2  -8  -1  379.76   22.80
   4  -8   1  548.95   33.90
   4  -8   1  626.44   38.60
  -4   8   1  534.45   39.20
  -4   8   1  607.94   35.80
  -4  -8  -1  553.24   33.10
  -4   8  -1  638.64   40.20
  -4   8  -1  674.33   36.80
   4  -8  -1  520.35   34.40
  -4  -8   1  587.04   33.00
   4  -8  -1  575.74   39.30
  -6   8   1  173.38   18.50
  -6  -8  -1  140.79   11.60
   6   8  -1  143.49   10.80
   6  -8   1  146.39   13.40
  -6   8   1  144.59   22.70
   6  -8   1  160.08   15.60
  -6  -8   1  145.79   11.00
   6  -8  -1  131.59   13.70
  -6   8  -1  170.38   17.70
   6  -8  -1  166.58   16.10
  -6   8  -1  142.59   14.00
   8   8  -1  255.07   17.40
  -8  -8  -1  228.18   17.00
   8  -8   1  243.28   19.40
   8   8   1  232.08   17.30
   8  -8  -1  265.37   21.70
  -8  -8   1  229.38   15.80
   8  -8  -1  251.77   20.10
  10  -8   1   49.30   10.30
 -10  -8  -1   65.39    9.40
  10   8  -1   49.90    9.20
 -10  -8   1   52.99    7.60
  10  -8  -1   77.19   13.40
  10   8   1   64.99    9.80
 -10  -8   1   62.19    8.80
  -1   9   1   21.40    5.70
  -1  -9  -1   18.90    5.00
   1  -9   1   19.50    6.50
   1   9  -1   24.60    3.70
  -1   9   1   14.50    3.10
   1   9  -1   20.20    4.30
  -1   9  -1   13.20    3.30
   1  -9  -1   16.60    5.30
   1   9   1   18.70    3.50
  -1  -9   1   20.20    6.00
   1   9   1   24.00    5.20
  -1   9  -1   15.60    5.00
   1  -9  -1   14.10    3.20
   3  -9   1   56.89   10.70
   3  -9   1   48.00    6.30
  -3  -9  -1   50.99    7.90
  -3   9   1   45.50    7.10
  -3   9   1   37.20    8.60
   3   9  -1   49.50    4.90
   3  -9  -1   42.40    6.90
   3  -9  -1   31.70    7.50
  -3  -9   1   41.20    7.00
  -3   9  -1   51.69    7.30
  -3   9  -1   38.40    8.60
   3   9   1   45.20    5.80
   5  -9   1    4.50    4.40
  -5   9   1    1.90    4.10
   5  -9   1    3.00    3.30
  -5   9   1    8.40    5.90
  -5  -9  -1    4.60    2.80
   5  -9  -1    1.50    3.20
  -5  -9   1    8.30    3.10
  -5   9  -1    4.00    5.60
  -5   9  -1    3.80    4.10
   5  -9  -1    3.30    3.60
  -7  -9  -1   16.90    4.90
   7   9  -1   22.00    4.50
   7  -9   1   24.20    6.30
   7  -9  -1   29.60    7.40
  -7  -9   1   17.90    4.60
   7  -9  -1   19.40    6.90
  -9  -9  -1   -4.60    3.60
   9   9  -1    1.10    3.50
   9  -9   1   -3.80    5.20
   9  -9  -1    6.20    6.20
  -9  -9   1   -1.40    3.70
   9   9   1    2.50    3.70
  -9  -9   1   -0.80    3.20
   0  10  -1  276.27   19.60
   0 -10   1  282.07   22.30
   0  10   1  243.78   19.00
   0  10   1  259.47   17.00
   0  10  -1  253.37   16.50
   0 -10  -1  281.07   20.70
   2  10  -1  160.08   10.80
  -2  10   1  126.49   14.60
   2  10  -1  140.79   11.40
   2 -10   1  148.19   10.50
   2 -10   1  168.18   17.40
  -2  10   1  140.59   12.20
  -2 -10  -1  147.19   13.20
  -2  10  -1  157.48   15.80
  -2 -10   1  143.39   13.80
   2 -10  -1  139.89   11.30
   2  10   1  166.58   11.40
   2 -10  -1  153.98   15.70
  -2  10  -1  141.39   11.70
  -4 -10  -1  304.37   20.70
   4 -10   1  329.67   25.10
  -4  10   1  239.68   25.10
   4  10  -1  292.77   18.20
   4 -10   1  278.47   19.60
  -4  10   1  292.07   22.80
  -4  10  -1  327.47   26.80
   4  10   1  313.87   19.20
   4 -10  -1  289.47   25.50
  -4 -10   1  303.17   20.80
  -4  10  -1  319.57   22.90
   4 -10  -1  271.07   20.50
   6 -10   1  161.78   14.50
   6 -10   1  187.78   17.70
  -6 -10  -1  158.78   13.30
   6 -10  -1  170.38   15.60
  -6 -10   1  147.39   13.10
   6 -10  -1  160.58   17.10
  -8 -10  -1  182.88   15.10
   8 -10   1  181.98   16.70
   8  10  -1  182.48   14.50
   8 -10  -1  233.08   35.10
  -8 -10   1  184.98   14.30
   8 -10  -1  176.48   17.40
   8  10   1  171.48   14.40
   1 -11   1    0.80    5.40
  -1  11   1   -2.80    3.40
   1  11  -1    8.50    3.60
   1  11  -1   -1.00    1.80
  -1  11   1    4.40    3.10
  -1 -11  -1    2.50    3.40
   1 -11  -1    5.00    4.60
  -1 -11   1    4.70    4.50
  -1  11  -1    4.40    3.00
  -1  11  -1    6.90    4.50
   1  11   1    0.00    3.20
   1  11   1    1.00    2.30
   3 -11   1   28.30    8.60
   3 -11   1   30.30    5.10
  -3 -11  -1   29.50    7.10
   3  11  -1   31.20    5.10
  -3  11   1   33.10   10.80
  -3  11  -1   34.50    9.80
   3 -11  -1   21.10    5.00
   3  11   1   34.80    5.70
  -3 -11   1   29.20    7.40
   3 -11  -1   36.90   10.20
  -3  11  -1   28.60    6.90
   5  11  -1   18.30    4.40
  -5 -11  -1   12.20    4.50
   5 -11   1   17.90    7.20
   5 -11   1   21.00    6.30
  -5 -11   1   13.70    5.50
  -5  11  -1   18.90    6.40
   5  11   1   32.70    6.30
   5 -11  -1   22.20    6.00
   5 -11  -1   25.90    9.20
   7 -11   1   37.00    8.10
   7 -11   1   33.30    9.30
  -7 -11  -1   31.50    6.90
   7  11  -1   32.20    6.10
  -7 -11   1   29.80    6.50
   7 -11  -1   37.00   10.40
   7 -11  -1   32.20    7.30
   7  11   1   25.40    5.70
   0 -12  -1  150.98   16.70
   0  12   1  179.48   16.40
   0  12  -1  147.79   15.20
   0  12  -1  177.08   13.40
   0 -12   1  176.88   19.20
   0  12   1  170.98   13.50
  -2  12   1   29.00    8.80
   2 -12   1   46.60   11.10
   2  12  -1   30.90    5.40
  -2  12   1   33.10    6.60
  -2 -12  -1   30.30    8.00
   2 -12  -1   37.00   10.20
  -2  12  -1   36.70    7.10
  -2 -12   1   21.40    6.80
   2  12   1   32.90    6.00
  -4 -12  -1  158.28   14.80
   4 -12   1  135.19   11.50
   4 -12   1  187.28   18.40
   4  12  -1  142.19   11.70
   4  12   1  150.78   12.80
  -4 -12   1  136.09   14.60
  -4  12  -1  153.18   16.20
   4 -12  -1  132.79   19.40
   4 -12  -1  134.19   12.70
   6 -12   1   22.30    7.70
  -6 -12  -1   20.20    6.30
   6  12  -1   22.10    5.20
  -6 -12   1   23.60    6.80
   6 -12  -1   19.80   10.40
   6 -12  -1   18.80    7.10
   1 -13   1    5.90    6.70
   1  13  -1   21.40    4.60
  -1  13   1   20.70    5.80
  -1  13   1    8.00    6.20
   1  13  -1   24.50    7.20
  -1 -13  -1   12.60    6.20
  -1 -13   1    9.10    7.20
   1  13   1   17.50    5.30
   1 -13  -1    6.80    6.60
  -1  13  -1    7.80    5.30
  -1  13  -1    9.90    7.20
   3 -13   1   20.70    8.90
  -3 -13  -1   14.60    6.70
   3  13  -1   19.70    4.80
  -3 -13   1   15.50    7.10
   3  13   1   26.60    5.50
   3 -13  -1   20.20    4.80
   3 -13  -1   45.60   11.50
  -5 -13  -1   -5.60    5.00
   5 -13   1    7.60    6.80
   5  13  -1   -4.30    3.90
   5 -13   1    2.20    4.10
  -5 -13   1    9.80    6.00
   5 -13  -1    1.40    6.70
   5 -13  -1   -0.40    4.90
   0 -14  -1    4.30    6.80
   0 -14   1   -6.00    6.00
   0  14  -1    1.40    6.30
   0  14  -1    8.10    4.80
   2 -14   1   27.70    9.50
   2  14  -1   23.30    6.00
  -2 -14  -1   16.10    7.30
  -2 -14   1   23.00    9.00
   2 -14  -1   23.10    9.90
  -4 -14  -1   -5.90    6.30
   4  14  -1    0.90    4.60
   4 -14   1   -4.60    4.80
  -4 -14   1    6.00    9.50
   4 -14  -1    5.80    7.20
   4 -14  -1    0.80    4.70
   1 -15   1    3.90    6.30
  -1 -15  -1    4.20    7.70
  -1 -15   1    8.70    9.20
   1 -15  -1   -9.90    8.10
   0   0  -2  845.02   42.00
   0   0   2  846.22   42.00
   2   0  -2 1277.67   62.89
  -2   0   2 1270.07   62.69
  -2   0  -2 1265.17   62.59
   2   0  -2 1179.38   63.29
   2   0   2 1189.28   62.39
  -2   0   2 1286.47   62.59
  -4   0   2  409.66   22.40
   4   0  -2  377.06   22.80
  -4   0   2  417.16   24.80
  -4   0  -2  393.66   22.40
   4   0   2  376.46   22.30
   4   0  -2  399.86   23.10
  -6   0  -2 4659.93  232.88
   6   0   2 4447.16  232.58
  -6   0   2 4540.15  232.18
  -6   0   2 5187.18  236.58
   6   0  -2 4505.05  233.38
   8   0  -2  477.45   31.40
  -8   0   2  546.75   33.40
  -8   0   2  502.35   30.20
   8   0   2  479.75   30.80
  -8   0  -2  541.75   31.50
  -8   0  -2  479.55   31.80
  10   0  -2  769.82   47.60
 -10   0   2  818.52   45.70
 -10   0   2  797.72   48.10
  10   0   2  737.13   46.20
 -10   0  -2  824.92   48.40
 -10   0  -2  712.93   48.40
   1  -1   2 1031.00   52.99
   1   1  -2 1058.49   52.19
  -1   1   2 1123.69   54.09
  -1   1   2 1040.20   53.49
  -1   1  -2 1034.90   53.09
   1  -1  -2 1059.99   53.29
   1  -1  -2 1071.59   53.59
  -3   1   2  332.77   20.50
  -3   1   2  312.97   19.70
   3   1  -2  359.06   18.80
   3  -1   2  331.67   19.20
  -3  -1   2  329.27   19.30
   3  -1  -2  327.37   20.60
   3  -1  -2  346.17   21.20
   3   1   2  356.16   18.80
  -3   1  -2  332.97   19.30
  -3  -1   2  347.57   17.90
  -5   1   2  717.53   40.80
  -5  -1  -2  751.52   40.00
   5  -1   2  747.93   40.70
  -5   1   2  806.02   44.10
  -5   1  -2  734.13   40.80
   5  -1  -2  708.43   41.70
  -5  -1   2  830.52   43.00
  -5  -1   2  752.22   39.10
  -5   1  -2  675.33   41.00
   5  -1  -2  725.23   41.70
  -7  -1  -2  108.49    9.50
  -7   1   2  111.89   10.00
   7  -1   2  109.99   10.00
  -7   1   2  136.19   12.90
   7   1  -2  107.09   10.00
   7  -1  -2  109.39   10.90
  -7   1  -2   85.79   10.00
  -7  -1   2  101.79   11.00
   7   1   2  107.49    9.80
  -7   1  -2   93.99    9.80
  -7  -1   2  103.99    9.90
  -9   1   2  233.48   18.30
  -9  -1  -2  241.68   19.60
   9   1  -2  252.57   25.60
  -9   1   2  262.57   21.10
   9  -1   2  254.27   19.30
  -9  -1   2  262.47   17.50
  -9   1  -2  259.57   19.70
   9   1   2  210.08   17.90
   9  -1  -2  223.78   19.80
  -9   1  -2  252.67   21.30
  -9  -1   2  253.47   19.90
 -11  -1  -2  298.77   28.70
 -11   1   2  297.67   25.60
  11   1  -2  282.37   23.80
  11  -1   2  276.17   23.20
  11   1   2  273.77   22.60
 -11  -1   2  327.57   25.00
  11  -1  -2  299.27   25.10
   0  -2  -2   38.00    3.20
   0   2   2   27.30    2.70
   0  -2  -2   34.20    2.80
   0   2  -2   38.20    3.30
   4   2  -2 1485.25   71.99
   4  -2   2 1349.36   73.59
  -4   2   2 1247.58   75.89
  -4   2   2 1334.27   74.09
   4  -2  -2 1426.36   75.89
  -4   2  -2 1492.45   74.19
  -4  -2   2 1599.64   75.09
   6  -2   2 1865.11  100.39
  -6   2   2 2191.58  105.09
   6   2  -2 1896.71   99.19
  -6   2   2 1860.01  100.79
   6  -2  -2 1995.80  101.99
  -6  -2   2 1970.30  101.49
   6  -2  -2 1952.50  102.39
  -6   2  -2 1789.72  101.79
   6   2   2 1969.80   99.49
  -6   2  -2 1938.11  100.99
  -8   2   2 1253.47   65.79
  -8   2   2 1054.29   61.69
   8   2  -2 1139.69   61.19
   8  -2   2 1055.89   61.59
  -8   2  -2  975.00   63.49
  -8  -2   2 1204.08   62.99
  -8   2  -2 1088.39   62.29
   8   2   2 1171.88   61.19
   8  -2  -2 1118.39   63.59
  10  -2   2 1044.70   61.09
 -10   2   2 1047.00   60.29
  10   2  -2 1050.99   60.29
 -10   2   2 1164.98   63.89
 -10  -2  -2  950.20   59.99
 -10   2  -2  896.71   63.29
  10   2   2 1052.69   59.89
  10  -2  -2 1120.49   62.79
 -10  -2   2 1150.58   61.19
  -1  -3  -2 4086.89  203.58
   1  -3   2 4076.49  202.48
  -1   3   2 4043.40  203.48
   1   3  -2 4109.09  202.58
  -1   3   2 4254.87  204.48
   1  -3   2 4535.85  205.78
  -1  -3   2 4059.29  203.48
  -1   3  -2 3793.32  203.48
   1  -3  -2 4280.47  203.78
  -1   3  -2 4218.48  206.48
   1   3   2 3933.81  202.98
   1  -3  -2 4075.89  204.18
   3  -3   2  220.08   15.10
   3   3  -2  244.08   12.50
  -3   3   2  242.08   16.60
   3  -3  -2  225.98   16.00
  -3   3  -2  232.98   15.30
   3  -3  -2  181.58   14.80
  -3   3  -2  244.28   16.80
   5  -3   2 3563.54  176.98
  -5   3   2 3633.54  180.98
   5   3  -2 3524.85  174.18
   5   3   2 3353.76  174.48
   5  -3  -2 3603.44  177.88
  -5   3  -2 3401.66  179.08
  -5  -3   2 3386.06  174.18
   5  -3  -2 3591.84  178.88
  -5   3  -2 3469.65  177.18
   7   3  -2  492.05   30.30
  -7   3   2  604.84   36.50
   7  -3   2  503.45   32.20
  -7   3   2  524.15   32.60
  -7   3  -2  545.95   35.30
   7  -3  -2  537.65   33.30
   7   3   2  492.05   30.40
  -7  -3   2  495.15   31.30
  -7   3  -2  522.45   32.80
   7  -3  -2  544.95   33.50
  -9  -3  -2  128.39   12.80
  -9   3   2  154.68   16.60
   9  -3   2  144.89   14.40
  -9   3   2  138.39   14.00
   9   3  -2  138.69   13.10
   9   3   2  160.38   13.70
   9  -3  -2  148.99   15.10
  -9   3  -2  158.78   15.40
  -9   3  -2  164.58   23.60
  -9  -3   2  133.89   13.50
  11  -3   2  364.06   29.10
  11   3  -2  378.86   28.10
 -11  -3  -2  352.56   28.00
 -11  -3   2  432.36   28.40
  11  -3  -2  366.06   28.40
  11   3   2  407.46   28.00
   0   4  -2  255.47   16.60
   0  -4   2  278.37   17.90
   0   4   2  266.17   15.20
   0   4  -2  263.17   14.00
   0  -4  -2  268.07   16.00
   0   4   2  268.47   16.00
   0  -4  -2  290.67   15.30
   2  -4   2  250.37   15.50
  -2   4   2  294.67   16.50
   2  -4   2  256.07   18.40
  -2   4   2  249.58   17.20
  -2  -4  -2  258.77   15.60
   2  -4  -2  289.47   16.70
  -2  -4   2  259.57   14.90
  -2   4  -2  268.77   16.70
   2  -4  -2  255.77   17.00
  -4   4   2  253.27   17.20
   4   4  -2  232.78   13.30
  -4   4   2  219.58   18.30
   4  -4   2  240.78   16.30
   4  -4  -2  243.28   18.80
   4  -4  -2  227.08   16.70
  -4   4  -2  236.28   19.30
  -4  -4   2  231.28   12.60
  -4   4  -2  221.88   16.30
  -6   4   2 2070.09  105.39
   6   4  -2 1992.20  101.89
  -6   4   2 2241.18  110.09
   6  -4   2 2023.40  105.29
  -6   4  -2 1788.32  104.89
  -6   4  -2 1926.51  108.89
   6  -4  -2 2154.18  107.09
   6   4   2 1963.80  102.19
   6  -4  -2 2066.79  105.79
  -6  -4   2 1882.31  101.39
   8  -4   2  362.86   25.60
  -8   4   2  372.16   28.30
  -8   4   2  405.86   26.20
   8   4  -2  370.46   23.60
  -8   4  -2  349.57   28.40
  -8   4  -2  359.16   28.10
  -8  -4   2  353.56   24.10
   8   4   2  342.77   23.20
 -10   4   2  355.46   27.50
  10   4  -2  336.77   23.30
 -10  -4  -2  306.77   22.60
  10  -4   2  343.07   25.20
  10   4   2  261.57   21.90
 -10  -4   2  312.17   22.90
  10  -4  -2  274.57   23.60
   1  -5   2    9.40    1.40
  -1   5   2    8.70    2.20
  -1   5   2   24.10    4.30
  -1  -5  -2    9.60    2.60
   1   5  -2    9.40    2.00
   1  -5   2   19.70    5.70
  -1   5  -2    6.10    3.40
  -1  -5   2   16.20    3.90
   1  -5  -2   12.20    2.80
   1  -5  -2    7.70    2.20
   1   5   2    8.30    2.00
  -3  -5  -2 1101.89   58.49
  -3   5   2 1115.59   62.49
   3  -5   2 1026.80   59.09
  -3   5   2 1092.69   59.89
   3  -5   2 1225.88   63.39
   3  -5  -2 1065.29   61.49
  -3  -5   2 1205.18   57.39
  -3   5  -2 1153.28   60.39
  -3   5  -2 1239.88   64.69
   3  -5  -2 1074.79   60.09
  -5   5   2   19.70    5.00
  -5   5   2   21.30    6.20
   5   5  -2    7.20    2.00
   5  -5   2    9.50    3.40
  -5   5  -2   18.90    6.50
  -5  -5   2   15.60    2.40
   5   5   2   13.90    3.10
  -5   5  -2   19.70    4.90
   5  -5  -2   14.40    5.20
   5  -5  -2   12.60    4.40
   7   5  -2    6.00    2.90
  -7   5   2    5.40    3.10
  -7   5   2    2.60    4.50
   7  -5   2    0.80    2.70
  -7   5  -2   -3.80    3.90
   7   5   2    2.10    2.10
   7  -5  -2    3.80    2.90
  -7  -5   2    4.50    2.30
   7  -5  -2    0.40    3.10
  -7   5  -2   -1.90    3.20
  -9   5   2 1192.88   66.59
   9  -5   2 1041.70   61.19
  -9   5  -2 1105.49   67.99
  -9  -5   2 1041.90   59.59
   9   5   2 1018.80   59.29
   9  -5  -2 1090.29   62.19
 -11  -5  -2  161.48   17.60
  11  -5   2  190.38   18.30
  11   5  -2  192.58   17.80
  11   5   2  192.48   28.80
  11  -5  -2  199.28   19.50
   0   6  -2   23.60    4.70
   0   6   2   20.50    3.10
   0  -6   2   23.80    6.70
   0   6   2   24.40    4.50
   0   6  -2   21.70    2.40
   0  -6  -2   20.70    3.30
   0  -6  -2   16.80    3.80
   2  -6   2 3961.50  179.58
  -2  -6  -2 3401.36  174.18
  -2   6   2 3317.77  174.18
  -2   6   2 3382.66  176.78
   2   6  -2 3392.96  172.18
   2  -6   2 3465.95  172.68
   2  -6  -2 3572.34  174.68
  -2  -6   2 3517.15  174.58
  -2   6  -2 3524.95  174.58
  -2   6  -2 3476.95  178.88
   2  -6  -2 3306.47  176.18
   2   6   2 3530.65  173.28
  -4   6   2  740.53   47.40
  -4   6   2  758.52   44.50
   4  -6   2  782.02   43.20
   4  -6   2  877.41   47.30
  -4  -6  -2  764.42   41.90
   4  -6  -2  694.33   43.90
  -4   6  -2  794.42   44.20
  -4  -6   2  788.62   40.40
   4  -6  -2  726.93   46.40
  -4   6  -2  827.72   47.90
   6  -6   2  108.19   10.70
  -6   6   2  113.49   11.70
   6   6  -2  106.39    8.40
  -6   6   2  118.29   14.50
  -6   6  -2   80.39   12.70
   6  -6  -2  124.09   11.90
  -6  -6   2  102.99    7.40
  -6   6  -2   96.39   10.60
   6  -6  -2  108.79   12.40
  -8   6   2  753.52   44.00
  -8   6   2  749.03   52.49
   8  -6   2  737.93   42.90
   8   6  -2  740.73   40.80
   8  -6  -2  750.52   44.20
  -8   6  -2  673.33   46.20
   8  -6  -2  725.63   44.50
   8   6   2  693.53   40.80
  -8  -6   2  713.53   39.60
  -8   6  -2  729.43   44.20
  -8  -6   2  632.24   39.60
  10  -6   2  207.68   18.30
  10   6  -2  225.98   18.00
  10   6   2  191.28   17.00
  10  -6  -2  215.18   19.50
 -10  -6   2  202.28   16.30
  -1   7   2 5362.46  259.17
  -1   7   2 5010.70  256.27
   1   7  -2 4947.00  253.87
   1  -7   2 5894.51  260.77
   1   7  -2 5037.10  251.87
  -1  -7  -2 5078.29  255.17
   1   7   2 5115.59  253.37
   1  -7  -2 4965.40  256.27
  -1  -7   2 5170.58  260.87
  -1   7  -2 4881.91  257.37
   1   7   2 5040.30  254.57
  -1   7  -2 5042.60  253.27
   1  -7  -2 5093.09  253.77
  -3  -7  -2  493.65   27.60
  -3   7   2  463.95   28.10
   3  -7   2  531.15   32.30
  -3   7   2  411.56   30.50
   3  -7   2  446.06   26.70
  -3  -7   2  471.75   27.20
  -3   7  -2  493.55   32.50
   3   7   2  492.55   26.70
   3  -7  -2  466.55   28.40
   3  -7  -2  452.35   30.30
  -5  -7  -2 4788.32  239.48
  -5   7   2 4802.62  242.88
   5  -7   2 5094.09  245.18
   5  -7   2 4798.72  240.98
   5  -7  -2 4633.84  245.88
  -5   7  -2 5053.29  242.48
  -5   7  -2 5007.90  246.68
   5  -7  -2 4560.74  242.28
  -5  -7   2 4486.55  237.38
  -7   7   2  830.62   47.80
   7   7  -2  800.02   43.40
   7  -7   2  808.72   46.50
  -7   7   2  877.21   55.19
  -7   7  -2  829.02   47.70
  -7   7  -2  787.62   50.69
  -7  -7   2  713.43   41.50
   7  -7  -2  796.42   49.00
   7   7   2  733.03   43.70
   7  -7  -2  842.92   48.00
   9  -7   2  426.06   28.50
   9   7  -2  400.26   26.40
   9  -7  -2  441.16   29.60
   9   7   2  418.06   26.80
  -9  -7   2  371.86   25.20
   0   8   2   74.79    7.00
   0   8  -2   80.49    6.40
   0  -8   2  100.19   11.40
   0   8  -2   94.99    9.10
   0  -8  -2   92.09    9.30
   0   8   2   89.69   10.10
  -2  -8  -2 1018.70   55.79
   2  -8   2 1029.90   52.69
  -2   8   2 1024.30   58.59
  -2   8   2 1008.90   55.19
   2  -8   2 1226.08   61.49
   2   8  -2 1015.30   53.59
   2   8  -2 1048.20   52.59
   2   8   2 1050.39   54.09
  -2   8  -2  996.70   54.89
  -2   8  -2  954.90   59.89
  -2  -8   2 1028.00   56.89
   2  -8  -2 1034.40   55.19
   2  -8  -2  990.40   57.89
  -4   8   2  345.17   24.00
  -4   8   2  314.07   26.60
  -4  -8  -2  374.96   22.70
   4  -8   2  322.07   22.10
   4  -8   2  380.76   26.70
   4  -8  -2  352.06   27.00
  -4   8  -2  422.26   25.10
   4  -8  -2  351.86   23.90
  -4   8  -2  379.56   27.90
   4   8   2  380.96   21.80
  -4  -8   2  317.37   21.50
  -6   8   2   48.70    8.70
  -6  -8  -2   56.29    7.00
   6   8  -2   61.89    6.00
   6  -8   2   54.59    8.50
  -6   8   2   37.00   10.40
   6  -8  -2   57.39    9.40
   6  -8  -2   46.70   10.00
  -6   8  -2   49.99   10.20
  -6   8  -2   64.49    9.50
  -6  -8   2   45.20    5.80
   8  -8   2  448.86   29.60
   8   8  -2  444.86   26.80
  -8  -8  -2  407.66   27.10
  -8  -8   2  439.06   24.60
   8   8   2  409.16   26.90
   8  -8  -2  469.15   30.80
   8  -8  -2  432.86   31.30
 -10  -8  -2   18.00    5.90
  10  -8   2   18.50    7.40
  10   8  -2    9.50    5.60
  10  -8  -2   20.70    7.80
  10   8   2   19.60    6.30
   1   9  -2   61.99    5.30
  -1  -9  -2   53.89    8.20
  -1   9   2   76.79   10.40
   1  -9   2   68.59   10.80
  -1   9   2   59.69    6.40
   1   9  -2   52.89    6.60
  -1   9  -2   63.69    6.30
   1  -9  -2   52.19    8.40
   1   9   2   61.99    6.30
   1   9   2   57.89    7.20
  -1   9  -2   71.89   10.60
  -1  -9   2   64.59   10.40
   1  -9  -2   60.09    6.60
  -3   9   2 1048.00   62.69
  -3  -9  -2 1063.19   58.39
   3   9  -2 1104.29   55.09
   3  -9   2 1221.58   63.89
  -3   9   2 1001.80   57.99
   3  -9  -2 1065.69   58.29
   3   9   2 1067.79   56.69
  -3   9  -2 1136.69   64.29
  -3  -9   2  979.70   58.49
  -3   9  -2 1070.99   59.19
   3  -9  -2 1025.40   61.89
  -5   9   2   37.40    9.80
   5  -9   2   40.60    7.10
  -5  -9  -2   51.19    7.80
   5  -9   2   61.89   10.90
  -5   9   2   50.49    9.40
  -5   9  -2   36.60    8.30
  -5   9  -2   43.90    8.30
  -5  -9   2   40.90    9.30
   5  -9  -2   22.00    5.90
   5  -9  -2   41.00    9.30
   7  -9   2   30.10    7.50
   7   9  -2   24.90    4.60
  -7  -9  -2   25.10    6.00
   7  -9  -2   18.00    6.90
  -7  -9   2   24.10    4.50
   7   9   2   21.40    5.10
   7  -9  -2   17.40    6.20
   9   9  -2  918.21   52.69
   9  -9   2  976.00   55.19
  -9  -9  -2  904.61   52.79
   9   9   2  920.61   53.09
   9  -9  -2 1008.00   56.89
   9  -9  -2  890.81   56.69
   0  10  -2   39.80    7.40
   0 -10  -2   42.50    8.60
   0  10  -2   33.40    7.20
   0 -10   2   32.30    8.20
   0  10   2   37.40    5.70
   0  10   2   33.30    6.80
   2 -10   2   72.69   11.80
  -2 -10  -2   59.09    8.70
  -2  10   2   70.59   11.80
   2  10  -2   69.59    7.10
   2  10  -2   68.69    6.00
  -2  10   2   69.69    7.80
   2 -10  -2   48.80    9.50
  -2 -10   2   68.89   11.10
  -2  10  -2   58.99    8.10
  -2  10  -2   44.80    9.70
   2  10   2   67.69    7.20
  -4  10   2  219.18   27.90
   4  10  -2  251.07   15.40
  -4  10   2  236.28   19.00
  -4 -10  -2  249.08   18.30
   4 -10   2  285.57   22.30
   4 -10   2  245.78   16.60
  -4  10  -2  261.07   19.70
   4 -10  -2  214.98   18.30
  -4 -10   2  262.07   18.90
   4  10   2  242.68   16.90
  -4  10  -2  255.57   23.10
   4 -10  -2  217.48   22.00
  -6 -10  -2  367.96   24.70
   6 -10   2  395.66   25.20
   6  10   2  351.96   23.90
   6 -10  -2  383.16   29.50
   6 -10  -2  376.36   26.60
  -6 -10   2  368.46   25.90
   8  10  -2  313.97   21.60
   8 -10   2  364.76   24.60
  -8 -10  -2  340.67   23.50
   8 -10  -2  291.77   34.00
   8  10   2  314.27   22.30
   8 -10  -2  346.67   26.00
  -1  11   2 1911.61  105.59
   1  11  -2 2083.99  103.89
  -1  11   2 1961.50  109.19
   1  11  -2 2071.39  106.49
  -1 -11  -2 1954.50  108.49
   1 -11   2 2350.36  113.89
  -1  11  -2 2040.80  109.79
  -1 -11   2 2068.49  112.69
   1 -11  -2 1924.41  109.79
  -1  11  -2 2038.40  105.09
   1  11   2 2093.79  105.39
   3 -11   2  264.47   21.90
   3  11  -2  239.38   15.20
  -3  11   2  219.98   17.60
   3 -11   2  231.08   16.60
  -3  11   2  234.98   22.60
  -3 -11  -2  231.48   18.60
   3 -11  -2  239.08   17.50
  -3  11  -2  230.88   22.90
  -3 -11   2  214.28   19.50
  -3  11  -2  255.07   18.90
   3 -11  -2  217.08   21.40
   3  11   2  243.28   16.60
   5  11  -2 1959.30  100.39
   5 -11   2 1839.32  101.79
   5 -11   2 2116.19  108.89
  -5 -11  -2 1934.31  103.79
   5 -11  -2 1781.02  104.19
  -5  11  -2 2187.48  106.39
  -5 -11   2 2052.49  104.09
   5 -11  -2 1892.81  109.89
   5  11   2 1940.81  102.29
   7  11  -2  360.76   24.00
   7 -11   2  380.56   26.10
  -7 -11  -2  409.36   26.70
   7 -11  -2  438.36   29.30
   7  11   2  373.16   25.00
   0 -12  -2   37.30    8.60
   0  12  -2   22.50    6.90
   0 -12   2   25.80    8.20
   0  12  -2   34.10    5.70
   0  12   2   31.30    6.50
   2  12  -2 2805.82  139.99
  -2  12   2 2855.41  143.19
  -2  12   2 2510.95  146.99
  -2 -12  -2 2782.82  145.39
  -2 -12   2 2849.81  148.99
  -2  12  -2 2851.91  155.18
   2 -12  -2 2660.43  148.09
  -2  12  -2 2771.22  142.69
   2  12   2 2863.31  143.79
   4 -12   2  449.36   27.90
   4 -12   2  539.45   36.50
   4  12  -2  509.05   28.90
  -4 -12  -2  512.45   33.10
   4  12   2  523.75   30.90
  -4 -12   2  498.55   34.00
   4 -12  -2  441.36   33.60
   4 -12  -2  483.55   38.00
  -4  12  -2  533.55   33.90
   6  12  -2  333.57   22.00
  -6 -12  -2  336.57   24.90
   6 -12   2  358.86   23.40
   6 -12  -2  351.16   32.40
   6 -12  -2  322.27   25.00
  -6 -12   2  337.47   24.40
   1  13  -2   29.70    5.50
   1  13  -2   34.30    7.70
   1 -13   2   50.09   11.30
  -1 -13  -2   26.10    8.00
  -1  13  -2   33.80    9.10
   1  13   2   33.10    6.60
  -1  13  -2   18.90    5.50
   1 -13  -2   38.80   10.20
  -1 -13   2   30.00    9.90
   3  13  -2  242.58   17.30
  -3 -13  -2  263.47   21.50
   3 -13   2  285.17   24.30
   3 -13  -2  248.58   18.70
  -3  13  -2  258.57   21.40
   3 -13  -2  271.37   26.50
  -3 -13   2  252.17   23.30
  -5 -13  -2   35.70    8.60
   5 -13   2   56.09    7.60
   5 -13   2   49.70   12.00
   5 -13  -2   55.99    9.50
   5 -13  -2   43.60    9.80
  -5 -13   2   57.09   10.80
   0 -14   2  184.38   20.40
   0 -14  -2  154.78   18.90
   0  14  -2  189.88   18.70
   0  14  -2  175.18   15.60
   2 -14   2  132.19   16.40
  -2 -14  -2   99.39   15.90
  -2 -14   2  124.49   18.00
   2 -14  -2   87.19   15.70
  -4 -14  -2   47.10   10.60
   4 -14   2   26.20    9.50
   4  14  -2   32.10    6.90
   4 -14  -2   34.90   10.60
  -4 -14   2   48.90   11.10
   4 -14  -2   26.60    6.90
   0   0  -3    2.70    0.80
   0   0   3    3.70    0.90
   2   0  -3    1.50    1.40
   2   0   3    3.30    1.20
   2   0  -3    2.30    1.20
  -2   0   3    3.50    1.20
  -2   0  -3    1.60    1.00
  -4   0   3    8.10    2.60
  -4   0  -3    1.80    1.50
   4   0   3    2.20    1.50
   4   0  -3    2.60    1.90
   4   0  -3    7.20    2.60
  -4   0   3    3.90    1.70
  -6   0  -3    3.70    2.70
  -6   0   3    3.40    2.20
   6   0   3    2.80    2.30
   6   0  -3    1.20    1.80
  -6   0   3    6.20    3.60
   8   0   3   -0.80    2.30
  -8   0   3   -3.20    3.30
   8   0  -3    0.50    2.70
  -8   0   3    3.10    2.90
  -8   0  -3    4.40    3.30
  -8   0  -3    3.00    2.90
 -10   0   3    1.20    5.40
 -10   0   3    4.10    4.50
  10   0  -3   -0.70    3.80
 -10   0  -3    0.10    5.10
  10   0   3    6.00    3.90
  -1   1   3  450.15   23.70
  -1   1   3  477.65   23.60
   1  -1   3  442.86   23.10
   1   1  -3  392.46   22.80
  -1   1  -3  443.16   23.10
   1  -1  -3  470.55   23.80
   1  -1  -3  451.45   23.50
   1   1   3  439.16   23.30
   3   1  -3   22.00    3.30
   3  -1   3   21.10    3.30
   3   1  -3   27.00    3.20
  -3   1   3   21.30    3.80
  -3   1   3   22.00    3.90
   3   1   3   19.20    2.90
  -3  -1   3   28.70    2.60
  -3   1  -3   21.10    3.40
   3  -1  -3   27.60    4.20
   3  -1  -3   31.50    4.90
  -3  -1   3   33.90    2.60
   5  -1   3  551.44   32.00
  -5   1   3  570.14   32.50
  -5   1   3  520.15   34.00
  -5  -1   3  566.64   30.40
  -5  -1   3  543.65   32.60
  -5   1  -3  628.64   34.70
   5   1   3  584.04   31.80
   5  -1  -3  561.44   34.10
   5  -1  -3  608.04   33.70
   7  -1   3    2.60    2.40
  -7   1   3    3.00    3.90
  -7   1   3    2.60    2.90
   7   1  -3   10.70    3.70
  -7  -1   3    6.70    2.60
   7   1   3    5.00    2.70
  -7   1  -3    4.10    2.90
   7  -1  -3    2.60    2.60
  -7  -1   3    9.80    4.70
  -7   1  -3    3.10    2.80
  -9   1   3  239.68   20.10
   9  -1   3  224.88   17.80
  -9   1   3  238.48   17.70
   9   1  -3  210.28   24.50
  -9  -1  -3  210.78   18.00
  -9   1  -3  189.58   18.40
  -9  -1   3  216.18   15.70
  -9   1  -3  260.17   19.20
  -9  -1   3  213.98   18.90
   9  -1  -3  224.58   19.20
   9   1   3  216.78   17.30
 -11   1   3   13.80    7.60
  11  -1   3    7.80    5.80
 -11   1   3    9.20    8.10
  11   1  -3   12.10    7.40
  11   1   3   19.00    6.30
 -11  -1   3   10.20    7.70
  11  -1  -3   21.80    7.80
   0   2  -3   24.00    2.10
   0   2   3   22.20    2.40
   0   2  -3   20.00    1.50
   0  -2  -3   25.50    2.80
   0  -2  -3   24.00    2.50
  -2   2   3  613.04   35.80
   2   2  -3  671.13   33.70
   2  -2   3  646.24   35.30
  -2   2   3  708.83   36.20
  -2   2  -3  706.33   35.80
   2  -2  -3  685.83   36.30
   2  -2  -3  681.33   35.90
   4  -2   3    2.70    2.20
  -4   2   3    0.80    1.50
  -4   2   3    6.50    2.80
   4   2  -3    6.40    1.90
  -4   2  -3    4.10    2.00
   4  -2  -3    8.00    3.20
   4  -2  -3    2.30    2.40
  -4   2  -3    3.30    1.90
  -4  -2   3    5.90    1.60
   4   2   3    6.00    1.80
   6   2  -3  220.78   14.70
  -6   2   3  191.58   17.70
  -6   2   3  193.08   15.40
   6  -2   3  196.58   15.00
   6   2   3  216.48   14.50
   6  -2  -3  215.78   16.80
  -6   2  -3  206.88   15.60
  -6  -2   3  207.98   15.40
   6  -2  -3  233.48   16.70
  -8   2   3    1.20    3.60
  -8   2   3   11.90    5.50
   8  -2   3    6.70    3.30
   8   2  -3    5.60    3.60
   8  -2  -3    3.70    3.70
  -8   2  -3    7.50    3.90
  -8  -2   3   10.20    4.40
  -8   2  -3    5.00    3.80
   8   2   3    4.30    3.20
 -10   2   3  129.79   17.60
 -10  -2  -3  104.79   13.30
  10   2  -3  109.19   12.80
  10  -2   3  122.39   13.50
 -10   2   3  147.89   14.30
  10   2   3  141.79   13.50
 -10  -2   3  126.89   13.90
  10  -2  -3  124.79   15.00
  -1   3   3  281.77   16.20
   1  -3   3  295.27   14.80
   1   3  -3  268.27   16.30
  -1   3   3  294.27   16.80
  -1  -3  -3  286.87   16.50
   1  -3  -3  287.57   16.70
  -1   3  -3  236.68   15.90
  -1   3  -3  298.07   17.50
   1   3   3  293.07   15.90
   3   3  -3  482.15   24.70
  -3   3   3  465.65   28.20
  -3   3   3  500.35   28.70
   3  -3   3  464.35   27.40
  -3   3  -3  482.45   27.80
   3  -3  -3  486.55   28.20
  -3   3  -3  484.65   28.70
   5   3  -3  269.77   15.60
   5  -3   3  247.38   17.20
  -5   3   3  260.37   17.90
  -5   3   3  215.58   19.00
  -5   3  -3  252.87   17.80
   5   3   3  276.87   16.20
   5  -3  -3  278.27   19.00
   5  -3  -3  234.78   19.10
  -5  -3   3  239.98   15.10
  -7   3   3   18.60    6.70
   7   3  -3   13.80    3.70
   7  -3   3   12.90    4.30
  -7   3   3   16.30    4.80
  -7  -3   3   14.90    4.40
   7  -3  -3   16.90    5.10
   7  -3  -3   19.90    5.10
  -7   3  -3   11.90    4.30
  -7   3  -3    6.30    4.30
   7   3   3    8.60    3.20
  -9   3   3  315.07   24.00
   9   3  -3  330.97   23.30
   9  -3   3  317.57   23.90
  -9   3   3  412.26   28.80
  -9   3  -3  300.37   24.50
   9   3   3  324.27   22.90
  -9   3  -3  293.67   26.40
  -9  -3   3  363.86   23.50
   9  -3  -3  347.47   25.30
  11  -3   3   30.00    9.20
  11   3  -3    9.70    6.30
 -11  -3   3   23.40    7.10
  11  -3  -3   15.90    9.00
  11   3   3   21.60   10.50
   0  -4  -3  976.30   50.69
   0   4  -3 1035.50   49.00
   0   4  -3  965.60   53.19
   0  -4  -3  977.30   51.39
   0   4   3  988.00   51.49
   0   4   3  968.20   50.59
  -2   4   3  928.51   49.10
  -2   4   3  984.00   50.49
   2  -4   3  835.82   47.90
  -2   4  -3  978.70   52.19
   2   4   3  991.50   48.30
   2  -4  -3  944.11   49.90
   2  -4  -3  957.90   51.19
  -2   4  -3  841.92   49.10
   4   4  -3  239.88   13.50
   4  -4   3  259.97   16.80
  -4   4   3  244.58   18.40
   4  -4  -3  241.58   17.90
   4  -4  -3  213.08   16.80
  -4   4  -3  241.28   16.90
  -4   4  -3  230.58   18.30
  -6   4   3  242.48   17.30
   6   4  -3  220.58   14.40
   6  -4   3  214.68   16.60
  -6   4   3  249.97   20.50
   6  -4  -3  209.48   17.80
   6   4   3  218.18   14.80
   6  -4  -3  236.88   17.90
  -6   4  -3  200.18   18.40
  -6   4  -3  198.38   16.80
  -8   4   3   24.80    6.70
  -8   4   3   38.50    8.90
   8  -4   3   37.30    7.90
   8   4  -3   39.00    6.90
   8  -4  -3   34.10    7.50
  -8  -4   3   43.20    6.90
  -8   4  -3   40.10   10.20
   8  -4  -3   43.60    8.40
  -8   4  -3   32.50    7.80
  10  -4   3   92.99   13.20
 -10   4   3  109.39   16.70
  10   4  -3   85.19   11.90
  10   4   3   87.09   11.90
 -10  -4   3  120.29   11.70
  10  -4  -3   90.59   13.60
  -1  -5  -3   35.60    4.40
  -1   5   3   20.40    4.00
  -1   5   3   31.30    3.70
   1  -5   3   27.90    6.50
   1   5  -3   29.50    3.50
  -1  -5   3   32.50    4.90
   1  -5  -3   21.40    3.70
   1   5   3   27.70    3.40
   1  -5  -3   20.30    3.90
  -1   5  -3   29.10    3.80
  -1   5  -3   32.20    6.40
  -3   5   3   19.60    6.30
  -3   5   3   15.60    4.50
  -3  -5  -3   14.80    3.20
   3  -5   3   32.10    4.80
  -3   5  -3   21.10    4.20
   3  -5  -3   20.40    4.50
   3  -5  -3   17.30    4.00
   5  -5   3   86.09    8.70
  -5   5   3   65.99   10.80
  -5   5   3   71.39    9.80
   5   5  -3   95.89    6.40
   5  -5  -3   66.79   10.80
  -5   5  -3   46.20    9.60
   5  -5  -3   68.09   10.00
  -5   5  -3   65.19    9.40
   5   5   3   74.49    6.90
  -7   5   3   10.70    6.50
   7   5  -3   12.80    3.50
   7  -5   3    6.50    4.00
  -7   5   3    9.70    4.80
  -7   5  -3    1.70    5.30
  -7   5  -3    0.10    3.70
   7  -5  -3   12.40    5.30
   7  -5  -3   15.40    5.00
   7   5   3   17.20    4.10
   9  -5   3   62.39   10.30
  -9   5   3  114.09   17.10
   9   5  -3   71.99   10.20
  -9  -5   3   88.29    9.40
   9  -5  -3  105.59   12.10
   9   5   3   87.19    9.60
  11  -5   3    3.30    6.20
  11   5  -3    8.60    6.60
  11  -5  -3   12.00    7.10
  11   5   3    7.70    5.60
 -11  -5   3    3.00    6.40
   0  -6  -3    6.70    2.60
   0   6   3    6.20    2.20
   0   6  -3    8.60    1.70
   0   6  -3    5.50    2.50
   0  -6  -3   18.80    3.40
   0   6   3    5.80    2.00
   0  -6   3    5.80    3.20
  -2   6   3 1275.57   69.59
   2  -6   3 1298.77   71.29
   2  -6   3 1283.27   65.09
  -2   6   3 1306.67   67.79
   2   6  -3 1276.17   64.99
  -2  -6  -3 1290.67   67.59
   2   6   3 1295.27   66.59
   2  -6  -3 1358.76   68.09
  -2   6  -3 1413.36   72.39
  -2   6  -3 1295.67   68.19
   2  -6  -3 1272.57   69.09
  -2  -6   3 1194.18   67.99
   4  -6   3   84.49    8.40
  -4  -6  -3   95.29    8.30
  -4   6   3   74.79   11.30
  -4   6   3   94.69    9.70
   4  -6  -3   62.99    9.40
  -4   6  -3   99.19   12.20
  -4   6  -3   91.49    9.00
   4  -6  -3   87.79   10.40
   6  -6   3 1142.09   60.79
  -6   6   3 1130.19   62.19
  -6   6   3 1075.09   66.49
   6   6  -3 1121.79   57.59
   6  -6  -3 1061.99   63.99
  -6   6  -3 1092.99   61.79
  -6   6  -3 1091.69   65.69
   6   6   3 1031.20   58.49
   6  -6  -3 1202.58   63.29
   8  -6   3   63.69    9.90
  -8   6   3   66.59   10.20
  -8   6   3   64.39   13.60
   8   6  -3   71.89    8.30
  -8   6  -3   71.99   11.30
   8  -6  -3   90.69   12.90
  -8   6  -3   50.59   11.70
   8  -6  -3   77.19   11.60
   8   6   3   71.89    9.50
  10  -6   3  300.87   23.40
  10   6  -3  256.67   21.50
  10   6   3  289.27   21.90
  10  -6  -3  343.87   25.30
   1   7  -3   11.20    1.70
  -1   7   3    4.70    2.00
  -1  -7  -3   13.40    3.90
   1   7  -3   12.90    3.00
   1  -7   3    5.20    3.50
  -1   7  -3   12.60    3.90
   1  -7  -3    6.40    2.60
  -1   7  -3    7.70    2.10
   1  -7  -3    9.00    3.70
  -1  -7   3    4.80    3.30
   1   7   3    7.10    2.30
   3  -7   3    3.90    3.20
   3  -7   3    2.10    1.80
  -3   7   3    4.10    2.50
  -3  -7  -3    2.20    2.10
  -3   7   3   -0.40    2.10
  -3   7  -3    3.30    2.80
  -3  -7   3    7.60    3.30
   3  -7  -3    2.20    2.60
   3   7   3    3.10    1.80
  -3   7  -3   -1.00    2.30
   3  -7  -3    2.30    2.60
  -5   7   3   14.90    5.30
   5   7  -3   12.60    2.60
  -5   7   3    9.90    6.00
  -5  -7  -3   18.70    4.70
   5  -7   3    6.10    3.10
  -5   7  -3   11.10    4.60
  -5   7  -3   16.70    6.80
   5  -7  -3    7.20    4.30
   5  -7  -3    2.50    3.10
   7  -7   3    6.10    4.30
  -7   7   3    2.90    4.90
   7   7  -3   -1.40    1.80
   7  -7  -3   -2.90    3.60
  -7   7  -3    4.60    5.30
  -7   7  -3    1.00    4.10
   7  -7  -3    3.40    4.20
   9   7  -3    8.90    4.50
   9  -7   3   12.20    5.70
   9  -7  -3    8.90    6.10
   9  -7  -3    9.90    5.80
   9   7   3    6.80    4.40
   0  -8   3   54.89    9.10
   0   8  -3   41.20    4.20
   0   8   3   37.40    6.50
   0   8  -3   35.70    6.30
   0  -8  -3   43.60    6.60
   0   8   3   42.50    5.80
   2   8  -3  972.30   50.89
   2  -8   3 1164.58   58.69
   2   8  -3  996.60   49.80
   2  -8   3  939.71   49.20
  -2   8   3  923.91   52.79
  -2   8   3  892.41   55.29
  -2  -8  -3  975.30   53.69
   2  -8  -3  974.30   53.19
  -2   8  -3  961.10   57.49
  -2  -8   3 1001.20   56.29
  -2   8  -3 1030.50   53.49
   2   8   3 1011.70   52.19
   2  -8  -3  957.10   55.39
   4  -8   3   84.49    8.40
  -4   8   3   76.89   11.90
  -4  -8  -3   91.19    9.10
  -4   8   3  120.89   11.20
   4  -8  -3   78.39    9.60
   4   8   3   95.99    8.70
  -4  -8   3   96.19    9.20
  -4   8  -3  116.29   11.00
  -4   8  -3  107.09   13.30
   4  -8  -3   96.79   14.20
   6   8  -3  797.42   42.40
   6  -8   3  829.92   45.80
  -6   8   3  791.32   47.60
  -6  -8  -3  753.72   44.60
  -6   8  -3  858.41   56.79
   6  -8  -3  851.01   57.99
   6  -8  -3  714.33   49.20
  -6   8  -3  788.12   55.19
  -8  -8  -3   59.69    9.50
   8  -8   3   58.09    9.30
   8   8  -3   64.29    8.20
   8  -8  -3   57.79   11.50
   8   8   3   64.59    9.00
   8  -8  -3   65.29   11.10
  -1   9   3   11.60    4.40
  -1  -9  -3    8.80    3.60
   1   9  -3   10.70    2.30
  -1   9   3   12.00    3.50
   1  -9   3    8.00    4.70
   1   9  -3    9.40    3.20
   1   9   3   13.80    3.40
  -1  -9   3    5.30    4.50
  -1   9  -3    8.60    4.70
   1  -9  -3   11.20    4.60
   1  -9  -3    6.20    2.90
  -1   9  -3   10.70    3.30
  -3   9   3    9.80    3.60
  -3   9   3   12.70    6.40
   3  -9   3    6.00    2.20
   3   9  -3    6.80    2.00
  -3  -9  -3    8.80    3.70
   3  -9   3    7.20    4.80
   3  -9  -3    5.60    4.00
  -3   9  -3   12.30    5.90
  -3   9  -3    8.70    4.30
   3   9   3    8.50    3.00
   3  -9  -3    6.40    3.50
   5  -9   3    7.30    3.50
  -5   9   3   -0.30    6.10
  -5  -9  -3    3.00    2.90
  -5   9   3   -0.10    3.90
  -5   9  -3    4.80    4.10
   5   9   3   -0.80    2.70
  -5   9  -3    1.80    4.60
   5  -9  -3    8.20    4.50
   5  -9  -3    5.70    5.30
  -7  -9  -3   24.40    6.90
   7   9  -3   27.70    5.00
   7  -9   3   22.40    5.90
   7  -9  -3   33.60    8.70
   7   9   3   24.20    5.40
   7  -9  -3   36.90    8.20
   9  -9   3   11.10    6.50
  -9  -9  -3   10.90    5.60
   9   9  -3    5.90    4.40
   9  -9  -3   15.10    6.40
   9   9   3    7.30    5.20
   0  10   3  143.79   13.20
   0  10  -3  145.39   13.20
   0 -10   3  158.18   15.50
   0 -10  -3  137.79   13.20
   0  10   3  131.79   11.20
   0  10  -3  127.09    9.80
  -2  10   3  675.13   45.40
   2  10  -3  743.53   40.80
   2 -10   3  849.81   48.20
  -2 -10  -3  700.73   43.50
   2  10  -3  755.72   39.40
  -2  10   3  685.13   42.20
   2 -10  -3  730.93   45.90
  -2  10  -3  708.23   47.30
   2  10   3  766.42   41.90
  -2 -10   3  813.42   46.50
  -2  10  -3  816.82   43.10
   2 -10  -3  741.83   42.30
   4  10  -3   34.50    4.60
  -4  10   3   40.20    9.30
  -4 -10  -3   32.80    7.00
  -4  10   3   29.00    6.30
   4 -10   3   37.60    8.60
   4 -10   3   34.50    5.30
   4 -10  -3   25.50    6.40
   4 -10  -3   30.50    8.60
  -4  10  -3   35.50    7.20
  -4  10  -3   29.60    7.90
   4  10   3   34.20    5.80
   6  10  -3  284.67   17.60
   6 -10   3  294.37   20.00
   6  10   3  242.08   19.30
   6 -10  -3  278.17   24.80
   6 -10  -3  304.97   22.80
  -8 -10  -3    9.70    4.90
   8 -10   3   12.10    5.50
   8 -10  -3    5.40    6.20
   8 -10  -3   -1.10    6.60
   8  10   3    8.60    4.40
  -1  11   3   61.79   10.40
   1  11  -3   72.99    7.00
  -1 -11  -3   74.99   11.10
   1 -11   3   94.49   13.80
   1  11  -3   68.39    8.80
   1 -11  -3   63.09   10.50
  -1  11  -3   85.09    8.20
   1  11   3   71.49    8.50
  -1 -11   3   80.69   13.40
  -1  11  -3   75.19   11.60
   3  11  -3  107.39    9.70
  -3  11   3   97.59   15.00
   3 -11   3  104.49   15.10
  -3 -11  -3   88.69   13.70
  -3  11   3   87.49   10.10
   3 -11  -3   79.99    9.90
   3  11   3   78.09   12.40
   3 -11  -3   71.09   12.70
  -3 -11   3  107.79   12.90
  -3  11  -3   77.09   13.70
  -3  11  -3  100.69   11.70
   5  11  -3   88.69    7.70
   5 -11   3   65.49    8.50
  -5 -11  -3   76.79   11.50
  -5 -11   3   75.19   11.00
   5 -11  -3   75.59   11.50
   5  11   3   69.99    9.40
  -5  11  -3   90.39   12.10
   5 -11  -3   86.99   15.80
   7  11  -3    8.20    3.90
   7 -11   3   12.20    7.00
  -7 -11  -3    6.00    4.70
   7  11   3    9.60    4.30
   7 -11  -3   12.30    7.50
   7 -11  -3    9.80    6.70
   0 -12  -3    9.90    4.70
   0 -12   3   25.50    7.80
   0  12  -3    9.40    5.50
   0  12   3   10.00    4.50
   0  12  -3   13.00    4.20
   0  12   3    8.60    5.40
  -2 -12  -3  225.68   20.20
   2 -12   3  289.37   23.30
   2  12  -3  233.98   15.60
   2  12  -3  251.07   17.30
  -2  12   3  257.87   25.90
   2 -12  -3  241.88   21.80
   2 -12  -3  235.48   17.40
   2  12   3  235.68   17.90
  -2 -12   3  233.08   20.90
  -2  12  -3  262.07   19.20
  -2  12  -3  218.18   22.50
  -4 -12  -3    9.20    4.90
   4 -12   3   -5.60    4.30
   4  12  -3    2.60    2.90
  -4 -12   3    4.30    5.40
  -4  12  -3    6.60    5.50
   4 -12  -3    6.40    6.90
   4 -12  -3    8.30    4.90
   6  12  -3  126.29   11.20
  -6 -12  -3  135.29   14.30
   6 -12   3  120.69   11.80
   6 -12  -3  126.19   15.20
   6 -12  -3  103.69   16.60
   1  13  -3   31.20    7.00
   1  13  -3   49.10    7.00
   1 -13   3   42.10   10.40
  -1 -13  -3   34.80    8.60
   1 -13  -3   43.40   10.80
  -1 -13   3   57.49   11.50
  -1  13  -3   42.40   12.10
  -1  13  -3   60.99    8.70
  -3 -13  -3    1.30    5.00
   3 -13   3    6.30    6.00
   3  13  -3    1.50    3.40
   3 -13  -3    2.20    6.70
  -3  13  -3    3.40    6.10
  -3 -13   3    2.10    5.20
   3 -13  -3    8.00    4.90
   5  13  -3   77.99    9.50
   5 -13   3   82.29    9.50
  -5 -13  -3   94.19   14.10
  -5 -13   3   90.39   11.30
   5 -13  -3  102.09   13.50
   5 -13  -3   81.99   15.80
   0 -14  -3   15.50    8.10
   0 -14   3    5.10    6.20
   0  14  -3   -7.80    6.30
   2 -14   3   58.69   11.90
   2  14  -3   47.50    7.40
  -2 -14  -3   39.30   10.50
  -2 -14   3   72.99   12.60
   2 -14  -3   29.70   11.40
   2   0   4  582.74   29.40
  -2   0   4  490.85   29.50
   2   0  -4  574.24   29.00
   2   0  -4  572.74   30.10
  -4   0   4 6103.69  293.07
   4   0  -4 5700.03  294.77
   4   0   4 5673.03  293.27
  -4   0  -4 6003.40  293.67
  -4   0   4 6079.19  293.17
   4   0  -4 6039.50  295.87
  -6   0   4 1313.67   74.19
   6   0   4 1438.06   73.29
  -6   0   4 1356.76   71.99
   6   0  -4 1463.55   75.99
  -6   0  -4 1398.46   73.49
   8   0  -4 1345.57   71.79
  -8   0  -4 1179.78   69.59
  -8   0  -4 1332.37   69.59
  -8   0   4 1319.17   67.39
  -8   0   4 1146.29   70.99
   8   0   4 1287.47   69.09
  10   0  -4  108.39   14.70
 -10   0   4   97.59   10.90
 -10   0   4  100.29   14.50
   1  -1   4  315.97   17.20
   1  -1   4  299.27   16.90
   1   1  -4  339.57   17.20
  -1   1   4  327.97   18.00
   1   1   4  318.07   17.60
   1  -1  -4  346.97   18.10
  -1   1  -4  319.07   17.40
   1  -1  -4  313.87   17.70
   3   1  -4 3475.65  179.78
  -3   1   4 3797.02  179.08
   3   1  -4 3597.64  177.98
  -3   1   4 3374.66  179.68
   3  -1   4 3670.83  178.78
  -3  -1   4 3673.63  176.88
  -3  -1   4 3524.25  177.18
   3  -1  -4 3769.02  179.28
   3  -1  -4 3252.37  180.08
  -3   1  -4 3807.62  179.08
   3   1   4 3615.24  178.58
  -5   1   4   18.60    4.10
   5  -1   4   16.30    3.40
   5   1  -4    9.80    3.40
  -5   1   4    6.30    3.10
  -5  -1   4   10.60    2.70
  -5  -1   4   10.90    2.20
   5  -1  -4   12.50    4.10
   5   1   4    9.40    3.00
   5  -1  -4    9.30    3.80
  -5   1  -4   24.40    4.50
  -7   1   4  328.97   24.90
  -7   1   4  373.36   22.50
   7   1  -4  345.87   23.20
   7  -1   4  336.57   22.20
   7   1   4  328.67   21.70
   7  -1  -4  359.36   24.70
  -7   1  -4  347.67   22.90
  -7  -1   4  309.07   22.60
  -7   1  -4  332.07   23.20
  -7  -1   4  325.77   19.90
  -9   1   4  582.74   37.50
   9  -1   4  525.95   33.50
  -9   1   4  545.55   32.80
   9   1  -4  551.44   43.60
  -9   1  -4  532.55   34.40
  -9  -1   4  482.15   34.40
  -9   1  -4  457.95   34.40
  -9  -1   4  534.15   30.70
   9   1   4  539.15   33.30
   9  -1  -4  576.24   36.20
  11  -1   4   39.60   10.00
 -11   1   4   22.30    9.60
  11   1  -4   24.00    8.90
 -11   1   4   36.50    8.30
  11   1   4   40.80   13.50
 -11  -1   4   33.10    9.00
  11  -1  -4   35.20    9.40
   0  -2  -4  510.55   26.90
   0   2  -4  486.05   25.50
   0   2   4  512.25   26.90
   0   2  -4  519.35   25.80
   2   2  -4   22.80    2.50
  -2   2   4   18.10    3.40
  -2   2   4   21.00    3.30
   2   2  -4   22.90    1.80
   2  -2   4   22.40    3.20
   2   2   4   20.60    3.00
   2  -2  -4   26.70    3.80
   2  -2  -4   27.80    4.30
  -2   2  -4   29.30    3.80
   4   2  -4 2574.64  119.89
  -4   2   4 2340.57  121.29
   4  -2   4 2398.06  120.09
  -4   2   4 2430.16  121.59
  -4   2  -4 2395.86  120.79
   4  -2  -4 2391.16  121.59
   4  -2  -4 2140.99  121.79
   4   2   4 2322.17  119.39
   6  -2   4  730.43   40.80
  -6   2   4  725.43   43.70
   6   2  -4  722.13   40.50
  -6   2   4  713.53   41.40
   6  -2  -4  835.02   43.30
  -6  -2   4  695.63   38.70
   6  -2  -4  733.53   42.90
   6   2   4  681.33   39.70
  -6   2  -4  751.72   41.60
  -6   2  -4  657.23   41.60
   8  -2   4 1804.72   92.49
  -8   2   4 1748.82   96.69
   8   2  -4 1826.92   92.49
  -8   2   4 1800.72   92.49
  -8  -2   4 1579.34   91.19
  -8   2  -4 1512.45   93.39
  -8   2  -4 1687.93   95.59
   8  -2  -4 1934.01   94.99
 -10   2   4   12.50    6.10
  10   2  -4   15.50    6.50
 -10  -2  -4    6.00    4.90
  10  -2   4    2.90    4.60
 -10   2   4   -3.40    5.90
  10  -2  -4    4.60    5.60
  10   2   4    3.90    4.20
 -10  -2   4   -0.80    5.40
  -1   3   4  312.47   17.70
   1   3  -4  302.57   16.50
   1  -3   4  278.97   15.00
  -1   3   4  281.77   17.00
   1  -3   4  284.87   14.80
   1  -3  -4  316.37   17.40
  -1   3  -4  307.87   16.80
   1  -3  -4  271.17   17.20
   1   3   4  290.27   16.60
  -3   3   4  792.32   42.60
  -3   3   4  750.22   42.40
   3  -3   4  726.63   41.10
   3   3  -4  810.92   39.00
  -3   3  -4  710.73   42.20
  -3   3  -4  800.62   42.00
   3  -3  -4  765.92   42.00
   3  -3  -4  772.02   42.60
   5   3  -4  341.47   20.70
   5  -3   4  355.96   22.30
  -5   3   4  384.16   23.50
  -5   3   4  352.86   24.20
   5   3   4  338.97   21.00
  -5   3  -4  341.27   23.50
   5  -3  -4  358.56   24.20
   5  -3  -4  347.37   24.70
  -5   3  -4  371.06   23.00
  -7   3   4  138.79   15.20
   7  -3   4  117.79   11.30
   7   3  -4  112.19   10.60
  -7   3   4  139.29   12.50
   7   3   4  130.29   10.80
   7  -3  -4  129.19   12.80
   7  -3  -4  125.69   12.50
  -7  -3   4  117.79    9.30
  -7   3  -4  139.29   13.00
  -7   3  -4  113.59   12.70
   9  -3   4  315.97   24.50
  -9   3   4  388.26   29.50
   9   3  -4  348.97   24.40
  -9   3   4  360.66   25.30
  -9  -3   4  316.07   22.80
   9  -3  -4  357.96   26.00
   9   3   4  351.36   23.80
  -9   3  -4  330.57   27.60
 -11   3   4  581.74   47.00
  11   3  -4  555.64   37.20
  11   3   4  556.24   35.90
 -11  -3   4  496.55   33.70
  11  -3  -4  543.65   39.70
   0   4  -4 9929.61  477.15
   0  -4  -4 9999.00  476.05
   0   4  -4 9082.89  473.45
  -2   4   4   59.89    5.70
   2  -4   4   40.90    4.40
  -2   4   4   53.69    6.10
  -2   4  -4   58.69    6.70
  -2   4  -4   57.99    5.70
   2  -4  -4   45.80    5.30
   2  -4  -4   45.80    5.70
   2   4   4   48.20    4.80
  -4   4   4 2381.66  120.69
   4  -4   4 2315.87  118.89
   4   4  -4 2378.96  115.59
  -4   4   4 2355.56  121.09
  -4   4  -4 2397.66  119.99
  -4   4  -4 2345.17  121.09
   4  -4  -4 2250.57  119.99
   4  -4  -4 2158.58  120.09
   6   4  -4 1663.43   82.89
  -6   4   4 1533.95   88.99
   6  -4   4 1564.64   85.39
  -6   4   4 1717.03   86.39
  -6   4  -4 1528.85   86.09
   6  -4  -4 1651.43   88.39
   6  -4  -4 1688.83   87.49
   6   4   4 1519.75   83.19
   8   4  -4  281.47   20.30
   8  -4   4  290.67   25.00
  -8   4   4  339.67   27.30
  -8   4   4  328.77   22.90
  -8   4  -4  285.47   24.90
   8   4   4  278.07   20.30
   8  -4  -4  333.97   23.20
  -8   4  -4  263.87   22.30
   8  -4  -4  306.57   23.20
  10  -4   4   81.69   12.90
  10   4  -4   73.19   11.20
 -10   4   4   97.19   16.00
  10   4   4   77.09   11.00
  10  -4  -4   96.89   13.90
  -1   5   4 1568.24   83.89
  -1   5   4 1709.53   85.49
  -1  -5  -4 1664.63   84.79
   1   5  -4 1636.64   83.99
   1   5   4 1652.63   83.69
   1  -5  -4 1650.63   85.09
  -1   5  -4 1623.24   88.29
   1  -5  -4 1659.83   84.39
  -1   5  -4 1659.63   83.89
  -3   5   4 5664.13  279.57
   3  -5   4 5379.96  277.97
  -3   5   4 5858.71  281.57
   3   5   4 5875.01  278.27
   3  -5  -4 5732.33  280.37
  -3   5  -4 5150.48  279.57
   3  -5  -4 5401.66  280.17
  -3   5  -4 5867.41  283.47
  -5   5   4  357.86   23.10
   5   5  -4  333.17   18.30
   5  -5   4  316.77   21.00
  -5   5   4  298.37   23.90
   5  -5  -4  310.07   23.40
   5  -5  -4  341.07   23.20
   5   5   4  309.17   19.60
  -5   5  -4  289.77   22.00
  -5   5  -4  305.17   24.10
  -7   5   4 1212.58   75.49
   7  -5   4 1270.77   70.49
   7   5  -4 1252.77   67.99
  -7   5   4 1402.96   71.69
   7   5   4 1284.67   68.49
   7  -5  -4 1259.67   72.49
  -7   5  -4 1289.77   75.59
   7  -5  -4 1451.35   74.09
  -7   5  -4 1181.98   71.59
   9   5  -4  737.63   45.90
  -9   5   4  895.71   54.39
   9  -5   4  755.82   47.70
   9  -5  -4  827.82   49.00
   9   5   4  784.52   46.30
   9  -5  -4  832.02   49.70
   0   6   4  657.53   35.90
   0   6  -4  655.63   32.70
   0   6   4  637.44   34.60
   0   6  -4  569.14   36.50
   0  -6  -4  640.34   35.90
   0  -6  -4  633.54   34.60
  -2  -6  -4   19.70    4.10
   2  -6   4   16.70    1.90
  -2   6   4   17.30    3.80
   2   6  -4   19.00    2.40
   2   6   4   22.70    3.90
  -2   6  -4    5.90    3.60
   2  -6  -4   25.90    5.30
   2  -6  -4   16.50    4.10
  -2   6  -4   15.40    3.70
   4  -6   4  111.39    9.00
  -4  -6  -4   85.09    8.40
  -4   6   4   89.79    9.60
  -4   6   4   82.09   10.40
   4  -6  -4   80.19    9.70
  -4   6  -4   83.89    9.30
   4  -6  -4   74.79    9.40
  -4   6  -4   96.69   12.00
   6   6  -4  786.82   42.30
   6  -6   4  784.02   45.00
  -6   6   4  699.13   49.80
  -6   6   4  880.31   47.60
   6   6   4  757.22   43.60
  -6   6  -4  774.02   46.70
   6  -6  -4  791.02   49.70
   6  -6  -4  878.81   48.50
  -8   6   4  445.66   35.80
  -8   6   4  502.45   31.60
   8   6  -4  424.66   27.80
   8  -6   4  422.16   29.30
   8  -6  -4  471.35   32.10
   8  -6  -4  496.65   32.20
   8   6   4  443.96   28.40
  10  -6   4   36.60    8.30
  10   6  -4   50.89    8.70
  10   6   4   35.50    8.20
  -1  -7  -4  419.66   25.80
   1   7  -4  455.75   24.80
  -1   7   4  381.16   26.10
  -1   7   4  422.06   24.80
   1   7  -4  416.96   21.70
  -1   7  -4  422.86   24.20
   1   7   4  452.25   24.80
   1  -7  -4  403.86   24.90
   1  -7  -4  432.26   26.50
  -1   7  -4  403.06   27.90
  -3   7   4    9.60    4.30
   3  -7   4   11.90    2.70
  -3  -7  -4   17.60    4.20
  -3   7   4   15.00    4.10
   3  -7  -4   10.20    3.90
   3   7   4   14.90    3.70
  -3   7  -4    7.90    4.50
  -3   7  -4    7.70    5.50
   3  -7  -4    8.70    3.50
  -5   7   4  306.17   22.50
  -5   7   4  263.17   24.00
  -5  -7  -4  316.57   20.40
   5  -7   4  324.27   20.20
   5   7  -4  310.57   17.10
  -5   7  -4  304.47   21.50
  -5   7  -4  305.67   24.70
   5  -7  -4  254.27   21.40
   5  -7  -4  266.47   22.90
  -7   7   4  519.45   32.10
  -7   7   4  469.55   36.80
   7  -7   4  500.05   30.10
   7   7  -4  447.26   27.30
   7   7   4  440.46   28.30
   7  -7  -4  418.56   32.20
   7  -7  -4  514.05   32.70
  -7   7  -4  453.05   34.50
  -7   7  -4  476.65   31.50
   9  -7   4   86.89   12.00
   9   7   4   92.79   10.60
   9  -7  -4   95.79   13.60
   9  -7  -4   95.49   14.20
   0   8  -4 1575.54   79.99
   0   8  -4 1549.94   75.49
   0  -8  -4 1474.65   79.29
   0   8   4 1471.65   79.19
   0  -8   4 1404.06   80.49
   0   8   4 1456.45   77.29
  -2   8   4    4.50    3.70
   2   8  -4   13.40    1.90
   2   8  -4   12.80    2.80
  -2   8   4    9.40    3.20
  -2  -8  -4    8.30    3.30
   2  -8  -4   19.20    5.50
   2   8   4   15.00    3.70
  -2  -8   4    9.10    3.50
  -2   8  -4   11.60    3.90
   2  -8  -4   12.30    3.30
  -2   8  -4    5.00    4.00
  -4  -8  -4   69.19    8.00
  -4   8   4   50.59    8.50
  -4   8   4   64.09   11.60
   4   8   4   63.19    7.20
   4  -8  -4   63.69   10.90
  -4   8  -4   61.99    8.90
  -4   8  -4   90.39   13.80
   4  -8  -4   55.19    8.90
   6   8  -4  836.62   41.80
  -6  -8  -4  789.82   45.10
  -6   8   4  830.72   48.00
   6  -8   4  820.52   44.80
  -6   8   4  695.73   51.39
  -6   8  -4  789.32   52.59
   6  -8  -4  692.03   49.50
   6   8   4  774.02   43.70
  -6   8  -4  763.52   49.90
   6  -8  -4  764.92   47.40
   8   8  -4   67.49    9.00
  -8  -8  -4   83.39   10.00
   8  -8   4   73.59   10.50
   8  -8  -4   62.79   11.50
   8   8   4   76.19   10.00
   8  -8  -4   63.79   10.90
   1  -9   4 1151.18   62.79
  -1   9   4 1099.19   58.19
  -1   9   4 1055.89   60.69
   1   9  -4 1144.49   58.09
  -1  -9  -4 1052.99   59.49
   1   9  -4 1061.69   54.89
  -1   9  -4 1055.99   61.79
   1  -9  -4 1047.80   60.39
  -1  -9   4 1015.40   60.49
  -1   9  -4 1086.99   57.09
   1  -9  -4 1072.99   57.99
   1   9   4 1086.19   57.69
  -3  -9  -4 3578.34  184.78
  -3   9   4 3530.15  184.28
  -3   9   4 3402.66  187.98
   3  -9   4 3509.35  179.08
   3   9  -4 3671.53  179.68
  -3   9  -4 3951.60  185.38
   3   9   4 3806.52  183.38
   3  -9  -4 3653.13  185.08
  -3   9  -4 3940.11  190.58
   3  -9  -4 3505.35  188.88
  -3  -9   4 3491.55  182.08
  -5  -9  -4  260.87   18.80
  -5   9   4  242.88   20.40
   5  -9   4  256.77   17.10
  -5   9   4  221.28   23.50
  -5   9  -4  276.77   20.20
   5   9   4  238.98   17.70
   5  -9  -4  239.78   19.90
   5  -9  -4  231.38   21.80
  -5   9  -4  262.17   26.50
   7   9  -4 1005.00   52.99
  -7  -9  -4 1020.00   56.19
   7  -9   4 1003.20   55.39
   7   9   4  920.01   54.39
   7  -9  -4  910.81   59.99
   7  -9  -4 1071.49   59.49
   9  -9   4  592.94   35.90
   9   9  -4  590.14   34.60
  -9  -9  -4  553.04   35.70
   9   9   4  457.15   38.20
   9  -9  -4  580.54   38.30
   9  -9  -4  528.45   38.20
   0  10  -4 3456.05  174.18
   0  10  -4 3420.16  169.58
   0  10   4 3243.88  171.38
   0 -10   4 3697.23  176.88
   0  10   4 3171.38  173.68
  -2 -10  -4   33.30    7.00
   2 -10   4   34.80    8.40
   2  10  -4   28.10    4.80
   2  10  -4   36.80    3.90
  -2  10   4   36.40    8.60
  -2  10   4   38.10   10.00
  -2 -10   4   17.70    5.70
  -2  10  -4   27.40    7.50
  -2  10  -4   38.50    7.40
   2  10   4   33.80    5.70
   2 -10  -4   36.30    6.70
   2 -10  -4   34.70    8.10
  -4 -10  -4  635.34   38.20
  -4  10   4  582.24   41.10
  -4  10   4  542.35   36.10
   4 -10   4  563.24   31.60
   4 -10  -4  538.65   39.20
   4  10   4  613.54   35.20
  -4  10  -4  651.63   37.30
   4 -10  -4  531.95   38.80
  -4  10  -4  719.53   45.10
   6  10  -4  868.11   45.70
   6 -10   4  875.01   47.80
  -6 -10  -4  839.12   49.70
   6 -10  -4  804.52   55.19
   6 -10  -4  885.71   52.09
   8  10  -4   34.70    6.70
   8 -10   4   33.60    7.30
  -8 -10  -4   45.00    8.60
   8 -10  -4   35.90   10.30
   8 -10  -4   38.70   10.20
   8  10   4   39.60    7.80
  -1  11   4  236.98   20.10
  -1  11   4  232.48   17.30
   1 -11   4  290.87   22.10
   1  11  -4  219.88   16.90
  -1 -11  -4  220.68   18.90
   1  11  -4  214.48   14.40
   1 -11  -4  203.88   18.80
  -1 -11   4  238.38   20.00
   1  11   4  226.88   16.70
  -1  11  -4  230.18   16.40
  -1  11  -4  225.08   19.90
  -3 -11  -4   92.49   11.40
  -3  11   4  131.19   19.10
   3  11  -4  105.79    7.90
  -3  11   4   94.09   15.20
  -3  11  -4  112.69   12.30
   3 -11  -4   99.99   14.70
  -3  11  -4   95.69   14.50
   3  11   4  102.59   10.80
  -3 -11   4  100.09   11.00
  -5 -11  -4  264.07   20.30
   5 -11   4  217.58   15.80
   5 -11  -4  253.77   24.60
  -5  11  -4  286.67   21.50
   5 -11  -4  269.67   21.30
   7 -11   4  174.48   13.70
  -7 -11  -4  139.69   15.00
   7  11  -4  139.19   11.90
   7 -11  -4  155.78   17.40
   7  11   4  151.18   14.00
   7 -11  -4  151.88   18.10
   0 -12  -4   11.00    4.80
   0  12  -4   23.50    4.60
   0  12   4   21.40    9.40
   0  12  -4   25.10    7.20
   0 -12   4   30.30    8.00
  -2 -12  -4    9.60    4.90
   2  12  -4    5.50    2.80
   2 -12   4   -2.40    5.10
   2  12  -4    3.90    3.80
  -2  12  -4   -2.20    6.70
  -2 -12   4    6.30    5.50
  -2  12  -4    4.10    4.90
   2 -12  -4    5.50    4.70
   4  12  -4  311.77   18.30
  -4 -12  -4  294.77   23.10
   4 -12  -4  291.67   22.50
  -4  12  -4  305.77   23.10
   4 -12  -4  246.88   25.70
   6 -12   4  292.67   20.20
   6  12  -4  338.37   20.50
  -6 -12  -4  339.87   25.40
   6  12  -4  338.07   20.80
   6 -12  -4  300.57   28.50
   6 -12  -4  359.26   26.60
   1  13  -4  201.38   14.90
  -1 -13  -4  182.38   19.00
   1 -13   4  251.17   21.10
   1  13  -4  188.98   16.90
  -1 -13   4  224.68   19.70
  -1  13  -4  193.88   16.70
   1 -13  -4  191.18   20.20
   3  13  -4 1307.07   66.89
  -3 -13  -4 1244.48   73.09
   3 -13  -4 1309.67   76.99
  -3  13  -4 1347.27   72.59
   3 -13  -4 1203.18   70.29
  -3 -13   4 1245.88   70.39
   5  13  -4   25.30    5.10
  -5 -13  -4   29.50    8.70
   5 -13  -4   15.30    9.50
   5 -13  -4    9.30    7.10
   0 -14   4 2841.02  136.79
   0  14  -4 2474.95  130.09
   0 -14  -4 2305.97  135.59
   0  14  -4 2462.05  133.79
   2  14  -4  110.29   11.00
  -2 -14  -4  101.39   15.40
  -2 -14   4  121.59   14.70
   2 -14  -4   91.19   16.90
  -2  14  -4  139.49   16.50
   0   0  -5    2.10    1.00
   0   0   5    1.10    0.90
   2   0  -5    2.70    1.70
   2   0   5    2.50    1.30
   2   0  -5    2.80    1.40
  -2   0   5    0.90    1.40
   2   0   5    2.50    1.30
   4   0  -5    1.40    2.40
   4   0  -5    2.90    2.00
   4   0   5    4.70    1.80
  -4   0   5    1.00    1.40
  -4   0   5    1.10    1.60
  -6   0  -5    2.80    2.20
  -6   0   5    6.90    3.00
   6   0  -5    6.50    3.50
  -6   0   5    2.60    1.90
   6   0   5    1.70    2.20
   6   0  -5    1.90    2.60
   8   0  -5   -2.00    3.10
   8   0   5    0.10    2.80
  -8   0   5   -1.70    2.30
  -8   0   5    2.80    3.90
 -10   0   5    3.90    4.40
  10   0   5    3.80    4.60
 -10   0   5    7.50    7.10
  10   0  -5    5.80    5.40
   1  -1   5  676.93   35.60
  -1   1   5  705.33   36.70
   1   1  -5  681.13   35.70
   1  -1   5  690.13   35.80
   1  -1  -5  707.93   36.70
   1  -1  -5  739.13   36.80
  -1  -1   5  687.43   34.70
   1   1   5  690.83   36.20
  -3   1   5  868.01   47.70
   3   1  -5  897.21   45.60
   3   1  -5  728.63   46.90
  -3   1   5  939.91   46.80
   3  -1   5  882.81   46.50
  -3   1  -5  884.31   46.80
   3  -1  -5  898.01   46.80
  -3  -1   5  939.11   44.50
   3   1   5  919.61   46.50
   3  -1  -5  908.81   48.10
   5  -1   5  152.18   11.50
  -5   1   5  150.18   11.70
   5   1  -5  124.39   10.40
  -5   1   5  145.69   11.70
   5   1  -5  149.59   13.10
  -5  -1   5  170.58   10.20
   5  -1  -5  181.08   14.00
   5  -1  -5  161.88   13.60
  -5   1  -5  152.28   11.70
  -5  -1   5  166.58    9.60
   5   1   5  138.59   10.90
  -7   1   5  710.93   39.00
   7  -1   5  647.04   39.10
   7   1  -5  677.33   41.50
  -7   1   5  633.14   40.60
  -7   1  -5  675.73   40.10
   7  -1  -5  703.23   41.90
  -7  -1   5  636.64   37.90
   7   1   5  692.23   39.20
   7  -1  -5  720.13   40.00
  -7  -1   5  702.53   36.50
   9  -1   5    6.50    3.90
  -9   1   5    7.50    5.90
  -9   1   5    7.30    4.20
   9   1  -5    3.90    4.40
  -9  -1   5    1.40    4.60
   9  -1  -5    4.60    5.00
   9   1   5    5.10    3.60
  -9  -1   5    5.90    3.20
  -9   1  -5    0.60    4.20
  11  -1   5  319.37   25.60
 -11   1   5  305.77   28.20
  11   1  -5  365.86   27.80
 -11   1   5  307.47   23.00
  11  -1  -5  367.06   27.90
 -11  -1   5  295.17   24.80
  11   1   5  313.67   25.10
   0  -2  -5  362.96   19.50
   0   2  -5  329.17   18.10
   0   2  -5  351.16   18.30
   0  -2  -5  371.06   20.20
   0   2   5  327.87   19.30
   2  -2   5   11.00    2.20
   2   2  -5    7.00    1.40
  -2   2   5    8.40    2.40
   2   2  -5    4.70    1.50
  -2   2   5    6.10    2.30
   2  -2  -5    6.20    2.10
   2   2   5    7.40    2.00
  -2   2  -5    7.00    2.20
   2  -2  -5    5.40    2.20
  -4   2   5  316.27   20.00
  -4   2   5  321.27   20.60
   4  -2   5  307.57   19.30
   4   2  -5  317.77   19.80
  -4   2  -5  344.67   24.60
   4  -2  -5  342.77   20.50
   4  -2  -5  286.17   21.10
   4   2   5  303.17   18.90
  -6   2   5   21.80    4.70
   6   2  -5   22.60    5.10
  -6   2   5   23.40    6.20
   6  -2   5   15.10    3.90
  -6   2  -5   11.70    4.10
  -6  -2   5   23.00    3.10
   6  -2  -5   24.40    6.30
   6  -2  -5   22.90    5.90
  -6   2  -5   13.40    4.10
   6   2   5   21.50    4.30
  -8   2   5  127.59   15.40
  -8   2   5  109.49   12.10
   8   2  -5  148.89   13.70
  -8   2  -5  146.29   13.80
   8  -2  -5  165.28   24.40
   8   2   5  134.39   12.00
  -8  -2   5  127.39   10.40
   8  -2  -5  145.19   13.30
 -10   2   5    7.30    5.70
  10  -2   5    2.90    4.70
 -10   2   5    4.00    8.80
  10   2  -5    4.70    5.30
  10   2   5    3.60    4.20
  10  -2  -5    5.90    6.10
 -10  -2   5    7.00    4.70
  -1   3   5  356.46   20.40
   1   3  -5  334.37   17.90
   1   3  -5  343.07   18.00
   1   3   5  330.77   19.90
   1  -3  -5  346.27   20.60
  -1   3  -5  384.26   19.70
   1  -3  -5  388.16   20.80
   3  -3   5  449.76   27.00
  -3   3   5  467.55   28.30
  -3   3   5  498.05   28.40
   3   3  -5  506.75   26.00
   3  -3  -5  501.85   28.80
   3  -3  -5  456.85   27.80
  -3   3  -5  489.95   27.70
   5   3  -5   82.59    7.70
   5  -3   5   76.39    8.10
  -5   3   5  108.79    9.80
  -5   3   5   86.89    9.70
   5  -3  -5   89.49    9.70
  -5   3  -5   96.29    9.50
   5   3   5   83.89    7.70
  -5   3  -5   92.69    9.60
   5  -3  -5   94.29   10.40
   7  -3   5  341.47   23.70
   7   3  -5  366.16   23.70
  -7   3   5  368.76   24.60
  -7   3   5  325.67   26.40
  -7   3  -5  330.97   25.50
   7  -3  -5  388.66   25.60
  -7   3  -5  372.66   25.30
   7  -3  -5  403.26   26.90
   7   3   5  355.56   23.00
  -9   3   5   -4.70    6.90
   9  -3   5    6.00    4.30
   9   3  -5    3.00    4.10
  -9   3   5    4.60    5.40
   9   3   5    8.80    4.10
   9  -3  -5    4.40    5.10
  11   3  -5  177.78   20.80
  11  -3   5  225.28   21.00
 -11   3   5  216.78   30.30
  11  -3  -5  229.18   21.80
  11   3   5  215.88   19.40
   0   4  -5 1755.02   92.29
   0  -4  -5 1765.22   91.49
   0  -4  -5 1876.11   92.49
   0   4   5 1775.62   91.39
   0   4  -5 1853.51   90.09
  -2   4   5    1.90    1.60
  -2   4   5    3.10    2.00
   2  -4   5    3.30    1.60
  -2   4  -5    3.40    2.20
   2   4   5    0.30    1.00
   2  -4  -5    4.10    2.20
  -2   4  -5    9.60    2.70
   2  -4  -5    2.00    1.60
  -4   4   5 1250.87   66.99
   4  -4   5 1148.59   64.79
  -4   4   5 1236.78   66.89
   4   4  -5 1219.18   62.29
   4  -4  -5 1229.98   66.89
  -4   4  -5 1328.87   66.39
  -4   4  -5 1190.28   66.89
   4   4   5 1213.08   63.79
   4  -4  -5 1219.58   66.09
  -6   4   5    5.10    3.00
  -6   4   5    2.70    3.60
   6   4  -5    2.50    2.30
   6  -4   5    5.80    3.80
   6  -4  -5    3.70    3.50
  -6   4  -5    3.60    3.00
  -6   4  -5    8.30    4.10
   6  -4  -5    8.80    5.10
   6   4   5    6.20    2.70
  -8   4   5  488.95   30.60
  -8   4   5  393.46   33.60
   8   4  -5  436.06   28.40
   8   4   5  467.05   28.40
  -8   4  -5  379.16   31.50
   8  -4  -5  511.65   32.40
   8  -4  -5  473.75   31.00
  -8   4  -5  431.06   30.60
  10  -4   5   -5.60    5.50
 -10   4   5   -6.70    8.50
  10   4  -5    3.30    5.20
  10   4   5    0.40    4.50
  10  -4  -5    5.40    6.60
   1   5  -5   83.09    8.30
  -1   5   5   98.49    8.70
  -1   5   5   92.99    7.90
  -1  -5  -5   93.09    8.40
   1   5   5   91.29    7.50
   1  -5  -5   91.39    8.00
  -1   5  -5   99.49    9.90
   1  -5  -5  108.59    8.90
  -1   5  -5   90.99    7.60
   3  -5   5  245.38   14.60
  -3   5   5  214.78   15.80
   3   5   5  238.78   15.10
   3  -5  -5  242.48   16.80
  -3   5  -5  217.18   16.00
  -3   5  -5  220.98   17.50
   3  -5  -5  196.38   15.70
  -5   5   5   15.40    5.20
   5  -5   5   24.20    5.10
   5   5  -5   27.10    3.90
  -5   5   5   17.60    5.80
   5   5   5   25.30    4.80
  -5   5  -5    9.60    4.50
  -5   5  -5   18.60    6.40
   5  -5  -5    8.50    5.00
   5  -5  -5   10.20    4.70
  -7   5   5  119.09   17.30
   7   5  -5  145.19   11.60
  -7   5   5  138.29   13.60
   7  -5   5  138.59   13.20
   7  -5  -5  127.19   14.30
   7   5   5  133.69   11.70
  -7   5  -5  107.69   19.50
  -7   5  -5  139.99   14.60
   7  -5  -5  181.38   16.10
   9  -5   5   -0.50    3.90
  -9   5   5    8.50    9.90
   9   5  -5    2.00    4.20
   9   5   5    3.90    4.20
   9  -5  -5    2.30    4.90
   9  -5  -5    2.80    5.60
   0   6   5 1852.21   93.59
   0  -6  -5 1887.71   95.09
   0   6  -5 1804.72   96.29
   0   6  -5 1756.32   91.69
   0  -6  -5 1861.81   93.69
  -2   6   5   20.60    4.70
  -2   6   5   18.60    4.10
   2   6  -5   19.50    2.40
  -2  -6  -5   12.30    3.40
  -2   6  -5   13.60    5.20
   2   6   5   15.90    3.40
   2  -6  -5   20.90    4.70
  -2   6  -5   12.50    3.40
   2  -6  -5   21.40    4.50
   4   6  -5 1370.56   64.29
   4  -6   5 1304.77   70.39
  -4  -6  -5 1323.27   68.79
  -4   6   5 1292.17   69.79
  -4   6   5 1305.87   71.79
   4   6   5 1348.47   67.99
  -4   6  -5 1264.27   73.39
  -4   6  -5 1125.19   69.09
   4  -6  -5 1160.48   69.69
   4  -6  -5 1311.77   70.49
  -6   6   5   14.00    5.20
  -6   6   5    4.40    5.20
   6  -6   5   11.40    3.90
   6   6  -5   11.60    3.30
  -6   6  -5    4.40    4.70
  -6   6  -5    3.10    4.40
   6   6   5    8.50    3.30
   6  -6  -5    2.20    4.30
   6  -6  -5    7.50    4.70
   8  -6   5  590.14   36.00
  -8   6   5  491.65   41.30
   8   6  -5  585.94   34.70
   8  -6  -5  572.54   38.00
   8  -6  -5  667.43   39.70
   8   6   5  562.54   34.80
  10   6  -5    3.80    5.40
  10  -6   5   10.00    5.80
  10  -6  -5    8.70    6.50
  10   6   5    0.70    4.90
   1   7  -5   30.50    5.10
  -1  -7  -5   29.60    5.80
  -1   7   5   21.00    4.50
   1   7  -5   25.00    2.20
  -1   7   5   27.60    5.80
   1   7   5   24.30    4.50
   1  -7  -5   32.70    5.40
  -1   7  -5   28.40    5.00
   1  -7  -5   26.30    5.60
  -1   7  -5   34.00    7.70
  -3   7   5   35.30    7.30
  -3  -7  -5   22.20    5.20
  -3   7   5   24.70    5.30
   3  -7   5   27.30    3.10
  -3   7  -5   27.30    6.20
   3   7   5   26.90    5.10
   3  -7  -5   15.70    5.00
  -3   7  -5   23.30    6.50
   3  -7  -5   24.70    5.90
  -5   7   5   14.50    6.90
  -5  -7  -5   12.10    4.30
  -5   7   5    9.20    4.50
   5   7  -5   14.50    2.80
   5  -7   5   11.80    3.60
   5  -7  -5   13.20    5.60
  -5   7  -5   16.90    5.30
   5   7   5   13.90    4.30
  -5   7  -5   16.00    6.30
   5  -7  -5    7.20    4.00
   7   7  -5   18.80    4.30
   7  -7   5   16.60    4.70
  -7   7   5   15.00    6.10
  -7   7   5    8.70    7.10
  -7   7  -5   17.00    6.80
   7   7   5   17.00    4.90
   7  -7  -5    8.70    5.60
  -7   7  -5    3.40    5.30
   7  -7  -5    9.50    5.60
   9  -7   5   -1.90    4.60
   9   7  -5    1.20    4.90
   9  -7  -5    3.90    5.20
   9   7   5    3.00    4.00
   9  -7  -5    1.80    6.20
   0   8  -5 1519.85   84.39
   0   8   5 1561.24   82.39
   0  -8  -5 1647.54   84.49
   0   8  -5 1601.74   80.29
  -2   8   5    3.20    3.20
  -2   8   5    4.60    2.70
   2   8  -5    3.80    1.80
  -2  -8  -5    3.90    2.90
   2   8  -5    5.50    1.20
   2  -8  -5    3.60    3.00
  -2   8  -5   11.90    5.00
   2   8   5    7.50    3.20
   2  -8  -5   13.10    4.30
  -2   8  -5    8.80    3.30
  -4   8   5 1115.59   63.69
  -4   8   5 1127.69   67.29
  -4  -8  -5 1146.69   63.29
   4  -8   5 1095.69   59.59
   4   8   5 1178.88   62.39
  -4   8  -5 1262.67   68.79
   4  -8  -5 1105.79   65.69
  -4   8  -5 1245.28   64.29
   4  -8  -5 1150.08   64.79
  -6   8   5    3.10    4.40
   6   8  -5    3.10    2.00
  -6   8   5    0.00    6.40
   6  -8   5   14.50    4.50
  -6  -8  -5    2.10    3.20
   6  -8  -5   -2.40    4.50
   6   8   5    4.40    3.60
  -6   8  -5    8.20    5.30
  -6   8  -5   -5.70    5.10
   6  -8  -5    4.40    4.70
   6   8   5    5.70    3.10
   8   8  -5  553.24   33.00
   8  -8   5  584.44   34.80
  -8  -8  -5  512.45   34.80
   8   8   5  546.25   33.90
   8  -8  -5  617.04   38.80
   8  -8  -5  511.55   37.70
   1   9  -5   51.69    4.40
  -1   9   5   49.40    8.60
  -1   9   5   43.20    6.80
  -1  -9  -5   43.60    7.90
   1   9  -5   54.49    7.30
   1   9   5   48.40    7.00
  -1   9  -5   40.80    8.80
   1  -9  -5   28.20    6.30
   1  -9  -5   37.90    6.30
  -1   9  -5   49.30    6.90
  -3  -9  -5   86.19    9.80
  -3   9   5   81.49   12.30
   3  -9  -5   98.79   10.50
  -3   9  -5   98.19   14.70
  -3   9  -5   79.09    9.70
   3  -9  -5   86.19   10.90
   3   9   5   87.39    9.00
   5   9  -5   14.30    2.90
  -5  -9  -5   15.70    4.70
  -5   9   5    8.80    6.90
  -5   9   5   11.60    5.70
   5  -9   5   17.60    4.00
   5   9   5   10.00    4.10
  -5   9  -5    7.10    4.60
   5  -9  -5   22.40    6.80
  -5   9  -5    5.70    6.30
   5  -9  -5    6.10    4.40
   7   9  -5   42.80    6.60
   7  -9   5   50.79    7.90
  -7  -9  -5   54.89    9.70
   7  -9  -5   42.00   10.10
   7   9   5   54.09    8.40
   7  -9  -5   62.99   11.40
   0  10  -5  987.80   55.69
   0  10   5  861.31   57.29
   0 -10  -5  880.01   52.69
   0  10  -5  901.71   48.30
  -2  10   5    7.10    4.10
  -2  10   5    9.10    5.60
   2  10  -5    5.40    2.70
  -2 -10  -5    4.70    3.30
   2  10  -5    5.40    1.70
   2  10   5    2.00    3.00
   2 -10  -5    1.50    3.40
   2 -10  -5    1.20    2.60
  -2  10  -5   11.30    6.50
  -2  10  -5   13.40    4.10
  -4  10   5  612.94   43.60
  -4 -10  -5  680.33   39.90
   4  10   5  626.74   37.70
   4 -10  -5  564.74   41.20
   4 -10  -5  646.14   40.40
  -4  10  -5  678.63   39.60
  -4  10  -5  717.63   47.90
  -6 -10  -5    4.70    4.50
   6  10  -5    3.20    2.80
   6 -10   5    6.60    3.60
   6 -10  -5    0.20    4.30
   6 -10  -5    9.60    7.50
   8  10  -5  337.27   21.60
   8 -10   5  298.47   21.60
  -8 -10  -5  293.77   23.70
   8 -10  -5  343.37   26.50
   8 -10  -5  280.57   26.20
   8  10   5  278.87   21.80
  -1  11   5   33.20    8.30
   1  11  -5   48.10    5.30
   1  11  -5   60.29    9.10
  -1 -11  -5   38.60    8.20
  -1  11   5   43.90    7.60
   1 -11  -5   55.29   10.40
   1  11   5   50.59    7.90
  -1  11  -5   45.90    7.50
  -1  11  -5   48.10   10.60
   3  11  -5   83.59    6.80
  -3 -11  -5   84.29   12.40
  -3  11  -5   91.09   10.90
   3 -11  -5   94.69   15.30
   3 -11  -5   73.29   11.00
  -5 -11  -5   11.10    5.50
   5 -11   5    9.50    2.60
   5 -11  -5    0.80    6.40
  -5  11  -5    9.80    6.60
   5 -11  -5   15.30    6.40
  -7 -11  -5   67.79   11.10
   7 -11   5   94.19    9.50
   7  11  -5   90.39    9.10
   7 -11  -5   58.69   11.50
   0 -12  -5  320.97   25.10
   0  12  -5  309.27   20.60
   0  12  -5  302.47   23.30
  -2 -12  -5   10.90    5.80
   2  12  -5    8.60    3.10
   2  12  -5    6.20    3.60
  -2  12  -5   12.90    5.60
  -2  12  -5    7.80   13.50
   2 -12  -5   10.00    4.40
   2 -12  -5   10.10    5.60
  -4 -12  -5  285.67   22.80
   4 -12  -5  253.87   22.00
   4 -12  -5  248.78   24.90
  -4  12  -5  324.17   23.00
  -6 -12  -5   10.00    6.30
   6  12  -5    0.00    3.00
   6  12  -5   -3.30    3.30
   6 -12  -5   -3.50    7.20
   6 -12  -5   10.10    7.20
   1  13  -5  128.09   11.70
   1  13  -5  120.79   13.20
  -1 -13  -5  124.79   16.40
  -1  13  -5  146.39   14.90
   1 -13  -5  117.09   16.40
  -3 -13  -5  175.28   18.00
   3  13  -5  186.48   13.20
   3 -13  -5  172.98   16.80
   3 -13  -5  165.28   20.80
  -3  13  -5  194.78   18.10
   0 -14  -5   10.50    7.90
   0  14  -5   12.50    6.90
  -2 -14  -5   -6.40    9.90
   2  14  -5   15.20    5.20
   2 -14  -5   -5.10    6.50
  -2  14  -5   16.40    7.80
   0   0   6  106.49    7.10
   0   0   6  101.79    6.70
   0   0  -6  101.19    7.10
  -2   0   6  406.26   24.10
   2   0  -6  427.46   23.40
   2   0   6  437.86   23.60
   2   0   6  425.56   23.50
   2   0  -6  437.06   24.10
   4   0   6  684.73   36.00
   4   0  -6  552.84   36.90
  -4   0   6  689.53   35.20
   4   0  -6  669.63   35.80
  -6   0   6 1571.64   84.49
   6   0  -6 1699.83   88.69
   6   0   6 1576.34   85.39
   6   0  -6 1724.03   86.19
  -6   0   6 1636.74   83.79
  -8   0   6  490.45   32.20
   8   0  -6  597.54   36.10
   8   0   6  549.65   33.10
  -8   0   6  524.15   30.60
 -10   0   6  294.07   23.70
 -10   0   6  316.47   20.60
  10   0   6  300.17   23.10
  10   0  -6  316.17   25.60
   1   1  -6  487.25   24.70
   1  -1   6  458.35   24.50
   1  -1   6  428.06   24.30
  -1   1   6  483.65   25.60
   1  -1  -6  472.05   25.70
  -1  -1   6  483.55   23.50
   1   1   6  486.55   25.30
  -1  -1   6  389.56   24.10
   1  -1  -6  476.25   25.60
   3   1  -6  270.87   15.40
   3   1  -6  245.48   16.70
  -3   1   6  265.97   17.50
   3  -1   6  277.27   17.40
   3   1   6  292.17   16.70
   3  -1  -6  284.57   16.60
   3   1   6  253.27   16.10
  -3   1  -6  257.97   16.50
   3  -1  -6  275.27   17.70
   5   1  -6  526.15   29.50
   5  -1   6  503.05   29.60
  -5   1   6  519.95   29.80
  -5   1   6  522.95   30.00
   5   1  -6  493.15   31.50
  -5  -1   6  549.74   26.90
  -5   1  -6  502.55   30.20
   5  -1  -6  479.65   30.70
   5  -1  -6  484.25   32.00
   5   1   6  523.05   29.50
  -7   1   6   44.90    7.50
  -7   1   6   53.99    7.80
   7  -1   6   44.90    7.30
   7   1  -6   60.99    9.60
   7  -1  -6   56.19   10.00
  -7  -1   6   40.20    5.80
  -7   1  -6   53.09    8.40
  -7  -1   6   53.79    4.90
   7  -1  -6   55.19    8.60
   7   1   6   36.60    6.50
  -9   1   6  197.78   14.90
   9   1  -6  169.98   17.30
   9  -1   6  175.58   15.50
  -9   1   6  151.68   16.90
   9   1   6  179.78   15.70
  -9  -1   6  177.38   14.30
   9  -1  -6  191.78   17.90
   0   2   6   22.40    3.40
   0  -2  -6   15.90    3.20
   0   2  -6   18.90    2.50
   0  -2  -6   21.20    3.40
   2   2  -6 7459.95  371.66
  -2   2   6 7506.95  373.36
   2  -2   6 7291.07  371.36
   2   2  -6 7122.99  370.96
   2  -2   6 7433.36  372.06
   2  -2  -6 7971.60  373.26
  -2   2  -6 7436.56  372.36
   2  -2  -6 8382.46  373.96
   2   2   6 7461.35  372.56
   4  -2   6  697.33   36.10
   4   2  -6  586.54   36.60
  -4   2   6  684.83   36.70
   4   2  -6  594.34   34.40
  -4   2   6  680.83   37.50
   4  -2  -6  629.04   37.90
   4   2   6  662.43   35.70
   4  -2  -6  657.53   36.70
  -4   2  -6  646.54   36.40
  -6   2   6  955.20   54.39
  -6   2   6  953.40   53.59
   6  -2   6  938.61   52.89
   6   2  -6  974.10   55.29
   6  -2  -6  986.60   56.39
   6   2   6  948.01   52.69
   6  -2  -6 1005.90   56.39
  -6   2  -6 1015.50   54.49
  -8   2   6  566.24   34.90
  -8   2   6  535.65   37.60
   8  -2   6  564.14   35.10
   8   2  -6  557.54   37.10
   8  -2  -6  650.53   38.70
  -8   2  -6  604.04   37.30
   8   2   6  555.54   34.70
   8  -2  -6  645.04   36.40
  -8   2  -6  520.25   36.70
  -8  -2   6  568.34   31.00
 -10   2   6  532.75   43.90
  10   2  -6  695.63   44.20
  10  -2   6  652.93   41.70
 -10   2   6  666.83   40.50
 -10  -2   6  678.83   37.20
  10   2   6  686.43   41.80
  10  -2  -6  788.42   45.60
  -1   3   6 2587.44  125.29
   1   3  -6 2325.47  122.59
  -1   3  -6 2437.96  123.79
   1  -3  -6 2576.74  125.59
   1   3   6 2383.66  124.69
   1  -3  -6 2620.74  125.49
  -3   3   6   28.90    5.30
   3   3  -6   18.80    3.70
  -3   3   6   22.60    4.80
   3  -3   6   29.10    4.50
   3  -3  -6   28.70    5.00
   3   3   6   40.20    5.50
   3  -3  -6   34.20    5.80
  -3   3  -6   35.00    5.10
  -5   3   6 2298.57  117.59
   5   3  -6 2246.18  116.19
   5  -3   6 2222.38  115.69
  -5   3   6 2367.86  117.39
  -5   3  -6 2328.87  116.99
   5   3   6 2282.87  115.19
  -5   3  -6 2231.18  117.79
   5  -3  -6 2045.60  118.29
   5  -3  -6 2293.97  117.59
   7   3  -6  244.78   18.70
   7  -3   6  244.88   17.80
  -7   3   6  241.78   18.20
  -7   3   6  212.78   19.60
  -7   3  -6  230.38   19.60
   7  -3  -6  239.08   19.40
   7  -3  -6  266.77   20.70
  -9   3   6   37.10    8.70
  -9   3   6   12.80    8.90
   9  -3   6   19.50    6.00
   9  -3  -6   22.40    7.40
   9   3   6   20.00    5.70
   0   4  -6  241.78   13.60
   0   4  -6  221.78   15.30
   0  -4  -6  268.27   16.40
   2  -4   6    8.80    2.00
   2   4  -6    6.10    1.50
  -2   4   6   11.40    3.30
   2  -4   6    8.30    1.40
  -2   4   6    7.30    2.70
   2  -4  -6    8.50    2.90
   2  -4  -6    7.60    2.80
  -2   4  -6    8.70    3.00
   2   4   6   14.20    3.00
  -2   4  -6    8.10    2.60
   4  -4   6  463.75   27.10
   4   4  -6  432.86   25.20
  -4   4   6  443.66   28.70
  -4   4   6  470.75   31.00
   4  -4  -6  467.25   29.00
  -4   4  -6  437.66   28.50
   4   4   6  450.15   26.60
   4  -4  -6  423.76   27.60
  -4   4  -6  469.75   27.90
   4   4   6  445.86   26.10
  -6   4   6 1336.97   75.59
   6  -4   6 1424.76   72.99
   6   4  -6 1355.46   71.59
  -6   4   6 1371.56   73.79
  -6   4  -6 1330.27   74.09
   6   4   6 1360.66   71.49
   6  -4  -6 1288.07   75.29
  -6   4  -6 1283.37   75.09
   6  -4  -6 1403.26   76.19
   8  -4   6  526.15   33.70
   8   4  -6  549.95   33.50
  -8   4   6  420.66   36.50
   8   4   6  536.55   32.40
   8  -4  -6  534.55   38.20
   8  -4  -6  576.64   36.60
 -10   4   6  112.09   19.20
  10   4  -6  160.08   16.70
  10  -4   6  145.59   16.20
  10  -4  -6  188.88   19.90
   1   5  -6  100.49    9.50
  -1  -5  -6   96.59    8.80
  -1   5   6   87.79    8.10
   1  -5  -6   89.69    8.70
  -1   5  -6   84.39    9.00
   1  -5  -6   92.09    8.40
   1   5   6  103.29    8.20
  -1   5  -6  103.59    7.90
  -3   5   6  358.56   23.50
   3  -5   6  364.26   21.40
   3   5  -6  384.36   19.70
  -3   5   6  380.86   24.80
   3  -5  -6  405.46   24.70
   3   5   6  406.26   23.10
  -3   5  -6  395.26   24.10
  -3   5  -6  361.96   25.10
   3  -5  -6  346.37   23.80
   5   5  -6   48.20    5.50
   5  -5   6   57.39    8.20
  -5   5   6   56.69    9.20
  -5   5   6   53.29    9.70
   5  -5  -6   57.99   10.00
   5   5   6   64.79    6.70
  -5   5  -6   54.89    8.90
   5  -5  -6   49.60    8.20
  -7   5   6   48.20   11.00
   7   5  -6   38.40    6.90
   7  -5   6   33.40    7.20
  -7   5   6   51.39    8.90
   7  -5  -6   58.99   14.60
  -7   5  -6   45.10    9.20
  -7   5  -6   43.60   10.40
   7  -5  -6   54.99   10.30
   7   5   6   53.79    7.70
  -9   5   6  542.65   43.10
   9  -5   6  552.94   36.40
   9   5  -6  512.95   35.70
   9   5   6  573.04   35.60
   9  -5  -6  628.44   39.70
   9  -5  -6  589.44   37.60
   0   6  -6   56.19    5.60
   0  -6  -6   78.99    8.10
   0  -6  -6   77.49    7.30
   0   6  -6   82.39   11.30
   0   6   6   74.19    7.20
   2   6  -6 2048.20   98.59
  -2   6   6 1934.91  101.59
  -2  -6  -6 2006.90  102.49
  -2   6   6 2017.30  103.49
   2  -6  -6 1948.01  102.69
   2   6   6 1986.30  101.09
  -2   6  -6 1852.31  101.39
   2  -6  -6 2085.19  102.59
  -2   6  -6 1849.61  104.89
  -4   6   6  328.57   23.70
   4   6  -6  304.77   17.20
  -4  -6  -6  351.26   22.00
   4  -6   6  328.57   19.50
  -4   6   6  325.27   22.20
  -4   6  -6  314.17   24.40
   4  -6  -6  292.87   22.10
   4   6   6  316.97   20.70
   4  -6  -6  319.57   22.60
  -4   6  -6  310.37   22.20
   6  -6   6   37.40    6.40
   6   6  -6   34.90    5.60
  -6   6   6   37.60    9.90
  -6   6   6   37.40    7.70
   6   6   6   29.10    5.80
  -6   6  -6   45.50   11.70
   6  -6  -6   38.90    8.40
   6  -6  -6   27.30    8.20
  -6   6  -6   35.20    8.10
   8  -6   6  425.06   28.20
  -8   6   6  363.96   34.30
   8   6  -6  441.56   27.90
   8   6   6  431.36   27.90
   8  -6  -6  443.26   31.50
   8  -6  -6  456.85   32.00
  -1  -7  -6 2601.74  130.79
  -1   7   6 2605.24  129.59
   1   7  -6 2540.65  129.39
  -1   7  -6 2560.54  133.59
   1  -7  -6 2626.74  129.89
   1   7   6 2541.75  129.09
   1  -7  -6 2527.05  130.79
  -1   7  -6 2320.57  128.29
  -3   7   6  359.36   26.00
  -3  -7  -6  395.76   24.70
  -3   7   6  358.96   23.90
  -3   7  -6  334.27   23.90
   3  -7  -6  374.66   25.00
   3   7   6  391.96   23.40
  -3   7  -6  376.16   28.40
   3  -7  -6  363.36   25.00
   5  -7   6 2506.15  120.19
  -5  -7  -6 2459.85  122.99
  -5   7   6 2591.04  135.19
  -5   7   6 2286.67  126.59
   5   7  -6 2449.05  117.79
  -5   7  -6 2278.77  128.59
   5  -7  -6 2235.48  127.09
   5  -7  -6 2183.58  124.29
  -5   7  -6 2205.78  123.49
   5   7   6 2339.47  121.59
   7   7  -6  361.86   23.20
  -7   7   6  305.97   30.80
   7  -7   6  431.26   25.40
   7  -7  -6  367.36   29.80
   7  -7  -6  358.36   28.00
   7   7   6  385.96   24.70
   9  -7   6  250.47   20.30
   9   7  -6  257.97   21.70
   9  -7  -6  285.47   23.40
   9  -7  -6  245.58   25.60
   0   8   6  113.29    9.90
   0   8  -6  113.79    9.10
   0   8  -6  100.09   11.40
   0  -8  -6  104.99   10.90
  -2  -8  -6  662.33   38.60
  -2   8   6  618.24   39.60
  -2   8   6  626.94   37.40
   2   8  -6  666.43   34.30
  -2   8  -6  642.04   41.40
   2   8   6  687.63   37.50
   2  -8  -6  664.03   38.30
   2  -8  -6  633.74   39.20
  -2   8  -6  604.64   36.90
  -4   8   6  198.28   15.70
  -4   8   6  172.98   17.80
  -4  -8  -6  173.68   15.00
   4  -8   6  175.08   10.60
   4  -8  -6  165.88   24.50
   4  -8  -6  161.28   15.40
  -4   8  -6  172.88   15.30
   4   8   6  173.78   14.10
  -4   8  -6  169.08   18.00
   6  -8   6   67.89    8.00
  -6   8   6   56.99   13.00
   6   8  -6   64.79    6.30
  -6  -8  -6   62.19   10.00
   6  -8  -6   67.19   12.70
  -6   8  -6   35.60    9.60
   6   8   6   47.10    7.50
  -6   8  -6   49.80    9.60
   6  -8  -6   71.89   12.10
   8  -8   6  305.57   21.70
  -8  -8  -6  283.97   22.80
   8   8  -6  286.37   20.80
   8  -8  -6  348.07   26.40
   8   8   6  309.77   21.90
   8  -8  -6  270.67   25.00
  -1  -9  -6   11.60    3.90
   1   9  -6   13.20    4.10
   1   9  -6   19.60    3.20
  -1   9   6   23.70    6.10
  -1   9  -6    9.50    5.40
   1  -9  -6   16.60    5.40
   1  -9  -6   18.20    4.80
   1   9   6   12.80    4.10
  -1   9  -6   17.20    4.30
  -3  -9  -6  326.57   23.70
  -3   9   6  365.06   27.70
   3   9  -6  351.66   18.10
  -3   9   6  361.36   24.00
   3   9   6  346.37   22.80
   3  -9  -6  338.97   24.40
  -3   9  -6  363.26   27.70
  -3   9  -6  340.07   23.40
   3  -9  -6  316.37   24.80
  -5  -9  -6   16.70    5.40
   5   9  -6   13.00    2.60
   5  -9   6   13.00    3.10
  -5   9   6    2.00    7.80
  -5   9  -6   18.20    7.30
   5  -9  -6    9.30    6.10
   5  -9  -6   22.80    6.60
   7  -9   6    6.10    4.50
   7   9  -6   20.60    4.70
  -7  -9  -6   13.40    5.70
   7  -9  -6   24.20    8.00
   7  -9  -6    5.20    7.30
   7   9   6   12.00    5.20
   0 -10  -6   70.49   10.70
   0  10  -6   70.39    7.60
   0  10   6   55.39    8.50
   0  10  -6   68.89   10.80
  -2  10   6  112.49   12.30
   2  10  -6  124.49    8.10
   2  10  -6  124.59    9.30
  -2  10   6  117.99   14.40
  -2 -10  -6  124.09   12.90
  -2  10  -6  126.69   11.80
   2 -10  -6  132.09   14.20
   2  10   6  115.49   11.40
   2 -10  -6  124.99   12.20
  -2  10  -6  133.59   15.70
  -4 -10  -6  271.97   21.50
  -4  10  -6  280.67   21.80
   4 -10  -6  295.57   22.50
  -4  10  -6  301.27   25.80
   4 -10  -6  269.17   23.30
   6 -10   6  335.17   20.60
  -6 -10  -6  332.87   25.10
   6  10  -6  350.16   20.50
   6 -10  -6  329.77   27.20
   6 -10  -6  350.86   29.40
   1  11  -6 1457.45   70.69
  -1 -11  -6 1330.67   76.29
   1  11  -6 1333.47   72.89
  -1  11  -6 1470.15   73.99
   1 -11  -6 1305.67   76.69
  -1  11  -6 1253.77   77.29
  -3 -11  -6   42.30    8.20
   3  11  -6   38.70    4.30
  -3  11  -6   49.30   12.70
  -3  11  -6   35.70    7.90
   3 -11  -6   28.20    7.10
   3 -11  -6   43.90    7.80
   5  11  -6 1483.05   69.49
  -5 -11  -6 1359.26   76.19
   5 -11  -6 1213.78   78.89
   5 -11  -6 1305.67   77.19
   0  12  -6   19.00    6.50
   0  12  -6   10.50    4.80
   0 -12  -6    1.40    4.40
  -2 -12  -6 1729.13   97.09
   2  12  -6 1777.42   90.99
   2  12  -6 1843.22   90.19
  -2  12  -6 1977.20   95.29
  -2  12  -6 1645.94  103.59
   2 -12  -6 1658.33   97.99
   2 -12  -6 1698.13   94.69
  -4 -12  -6  254.37   22.20
   4  12  -6  264.97   15.80
  -4  12  -6  295.07   22.50
   4 -12  -6  249.48   21.80
   4 -12  -6  249.58   26.50
  -1 -13  -6   59.09   12.00
   1  13  -6   54.79    9.30
   1  13  -6   68.99    9.30
   1 -13  -6   73.99   20.20
  -1  13  -6   78.29   11.10
  -3 -13  -6  166.98   17.80
   3  13  -6  170.28   13.10
   3 -13  -6  135.99   15.90
  -3  13  -6  190.08   17.80
   3 -13  -6  139.99   19.60
   0   0   7    4.70    1.80
   0   0  -7    3.90    1.80
   0   0   7    3.90    1.50
   2   0   7    3.20    1.60
   2   0  -7    4.30    1.80
  -2   0   7   -0.30    1.80
   2   0   7    1.00    1.40
   2   0  -7    1.90    1.50
  -4   0   7    4.80    2.10
   4   0   7    1.50    2.00
   4   0  -7    2.20    2.80
   4   0  -7    6.90    2.80
  -6   0   7    6.30    2.20
   6   0  -7    0.00    3.00
   6   0  -7   -0.50    2.20
   6   0   7    3.60    2.30
  -6   0   7    5.30    2.20
  -8   0   7    1.30    3.60
  -8   0   7    0.80    2.40
   8   0  -7    5.30    5.40
   8   0   7    4.80    3.00
 -10   0   7    3.30    5.60
  10   0  -7    0.80    6.20
  10   0   7    0.40    5.40
 -10   0   7    3.10    4.10
  -1   1   7  736.53   37.70
   1  -1   7  695.53   36.50
   1  -1   7  687.03   36.40
   1   1  -7  666.93   36.60
  -1  -1   7  705.93   35.30
   1  -1  -7  687.83   37.50
   1   1   7  695.93   37.20
   1  -1  -7  719.13   37.90
   1   1   7  719.03   38.20
   3  -1   7  612.54   32.90
   3  -1   7  631.34   33.20
  -3   1   7  573.24   34.20
   3   1  -7  591.24   33.60
   3   1  -7  576.94   32.20
   3   1   7  601.64   33.60
   3   1   7  603.64   33.20
   3  -1  -7  646.64   34.70
   3  -1  -7  626.74   33.40
   5   1  -7  509.15   36.30
   5  -1   7  669.93   35.60
  -5   1   7  636.74   35.10
   5   1  -7  605.64   35.50
  -5   1   7  648.14   35.40
   5  -1  -7  552.24   37.20
   5  -1  -7  630.04   36.20
  -5  -1   7  669.83   31.50
   5   1   7  625.54   35.10
   7  -1   7   80.09    8.70
  -7   1   7   57.39    8.90
  -7   1   7   83.29    8.20
   7   1  -7   89.29   12.30
   7  -1  -7  100.59   13.60
   7  -1  -7   86.79    9.60
  -7  -1   7   59.29    5.20
   9  -1   7  511.85   34.70
   9   1  -7  619.14   38.60
  -9   1   7  588.34   33.20
  -9   1   7  520.65   35.50
   9  -1  -7  623.24   38.90
  -9  -1   7  538.75   31.80
   9   1   7  547.15   35.20
   0  -2  -7    4.60    2.10
   0   2  -7    1.30    1.00
   0  -2  -7    2.70    2.00
   0   2   7    1.50    1.40
   2   2  -7  453.25   25.10
   2  -2   7  466.65   25.80
   2   2  -7  467.45   25.50
  -2   2   7  482.15   27.20
   2  -2   7  453.85   25.10
   2  -2  -7  487.55   27.40
   2   2   7  457.25   26.20
   2  -2  -7  499.55   27.10
  -4   2   7    2.70    2.30
  -4   2   7    3.10    2.50
   4   2  -7    2.60    2.70
   4   2  -7    3.00    1.80
   4  -2   7    4.40    2.30
   4   2   7    6.10    2.60
   4  -2  -7    1.90    3.00
   4   2   7   11.10    2.80
  -4   2  -7    3.10    2.20
   4  -2  -7    3.70    2.30
  -6   2   7  247.68   18.50
   6  -2   7  241.28   17.50
   6   2  -7  268.57   19.80
  -6   2   7  248.78   18.10
   6  -2  -7  246.68   20.40
   6  -2  -7  252.57   19.80
  -6   2  -7  279.77   19.30
   6   2   7  266.87   17.70
   8  -2   7    3.50    3.40
  -8   2   7    5.10    4.90
   8   2  -7    2.40    4.30
  -8   2   7    3.20    4.30
   8  -2  -7   16.10    6.20
   8   2   7    4.60    3.50
   8  -2  -7    3.00    4.00
  10  -2   7   44.40    9.50
  10   2  -7   51.89   11.10
 -10   2   7   41.40   11.40
  10  -2  -7   57.19   11.60
  10   2   7   57.29   15.60
   1   3  -7  709.23   36.40
  -1   3   7  704.13   38.70
  -1   3  -7  677.83   37.30
   1   3   7  725.93   38.70
   1  -3  -7  720.13   38.90
   1  -3  -7  731.53   39.30
   3   3  -7  104.49    8.30
   3  -3   7  112.89    8.00
  -3   3   7  129.69   12.20
   3  -3   7  103.19    8.50
   3  -3  -7  103.69    9.50
   3   3   7  113.99    9.30
   3   3   7  122.19    9.20
   3  -3  -7  124.99   10.60
   5  -3   7  676.73   39.10
  -5   3   7  752.12   41.00
   5   3  -7  625.44   41.00
  -5   3   7  702.53   40.80
   5  -3  -7  662.53   41.90
  -5   3  -7  707.03   40.60
   5  -3  -7  680.93   40.50
   5   3   7  734.73   39.10
   7  -3   7   38.70    6.90
   7   3  -7   46.80    9.10
  -7   3   7   35.80    7.50
  -7   3   7   35.00    8.30
  -7   3  -7   37.00    7.60
   7  -3  -7   45.20    9.30
   7   3   7   34.20    6.00
  -7   3  -7   42.00    8.90
   7  -3  -7   39.10    9.60
   9   3  -7  262.47   23.00
  -9   3   7  275.27   23.20
   9  -3   7  270.77   21.00
  -9   3   7  209.98   23.20
   9   3   7  264.87   20.50
   9  -3  -7  290.17   24.20
   9  -3  -7  320.97   23.40
   0   4   7   39.70    5.60
   0  -4  -7   35.10    5.90
   0   4  -7   33.50    3.30
   0  -4  -7   27.50    4.50
   2   4  -7  928.91   47.20
   2  -4   7  880.41   47.40
  -2   4   7  966.40   50.69
   2   4  -7  920.21   48.40
   2   4   7  933.41   49.90
   2  -4  -7  981.40   51.09
   2  -4  -7  971.60   51.19
  -2   4  -7  904.61   49.30
  -4   4   7    0.20    2.90
   4  -4   7    1.60    2.50
   4   4  -7    6.50    3.30
  -4   4   7    5.40    3.50
  -4   4  -7   10.30    3.60
   4  -4  -7    7.90    3.90
   4  -4  -7   -0.10    2.20
   4   4   7    7.60    2.80
   4   4   7   13.10    3.90
  -4   4  -7    5.30    2.90
   6  -4   7  744.53   43.70
  -6   4   7  853.81   45.60
  -6   4   7  714.73   46.10
   6   4  -7  796.62   45.00
  -6   4  -7  715.23   46.20
   6  -4  -7  735.73   46.00
   6  -4  -7  742.93   47.10
  -6   4  -7  811.62   45.80
   8  -4   7    8.80    4.40
   8   4  -7   12.50    6.10
  -8   4   7   20.70    7.30
  -8   4   7   14.70    7.20
   8  -4  -7    9.00    5.80
   8  -4  -7   11.10    5.60
   8   4   7    3.40    3.40
 -10   4   7  202.98   28.50
  10  -4   7  234.38   21.80
  10   4  -7  258.57   23.30
  10   4   7  274.47   21.50
  10  -4  -7  323.17   26.00
   1   5  -7  270.07   13.70
   1   5  -7  253.17   17.30
  -1  -5  -7  235.68   17.60
  -1   5   7  245.68   16.90
   1   5  -7  267.87   14.00
   1  -5  -7  260.77   17.90
   1   5   7  275.07   17.10
  -1   5  -7  263.77   15.90
   1  -5  -7  275.47   17.50
  -1   5  -7  235.38   17.90
   3  -5   7  132.29    8.70
  -3   5   7  168.48   12.70
   3  -5   7  150.58    9.70
  -3   5   7  159.68   13.40
  -3   5  -7  149.19   12.00
   3   5   7  138.79   11.50
   3  -5  -7  164.68   13.20
  -3   5  -7  142.39   13.30
   3  -5  -7  151.58   12.60
   5   5  -7  177.58   13.90
  -5   5   7  188.08   16.60
   5  -5   7  200.08   14.60
  -5   5   7  192.98   17.30
  -5   5  -7  212.28   16.90
   5  -5  -7  191.58   16.30
  -5   5  -7  190.88   17.40
   5  -5  -7  195.38   17.30
   5   5   7  190.58   14.30
   5   5   7  210.08   15.40
   7  -5   7   52.79    8.60
   7   5  -7   60.89    9.40
  -7   5   7   58.09    9.70
  -7   5   7   71.49   13.90
   7   5   7   56.79    8.10
   7  -5  -7   67.69   12.10
  -7   5  -7   52.39   11.80
  -7   5  -7   52.59   10.00
   7  -5  -7   53.99   11.00
  -9   5   7   96.99   17.90
   9  -5   7  122.09   13.50
   9  -5  -7  134.69   14.90
   9   5   7  120.29   13.10
   9  -5  -7  166.48   17.90
   0   6  -7    6.90    3.80
   0  -6  -7    9.20    3.70
   0   6   7   11.00    3.30
   0   6  -7   18.20    3.30
   0  -6  -7    8.70    3.10
   2   6  -7 1798.52   92.49
  -2   6   7 1881.01   95.59
  -2  -6  -7 1807.52   96.19
   2  -6  -7 1926.31   96.29
   2  -6  -7 1841.62   96.29
  -2   6  -7 1905.71   95.09
   2   6   7 1854.61   94.89
  -2   6  -7 1649.83   97.59
   4  -6   7    6.20    2.60
   4   6  -7    5.00    2.10
  -4   6   7    1.00    3.60
  -4   6   7    7.90    4.00
  -4  -6  -7   12.80    5.10
   4   6   7    9.10    3.60
   4  -6  -7    8.90    3.70
  -4   6  -7    0.50    3.60
   4  -6  -7    9.40    4.30
  -4   6  -7    1.60    3.60
   6   6  -7  759.62   42.40
   6  -6   7  813.62   43.30
  -6   6   7  830.02   46.40
  -6   6   7  745.73   49.00
  -6   6  -7  718.53   48.60
   6   6   7  719.13   44.00
   6   6   7  768.12   43.30
  -6   6  -7  711.03   48.30
   6  -6  -7  762.12   47.30
   6  -6  -7  759.92   47.70
   8  -6   7    7.80    4.80
   8   6  -7   12.70    4.80
  -8   6   7    1.10    9.20
   8   6   7    7.80    4.30
   8  -6  -7    8.60    5.60
   8  -6  -7    8.80    6.60
   1   7  -7    8.30    3.50
   1   7  -7    8.20    2.00
  -1   7   7   24.40    5.20
  -1  -7  -7    4.40    2.70
  -1   7  -7    5.50    3.20
   1   7   7    5.60    3.10
   1  -7  -7    6.30    3.40
   1  -7  -7   13.90    4.20
  -1   7  -7   10.70    5.00
  -3   7   7    5.70    3.60
  -3   7   7    0.80    3.70
  -3   7  -7   -1.00    3.10
   3  -7  -7    3.80    3.40
   3   7   7    5.50    3.10
  -3   7  -7    5.80    4.40
   3  -7  -7    3.40    3.60
  -5   7   7   11.40    6.20
  -5  -7  -7   14.20    5.00
   5   7  -7   12.10    3.20
   5  -7   7   12.90    3.50
  -5   7   7    4.70    4.90
   5  -7  -7   13.50    5.00
  -5   7  -7   10.10    7.90
   5  -7  -7    5.50    3.30
   5   7   7   14.80    5.00
  -5   7  -7    7.40    4.50
   7  -7   7    2.80    3.80
   7   7  -7   -2.10    3.60
  -7   7   7    9.90    9.90
   7  -7  -7    6.30    5.70
   7  -7  -7   -2.60    5.20
   7   7   7    3.30    3.50
   9  -7   7    0.40    5.20
   9   7  -7   -0.80    9.50
   9  -7  -7    3.20    6.90
   9   7   7    3.80    5.10
   9  -7  -7    8.60    7.10
   0   8  -7    9.70    4.90
   0  -8  -7    0.30    2.70
   0   8  -7    1.30    2.60
   0   8   7    6.70    3.10
  -2   8   7 1664.93   86.59
   2   8  -7 1608.94   79.79
  -2  -8  -7 1527.75   84.69
   2  -8  -7 1611.44   84.59
   2  -8  -7 1496.15   85.19
  -2   8  -7 1557.24   88.19
  -4  -8  -7   18.10    5.20
  -4   8   7   14.30    6.70
  -4   8   7   13.50    4.70
   4  -8  -7    3.50    4.50
   4   8   7    7.80    3.80
   4  -8  -7    9.00    4.60
  -4   8  -7   15.00    5.50
  -4   8  -7   11.20    6.40
   6  -8   7  772.42   39.80
  -6  -8  -7  753.32   43.60
  -6   8  -7  678.83   44.50
   6  -8  -7  636.04   44.90
   6  -8  -7  639.04   45.20
   6   8   7  717.33   41.20
  -8  -8  -7   13.20    6.60
   8   8  -7   -0.50    4.60
   8  -8  -7   21.00    9.10
   8  -8  -7   12.10    6.90
   8   8   7    5.10    6.00
   1   9  -7    8.00    3.20
   1   9  -7   18.20    5.10
  -1   9   7    6.90    3.80
  -1  -9  -7   12.00    4.50
   1  -9  -7   12.20    4.10
   1  -9  -7   10.70    4.30
  -1   9  -7   17.40    6.60
  -1   9  -7    3.70    3.60
   1   9   7   17.40    4.50
  -3  -9  -7   -0.60    3.50
  -3   9   7    2.10    4.60
  -3   9   7    2.70    3.60
   3   9   7    2.60    3.70
   3  -9  -7    1.80    3.70
   3  -9  -7    2.30    3.50
  -3   9  -7    0.80    3.90
  -3   9  -7    6.60    5.80
  -5  -9  -7   14.00    5.50
   5   9  -7   14.00    2.90
  -5   9  -7    9.10    6.90
   5  -9  -7   13.50    6.70
  -5   9  -7   26.50   10.80
   5  -9  -7   10.30    5.90
   7  -9   7    5.40    4.20
   7   9  -7    7.00    4.50
  -7  -9  -7   -0.20    4.50
   7   9   7    3.30    4.30
   7  -9  -7    5.10    7.50
   7  -9  -7    3.00    6.30
   0  10  -7   84.89   12.00
   0  10  -7   83.39    8.40
   0 -10  -7   70.49   11.10
  -2 -10  -7  778.62   48.10
   2  10  -7  771.82   42.50
   2  10  -7  830.82   41.70
  -2  10  -7  831.82   51.39
   2 -10  -7  848.32   47.80
  -2  10  -7  803.12   46.20
   2 -10  -7  783.12   48.90
  -4 -10  -7   18.80    6.40
   4  10  -7   18.00    2.40
  -4  10  -7   14.50    8.00
   4 -10  -7   14.00    6.20
  -4  10  -7   15.80    6.50
   4 -10  -7   23.30    6.50
   6  10  -7  676.73   36.20
   6 -10   7  604.54   34.10
  -6 -10  -7  695.53   42.50
   6 -10  -7  663.23   44.00
   6 -10  -7  672.53   48.10
  -1 -11  -7  161.08   16.40
   1  11  -7  153.38   12.50
   1  11  -7  157.48   13.40
   1 -11  -7  157.28   17.00
  -1  11  -7  165.58   14.00
  -1  11  -7  151.28   17.40
   3  11  -7   43.00    4.40
  -3 -11  -7   39.80    8.60
  -3  11  -7   37.50    8.40
   3 -11  -7   45.60   10.70
   3 -11  -7   36.90    8.40
  -3  11  -7   32.60    9.60
   5  11  -7  161.28   10.70
  -5 -11  -7  153.28   17.00
   5  11  -7  189.28   11.40
   5 -11  -7  162.88   17.80
   5 -11  -7  184.98   20.00
   0  12  -7    0.00    4.90
   0 -12  -7   -0.70    4.60
   0  12  -7   -5.80    5.10
  -2 -12  -7  262.87   23.00
   2  12  -7  283.57   17.50
   2  12  -7  263.27   17.10
  -2  12  -7  298.07   21.80
   2 -12  -7  244.58   24.50
   2 -12  -7  256.27   21.50
  -2  12  -7  290.77   26.70
   4  12  -7    5.00    2.40
  -4 -12  -7   -3.90    5.30
   4 -12  -7   -2.30    5.60
   4 -12  -7   -0.20    5.90
   1  13  -7  166.98   14.40
  -1 -13  -7  135.79   17.10
   1  13  -7  127.99   13.50
  -1  13  -7  110.89   18.40
  -1  13  -7  148.69   15.10
   1 -13  -7  138.49   19.70
   0   0   8 7891.61  386.56
   0   0  -8 7746.52  387.26
   0   0   8 7957.10  387.36
   2   0  -8   17.70    3.40
   2   0  -8   15.90    3.40
   2   0   8   20.00    3.50
  -2   0   8   16.90    3.70
   2   0   8   19.60    3.50
  -4   0   8 2315.67  115.69
   4   0  -8 2213.48  118.79
   4   0   8 2269.97  117.39
   4   0   8 2412.46  117.89
   4   0  -8 2333.47  117.19
  -6   0   8  774.62   37.50
   6   0  -8  722.53   41.60
   6   0  -8  556.34   41.80
   6   0   8  721.53   40.20
   8   0  -8  342.37   26.10
  -8   0   8  315.47   18.50
   8   0   8  279.07   21.70
  10   0  -8   28.20    9.00
   1  -1   8  104.99    7.20
  -1   1   8   92.19    8.00
   1  -1   8   93.89    7.10
  -1  -1   8   77.89    6.60
  -1  -1   8  111.29    6.10
   1  -1  -8  119.49    8.90
   1  -1  -8   92.89    7.80
   1   1   8  108.29    7.90
   1   1   8   88.79    7.50
   3  -1   8 1552.14   77.79
  -3   1   8 1449.06   79.09
   3  -1   8 1531.15   77.99
   3   1  -8 1476.35   78.29
   3   1   8 1453.95   78.19
   3  -1  -8 1576.14   78.49
   3   1   8 1502.35   78.09
   3  -1  -8 1600.04   79.69
   5   1  -8    4.60    3.70
  -5   1   8    4.70    2.80
   5   1  -8    8.50    3.00
   5  -1   8    5.30    2.70
   5  -1  -8    7.50    4.00
   5  -1  -8   12.00    4.10
   5   1   8    4.10    2.70
   7   1  -8   92.29   13.40
   7  -1   8  104.09   17.30
  -7   1   8   98.79   10.40
   7  -1  -8  116.69   11.80
   7  -1  -8  117.19   13.50
   7   1   8  103.19   10.60
   9  -1   8  287.57   22.70
   9   1  -8  365.46   26.70
  -9   1   8  291.47   20.10
  -9   1   8  316.47   22.70
   9   1   8  294.97   22.80
   9  -1  -8  328.87   26.10
   0   2   8   41.70    5.30
   0  -2  -8   25.30    4.30
   0  -2  -8   28.90    4.40
  -2   2   8   57.59    6.50
   2  -2   8   78.89    6.00
   2  -2   8   59.09    5.10
   2   2  -8   50.89    4.90
   2   2  -8   62.09    5.30
   2   2   8   51.89    5.70
   2   2   8   50.49    5.70
   2  -2  -8   43.80    5.70
   2  -2  -8   64.59    6.70
   4  -2   8  656.23   38.00
  -4   2   8  641.94   36.70
   4  -2   8  594.74   34.90
   4   2  -8  629.84   33.60
   4   2  -8  585.34   35.50
   4  -2  -8  643.74   36.10
   4  -2  -8  627.34   37.30
   4   2   8  647.54   35.90
   4   2   8  635.14   35.30
   6   2  -8  946.91   59.69
  -6   2   8 1044.50   58.49
   6  -2   8 1105.19   58.09
  -6   2   8 1165.08   58.69
   6   2   8 1072.79   57.89
   6  -2  -8 1075.89   60.19
   6  -2  -8 1016.10   61.79
  -8   2   8  810.02   50.69
   8   2  -8  914.11   53.39
   8  -2   8  841.12   49.90
  -8   2   8  820.72   48.80
   8  -2  -8  964.50   51.69
   8  -2  -8  912.91   54.69
   8   2   8  858.71   49.99
  10  -2   8   52.99   10.10
 -10   2   8   91.29   15.10
  -1  -3  -8   13.00    3.60
  -1   3   8   23.00    4.40
   1   3  -8   11.50    2.30
   1  -3  -8   16.20    4.40
   1  -3  -8   12.50    3.30
   1   3   8   16.20    3.40
  -3   3   8  596.44   34.80
   3  -3   8  564.04   32.30
   3  -3   8  561.24   31.40
   3   3  -8  589.34   32.10
   3   3  -8  604.54   30.80
   3   3   8  612.84   33.30
   3  -3  -8  617.04   34.20
  -3   3  -8  571.64   33.30
   3   3   8  577.84   33.40
   3  -3  -8  607.34   34.90
   5  -3   8   46.20    6.80
   5   3  -8   42.80    7.50
  -5   3   8   56.19    8.30
  -5   3   8   62.59    9.10
   5  -3  -8   44.10    8.30
   5   3   8   52.09    7.70
   5  -3  -8   42.60    7.10
  -5   3  -8   55.89    8.80
   5   3   8   55.29    6.50
  -7   3   8   21.40    6.70
   7   3  -8   26.10    7.50
  -7   3   8   26.10    5.70
   7  -3   8   22.10    5.30
   7  -3  -8   15.30    5.90
   7  -3  -8   33.10    8.60
  -7   3  -8   18.30    5.20
   7   3   8   22.50    5.40
  -7   3  -8   23.40    6.80
   9   3  -8  315.17   26.10
   9  -3   8  319.97   24.20
  -9   3   8  351.06   30.10
  -9   3   8  277.07   26.70
   9   3   8  318.27   23.90
   9  -3  -8  352.26   27.90
   9  -3  -8  347.57   24.60
   0  -4  -8 4411.16  222.78
   0  -4  -8 4572.04  224.08
   0   4   8 4409.56  222.68
   2   4  -8    8.40    1.90
  -2   4   8   10.80    3.30
  -2   4  -8   10.30    3.10
   2   4   8    8.50    3.00
   2  -4  -8    5.70    2.90
   2  -4  -8   15.60    4.00
   4  -4   8  959.60   51.19
  -4   4   8  928.41   53.79
   4   4  -8  843.62   50.09
   4  -4   8  943.71   49.50
  -4   4  -8  881.91   53.39
   4  -4  -8  960.40   52.79
  -4   4  -8  977.60   52.69
   4  -4  -8 1020.30   54.29
   4   4   8  939.41   51.19
   4   4   8  998.00   52.09
   6   4  -8  505.05   34.50
  -6   4   8  631.64   35.80
   6  -4   8  604.24   34.40
  -6   4   8  513.05   35.90
   6   4   8  621.94   35.20
   6  -4  -8  508.65   36.70
   6  -4  -8  522.05   35.50
  -6   4  -8  577.84   37.30
  -6   4  -8  558.54   36.40
   6   4   8  596.84   33.80
   8   4  -8  100.09   14.10
   8  -4   8  101.49   11.70
  -8   4   8   94.69   15.10
  -8   4   8   88.99   11.60
   8   4   8   70.99   10.30
   8  -4  -8  108.69   15.10
   8  -4  -8  116.19   15.90
  -1  -5  -8  398.26   25.90
   1   5  -8  409.26   24.80
  -1   5   8  417.46   25.00
   1  -5  -8  424.86   26.00
  -1   5  -8  381.36   22.90
   1   5   8  388.86   24.40
  -1   5  -8  393.66   25.80
   1  -5  -8  441.46   25.50
  -3   5   8 2865.61  142.79
   3  -5   8 2530.75  137.49
   3   5  -8 2743.13  138.39
   3  -5  -8 2931.31  143.39
   3   5   8 2887.61  141.99
  -3   5  -8 2764.22  141.79
   3  -5  -8 2919.21  143.89
  -3   5  -8 2683.13  144.09
  -5   5   8   17.40    6.00
   5  -5   8   19.10    4.60
   5   5  -8   13.60    4.70
  -5   5   8    9.40    5.80
   5  -5  -8   17.80    5.60
   5   5   8   17.70    4.60
  -5   5  -8   12.90    5.20
  -5   5  -8    9.10    4.60
   5  -5  -8   10.20    5.60
   5   5   8   33.40    6.40
  -7   5   8  509.15   38.10
  -7   5   8  595.14   35.60
   7   5  -8  515.65   35.40
   7  -5   8  561.64   34.20
   7  -5  -8  564.74   38.40
   7   5   8  557.94   33.70
   7  -5  -8  536.85   38.00
   9   5  -8  338.87   27.40
   9  -5   8  311.97   24.50
   9   5   8  335.07   24.70
   9  -5  -8  302.97   33.70
   9  -5  -8  358.86   26.90
   0   6   8  388.06   24.40
   0  -6  -8  407.26   24.60
   0  -6  -8  415.86   25.90
   0   6  -8  390.26   21.80
   0   6  -8  368.96   26.10
   2   6  -8   18.50    4.00
  -2  -6  -8   17.10    5.00
   2   6  -8   15.80    1.90
  -2   6   8   21.50    5.30
   2   6   8   12.50    4.30
   2  -6  -8   11.80    4.00
   2  -6  -8   19.80    4.90
  -2   6  -8   11.80    3.80
  -2   6  -8    7.20    4.10
   4  -6   8   27.90    3.90
   4  -6   8   26.40    3.30
  -4   6   8   33.50    7.00
  -4   6   8   21.90    6.60
   4   6  -8   20.20    4.20
  -4  -6  -8   27.40    6.50
  -4   6  -8   30.40    7.40
   4   6   8   28.40    6.00
  -4   6  -8   23.00    6.40
   4  -6  -8   25.70    7.20
  -6   6   8  554.74   45.40
   6   6  -8  515.95   33.80
  -6   6   8  614.84   36.50
   6  -6   8  616.74   33.00
   6  -6  -8  535.65   37.60
   6   6   8  549.35   33.40
   6  -6  -8  527.05   36.20
  -6   6  -8  544.05   36.50
  -6   6  -8  500.95   37.70
   8   6  -8  165.28   17.10
   8  -6   8  161.58   14.70
   8  -6  -8  185.78   19.20
   8  -6  -8  157.58   17.80
   8   6   8  172.68   15.20
   1   7  -8   56.59    4.50
  -1  -7  -8   49.90    7.60
  -1   7   8   48.30    7.60
   1   7  -8   53.09    8.40
   1   7   8   59.59    8.00
  -1   7  -8   54.19   13.20
   1  -7  -8   50.69    8.70
  -1   7  -8   54.19    6.40
   1  -7  -8   51.09    8.00
  -3   7   8  299.47   22.80
  -3  -7  -8  292.87   21.50
   3   7   8  323.07   20.70
  -3   7  -8  263.17   20.20
   3  -7  -8  315.77   22.10
  -3   7  -8  250.37   23.20
   3  -7  -8  296.47   21.70
   5  -7   8   83.79    7.10
  -5   7   8   94.69   13.60
   5   7  -8   69.89    8.40
  -5  -7  -8   98.39   10.70
   5  -7   8   92.59    7.70
  -5   7   8   82.29   13.40
  -5   7  -8   68.19   11.70
   5   7   8  108.89   10.00
   5  -7  -8   99.29   14.00
   5  -7  -8   76.89   11.90
  -5   7  -8  108.89   16.60
   7   7  -8   76.69   11.20
   7  -7   8   99.39   10.10
   7  -7  -8   50.19   12.30
   7  -7  -8   74.49   13.10
   7   7   8   71.69   10.10
   0  -8  -8  828.62   48.00
   0   8  -8  812.72   48.60
   0   8  -8  790.42   43.60
   0   8   8  822.92   46.20
  -2  -8  -8   14.60    4.70
   2   8  -8   13.70    2.90
  -2   8   8   15.50    4.50
  -2   8  -8    3.20    5.40
  -2   8  -8   11.80    4.20
   2  -8  -8    9.70    4.40
   2   8   8   20.60    5.50
   2  -8  -8   16.80    5.50
  -4   8   8   27.50    8.20
  -4   8   8   25.30    6.80
  -4  -8  -8   15.50    5.50
   4  -8  -8   14.50    5.30
  -4   8  -8   18.60    6.90
   4  -8  -8   47.10    9.20
   6   8  -8  400.46   28.50
  -6  -8  -8  540.15   33.20
   6  -8   8  515.35   27.50
   6  -8  -8  402.96   33.30
   6   8   8  497.75   30.40
   6  -8  -8  479.45   34.70
   1   9  -8  224.38   15.50
  -1  -9  -8  270.07   20.70
  -1   9   8  254.67   19.20
   1   9  -8  294.27   18.70
  -1   9  -8  229.08   17.70
   1   9   8  260.37   19.20
  -1   9  -8  265.47   22.00
   1  -9  -8  262.47   20.80
   1  -9  -8  255.57   19.20
  -3  -9  -8 1989.90  103.89
  -3   9  -8 1980.80  107.49
   3  -9  -8 1974.80  104.69
  -3   9  -8 1607.74  101.69
   3  -9  -8 2118.79  104.59
  -5  -9  -8   16.40    6.10
   5   9  -8   11.10    3.70
  -5   9  -8   11.30    6.10
   5  -9  -8   11.60    5.40
   5  -9  -8   28.80    8.60
  -7  -9  -8  392.06   40.50
   7   9  -8  357.96   25.40
   7  -9   8  419.86   23.70
   7  -9  -8  360.36   32.50
   7   9   8  373.76   26.50
   7  -9  -8  407.16   31.60
   0 -10  -8 1601.54   81.79
   0  10  -8 1259.17   75.49
   0  10  -8 1518.55   80.49
  -2 -10  -8    2.70    4.00
   2 -10  -8    5.50    4.40
   2 -10  -8   -0.10    4.10
  -2  10  -8    8.50    5.20
  -2  10  -8   -0.60    5.70
  -4 -10  -8  255.27   21.70
   4 -10  -8  282.57   22.70
  -4  10  -8  254.77   30.10
   4 -10  -8  257.87   22.70
  -6 -10  -8  399.86   35.80
   6  10  -8  349.27   22.20
   6  10   8  388.36   25.80
   6 -10  -8  378.36   30.00
   6 -10  -8  312.17   29.30
   1  11  -8   26.50    5.70
  -1 -11  -8   21.30    6.10
   1  11  -8   19.40    4.70
   1 -11  -8   22.80    8.50
  -1  11  -8   13.40    8.30
  -1  11  -8   24.50    6.20
  -3 -11  -8  191.38   18.90
  -3  11  -8  218.48   22.70
   3 -11  -8  194.68   20.10
  -3  11  -8  188.08   18.60
   3 -11  -8  222.18   19.20
  -5 -11  -8   48.70   10.90
   5 -11  -8   35.50   10.30
   5 -11  -8   48.20   10.70
   0 -12  -8   94.89   15.60
   0  12  -8   95.99   11.50
   0  12  -8  119.79   15.20
   2  12  -8   15.00    4.60
  -2 -12  -8   10.20    6.20
  -2  12  -8   24.60    7.40
   2 -12  -8    5.70    6.60
  -2  12  -8   11.20    9.70
   0   0   9    2.50    1.40
   0   0  -9    1.20    1.70
   0   0   9    1.30    1.60
   2   0   9    1.30    1.90
   2   0  -9    1.50    2.20
   2   0   9    5.80    2.60
  -2   0   9    3.60    2.30
  -2   0   9    2.50    1.30
   2   0  -9    1.80    2.10
   4   0   9    1.00    2.20
  -4   0   9    0.10    1.50
   4   0  -9   -2.10    2.70
   4   0  -9    6.80    2.90
   4   0   9    0.70    1.80
   6   0  -9    0.60    4.00
  -6   0   9    3.60    1.90
   6   0  -9    1.40    3.80
   6   0   9    0.90    3.30
   6   0   9    1.40    3.00
  -8   0   9    3.40    2.10
   8   0   9    0.00    3.60
   8   0  -9   -5.90    4.90
   1   1  -9  666.73   36.20
   1  -1   9  698.03   35.70
  -1   1   9  662.73   37.00
   1  -1   9  690.13   35.90
  -1  -1   9  590.14   34.70
   1  -1  -9  705.43   37.90
   1   1   9  699.33   36.50
   1   1   9  679.83   36.80
   1  -1  -9  669.43   37.00
  -1  -1   9  697.93   34.20
   3  -1   9 1115.69   58.29
   3   1  -9 1112.69   57.79
   3   1  -9 1088.99   58.69
  -3   1   9 1056.19   59.09
   3  -1   9 1091.39   58.19
   3   1   9 1133.59   58.69
   3  -1  -9 1159.68   59.09
   3   1   9 1116.99   58.89
   3  -1  -9 1120.59   59.89
   5   1  -9  229.58   16.90
   5  -1   9  252.07   16.80
  -5   1   9  221.88   15.30
   5  -1   9  220.78   16.00
   5   1  -9  214.48   17.40
   5   1   9  237.18   17.00
   5  -1  -9  210.88   17.90
   5   1   9  244.28   16.60
   5  -1  -9  223.38   16.50
   7   1  -9  563.54   40.00
   7  -1   9  641.24   37.30
  -7   1   9  664.13   34.70
   7   1   9  612.94   37.10
   7  -1  -9  536.45   40.20
   7  -1  -9  649.43   38.60
   9   1  -9   66.19   13.20
   9  -1   9   54.09    9.90
  -9   1   9   69.99    8.10
   9   1   9   54.69    9.80
   9  -1  -9   81.99   14.40
   0  -2  -9  375.46   23.20
   0   2   9  404.16   23.50
   0  -2  -9  400.86   24.40
  -2   2   9    7.30    3.40
   2   2  -9   10.30    2.60
   2  -2   9    8.80    2.30
   2  -2   9    6.10    2.30
   2   2  -9    6.90    2.50
   2   2   9    9.10    3.20
   2  -2  -9    6.60    2.90
   2  -2  -9   14.50    3.70
   2   2   9   11.20    3.20
   4  -2   9  180.68   13.30
   4   2  -9  194.48   14.00
   4  -2   9  173.98   12.80
   4   2  -9  191.58   12.20
   4  -2  -9  178.18   14.00
   4   2   9  186.88   13.50
   4  -2  -9  183.48   15.20
   4   2   9  196.58   14.30
  -6   2   9    6.20    4.20
   6   2  -9   -1.20    3.70
   6  -2   9    4.10    2.90
   6   2   9   -2.10    3.40
   6   2   9    3.90    3.00
   6  -2  -9    7.80    3.80
   6  -2  -9    4.40    4.60
   8  -2   9   75.09   10.50
   8   2  -9   76.79   20.10
  -8   2   9   87.49   10.50
   8   2   9   85.09   11.40
   8  -2  -9   94.69   15.50
   8  -2  -9   87.39   10.70
  -1   3   9  394.36   23.30
  -1  -3  -9  356.06   24.00
   1   3  -9  365.76   20.80
   1  -3  -9  409.46   24.00
   1   3   9  355.26   22.60
   1  -3  -9  384.96   23.20
   3  -3   9  366.26   21.60
   3   3  -9  358.86   21.40
   3  -3   9  357.26   20.70
  -3   3   9  369.66   24.30
   3   3  -9  378.26   20.50
   3  -3  -9  388.16   23.60
   3  -3  -9  374.76   24.00
   3   3   9  373.26   23.10
   3   3   9  352.26   22.50
   5  -3   9  154.78   11.80
  -5   3   9  147.99   13.00
   5   3  -9   94.29   11.20
   5  -3   9  145.79   11.40
   5   3   9  175.28   15.20
   5  -3  -9  137.29   12.40
   5  -3  -9  112.09   13.10
   5   3   9  126.69   11.40
   7  -3   9  333.07   23.00
   7   3  -9  293.07   24.40
  -7   3   9  360.86   23.60
   7   3   9  359.76   23.40
   7  -3  -9  306.47   26.70
   7  -3  -9  329.37   25.60
   9   3  -9    5.20    7.30
  -9   3   9    7.00    8.30
   9  -3   9    6.80    5.70
   9  -3  -9    9.80    6.40
   9  -3  -9   11.50    8.30
   9   3   9    5.40    8.30
   0  -4  -9 1649.23   86.19
   0   4   9 1662.23   84.89
   0  -4  -9 1582.54   84.69
  -2   4   9   37.60    6.40
   2   4  -9   43.10    4.20
  -2  -4  -9   32.70    6.20
   2   4   9   49.99    7.10
   2  -4  -9   50.09    7.80
   2  -4  -9   53.19    7.70
   4  -4   9 1024.80   54.09
  -4   4   9 1074.39   59.19
   4  -4   9 1020.50   57.09
   4   4  -9 1043.70   55.09
   4  -4  -9 1031.70   58.89
   4   4   9  965.10   56.69
   4  -4  -9 1040.30   57.79
   4   4   9 1086.79   56.59
  -4   4  -9 1074.99   57.59
   6   4  -9   26.40    6.90
  -6   4   9   50.09    8.80
   6  -4   9   54.69    8.40
   6  -4  -9   35.20    7.90
   6   4   9   41.00    6.80
  -6   4  -9   40.80    8.90
   6  -4  -9   38.80    7.70
  -6   4  -9   57.59    9.20
   6   4   9   65.29   14.30
   8  -4   9  413.16   29.20
  -8   4   9  473.45   29.90
   8   4  -9  398.56   30.80
   8   4   9  420.96   29.00
   8  -4  -9  462.45   34.00
   8  -4  -9  456.65   31.90
   1   5  -9  209.18   16.00
  -1   5   9  237.98   16.70
  -1  -5  -9  230.48   17.60
  -1   5  -9  241.78   19.70
   1   5   9  225.98   16.40
  -1   5  -9  233.98   14.80
   1  -5  -9  248.08   17.60
   1  -5  -9  228.38   16.70
   3   5  -9  192.78   11.50
  -3  -5  -9  188.58   15.70
  -3   5   9  186.58   15.20
   3   5   9  192.78   14.50
  -3   5  -9  169.68   15.60
   3  -5  -9  185.78   15.40
  -3   5  -9  171.18   13.90
   3  -5  -9  176.58   15.00
  -5   5   9  113.29   12.60
   5  -5   9  108.59    9.80
   5   5  -9  112.69   16.10
   5  -5   9  118.29    9.20
   5  -5  -9  102.19   12.40
  -5   5  -9   89.29   13.20
   5   5   9   90.49    9.60
  -5   5  -9  113.69   12.40
   5   5   9  106.99   11.30
   5  -5  -9   90.49   10.90
   7   5  -9  130.79   15.60
  -7   5   9  201.68   17.20
  -7   5   9  154.48   19.60
   7  -5   9  185.38   15.40
   7  -5  -9  189.28   20.20
   7   5   9  212.78   16.50
   7  -5  -9  189.08   19.10
   0  -6  -9 1294.07   69.69
   0   6  -9 1243.48   69.69
   0   6   9 1347.87   68.49
   0  -6  -9 1223.98   67.99
   0   6  -9 1254.17   64.99
   2   6  -9   15.70    4.60
   2   6  -9   17.60    2.40
  -2   6   9   19.50    5.30
  -2  -6  -9   17.80    4.70
   2   6   9   23.40    4.90
  -2   6  -9   21.90    4.40
   2  -6  -9   26.30    6.10
  -2   6  -9   15.70    5.70
  -4  -6  -9 1134.79   63.19
   4   6  -9 1104.69   57.39
  -4   6  -9  992.40   63.89
  -4   6  -9 1134.39   62.29
   4  -6  -9 1088.89   62.59
   4   6   9 1156.68   60.79
   4   6   9 1134.09   61.59
   4  -6  -9 1153.58   63.99
   6  -6   9    2.50    3.70
  -6   6   9    7.30    5.90
  -6   6   9    3.00    6.60
   6   6  -9    4.40    4.50
   6  -6   9    6.20    3.50
   6  -6  -9    6.60    5.80
   6  -6  -9    3.50    5.60
   6   6   9    5.50    4.00
  -6   6  -9    9.50    9.60
   8  -6   9  542.25   32.90
   8   6  -9  493.15   35.80
   8  -6  -9  564.74   39.90
   8   6   9  561.44   34.40
   8  -6  -9  471.75   37.30
  -1   7   9   26.80    6.00
  -1  -7  -9   19.90    5.60
   1   7  -9   21.60    6.00
  -1   7  -9   21.30    7.40
   1   7   9   29.50    5.80
  -1   7  -9   24.80    4.30
   1  -7  -9   16.00    4.60
   1  -7  -9   26.00    5.80
  -3  -7  -9   13.50    5.20
  -3   7   9   12.80    4.90
  -3   7  -9   17.80    6.70
   3  -7  -9   22.90    5.80
  -3   7  -9   22.10    5.50
   3   7   9   21.30    5.50
   3  -7  -9   13.50    5.40
  -5  -7  -9    7.90    4.80
  -5   7   9    3.60   10.20
   5   7  -9    5.70    3.60
  -5   7  -9   15.90    8.50
  -5   7  -9   12.20    6.10
   5  -7  -9    9.10    5.80
   5  -7  -9   12.00    5.10
   5   7   9   13.20    4.60
   7   7  -9   11.30    7.00
   7  -7   9   20.30    5.00
   7  -7  -9   26.50    9.60
   7  -7  -9    6.90    7.90
   7   7   9    7.00    5.00
   0  -8  -9 1231.38   66.69
   0   8   9 1217.58   64.79
   0   8  -9 1115.19   60.79
   0   8  -9 1150.28   66.69
  -2   8   9   50.59    8.50
  -2  -8  -9   48.60    8.90
   2  -8  -9   40.60    8.30
   2  -8  -9   38.60    8.10
  -2   8  -9   52.49   11.20
  -2   8  -9   31.70    6.60
  -4  -8  -9 1098.69   61.89
  -4   8  -9 1025.70   66.39
   4  -8  -9 1068.19   62.19
  -4   8  -9 1022.40   60.99
   4  -8  -9 1099.09   62.39
   6  -8   9    8.50    2.80
   6   8  -9   13.10    6.50
  -6  -8  -9   12.50    5.50
   6  -8   9    9.30    3.20
   6  -8  -9   -1.20    5.70
   6  -8  -9    8.00    7.60
   6   8   9    8.90    5.10
   1   9  -9   62.99    5.80
  -1  -9  -9   86.19   12.70
   1   9  -9   73.09    9.70
   1  -9  -9   68.89   11.20
  -1   9  -9   60.89   13.30
  -1   9  -9   79.19   12.70
   1  -9  -9   61.29   10.00
  -3  -9  -9   42.80    9.60
   3  -9  -9   33.60    8.10
  -3   9  -9   37.10    7.70
   3  -9  -9   41.20    9.50
  -5  -9  -9   44.40    9.00
   5  -9  -9   33.60    9.40
   5  -9  -9   48.60   11.50
   0 -10  -9  951.40   53.39
   0  10  -9  831.52   51.39
   0  10  -9  811.12   46.80
  -2 -10  -9   32.90    7.90
   2 -10  -9   16.00    6.20
  -2  10  -9   27.90    8.70
   2 -10  -9   27.00    7.50
  -2  10  -9   16.80    6.50
  -4 -10  -9  669.03   45.50
   4 -10  -9  560.74   38.50
  -4  10  -9  457.55   36.90
   4 -10  -9  705.93   51.99
   1  11  -9   75.29    9.50
   1  11  -9   47.40    6.90
  -1  11  -9   43.40    9.00
  -1  11  -9   45.60   11.30
   1 -11  -9   47.60   14.60
  -3 -11  -9   63.09   11.50
   3 -11  -9   72.89   12.60
   0  12  -9  205.48   18.80
   0  12  -9  301.47   22.70
   0   0  10   19.70    3.20
   0   0  10   24.80    4.30
   2   0 -10   26.40    4.80
   2   0  10   24.90    6.80
  -2   0  10   23.20    3.10
  -2   0  10   28.20    4.40
   2   0  10   26.30    4.30
   2   0 -10   30.80    5.00
  -4   0  10  935.61   46.60
  -4   0  10  963.50   46.90
   4   0 -10  911.21   51.59
   4   0  10  942.81   50.69
   4   0 -10  885.81   50.09
   4   0  10  917.51   50.29
   6   0 -10  891.91   49.80
   6   0 -10  797.22   50.99
   6   0  10  901.31   52.99
   8   0  10  857.81   48.30
   8   0 -10  747.13   51.49
  -1   1  10  499.65   29.20
   1   1 -10  511.85   28.60
  -1   1  10  520.85   28.10
   1   1 -10  518.65   29.50
   1  -1  10  497.85   27.60
   1  -1  10  505.05   28.00
   1   1  10  508.95   29.10
   1  -1 -10  499.25   29.30
   1  -1 -10  500.35   30.00
   1   1  10  534.35   28.70
   3  -1  10   48.60    6.40
   3  -1  10   42.40    6.00
  -3   1  10   44.80    6.60
   3   1 -10   41.30    5.70
   3   1 -10   48.40    6.60
   3  -1 -10   46.60    6.70
   3   1  10   53.79    6.20
   3  -1 -10   38.70    6.60
   3   1  10   54.49    7.10
   5  -1  10  436.26   26.80
  -5   1  10  451.65   25.20
   5  -1  10  434.06   26.50
   5   1 -10  390.96   27.40
   5   1 -10  412.66   25.80
   5  -1 -10  425.76   27.10
   5  -1 -10  422.26   28.80
   5   1  10  438.36   27.40
   5   1  10  447.66   26.90
   7   1 -10  107.69   15.30
   7  -1  10  120.69   13.40
   7   1 -10   84.29   20.60
  -7   1  10  120.69    9.30
   7  -1  10  123.89   12.00
   7  -1 -10  120.99   13.50
   7   1  10  119.99   11.90
   7  -1 -10   96.09   15.50
   0  -2 -10  405.56   24.90
   0  -2 -10  431.36   26.40
   0   2  10  418.46   25.00
   2  -2  10 2565.34  130.19
   2   2 -10 2542.75  130.89
   2  -2  10 2537.35  129.89
   2   2 -10 2532.15  130.69
  -2   2  10 2657.63  133.49
   2  -2 -10 2725.53  133.09
   2   2  10 2614.44  132.19
   2   2  10 2555.74  131.59
   2  -2 -10 2697.23  132.99
   4  -2  10   41.80    6.00
   4  -2  10   31.30    5.30
  -4   2  10   43.40    7.60
   4   2 -10   39.10    6.30
   4  -2 -10   38.90    7.00
   4  -2 -10   38.50    7.20
   4   2  10   31.40    5.80
   4   2  10   40.10    6.90
   6   2 -10  125.29   13.50
   6  -2  10  127.99   11.70
  -6   2  10  124.49   11.60
   6  -2  10  141.59   12.60
   6   2  10  137.09   13.20
   6  -2 -10   98.79   14.20
   6   2  10  113.69   11.40
   6  -2 -10  119.49   12.40
   8  -2  10  114.49   13.10
  -8   2  10  152.38   12.60
   8   2 -10  139.29   16.70
   8  -2 -10  147.99   14.90
   8  -2 -10  136.99   18.80
   8   2  10  147.79   14.60
   1   3 -10  684.23   37.30
  -1  -3 -10  698.23   41.00
  -1   3  10  682.63   39.60
   1  -3 -10  735.83   40.00
   1   3  10  676.83   39.30
   1  -3 -10  741.53   40.70
   3   3 -10   11.40    3.30
   3  -3  10    9.40    3.10
   3  -3  10   10.20    2.70
  -3   3  10   13.70    4.80
   3  -3 -10   12.80    4.00
   3   3  10    7.40    3.10
   3  -3 -10    7.00    3.30
   3   3  10    6.70    3.50
   5  -3  10  780.92   43.70
   5   3 -10  758.62   44.80
   5  -3  10  793.72   44.20
  -5   3  10  855.01   46.20
   5  -3 -10  770.32   45.90
   5   3  10  774.02   44.80
   5   3  10  841.32   46.30
   5  -3 -10  770.22   47.60
  -7   3  10   63.69    9.30
   7   3 -10   29.30    8.10
   7  -3 -10   34.90    9.20
   7  -3 -10   40.20    9.50
   7   3  10   45.00    8.30
   0  -4 -10   26.30    5.20
   0  -4 -10   34.60    6.40
   0   4  10   37.30    6.10
  -2  -4 -10   39.70    7.20
  -2   4  10   39.30    6.60
   2   4 -10   36.20    4.30
   2  -4 -10   27.80    6.00
   2   4  10   41.50    6.70
   2  -4 -10   36.40    6.30
   4   4 -10  469.85   27.50
   4  -4  10  495.95   26.60
  -4   4  10  504.15   31.80
   4  -4  10  446.66   30.00
   4  -4 -10  468.35   31.40
   4  -4 -10  479.25   30.50
   4   4  10  449.86   29.60
   4   4  10  497.95   29.30
   6  -4  10  303.57   20.40
   6   4 -10  252.07   20.80
   6  -4  10  309.97   21.30
  -6   4  10  350.56   23.10
   6   4  10  310.87   21.40
   6  -4 -10  292.97   24.70
   6  -4 -10  290.57   22.90
  -8   4  10  501.05   31.70
   8  -4  10  448.96   31.40
   8  -4 -10  458.45   33.80
   8  -4 -10  504.95   37.20
  -1   5  10  270.67   19.50
  -1  -5 -10  296.67   20.90
   1   5 -10  255.27   19.00
   1   5  10  299.67   19.90
   1  -5 -10  305.47   26.00
  -1   5 -10  254.77   19.90
   1  -5 -10  323.07   21.30
   3   5 -10   56.89    5.50
  -3   5  10   73.79    9.70
  -3  -5 -10   48.50    8.20
   3  -5 -10   67.09    9.60
   3  -5 -10   56.79    8.80
  -3   5 -10   74.69   11.60
   3   5  10   45.20    7.90
   3   5  10   44.30    7.20
  -3   5 -10   53.59    7.50
   5   5 -10  209.28   15.60
   5  -5  10  218.38   14.40
   5  -5  10  256.87   15.70
  -5   5  10  263.07   22.90
  -5   5 -10  203.68   19.80
   5  -5 -10  209.48   18.40
   5   5  10  270.27   17.80
  -5   5 -10  195.68   18.40
   5  -5 -10  184.88   18.70
  -7   5  10  110.89   13.60
   7  -5  10  120.49   12.30
   7   5 -10   74.89   12.40
   7  -5  10  110.49   12.30
   7   5  10  104.39   11.80
   7  -5 -10   89.99   15.50
   7  -5 -10   97.79   14.40
   0  -6 -10   48.80    7.80
   0   6 -10   53.59    8.90
  -2  -6 -10  992.50   53.19
   2   6 -10  767.92   49.40
   2  -6 -10  968.60   52.09
   2  -6 -10  979.50   52.59
  -2   6 -10  833.22   52.59
   2   6  10  928.41   50.89
  -2   6 -10  852.41   48.90
  -4   6  10  212.88   17.50
   4   6 -10  166.58   11.40
  -4  -6 -10  169.28   16.10
  -4   6 -10  152.28   16.80
   4   6  10  168.68   14.10
  -4   6 -10  185.98   16.00
   4  -6 -10  178.68   15.90
   4  -6 -10  167.58   16.30
   6   6 -10    5.30    5.00
   6  -6  10    4.40    3.60
   6  -6 -10   12.40    7.20
   6   6  10    2.50    3.80
   6  -6 -10    9.30    6.00
  -1  -7 -10  850.31   48.50
  -1   7  10  846.92   46.80
   1   7 -10  778.92   47.30
  -1   7 -10  770.02   49.30
   1  -7 -10  844.22   48.30
   1   7  10  804.62   46.20
  -1   7 -10  745.83   43.80
   1  -7 -10  786.72   46.70
   3   7 -10   66.29    4.90
  -3  -7 -10   62.89   10.30
  -3   7  10   50.99    9.30
  -3   7 -10   79.79   13.90
   3  -7 -10   62.29   10.20
  -3   7 -10   64.39    9.40
   3  -7 -10   68.39   10.70
  -5  -7 -10 1153.58   62.29
   5   7 -10 1038.80   54.69
   5  -7 -10  963.50   60.69
   5  -7 -10 1051.89   62.79
  -5   7 -10 1006.10   60.89
   5   7  10 1043.80   58.49
   7   7 -10   14.20    7.70
  -7  -7 -10   38.30    9.00
   7  -7  10   24.50    6.40
   7  -7  10   26.00    6.00
   7  -7 -10   29.60   10.70
   7   7  10   25.20    6.20
   0   8 -10   37.20    5.20
   0   8 -10   62.09   11.50
   0  -8 -10   48.20    8.90
  -2  -8 -10  477.75   31.90
  -2   8 -10  436.66   28.30
   2  -8 -10  452.15   31.80
   2  -8 -10  485.05   31.30
  -2   8 -10  472.95   35.30
  -4  -8 -10  171.68   17.50
  -4   8 -10  168.58   17.00
  -4   8 -10  224.28   34.00
   4  -8 -10  185.68   18.10
   4  -8 -10  170.58   17.60
   6   8 -10   35.20   10.60
  -6  -8 -10   35.70    9.30
   6   8  10   26.80    7.10
   6  -8 -10   20.50    9.50
   6  -8 -10   17.40    7.20
   1   9 -10  112.29   12.30
  -1  -9 -10  167.18   15.60
  -1   9 -10  148.19   16.90
  -1   9 -10  116.39   11.40
   1  -9 -10  154.08   15.70
  -3  -9 -10   70.39   11.70
  -3   9 -10   64.59   11.10
  -3   9 -10   72.99   14.20
   3  -9 -10   74.29   12.20
   3  -9 -10   85.99   12.70
  -5  -9 -10  102.49   14.30
   5   9  10  117.49   12.40
   5  -9 -10  109.89   17.30
   5  -9 -10  110.59   16.00
   0 -10 -10   21.40    7.60
   0  10 -10   11.50    7.50
   0  10 -10   14.20    4.50
  -2 -10 -10  149.59   17.30
   2 -10 -10  153.08   15.70
  -2  10 -10  135.29   22.30
  -2  10 -10  108.79   14.00
   2 -10 -10  140.39   23.10
  -4 -10 -10  274.67   23.40
  -4  10 -10  207.58   25.00
   4 -10 -10  272.57   24.20
   1  11 -10  371.36   23.00
   1  11 -10  329.27   19.90
  -1 -11 -10  369.26   28.80
  -1  11 -10  369.46   29.60
   1 -11 -10  402.96   29.30
  -1  11 -10  267.67   22.80
   0   0  11    5.80    2.50
   2   0 -11    5.10    3.20
   2   0  11    1.90    2.60
  -2   0  11    3.60    2.10
   2   0 -11    0.40    2.40
   2   0  11    1.30    1.90
  -2   0  11    0.60    1.50
   4   0 -11   -1.00    3.20
   4   0 -11   -0.80    2.50
   4   0  11    5.80    3.00
   4   0  11    2.70    3.10
   6   0 -11   -1.00    3.90
   6   0 -11    1.40    5.10
   6   0  11    2.50    3.10
   6   0  11   -1.80    4.70
   8   0  11   -4.50    4.40
   8   0 -11    4.40    8.20
  -1   1  11  579.74   30.80
   1  -1  11  560.24   30.40
   1  -1  11  533.35   30.60
  -1   1  11  551.74   32.20
   1   1 -11  540.65   31.50
   1   1 -11  575.24   32.70
   1  -1 -11  616.94   33.80
   1   1  11  538.85   31.20
   1   1  11  572.04   32.20
   1  -1 -11  558.84   32.50
   3   1 -11  236.18   16.60
  -3   1  11  221.38   15.90
   3  -1  11  251.97   16.10
   3  -1  11  249.68   16.10
   3   1 -11  239.78   16.00
   3   1  11  243.78   16.90
   3  -1 -11  235.98   16.80
   3   1  11  239.28   16.30
   3  -1 -11  240.48   17.50
  -5   1  11  606.94   31.30
   5  -1  11  549.15   33.50
   5  -1  11  600.44   34.20
   5   1 -11  558.44   35.10
   5   1 -11  535.55   32.90
   5  -1 -11  565.84   34.40
   7   1 -11   53.69   10.90
   7  -1  11   57.09    9.10
   7  -1  11   70.09   12.40
   7  -1 -11   62.89   12.60
   7   1  11   60.99    9.30
   7  -1 -11   68.09   11.50
   0   2  11   26.40    4.80
   0   2  11   28.30    5.10
   0  -2 -11   20.90    5.00
   2   2 -11  246.98   16.10
   2  -2  11  242.88   14.90
   2   2 -11  244.08   15.80
   2  -2  11  222.18   14.50
  -2   2  11  252.17   17.60
   2  -2 -11  263.17   17.90
   2  -2 -11  244.88   17.60
   2   2  11  235.68   16.90
   2   2  11  250.47   16.50
   4   2 -11    5.80    3.50
   4  -2  11    6.90    3.20
   4   2 -11   11.20    3.60
   4  -2  11    7.10    3.60
  -4   2  11    6.10    4.10
   4  -2 -11   16.40    4.30
   4   2  11   10.50    4.10
   4   2  11   13.70    4.80
   6   2 -11  161.68   16.20
  -6   2  11  202.88   15.00
   6  -2  11  198.98   16.00
   6  -2  11  170.08   14.70
   6   2  11  168.58   14.90
   6  -2 -11  204.68   17.00
   6  -2 -11  183.18   17.50
  -8   2  11    7.30    5.50
   8  -2  11    0.60    5.10
   8  -2 -11    5.70    6.10
   8   2  11   -0.30    4.90
  -1   3  11  405.76   25.20
  -1  -3 -11  402.76   26.60
   1   3  11  394.06   24.20
   1  -3 -11  389.76   26.30
   1   3  11  388.56   24.90
   1  -3 -11  403.56   25.30
   3  -3  11  317.87   19.20
   3   3 -11  331.97   19.80
   3  -3  11  313.27   18.30
   3   3 -11  303.07   18.90
  -3   3  11  308.37   22.80
   3   3  11  313.87   20.80
   3   3  11  339.97   21.90
   3  -3 -11  331.77   22.10
   3  -3 -11  335.57   22.90
   5  -3  11  320.07   20.70
   5   3 -11  326.37   21.90
  -5   3  11  350.76   22.80
   5  -3  11  312.77   20.80
   5   3  11  313.57   21.80
   5  -3 -11  298.67   24.00
   5   3  11  351.96   23.40
   5  -3 -11  295.17   22.70
   7   3 -11   86.09   13.10
   7  -3  11   88.79   10.50
  -7   3  11  101.49   11.40
   7  -3  11   80.49   11.00
   7  -3 -11   61.59   13.30
   7   3  11   75.29   10.40
   7  -3 -11   74.99   12.30
   0  -4 -11    6.80    4.10
   0   4  11    9.80    4.20
  -2   4  11  711.53   42.30
   2   4 -11  723.23   39.40
   2   4 -11  686.53   38.80
  -2  -4 -11  734.73   44.10
   2   4  11  752.92   42.30
   2   4  11  727.13   41.40
   2  -4 -11  747.43   42.90
   2  -4 -11  789.72   43.60
   4   4 -11    4.90    2.70
  -4   4  11    9.50    5.60
   4  -4  11    1.10    2.30
   4  -4  11    5.60    2.70
   4  -4 -11    7.10    4.20
   4   4  11    6.00    3.30
   4   4  11    5.70    4.60
   4  -4 -11   -0.80    3.70
   6  -4  11  323.57   22.00
  -6   4  11  362.26   23.60
   6  -4  11  323.17   21.30
   6   4 -11  293.77   22.40
   6  -4 -11  275.77   25.00
   6   4  11  325.77   22.80
   6  -4 -11  313.97   24.20
   1   5 -11  141.39   13.10
  -1  -5 -11  197.18   15.80
  -1   5  11  154.18   13.70
   1   5  11  154.08   13.70
   1  -5 -11  141.29   13.50
   1  -5 -11  164.18   14.80
  -1   5 -11  151.48   14.30
  -3   5  11   67.49   10.10
  -3  -5 -11   65.89   11.10
   3   5 -11   60.09    6.00
   3   5  11   76.89   10.20
   3  -5 -11   66.19   10.00
   3   5  11   67.29    7.90
   3  -5 -11   66.99   10.60
  -3   5 -11   71.29   11.10
  -5   5  11  179.68   17.20
   5  -5  11  161.58   11.20
   5   5 -11  179.98   13.60
   5  -5  11  177.78   12.30
   5   5  11  170.18   14.70
   5  -5 -11  147.59   17.00
   5  -5 -11  163.48   16.00
   7  -5  11   13.90    6.40
   7   5 -11   18.20    7.30
   7  -5  11   15.10    5.00
  -7   5  11   17.80    8.70
   7  -5 -11   19.30    7.90
   7  -5 -11    8.50    9.80
   7   5  11   13.20    6.30
   0   6 -11   44.80    8.80
   0   6  11   56.49    9.00
   0  -6 -11   59.19    9.40
   2   6 -11 1014.30   53.39
  -2  -6 -11 1048.00   59.89
  -2   6  11 1025.80   57.99
   2  -6 -11 1067.39   59.39
   2  -6 -11 1025.80   58.49
   2   6  11 1110.19   60.99
  -2   6 -11  926.71   59.49
  -4  -6 -11   23.70    6.40
  -4   6  11   18.20    7.40
   4   6 -11   25.70    5.20
  -4   6 -11    8.40    6.20
   4  -6 -11   21.70    6.40
   4  -6 -11   32.50    8.60
   4   6  11   19.50    5.30
  -4   6 -11   18.20    6.20
   6  -6  11  652.23   36.70
   6   6 -11  677.23   39.60
   6  -6 -11  874.11   62.29
   6   6  11  691.33   41.70
   6  -6 -11  659.43   44.10
   1   7 -11   10.40    5.80
  -1  -7 -11    9.70    5.00
   1  -7 -11    5.00    5.00
  -1   7 -11    8.00    6.40
   1  -7 -11    4.90    3.80
  -3  -7 -11    4.60    4.60
   3  -7 -11    1.00    4.30
  -3   7 -11    2.60    4.30
   3  -7 -11    7.00    5.30
  -3   7 -11    9.90    6.80
   5   7 -11   17.50    6.50
  -5  -7 -11    9.30    5.70
   5  -7 -11    9.10    5.20
   5   7  11    4.50    4.80
   5  -7 -11   11.40    7.30
   0   8 -11   30.20    9.50
   0  -8 -11   43.80    9.60
  -2  -8 -11  915.51   54.09
   2  -8 -11  940.51   54.19
  -2   8 -11  846.42   57.09
  -2   8 -11  838.92   49.40
   4   8 -11   22.70    3.00
  -4  -8 -11   40.70    9.30
  -4   8 -11   16.10    7.60
   4  -8 -11   16.70    6.40
   4   8  11   19.60    6.40
   1   9 -11   10.30    5.90
   1  -9 -11   12.80    8.10
  -1   9 -11   11.20    4.70
  -1   9 -11   -9.10    7.10
  -3  -9 -11    0.70    4.90
   3  -9 -11    5.50    6.00
   3  -9 -11    1.80    5.50
  -3   9 -11   -1.90   11.00
   0 -10 -11   14.60    6.80
   0  10 -11   13.30    4.90
   0  10 -11   16.90    8.20
  -2 -10 -11  681.23   43.60
   2 -10 -11  668.53   43.40
  -2  10 -11  528.95   37.80
  -2  10 -11  692.93   45.40
   2 -10 -11  636.14   41.50
   0   0  12 2345.17  127.69
   0   0 -12 2622.84  128.29
   0   0  12 2455.35  124.99
   2   0  12  181.18   13.20
   2   0 -12  181.18   13.80
   2   0  12  168.98   12.70
   2   0 -12  185.78   14.00
   4   0  12  469.45   28.10
   4   0 -12  468.15   29.50
   4   0  12  461.75   28.60
   4   0 -12  444.06   28.10
   6   0  12  159.68   14.20
   6   0  12  134.59   14.70
   6   0 -12  141.59   14.20
   6   0 -12  154.58   15.70
   1   1 -12   12.20    3.50
   1  -1  12    6.30    2.80
  -1   1  12    4.20    3.60
   1   1 -12   12.60    4.20
  -1   1  12    6.20    2.50
   1  -1  12    8.90    2.80
   1  -1 -12    1.00    2.50
   1   1  12    6.80    2.70
   1   1  12    9.30    3.20
   1  -1 -12   10.70    3.90
   3   1 -12  771.12   44.10
  -3   1  12  763.92   43.00
   3  -1  12  769.82   43.60
   3  -1  12  832.92   43.80
  -3   1  12  823.32   41.70
   3   1 -12  801.22   44.80
   3   1  12  797.52   44.40
   3   1  12  807.62   45.00
   3  -1 -12  818.82   45.40
   3  -1 -12  823.02   52.99
   5   1 -12   46.60    8.70
   5   1 -12   58.49    8.10
   5  -1  12   49.00    7.60
   5  -1  12   45.10    7.60
   5   1  12   51.19    8.10
   5  -1 -12   53.39    8.50
   5  -1 -12   63.09    9.50
   5   1  12   54.29    9.00
   7  -1  12   28.60    7.20
   7   1 -12   30.80    7.90
   7  -1 -12   32.30    9.40
   7   1  12   27.80    7.20
   7  -1 -12   31.40   10.10
   0   2  12  255.47   18.20
   0   2  12  258.87   17.10
   0  -2 -12  273.07   19.70
  -2   2  12  306.87   21.80
   2  -2  12  329.77   18.20
  -2   2  12  334.87   19.60
   2   2 -12  316.57   20.20
   2   2 -12  320.57   20.10
   2  -2  12  294.47   17.90
   2   2  12  313.27   20.40
   2   2  12  325.87   21.50
   2  -2 -12  327.97   21.90
   4   2 -12   45.50    7.40
   4   2 -12   45.10    6.50
   4  -2  12   43.70    6.60
   4  -2  12   45.90    6.70
   4   2  12   44.40    8.20
   4  -2 -12   47.50    8.10
   4  -2 -12   41.50    8.40
   4   2  12   45.60    7.00
  -6   2  12 1124.39   56.29
   6  -2  12 1041.60   58.79
   6  -2  12 1089.09   58.59
   6   2  12 1063.89   59.29
   6  -2 -12  988.70   60.09
   6  -2 -12 1025.10   62.59
   1   3 -12   24.30    5.20
  -1   3  12   31.50    6.80
  -1  -3 -12   38.10    7.60
   1   3  12   36.20    6.00
   1  -3 -12   33.00    5.90
   1   3  12   34.80    6.70
   1  -3 -12   32.20    6.30
  -3   3  12  576.94   35.40
   3   3 -12  545.35   31.20
   3   3 -12  533.25   31.70
   3  -3 -12  595.04   35.40
   3   3  12  570.04   34.30
   3  -3 -12  560.94   34.60
   3   3  12  541.35   33.00
   5  -3  12   -2.00    3.70
   5   3 -12    1.60    3.70
  -5   3  12    6.50    5.20
   5  -3  12   12.60    4.80
   5  -3 -12   -4.20    5.40
   5  -3 -12    2.80    4.30
   5   3  12    4.30    4.40
   0  -4 -12 1423.56   77.99
   0   4  12 1418.56   76.29
  -2   4  12  100.69   11.80
   2   4 -12   73.79    7.30
   2   4 -12   81.29    7.60
  -2  -4 -12   75.99   10.70
   2   4  12   76.49    8.80
   2   4  12   83.99   10.70
   2  -4 -12   96.89   10.90
   2  -4 -12   65.69   10.20
  -4   4  12  231.78   19.20
   4   4 -12  218.98   15.60
   4  -4 -12  219.08   19.30
   4  -4 -12  244.08   19.30
   4   4  12  221.48   17.10
  -6   4  12  140.59   14.30
   6  -4  12  133.49   12.40
   6   4 -12  110.09   12.60
   6  -4  12  126.79   12.30
   6   4  12  135.29   13.70
   6  -4 -12  111.59   14.40
   6  -4 -12  121.39   16.90
   1   5 -12   20.70    6.20
  -1   5  12   19.50    5.60
  -1  -5 -12   22.90    7.20
  -1   5 -12   28.70    7.00
   1  -5 -12   24.10    6.30
   1   5  12   21.90    6.10
   1  -5 -12   19.50    5.50
  -3  -5 -12  788.22   49.00
  -3   5  12  819.62   48.20
   3   5 -12  822.32   42.90
   3   5  12  794.22   45.90
  -3   5 -12  701.33   48.10
   3  -5 -12  840.02   48.30
   3  -5 -12  828.72   48.40
  -5   5  12   23.10    8.40
   5   5 -12   29.30    5.70
   5  -5 -12   12.10    7.20
   5  -5 -12   34.90    9.40
   5   5  12   33.60    6.90
   0  -6 -12  519.75   33.50
   0   6 -12  466.45   32.30
   2   6 -12    9.40    6.30
  -2   6  12   18.90    6.10
   2   6 -12   10.10    3.30
  -2  -6 -12   17.40    5.70
  -2   6 -12    5.50    6.80
   2  -6 -12   20.10    6.70
   2  -6 -12   18.60    5.90
  -4  -6 -12   -0.20    4.50
   4   6 -12    0.20    2.70
   4  -6 -12   -2.30    5.30
   4   6  12   -5.60    3.60
   4  -6 -12    6.90    5.50
  -1  -7 -12   33.40    8.80
   1   7 -12   30.90    8.80
   1  -7 -12   29.30    7.70
  -1   7 -12   38.40   10.40
  -3  -7 -12  627.24   40.90
   3   7  12  649.93   38.20
   3  -7 -12  600.74   40.20
   3  -7 -12  563.94   39.30
   0  -8 -12  543.35   43.40
   0   8 -12  506.85   36.90
  -2  -8 -12    6.90    5.70
  -2   8 -12   16.90   10.50
   2  -8 -12   26.50   11.90
   2  -8 -12    9.30    6.60
  -1  -9 -12   15.60    8.30
   1   9 -12    4.10    6.20
  -1   9 -12   15.80   10.10
   1  -9 -12   11.90    7.10
   0   0 -13    3.60    3.90
   0   0  13    4.70    3.60
   0   0  13    2.40    2.30
   2   0 -13    2.00    2.90
   2   0  13    3.10    3.60
   2   0 -13    0.40    3.10
   2   0  13    2.30    2.90
   4   0  13    0.60    3.50
   4   0 -13    3.10    4.10
   4   0  13    4.20    4.90
   4   0 -13    2.20    3.80
   6   0  13    0.30    4.70
   6   0 -13    2.30    6.30
   6   0 -13    2.30    5.50
  -1   1  13  336.87   19.20
  -1  -1 -13  343.07   24.00
   1   1 -13  319.37   22.00
   1  -1  13  309.17   17.80
  -1   1  13  305.87   21.10
   1  -1 -13  329.57   22.70
   1   1  13  315.67   21.10
   1   1  13  331.67   20.10
  -3   1  13  322.07   17.80
   3  -1  13  302.87   20.00
   3  -1  13  311.47   19.70
   3   1 -13  290.07   20.30
  -3   1  13  311.07   17.10
   3   1 -13  303.27   21.80
   3  -1 -13  302.77   21.90
   3   1  13  323.27   21.60
   3   1  13  318.27   20.60
   5   1 -13  124.79   12.30
   5  -1  13  140.49   12.30
   5  -1  13  138.79   13.80
   5   1 -13  134.29   14.10
   5   1  13  125.49   14.40
   5  -1 -13  129.39   13.30
   5  -1 -13  130.59   14.90
   5   1  13  142.39   13.00
   0  -2 -13  149.39   14.40
   0   2  13  145.29   11.40
   0   2  13  144.59   12.70
  -2   2  13    5.80    5.40
  -2  -2 -13    5.00    4.60
  -2   2  13    2.00    3.10
   2   2 -13    0.30    2.90
   2   2 -13   10.30    4.00
   2   2  13    3.40    4.40
   2  -2 -13   -1.50    3.70
   2  -2 -13    9.50    4.20
   2   2  13    8.80    3.80
  -4   2  13  129.79   12.00
   4  -2  13  156.58   12.90
   4   2 -13  150.98   13.20
  -4   2  13  149.09   10.60
   4   2 -13  142.19   12.20
   4  -2  13  148.99   11.80
   4  -2 -13  147.69   14.20
   4   2  13  157.88   13.70
   4   2  13  136.99   14.30
   4  -2 -13  124.69   13.80
  -1   3  13  181.48   13.80
   1   3 -13  182.48   14.10
  -1  -3 -13  180.08   16.90
  -1   3  13  172.48   15.20
   1  -3 -13  189.88   16.30
   1   3  13  175.08   15.40
   1   3  13  187.08   14.40
   3   3 -13  341.57   21.60
   3   3 -13  335.27   21.10
  -3   3  13  349.87   24.50
  -3  -3 -13  348.57   26.10
   3   3  13  343.47   24.10
   3  -3 -13  349.37   24.80
   3   3  13  306.87   22.40
   3  -3 -13  341.07   24.30
   5  -3  13   61.89    9.00
  -5   3  13   78.69   10.20
   5  -3  13   70.79    9.00
   5   3 -13   62.69    9.60
   5   3  13   64.09    9.60
   5  -3 -13   51.39    9.70
   5  -3 -13   54.69   10.80
   0   4  13  473.65   29.70
   0  -4 -13  479.75   32.40
   0   4  13  486.05   31.20
  -2   4  13   27.00    7.10
  -2  -4 -13   22.30    7.30
   2   4 -13   18.40    4.60
   2  -4 -13   15.00    5.40
   2   4  13   12.20    4.60
   2  -4 -13   17.40    6.10
   2   4  13   16.70    6.00
  -4  -4 -13  425.16   32.10
  -4   4  13  468.45   30.60
   4   4 -13  468.35   27.40
   4  -4 -13  463.95   31.20
   4  -4 -13  456.65   31.50
   4   4  13  414.86   28.90
  -1  -5 -13   49.80    9.80
  -1   5  13   55.39    9.30
   1   5 -13   44.90    9.10
  -1   5 -13   49.00   10.20
   1  -5 -13   44.90    9.30
   1   5  13   40.90    7.40
   3   5 -13   99.19    9.00
  -3  -5 -13  105.89   16.20
  -3   5  13   95.59   13.60
   3  -5 -13   89.09   13.30
   3   5  13   95.69   11.40
   3  -5 -13  105.19   13.20
   0  -6 -13  957.60   54.39
   0   6 -13  807.32   52.19
   2   6 -13   11.20    6.70
   2   6 -13    0.40    3.10
  -2  -6 -13    3.90    5.90
   2  -6 -13   13.20    6.30
   2   6  13   10.60    5.10
   2  -6 -13    5.30    5.70
  -2   6 -13   16.80    8.70
   1   7 -13   16.90    9.10
  -1  -7 -13   18.70    7.50
   1  -7 -13   -0.40    5.50
  -1   7 -13   21.80   10.20
   0   0 -14  385.16   26.80
   2   0 -14  114.89   12.40
   2   0  14  141.49   11.10
   2   0  14  123.09   11.80
   2   0 -14  135.19   12.50
   4   0 -14  893.31   52.19
   4   0 -14  851.61   50.89
   4   0  14  947.11   50.29
   4   0  14  900.31   50.89
  -1   1  14  252.47   19.10
  -1  -1 -14  318.77   23.60
   1   1 -14  311.37   21.60
   1  -1 -14  316.07   22.50
   1   1  14  306.07   20.40
   1   1  14  300.57   19.10
   3   1 -14   47.80    7.80
   3   1 -14   43.00    7.80
   3  -1  14   40.10    6.20
   3  -1 -14   44.70    8.60
   3  -1 -14   48.10    8.30
   3   1  14   44.40    8.70
   3   1  14   37.30    6.90
   0   2 -14  429.16   28.30
   0   2  14  423.96   27.30
   0   2  14  436.76   25.90
   0  -2 -14  421.06   29.50
  -2  -2 -14  603.44   39.90
  -2   2  14  674.43   44.30
  -2   2  14  583.34   33.60
   2   2 -14  617.04   36.10
   2  -2 -14  610.44   37.70
   2   2  14  635.04   37.20
   2  -2 -14  607.64   38.00
   2   2  14  601.14   35.60
   4   2 -14   13.40    5.40
  -4   2  14    7.20    4.30
   4   2 -14    6.20    4.30
   4  -2  14   11.20    4.80
   4  -2  14    8.20    4.80
  -4   2  14    8.00    3.80
   4   2  14    9.00    5.10
   4  -2 -14    9.40    6.60
   4  -2 -14    9.90    5.70
  -1  -3 -14  182.88   18.30
  -1   3  14  190.08   16.70
  -1   3  14  188.18   14.40
   1   3 -14  171.58   15.20
   1  -3 -14  218.58   18.10
   1   3  14  174.68   17.40
  -3   3  14  128.49   11.30
  -3   3  14  142.09   14.50
   3   3 -14  128.59   11.70
  -3  -3 -14  130.09   15.90
   3  -3 -14  139.19   15.00
   3   3  14  134.69   12.80
   3  -3 -14  126.79   14.30
   0  -4 -14   47.40    9.40
   0   4  14   65.89   10.40
   0   4  14   37.30    7.30
   2   4 -14  194.58   14.30
  -2  -4 -14  207.78   19.70
   2   4  14  179.28   15.70
   2  -4 -14  172.78   16.60
   2  -4 -14  184.98   18.10
   1   5 -14  445.76   26.40
  -1  -5 -14  442.36   31.40
   1   5 -14  377.96   28.60
  -1   5 -14  363.66   30.00
   1   5  14  424.96   27.90
   1  -5 -14  440.46   31.50
   0   0 -15    1.80    4.70
   0   0   0    0.00    0.00

_computing_structure_solution     'SHELXT 2014/5 (Sheldrick, 2014)'
;
_shelx_hkl_checksum              3222
loop_
_space_group_symop_operation_xyz
'x, y, z'
'-x, -y, z+1/2'
'-x, y, -z+1/2'
'x, -y, -z'
'x+1/2, y+1/2, z'
'-x+1/2, -y+1/2, z+1/2'
'-x+1/2, y+1/2, -z+1/2'
'x+1/2, -y+1/2, -z'
'-x, -y, -z'
'x, y, -z-1/2'
'x, -y, z-1/2'
'-x, y, z'
'-x+1/2, -y+1/2, -z'
'x+1/2, y+1/2, -z-1/2'
'x+1/2, -y+1/2, z-1/2'
'-x+1/2, y+1/2, z'
loop_
_atom_site_label
_atom_site_type_symbol
_atom_site_fract_x
_atom_site_fract_y
_atom_site_fract_z
_atom_site_U_iso_or_equiv
_atom_site_adp_type
_atom_site_occupancy
_atom_site_site_symmetry_order
_atom_site_calc_flag
_atom_site_refinement_flags_posn
_atom_site_refinement_flags_adp
_atom_site_refinement_flags_occupancy
_atom_site_disorder_assembly
_atom_site_disorder_group
Na1 Na 0.500000 0.5797(9) 0.750000 0.0118(19) Uani 1 4 d S T P . .
Pb1 Pb 0.500000 0.78154(6) 0.52035(7) 0.0173(2) Uani 1 2 d S T P . .
Pb2 Pb 0.000000 0.49823(9) 0.250000 0.0221(3) Uani 1 4 d S T P . .
Pb3 Pb 0.26084(11) 0.71735(9) 0.250000 0.0191(3) Uani 0.75 2 d S T P . .
Te1 Te 0.32339(11) 0.500000 0.500000 0.0042(2) Uani 1 2 d S T P . .
O1 O 0.500000 0.4375(10) 0.5932(10) 0.007(2) Uani 1 2 d S T P . .
O2 O 0.3302(9) 0.6409(7) 0.5934(8) 0.0102(16) Uani 1 1 d . . . . .
O3 O 0.1895(9) 0.5695(7) 0.3915(7) 0.0104(16) Uani 1 1 d . . . . .
O4 O 0.000000 0.6966(16) 0.250000 0.014(4) Uani 1 4 d S T P . .
loop_
_atom_site_aniso_label
_atom_site_aniso_U_11
_atom_site_aniso_U_22
_atom_site_aniso_U_33
_atom_site_aniso_U_23
_atom_site_aniso_U_13
_atom_site_aniso_U_12
Na1 0.019(5) 0.010(4) 0.007(4) 0.000 0.000 0.000
Pb1 0.0200(4) 0.0101(3) 0.0219(4) 0.0005(3) 0.000 0.000
Pb2 0.0422(7) 0.0093(5) 0.0148(5) 0.000 0.000 0.000
Pb3 0.0137(4) 0.0240(5) 0.0197(5) 0.000 0.000 -0.0012(4)
Te1 0.0045(5) 0.0045(4) 0.0035(4) -0.0008(3) 0.000 0.000
O1 0.007(5) 0.003(5) 0.009(5) -0.002(4) 0.000 0.000
O2 0.013(4) 0.006(4) 0.012(4) -0.004(3) 0.002(3) 0.002(3)
O3 0.010(4) 0.012(4) 0.009(4) 0.002(3) -0.002(3) 0.003(3)
O4 0.018(9) 0.009(8) 0.013(8) 0.000 0.000 0.000
loop_
_atom_type_symbol
_atom_type_description
_atom_type_scat_dispersion_real
_atom_type_scat_dispersion_imag
_atom_type_scat_source
Na Na 0.0362 0.0249 'International Tables Vol C Tables 4.2.6.8 and 6.1.1.4'
O O 0.0106 0.0060 'International Tables Vol C Tables 4.2.6.8 and 6.1.1.4'
Pb Pb -3.3944 10.1111 'International Tables Vol C Tables 4.2.6.8 and 6.1.1.4'
Te Te -0.5308 1.6751 'International Tables Vol C Tables 4.2.6.8 and 6.1.1.4'
loop_
_geom_angle_atom_site_label_1
_geom_angle_atom_site_label_2
_geom_angle_atom_site_label_3
_geom_angle
_geom_angle_site_symmetry_1
_geom_angle_site_symmetry_3
_geom_angle_publ_flag
O1 Na1 O1 95.3(6) . 10_557 ?
O1 Na1 O2 136.8(3) . 3_656 ?
O1 Na1 O2 69.8(3) 10_557 3_656 ?
O1 Na1 O2 69.8(3) . . ?
O1 Na1 O2 136.8(3) 10_557 . ?
O2 Na1 O2 146.8(6) 3_656 . ?
O1 Na1 O2 136.8(3) . 10_557 ?
O1 Na1 O2 69.8(3) 10_557 10_557 ?
O2 Na1 O2 77.4(4) 3_656 10_557 ?
O2 Na1 O2 93.2(4) . 10_557 ?
O1 Na1 O2 69.8(3) . 12_655 ?
O1 Na1 O2 136.8(3) 10_557 12_655 ?
O2 Na1 O2 93.2(4) 3_656 12_655 ?
O2 Na1 O2 77.4(4) . 12_655 ?
O2 Na1 O2 146.8(6) 10_557 12_655 ?
O1 Na1 O4 132.4(3) . 13_566 ?
O1 Na1 O4 132.4(3) 10_557 13_566 ?
O2 Na1 O4 73.4(3) 3_656 13_566 ?
O2 Na1 O4 73.4(3) . 13_566 ?
O2 Na1 O4 73.4(3) 10_557 13_566 ?
O2 Na1 O4 73.4(3) 12_655 13_566 ?
O1 Na1 Pb3 118.21(17) . 15_566 ?
O1 Na1 Pb3 118.21(17) 10_557 15_566 ?
O2 Na1 Pb3 49.8(2) 3_656 15_566 ?
O2 Na1 Pb3 104.2(3) . 15_566 ?
O2 Na1 Pb3 104.2(3) 10_557 15_566 ?
O2 Na1 Pb3 49.8(2) 12_655 15_566 ?
O4 Na1 Pb3 45.44(12) 13_566 15_566 ?
O1 Na1 Pb3 118.21(16) . 13_566 ?
O1 Na1 Pb3 118.21(16) 10_557 13_566 ?
O2 Na1 Pb3 104.2(3) 3_656 13_566 ?
O2 Na1 Pb3 49.8(2) . 13_566 ?
O2 Na1 Pb3 49.8(2) 10_557 13_566 ?
O2 Na1 Pb3 104.2(3) 12_655 13_566 ?
O4 Na1 Pb3 45.44(12) 13_566 13_566 ?
Pb3 Na1 Pb3 90.9(2) 15_566 13_566 ?
O1 Na1 Te1 116.1(4) . 2_665 ?
O1 Na1 Te1 36.66(17) 10_557 2_665 ?
O2 Na1 Te1 34.12(19) 3_656 2_665 ?
O2 Na1 Te1 169.0(2) . 2_665 ?
O2 Na1 Te1 76.18(19) 10_557 2_665 ?
O2 Na1 Te1 113.1(2) 12_655 2_665 ?
O4 Na1 Te1 105.62(16) 13_566 2_665 ?
Pb3 Na1 Te1 81.57(6) 15_566 2_665 ?
Pb3 Na1 Te1 121.64(13) 13_566 2_665 ?
O1 Na1 Te1 36.66(17) . 9_666 ?
O1 Na1 Te1 116.1(4) 10_557 9_666 ?
O2 Na1 Te1 113.1(2) 3_656 9_666 ?
O2 Na1 Te1 76.18(19) . 9_666 ?
O2 Na1 Te1 169.0(2) 10_557 9_666 ?
O2 Na1 Te1 34.12(19) 12_655 9_666 ?
O4 Na1 Te1 105.62(16) 13_566 9_666 ?
Pb3 Na1 Te1 81.57(6) 15_566 9_666 ?
Pb3 Na1 Te1 121.64(13) 13_566 9_666 ?
Te1 Na1 Te1 114.28(14) 2_665 9_666 ?
O1 Na1 Te1 116.1(4) . 10_557 ?
O1 Na1 Te1 36.66(17) 10_557 10_557 ?
O2 Na1 Te1 76.2(2) 3_656 10_557 ?
O2 Na1 Te1 113.1(2) . 10_557 ?
O2 Na1 Te1 34.12(19) 10_557 10_557 ?
O2 Na1 Te1 169.0(2) 12_655 10_557 ?
O4 Na1 Te1 105.62(16) 13_566 10_557 ?
Pb3 Na1 Te1 121.64(13) 15_566 10_557 ?
Pb3 Na1 Te1 81.57(6) 13_566 10_557 ?
Te1 Na1 Te1 56.21(6) 2_665 10_557 ?
Te1 Na1 Te1 148.8(3) 9_666 10_557 ?
O2 Pb1 O2 80.5(4) . 12_655 ?
O2 Pb1 O3 136.9(3) . 8_566 ?
O2 Pb1 O3 83.3(3) 12_655 8_566 ?
O2 Pb1 O3 83.3(3) . 13_566 ?
O2 Pb1 O3 136.9(3) 12_655 13_566 ?
O3 Pb1 O3 81.8(4) 8_566 13_566 ?
O2 Pb1 O4 73.5(4) . 13_566 ?
O2 Pb1 O4 73.5(4) 12_655 13_566 ?
O3 Pb1 O4 63.7(3) 8_566 13_566 ?
O3 Pb1 O4 63.7(3) 13_566 13_566 ?
O2 Pb1 Na1 44.7(2) . . ?
O2 Pb1 Na1 44.7(2) 12_655 . ?
O3 Pb1 Na1 98.3(2) 8_566 . ?
O3 Pb1 Na1 98.3(2) 13_566 . ?
O4 Pb1 Na1 46.9(4) 13_566 . ?
O2 Pb1 Pb3 100.1(2) . 15_566 ?
O2 Pb1 Pb3 46.3(2) 12_655 15_566 ?
O3 Pb1 Pb3 43.49(19) 8_566 15_566 ?
O3 Pb1 Pb3 98.70(19) 13_566 15_566 ?
O4 Pb1 Pb3 42.30(4) 13_566 15_566 ?
Na1 Pb1 Pb3 56.34(8) . 15_566 ?
O2 Pb1 Pb3 46.3(2) . 13_566 ?
O2 Pb1 Pb3 100.1(2) 12_655 13_566 ?
O3 Pb1 Pb3 98.70(19) 8_566 13_566 ?
O3 Pb1 Pb3 43.49(19) 13_566 13_566 ?
O4 Pb1 Pb3 42.30(4) 13_566 13_566 ?
Na1 Pb1 Pb3 56.34(8) . 13_566 ?
Pb3 Pb1 Pb3 84.08(3) 15_566 13_566 ?
O2 Pb1 Pb2 102.6(2) . 13_566 ?
O2 Pb1 Pb2 102.6(2) 12_655 13_566 ?
O3 Pb1 Pb2 43.27(19) 8_566 13_566 ?
O3 Pb1 Pb2 43.27(19) 13_566 13_566 ?
O4 Pb1 Pb2 38.5(4) 13_566 13_566 ?
Na1 Pb1 Pb2 85.39(13) . 13_566 ?
Pb3 Pb1 Pb2 57.50(2) 15_566 13_566 ?
Pb3 Pb1 Pb2 57.50(2) 13_566 13_566 ?
O4 Pb2 O3 70.9(2) . . ?
O4 Pb2 O3 70.88(19) . 3 ?
O3 Pb2 O3 141.8(4) . 3 ?
O4 Pb2 O3 70.9(2) . 10_556 ?
O3 Pb2 O3 80.7(4) . 10_556 ?
O3 Pb2 O3 87.0(4) 3 10_556 ?
O4 Pb2 O3 70.88(19) . 12 ?
O3 Pb2 O3 87.0(4) . 12 ?
O3 Pb2 O3 80.7(4) 3 12 ?
O3 Pb2 O3 141.8(4) 10_556 12 ?
O4 Pb2 Pb3 43.24(2) . 3 ?
O3 Pb2 Pb3 103.5(2) . 3 ?
O3 Pb2 Pb3 44.76(19) 3 3 ?
O3 Pb2 Pb3 103.5(2) 10_556 3 ?
O3 Pb2 Pb3 44.76(19) 12 3 ?
O4 Pb2 Pb1 46.054(16) . 13_566 ?
O3 Pb2 Pb1 46.1(2) . 13_566 ?
O3 Pb2 Pb1 103.8(2) 3 13_566 ?
O3 Pb2 Pb1 103.8(2) 10_556 13_566 ?
O3 Pb2 Pb1 46.1(2) 12 13_566 ?
Pb3 Pb2 Pb1 59.630(18) 3 13_566 ?
O4 Pb2 Pb1 46.054(16) . 6_564 ?
O3 Pb2 Pb1 103.8(2) . 6_564 ?
O3 Pb2 Pb1 46.1(2) 3 6_564 ?
O3 Pb2 Pb1 46.1(2) 10_556 6_564 ?
O3 Pb2 Pb1 103.8(2) 12 6_564 ?
Pb3 Pb2 Pb1 59.630(18) 3 6_564 ?
Pb1 Pb2 Pb1 92.11(3) 13_566 6_564 ?
O4 Pb3 O3 70.5(4) . 10_556 ?
O4 Pb3 O3 70.5(4) . . ?
O3 Pb3 O3 83.3(4) 10_556 . ?
O4 Pb3 O2 75.1(4) . 13_566 ?
O3 Pb3 O2 145.5(3) 10_556 13_566 ?
O3 Pb3 O2 83.9(3) . 13_566 ?
O4 Pb3 O2 75.1(4) . 6_564 ?
O3 Pb3 O2 83.9(3) 10_556 6_564 ?
O3 Pb3 O2 145.5(3) . 6_564 ?
O2 Pb3 O2 88.9(4) 13_566 6_564 ?
O4 Pb3 Na1 50.3(4) . 13_566 ?
O3 Pb3 Na1 107.5(2) 10_556 13_566 ?
O3 Pb3 Na1 107.5(2) . 13_566 ?
O2 Pb3 Na1 47.4(2) 13_566 13_566 ?
O2 Pb3 Na1 47.4(2) 6_564 13_566 ?
O4 Pb3 Pb1 48.25(4) . 6_564 ?
O3 Pb3 Pb1 48.0(2) 10_556 6_564 ?
O3 Pb3 Pb1 108.6(2) . 6_564 ?
O2 Pb3 Pb1 107.5(2) 13_566 6_564 ?
O2 Pb3 Pb1 42.38(19) 6_564 6_564 ?
Na1 Pb3 Pb1 61.34(7) 13_566 6_564 ?
O4 Pb3 Pb1 48.25(4) . 13_566 ?
O3 Pb3 Pb1 108.6(2) 10_556 13_566 ?
O3 Pb3 Pb1 48.0(2) . 13_566 ?
O2 Pb3 Pb1 42.38(19) 13_566 13_566 ?
O2 Pb3 Pb1 107.5(2) 6_564 13_566 ?
Na1 Pb3 Pb1 61.34(7) 13_566 13_566 ?
Pb1 Pb3 Pb1 95.92(3) 6_564 13_566 ?
O3 Te1 O3 101.0(5) 4_566 . ?
O3 Te1 O2 91.7(4) 4_566 4_566 ?
O3 Te1 O2 90.7(4) . 4_566 ?
O3 Te1 O2 90.7(4) 4_566 . ?
O3 Te1 O2 91.7(4) . . ?
O2 Te1 O2 176.3(5) 4_566 . ?
O3 Te1 O1 168.2(4) 4_566 9_666 ?
O3 Te1 O1 90.8(4) . 9_666 ?
O2 Te1 O1 88.9(4) 4_566 9_666 ?
O2 Te1 O1 88.2(4) . 9_666 ?
O3 Te1 O1 90.8(4) 4_566 . ?
O3 Te1 O1 168.2(4) . . ?
O2 Te1 O1 88.2(4) 4_566 . ?
O2 Te1 O1 88.9(4) . . ?
O1 Te1 O1 77.4(5) 9_666 . ?
O3 Te1 Te1 129.5(3) 4_566 9_666 ?
O3 Te1 Te1 129.5(3) . 9_666 ?
O2 Te1 Te1 88.2(3) 4_566 9_666 ?
O2 Te1 Te1 88.2(3) . 9_666 ?
O1 Te1 Te1 38.7(3) 9_666 9_666 ?
O1 Te1 Te1 38.7(3) . 9_666 ?
O3 Te1 Na1 137.1(3) 4_566 9_666 ?
O3 Te1 Na1 82.4(3) . 9_666 ?
O2 Te1 Na1 45.4(3) 4_566 9_666 ?
O2 Te1 Na1 132.2(3) . 9_666 ?
O1 Te1 Na1 44.9(3) 9_666 9_666 ?
O1 Te1 Na1 88.5(3) . 9_666 ?
Te1 Te1 Na1 61.90(3) 9_666 9_666 ?
Te1 O1 Te1 102.6(5) . 9_666 ?
Te1 O1 Na1 98.5(4) . . ?
Te1 O1 Na1 98.5(4) 9_666 . ?
Te1 O2 Pb1 113.2(4) . . ?
Te1 O2 Na1 100.5(4) . . ?
Pb1 O2 Na1 92.5(3) . . ?
Te1 O2 Pb3 155.0(4) . 13_566 ?
Pb1 O2 Pb3 91.3(3) . 13_566 ?
Na1 O2 Pb3 82.8(3) . 13_566 ?
Te1 O3 Pb3 123.6(4) . . ?
Te1 O3 Pb2 136.1(4) . . ?
Pb3 O3 Pb2 88.9(3) . . ?
Te1 O3 Pb1 116.1(4) . 13_566 ?
Pb3 O3 Pb1 88.5(3) . 13_566 ?
Pb2 O3 Pb1 90.6(3) . 13_566 ?
Pb2 O4 Pb3 95.8(4) . 3 ?
Pb2 O4 Pb3 95.8(4) . . ?
Pb3 O4 Pb3 168.5(9) 3 . ?
Pb2 O4 Na1 180.0 . 13_566 ?
Pb3 O4 Na1 84.2(4) 3 13_566 ?
Pb3 O4 Na1 84.2(4) . 13_566 ?
Pb2 O4 Pb1 95.5(4) . 13_566 ?
Pb3 O4 Pb1 89.45(8) 3 13_566 ?
Pb3 O4 Pb1 89.45(8) . 13_566 ?
Na1 O4 Pb1 84.5(4) 13_566 13_566 ?
Pb2 O4 Pb1 95.5(4) . 6_564 ?
Pb3 O4 Pb1 89.45(8) 3 6_564 ?
Pb3 O4 Pb1 89.45(8) . 6_564 ?
Na1 O4 Pb1 84.5(4) 13_566 6_564 ?
Pb1 O4 Pb1 169.1(8) 13_566 6_564 ?
loop_
_geom_bond_atom_site_label_1
_geom_bond_atom_site_label_2
_geom_bond_distance
_geom_bond_site_symmetry_2
_geom_bond_publ_flag
Na1 O1 2.396(13) . ?
Na1 O1 2.396(13) 10_557 ?
Na1 O2 2.434(9) 3_656 ?
Na1 O2 2.434(9) . ?
Na1 O2 2.434(9) 10_557 ?
Na1 O2 2.434(9) 12_655 ?
Na1 O4 2.54(2) 13_566 ?
Na1 Pb3 3.281(7) 15_566 ?
Na1 Pb3 3.281(7) 13_566 ?
Na1 Te1 3.360(3) 2_665 ?
Na1 Te1 3.360(3) 9_666 ?
Na1 Te1 3.360(3) 10_557 ?
Pb1 O2 2.354(9) . ?
Pb1 O2 2.354(9) 12_655 ?
Pb1 O3 2.595(9) 8_566 ?
Pb1 O3 2.595(8) 13_566 ?
Pb1 O4 2.6048(19) 13_566 ?
Pb1 Pb3 3.4913(9) 15_566 ?
Pb1 Pb3 3.4913(9) 13_566 ?
Pb1 Pb2 3.6013(10) 13_566 ?
Pb2 O4 2.251(18) . ?
Pb2 O3 2.468(9) . ?
Pb2 O3 2.468(8) 3 ?
Pb2 O3 2.468(9) 10_556 ?
Pb2 O3 2.468(8) 12 ?
Pb2 Pb3 3.4130(12) 3 ?
Pb3 O4 2.350(2) . ?
Pb3 O3 2.404(8) 10_556 ?
Pb3 O3 2.404(8) . ?
Pb3 O2 2.525(8) 13_566 ?
Pb3 O2 2.525(8) 6_564 ?
Te1 O3 1.887(8) 4_566 ?
Te1 O3 1.887(8) . ?
Te1 O2 1.917(8) 4_566 ?
Te1 O2 1.917(8) . ?
Te1 O1 2.029(7) 9_666 ?
Te1 O1 2.029(7) . ?
Te1 Te1 3.1660(19) 9_666 ?
