#------------------------------------------------------------------------------
#$Date: 2021-06-05 22:01:18 +0300 (Sat, 05 Jun 2021) $
#$Revision: 266105 $
#$URL: file:///home/coder/svn-repositories/cod/cif/7/70/72/7707223.cif $
#------------------------------------------------------------------------------
#
# This file is available in the Crystallography Open Database (COD),
# http://www.crystallography.net/
#
# All data on this site have been placed in the public domain by the
# contributors.
#
data_7707223
loop_
_publ_author_name
'Buchner, Magnus R.'
'M\"uller, Matthias'
_publ_section_title
;
 Ethylenediamine complexes of the beryllium halides and pseudo-halides.
;
_journal_issue                   21
_journal_name_full
'Dalton transactions (Cambridge, England : 2003)'
_journal_page_first              7246
_journal_page_last               7255
_journal_paper_doi               10.1039/d1dt01154e
_journal_volume                  50
_journal_year                    2021
_chemical_formula_sum            'C6 H24 Be Br2 N6'
_chemical_formula_weight         349.14
_space_group_crystal_system      triclinic
_space_group_IT_number           2
_space_group_name_Hall           '-P 1'
_space_group_name_H-M_alt        'P -1'
_atom_sites_solution_hydrogens   mixed
_audit_creation_method           SHELXL-2014/7
_audit_update_record
;
2021-04-07 deposited with the CCDC.	2021-04-27 downloaded from the CCDC.
;
_cell_angle_alpha                79.817(4)
_cell_angle_beta                 83.317(3)
_cell_angle_gamma                89.851(4)
_cell_formula_units_Z            2
_cell_length_a                   7.5193(3)
_cell_length_b                   7.6801(4)
_cell_length_c                   12.6503(5)
_cell_measurement_reflns_used    13078
_cell_measurement_temperature    100(2)
_cell_measurement_theta_max      153.49
_cell_measurement_theta_min      7.15
_cell_volume                     714.03(6)
_computing_structure_refinement  'SHELXL-2014/7 (Sheldrick, 2014)'
_diffrn_ambient_temperature      100(2)
_diffrn_detector_area_resol_mean 5.81
_diffrn_measured_fraction_theta_full 0.984
_diffrn_measured_fraction_theta_max 0.958
_diffrn_measurement_device_type  'STOE STADIVARI'
_diffrn_measurement_method       'rotation method, \w scans'
_diffrn_radiation_type           CuK\a
_diffrn_radiation_wavelength     1.54178
_diffrn_reflns_av_R_equivalents  0.0151
_diffrn_reflns_av_unetI/netI     0.0126
_diffrn_reflns_Laue_measured_fraction_full 0.984
_diffrn_reflns_Laue_measured_fraction_max 0.958
_diffrn_reflns_limit_h_max       9
_diffrn_reflns_limit_h_min       -9
_diffrn_reflns_limit_k_max       6
_diffrn_reflns_limit_k_min       -9
_diffrn_reflns_limit_l_max       15
_diffrn_reflns_limit_l_min       -15
_diffrn_reflns_number            7894
_diffrn_reflns_point_group_measured_fraction_full 0.984
_diffrn_reflns_point_group_measured_fraction_max 0.958
_diffrn_reflns_theta_full        67.679
_diffrn_reflns_theta_max         76.561
_diffrn_reflns_theta_min         3.575
_diffrn_source                   'GeniX 3D HF Cu'
_exptl_absorpt_coefficient_mu    7.061
_exptl_absorpt_correction_type   multi-scan
_exptl_crystal_colour            colorless
_exptl_crystal_density_diffrn    1.624
_exptl_crystal_description       block
_exptl_crystal_F_000             352
_exptl_crystal_size_max          0.06
_exptl_crystal_size_mid          0.05
_exptl_crystal_size_min          0.045
_exptl_transmission_factor_max   0.7404
_exptl_transmission_factor_min   0.1309
_refine_diff_density_max         0.511
_refine_diff_density_min         -0.531
_refine_diff_density_rms         0.072
_refine_ls_extinction_coef       0.00114(19)
_refine_ls_extinction_expression Fc^*^=kFc[1+0.001xFc^2^\l^3^/sin(2\q)]^-1/4^
_refine_ls_extinction_method     'SHELXL-2014/7 (Sheldrick 2014'
_refine_ls_goodness_of_fit_ref   1.067
_refine_ls_hydrogen_treatment    mixed
_refine_ls_matrix_type           full
_refine_ls_number_parameters     153
_refine_ls_number_reflns         2883
_refine_ls_number_restraints     0
_refine_ls_restrained_S_all      1.067
_refine_ls_R_factor_all          0.0238
_refine_ls_R_factor_gt           0.0215
_refine_ls_shift/su_max          0.001
_refine_ls_shift/su_mean         0.000
_refine_ls_structure_factor_coef Fsqd
_refine_ls_weighting_details
'w=1/[\s^2^(Fo^2^)+(0.0341P)^2^+0.4703P] where P=(Fo^2^+2Fc^2^)/3'
_refine_ls_weighting_scheme      calc
_refine_ls_wR_factor_gt          0.0543
_refine_ls_wR_factor_ref         0.0556
_reflns_Friedel_coverage         0.000
_reflns_number_gt                2683
_reflns_number_total             2883
_reflns_threshold_expression     'I > 2\s(I)'
_cod_data_source_file            d1dt01154e2.cif
_cod_data_source_block           4
_cod_depositor_comments
'Adding full bibliography for 7707219--7707225.cif.'
_cod_database_code               7707223
_shelx_shelxl_version_number     2014/7
_shelx_space_group_comment
;
The symmetry employed for this shelxl refinement is uniquely defined
by the following loop, which should always be used as a source of
symmetry information in preference to the above space-group names.
They are only intended as comments.
;
_shelx_res_file
;

    4.res created by SHELXL-2014/7


TITL 1_a.res in P-1
REM Old TITL 1 in P-1

REM SHELXT solution in P-1
REM R1 0.049,  Rweak 0.005,  Alpha 0.048,  Orientation as input
REM Formula found by SHELXT:  C6 Be N6 Br2

CELL  1.54178   7.5193   7.6801  12.6503   79.817   83.317   89.851
ZERR    2.000   0.0003   0.0004   0.0005    0.004    0.003    0.004
LATT  1
SFAC C H BE N BR
UNIT 12 48 2 12 4
L.S. 10
BOND $H
LIST 4
ACTA
TEMP -173.15
FMAP 2
PLAN 20
OMIT 4 -8 1
OMIT 2 -3 6
EQIV $1 x, -1+y, z
EQIV $2 1-x, 2-y, 1-z
EQIV $3 x, y, z
EQIV $4 -x, 1-y, 1-z
EQIV $5 -2+x, -1+y, z
EQIV $6 x, -2+y, z
EQIV $7 3-x, 2-y, 1-z
EQIV $8 2-x, -y, 1-z
EQIV $9 1+x, y, z
EQIV $10 2-x, 1-y, 1-z
EQIV $11 2-x, 3-y, 1-z
EQIV $12 x, y, -1+z
EQIV $13 1-x, 1-y, -z
EQIV $14 1-x, 2-y, -z
EQIV $15 -1+x, y, -1+z
EQIV $16 -1+x, y, z
EQIV $17 1-x, 3-y, 1-z
EQIV $18 2-x, 2-y, -z
EQIV $19 -1+x, 1+y, z
EQIV $20 -1+x, -1+y, 1+z
EQIV $21 2-x, 2-y, 1-z
EQIV $22 -1+x, -1+y, z
EQIV $23 1-x, -y, 1-z
EQIV $24 1-x, 1-y, 2-z
EQIV $25 x, y, 1+z
EQIV $26 x, -1+y, 1+z
EQIV $27 2-x, 1-y, 2-z
EQIV $28 1-x, 1-y, 1-z
EQIV $29 x, 1+y, z
EQIV $30 -1+x, -2+y, z
HTAB
WGHT    0.034100    0.470300
EXTI    0.001139
FVAR       0.23069
BR1   5    0.718149    0.804173    0.441544    11.00000    0.01808    0.01507 =
         0.01304   -0.00111   -0.00122   -0.00087
BR2   5   -0.205152    0.390790    0.900138    11.00000    0.01779    0.01508 =
         0.01576   -0.00182   -0.00004   -0.00101
N1    4    0.365657    0.606989    0.617933    11.00000    0.01840    0.01385 =
         0.01252   -0.00243    0.00030   -0.00182
AFIX  23
H1C   2    0.471085    0.657333    0.583682    11.00000   -1.20000
H1D   2    0.371804    0.487497    0.622999    11.00000   -1.20000
AFIX   0
N2    4    0.087407    0.691367    0.743194    11.00000    0.01678    0.01484 =
         0.01451   -0.00191   -0.00135    0.00012
AFIX  23
H2C   2    0.025550    0.621975    0.801583    11.00000   -1.20000
H2D   2    0.057660    0.806152    0.743772    11.00000   -1.20000
AFIX   0
N3    4    0.421541    0.861419    0.748569    11.00000    0.01404    0.01327 =
         0.01315   -0.00258   -0.00137   -0.00014
AFIX  23
H3A   2    0.390082    0.942735    0.692666    11.00000   -1.20000
H3B   2    0.377300    0.898161    0.810848    11.00000   -1.20000
AFIX   0
N4    4    0.890876    1.047441    0.733488    11.00000    0.01632    0.02002 =
         0.03125   -0.00291   -0.00075   -0.00152
N5    4    0.360878    0.501546    0.851259    11.00000    0.01658    0.01403 =
         0.01166   -0.00168   -0.00116    0.00016
AFIX  23
H5C   2    0.481108    0.498355    0.854601    11.00000   -1.20000
H5D   2    0.307998    0.530577    0.914084    11.00000   -1.20000
AFIX   0
N6    4    0.229481    0.018857    0.929137    11.00000    0.02353    0.01375 =
         0.01983    0.00005    0.00191   -0.00094
C1    1    0.212194    0.678179    0.559745    11.00000    0.02731    0.01939 =
         0.01397   -0.00067   -0.00683   -0.00005
AFIX  23
H1A   2    0.203891    0.620987    0.496183    11.00000   -1.20000
H1B   2    0.226969    0.807502    0.534764    11.00000   -1.20000
AFIX   0
C2    1    0.046421    0.636649    0.640330    11.00000    0.02013    0.02051 =
         0.02045   -0.00495   -0.00774    0.00109
AFIX  23
H2A   2   -0.056874    0.702795    0.612900    11.00000   -1.20000
H2B   2    0.016953    0.508530    0.652983    11.00000   -1.20000
AFIX   0
C3    1    0.620693    0.862896    0.742216    11.00000    0.01483    0.01651 =
         0.01684   -0.00430   -0.00134   -0.00001
AFIX  23
H3C   2    0.671704    0.824557    0.674485    11.00000   -1.20000
H3D   2    0.657726    0.777726    0.803709    11.00000   -1.20000
AFIX   0
C4    1    0.694066    1.045141    0.744895    11.00000    0.01696    0.01657 =
         0.02437   -0.00294   -0.00289   -0.00189
AFIX  23
H4A   2    0.652487    1.131427    0.685435    11.00000   -1.20000
H4B   2    0.647752    1.081199    0.814164    11.00000   -1.20000
AFIX   0
C5    1    0.296528    0.322087    0.842998    11.00000    0.01770    0.01262 =
         0.01349   -0.00202   -0.00117    0.00081
AFIX  23
H5A   2    0.376662    0.276349    0.786758    11.00000   -1.20000
H5B   2    0.175164    0.331181    0.819641    11.00000   -1.20000
AFIX   0
C6    1    0.289885    0.191465    0.948461    11.00000    0.02409    0.01411 =
         0.01383   -0.00095    0.00119    0.00074
AFIX  23
H6A   2    0.410074    0.181357    0.973444    11.00000   -1.20000
H6B   2    0.205787    0.232230    1.004873    11.00000   -1.20000
AFIX   0
BE1   3    0.317916    0.664521    0.745327    11.00000    0.01279    0.01308 =
         0.01181   -0.00290   -0.00047   -0.00112
H4C   2    0.931737    1.064572    0.665141    11.00000    0.04332
H4D   2    0.922175    1.137351    0.756715    11.00000    0.03722
H6C   2    0.124283    0.027536    0.913207    11.00000    0.02887
H6D   2    0.229429   -0.057553    0.984529    11.00000    0.01931
HKLF 4

REM  1_a.res in P-1
REM R1 =  0.0215 for    2683 Fo > 4sig(Fo)  and  0.0238 for all    2883 data
REM    153 parameters refined using      0 restraints

END

WGHT      0.0341      0.4703

REM Instructions for potential hydrogen bonds
HTAB N1 Br1
HTAB N1 Br1_$28
HTAB N2 Br2
HTAB N2 N4_$16
HTAB N3 Br1_$2
HTAB N3 N6_$29
HTAB N5 Br2_$9
EQIV $31 -x, -y+1, -z+2
HTAB N5 Br2_$31
HTAB C1 Br1_$2
HTAB C2 Br1_$16
HTAB C3 Br1
EQIV $32 x+1, y+1, z
HTAB C4 Br2_$32
HTAB C5 Br2
HTAB N4 Br1_$21
HTAB N4 Br2_$32
EQIV $33 -x, -y, -z+2
HTAB N6 Br2_$33

REM Highest difference peak  0.511,  deepest hole -0.531,  1-sigma level  0.072
Q1    1  -0.2510  0.3364  0.8514  11.00000  0.05    0.51
Q2    1   0.6757  0.7522  0.3788  11.00000  0.05    0.50
Q3    1   0.7594  0.8648  0.4858  11.00000  0.05    0.49
Q4    1  -0.1587  0.4214  0.9516  11.00000  0.05    0.44
Q5    1   0.8119  0.8546  0.3844  11.00000  0.05    0.41
Q6    1   0.6565  0.9520  0.7400  11.00000  0.05    0.39
Q7    1   0.0745  0.6627  0.6936  11.00000  0.05    0.37
Q8    1  -0.0879  0.4252  0.8416  11.00000  0.05    0.37
Q9    1   0.3474  0.5646  0.8015  11.00000  0.05    0.37
Q10   1   0.1344  0.6528  0.6025  11.00000  0.05    0.31
Q11   1  -0.2952  0.3110  0.9790  11.00000  0.05    0.31
Q12   1   0.2995  0.2663  0.8962  11.00000  0.05    0.30
Q13   1   0.6150  0.7628  0.5048  11.00000  0.05    0.30
Q14   1   0.6840  0.9392  0.4183  11.00000  0.05    0.29
Q15   1   0.4030  0.7517  0.7509  11.00000  0.05    0.27
Q16   1   0.5556  0.8418  0.5372  11.00000  0.05    0.26
Q17   1  -0.1783  0.2828  0.9090  11.00000  0.05    0.25
Q18   1   0.6544  0.5275  0.8944  11.00000  0.05    0.24
Q19   1  -0.1511  0.7611  0.5620  11.00000  0.05    0.24
Q20   1   1.0541  1.1283  0.5806  11.00000  0.05    0.23
;
_shelx_res_checksum              94676
_shelx_hkl_file
;
  -5  -6  -8    5.36    0.51
  -6  -4 -10    2.69    0.61
  -4  -5  -9    4.05    0.59
  -6  -5  -9    1.82    0.46
  -4  -3 -10   78.35    1.03
  -5   0  -9    2.74    0.68
  -7  -4  -9    4.42    0.44
  -3  -5  -8  109.57    1.14
  -4  -6  -7   14.94    0.61
  -5  -3 -10   -0.11    0.75
  -5  -6  -7   82.11    0.97
  -8  -3  -8    8.97    0.37
  -7  -2  -9   68.58    0.86
  -7  -3  -9    1.37    0.51
  -8  -2  -8    3.02    0.36
  -4  -4  -9   54.16    1.00
  -4  -5  -8  121.27    1.23
  -6  -1  -9   27.26    0.83
  -6  -4  -9   55.28    0.81
  -8  -4  -7    9.32    0.36
  -5  -4  -9   11.49    0.60
  -5  -6  -6   33.86    0.67
  -6  -3  -9   17.61    0.79
  -5   0  -8   31.04    0.78
  -5  -3  -9   44.09    1.00
  -8  -1  -7    0.49    0.37
  -6  -6  -5   55.60    0.71
  -7  -1  -8    6.77    0.55
  -7  -3  -8  106.42    1.10
  -4  -5  -7   13.58    0.65
  -6  -4  -8    0.78    0.64
  -8  -4  -6   16.99    0.44
  -5  -5  -7    0.57    0.60
  -6  -1  -8   77.68    1.09
  -6  -6  -4    1.30    0.34
  -5  -1  -8    0.89    0.46
  -6  -3  -8   11.03    0.78
  -5  -3  -8  207.68    1.67
  -9  -1  -4   23.85    0.35
  -4  -5  -6  163.19    1.32
  -5  -2  -8   27.56    0.73
  -6   0  -7    0.51    0.55
  -6  -5  -6   79.32    0.96
  -8  -1  -6   12.85    0.52
  -8  -4  -5    1.21    0.34
  -7  -3  -7    0.60    0.59
  -9  -3  -3   27.57    0.34
  -5  -4  -7   52.62    0.98
  -8   0  -5   46.98    0.69
  -7  -4  -6    6.88    0.61
  -6  -1  -7   32.48    0.84
  -7  -5  -4   32.45    0.60
  -6  -3  -7    1.41    0.50
  -8  -3  -5    2.45    0.48
  -8  -4  -4   34.66    0.56
  -9  -1  -3   17.68    0.38
  -9  -3  -2    5.99    0.22
  -5  -3  -7   -0.30    0.47
  -6  -2  -7   70.55    1.12
  -5  -5  -5   13.35    0.67
  -7  -3  -6   93.37    1.12
  -5  -4  -6   16.10    0.75
  -7  -1  -6   89.29    1.05
  -7  -4  -5   54.04    0.88
  -7  -5  -3   27.68    0.62
  -8  -4  -3   15.89    0.46
  -6  -5  -4   12.49    0.61
  -8  -3  -4   52.05    0.74
  -9  -1  -2    0.85    0.31
  -6  -3  -6   29.42    0.87
  -5  -5  -4  130.26    1.18
  -6  -1  -6   20.02    0.74
  -6  -4  -5   16.30    0.69
  -8  -4  -2    2.78    0.36
  -6  -2  -6    0.58    0.50
  -7  -4  -4    6.59    0.58
  -7  -5  -1   72.07    0.73
  -8  -1  -4   26.27    0.68
  -8  -2  -4    6.90    0.52
  -6  -5  -3   65.69    0.86
  -7  -1  -5    1.13    0.57
  -7  -2  -5   47.74    0.89
  -7  -5   0    0.36    0.30
  -7  -5   1   32.00    0.44
  -5  -5  -3   10.25    0.62
  -6  -3  -5   17.45    0.81
  -6  -5  -2   36.89    0.72
  -7  -4  -3    3.52    0.55
  -8  -4   1    2.02    0.24
  -9  -2   1   -0.20    0.19
  -8  -2  -3    0.77    0.48
  -9   0   1   19.50    0.32
  -9  -1   0   20.17    0.36
  -8  -1  -3    3.95    0.51
  -8  -3  -2   17.70    0.58
  -5  -5  -2   24.02    0.68
  -6  -5  -1   13.50    0.55
  -7  -1  -4  106.68    1.19
  -8   0  -2    0.17    0.43
  -8  -3  -1   76.28    0.85
  -6  -3  -4  139.29    1.30
  -6  -5   0   23.37    0.57
  -7  -3  -3   37.51    0.86
  -6  -5   1   34.38    0.65
  -6  -5   2   -0.07    0.34
  -7   0  -3   22.51    0.73
  -8  -3   0    7.43    0.50
  -7  -2  -3   98.61    1.17
  -5  -5   0   -0.12    0.42
  -6  -4  -2    0.46    0.42
  -7  -3  -2  104.21    1.17
  -8   0  -1    3.03    0.50
  -8  -2  -1   36.67    0.64
  -6  -3  -3    5.46    0.62
  -7  -4   4   67.82    0.58
  -8   1   0  117.00    0.95
  -8  -3   3   26.79    0.42
  -7  -4   1    1.31    0.44
  -7  -4   2   20.88    0.53
  -7  -4   3    3.85    0.35
  -8  -2   0    6.88    0.52
  -7  -2  -2    7.08    0.66
  -7  -3  -1    3.66    0.64
  -6  -2  -3    2.67    0.52
  -7   0  -2    0.57    0.56
  -8   0   0   15.15    0.57
  -8  -2   1   26.92    0.62
  -6  -3  -2   43.98    0.89
  -6  -4   0   93.39    1.06
  -7   1  -1    0.40    0.51
  -8  -2   2   52.40    0.72
  -7  -2  -1    6.01    0.65
  -8  -2   3    0.17    0.40
  -8  -2   4   58.00    0.61
  -8   1   2   44.92    0.66
  -8   0   1   44.55    0.76
  -6  -4   1    5.87    0.59
  -7   0  -1   97.97    1.12
  -7  -3   1   77.10    1.01
  -7  -3   6    0.44    0.24
  -6  -3  -1   42.30    0.82
  -8   0   2    0.34    0.46
  -8  -1   2    7.94    0.54
  -6  -4   2  121.29    1.11
  -6  -4   5    0.22    0.33
  -7  -2   0   70.05    1.02
  -7  -3   2   -0.38    0.50
  -8   1   6   30.97    0.37
  -8  -1   3   54.60    0.74
  -8  -1   5   17.85    0.41
  -6  -4   3    5.92    0.50
  -6  -4   4    0.73    0.41
  -7  -3   5    6.01    0.38
  -8   1   4    0.34    0.35
  -8   0   6   58.55    0.50
  -8  -1   4   17.94    0.49
  -6  -3   0   14.34    0.61
  -6  -3   8   10.49    0.30
  -7   0   0    1.47    0.58
  -7  -1   0  113.66    1.29
  -7  -2   1    9.84    0.55
  -5  -4   2   55.61    0.90
  -7  -2   2   41.75    0.89
  -7  -2   7   -0.33    0.31
  -7  -1   1    1.27    0.61
  -7   0   1   61.93    0.96
  -7  -2   3   19.98    0.76
  -7  -2   6   80.59    0.79
  -5  -4   4   62.32    0.89
  -5  -4   5    0.70    0.44
  -7  -2   5    3.72    0.52
  -7   1   2   62.50    0.95
  -7  -1   2   76.69    1.09
  -7  -1   8    1.59    0.30
   0   3  -2  403.56    0.54
   1   1   0   35.15    0.13
  -1   1  -2  252.93    0.47
   0  -1   4  531.59    0.67
   0  -1   5    2.00    0.19
   2   1   2   88.60    0.34
   0  -1   6   95.24    0.41
   0  -1   3  309.08    0.44
  -1   3  -2   62.99    0.36
   2   0   3    3.80    0.19
   1   0   1   61.76    0.20
   1  -1   5  309.34    0.69
   1  -1   4   30.57    0.25
   3   2   2    7.48    0.20
   2   0   2  557.98    0.80
   3   1   2   29.17    0.29
  -2   2  -1   80.50    0.44
   2   2   0    8.06    0.11
  -1   0   0    4.54    0.11
  -3   0   2  180.09    0.55
   3   2   1  161.28    0.47
   1  -1   2  245.56    0.47
   0   3  -1   49.40    0.27
   2  -1   3  484.28    0.87
   2   0   1  151.58    0.42
   0   2  -1  229.15    0.39
  -3   0   3   22.23    0.25
   3   0   2   58.52    0.38
   3   1   1  358.27    0.72
   2   1   0  232.64    0.43
  -2   2   0   82.78    0.45
   2  -1   2   19.13    0.22
   1   0   0    4.21    0.12
   1  -2   4    1.24    0.19
   0   4   0   80.15    0.44
  -1  -1   2  490.58    0.28
   1  -1   1  188.88    0.42
   0  -2   4   35.87    0.21
  -2   2   1   13.72    0.28
   2   0   0  831.84    0.91
   2  -1   1  632.28    0.94
   3   1   0  231.12    0.56
   0  -1   1  127.09    0.21
   1  -2   2  594.00    0.86
  -2   2   2  474.15    1.00
  -1   0   1    1.04    0.12
   2  -2   1   82.69    0.45
  -1   2   1  128.10    0.46
   1  -1   0    5.49    0.14
  -1   1   1  109.97    0.36
  -2  -3  -3    0.83    0.29
   0  -1  -6  182.59    0.53
   0   3   0    0.53    0.25
  -2  -1   2   27.89    0.38
  -2   0   3  529.67    1.04
  -2  -3  -2   51.31    0.45
  -2  -2   1  347.29    0.97
   0  -1  -5  146.19    0.39
   0   0  -6  470.43    0.99
   0   2   0   36.94    0.26
  -1  -2   0  503.69    0.85
  -2   1   4   10.47    0.22
  -2   2   4  112.35    0.32
  -2  -1   3   -0.14    0.23
   0   2  -3   10.73    0.31
   0   2  -1  217.54    0.57
   0   0  -5   68.51    0.38
  -1   1   3  522.22    0.55
  -1  -1   2  467.02    0.80
  -2   0   4   23.30    0.33
   0   1  -4  541.19    0.97
   0   1   0   18.49    0.13
  -1  -3  -3  214.48    0.50
  -1  -3  -4    1.23    0.13
  -1   3   1   67.42    0.34
   0   1  -2  158.01    0.45
   0   1  -1  129.61    0.35
  -1  -3  -1   17.15    0.27
  -1   3   0   90.31    0.44
   0   0  -3   75.30    0.29
  -1   3  -1  144.07    0.60
  -1  -1   3  137.16    0.51
   0  -1  -1   34.93    0.10
  -1  -2   2  195.21    0.62
  -1  -3   0  909.59    1.31
  -2   1   5   54.82    0.36
   0   0  -2    9.81    0.15
   0  -1   0   18.21    0.14
  -1   0   4  302.36    0.65
  -1  -1  -6   23.54    0.27
  -1   2  -2  619.00    1.06
   0  -1   1  131.23    0.34
  -1   2   2   31.28    0.15
  -1   2  -1  154.12    0.51
   0  -2   0   36.47    0.24
  -2   3   1  558.64    1.02
   0  -1   2  152.58    0.44
   0  -2   1  222.11    0.55
  -1   0   5  251.07    0.69
   0   0   1    0.62    0.05
   0  -2   2  230.07    0.63
   0  -1   3  304.75    0.66
   0  -2  -2  965.16    0.57
   0  -2   3   10.58    0.23
   0  -3  -1  216.77    0.52
  -1   0   6    0.42    0.24
   0  -1   4  525.31    0.97
  -1   1  -2  251.38    0.59
  -1   1   5   30.97    0.21
   0   0   3   75.31    0.29
   0  -4  -1   68.32    0.40
  -1   1  -1  189.74    0.48
   1  -1  -2   16.59    0.34
   0   1   2   26.74    0.29
   1   2   4  389.49    0.97
  -1   1   0    5.46    0.17
  -1   0  -4  517.01    0.76
  -1   0  -5   33.73    0.30
  -2   2  -2  103.20    0.40
   3  -1   0   13.54    0.28
  -2   3  -1  166.26    0.70
  -1   0  -6    2.88    0.25
  -1   0  -3  190.34    0.36
   0  -1  -5  155.15    0.70
   0  -1  -4  206.21    0.71
   2  -1   0  127.27    0.44
  -2   3  -2  162.43    0.69
  -2   2  -3   46.85    0.27
   0  -1  -3  790.85    1.12
   2   2   4  203.15    0.71
   0  -1  -2   26.80    0.28
  -1   2   0  622.29    1.00
   3  -1   1   54.55    0.28
  -1   3   0   92.89    0.59
   3  -2  -1   27.57    0.41
   0   1   1   36.85    0.25
  -1  -1  -6   24.31    0.35
   2  -2  -1   13.20    0.32
   1  -1   0    5.25    0.18
   0  -2  -4  342.37    0.95
   2   2   3   33.22    0.34
   2  -1   1  616.45    0.67
   3  -2   0  324.30    0.86
   0  -2  -3   18.68    0.27
  -1   3  -2   61.03    0.49
   0  -1  -1   36.00    0.20
   1  -2  -1  129.87    0.48
   2  -2   0   83.64    0.41
   0   3   0    0.94    0.32
  -1   3  -3   91.65    0.56
   0  -2  -2  973.03    1.28
  -1   2  -2  613.12    0.94
  -1  -2  -5   19.01    0.28
   2   2   2  370.75    0.88
  -1  -2  -4  384.13    0.89
   3  -2   1   18.65    0.25
   0   1   0   18.81    0.19
   1  -2   0  635.65    0.94
  -1   2  -3    1.19    0.25
   0  -2  -1  202.37    0.58
   3   1   2   30.39    0.30
   2  -3   0    1.66    0.27
   1   1   1  142.18    0.38
   0  -3  -2   77.80    0.49
  -1  -1  -2   24.69    0.21
  -1   1   0    5.34    0.20
  -2   2   2  476.64    1.15
   1   2  -3  340.92    0.67
   1  -1   2  245.02    0.36
   2   0  -2  161.44    0.65
   0   0   6  496.54    0.93
  -1   3  -1  145.40    0.52
   2  -1   0  126.45    0.54
  -1   1   1  109.54    0.41
  -1   1   5   30.86    0.33
  -1   1   4    2.44    0.27
   1  -1   1  189.14    0.37
   2   1  -4  170.27    0.69
   2  -1  -2  219.37    0.72
  -1   2   2   35.09    0.35
   2   0  -4   21.57    0.35
   0   3  -2  409.36    0.58
   1  -1  -1  108.81    0.38
   2  -1  -3  424.62    1.01
   1   2  -4    0.09    0.14
   2  -2   0   85.24    0.44
   2  -2   2  107.12    0.39
   0   1   5  150.17    0.52
   1   1  -4  193.14    0.49
   2  -2  -1   13.89    0.30
   0   0   2   10.36    0.12
   1  -1  -2   16.10    0.25
   0   4   0   80.64    0.47
   2  -2   3   46.69    0.21
   0   2  -2  229.09    0.29
   2  -2  -2  466.30    1.00
   1   0  -4  290.81    0.64
   0   3  -1   46.33    0.29
   0   2   4  341.69    0.79
   1  -1  -3  524.63    0.87
   1   1   6   23.57    0.30
   1   0   5   33.93    0.22
   0   3   0    1.02    0.17
   0   3   1  218.56    0.60
   0   2   2 1000.00    1.12
   0   1   2   27.51    0.22
   1  -2  -1  128.58    0.43
   1   0  -5  242.33    0.64
   0   2  -1  222.32    0.38
   1  -2  -2   32.62    0.25
   0   2   1  209.34    0.49
   0   0  -1    1.01    0.04
   1   1   5    9.39    0.22
  -1  -4 -10   98.93    1.16
  -2  -3  -8    5.65    0.49
   0  -3  -2   76.85    0.45
  -2  -3  -6    3.47    0.40
  -1  -2  -2   55.60    0.46
  -3   0  -8   59.26    0.88
  -3  -1  -9  113.81    1.27
  -1  -4  -5  116.78    0.90
  -2  -1  -3  234.33    0.94
  -3   0  -9    3.85    0.67
  -1  -3  -3  218.51    0.94
  -2   1  -3  479.31    1.10
  -2  -3  -5   59.40    0.78
  -3   0 -10  184.78    1.52
  -3   0  -6   58.58    0.73
  -3  -2  -8   74.21    1.06
  -3  -1  -6   60.86    0.71
  -3  -2 -10   41.25    1.02
  -3  -2  -7    0.63    0.66
  -3   1  -7  121.34    1.00
  -1  -5  -8   27.25    0.85
  -2  -4  -7   35.28    0.87
   0  -4  -3  210.58    0.86
  -3   1  -6    3.90    0.46
  -3   0  -5   -0.45    0.46
  -3  -2  -6  216.92    1.29
  -3  -3  -9  125.69    1.41
  -1  -4  -4  285.19    1.26
  -1  -5  -7  197.95    1.42
  -2  -4  -6   75.96    1.00
  -3  -3 -10    4.11    0.56
  -3  -3  -8   62.20    0.95
  -1  -1  -1  148.15    0.52
  -2  -3  -4  213.30    1.12
  -3  -3  -7    2.42    0.69
  -2   0  -2  572.03    1.24
  -3   0  -4  277.78    1.23
  -3  -1  -4   67.07    0.81
  -3  -3  -6  125.40    1.11
  -2  -1  -2   89.73    0.59
  -2  -4  -5   20.43    0.65
  -3  -4  -9    5.46    0.80
  -1  -3  -2   27.51    0.44
  -2  -5  -8   62.86    1.10
  -4  -1  -9   92.93    1.31
  -3  -2  -4   86.34    0.94
  -3  -3  -5  140.78    1.20
  -4  -2  -9    0.13    0.87
  -4  -2  -8   55.62    1.11
  -2  -5  -7    1.16    0.74
  -4   0  -9   37.55    0.99
  -4   0  -8  235.67    1.63
  -4  -1  -7   26.94    0.72
  -1  -4  -3  216.10    1.05
  -3   1  -4    2.06    0.41
  -4   0  -7    1.88    0.61
  -4  -2  -7   40.70    1.01
  -2   1  -2   19.50    0.37
  -2  -2  -2  375.48    1.22
  -3  -1  -3  135.82    0.98
  -4   0  -6  185.34    1.32
  -4  -2  -6    0.45    0.71
  -3  -3  -4    1.51    0.41
  -4  -3  -7  150.88    1.40
  -3  -2  -3  307.28    1.37
  -4   0  -5    1.07    0.54
  -4  -2  -5  172.23    1.40
  -4  -3  -6   82.58    1.18
  -2  -5  -5    0.70    0.62
  -4  -4  -8   13.46    0.84
  -2  -4  -3  223.04    1.24
  -4  -1  -4   52.05    0.87
  -4  -4  -7   61.49    1.14
  -3  -3  -3   31.86    0.75
  -4  -3  -5   23.05    0.88
  -2   0  -1  155.73    0.67
  -3  -1  -2   30.21    0.55
  -3  -4  -4   33.31    0.82
  -3  -5  -6    5.08    0.82
  -4   0  -4   30.96    0.69
  -4  -2  -4   95.31    0.97
  -1  -3  -1   17.07    0.41
  -1  -4  -2  111.72    0.76
  -4   1  -5   21.50    0.63
  -4  -4  -6    3.42    0.80
  -5  -1  -7  177.86    1.62
  -2  -2  -1  370.65    1.19
  -3  -2  -2    7.35    0.65
  -2  -5  -4   30.10    0.75
  -4  -3  -4  186.93    1.47
  -5  -1  -6   60.17    1.08
  -4  -1  -3  130.44    1.13
  -5   0  -7   29.73    0.93
  -5  -2  -6   80.01    1.13
  -5  -3  -7   -0.22    0.81
  -4  -2  -3    1.53    0.69
  -1  -1   0   36.09    0.37
  -4   0  -3  147.68    1.08
  -5   0  -6   18.20    0.85
  -5  -3  -6   86.78    1.32
  -2  -4  -2   15.09    0.57
  -3  -3  -2  370.38    1.62
  -5  -1  -5    1.97    0.62
  -5  -2  -5   86.03    1.26
  -4  -5  -6  176.16    1.65
  -2   1  -1  620.00    1.17
  -2  -5  -3    0.67    0.68
  -3  -1  -1  349.44    1.31
  -3  -5  -4  194.26    1.48
  -5  -3  -5   27.36    0.80
  -4  -1  -2  234.94    1.39
  -3   0  -1   86.89    0.79
  -4  -2  -2   13.50    0.74
  -4   1  -3  247.19    1.26
  -4  -5  -5    1.62    0.79
  -3  -4  -2    2.58    0.57
  -4   0  -2  329.79    1.51
  -5   0  -4  145.58    1.19
  -5  -3  -4    2.20    0.85
  -3  -5  -3   -0.24    0.64
  -4  -3  -2   60.52    0.81
  -5  -2  -3  141.48    1.39
  -2   0   0  780.26    1.47
  -4  -5  -4    6.19    0.79
  -2  -4  -1  152.65    1.00
  -1  -3   0  921.62    1.70
  -4  -1  -1   19.39    0.73
  -5   0  -3    4.58    0.66
  -5  -3  -3   36.62    0.86
  -5  -4  -4    5.15    0.63
  -6  -1  -5    6.79    0.89
  -2  -3   0    2.55    0.52
  -3   1  -1   56.48    0.62
  -3  -2   0   38.88    0.73
  -4   1  -2   32.29    0.66
  -4  -4  -2   -1.33    0.76
  -5  -1  -2    7.95    0.57
  -5  -2  -2    0.82    0.49
  -6  -2  -4    6.96    0.87
  -4  -3  -1    1.63    0.64
  -4  -5  -3   48.02    1.00
  -6   0  -5   59.11    1.06
  -6  -1  -4   16.05    0.74
  -3   0   0   37.20    0.53
  -3  -5  -2  119.53    1.12
  -5  -3  -2  383.43    2.15
  -5   0  -2   22.40    0.75
  -5   1  -3   30.92    0.73
  -6  -2  -3    3.57    0.86
  -4  -1   0  157.09    1.20
  -6  -1  -3   22.91    0.93
  -5  -2  -1  145.17    1.39
  -6  -3  -3    6.10    0.79
  -2  -2   1  341.32    1.27
  -1  -1   1  132.17    0.62
  -2   1   0  123.24    0.60
  -4   1  -1  351.74    1.48
  -4  -5  -2   29.72    0.88
  -5  -3  -1    3.92    0.83
  -6   0  -3  137.78    1.37
  -1  -2   1    9.96    0.35
  -3  -2   1   38.83    0.74
  -4  -3   0    8.61    0.55
  -5   0  -1  221.09    1.46
  -6  -2  -2   -0.28    0.87
  -5   1  -2   52.69    0.89
  -6  -1  -2  314.35    2.00
  -2   0   1   52.65    0.57
  -2  -3   1   10.54    0.54
  -3   1   0   13.04    0.47
  -6  -3  -2   48.06    1.07
  -3   0   1  229.03    1.14
  -3  -3   1    1.09    0.55
  -5  -1   0  141.51    1.32
  -5  -2   0   16.62    0.67
  -5  -4  -1   54.29    1.07
  -6   0  -2   29.69    0.96
  -4  -2   1  388.91    1.78
  -4  -4   0   90.36    1.12
  -1  -3   1    0.83    0.34
  -4  -5  -1   12.46    0.74
  -5  -3   0   80.63    1.20
  -6  -2  -1   51.33    0.98
  -5   1  -1    1.89    0.60
  -5   0   0    0.63    0.68
  -4   0   1   94.11    0.96
  -6   0  -1    5.38    0.75
  -3  -1   2  220.22    1.24
  -3  -2   2    7.26    0.62
  -3  -4   1  298.86    1.54
  -2  -1   2   28.77    0.58
  -5  -2   1  105.27    1.09
  -5  -4   0   32.83    0.77
  -6  -2   0    9.80    0.87
  -3   1   1  357.41    1.32
  -4  -1   2   14.90    0.71
  -4  -4   1    1.80    0.63
  -5  -3   1   21.29    0.86
  -2  -3   2  333.63    1.37
  -3   0   2  177.00    1.09
  -3  -3   2   16.67    0.48
  -5   1   0   57.85    0.86
  -6   0   0    9.40    0.78
  -2   0   2  160.66    0.87
  -4   0   2   61.78    0.87
  -1  -2   2  203.87    0.83
  -5  -4   1   55.13    0.99
  -6  -2   1  175.59    1.58
  -1  -1   2  483.35    1.13
  -5  -1   2  320.50    1.81
  -5  -2   2   18.81    0.69
  -6  -1   1   37.69    0.83
  -3  -2   3  551.27    1.99
  -3  -4   2   31.07    0.74
  -5   1   1  122.43    1.15
  -3   2   0  320.16    1.05
  -4  -1   3    2.20    0.63
  -4  -4   2   32.06    0.88
  -6   0   1   77.02    1.17
  -2  -1   3    0.16    0.51
  -6   1   0  282.44    1.72
  -3  -3   3   97.49    0.97
  -3   0   3   21.82    0.56
  -4   0   3  395.37    1.78
  -6  -1   2    6.63    0.78
  -5  -1   3   12.55    0.79
  -5  -2   3   77.80    1.14
  -1   0   2  311.24    0.86
  -2  -3   3   -0.17    0.47
  -2   0   3  524.82    1.51
  -5   1   2   77.59    1.03
  -6   1   1    0.61    0.72
  -6   0   2   10.30    0.79
  -3  -1   4  231.50    1.39
  -3  -4   3   45.69    0.80
  -4   2   1    5.52    0.47
  -4  -1   4  201.12    1.42
  -4  -2   4   33.46    0.88
  -4  -4   3  137.84    1.25
  -1  -2   3  352.89    1.11
  -6  -1   3    7.12    0.77
  -1  -1   3  137.89    0.72
  -4   1   3    5.47    0.60
  -2  -2   4    4.19    0.54
  -3   0   4   41.88    0.79
  -3  -3   4   88.60    1.01
  -4   0   4    7.82    0.71
  -4  -3   4   72.31    1.02
  -5  -2   4    8.22    0.78
  -5   1   3   12.06    0.77
  -6   1   2  208.91    1.57
  -6   0   3  131.74    1.34
  -5   0   4   33.64    0.88
  -4   2   2  199.90    1.17
  -2   1   3  429.82    1.31
  -2   0   4   22.00    0.63
  -3  -1   5    6.68    0.64
  -4  -1   5    0.23    0.67
  -4  -2   5   88.37    1.11
  -4  -4   4   26.39    0.78
  -1   0   3   43.94    0.42
  -6   1   3   -0.11    0.77
  -3   1   4  145.76    1.00
  -4   0   5   32.42    0.84
  -5  -1   5   47.60    0.97
  -5  -2   5   90.62    1.14
  -3   0   5  405.54    1.80
  -5   1   4  242.28    1.57
  -2  -2   5  266.11    1.35
  -3  -3   5   11.96    0.57
  -4   2   3   44.01    0.74
  -5   0   5  233.82    1.71
  -1  -1   4  200.82    0.88
  -1   1   2   16.10    0.25
  -3   2   3   68.29    0.72
  -5   2   3   69.85    0.99
  -2   1   4   10.97    0.55
  -2   0   5   68.16    0.84
  -4  -1   6  116.55    1.29
  -1  -3   4  114.47    0.78
  -2  -3   5   51.73    0.76
  -3  -2   6   22.44    0.82
  -1   0   4  298.44    1.05
  -3   1   5   11.93    0.49
  -5   1   5    3.16    0.70
  -3   0   6   -0.29    0.67
  -4   2   4    2.89    0.61
  -5   2   4   99.96    1.15
  -5   0   6    0.88    0.52
  -2  -1   6  206.19    1.28
  -3   2   4  134.29    1.00
  -3  -3   6  113.68    1.16
  -1   1   3  516.28    1.14
  -1  -2   5  278.96    1.18
  -2  -2   6    1.04    0.39
  -2   2   3   42.38    0.52
  -2   1   5   53.53    0.63
  -2   0   6   53.38    0.81
  -4  -1   7   91.60    1.23
   0  -2   3   10.84    0.25
  -3   1   6  106.92    1.11
  -3  -1   7   32.20    0.90
  -4   2   5  321.87    1.74
  -4  -2   7  121.52    1.30
  -1   0   5  245.42    1.10
  -2  -3   6    0.15    0.51
  -4   0   7   23.27    0.87
   2   3   7  269.61    1.41
   2   3   9   96.03    1.09
   2   1   4    0.17    0.38
   2   1  11  138.53    1.25
   2  -1   6   41.31    0.52
   2  -1   8    0.49    0.44
   1   4   5  118.42    0.88
   2   3  10    3.31    0.67
   2   2  11   28.54    0.78
   2   0   4   80.44    0.58
   1   3   3  227.75    0.89
   2   3   6    3.38    0.36
   2  -1   5    0.32    0.33
   2   2   4  197.21    0.95
   2   0  11   70.62    0.94
   1   5   9    0.30    0.62
   1   5   8   26.35    0.78
   2   4   8    2.58    0.52
   1   5   7  190.10    1.32
   1   4   4  284.27    1.17
   2   4   7   36.71    0.75
   2   1   3  232.27    0.86
   2  -1   4   48.41    0.45
   3   2   8   73.93    0.93
   3   2   9    3.68    0.66
   3   1   7  343.83    1.52
   3   2   7    0.64    0.54
   3   1  10    5.83    0.61
   2   4   6   76.12    0.85
   1   5   6   12.98    0.60
   3   1   6   61.75    0.65
   3   0   7   44.94    0.65
   3   0   8   59.46    0.72
   3   0   9    4.18    0.57
   2   2   3   32.32    0.52
   3   3   8   61.93    0.93
   3   3   9  126.51    1.25
   3   2   6  213.74    1.22
   1   1   1  147.20    0.48
   3   3   7    2.47    0.59
   3   3  10    4.01    0.49
   3   0   6   57.39    0.59
   3   0  10  188.67    1.34
   3   1   5   13.82    0.54
   2   4   5   21.55    0.58
   3   2   5    0.99    0.51
   2   5   8   61.92    1.00
   1   4   3  220.96    0.97
   3   3   6  123.44    0.98
   2  -1   3  474.78    1.01
   3  -1   7  123.94    0.89
   2   5   7    0.85    0.63
   3   1   4   66.13    0.72
   2   3   3    1.14    0.46
   2   1   2   89.23    0.59
   1   2   1   27.46    0.33
   3   4   7   24.31    0.84
   3   3   5  139.22    1.06
   3  -1   6    3.67    0.38
   3   2   4   82.72    0.81
   2   5   6  194.35    1.32
   2   0   2  553.38    1.12
   4   2   9    0.59    0.69
   2   2   2  384.39    1.15
   4   2   8   53.79    0.83
   4   1   9   93.19    0.99
   3   4   6    5.04    0.61
   3  -1   5  398.72    1.28
   4   3   9   26.70    0.80
   4   2   7   37.00    0.81
   4   3   8   20.19    0.81
   4   0   8  228.00    1.39
   4   3   7  146.79    1.33
   4   2   6    0.78    0.58
   4   1   6   26.88    0.67
   4   0   7    1.41    0.56
   4   0   9   37.43    0.79
   3   1   3  131.25    0.87
   2   5   5    0.79    0.55
   3   4   5  355.77    1.67
   3   2   3  306.19    1.29
   4   0   6  181.50    1.14
   3   5   7   49.35    0.94
   3   0   3   21.57    0.53
   3  -1   4    1.03    0.35
   4   3   6   82.88    1.04
   4   2   5  168.02    1.20
   4   1   5  243.64    1.30
   2   4   3  226.68    1.13
   2   3   2   55.30    0.66
   1   4   2  114.00    0.70
   2  -1   2   18.33    0.30
   1   3   1   17.51    0.33
   4   3   5   24.17    0.74
   4   0   5    0.95    0.32
   3   5   6    4.67    0.67
   3   4   4   35.63    0.71
   4   1   4   50.88    0.75
   4  -1   7  201.00    1.21
   4   4   6    3.97    0.68
   4   2   4   88.43    0.94
   3   1   2   29.05    0.59
   5   2   8   28.02    0.69
   4  -1   6    2.89    0.46
   3   2   2    7.20    0.54
   3  -1   3  188.73    0.86
   2   0   1  150.49    0.64
   5   2   7   47.36    0.96
   3   5   5   10.29    0.68
   4   3   4  181.57    1.29
   3   0   2   59.33    0.61
   2  -2   3   45.82    0.32
   5   3   7   -0.74    0.68
   5   2   6   81.19    1.05
   4   4   5    8.89    0.72
   4  -1   5   18.83    0.54
   4   1   3  124.43    0.99
   3   4   3  136.70    1.06
   2   4   2   15.62    0.47
   5   3   6   86.72    1.16
   5   0   7   28.52    0.76
   4   2   3    1.88    0.41
   5   2   5   82.82    1.06
   2   3   1   76.03    0.67
   5   1   5    1.62    0.46
   5   0   6   17.79    0.66
   4   5   6  175.33    1.48
   1   2   0  517.42    1.01
   4   4   4   15.00    0.75
   4  -1   4   67.89    0.70
   5   0   5    0.89    0.53
   3   1   1  359.40    1.26
   5   2   4    2.88    0.65
   5   1   4  206.83    1.37
   3   2   1  161.28    0.99
   3  -1   2   27.34    0.47
   4   5   5    1.65    0.77
   4   2   2   14.47    0.64
   4   1   2  235.28    1.19
   3   0   1   88.07    0.70
   2   1   0  225.69    0.86
   5   3   4    2.49    0.73
   5   0   4  145.21    1.14
   5  -1   6    0.38    0.51
   4   0   2  326.32    1.36
   4  -1   3  237.43    1.12
   4   4   3  148.37    1.25
   3   3   1   24.00    0.59
   5   2   3  143.98    1.27
   6   1   6   21.47    0.65
   5  -1   5  238.27    1.34
   3  -2   3   20.56    0.35
   2   0   0  807.54    1.41
   2   4   1  154.44    0.91
   6   2   5  142.25    1.27
   5   4   4    5.20    0.58
   5   3   3   37.52    0.90
   4   1   1   19.53    0.66
   2  -2   2  100.54    0.45
   1   3   0  919.10    1.48
   6   0   6  137.40    1.25
   4   2   1  167.14    1.16
   3   1   0  224.83    1.07
   4  -1   2   31.90    0.57
   3   2   0   41.08    0.71
   3  -1   1   54.88    0.59
   2   3   0    2.60    0.43
   6   2   4    7.56    0.72
   6   0   5   57.50    0.96
   5   2   2    0.26    0.67
   5   1   2    8.62    0.50
   4   4   2   -0.04    0.63
   4   0   1   42.48    0.70
   6   1   4   17.37    0.60
   4   3   1    2.82    0.57
   3   4   1  100.07    0.93
   5   4   3   36.49    0.91
   3   0   0   38.44    0.49
   5  -1   3   31.56    0.68
   6   0   4    1.73    0.47
   3   3   0  325.83    1.44
   3  -2   2  288.13    0.95
   6   1   3   22.82    0.70
   4   1   0  167.19    1.14
   6   3   3    7.20    0.71
   5   2   1  155.94    1.31
   5   1   1   24.93    0.78
   4   2   0   11.00    0.63
   4  -1   1  349.80    1.35
   6   0   3  139.96    1.24
   2   1  -1  259.83    0.99
   5   4   2   17.25    0.83
   5   0   1  228.41    1.38
   5  -1   2   54.36    0.76
   4   4   1  180.46    1.26
   4   0   0   49.42    0.75
   6   2   2    0.66    0.72
   6   1   2  321.52    1.87
   4   3   0   10.33    0.66
   6  -1   4   86.54    1.01
   1   1  -1  127.19    0.55
   4  -2   2   26.09    0.50
   2   0  -1   52.59    0.55
   1   2  -1    8.91    0.28
   6   0   2   29.31    0.84
   3   4   0    4.26    0.53
   3   0  -1  233.69    1.10
   6  -1   3   85.97    1.00
   5   2   0   17.22    0.79
   6   1   1    1.05    0.73
   5  -1   1    1.62    0.50
   4   1  -1   -1.04    0.60
   4  -1   0  149.09    1.00
   3  -2   1   18.48    0.41
   2   3  -1   10.12    0.46
   5   0   0    0.54    0.60
   4   2  -1  422.45    1.73
   3   3  -1    2.05    0.53
   5   3   0   90.75    1.13
   4   4   0   98.93    1.07
   4   0  -1   95.61    0.93
   4   3  -1   22.20    0.75
   4  -2   1   56.12    0.64
   6   1   0   81.93    1.14
   5   2  -1  112.20    1.21
   5  -1   0   56.39    0.83
   3   2  -2    6.08    0.62
   2   1  -2   27.98    0.56
   2  -1  -1   69.81    0.54
   1   3  -1    0.48    0.29
   6   0   0    9.33    0.72
   6  -1   1   14.79    0.71
   5   4   0   34.64    0.94
   5   0  -1   93.35    0.96
   4   1  -2   15.91    0.69
   2   2  -2    7.39    0.51
   5   3  -1   23.55    0.89
   3   0  -2  175.58    1.00
   3  -2   0  332.83    1.12
   5  -2   1   11.53    0.58
   4   4  -1    1.54    0.62
   4  -2   0   73.10    0.76
   2   0  -2  158.89    0.78
   6   1  -1   38.22    0.97
   3   3  -2   18.28    0.60
   6  -1   0  283.09    1.66
   5   1  -2  339.18    1.75
   5  -1  -1  118.81    1.02
   4   3  -2  193.86    1.40
   6   0  -1   77.79    1.12
   5   0  -2   21.49    0.73
   2   3  -2  301.30    1.19
   2  -2   0   83.50    0.47
   5  -2   0  129.07    1.05
   3  -1  -2    3.41    0.57
   4  -1  -2  379.32    1.60
   3   1  -3   17.89    0.69
   5   3  -2   15.84    0.81
   4   1  -3    1.19    0.66
   3   2  -3  560.01    1.95
   6  -1  -1    0.80    0.66
   4  -2  -1    5.31    0.51
   3  -2  -1   27.79    0.53
   2   1  -3   -0.59    0.54
   2  -1  -2  217.00    0.90
   6   0  -2   11.54    0.82
   5   1  -3   12.75    0.83
   6  -2   0   75.45    1.06
   5   0  -3    3.34    0.67
   5  -2  -1  108.07    1.03
   1   0  -2  309.30    0.84
   4   3  -3   14.85    0.76
   3   3  -3   93.31    0.96
   2   0  -3  508.20    1.47
   4  -1  -3    5.43    0.60
   6  -1  -2  205.76    1.50
   3  -1  -3   88.89    0.77
   2  -2  -1   14.34    0.32
   6   0  -3  132.53    1.33
   6  -2  -1    4.71    0.64
   3   1  -4  227.31    1.28
   3  -2  -2   23.53    0.56
   5  -2  -2    3.35    0.46
   3   0  -4   39.56    0.82
   2   3  -3    0.20    0.38
   5   0  -4   32.51    0.89
   5   2  -4    9.34    0.77
   2  -1  -3  433.20    1.31
   6  -1  -3    0.50    0.71
   4  -1  -4    2.38    0.66
   4   3  -4   75.44    1.06
   4  -2  -3   46.89    0.74
   5  -1  -4  240.25    1.62
   3  -1  -4  147.86    1.00
   2   2  -4    4.77    0.47
   4   1  -5   -0.22    0.74
   3  -2  -3   69.15    0.75
   2  -2  -2  460.62    1.18
   1   2  -3  329.73    0.97
   4   0  -5   33.92    0.86
   1   0  -3   44.99    0.42
   5   0  -5  245.27    1.69
   4   2  -5   88.43    1.16
   3   0  -5  394.30    1.77
   3   2  -5  106.95    1.08
   4  -1  -5   38.91    0.86
   2  -1  -4   10.71    0.54
   5  -1  -5    2.25    0.75
   5  -2  -4  100.41    1.13
   3  -1  -5   11.09    0.66
   2   0  -5   63.31    0.79
   4   0  -6    9.79    0.78
   3  -3  -2   -0.22    0.41
   5   0  -6    0.80    0.70
   4  -3  -3   18.95    0.57
   4   2  -6    9.48    0.76
   3   0  -6    0.17    0.48
   1   0  -4  305.72    1.03
   5  -2  -5   47.39    0.91
   4  -1  -6  134.17    1.29
   2  -1  -5   52.88    0.74
   1   2  -4    0.93    0.33
   3  -1  -6  103.40    0.97
   3  -3  -3  312.54    1.23
   5  -3  -4   48.84    0.84
   4  -3  -4   96.25    0.94
   4   1  -7   89.11    1.19
   4   0  -7   22.68    0.90
   1  -1  -4    2.25    0.27
   5  -2  -3   69.04    0.91
   3  -2  -3   68.76    0.70
   6  -1  -4    4.38    0.51
   4   2  -6    9.74    0.80
   4   1  -6  117.71    1.36
   4  -1  -5   39.07    0.88
   2   0  -5   63.78    0.83
   3   2  -6   21.04    0.83
   3  -1  -5   11.53    0.64
   2  -2  -2  460.36    1.13
   4   0  -6   10.33    0.78
   4  -2  -4    3.35    0.58
   1   0  -4  299.90    1.06
   5   0  -6    0.91    0.70
   3   0  -6    0.13    0.70
   5  -2  -4   94.56    1.00
   3  -2  -4  137.97    0.99
   1  -1  -3  541.58    1.20
   4  -1  -6  131.63    1.33
   2   2  -6    0.63    0.51
   2  -1  -5   52.96    0.75
   2  -2  -3   44.32    0.56
   1   1  -5  122.23    0.86
   2   0  -6   50.68    0.80
   4   2  -7  122.99    1.42
   4   0  -7   23.14    0.92
   4  -2  -5  313.19    1.63
   3  -1  -6  102.68    1.00
   5  -2  -5   45.79    0.91
   1   0  -5  248.84    1.11
   3   0  -7  292.90    1.79
   0   2  -3   10.70    0.25
   0   1  -3  311.05    0.76
   1  -1  -4    2.54    0.29
   4  -1  -7   14.24    0.86
   2  -1  -6  128.96    1.06
   4  -2  -6    0.57    0.72
   3  -3  -2   -0.29    0.29
   2   1  -7   19.34    0.62
   5  -2  -6   -0.74    0.68
   3  -1  -7    0.20    0.53
   2   0  -7   62.60    0.91
   1   1  -6   28.36    0.59
   4   0  -8    2.31    0.77
   4  -3  -4   98.47    0.95
   3  -3  -3  322.68    1.23
   2  -2  -5  247.52    1.24
   1   2  -6    2.86    0.46
   3   1  -8  167.59    1.53
   3   0  -8    0.65    0.78
   1   0  -6    0.70    0.52
   0   1  -4  542.14    1.17
   4  -1  -8  190.56    1.63
   4  -3  -5   54.67    0.87
   3  -3  -4    3.19    0.43
   2  -1  -7    0.02    0.61
   3  -1  -8   16.41    0.68
   3  -2  -7  139.71    1.30
   2   1  -8    0.94    0.66
   2   0  -8   32.05    0.87
   2  -2  -6    6.27    0.55
   1  -2  -2   33.38    0.33
   3  -3  -5   91.34    0.89
   1   1  -7   -0.46    0.48
   1  -1  -6  116.14    0.93
   0   0  -4   18.10    0.38
   4  -3  -6    3.65    0.67
   1   0  -7  342.02    1.51
   3   0  -9    7.05    0.79
   1   2  -7    0.40    0.48
   0   1  -5    2.21    0.36
   2  -1  -8  196.97    1.38
   2  -2  -7   60.09    0.89
   2  -3  -3   19.22    0.42
   3  -2  -8    7.27    0.77
   2  -3  -2    6.06    0.27
   1  -2  -5   20.07    0.56
   0   2  -5  201.78    0.86
   0   0  -5   69.49    0.63
   3  -1  -9   10.63    0.66
   1  -1  -7   73.98    0.77
   4  -3  -7   22.50    0.80
   2  -3  -5  159.07    1.00
   1  -2  -6  484.89    1.64
   0   1  -6   93.79    0.73
   0  -1  -3  800.38    1.27
   2  -2  -8   79.93    1.03
   0  -1  -4  210.64    0.81
   3  -2  -9  166.28    1.55
   1  -1  -8   13.56    0.68
   0  -1  -5  153.30    0.83
   0  -1  -2   27.29    0.24
   3  -3  -8  119.55    1.26
   1  -2  -7    3.32    0.57
   0   2  -6    0.10    0.33
   2  -3  -7  141.47    1.19
   1   0  -9    6.90    0.75
   0   1  -7    0.69    0.43
   2  -2  -9   32.78    0.78
   1   1  -9    5.07    0.64
   0  -1  -6  182.19    0.95
   1  -2  -8   20.82    0.56
   3  -4  -6   44.95    0.86
   1  -3  -5  229.92    1.09
   1  -3  -4   10.12    0.44
   0  -1  -7   71.89    0.71
   0   0  -8    2.66    0.51
   2  -2 -10   25.68    0.75
   1   0 -10    0.37    0.74
   1  -3  -3  276.50    0.91
   0   1  -8   -0.14    0.50
   0  -2  -5    2.32    0.46
   3  -4  -7    8.68    0.69
   0  -1  -8  146.59    1.11
   0  -2  -6   47.42    0.68
   0  -2  -4  338.51    1.05
   2  -4  -5    0.42    0.42
   0  -2  -3   18.28    0.34
   3  -4  -8  158.68    1.35
   2  -4  -6  164.07    1.14
   1  -3  -8   14.23    0.70
   0   0  -9  108.89    1.07
   2  -4  -7   40.83    0.80
   1  -2 -10   16.90    0.81
   0   1  -9   15.50    0.64
   0  -1  -9   92.60    1.08
   1  -3  -2   42.00    0.38
   0  -2  -8  213.22    1.27
   2  -4  -8    1.09    0.62
   1  -3  -9   83.79    1.10
  -1   1  -5  314.22    0.98
  -1   0  -6    3.20    0.46
   0   0 -10   36.03    0.84
  -1   1  -6    0.30    0.35
  -1   1  -4   29.69    0.33
   2  -4  -9   50.76    0.97
   1  -3 -10    3.68    0.74
   0  -3  -6   28.06    0.59
  -1   0  -7  135.37    0.90
  -1  -1  -6   24.35    0.56
   1  -4  -6   96.81    0.88
   0  -3  -7  341.75    1.54
  -1   1  -7  132.28    0.91
  -1  -1  -7  198.34    1.13
  -1  -1  -5    9.38    0.33
   1  -4  -7    0.27    0.55
   1  -4  -5   10.20    0.45
   0  -2 -10   73.71    1.10
   0  -3  -8    6.10    0.62
  -1   0  -8   85.90    0.84
   1  -4  -8  247.85    1.59
   0  -3  -4   42.57    0.55
  -1   0  -3  189.70    0.62
  -1  -1  -8    2.87    0.52
   0  -3  -9   66.29    1.00
  -1   1  -3  223.23    0.58
   1  -4  -9   10.87    0.76
   1  -4  -4   82.83    0.65
  -1   1  -8  388.98    1.54
   0  -2 -11   82.69    1.17
  -1   0  -9   31.24    0.73
  -1  -2  -7    5.39    0.55
  -1  -2  -6  506.12    1.56
  -1  -2  -8   22.07    0.71
  -1  -2  -5   19.76    0.54
  -1  -1  -3  352.18    0.88
   0  -3  -3   23.06    0.39
  -1   0 -10   45.29    0.87
  -1  -1 -10  116.63    1.23
   0  -4  -7    6.27    0.55
  -1  -2  -4  384.10    1.16
   0  -4  -8    3.69    0.64
   0  -4  -6  227.92    1.22
  -1  -2 -10   43.70    0.96
  -1  -1 -11    6.78    0.74
  -1  -3  -8   13.92    0.49
  -1  -3  -6   45.50    0.68
  -1   0 -11   83.49    1.11
  -1  -3  -9  133.62    1.16
  -1  -2 -11   24.94    0.71
  -1  -3  -5  135.65    0.90
  -1  -2  -3  121.01    0.66
  -2   0  -7    6.48    0.45
  -2   0  -6  359.54    1.29
  -2  -1  -6    0.98    0.49
   0  -3  -2   80.26    0.50
   0  -4  -4  177.79    0.91
  -1  -1  -2   24.35    0.28
  -2   0  -8  123.78    0.92
  -2  -1  -9   70.05    0.96
  -2   0  -9   96.56    1.01
  -2   0  -5   37.99    0.55
  -2  -2  -8  298.42    1.59
  -2  -2  -7   24.57    0.67
  -2  -1  -5  611.70    1.60
  -2  -2  -9    1.76    0.68
   0  -5  -8   18.07    0.73
  -2   1  -7   96.55    0.77
  -2  -1 -10    3.40    0.70
  -2  -2  -6    4.86    0.41
   0  -5  -9  215.23    1.58
   0  -5  -7    6.75    0.63
  -1  -4 -10  100.66    1.20
  -1  -4  -6  219.80    1.26
  -2   1  -8    1.06    0.38
  -2   1  -6   41.32    0.52
  -2   0 -10   -0.42    0.65
  -2  -2 -10  134.79    1.32
  -2  -2  -5   27.18    0.63
   0  -5  -6   91.73    0.92
  -2   1  -5   -0.04    0.33
  -2  -1 -11  135.33    1.34
  -2  -1  -4    0.35    0.41
  -2  -3  -9   92.76    1.17
  -2  -3  -7  269.96    1.49
   0  -4  -3  211.83    0.91
  -1  -4  -5  117.87    0.89
  -2  -3 -10    3.34    0.74
  -1  -2  -2   55.60    0.45
  -1  -3  -3  220.16    0.92
  -2  -3  -6    3.22    0.55
  -2  -2  -4  199.44    1.00
  -2  -3  -5   60.60    0.75
  -1  -5  -8   26.89    0.68
  -2  -4  -9   39.54    0.93
  -2  -4  -8    1.67    0.69
  -1  -4  -4  278.56    1.20
  -1  -5  -7  198.57    1.40
  -2  -1  -3  234.50    0.91
  -3  -1  -8    0.67    0.59
  -3  -1  -9  116.79    1.19
  -3  -2  -9    3.90    0.71
  -3  -2  -8   75.16    1.03
  -3   0  -8   58.80    0.83
  -3  -1 -10    5.27    0.72
  -3  -2  -7    0.97    0.61
  -1  -5  -6   13.15    0.62
  -2  -3  -4  211.29    1.13
  -3   0  -9    4.66    0.61
  -3   0  -7   46.48    0.72
  -1  -1  -1  146.20    0.53
  -2  -2  -3   31.93    0.45
  -3  -2  -6  212.69    1.29
  -3  -3  -9  125.58    1.36
  -3  -3  -8   60.29    1.00
  -1  -3  -2   26.20    0.43
  -3   0  -6   57.99    0.63
  -3  -3 -10    3.56    0.76
  -2  -4  -5   21.09    0.63
  -3  -1  -5   14.35    0.59
  -3  -3  -7    2.30    0.49
   0  -4  -2   34.23    0.38
  -1  -4  -3  213.98    1.01
  -1  -5  -5   42.80    0.71
  -2  -5  -8   64.25    1.04
  -3  -2  -5    1.22    0.56
  -3   0  -5   -0.40    0.44
  -3  -3  -6  120.95    1.13
  -2   1  -3  485.23    1.04
  -2  -5  -7    1.19    0.69
  -3  -4  -9    6.21    0.73
  -2  -1  -2   87.99    0.62
  -3  -4  -8  135.60    1.28
  -2  -4  -4   57.03    0.74
  -3   1  -6    3.46    0.50
  -3  -1  -4   67.92    0.76
  -3  -3  -5  139.43    1.13
  -3  -4  -7   24.55    0.86
  -2   0  -2  569.30    1.19
  -2  -5  -6  187.78    1.39
  -3  -2  -4   82.96    0.88
  -1  -5  -4   91.03    0.84
  -2  -2  -2  367.40    1.18
  -3   0  -4  273.65    1.17
  -3  -4  -6    4.62    0.50
  -4  -1  -9   94.33    1.20
  -4  -1  -8   30.89    0.84
  -4  -2  -9    0.63    0.54
  -3   1  -5  405.88    1.35
  -4  -1  -7   27.32    0.78
  -4  -2  -7   40.98    0.93
  -4  -3  -9   26.20    0.94
  -2  -5  -5    0.59    0.58
  -4  -3  -8   20.48    0.87
  -3  -1  -3  133.51    0.94
  -4  -1  -6   27.12    0.78
  -4  -2  -6   -0.02    0.62
  -4  -3  -7  145.23    1.40
  -1  -4  -2  110.17    0.73
  -2  -4  -3  224.18    1.19
  -3  -2  -3  313.04    1.39
  -4   0  -8  226.27    1.49
  -3  -5  -7   47.67    0.88
  -4   0  -7    2.03    0.62
  -4  -3  -6   82.50    1.11
  -4   0  -6  184.24    1.26
  -4  -2  -5  172.60    1.32
  -2  -5  -4   30.09    0.71
  -3  -3  -3   31.27    0.71
  -3  -5  -6    4.52    0.54
  -4  -4  -7   61.97    1.12
  -2  -1  -1    0.12    0.38
  -4  -3  -5   23.81    0.81
  -2   1  -2   19.83    0.31
  -2  -2  -1  377.33    1.20
  -4   0  -5    1.14    0.50
  -4  -4  -6    3.66    0.79
  -2  -3   4  162.68    0.93
  -5   2   4  100.60    1.15
  -2  -1   5    5.78    0.50
  -3   2   4  139.24    0.97
  -3   1   5   11.57    0.47
  -2   2   3   43.00    0.51
  -2   0   5   66.39    0.77
  -4  -1   6  114.34    1.20
  -4  -3   5  147.82    1.21
  -1  -3   3   18.90    0.35
  -2  -2   5  262.43    1.22
  -3  -3   5   12.30    0.57
  -4   0   6   10.71    0.71
  -1   1   3  524.35    1.11
  -1   0   4  298.80    0.99
  -3   3   2    0.28    0.36
  -3   0   6    0.06    0.61
  -3  -1   6   87.36    1.01
  -5   0   6    0.51    0.62
  -5  -1   6   37.15    0.72
  -1  -2   4    0.28    0.34
  -4   2   5  319.08    1.66
  -2   1   5   53.81    0.71
  -3  -2   6   21.01    0.71
  -4   1   6  134.97    1.27
  -5   2   5   46.53    0.93
  -2   2   4  110.48    0.78
  -3   2   5   39.20    0.59
  -3   1   6  108.55    0.97
  -2  -3   5   50.70    0.64
  -4   3   4   96.88    0.93
  -4  -1   7   92.70    1.12
  -1   1   4    2.45    0.26
  -3   0   7  311.49    1.68
  -4   2   6   -0.07    0.64
  -1   0   5  249.87    0.98
  -3  -3   6  113.53    1.01
  -4   1   7   15.52    0.78
  -4  -2   7  122.09    1.18
  -5   2   6   -0.69    0.70
  -2   1   6  137.22    0.93
  -1  -2   5  279.17    1.07
  -3   3   4    2.75    0.44
  -3   1   7    1.09    0.61
  -3  -2   7    6.38    0.62
  -1   2   2   31.65    0.29
  -4   3   5   54.15    0.87
  -1   1   5   31.17    0.55
  -2   0   7   69.94    0.88
  -4   2   7   35.06    0.85
  -1   2   3   59.42    0.44
  -1   0   6    0.05    0.48
  -2   3   2    6.14    0.24
  -2  -3   6    0.62    0.46
  -3   3   5   90.68    0.89
  -3   0   8    0.77    0.70
  -2   3   3   19.78    0.42
  -2   1   7    0.50    0.59
  -2  -2   7  227.14    1.32
   0   0   3   75.58    0.43
  -3   1   8   15.83    0.74
  -4   3   6    3.30    0.67
   0  -2   3   10.91    0.22
  -1  -2   6    2.86    0.40
  -1   1   6  115.50    0.79
  -2   0   8   38.51    0.70
  -2  -1   8    1.05    0.62
  -3   3   6   66.16    0.87
   0   0   4   17.89    0.29
  -1   0   7  349.42    1.47
  -1  -1   7    0.56    0.44
  -2   2   7   60.15    0.85
  -2   3   5  154.89    0.94
  -2   1   8  213.23    1.31
  -4   3   7   23.55    0.80
   0  -2   4   34.96    0.37
  -2  -2   8    9.94    0.60
  -1   1   7   75.06    0.72
  -3   3   7   11.87    0.70
   0   0   5   69.26    0.52
  -1   2   6  487.51    1.56
   0   1   3  782.73    1.19
  -2   2   8   84.47    1.01
  -2   0   9  174.63    1.38
   0   1   4  205.53    0.76
  -1   0   8   34.65    0.62
  -1  -1   8  441.74    1.75
  -2   1   9    0.87    0.63
  -2  -1   9   35.76    0.81
   0   0   6  481.36    1.41
   0  -2   5  200.96    0.81
   0   1   5  148.56    0.78
   0  -1   6   94.07    0.64
  -1   1   8   13.62    0.49
  -2   3   7  142.99    1.12
  -3   3   8  122.20    1.26
  -1  -2   8   10.46    0.53
  -2   2   9   33.02    0.87
  -2  -2   9   32.31    0.74
   0   1   6  184.53    0.90
  -1   0   9    6.97    0.67
  -2   0  10    2.49    0.67
   0   0   7   41.17    0.54
   0  -1   7    0.60    0.40
   0  -2   6    0.01    0.34
  -2   3   8   25.78    0.76
  -1   3   5  226.40    1.02
  -1   1   9   32.25    0.67
   0   1   7   71.83    0.76
  -1   3   3  280.04    0.85
  -1   3   6   33.55    0.59
   0   2   5    2.10    0.43
   0   0   8    2.35    0.49
  -1   3   7   10.41    0.51
  -1   2   9  253.80    1.56
   0   2   6   47.55    0.62
   0   1   8  152.01    1.08
   0  -2   7  281.44    1.20
  -1  -2   9  133.70    1.12
  -2   3   9    5.62    0.69
   0   2   7   13.62    0.55
  -1   3   8   12.81    0.63
  -1  -1  10   76.03    0.90
  -1   3   2   41.27    0.30
   0   2   8  219.64    1.23
   0  -2   8    0.39    0.46
  -1   3   9   86.24    1.08
  -2   4   8    0.78    0.58
   1  -1   5  312.41    0.99
   1   0   4  512.21    1.10
   1  -1   4   29.08    0.36
   1  -1   6    0.48    0.37
   0   2   9    4.58    0.59
   1   0   7  134.02    0.89
   0   3   6   29.20    0.54
   0   2   2  984.24    1.21
  -1   3  10    4.11    0.68
  -2   4   9   47.52    0.93
   1   1   7  197.52    1.10
   1  -1   7  134.03    0.87
   0   3   5   81.75    0.69
   0   3   7  339.99    1.47
   0  -1  10  150.37    1.24
   0   2  10   71.36    1.05
  -1   4   6   94.22    0.84
  -1   4   7    0.48    0.50
   1   1   4    6.10    0.26
   1   1   8    3.45    0.51
   1   0   3  187.15    0.60
   1  -1   3  218.74    0.61
  -1   4   5   10.28    0.43
  -1   4   8  244.27    1.48
   1  -1   8  401.89    1.55
   0   3   4   42.24    0.50
   0   1  11   15.28    0.73
   1  -2   5  408.00    1.06
   1  -2   6   72.96    0.58
   1   2   6  508.96    1.56
   1   2   7    4.92    0.52
   1   1   9  189.79    1.29
   1  -2   4    1.29    0.24
  -1   4   9   12.66    0.71
   1   2   8   22.05    0.67
   1  -1   9   48.72    0.76
   1  -2   7    0.69    0.35
   1   1   3  361.20    0.90
   1   2   9   27.17    0.76
   1   1  10  123.33    1.20
   1   2   4  391.63    1.11
   1  -1  10   60.64    0.87
   0   3   3   25.23    0.37
   1   1  11    7.46    0.68
   1   0   2  307.93    0.68
   0   4   8    3.39    0.61
   1   0  11   86.50    1.08
   1  -2   3    1.18    0.17
   0   4   6  228.88    1.20
   0   4   9    0.72    0.65
   1   3   9  130.09    1.21
   0   4  10  138.99    1.34
   2   1   8   28.11    0.69
   1   3  10   20.46    0.76
   2   1   6    0.87    0.49
   2   1   9   68.92    0.94
   1   2   3  120.61    0.63
   2   0   5   37.91    0.57
   2  -1   6   42.64    0.55
   2  -1   7   95.13    0.78
   1   1   2   24.51    0.33
   2   2   8  301.68    1.58
   2   1   5  594.97    1.59
   2   1  10    4.18    0.66
   2   2   9    2.24    0.63
   2   0  10   -0.59    0.62
   2  -1   9   35.29    0.71
   2   0   4   81.60    0.61
   1   4   8  178.85    1.32
   1   4   9   10.93    0.72
   0   4   4  183.13    0.90
   2   0  11   71.15    1.01
   2  -1  10   86.08    0.98
   1   4   7   60.73    0.83
   1   4  10   98.27    1.17
   2   2   5   27.57    0.60
   2   1   4    0.54    0.28
   0   3   2   82.59    0.46
   2   3   7  271.97    1.46
   2   3   9   96.96    1.03
   2  -1   4   49.65    0.48
   1   4   6  213.45    1.22
   2   3  10    3.52    0.56
   2   2   4  200.27    1.00
   2   0   3    3.71    0.35
   1   4   5  121.63    0.90
   3   1   7  341.02    1.57
   3   1   8    0.92    0.43
   3   1   9  116.54    1.17
   3   0   8   58.77    0.82
   3   2   9    3.52    0.66
   3   0   7   44.79    0.62
   3   0   9    4.06    0.49
   2   1   3  235.15    0.86
   3   2   8   75.13    0.89
   3   0  10  183.65    1.41
   2   4   8    2.31    0.69
   2   4   9   36.88    0.78
   2   4  10  116.32    1.28
   3  -1   7  123.87    0.94
   3  -1   8   22.11    0.63
   3   3   9  125.89    1.32
   3   2   6  216.48    1.29
   3  -1   9   34.56    0.72
   2  -2   4  232.76    0.77
   3   3  10    4.58    0.73
   3   1   5   14.20    0.47
   3  -1   6    3.30    0.42
   2   2   3   33.22    0.55
   1   4   4  290.90    1.20
   2   4   6   75.33    0.82
   3   2   5    1.32    0.54
   3  -1   5  402.39    1.34
   3   3   6  124.62    1.12
   3   1   4   64.48    0.75
   2   0   2  548.51    1.17
   2   4   5   21.33    0.62
   2   1   2   90.08    0.62
   4   1   8   30.99    0.80
   3   4   9    5.69    0.53
   4   2   9    0.77    0.72
   3   4   8  131.88    1.22
   1   3   2   27.59    0.42
   4   2   8   56.72    0.87
   4   0   8  230.12    1.47
   4   0   9   35.89    0.82
   3   2   4   85.64    0.77
   4   2   7   36.91    0.86
   4   0   7    1.10    0.57
   3  -1   4    1.48    0.40
   2   3   3    1.26    0.50
   4   1   6   25.98    0.73
   2   2   2  383.05    1.21
   2  -2   3   46.04    0.36
   1   4   3  215.83    0.99
   4   3   8   20.06    0.86
   3   1   3  133.90    0.93
   1   2   1   28.11    0.34
   4   2   6    0.20    0.44
   4  -1   8    7.68    0.62
   3   4   6    5.41    0.70
   3   0   3   23.16    0.44
   2   4   4   57.57    0.75
   4   3   7  144.72    1.37
   4  -1   7  206.39    1.26
   4   1   5  238.90    1.29
   3   2   3  314.91    1.36
   4   2   5  170.82    1.27
   4   3   6   82.99    1.08
   4  -1   6    2.71    0.52
   3   4   5  358.76    1.76
   3  -1   3  190.78    0.89
   4   4   8   13.99    0.75
   4   4   7   61.81    1.07
   4  -1   5   21.10    0.54
   2   3   2   55.02    0.67
   2   1   1    0.05    0.28
   2   0   1  151.47    0.67
   5   2   8   28.14    0.73
   4   3   5   23.46    0.66
   3  -2  -7  145.44    1.19
   1  -1 -10  171.36    1.25
   0  -1  -9   93.32    0.87
   2  -2  -8   82.29    1.00
   1  -2  -6  497.49    1.58
   1  -2  -5   21.89    0.55
   3  -2  -8    6.58    0.65
   1  -2  -7    3.38    0.38
   4  -2  -4    2.64    0.46
   2  -1   0  121.16    0.42
   1  -2  -4  243.98    0.96
   0  -1  -2   27.97    0.27
   4  -2  -7   31.97    0.66
   0  -1 -10   16.25    0.57
  -1  -1  -7  189.86    0.82
  -1  -1  -6   22.98    0.37
   4  -2  -8    7.66    0.61
   4  -2  -3   45.59    0.58
   1  -2  -9  258.38    1.47
  -1  -1  -8    2.51    0.38
   3  -2  -2   22.38    0.42
   1  -2  -3   63.28    0.51
   0  -2  -7   14.70    0.44
   5  -2  -6    0.14    0.53
   5  -2  -5   46.24    0.74
   2  -2  -2  470.61    1.14
   1  -2 -10   16.82    0.72
   0  -2  -8  209.64    1.10
   4  -2  -2  200.02    0.93
  -1  -1  -4    6.01    0.19
   0  -2  -9    4.18    0.45
   5  -2  -3   67.66    0.72
   3  -3  -7   10.85    0.64
   3  -3  -6   68.00    0.84
   2  -3  -7  144.76    1.12
   2  -3  -6   11.50    0.59
   0  -2  -4  336.88    0.96
   3  -3  -8  121.59    1.16
   3  -3  -5   87.83    0.86
   2  -3  -8   23.28    0.75
   2  -3  -5  153.98    0.98
   4  -3  -6    3.52    0.57
   3  -2  -1   27.93    0.39
   2  -3  -9    5.58    0.67
   1  -2  -2   35.25    0.38
   0  -2 -10   69.34    0.82
   4  -3  -5   54.30    0.75
   1  -3  -7    9.19    0.54
   1  -3  -6   34.24    0.61
   2  -3  -4    4.05    0.32
   4  -3  -4   95.46    0.86
   1  -3  -9   81.32    0.98
   1  -3  -5  228.05    1.07
   0  -2  -3   17.75    0.33
   1  -3 -10    3.44    0.58
  -1  -2  -7    5.52    0.33
   5  -3  -5   26.78    0.61
   1  -3  -4   10.15    0.49
  -1  -1  -3  352.96    0.63
  -1  -2  -6  496.08    1.21
   4  -3  -3   19.04    0.49
   3  -1   1   54.85    0.27
   0  -3  -8    5.64    0.43
   0  -3  -7  341.97    1.33
   0  -3  -9   64.53    0.78
  -1  -2  -5   18.58    0.34
   3  -3  -2    0.24    0.33
   3  -4  -8  156.88    1.24
   3  -4  -7    9.33    0.63
   3  -4  -6   43.58    0.78
   2  -4  -8    0.56    0.59
   2  -4  -7   40.69    0.75
   0  -3  -5   84.35    0.66
   2  -4  -9   48.47    0.84
   2  -4  -6  169.03    1.15
   1  -2  -1  128.63    0.52
   1  -3  -3  285.17    1.02
   0  -3 -10   39.61    0.71
   4  -3  -2   28.15    0.47
   4  -4  -6   82.53    0.92
   3  -2   0  329.61    0.85
   2  -4  -5    0.09    0.47
   1  -4  -8  242.19    1.39
   1  -4  -7   -0.31    0.50
   4  -4  -5    2.56    0.50
   0  -2  -2  982.64    1.29
   0  -3  -4   41.61    0.52
  -1  -2  -4  385.92    0.89
   2  -4  -4  283.98    1.25
   1  -4  -5   10.58    0.49
   4  -4  -4  146.27    1.03
  -1  -3  -8   13.41    0.44
   3  -3  -1   56.61    0.53
   1  -3  -2   40.40    0.41
  -1  -3  -7    2.79    0.35
   3  -4  -3    0.78    0.42
   0  -4  -9    0.81    0.50
   0  -4  -8    3.17    0.46
  -1  -3  -6   44.69    0.51
   4  -3  -1  228.98    0.95
   2  -3  -1  549.03    1.25
   2  -4  -3    8.42    0.42
   1  -4  -4   84.38    0.74
   4  -4  -3   10.90    0.48
   0  -4 -10  134.40    1.09
   0  -4  -6  224.10    1.07
   2  -5  -7   39.90    0.77
   2  -5  -6   30.36    0.69
   0  -4  -5   14.93    0.48
  -1  -3  -5  135.17    0.71
   3  -4  -2  319.74    1.22
   1  -5  -8    0.10    0.55
   2  -5  -5   72.72    0.88
   1  -4  -3   47.55    0.52
   1  -5  -7  153.83    1.20
   4  -4  -2   50.20    0.61
   1  -2   0  650.37    0.98
   1  -5  -6    5.85    0.56
   0  -2  -1  209.85    0.60
   1  -3  -1   66.45    0.51
   0  -4  -4  180.19    0.94
   3  -3   0    3.14    0.28
   3  -5  -4   -0.07    0.47
   0  -3  -2   77.63    0.54
  -2  -2  -6    4.49    0.22
   2  -5  -4    3.85    0.38
   1  -5  -5  241.64    1.23
  -1  -4  -7   59.76    0.60
   4  -5  -4    0.67    0.44
   0  -5  -9  216.03    1.35
   0  -5  -8   17.27    0.60
  -1  -4  -6  214.70    1.01
   2  -3   0    1.77    0.31
   1  -4  -2  368.57    1.21
   3  -4  -1    1.21    0.34
   3  -5  -3    3.04    0.47
   1  -5  -4   20.89    0.55
   0  -4  -3  217.14    0.98
   0  -5  -6   93.52    0.91
   2  -4  -1   58.42    0.56
  -1  -4  -5  116.43    0.76
  -2  -2  -5   26.47    0.29
   4  -5  -3  163.07    1.07
   2  -2   1   81.36    0.38
  -1  -2  -2   57.32    0.36
  -1  -3  -3  219.95    0.82
   0  -5  -5    4.95    0.36
   1  -5  -3    7.05    0.46
  -2  -3  -6    3.36    0.28
   3  -5  -2   16.74    0.54
   2  -6  -5   42.73    0.73
   0  -3  -1  214.29    0.77
   2  -5  -2   36.38    0.61
   1  -3   0   91.27    0.50
   1  -4  -1   11.12    0.42
   1  -6  -6   46.11    0.69
   0  -5  -4   40.24    0.64
  -1  -5  -8   26.45    0.61
   0  -4  -2   34.99    0.46
  -1  -5  -7  190.54    1.13
   1  -6  -5    5.99    0.58
  -1  -5  -6   13.49    0.50
  -2  -2  -4  193.37    0.61
  -2  -3  -5   58.08    0.49
   3  -4   0   95.83    0.67
   3  -3   1  161.69    0.66
   2  -4   0   47.93    0.51
   1  -5  -2  185.95    1.03
   0  -2   0   38.87    0.29
  -1  -3  -2   26.62    0.41
   1  -6  -4   84.67    0.94
   0  -5  -3   92.72    0.75
   0  -6  -6   98.97    0.89
  -1  -4  -3  208.66    0.94
   3  -5  -1  108.42    0.85
   3  -6  -3    4.15    0.50
   2  -3   1  170.90    0.69
   2  -6  -3   91.79    0.95
   2  -5  -1   52.07    0.58
   0  -6  -5  263.47    1.45
  -2  -3  -4  210.40    0.79
   0  -4  -1   69.35    0.63
   1  -6  -3   40.94    0.74
  -1  -2  -1   27.04    0.30
  -1  -5  -4   90.32    0.74
  -2  -4  -5   21.01    0.46
   1  -5  -1   88.34    0.77
   0  -5  -2   82.37    0.75
   0  -6  -4   10.79    0.58
  -1  -6  -7  110.26    0.98
   3  -6  -2   54.82    0.76
   2  -6  -2   52.79    0.73
  -1  -4  -2  112.60    0.74
  -2  -2  -3   32.49    0.30
  -2  -5  -7    0.67    0.42
  -1  -5  -3    3.72    0.45
  -2  -3  -3    1.33    0.34
  -2  -4  -4   55.67    0.56
   3  -5   0    3.27    0.42
   2  -4   1   21.53    0.42
   2  -5   0  178.48    0.99
   1  -6  -2   10.99    0.56
   0  -6  -3   59.97    0.78
   0  -4   0   79.12    0.66
   0  -5  -1    7.19    0.49
  -2  -5  -5    0.59    0.42
   3  -6  -1  105.94    0.92
   2  -6  -1    4.63    0.51
  -1  -6  -4   17.08    0.62
   2  -2   2  108.20    0.42
   1  -4   1  297.61    1.05
  -1  -4  -1  136.79    0.81
  -1  -5  -2  331.12    1.35
   0  -6  -2   12.28    0.57
   0  -3   1   49.84    0.48
  -1  -6  -3  137.12    1.08
  -2  -2  -2  368.65    0.83
  -2  -3  -2   51.48    0.44
  -1  -2   0  510.64    0.98
  -1  -3   0  940.42    1.61
  -2  -6  -6   11.60    0.56
   2  -5   1   20.33    0.49
   0  -5   0  258.51    1.19
   2  -6   0   41.99    0.69
   0  -6  -1   13.55    0.61
  -1  -5  -1    1.71    0.48
  -2  -5  -3    0.49    0.46
  -2  -6  -5  174.11    1.14
   1  -2   2  580.99    0.96
   1  -5   1   19.15    0.50
   0  -4   1    2.19    0.39
  -1  -4   0   64.07    0.65
   2  -4   2  184.90    0.86
   1  -6   0    6.09    0.51
  -1  -6  -2    0.29    0.38
  -2  -6  -4    0.19    0.51
  -3  -3  -4    0.79    0.28
   0  -5   1   19.06    0.55
   0  -6   0   19.75    0.65
  -1  -1   0   36.06    0.27
  -1  -5   0    0.52    0.48
  -2  -4  -1  157.88    0.88
   2  -6   1   97.82    0.91
  -1  -6  -1  232.79    1.27
   2  -5   2   53.42    0.64
   0  -3   2  411.69    1.12
   1  -6   1   24.66    0.63
  -1  -4   1  342.74    1.25
  -3  -3  -3   31.09    0.47
  -3  -5  -4  189.13    1.09
   1  -5   2  143.23    0.96
   0  -2   2  234.74    0.72
   0  -4   2   10.23    0.43
  -1  -2   1   10.52    0.32
  -2  -5  -1    4.88    0.38
   2  -3   3   20.07    0.35
  -1  -6   0    5.45    0.57
  -2  -3   0    2.30    0.43
  -2  -4   0    0.95    0.43
  -3  -5  -3   -0.35    0.48
   2  -4   3  135.17    0.82
  -1  -5   1   33.51    0.61
   1  -3   3   92.57    0.60
  -3  -4  -2    2.60    0.38
   1  -4   3  165.99    0.88
  -2  -5   0  294.43    1.38
  -2  -6  -1    0.66    0.57
  -3  -3  -2  362.66    1.12
   2  -2   3   48.26    0.35
   1  -6   2   31.09    0.66
  -2  -2   0    8.63    0.25
  -3  -5  -2  126.28    0.97
  -1  -4   2   43.28    0.63
  -3  -6  -3  102.92    0.96
  -1  -6   1    2.96    0.57
   1  -5   3   -0.17    0.45
   0  -6   2    5.50    0.55
  -2  -3   1   10.47    0.47
  -2  -4   1    1.72    0.46
  -3  -4  -1   97.27    0.77
  -1  -5   2  138.47    1.02
  -2  -1  -1   -0.02    0.17
  -2  -6   0   15.93    0.65
  -3  -3  -1   23.64    0.45
  -1  -2   2  201.82    0.78
  -2  -5   1    2.05    0.50
  -3  -5  -1   40.18    0.70
  -3  -6  -2    2.51    0.52
   0  -5   3    8.94    0.56
  -2  -2   1  346.77    1.03
   1  -4   4    5.61    0.40
  -2  -6   1   92.85    1.00
   1  -3   4  120.38    0.72
  -1  -3   3   18.70    0.41
  -2  -4   2   12.09    0.42
  -3  -3   0  304.90    1.14
   0  -6   3   95.32    0.88
  -1  -5   3   17.17    0.62
  -2  -3   2  319.30    1.17
  -2  -5   2  118.54    1.03
   0   1   5  149.90    0.42
   0   0   4   18.48    0.20
  -1  -2   1    9.82    0.14
  -2   2   9   34.99    0.44
  -2  -1   7   21.25    0.38
  -3  -2   6   21.97    0.42
  -1   2   8   21.11    0.31
  -4  -3   4   72.18    0.56
  -2   1   9    0.65    0.29
  -3  -1   8  174.62    0.90
   0   2   6   46.83    0.26
  -1  -1   6   30.39    0.37
  -3  -3   4   84.10    0.55
   0   1   6  183.12    0.53
   0   0   5   69.47    0.35
  -2  -2   6    0.53    0.29
  -2  -3   1   10.08    0.20
  -1  -2   4    0.79    0.25
  -2  -3   2  307.95    0.72
  -3  -2   7    5.55    0.36
  -4  -3   5  143.66    0.76
  -2  -1   8    0.61    0.33
  -2  -3   0    2.04    0.12
  -2  -3   3   -0.25    0.20
  -3  -3   5   11.98    0.33
  -1  -1   7    0.07    0.18
  -1  -2   5  281.85    0.80
   0   2   7   13.81    0.22
   0   1   7   70.09    0.38
   0  -1   4  534.23    0.81
  -1   1   9   33.71    0.39
  -2   1  10   49.69    0.54
  -2  -2   7  235.18    0.93
  -2  -3   4  162.71    0.62
   0  -1   5    2.26    0.17
  -1  -1   8  439.04    1.19
  -1  -2   6    3.11    0.20
  -2   0  10    3.48    0.33
  -2  -1   9   33.62    0.43
  -2  -2   8    9.54    0.30
   0   1   8  149.11    0.58
   0  -1   6   97.77    0.46
  -1  -2   7    0.57    0.28
  -3  -3   7   67.53    0.58
  -1   1  10  177.08    0.79
  -3  -4   3   45.09    0.40
   0   0   8    2.23    0.23
  -1  -3   2    6.21    0.21
  -3  -4   4   52.81    0.46
  -1   0  10    2.04    0.30
  -1  -1   9    4.63    0.25
  -2  -3   7   67.43    0.57
  -2  -2   9   31.34    0.46
   0   1   9   96.75    0.53
   0  -2   5  195.03    0.65
  -1  -2   8    9.93    0.30
  -1  -3   1    0.63    0.15
  -3  -4   5    8.25    0.31
   0  -2   2  230.67    0.48
  -1  -3   6  306.09    0.97
  -2  -4   3  203.50    0.70
   0   0   9  106.87    0.61
   0  -1   8   -0.16    0.26
   0  -2   6   -0.03    0.25
  -2  -4   2   12.76    0.23
  -2  -4   4    3.47    0.26
  -1  -3   7   45.08    0.48
  -2  -4   5  201.05    0.82
   0  -2   7  287.43    0.90
   1   0   6    2.85    0.21
   0   1  10   15.99    0.32
  -2  -4   6   47.18    0.48
   1   1   5    9.45    0.14
   1   1   6   23.47    0.22
  -1  -3   0  902.96    0.82
   1   1   7  200.49    0.57
   1   0   7  136.00    0.53
   0  -2   8    1.43    0.21
  -1  -3   8    9.44    0.29
   1   1   4    6.37    0.12
   1  -1   5  308.42    0.70
   1  -1   6    0.65    0.23
   0  -3   4  252.70    0.73
   0  -3   5   14.93    0.29
   1  -1   4   29.60    0.22
   0  -1  10  153.82    0.80
   0  -3   6    5.75    0.28
  -1  -4   3  125.74    0.54
  -1  -4   4   77.18    0.46
  -1  -4   5   12.57    0.32
   1   1   8    3.42    0.19
   1   0   3  188.18    0.37
   1   0   8   86.46    0.48
   1  -1   7  133.60    0.58
   0  -2   9  101.48    0.69
   0  -3   7    2.66    0.30
  -1  -4   2   45.70    0.32
  -1  -4   6    2.68    0.29
   1  -1   3  221.24    0.48
   0  -3   2  414.61    0.75
   1   0   9   32.13    0.37
   1  -2   5  425.72    0.92
   1  -2   6   74.72    0.48
  -1  -4   7   97.89    0.67
   1   1   9  182.52    0.66
   0  -2  10   30.44    0.45
   0  -3   8  176.02    0.85
   1  -1   9   49.14    0.48
   1  -2   7    0.28    0.20
  -1  -4   1  347.13    0.70
   1   0  10   45.83    0.46
   1  -2   3    0.78    0.19
   1  -2   8   26.06    0.35
   0  -3   9   -0.28    0.28
   0  -4   4    0.86    0.21
   0  -4   5  264.00    0.90
   1  -1   2  248.15    0.44
   1  -1  10   62.43    0.55
   1  -2   9   73.32    0.59
   1  -3   5   39.91    0.34
   1  -3   6  243.58    0.83
   0  -4   3  175.76    0.63
   1  -3   4  121.46    0.54
   1  -3   7    7.38    0.26
   1  -2   2  570.72    0.79
   1  -3   8   38.06    0.48
  -1  -5   4   88.79    0.55
  -1  -5   5   54.54    0.49
   1  -3   3   96.02    0.46
   0  -4   2   12.24    0.23
   2   0   6  350.81    0.76
   2   0   7    5.78    0.17
   2   0   8  124.47    0.56
   2  -1   8    1.03    0.26
   2  -1   5    0.06    0.23
   2   0   5   37.21    0.29
   2   0   9   96.44    0.55
   2  -1   9   36.21    0.44
   2  -2   6    8.55    0.28
   2  -2   7  246.65    0.87
   1  -4   6    0.94    0.29
   2  -2   5  142.67    0.59
   2  -2   8   -0.09    0.30
   1  -4   7  208.97    0.93
   0  -5   5   61.55    0.53
   2  -1   4   48.47    0.34
   0  -3   0    0.51    0.11
   0  -4   1    2.33    0.18
   0  -5   4   49.42    0.45
   0  -5   6  130.91    0.73
   2   0  10    0.00    0.24
   2  -1  10   87.36    0.62
   2  -2   4  234.77    0.69
   2   1   6    0.50    0.15
   2  -3   6    4.05    0.28
   2  -3   7    7.23    0.33
   1  -2   1  150.35    0.40
   1  -4   3  170.47    0.64
   0  -5   3    9.62    0.27
   2   0   4   83.83    0.34
   2  -3   5  139.67    0.65
   2  -3   8  161.49    0.84
   2  -1   3  476.64    0.78
   1  -3   1  147.98    0.47
   0  -5   2  261.80    0.78
   2   1   5  594.91    0.78
   1  -4   2   20.73    0.29
   1  -5   6    1.12    0.29
   2  -4   6    1.41    0.32
   2  -4   7   57.60    0.57
   1  -5   5   17.84    0.31
   2  -3   3   19.19    0.26
   2  -4   5  240.67    0.91
   1  -5   4  194.79    0.82
   3  -1   7  119.35    0.61
   3  -1   8   21.66    0.37
   0  -4   0   82.56    0.36
   3  -1   9   36.19    0.43
   3  -2   6  116.42    0.62
   3  -2   7   23.09    0.40
   3   0   8   58.72    0.44
   1  -5   3   -0.22    0.25
   3   0   9    4.55    0.25
   3  -2   5   53.81    0.43
   2  -1   2   18.53    0.22
   1  -4   1  295.01    0.73
   3  -3   6   89.12    0.61
   3  -3   7   22.61    0.37
   3  -3   8   30.88    0.48
   3   0   6   58.01    0.38
   3  -3   5   42.96    0.45
   2   1   4    0.78    0.11
   3  -2   4   63.39    0.45
   2  -5   5    0.51    0.29
   1  -2   0  646.00    0.75
   1  -5   2  143.84    0.63
   3   0   5   -0.17    0.22
   3  -1   4    1.30    0.18
   3  -3   4    8.83    0.32
   3  -4   7  172.15    0.87
   2  -4   2  181.25    0.67
   2  -5   4    2.15    0.30
   3  -4   6   29.52    0.41
   0  -3  -1  220.23    0.39
   3  -4   5    6.28    0.34
   2  -2   1   78.59    0.38
   3  -2   3   21.33    0.28
   2  -5   3   33.95    0.42
   3  -3   3  264.54    0.81
   3  -4   4   84.13    0.59
   2   0   2  562.15    0.72
   1  -4   0  118.45    0.46
   1  -5   1   19.00    0.29
   3  -1   3  190.31    0.62
   1  -1   0    5.60    0.10
   4  -1   7  197.65    0.80
   4  -1   8    8.15    0.32
   4  -1   9   53.53    0.51
   3  -4   3  137.14    0.69
   2  -1   1  613.94    0.81
   2  -4   1   21.07    0.29
   4  -3   6    0.32    0.33
   4  -2   5   29.89    0.36
   4  -3   5  156.78    0.77
   3  -2   2  289.43    0.75
   3  -3   2    2.00    0.20
   3  -5   4  106.03    0.67
   4  -1   5   18.54    0.27
   6   1   2  315.12    1.04
   6   0   4    1.58    0.34
   5  -1   4   31.11    0.43
   5  -1   7   85.92    0.64
   4   0   0   51.57    0.38
   5   0   1  223.75    0.80
   5   1   0  139.76    0.61
   5  -1   8    0.18    0.28
   4   1  -1   -0.06    0.17
   4  -1   1  356.69    0.92
   3   0  -1  232.85    0.58
   3  -2   4   63.50    0.43
   3  -2   5   54.84    0.41
   2  -2   5  141.58    0.51
   3  -2   6  115.46    0.57
   2  -2   4  235.81    0.64
   5  -1   2   53.66    0.48
   3  -1   0   13.66    0.27
   2  -1   0  123.31    0.39
   2  -2   6    7.78    0.20
   6   1   1    0.19    0.26
   6   0   2   30.36    0.44
   4  -2   5   31.07    0.36
   4  -2   6   43.10    0.44
   2  -2   3   45.46    0.30
   5   0   0    0.58    0.22
   6  -1   4   90.26    0.66
   4   0  -1   95.80    0.46
   4  -2   3   25.13    0.36
   4  -2   7   97.84    0.60
   3  -2   2  291.53    0.80
   4  -1   0  151.98    0.62
   3   1  -2  220.33    0.49
   6   0   1    5.85    0.30
   6  -1   3   90.31    0.61
   5  -2   6   71.60    0.57
   4  -2   2   28.47    0.38
   5   1  -1    0.48    0.21
   5  -2   4    8.31    0.28
   1  -2   4    1.39    0.12
   5  -2   3    1.41    0.28
   5  -2   7   19.54    0.38
   3  -2   1   18.68    0.33
   6  -1   2    7.87    0.28
   1  -2   3    0.87    0.12
   4  -2   1   56.79    0.47
   3  -1  -1  356.92    0.78
   2  -2   1   80.23    0.38
   5   0  -1   92.86    0.50
   5  -2   2  245.03    0.89
   3   0  -2  172.42    0.49
   2  -1  -1   67.50    0.29
   1  -2   2  594.63    0.73
   6  -2   3   21.10    0.40
   5  -2   1   11.04    0.34
   3  -2   0  334.88    0.81
   4   0  -2   61.40    0.37
   4  -2   0   72.58    0.50
   4  -3   4   25.60    0.37
   4  -3   5  159.77    0.73
   3  -3   4    9.29    0.25
   2   0  -2  156.97    0.37
   6  -2   2   22.75    0.43
   3  -3   3  273.75    0.82
   3  -3   5   41.71    0.38
   6  -1   0  273.72    0.97
   5  -1  -1  118.96    0.60
   4  -3   6    0.70    0.25
   2  -2   0   81.84    0.35
   5  -2   0  132.80    0.69
   5  -3   4    3.37    0.31
   4  -3   2    2.56    0.28
   5  -3   3  231.46    0.94
   6  -2   1  106.36    0.64
   4  -1  -2  371.77    0.88
   3  -1  -2    3.86    0.17
   2  -3   3   19.82    0.25
   2  -3   4   97.12    0.43
   5  -3   2   35.58    0.48
   4  -2  -1    5.87    0.21
   4  -3   1  296.47    0.96
   3  -3   1  154.42    0.64
   2  -3   2  166.80    0.55
   6  -1  -1    0.05    0.27
   5  -3   1   29.60    0.42
   2  -2  -1   13.82    0.23
   4  -3   0    0.53    0.29
   3  -3   0    3.83    0.27
   5  -3   0   16.67    0.38
   4   0  -3  386.82    0.81
   3   0  -3   21.33    0.25
   1  -2   0  659.59    0.76
   3  -2  -2   24.22    0.28
   6  -2  -1    4.12    0.23
   4  -3  -1  242.08    0.87
   4  -4   3   18.20    0.36
   4  -4   4   58.63    0.49
   5  -2  -2    3.98    0.27
   4  -4   2  163.02    0.77
   3  -3  -1   57.62    0.44
   2  -3   0    1.48    0.24
   6  -3   0    0.45    0.27
   5  -3  -1    7.19    0.33
   3  -1  -3   89.43    0.43
   3  -4   3  146.79    0.64
   3  -4   4   89.72    0.51
   4  -4   1    4.22    0.32
   3  -4   2    2.68    0.24
   2  -2  -2  448.99    0.80
   1  -3   3   96.29    0.34
   5  -1  -3   11.15    0.27
   5  -4   1    1.21    0.31
   1  -3   2   61.65    0.31
   6  -2  -2    3.14    0.21
   4  -2  -3   43.81    0.38
   4  -3  -2   28.38    0.34
   4  -4   0  139.11    0.73
   2  -3  -1  552.72    0.98
   1  -2  -1  127.56    0.37
   5  -4   0  160.60    0.81
   3  -3  -2    0.74    0.25
   5  -2  -3   68.36    0.50
   3  -4   0   93.85    0.52
   2  -1  -3  412.42    0.69
   2  -4   3  137.61    0.52
   2  -4   2  183.05    0.61
   1  -1  -2   16.25    0.15
   4  -4  -1    1.53    0.23
   2  -4   1   22.07    0.28
   5  -4  -1    3.46    0.24
   3  -4  -1    1.06    0.25
   6  -2  -3   49.65    0.45
   4  -1  -4    2.66    0.20
   2  -2  -3   43.42    0.33
   2  -3  -2    6.22    0.26
   5  -3  -3  146.55    0.73
   3  -3  -3  313.72    0.89
   4  -2  -4    3.34    0.24
   4  -4  -2   51.39    0.51
   4  -5   2   19.75    0.36
   4  -5   1   26.75    0.40
   3  -4  -2  328.77    0.98
   1  -2  -2   33.03    0.23
   3  -2  -4  142.00    0.57
   3  -5   2   63.42    0.48
   2  -4  -1   58.99    0.42
   3  -5   1  200.92    0.80
   0  -2   1  227.93    0.34
   4  -3  -4   97.99    0.60
   2  -3  -3   19.08    0.30
   4  -4  -3   10.65    0.30
   4  -5  -1   76.30    0.62
   3  -5   0    3.35    0.30
   5  -3  -4   47.11    0.47
   3  -4  -3    1.02    0.26
   1  -4   2   20.95    0.21
   4  -5  -2    2.08    0.32
   2  -5   1   20.02    0.30
   2  -5   2   52.85    0.38
   1  -4   0  118.48    0.46
   4  -4  -4  144.94    0.77
   3  -5  -2   17.84    0.38
   2  -5   0  177.78    0.69
   1  -2  -3   59.00    0.30
   3  -2  -5   38.23    0.35
   2  -3  -4    4.10    0.24
   2  -4  -3    7.41    0.28
   4  -3  -5   55.05    0.48
   4  -5  -3  159.36    0.83
   3  -4  -4   19.32    0.37
   2  -5  -1   50.53    0.44
   5  -3  -5   27.67    0.39
   3  -3  -5   91.45    0.51
   3  -5  -3    2.37    0.30
   1  -3  -3  276.56    0.66
   2  -5  -2   36.51    0.40
   1  -4  -2  378.89    0.85
   0  -2  -1  209.82    0.40
   0  -3   1   48.20    0.22
   4  -4  -5    2.24    0.31
   3  -6   1   81.56    0.55
   2  -4  -4  267.85    0.86
   0  -3   2  419.52    0.53
   4  -5  -4    0.57    0.30
   3  -6   0   12.64    0.28
   2  -2  -5  230.39    0.66
   0  -3   0    0.53    0.13
   3  -4  -5   15.58    0.31
   3  -5  -4    0.66    0.30
   3  -6  -1  106.63    0.67
   2  -5  -3  159.26    0.70
   1  -2  -4  236.00    0.57
   1  -4  -3   47.10    0.39
   4  -3  -6    3.66    0.30
   1  -3  -4    9.86    0.28
   1  -5   0    5.26    0.22
   1  -5   1   18.80    0.25
   3  -2  -6  196.17    0.71
   3  -3  -6   65.98    0.50
   1  -5  -1   91.65    0.48
   2  -6   0   42.03    0.42
   1  -1  -4    2.64    0.13
   4  -4  -6   82.35    0.62
   3  -5  -5  270.21    1.06
   3  -6  -3    4.81    0.30
   2  -5  -4    3.31    0.23
   2  -6  -1    4.26    0.29
   0  -3  -2   81.22    0.36
   3  -4  -6   43.19    0.50
   1  -4  -4   80.43    0.49
   2  -6  -2   51.67    0.45
   2  -3  -6   10.68    0.28
   1  -5  -3    7.97    0.26
   0  -4   1    2.31    0.14
   2  -2  -6    5.80    0.23
   2  -5  -5   68.36    0.57
   0  -2  -3   17.91    0.17
   0  -3  -3   23.69    0.28
   3  -5  -6    0.04    0.24
   1  -4  -5    9.73    0.30
   1  -5  -4   20.54    0.36
   3  -4  -7    9.27    0.36
   1  -6  -1  291.89    0.92
   0  -4  -3  218.81    0.68
  -3  -5  -5    9.44    0.72
  -5   0  -8   34.28    0.95
  -5  -1  -6   61.37    1.12
  -5  -3  -7    0.51    0.73
  -3  -4  -3  135.81    1.09
  -4  -2  -3    1.30    0.47
  -4   1  -4   73.67    0.81
  -5   0  -6   18.72    0.82
  -2  -3  -1   73.18    0.71
  -3   1  -2   26.98    0.53
  -4  -3  -3    3.05    0.64
  -4  -4  -4   14.54    0.82
  -3  -1  -1  364.97    1.36
  -5   0  -5    1.72    0.67
  -5  -3  -5   27.43    1.00
  -2   1  -1  632.90    1.22
  -3  -2  -1  159.76    1.04
  -5  -2  -4    3.56    0.74
  -4  -1  -2  241.31    1.32
  -4  -2  -2   13.56    0.71
  -2  -1   0  220.48    0.89
  -3  -4  -2    2.51    0.50
  -5   0  -4  150.43    1.33
  -4  -4  -3  146.48    1.30
  -4  -3  -2   62.51    0.95
  -5  -1  -3   19.80    0.84
  -5  -2  -3  145.94    1.40
  -2   0   0  807.31    1.50
  -3  -5  -3   -0.24    0.57
  -2  -4  -1  152.78    0.92
  -4  -5  -4    5.97    0.75
  -1  -3   0  945.21    1.60
  -4  -1  -1   18.90    0.72
  -5   0  -3    4.42    0.69
  -5  -3  -3   37.11    1.04
  -5  -4  -4    5.34    0.78
  -6  -1  -5    7.18    0.85
  -6  -2  -5  144.94    1.44
  -6   0  -6  139.39    1.46
  -3  -2   0   39.80    0.71
  -4   1  -2   31.88    0.65
  -5  -2  -2    0.94    0.72
  -6   0  -5   59.12    1.10
  -6  -2  -4    7.65    0.86
  -3   0   0   38.46    0.63
  -5   0  -2   23.72    0.82
  -5  -3  -2  393.27    2.12
  -5  -4  -3   35.96    0.95
  -5   1  -3   31.10    0.77
  -6  -2  -3    3.65    0.84
  -3   2  -2  283.84    1.01
  -4  -1   0  157.51    1.18
  -4  -2   0   11.88    0.63
  -5  -1  -1   24.72    0.85
  -5  -2  -1  146.87    1.36
  -2   1   0  121.37    0.63
  -2  -1   1  250.02    0.95
  -4   1  -1  354.14    1.52
  -4  -4  -1  176.05    1.33
  -6  -3  -3    7.08    0.64
  -4   0   0   50.62    0.82
  -5  -4  -2   17.96    0.65
  -6   0  -3  137.36    1.39
  -1  -1   1  132.48    0.59
  -2  -4   0    0.43    0.41
  -3  -1   1    5.97    0.59
  -5   1  -2   53.82    0.85
  -6  -1  -2  313.39    1.97
  -6  -2  -2    0.13    0.80
  -1  -2   1    9.35    0.32
  -3   1   0   13.36    0.53
  -3  -2   1   37.93    0.70
  -2   0   1   52.97    0.58
  -3   0   1  229.30    1.12
  -6   0  -2   31.27    0.94
  -2  -3   1    9.65    0.48
  -5  -1   0  142.36    1.19
  -5  -2   0   16.59    0.64
  -3  -3   1    1.15    0.49
  -4  -1   1   -0.69    0.61
  -4  -2   1  392.33    1.73
  -5  -4  -1   55.02    1.00
  -4   1   0  155.07    1.07
  -4  -4   0   89.40    1.03
  -6  -1  -1    0.61    0.59
  -4   0   1   92.55    0.84
  -1  -3   1    0.91    0.25
  -5  -1   1   -0.18    0.69
  -6   1  -2    9.58    0.74
  -2  -1   2   28.16    0.55
  -3  -1   2  223.24    1.13
  -4   2  -1   56.30    0.67
  -6  -1   0   77.42    1.19
  -6  -2   0   10.35    0.82
  -3  -4   1  299.19    1.44
  -5   1   0   57.57    0.88
  -5  -4   0   34.02    0.85
  -4  -1   2   14.76    0.66
  -5   0   1   91.20    1.08
  -3   0   2  179.76    1.09
  -4   1   1  119.53    1.01
  -4  -2   2    0.62    0.41
  -4  -4   1    1.27    0.60
  -6   1  -1   15.30    0.80
  -6   0   0    9.59    0.87
  -3  -3   2   16.42    0.58
  -2   0   2  164.45    0.80
  -4   0   2   62.01    0.86
  -2  -3   2  337.20    1.27
  -3   2   0  325.97    1.12
  -6  -1   1   36.82    0.98
  -6  -2   1  173.56    1.54
  -4   2   0   73.40    0.77
  -5  -1   2  317.23    1.70
  -5  -2   2   17.79    0.79
  -1  -1   2  482.67    1.06
  -5   1   1  118.46    1.07
  -5  -4   1   58.20    0.96
  -6   1   0  279.94    1.75
  -1  -2   2  199.33    0.74
  -3  -1   3   17.32    0.65
  -5   0   2   19.98    0.78
  -5  -3   2   16.14    0.74
  -3  -4   2   31.38    0.76
  -4  -2   3    5.49    0.69
  -2  -1   3    0.07    0.49
  -4  -4   2   29.99    0.75
  -5   2   0  133.03    1.12
  -6  -1   2    5.63    0.77
  -2  -2   3   58.12    0.70
  -4   0   3  384.45    1.65
  -6  -2   2   39.76    0.92
  -2   1   2  223.98    0.90
  -3  -3   3   94.34    0.91
  -4   2   1    6.22    0.51
  -4  -3   3   14.36    0.69
  -5   1   2   76.97    0.99
  -5  -1   3   12.13    0.59
  -5  -2   3   78.27    1.05
  -6   1   1   -0.02    0.70
  -1   0   2  311.36    0.83
  -1  -3   2    6.47    0.32
  -2   0   3  516.68    1.41
  -5   0   3    1.92    0.73
  -5   2   1  107.53    1.08
  -5  -3   3  171.43    1.39
  -2  -3   3   -0.26    0.40
  -4  -1   4  206.06    1.39
  -3   1   3   90.37    0.78
  -3  -1   4  228.41    1.23
  -3  -2   4   10.60    0.59
  -6   1   2  210.76    1.56
  -6  -1   3    6.48    0.72
  -4   0   4    8.14    0.70
  -3   0   4   42.59    0.79
  -4   2   2  199.61    1.22
  -5  -1   4   18.43    0.75
  -6   0   3  129.77    1.24
  -1  -1   3  136.52    0.67
  -3   2   2   24.76    0.53
  -1  -2   3  353.58    1.02
  -2   2   1   13.49    0.29
  -2  -2   4    4.81    0.45
  -3  -3   4   87.98    0.92
  -4  -3   4   75.21    0.99
  -5   2   2    3.60    0.62
  -5   0   4   32.66    0.74
  -2   1   3  419.14    1.24
  -2   0   4   23.75    0.61
  -4   1   4    2.52    0.60
  -6   1   3    1.39    0.72
  -3   1   4  147.77    1.06
  -1   0   3   43.69    0.47
  -3  -1   5    5.95    0.60
  -4  -2   5   86.20    1.09
  -2  -3   4  171.21    0.99
  -4   0   5   33.59    0.72
  -5  -1   5   48.15    0.96
  -1  -3   3   18.61    0.37
  -3   2   3   66.80    0.74
  -3   0   5  402.91    1.66
  -5   2   3   70.94    0.90
  -5   0   5  232.71    1.62
  -2  -1   5    5.03    0.56
  -4  -3   5  148.71    1.26
  -2   1   4   11.30    0.40
  -3  -3   5   12.14    0.61
  -2  -2   5  271.05    1.27
  -3   1   5   11.65    0.64
   5   3   7    0.38    0.69
   5   2   6   80.24    1.16
   5   0   8   33.36    0.83
   4   4   5   10.19    0.81
   4   1   3  126.57    1.03
   5   3   6   84.48    1.22
   4   2   3    1.86    0.44
   3   4   3  135.98    1.15
   2   4   2   15.20    0.57
   5   2   5   84.43    1.12
   4  -1   4   68.75    0.71
   2   3   1   74.63    0.74
   4   4   4   13.86    0.79
   4   3   3    2.73    0.67
   3   5   4  193.15    1.46
   1   2   0  519.46    1.12
   5   3   5   26.95    0.78
   3   1   1  356.99    1.27
   3  -1   2   26.49    0.46
   5   2   4    3.09    0.64
   5   1   4  205.52    1.44
   3   2   1  159.34    1.06
   4   5   5    1.49    0.84
   4   1   2  231.10    1.24
   3   0   1   85.71    0.73
   2   1   0  226.65    0.91
   5   3   4    2.06    0.83
   5   0   4  143.50    1.18
   4  -1   3  237.58    1.14
   4   4   3  150.39    1.34
   3   3   1   23.70    0.68
   6   1   6   20.89    0.81
   5   2   3  146.12    1.32
   5   1   3   19.58    0.71
   4   3   2   64.54    0.84
   4   5   4    6.20    0.81
   2   0   0  798.53    1.45
   2   4   1  157.35    1.01
   6   2   5  142.67    1.33
   6   1   5    7.53    0.71
   5   4   4    4.82    0.62
   5   3   3   36.13    0.97
   5   0   3    4.78    0.61
   4   1   1   20.05    0.71
   1   3   0  914.98    1.65
   6   0   6  135.95    1.27
   4   2   1  162.07    1.14
   3   1   0  222.24    1.12
   5  -1   4   29.82    0.69
   4   4   2   -0.19    0.74
   4  -1   2   30.88    0.57
   3   2   0   43.36    0.76
   3  -1   1   53.65    0.57
   2   3   0    2.51    0.49
   6   2   4    7.61    0.82
   5   2   2    1.57    0.68
   4   0   1   40.27    0.77
   6   0   5   56.50    0.97
   4   5   3   49.20    1.04
   3   4   1   99.58    1.02
   5   4   3   38.35    0.85
   3   0   0   38.14    0.51
   3   3   0  324.51    1.52
   6   2   3    3.04    0.77
   6   0   4    1.23    0.66
   5  -1   3   30.07    0.69
   4   1   0  166.62    1.20
   3  -2   2  290.79    0.94
   6   3   3    7.08    0.82
   4   2   0   12.12    0.69
   5   4   2   18.18    0.93
   4  -1   1  348.86    1.39
   2   1  -1  259.66    1.00
   6   0   3  134.16    1.27
   4   0   0   51.86    0.79
   6   2   2    1.04    0.75
   6   1   2  318.20    1.90
   5   3   1    3.04    0.59
   3   1  -1    5.53    0.65
   2   4   0    0.98    0.48
   1   1  -1  129.16    0.61
   1   2  -1    8.98    0.33
   3   4   0    4.87    0.61
   6   0   2   31.02    0.86
   5   1   0  146.57    1.19
   3   0  -1  231.04    1.07
   2   3  -1    9.93    0.56
   4   1  -1   -0.46    0.66
   3   3  -1    1.88    0.57
   6   2   1   52.09    0.93
   6   1   1    1.37    0.75
   5  -1   1    1.49    0.51
   4   4   0   98.77    1.20
   4  -1   0  147.15    1.01
   3  -2   1   18.14    0.42
   4   3  -1   22.31    0.83
   4   0  -1   94.52    0.86
   1   3  -1    0.62    0.37
   6  -1   2    7.59    0.70
   6   1   0   79.93    1.20
   5   2  -1  114.00    1.32
   5   1  -1    0.41    0.54
   2   1  -2   27.25    0.61
   5   4   0   34.19    0.85
   5  -1   0   57.58    0.85
   3   4  -1  308.95    1.64
   2   2  -2    7.66    0.57
   5   0  -1   94.58    1.10
   4   1  -2   15.58    0.74
   6   0   0    8.97    0.84
   6  -1   1   14.19    0.73
   4   4  -1    2.19    0.74
   4   2  -2    0.48    0.55
   4  -1  -1  119.22    0.99
   3   0  -2  184.10    1.15
   4   0  -2   62.00    0.91
   2   0  -2  158.61    0.83
   6   1  -1   39.22    1.01
   4   3  -2  196.01    1.51
   3  -2   0  335.76    1.10
   2   3  -2  312.79    1.38
   5   1  -2  342.41    1.85
   4  -2   0   73.06    0.78
   5  -1  -1  121.24    1.13
   6  -1   0  279.76    1.70
   5   0  -2   21.23    0.82
   3   1  -3   17.17    0.60
   4   1  -3    1.44    0.50
   6   1  -2    6.88    0.85
   5  -2   0  132.26    1.07
   3   0  -3   22.28    0.78
   2   1  -3   -0.15    0.59
   2   2  -3   54.34    0.80
   5   1  -3   13.46    0.84
   5  -1  -2   74.77    1.01
   4   3  -3   15.29    0.86
   3   3  -3   97.79    1.06
   2  -1  -2  224.75    0.94
   3  -2  -1   27.63    0.52
   1   0  -2  312.13    0.89
   5   0  -3    2.60    0.75
   2   0  -3  512.50    1.54
   5  -2  -1  109.66    1.12
   2   3  -3    0.34    0.50
   6   1  -3    8.15    0.79
   3   1  -4  232.34    1.40
   3  -1  -3   92.09    0.92
   6  -1  -2  205.71    1.46
   4   0  -4    7.71    0.80
   5   1  -4   20.01    0.90
   5  -1  -3   11.88    0.64
   4  -2  -2  205.62    1.22
   3   0  -4   44.26    0.88
   3  -2  -2   25.39    0.55
   5   0  -4   34.25    0.80
   3   3  -4   85.66    1.07
   2   1  -4  165.04    1.02
   1   2  -3  332.79    1.11
   2  -1  -3  441.23    1.36
   4  -1  -4    2.92    0.69
   2   0  -4   21.70    0.68
   4   1  -5   -0.26    0.77
   3  -1  -4  149.70    1.12
   4   2  -5   89.94    1.32
   4  -2  -3   45.17    0.75
   3   1  -5    5.81    0.70
   4   0  -5   33.47    0.95
   3   2  -5  108.79    1.19
   5   0  -5  241.50    1.75
   5  -2  -3   71.27    0.98
   3   0  -5  404.33    1.86
   3  -2  -3   69.20    0.75
   1  -1  -2   16.48    0.33
   2  -2  -2  470.79    1.16
   4  -1  -5   41.07    0.90
   2  -1  -4   11.28    0.56
   4  -2  -4    3.18    0.61
   3   3  -5   11.41    0.70
   2   0  -5   65.06    0.74
  -1  -4  -1  134.64    0.76
  -2  -5  -2   67.82    0.73
  -3  -3   2   17.78    0.44
  -4  -4   1    1.21    0.56
  -3  -4   1  306.81    1.36
  -3  -6  -4   18.76    0.61
  -1  -1   2  469.54    0.89
  -4  -2   3    4.40    0.46
  -5  -3   2   15.31    0.58
  -5  -4   1   58.16    0.82
   0  -2   0   36.76    0.30
  -2  -5  -1    3.98    0.48
  -1  -5  -3    3.40    0.35
  -2   0   3  518.42    0.95
  -2  -4   1    2.41    0.44
  -3  -5   0    1.01    0.56
  -3  -6  -3  105.33    0.96
  -5  -2   3   75.93    0.79
  -1  -2   2  202.22    0.76
  -2  -2   3   58.30    0.62
  -1  -5  -2  333.76    1.18
  -3  -3   3   96.98    0.85
  -3  -4   2   31.07    0.67
  -3  -6  -2    2.82    0.53
  -4  -4   2   30.46    0.62
  -4  -1   4  200.13    0.96
  -5  -3   3  170.37    1.13
   0  -4  -2   35.07    0.37
  -3  -1   4  221.26    0.94
  -3  -5   1   85.80    0.85
   0  -3   0    0.80    0.27
  -1  -3   2    6.28    0.46
  -1  -4   1  344.34    1.20
  -1  -5  -1    1.35    0.34
  -2  -3   3    0.00    0.44
  -2  -4   2   11.95    0.43
  -2  -6  -2    1.04    0.46
  -3  -2   4   10.09    0.44
  -3  -6  -1  105.21    0.96
  -4  -2   4   33.29    0.60
  -3   0   4   39.76    0.40
   0  -2   1  219.53    0.62
  -2  -5   1    2.35    0.47
  -4  -4   3  136.57    1.09
  -5  -2   4    6.82    0.47
   0  -4  -1   70.41    0.49
  -1  -1   3  136.67    0.57
  -1  -2   3  341.84    0.98
  -1  -5   0    0.14    0.38
  -2  -1   4  169.23    0.76
  -2  -6  -1    1.94    0.47
  -3  -5   2   24.56    0.67
  -3  -6   0   62.73    0.80
  -1  -4   2   44.39    0.57
  -2  -4   3  210.07    1.16
   0  -4   0   83.53    0.57
  -1  -3   3   18.64    0.49
  -2  -5   2  122.39    0.99
  -2  -6   0   16.73    0.54
  -2   0   4   22.40    0.29
  -2  -3   4  169.83    0.93
  -1  -5   1   32.60    0.57
  -3  -2   5  111.51    0.81
  -3  -4   4   54.08    0.79
   0  -2   2  230.74    0.70
  -1   0   3   42.67    0.27
  -1  -6  -1  218.53    1.07
   0  -3   2  419.07    1.11
  -1  -4   3  125.29    0.86
  -2  -4   4    3.74    0.49
  -2  -6   1   96.90    0.90
  -4  -3   5  142.17    1.03
   0  -1   2  156.06    0.48
   0  -5  -1    7.38    0.31
  -2  -2   5  259.99    1.08
  -2  -5   3   76.09    0.87
  -1  -3   4  113.75    0.79
  -1  -6   0    5.68    0.45
  -2  -1   5    5.39    0.33
  -2  -3   5   51.67    0.67
   0  -5   0  240.68    0.96
  -2  -6   2    1.79    0.47
   0  -3   3    4.18    0.40
  -1  -4   4   76.91    0.77
  -1  -5   3   19.55    0.57
  -1  -6   1    3.04    0.44
   0  -5   1   20.99    0.43
  -2  -4   5  208.40    1.26
  -2  -5   4   23.84    0.55
  -1  -2   5  280.49    1.06
  -3  -1   6   83.30    0.67
  -3  -3   6  115.70    0.96
   0  -1   3  302.16    0.73
   0  -4   3  175.24    0.92
  -1  -3   5    9.90    0.46
  -2   0   5   64.99    0.44
  -2  -2   6    0.93    0.39
  -1   0   4  302.89    0.72
  -1  -1   5  128.38    0.68
  -1  -6   2  110.79    0.92
   0  -5   2  259.13    1.14
   1  -3  -1   65.83    0.31
   1  -3   0   92.27    0.43
   0  -2   4   35.17    0.42
   0  -3   4  249.60    0.99
  -1  -4   5   13.24    0.55
  -1  -5   4   86.53    0.83
  -2  -1   6  202.63    0.91
  -2  -5   5  114.55    1.01
   1  -3   1  150.39    0.61
   0  -4   4    0.74    0.44
  -1  -6   3   29.69    0.66
  -2  -4   6   47.50    0.68
   0   1   9   96.98    0.99
  -1   2  10   17.42    0.78
  -2   4   7   39.59    0.76
   0   2   8  218.15    1.28
   0  -1   9   15.58    0.60
  -1   3   2   41.84    0.33
   1   0   5   33.91    0.47
  -2   4   8    1.03    0.61
   1  -1   5  316.68    0.94
   1   0   4  516.81    1.06
   1  -1   4   30.01    0.33
   1  -1   6    0.45    0.34
   0   2   9    4.09    0.61
   0   1  10   16.76    0.75
   0   0  10   38.05    0.77
   0   2   2  987.57    1.25
  -2   4   9   48.98    0.96
   1   1   5    9.48    0.32
   1   1   7  194.85    1.07
   1  -1   7  131.66    0.82
   0   3   5   83.21    0.72
   0  -1  10  145.72    1.19
   1   0   8   87.46    0.81
   0   3   8    5.67    0.60
   1   1   4    6.17    0.26
   1   1   8    3.03    0.50
   1   0   3  186.15    0.58
  -1   4   5   10.20    0.44
  -1   4   8  247.96    1.55
   1  -1   8  400.54    1.48
   0   0  11  134.42    1.25
   1   0   9   31.97    0.68
   1  -2   5  417.65    1.00
   0   3   9   65.25    0.86
  -1   4   9   12.80    0.73
   1   2   6  508.69    1.56
   1   2   7    4.72    0.53
   1   1   9  189.13    1.28
   0   2  11   87.19    1.12
   1   2   5   19.66    0.52
   1  -2   4    1.14    0.21
   0   3  10   41.75    0.96
   1   1   3  356.51    0.90
   1  -1   9   47.97    0.71
   1   2   9   26.32    0.74
   1   0  10   45.10    0.83
   1   2   4  391.77    1.16
   1   2  10   42.03    0.90
   0   4   7    6.21    0.57
   0   4   6  232.31    1.26
   1   3   7    3.42    0.38
   1   0   2  306.96    0.66
   1   0  11   87.74    1.06
   0   4   9    1.07    0.51
   1   2  11   25.73    0.82
   0   4   5   15.08    0.50
   0   4  10  136.00    1.24
   2   1   7    9.11    0.52
   2   0   7    6.02    0.44
   1   3  10   20.47    0.79
   2   1   6    0.50    0.46
   2   0   8  122.46    0.90
   2   0   9   99.44    0.99
   1   1   2   24.68    0.34
   2   2   7   25.58    0.65
   2   2   8  294.32    1.55
   2   1   5  592.94    1.56
   2  -1   7   96.44    0.75
   2   2   9    2.40    0.62
   2  -1   6   41.27    0.52
   2  -1   8    1.15    0.42
   1   3   4    0.35    0.43
   0   4   4  181.89    0.94
   2   2   6    4.37    0.40
   1   4   7   59.95    0.86
   1   4   8  178.78    1.35
   1   4   9   11.92    0.76
   0   3   2   82.63    0.48
   2   2  10  132.25    1.20
   2  -1   9   35.55    0.68
   1   4  10   98.96    1.22
   2   2   5   25.98    0.62
   2   1  11  135.52    1.29
   1   4   6  218.10    1.27
   0   5   9  209.46    1.59
   2   3   8    5.95    0.65
   2   3   9   95.93    1.12
   2   2  11   29.97    0.80
   2   0  11   68.84    0.99
   2   3   7  269.61    1.40
   2   3   6    2.93    0.38
   2  -4  -7   39.94    0.75
   1  -2 -10   17.67    0.80
   1  -3  -2   40.74    0.31
   0  -2  -8  211.65    1.33
   2  -4  -8    0.62    0.61
  -1   0  -5   34.61    0.51
  -1   1  -5  312.96    1.02
  -1   0  -4  526.12    1.16
   0  -1 -10   16.49    0.80
   0  -2  -9    4.35    0.64
  -1   1  -4   30.15    0.36
   2  -4  -9   49.22    0.95
   1  -3 -10    3.73    0.74
  -1  -1  -6   23.11    0.58
   0  -3  -5   82.67    0.72
  -1   1  -7  132.38    0.91
  -1  -1  -7  194.33    1.14
  -1  -1  -5    9.28    0.34
   1  -4  -7   -0.08    0.52
   1  -4  -6   93.95    0.84
   0  -2 -10   69.73    1.06
   0  -3  -8    6.08    0.60
   1  -4  -8  246.58    1.54
   1  -4  -5   10.10    0.42
  -1   1  -3  221.79    0.62
  -1   0  -3  191.16    0.62
  -1  -1  -4    6.17    0.27
   0  -3  -4   43.42    0.52
  -1   1  -8  386.41    1.60
   1  -4  -9   10.92    0.73
   0  -3  -9   64.21    0.89
  -1   0  -9   32.19    0.75
   1  -4  -4   81.44    0.62
  -1  -1  -9  185.02    1.35
  -1  -2  -7    4.58    0.56
  -1  -2  -6  499.14    1.55
   0  -3 -10   39.98    0.97
  -1   2  -4    1.38    0.25
  -1  -2  -8   22.53    0.71
  -1  -2  -5   19.27    0.54
  -1  -1  -3  358.43    0.90
  -1   0 -10   44.56    0.91
  -1  -2  -9   26.78    0.78
   0  -3  -3   23.94    0.38
  -1  -2  -4  388.46    1.16
   0  -4  -8    3.34    0.62
   0  -4  -7    5.49    0.51
  -1  -2 -10   43.74    0.93
   0  -4  -6  220.72    1.20
   0  -4  -9    0.70    0.51
  -1   0  -2  315.49    0.69
  -1  -3  -8   13.12    0.66
  -1  -3  -7    3.31    0.37
  -1  -2 -11   26.65    0.86
  -1  -3  -9  131.99    1.26
   0  -4 -10  136.05    1.26
   0  -4  -5   14.80    0.46
  -1  -2  -3  120.52    0.64
  -1  -3 -10   19.19    0.85
  -2   0  -7    6.28    0.48
  -2   0  -6  357.80    1.35
  -2  -1  -7    9.14    0.56
  -2   0  -8  124.09    0.97
  -2  -1  -8   28.42    0.59
  -2  -1  -6   -0.04    0.49
  -1  -1  -2   24.80    0.34
  -2   0  -9   94.58    1.06
  -2   1  -7   95.86    0.83
  -2  -1  -5  594.01    1.63
  -2  -2  -8  299.63    1.62
  -2  -2  -7   24.86    0.69
   0  -4  -4  177.02    0.87
  -1  -3  -4    0.39    0.41
  -2   1  -8    0.50    0.49
  -2   1  -6   42.65    0.58
   0  -3  -2   79.81    0.44
  -1  -4  -9   11.48    0.76
  -1  -4  -8  175.33    1.32
  -1  -4  -7   61.28    0.84
  -2   0 -10   -0.51    0.68
  -2  -2  -6    4.14    0.41
  -1  -4 -10   99.64    1.22
  -2   1  -9   34.86    0.76
  -2  -2 -10  134.30    1.27
   0  -5  -9  212.82    1.54
  -1  -4  -6  218.14    1.23
  -2  -1 -11  135.10    1.40
  -2  -2  -5   27.27    0.63
  -2  -3  -9   94.31    1.14
  -2  -3  -8    6.12    0.66
  -2  -3 -10    3.37    0.74
  -2  -3  -7  273.47    1.44
  -2  -3  -6    2.92    0.38
   7   1  -8    1.56    0.28
   7   1  -2   79.57    1.00
   7   0  -9    0.61    0.22
   7  -2  -3  118.97    0.94
   7  -1  -2   58.98    0.82
   6   3  -6    0.52    0.47
   6   3  -3   17.16    0.69
   5   3  -9  141.89    0.80
   6   3  -5  143.92    1.18
   6   2  -9    1.09    0.30
   6   2  -1  168.91    1.36
   7   1  -7    7.08    0.45
   7  -2  -8   -0.06    0.28
   7  -2  -4    2.32    0.44
   7   1  -6    8.86    0.51
   7   1  -4    4.33    0.58
   7  -1  -3   -0.61    0.54
   7   1  -5   76.76    0.91
   7  -2  -5    0.21    0.40
   6   2  -2   36.77    0.84
   7   0  -4   44.13    0.79
   7  -1  -4  119.92    1.06
   7  -2  -6   12.16    0.44
   6   2  -8   76.03    0.77
   5   3  -8    7.56    0.47
   7   0  -6    0.61    0.47
   7  -1  -5   14.26    0.56
   6   2  -4   98.62    1.12
   6  -1 -11   45.81    0.40
   5   3  -7   15.74    0.58
   6   2  -5    9.34    0.63
   6   1  -2    6.15    0.48
   5   2 -10    0.45    0.34
   6   1  -9   66.78    0.72
   5   3  -6    6.85    0.61
   5   3  -5   -0.15    0.60
   6   1  -3    6.26    0.68
   6   0 -10   30.93    0.49
   6  -2  -3   50.57    0.80
   6   1  -8    0.78    0.54
   6  -3  -9    0.32    0.29
   5   1 -11   80.17    0.67
   5   0 -12    1.29    0.30
   6   0  -3  122.18    1.25
   6  -1 -10    3.62    0.37
   6  -1  -3    0.40    0.53
   5   2  -9    1.44    0.51
   4   2 -11    1.66    0.37
   6   1  -7   95.11    0.97
   6   1  -6    6.87    0.67
   6   1  -5    0.00    0.63
   6   0  -9   24.82    0.62
   6  -2  -4    0.24    0.51
   6  -3  -8   38.69    0.56
   6  -3  -6    0.31    0.44
   4   3  -8    9.41    0.56
   6   0  -4   22.45    0.64
   6  -1  -4    5.50    0.57
   6  -2  -9    3.92    0.43
   4   3  -7  109.71    1.17
   6   0  -8   13.35    0.53
   6   0  -5   35.69    0.84
   6  -1  -9   11.34    0.55
   6  -2  -5  137.20    1.19
   5   2  -7   11.74    0.67
   5  -1 -12    3.85    0.36
   4   3  -6    2.15    0.66
   6   0  -7   12.58    0.72
   6  -1  -5    2.01    0.59
   6  -2  -8   23.34    0.64
   6  -2  -6    0.37    0.53
   5   2  -6  131.30    1.31
   5  -2 -12   41.60    0.49
   4   1 -12    5.72    0.38
   6  -1  -8   78.55    0.92
   6  -2  -7   35.67    0.72
   6  -1  -7   -0.11    0.41
   5   0 -11   31.40    0.62
   4   2 -10  109.38    1.01
   3   1 -13   15.97    0.40
   5  -3 -11    4.95    0.35
   5   1  -8   48.01    0.91
   5  -1 -11   11.89    0.51
   4   2  -9    0.23    0.60
   5   1  -5   46.06    0.95
   5   0 -10   88.43    0.98
   5  -2 -11    7.66    0.44
   5   1  -7   27.46    0.69
   5   1  -6   36.65    0.89
   4   1 -11    1.11    0.54
   5  -3 -10   26.15    0.60
   4  -4 -12    3.04    0.27
   5   0  -9    1.55    0.66
   5  -1 -10   41.07    0.79
   4   2  -7  119.14    1.28
   4  -2 -13   41.51    0.53
   5   0  -8   47.91    0.95
   5  -2 -10    7.75    0.57
   5  -3  -9    1.67    0.51
   5  -3  -6  109.97    1.10
   5   0  -7  105.87    1.25
   5   0  -6    0.68    0.69
   5  -3  -8  150.10    1.21
   5  -3  -7    3.61    0.57
   3   2 -10    1.54    0.61
   3  -1 -14    3.06    0.33
   3   1 -12    9.25    0.59
   5  -1  -8   53.75    0.96
   5  -2  -6   -0.38    0.61
   4  -1 -12   18.71    0.63
   3  -3 -14   60.83    0.56
   5  -1  -7   15.15    0.76
   5  -2  -8    1.97    0.60
   5  -2  -7  135.45    1.31
   4  -4 -11    0.74    0.38
   3  -2 -14    0.14    0.32
   4  -2 -12    3.84    0.54
   2  -2 -15    0.29    0.25
   3   2  -8   46.56    0.96
   3  -4 -13   23.40    0.42
   4  -1 -11    2.80    0.64
   4  -3 -11    0.21    0.49
   4  -4  -9   63.38    0.85
   4   0  -9  121.36    1.33
   4  -2 -11  138.03    1.14
   4  -1 -10   19.02    0.80
   3  -3 -13   -0.17    0.41
   4   0  -8    1.96    0.51
   4  -3 -10  107.76    1.10
   3  -2 -13   48.61    0.79
   2  -5 -13    6.04    0.34
   4  -2 -10    4.32    0.64
   3  -4 -12    0.34    0.53
   2  -1 -14  103.78    0.91
   4  -1  -9   23.17    0.72
   4  -3  -9    4.39    0.67
   3   1  -9   19.60    0.81
   2   0 -13    1.08    0.63
   4  -1  -8  182.22    1.55
   4  -3  -8   58.90    0.97
   4  -3  -7   22.63    0.75
   3   0 -11   75.42    1.02
   3  -1 -12   35.86    0.90
   1   0 -14   12.66    0.55
   2  -2 -14    0.36    0.50
   2  -3 -14   13.86    0.49
   3  -2 -12    4.85    0.65
   3  -3 -12   82.52    0.95
   2   1 -11   -0.40    0.67
   3   0 -10   58.62    1.11
   3  -4 -11   58.43    0.82
   3  -1 -11    3.89    0.77
   2  -1 -13    0.57    0.61
   2  -4 -13   78.33    0.83
   1   1 -12    6.38    0.72
   0  -1 -15    5.23    0.50
   3   0  -9    6.95    0.74
   3  -2 -11    8.51    0.77
   2   1 -10   65.54    1.14
   3  -1 -10  180.82    1.63
   3  -4  -9   39.41    0.85
   2  -2 -13   62.97    0.99
   2  -3 -13    2.84    0.62
   1   0 -13  105.76    1.17
   3  -3 -10   -0.04    0.63
   0  -4 -15   59.00    0.61
   3  -1  -9    9.32    0.74
   3  -2 -10    4.60    0.54
   2  -4 -12   33.19    0.74
   1   1 -11   22.96    0.85
  -1  -1 -15    1.63    0.51
   2  -5 -10    0.46    0.51
   1  -3 -14   55.90    0.84
   0  -3 -15    7.15    0.46
   0  -5 -14   12.01    0.45
   2  -3 -12   45.57    0.94
   0   1 -12   59.55    0.98
  -1   0 -14    6.53    0.53
   1  -1 -13   14.64    0.77
   2  -1 -11    1.04    0.50
   2  -4 -11    2.04    0.63
   1   1 -10   70.69    1.14
   0  -1 -14   84.06    1.02
  -2  -1 -15    2.75    0.46
   0   0 -13    3.61    0.67
   2  -3 -11    3.62    0.70
   1  -2 -13   31.24    0.92
  -1  -4 -15    1.49    0.36
   1  -3 -13    0.74    0.69
   0  -4 -14    0.68    0.51
  -1  -6 -13    1.49    0.27
   1   0 -11  164.60    1.60
   0   1 -11    0.52    0.71
   0  -2 -14    1.26    0.66
  -1  -3 -15   24.48    0.58
   1  -1 -12   96.75    1.18
   0  -5 -13    1.10    0.53
   2  -2 -10   26.12    0.88
   2  -4  -9   47.16    0.89
  -1  -1 -14    0.52    0.64
  -1  -5 -14    1.79    0.38
   0   0 -12    8.38    0.79
  -1   0 -13  183.85    1.47
  -2  -4 -15   31.34    0.53
   1  -3 -12   78.15    1.14
  -2  -3 -15   22.61    0.59
  -3  -2 -15   41.31    0.61
  -3  -4 -15    2.60    0.34
   1  -1 -11    7.34    0.63
   1  -5 -10    4.64    0.64
   0  -4 -13   40.71    0.83
  -2  -6 -13    2.19    0.32
   1  -4 -11   29.32    0.81
   0  -2 -13   87.56    1.26
   0  -5 -12    5.38    0.67
  -1  -4 -14   23.60    0.69
  -3  -3 -15   20.92    0.51
   0  -3 -13   57.56    1.04
  -1  -3 -14   36.66    0.83
   1  -2 -11    5.73    0.59
   0   0 -11  132.03    1.50
  -1  -1 -13   23.49    0.83
  -1  -5 -13  135.03    1.11
  -3  -1 -14    0.35    0.61
  -1   0 -12    0.32    0.75
   0  -2 -12    0.87    0.76
   0  -5 -11   25.09    0.78
  -1  -6 -11   -0.18    0.45
  -2  -4 -14    5.09    0.59
   0  -3 -12   33.96    0.81
  -1  -4 -13    1.39    0.67
  -2  -6 -12   22.18    0.53
  -1  -3 -13    3.63    0.72
  -2  -1 -13    7.61    0.75
  -3  -4 -14   51.96    0.75
   0  -5 -10    0.50    0.64
  -1   0 -11   87.90    1.24
  -2   0 -12   12.99    0.77
  -4  -2 -14   36.32    0.72
   0  -2 -11   87.24    1.27
  -3  -3 -14    0.90    0.58
  -4  -4 -14   27.28    0.55
   0  -3 -11   42.78    0.99
  -4  -3 -14    3.48    0.49
  -1  -4 -12   15.05    0.77
  -4  -6 -12    0.98    0.37
   0  -5  -9  214.77    1.49
  -1  -2 -12   73.60    1.05
  -2  -6 -11   62.28    0.81
  -3   0 -12   10.22    0.70
   0  -4 -10  139.03    1.34
  -1  -3 -12   13.88    0.82
  -1  -5 -11   45.02    0.88
  -4  -1 -13   19.03    0.69
  -4  -5 -13    8.89    0.43
  -2  -5 -12   12.81    0.67
  -2   0 -11   71.38    1.14
  -3  -4 -13    3.92    0.62
  -2  -6 -10   10.87    0.68
  -3  -3 -13    1.68    0.71
  -3  -6 -11    0.59    0.48
  -5  -4 -13    9.14    0.48
  -6  -1 -12    0.78    0.35
  -1  -5 -10    1.94    0.58
  -2  -2 -12    6.75    0.77
  -4  -2 -13    4.69    0.63
  -4  -4 -13    4.39    0.59
  -5  -6 -11   -0.16    0.33
  -1  -3 -11  111.53    1.20
  -5  -3 -13   -0.08    0.47
  -2  -5 -11   61.95    0.96
  -4  -6 -11   50.86    0.69
  -4  -5 -12   67.11    0.82
  -5  -5 -12    5.46    0.40
  -1  -5  -9   -0.40    0.57
  -4  -1 -12    1.78    0.65
  -5  -1 -12    1.27    0.56
  -3  -4 -12    2.99    0.69
  -3  -6 -10   30.16    0.65
  -6  -4 -12   21.87    0.50
  -2  -4 -11    0.48    0.67
  -3  -3 -12    1.37    0.71
  -6  -2 -12    8.55    0.49
  -2  -2 -11   30.53    0.93
  -6  -3 -12   26.36    0.56
  -2  -3 -11   38.59    0.99
  -2  -5 -10    0.72    0.63
  -4  -4 -12   76.58    1.05
  -5  -4 -12    1.09    0.55
  -5  -6 -10    0.43    0.44
  -6  -5 -11    0.73    0.29
  -7  -2 -11    6.63    0.39
  -4  -3 -12    1.63    0.71
  -5  -2 -12  100.91    1.11
  -3   0 -10  184.46    1.50
  -5  -3 -12    0.50    0.60
  -3  -6  -9   61.36    0.85
  -5  -5 -11   15.49    0.58
  -6  -1 -11   57.77    0.80
  -6  -6  -9    7.61    0.34
  -3  -2 -11    2.20    0.72
  -3  -4 -11   11.80    0.60
  -4  -1 -11  116.91    1.29
  -3  -3 -11   85.05    1.18
  -3  -5 -10   50.10    0.88
  -5  -1 -11   -0.28    0.59
  -4   0 -10    0.48    0.63
  -4  -6  -9   41.31    0.81
  -6  -4 -11   22.75    0.60
  -4  -4 -11    5.61    0.70
  -3  -6  -8    0.30    0.51
  -5  -4 -11   46.65    0.87
  -7  -4 -10    3.44    0.36
  -4  -3 -11   13.89    0.62
  -7  -5  -9    4.91    0.29
  -8  -2  -9    9.40    0.31
  -3  -4 -10   71.82    1.04
  -5  -3 -11   57.32    1.02
  -5  -5 -10  127.22    1.11
  -6  -6  -8   19.41    0.42
  -3  -2 -10   40.87    0.85
  -3  -5  -9    0.72    0.56
  -7  -2 -10    8.55    0.47
  -7  -3 -10    2.38    0.47
  -3  -3 -10    4.41    0.64
  -4  -1 -10    0.73    0.61
  -4  -6  -8    0.28    0.49
  -6  -1 -10    7.84    0.56
  -5  -6  -8    5.44    0.47
  -7   1   2   62.60    0.99
  -7  -1   2   77.00    1.14
  -5  -3   9  137.56    0.78
  -6  -3   3   18.02    0.62
  -6  -3   6    0.12    0.51
  -6  -2   1  162.50    1.51
  -6  -2   9    1.24    0.30
  -6  -3   4    0.16    0.59
  -6  -3   5  143.22    1.22
  -7  -1   3   37.06    0.91
  -7   2   4    2.79    0.53
  -7   2   8    0.15    0.31
  -7  -1   7    7.72    0.51
  -7   0   8   68.03    0.71
  -7  -1   4    3.83    0.69
  -7  -1   5   80.48    1.04
  -7  -1   6    8.29    0.59
  -6  -2   2   34.83    0.94
  -5  -3   8    6.78    0.56
  -6  -2   8   73.86    0.84
  -7   2   6   12.27    0.56
  -7   1   4  121.59    1.26
  -7   0   4   44.72    0.95
  -7   0   7   17.21    0.61
  -6  -2   3    2.01    0.67
  -7   0   5   54.49    0.95
  -5  -3   3  165.13    1.49
  -7   1   5   14.03    0.68
  -7   1   6   10.58    0.63
  -5  -3   7   15.45    0.61
  -6   1  11   46.57    0.44
  -6  -1   2    6.47    0.74
  -6  -2   4   98.72    1.24
  -5  -2  10    0.76    0.37
  -5  -3   4   56.46    1.04
  -5  -3   5    0.19    0.65
  -5  -3   6    6.30    0.68
  -6  -1   9   65.18    0.78
  -6   0  10   30.49    0.57
  -6  -1   3    7.22    0.82
  -6   2   3   47.77    0.94
  -5   0  12    0.94    0.32
  -5  -1  11   75.88    0.70
  -6   3   9    0.81    0.36
  -6  -1   4  162.96    1.59
  -4  -2  11    1.72    0.36
  -5  -2   9    1.74    0.52
  -6   1   3    0.78    0.66
  -6   0   3  120.34    1.43
  -6  -1   7   96.11    1.17
  -6   3   6    1.05    0.54
  -6   3   7    3.93    0.61
  -6   3   8   40.14    0.70
  -6   2   4    0.29    0.65
  -6   0   9   25.52    0.70
  -6  -1   5    0.26    0.53
  -6  -1   6    7.16    0.75
  -6   0   4   21.77    0.91
  -4  -3   7  109.12    1.20
  -5  -2   8   41.51    0.85
  -6   1   4    4.02    0.75
  -6   0   8   13.37    0.77
  -4  -3   6    2.19    0.69
  -5   1  12    4.29    0.35
  -5  -2   7   11.94    0.71
  -6   2   5  136.67    1.39
  -6   1   9   10.81    0.50
  -6   0   5   36.85    0.97
  -4  -1  12    6.03    0.39
  -5   2  12   42.60    0.52
  -5  -2   6  127.47    1.40
  -6   2   8   23.14    0.79
  -6   1   5    1.48    0.74
  -6   0   6   33.79    0.95
  -6   0   7   12.96    0.67
  -5   0  11   31.88    0.66
  -6   2   7   36.12    0.87
  -6   1   7    0.21    0.65
  -6   1   8   77.31    0.96
  -4  -2  10  105.80    1.02
  -3  -1  13   15.79    0.39
  -5   3  11    5.23    0.48
  -5  -1   9   23.31    0.75
  -4  -2   9    0.63    0.61
  -5   1  11   12.71    0.59
  -5  -1   8   48.70    0.98
  -3  -2  11    7.28    0.50
  -5   2  11    7.56    0.52
  -5   0  10   85.68    1.09
  -5  -1   5   45.28    1.08
  -5  -1   7   26.69    0.90
  -4   1  13   28.95    0.53
  -4  -1  11    1.32    0.56
  -4   4  12    3.20    0.34
  -4  -2   8   38.34    0.94
  -4   2  13   40.42    0.59
  -4   0  12   63.03    0.80
  -4  -2   7  116.13    1.34
  -5   1  10   42.82    0.91
  -5   0   9    1.54    0.55
  -5   3   6  108.53    1.29
  -5   3   9    1.76    0.63
  -5   0   8   47.77    1.04
  -3   1  14    2.97    0.35
  -3  -2  10    1.24    0.77
  -4  -1  10   29.49    0.90
  -5   3   8  149.21    1.41
  -5   0   6    0.15    0.78
  -5   0   7  106.75    1.41
  -3  -1  12    8.67    0.57
  -5   1   9   30.58    0.79
  -3   3  14   59.51    0.57
  -4   4  11    0.40    0.53
  -4   1  12   19.30    0.68
  -5   2   6    0.75    0.74
  -5   2   8    2.48    0.72
  -5   1   8   55.33    1.13
  -2  -1  13   44.20    0.61
  -3   2  14    0.28    0.35
  -4   0  11   17.64    0.74
  -5   2   7  133.59    1.47
  -2   0  14   21.66    0.52
  -3  -2   9   57.50    1.03
  -4   2  12    4.78    0.59
  -3  -1  11   78.54    1.06
  -3  -2   8   44.21    0.98
  -4   4  10    8.77    0.62
  -4   0  10    4.13    0.76
  -4   3  11    0.47    0.57
  -4   1  11    2.07    0.70
  -3   1  13   61.67    0.87
  -4   2  11  144.50    1.35
  -2  -2  10   68.12    1.03
  -4   0   9  121.59    1.42
  -2  -1  12   79.47    1.05
  -3   3  13    0.28    0.47
  -3  -1  10   71.53    1.13
  -4   1  10   20.40    0.91
  -1   1  15    2.77    0.33
  -1  -1  13   13.06    0.59
  -2   5  13    6.13    0.38
  -2   1  14   99.86    0.94
  -3   2  13   48.15    0.85
  -4   3  10  109.33    1.17
  -4   0   8    2.37    0.57
  -2   4  14    0.65    0.33
  -3   4  12    0.09    0.55
  -4   2  10    4.72    0.56
  -4   1   9   24.67    0.94
  -2   0  13    0.44    0.61
  -3  -1   9   18.88    0.84
  -4   3   9    4.98    0.80
  -1   0  14   12.36    0.49
  -3   1  12   36.77    0.91
  -3   0  11   75.37    1.02
  -4   1   8  184.52    1.71
  -1   5  14    4.40    0.35
  -2   3  14   14.10    0.55
  -2   2  14    0.38    0.55
  -1   2  15   98.59    0.79
  -2  -1  11    0.54    0.64
  -3   3  12   84.61    1.10
  -3   2  12    4.93    0.75
  -1   3  15    1.12    0.40
  -3   4  11   59.85    0.98
  -3   0  10   56.81    1.20
  -2   5  12   49.02    0.74
  -3   1  11    3.57    0.84
   0   1  15    5.51    0.40
  -1  -1  12    7.03    0.66
  -2   0  12    9.01    0.77
  -2  -1  10   64.40    1.14
  -3   4  10   16.81    0.84
  -3   0   9    8.04    0.77
   0   0  14    6.56    0.49
  -3   1  10  179.70    1.74
  -1   0  13  103.08    1.11
  -2   3  13    2.74    0.65
   0   4  15   60.35    0.61
  -2   5  11   17.69    0.67
  -3   4   8  159.79    1.51
  -3   3  10    0.20    0.76
  -3   2  10    4.80    0.79
   0   2  15    0.21    0.39
  -1   5  13   59.12    0.78
  -2   1  12   31.70    0.99
  -3   1   9   10.04    0.82
  -1   3  14   58.29    0.90
  -1   2  14    1.09    0.63
  -1  -1  11   22.04    0.81
  -2   4  12   34.22    0.87
  -3   3   9   26.99    0.91
   0   5  14   12.58    0.52
   0   3  15    6.81    0.46
  -2   5  10    0.46    0.62
  -3   2   9  162.61    1.60
   1   0  14    6.84    0.46
  -2   3  12   47.13    1.03
  -2   2  12    0.16    0.76
  -1   1  13   14.52    0.75
  -1   0  12    3.50    0.67
   2   1  15    2.39    0.41
   0   1  14   81.17    0.98
  -1  -1  10   70.96    1.09
  -2   4  11    1.93    0.72
   0   0  13    3.31    0.59
  -1   5  12    3.74    0.61
  -1   2  13   31.45    0.92
  -2   3  11    4.31    0.81
  -2   2  11  132.05    1.50
   0   4  14    0.09    0.55
  -1   3  13    0.11    0.70
  -2   4  10  119.47    1.38
   0   2  14    1.36    0.64
   0  -1  11   -0.42    0.68
  -1   0  11  163.23    1.57
   0   5  13    1.58    0.61
   0   3  14   14.78    0.72
  -1   1  12   98.54    1.18
   1   5  14    1.72    0.43
   1   1  14    1.57    0.57
  -1   5  11   54.33    1.04
  -2   2  10   26.62    0.94
   2   4  15   32.25    0.54
   1   0  13  181.47    1.36
   0   0  12    7.24    0.74
  -1   3  12   77.96    1.22
  -1   2  12   35.13    0.99
   3   4  15    2.38    0.33
   3   2  15   40.47    0.55
   2   3  15   23.36    0.54
   2   6  13    2.24    0.37
   0   4  13   41.21    0.90
  -1   5  10    4.59    0.75
   2   1  14   54.90    0.91
   1   6  12   36.91    0.67
   1   4  14   23.64    0.72
   1   2  14    8.43    0.67
   0   5  12    5.17    0.63
   0   2  13   86.01    1.22
  -1   4  11   29.62    0.91
   2   0  13   -0.13    0.62
   1   3  14   37.14    0.83
   0   3  13   56.52    1.07
   0   0  11  131.72    1.41
  -1   3  11   36.96    1.07
   4   1  14   25.08    0.53
   3   1  14    0.68    0.53
   1   1  13   22.84    0.76
   3   5  14    2.79    0.39
   1   0  12    0.83    0.65
  -1   4  10   71.34    1.16
   2   4  14    4.71    0.59
   1   6  11    0.90    0.53
   0   5  11   26.86    0.93
   0   2  12    1.50    0.58
   2   6  12   22.41    0.61
   2   3  14    7.88    0.61
   1   4  13    1.07    0.71
   1   2  13   17.54    0.87
   0   3  12   33.98    0.84
   3   4  14   50.78    0.74
   2   1  13    7.28    0.67
   1   5  12    1.67    0.69
   4   4  14   28.21    0.60
   4   2  14   35.20    0.66
   2   0  12   12.07    0.69
   1   1  12   56.85    1.03
   1   0  11   82.56    1.12
   0   2  11   84.74    1.26
   4   3  14    3.48    0.44
   3   6  12   30.33    0.64
   0   3  11   43.13    1.03
   5   1  13   64.62    0.65
   4   6  12    1.18    0.41
   3   1  13   63.21    0.90
   2   4  13    0.72    0.65
   2   2  13   35.29    0.88
   1   4  12   14.44    0.82
   3   0  12    9.10    0.62
   2   3  13  151.80    1.40
   0   5   9  221.14    1.67
   4   5  13    8.92    0.44
   1   5  11   46.02    1.00
   2   1  12   30.59    0.84
   3   4  13    3.76    0.62
   6   1  12    0.81    0.30
   5   4  13    8.96    0.48
   5   2  13    0.03    0.45
   5   6  11   -0.16    0.36
   4   4  13    4.34    0.58
   4   2  13    4.68    0.62
   2   4  12  123.08    1.34
   2   2  12    6.68    0.70
   1   5  10    2.26    0.66
   5   3  13    0.45    0.43
   4   3  13  147.75    1.26
   3   1  12   22.67    0.79
   2   3  12   15.94    0.81
   1   3  11  107.46    1.21
   4   6  11   51.82    0.77
   3   0  11   30.34    0.76
   5   5  12    5.56    0.41
   4   5  12   67.64    0.85
   2   1  11  132.80    1.30
   5   1  12    1.31    0.51
   4   1  12    1.16    0.57
   1   5   9    0.69    0.65
   6   4  12   22.66    0.50
   4   0  11   14.35    0.64
   3   6  10   30.52    0.77
   3   4  12    2.23    0.70
   3   3  12    1.15    0.68
   6   3  12   27.15    0.56
   7   2  11    6.92    0.36
   6   5  11    0.44    0.30
   5   4  12    0.58    0.51
   4   4  12   76.28    1.04
   2   5  10    0.04    0.71
   2   3  11   37.61    0.98
   5   6  10    0.83    0.42
   5   2  12  101.50    1.04
   4   6  10    3.08    0.56
   3   1  11    0.79    0.59
   5   3  12    0.41    0.56
   6   6   9    6.72    0.37
   6   1  11   67.21    0.76
   3   6   9   61.81    0.99
   4   1  11  114.35    1.17
   3   4  11   12.04    0.59
   3   2  11    1.82    0.67
   5   1  11   -0.37    0.53
   3   5  10   52.48    0.96
   3   3  11   82.03    1.13
   2   5   9   71.93    1.08
   7   1  10    5.59    0.38
   6   4  11   23.68    0.60
   4   0  10    0.60    0.54
   2   3  10    2.80    0.64
   6   2  11   50.37    0.75
   5   6   9   47.22    0.72
   4   6   9   42.10    0.83
   4   4  11    6.22    0.71
   6   5  10    1.43    0.42
   6   3  11    6.28    0.52
   5   4  11   47.16    0.87
   3   6   8    0.15    0.61
   3   1  10    5.40    0.61
   8   2   9    9.59    0.29
   7   5   9    4.51    0.30
   6   6   8   19.65    0.46
   5   5  10  130.93    1.19
   5   3  11   57.02    0.96
   3   4  10   71.77    1.09
   2   5   8   61.13    0.97
   7   3  10    3.73    0.38
   7   2  10    9.60    0.45
   3   5   9   -0.11    0.63
   6   1  10    8.78    0.50
   4   6   8    0.48    0.57
   3   3  10    3.77    0.63
   8   4   8    2.84    0.21
   5   6   8    5.79    0.52
  -3  -3 -10    3.70    0.72
  -5  -5 -10  133.85    1.28
  -6  -2 -10   65.41    1.00
  -3  -6  -8    0.90    0.53
  -4  -4 -10   41.68    0.96
  -5  -2 -10   20.85    0.83
  -8  -3  -8    8.88    0.33
  -2  -5  -8   63.89    0.94
  -3  -5  -9   -0.15    0.61
  -5  -4 -10   18.72    0.85
  -6  -1  -9   27.25    0.80
  -7  -4  -9    4.57    0.46
  -5  -3 -10    0.23    0.74
  -5  -7  -6   28.02    0.52
  -5  -1  -9   89.81    1.21
  -6  -5  -9    2.06    0.55
  -3  -4  -9    5.90    0.67
  -4  -6  -8    0.41    0.55
  -7  -5  -8   34.56    0.59
  -5  -5  -9    0.59    0.63
  -8  -4  -7    9.74    0.37
  -3  -6  -7  121.28    1.13
  -6  -2  -9   15.75    0.75
  -8  -2  -7   60.94    0.69
  -4  -4  -9   53.88    0.99
  -5  -2  -9    4.83    0.72
  -6  -3  -9   17.40    0.76
  -4  -3  -9   25.90    0.86
  -6  -6  -7    4.16    0.47
  -8  -3  -7    4.89    0.40
  -5  -3  -9   45.72    1.04
  -6  -5  -8   70.93    0.96
  -7  -4  -8    0.45    0.38
  -4  -6  -7   13.86    0.68
  -5  -6  -7   83.04    0.99
  -7  -5  -7   25.05    0.57
  -8  -5  -5   37.44    0.42
  -3  -6  -6    0.02    0.61
  -5  -1  -8    1.22    0.68
  -5  -5  -8   56.45    0.98
  -7  -1  -7   20.28    0.67
  -8  -4  -6   17.40    0.43
  -3  -5  -7   47.70    0.87
  -6  -2  -8   21.28    0.78
  -6  -6  -6    9.59    0.52
  -4  -4  -8   14.51    0.73
  -8  -2  -6    1.37    0.41
  -4  -6  -6    5.42    0.59
  -5  -4  -8   36.48    0.95
  -6  -3  -8   10.41    0.57
  -6  -5  -7    0.44    0.58
  -7  -4  -7   69.60    0.95
  -7  -6  -4   58.14    0.56
  -8  -5  -4    0.16    0.24
  -5  -6  -6   34.53    0.75
  -7  -2  -7    7.22    0.65
  -7  -5  -6    5.52    0.50
  -4  -5  -7   13.46    0.60
  -5  -5  -7    0.41    0.72
  -6  -1  -7   32.20    0.89
  -8  -1  -5    0.46    0.38
  -6  -6  -5   55.25    0.76
  -8  -4  -5    0.87    0.37
  -7  -1  -6   88.11    1.09
  -7  -6  -3    1.58    0.28
  -8  -5  -3   57.85    0.51
  -4  -6  -5  105.57    1.18
  -6  -4  -7   47.36    0.97
  -5  -4  -7   52.92    1.04
  -6  -2  -7   68.84    1.10
  -6  -3  -7    0.93    0.68
  -6  -5  -6   78.81    1.09
  -7  -4  -6    6.41    0.67
  -7  -5  -5   23.84    0.64
  -7  -6  -2    6.48    0.32
  -8  -2  -5   57.42    0.78
  -8  -5  -2    2.77    0.23
  -4  -5  -6  168.37    1.41
  -5  -3  -7   -0.32    0.70
  -7  -2  -6    9.23    0.66
  -7  -3  -6   93.45    1.10
  -7  -6  -1    2.22    0.23
  -8  -4  -4   35.93    0.59
  -8  -1  -4   25.00    0.59
  -4  -6  -4    4.30    0.57
  -5  -6  -4   36.41    0.78
  -6  -4  -6    5.47    0.72
  -6  -5  -5   25.19    0.77
  -6  -6  -3    0.79    0.56
  -7  -5  -4   35.55    0.71
  -7  -1  -5    0.80    0.58
  -7  -4  -5   53.60    0.82
  -8  -2  -4    6.73    0.56
  -8  -4  -3   18.07    0.50
  -5  -4  -6   16.31    0.76
  -6  -3  -6   28.86    0.89
  -4  -5  -5    1.64    0.59
  -7  -2  -5   45.16    0.90
  -7  -3  -5   23.38    0.77
  -4  -6  -3   88.76    1.03
  -5  -6  -3   37.92    0.81
  -7  -5  -3   26.67    0.64
  -8  -1  -3    3.97    0.47
  -6  -5  -4   12.80    0.68
  -8  -3  -3   11.20    0.52
  -6  -4  -5   15.93    0.66
  -7  -4  -4    6.27    0.66
  -8  -2  -3    1.56    0.54
  -6  -6  -1    2.66    0.43
  -5  -4  -5  236.78    1.79
  -5  -5  -4  133.15    1.35
  -5  -6  -2    9.35    0.65
  -6  -3  -5   19.26    0.81
  -7  -1  -4  105.70    1.19
  -7  -5  -2    8.06    0.53
  -8  -4  -1    0.36    0.39
  -4  -5  -4    6.15    0.49
  -6  -6   0   47.24    0.62
  -6  -6   1    1.46    0.38
  -6  -6   2    2.62    0.25
  -7  -3  -4    8.41    0.68
  -7  -2  -4    9.06    0.68
  -7  -4  -3    3.40    0.65
  -8  -1  -2  105.65    1.00
  -8  -3  -2   17.90    0.59
  -8  -4   0   63.45    0.66
  -5  -6  -1   13.40    0.62
  -6  -4  -4    7.76    0.74
  -7  -5  -1   68.93    0.80
  -8  -2  -2   11.78    0.61
  -8  -4   2   80.05    0.59
  -5  -4  -4    4.64    0.67
  -6  -3  -4  144.91    1.46
  -7  -1  -3    0.42    0.61
  -7  -5   3    2.69    0.25
  -7  -2  -3  100.42    1.22
  -7  -4  -2   77.00    0.94
  -8  -1  -1    9.76    0.57
  -5  -6   1    0.40    0.44
  -6  -4  -3   38.92    0.96
  -8  -2  -1   36.81    0.73
  -8  -3   0    7.68    0.54
  -5  -5  -2   26.10    0.82
  -7  -4  -1    2.83    0.63
  -7  -3  -2  107.21    1.27
  -8  -1   0   37.38    0.71
  -8  -3   1   10.01    0.50
  -8  -3   4    1.29    0.31
  -6  -3  -3    6.23    0.75
  -7  -1  -2    6.58    0.65
  -8  -3   2    0.95    0.38
  -6  -4  -2    0.06    0.66
  -6  -5   0   23.91    0.73
  -7  -4   0   11.23    0.69
  -8  -3   3   27.25    0.48
  -5  -5  -1   80.38    1.12
  -6  -5   1   35.93    0.77
  -6  -5   5   24.63    0.42
  -7  -3  -1    2.94    0.75
  -8   0   2    0.78    0.48
  -8  -1   1   35.36    0.71
  -7  -4   5    3.92    0.30
  -8  -2   5    0.06    0.30
  -6  -3  -2   45.74    1.03
  -6  -4  -1   55.78    1.04
  -6  -5   2    0.28    0.53
  -6  -5   4   -0.57    0.38
  -7  -4   2   21.48    0.65
  -6  -5   3  111.59    0.97
  -7  -1  -1    9.27    0.73
  -7  -4   3    4.11    0.49
  -7  -4   4   71.69    0.71
  -8   0   3   39.20    0.59
  -8   0   5    1.45    0.30
  -8  -1   2    7.84    0.54
  -8  -2   4   56.83    0.62
  -7  -3   0   40.08    0.96
  -8   0   4   11.92    0.38
  -8  -1   3   54.46    0.80
  -8  -1   4   17.92    0.48
  -8  -1   5   16.72    0.40
  -4  -5   0  161.06    1.42
  -5  -5   1   88.60    1.16
  -6  -4   0   93.31    1.20
  -7   0   0    2.01    0.58
  -7  -3   7   25.97    0.35
  -5  -5   6    0.64    0.34
  -6  -3  -1   44.94    1.03
  -7  -3   1   78.03    1.12
  -5  -5   2    2.73    0.61
  -7  -1   0  110.89    1.27
  -6  -4   7    3.04    0.31
  -5  -5   3    9.28    0.67
  -5  -5   4   -0.28    0.59
  -5  -5   5   66.05    0.81
  -7  -2   8   43.78    0.46
  -6  -4   2  125.71    1.32
  -7   0   1   61.68    1.02
  -7  -3   3   59.47    0.94
  -6  -4   6  115.35    0.92
  -7  -1   1    1.37    0.69
  -6  -4   3    5.91    0.73
  -7  -2   2   42.71    0.92
  -6  -2   0    9.24    0.74
  -6  -3   1    7.64    0.86
  -7   0   2   18.13    0.74
  -7  -1   2   76.96    1.12
  -7  -2   7    0.12    0.36
  -7   1   8   15.35    0.38
  -7  -2   3   19.50    0.66
  -5  -4   8   16.11    0.47
  -7  -1   8    1.29    0.31
  -7  -2   5    3.33    0.62
  -5  -4   2   55.63    1.12
  -6  -3   2   81.45    1.22
  -6  -3   8   10.36    0.41
  -7   0   3    8.15    0.69
  -7  -1   3   35.72    0.90
  -6  -2   1  164.59    1.58
  -7   1   7   66.76    0.72
  -7   0   8   67.60    0.65
  -5  -3  10    0.22    0.26
  -7   1   5   13.04    0.57
  -7   1   6    9.85    0.59
  -7   0   4   43.51    0.88
  -7  -1   7    7.23    0.47
  -5  -4   3   17.83    0.82
  -5  -4   7    0.38    0.51
  -6  -3   7   45.42    0.75
  -4  -4   9    0.48    0.32
  -5  -4   4   64.18    1.05
  -5  -4   6   40.08    0.82
  -6  -3   4    0.99    0.71
  -6  -3   6    0.40    0.61
  -7   0   5   53.13    0.87
  -7   0   6    0.31    0.52
  -5  -4   5   -0.38    0.63
  -6  -2   2   36.13    0.98
  -6  -2   9    0.82    0.39
  -6  -3   5  140.72    1.28
  -4  -3  11   65.90    0.55
  -5  -2  11    3.52    0.29
  -6  -1  10    2.04    0.34
  -6  -2   3    1.94    0.71
  -6  -2   8   74.12    0.90
  -4  -4   8   75.40    0.87
  -6  -2   4   99.00    1.32
  -6  -2   7   17.75    0.73
  -4  -4   7    3.96    0.66
  -5  -3   3  166.55    1.59
  -6  -1   9   66.35    0.83
  -6  -2   5    8.43    0.80
  -6  -2   6    8.91    0.81
  -4  -4   5   21.33    0.83
  -4  -4   6  157.25    1.45
  -6   1  10    3.27    0.37
  -6   0   3  117.95    1.39
  -4  -2  12   17.97    0.36
  -5  -3   4   57.45    1.13
  -6  -1   4  161.24    1.64
  -4  -3  10    0.36    0.45
  -5  -2  10    0.28    0.47
  -5  -3   5    0.34    0.79
  -6  -1   8    0.80    0.64
  -5   0  12    1.16    0.28
  -6   2   8   21.69    0.60
  -6   0   4   23.07    0.90
  -6  -1   7   95.12    1.19
  -3  -4   8    4.44    0.60
  -5  -1  11   77.60    0.77
  -6  -1   6    5.96    0.61
  -3  -3  11   15.81    0.53
  -6   1   5    2.25    0.68
  -6   0   5   37.26    0.99
  -3  -4   6   23.14    0.84
  -3  -4   7   18.59    0.73
  -4  -3   9   16.25    0.72
  -6   1   6   88.36    1.19
  -6   1   8   77.50    0.99
  -6   0   6   33.33    0.94
  -5  -2   8   39.22    0.97
  -5  -1  10    3.04    0.62
  -5  -2   5   87.68    1.32
  -5  -2   6  129.74    1.49
  -4   0  13    1.02    0.33
  -4  -3   5  138.23    1.48
  -4  -3   7  112.65    1.32
  -5   0  11   31.35    0.69
  -3  -3  10    3.92    0.58
  -4  -3   6    1.86    0.76
  -5   2  11    7.55    0.46
  -2  -2  13   19.35    0.46
  -3  -2  12   57.20    0.73
  -5  -1   9   22.44    0.90
  -2  -3  11   86.68    0.88
  -3   0  14   18.73    0.38
  -4   2  13   41.99    0.57
  -4   1  13   30.40    0.52
  -5   0  10   89.71    1.09
  -5  -1   5   45.16    1.08
  -5  -1   8   49.78    1.09
  -3  -3   9  131.42    1.35
  -5  -1   6   38.19    1.01
  -2  -1  14    0.67    0.28
  -4  -2   9    0.88    0.69
  -4   0  12   64.51    0.87
  -4  -1  11    0.52    0.63
  -2  -3  10   25.05    0.86
  -3  -2  11    7.94    0.65
  -3  -3   7   68.02    1.16
  -4   3  12   18.97    0.55
  -4  -2   8   37.17    1.01
  -5   2   9   86.61    1.09
  -5   1   9   29.60    0.87
  -5   0   8   48.79    1.04
  -4  -2   7  118.29    1.46
  -5   2   7  133.28    1.40
  -5   2   8    2.09    0.67
  -5   1   6   56.69    1.10
  -1  -2  13    1.06    0.34
  -3   1  14    3.33    0.38
  -5   1   7   15.05    0.89
  -5   1   8   53.78    1.05
  -2   1  15    5.18    0.29
  -2  -2  12   40.58    0.76
  -3   2  14    0.47    0.34
  -2  -3   9    1.00    0.73
  -3  -1  12    8.91    0.60
  -3  -2  10    1.58    0.67
  -4   0  11   17.91    0.80
  -3   0  13   46.01    0.82
  -4  -1   9   66.21    1.20
  -1   0  15    8.42    0.33
  -1  -1  14   38.05    0.62
  -2   2  15    0.25    0.28
  -2  -3   8  101.41    1.29
  -4   3  11    0.46    0.52
  -2  -1  13   45.33    0.79
  -3  -2   9   56.28    1.10
  -4   1  11    2.66    0.66
  -4  -1   8    0.61    0.62
  -2   0  14   21.60    0.55
  -4   2  11  144.08    1.35
  -4   0  10    4.46    0.62
  -2  -2  11   21.09    0.78
  -3   1  13   61.74    0.94
  -3  -1  11   80.13    1.18
  -3  -2   8   44.55    1.11
  -4   3  10  110.57    1.19
  -1  -2  12   56.02    0.86
  -3   4  12    0.57    0.47
  -3   3  13    0.37    0.45
  -4   0   9  119.66    1.49
  -3   2  13   47.31    0.82
  -4   3   9    4.26    0.85
  -4   2  10    3.89    0.72
  -4   1  10   19.56    0.91
  -4   0   8    2.85    0.79
  -3  -1  10   73.55    1.20
   8   3   9    0.04    0.24
   4   5   9    3.50    0.49
   4   4  10   41.18    0.86
   4   0  10    0.40    0.48
   3   5   8  105.19    1.15
   3   3  10    4.52    0.65
   8   1   9   -0.04    0.23
   7   3  10    3.71    0.41
   7   1  10    5.82    0.38
   6   4  10    2.73    0.51
   5   5   9    1.07    0.60
   3   2  10   40.49    0.78
   5   4  10   18.86    0.73
   5   0  10  155.41    1.13
   7   4   9    4.92    0.40
   4   3  10   72.67    1.00
   8   0   8   25.04    0.37
   6   5   8   70.94    0.84
   6   3  10   80.60    0.97
   4   5   8  121.50    1.20
   4   2  10  220.17    1.48
   3   5   7   48.27    0.85
   7   0   9   10.55    0.39
   5   5   8   56.67    0.88
   5   3  10   -0.57    0.57
   5   1  10   12.65    0.60
   4   4   9   51.94    0.93
   6   4   9   55.45    0.84
   6   2  10   68.47    0.79
   5   2  10   18.67    0.68
   5   4   9   12.06    0.65
   7   4   8    0.14    0.39
   6   5   7    0.87    0.43
   4   5   7   13.94    0.65
   4   3   9   26.35    0.73
   8   2   8    2.84    0.31
   8   1   8   68.23    0.60
   7   2   9   71.96    0.80
   5   5   7    1.79    0.53
   5   3   9   43.94    0.84
   4   2   9    0.56    0.47
   6   4   8    1.22    0.51
   6   1   9   29.53    0.66
   8   3   7    4.42    0.35
   5   2   9    3.80    0.56
   5   1   9   87.28    0.97
   4   5   6  167.05    1.31
   8   0   7    0.41    0.33
   7   4   7   67.94    0.76
   7   3   8  103.64    0.97
   7   0   8   19.44    0.51
   5   5   6    4.39    0.56
   8   4   5    0.76    0.27
   9   2   5   11.66    0.28
   8   2   7   59.54    0.65
   7   2   8    3.66    0.48
   7   1   8    7.36    0.48
   6   3   8   10.54    0.61
   6   0   8   63.57    0.79
   5   0   8   32.58    0.64
   8   3   6   20.87    0.48
   5   5   5   12.84    0.59
   7   3   7    0.96    0.49
   6   2   8   21.84    0.67
   5   1   8    1.64    0.49
   9   2   4    2.77    0.25
   8   0   6    6.26    0.46
   9   0   4    2.98    0.24
   7   2   7    7.21    0.54
   8   3   5    1.93    0.38
   7   4   5   52.54    0.73
   5   3   7   -0.16    0.49
   9   1   4   23.64    0.35
   7  -1   6    2.67    0.37
   9   2   3   52.73    0.48
   8   4   1    0.66    0.26
   7   3   6   95.82    0.97
   6   2   7   72.25    0.94
   6   0   7   -0.31    0.46
   6   4   5   14.60    0.60
   9   0   3   21.50    0.34
   8   3   4   50.49    0.62
   8   2   5   55.99    0.69
   6   3   6   30.62    0.70
   5   4   5  234.64    1.46
   9   2   2   27.32    0.36
   9  -1   2   70.55    0.44
   8   1   5    0.68    0.40
   7   0   6    6.46    0.49
   7   3   5   21.24    0.64
   8   3   3   10.09    0.41
   8  -1   4   28.64    0.47
   7   4   3    3.90    0.43
   6   4   4    7.60    0.55
   9   2   1    2.53    0.21
   7  -1   5   52.29    0.67
   6   2   6    1.14    0.53
   6   0   6  135.92    1.09
   9   2   0   48.90    0.40
   9   1   2    0.89    0.26
   8   2   4    6.48    0.45
   5   4   4    4.28    0.55
   7   4   2   73.07    0.79
   7   2   5   48.90    0.78
   6   3   5   18.41    0.66
   8   1   4   25.05    0.59
   8   0   4    0.55    0.38
   9   1   1   23.51    0.37
   7   4   1    3.21    0.46
   7   1   5    1.72    0.47
   7   0   5   26.65    0.62
   6   4   3   35.58    0.71
   8  -2   2    0.34    0.28
   6  -1   5   13.61    0.49
   9  -1   0    0.42    0.22
   8  -1   3    9.76    0.39
   7   4   0   10.46    0.41
   6   2   5  136.78    1.17
   9   1   0   19.43    0.35
   8   3   0    7.67    0.40
   7   4  -1    1.26    0.30
   7   2   4    9.52    0.54
   6   4   2    0.14    0.47
   9   1  -1    0.28    0.22
   9   0   0    1.84    0.27
   8   3  -2    0.59    0.23
   8   3  -1    8.96    0.37
   8   1   3    3.93    0.47
   6   1   5    7.59    0.52
   6   0   5   56.43    0.79
   9   1  -2    2.53    0.19
   9  -1  -1   13.43    0.25
   8   2   2   11.62    0.50
   7   0   4   36.20    0.67
   9   0  -3    8.55    0.19
   9   0  -2   33.76    0.35
   8   2   1   34.91    0.60
   8  -1   2    9.25    0.40
   8  -2   1   64.36    0.60
   7   2   3  101.80    1.02
   6   2   4    7.31    0.55
   8   1   2  103.68    0.86
   7   3   1    2.55    0.44
   7  -1   3   13.55    0.51
   8   2   0    6.86    0.42
   8   1   1   10.07    0.50
   7   1   3    0.44    0.36
   7  -2   2   78.55    0.77
   6   3   2   45.26    0.77
   8   2  -1   26.35    0.52
   8  -1   1    0.62    0.37
   8  -2   0    0.71    0.30
   7   2   2    6.14    0.55
   6   2   3    2.74    0.53
   8   0   1    3.44    0.43
   8   2  -3    0.51    0.30
   8  -3  -3    0.81    0.17
   8   1  -6    3.39    0.20
   8   1   0   37.93    0.64
   7   3  -4    0.81    0.29
   6   3   1   42.24    0.74
   8  -2  -1   11.16    0.44
   8  -3  -4   17.32    0.25
   7   3  -2    0.04    0.39
   7   2   1    6.85    0.53
   7   1   2    7.12    0.44
   7  -1   2   98.04    0.94
   8   1  -1   34.69    0.61
   7  -2   1    0.33    0.43
   7   2   0   66.54    0.85
   6   3   0   14.88    0.63
   8   1  -4   17.59    0.41
   8   1  -3   52.97    0.63
   8   0  -1   44.15    0.66
   8  -2  -2    6.68    0.39
   7   1   1    9.32    0.58
   7  -1   1    0.44    0.45
   8   0  -6   54.81    0.45
   8   0  -2    1.01    0.42
   8  -2  -3   57.61    0.62
   7   0   1  104.46    1.05
   6   3  -1    7.58    0.59
   8  -2  -4    0.63    0.27
   7   1   0  113.42    1.09
   7  -2   0   22.01    0.56
   8   0  -4   12.42    0.42
   8  -1  -6   30.76    0.38
   8  -1  -3   16.87    0.46
   7   2  -5    3.74    0.40
   7   1  -8    1.26    0.20
   8  -1  -5   28.53    0.44
   7   2  -4   16.52    0.55
   7   2  -3   18.84    0.57
   7   0   0    1.85    0.49
   7  -1   0   30.50    0.65
   6   3  -4    0.44    0.42
   6   3  -3   16.19    0.56
   7   1  -1    1.39    0.52
   7  -3  -2   43.57    0.65
   7   1  -7    7.89    0.33
   7   1  -2   76.56    0.93
   7  -3  -3   20.69    0.48
   7   1  -3   33.63    0.72
   7   1  -4    3.68    0.49
   7   0  -8   65.29    0.55
   7  -1  -9   13.85    0.27
   7  -2  -9   21.37    0.28
   6   2  -2   35.86    0.75
   7  -3  -8   29.68    0.35
   6   2  -7   15.83    0.47
   6   2  -3    2.45    0.51
   7   0  -7   16.34    0.48
   7   0  -3    8.25    0.44
   7  -2  -3  121.72    1.00
   7  -3  -7   -0.14    0.30
   7  -3  -5    0.05    0.38
   6   2  -6    8.74    0.50
   7   0  -4   44.04    0.78
   7  -1  -8   15.70    0.39
   7  -1  -3   -0.73    0.48
   7  -3  -6  143.87    0.86
   6   2  -5    9.01    0.56
   7   0  -6    0.28    0.43
   7   0  -5   52.22    0.78
   7  -2  -4    1.89    0.47
   7  -1  -7   67.94    0.72
   7  -1  -4  116.99    1.05
   7  -2  -7   39.72    0.56
   6   1  -2    5.93    0.53
   7  -1  -6   10.49    0.51
   7  -1  -5   13.57    0.58
   7  -2  -6   12.48    0.47
   6  -2 -11   58.15    0.39
   6   1  -8    1.45    0.42
   6  -4  -9   32.50    0.40
   6   1  -7   92.23    0.92
   6  -2  -2    3.93    0.53
   6  -4  -5    0.78    0.40
   6   1  -6    6.37    0.56
   6  -1 -10    3.40    0.33
   6  -3 -10   63.08    0.53
   6  -4  -8    0.91    0.29
   6  -4  -7   87.74    0.76
   6  -4  -6    9.62    0.42
   5   2  -7   11.45    0.55
   5   1 -10    2.75    0.41
   6   0  -3  120.10    1.16
   6  -2 -10    9.85    0.36
   6  -2  -3   49.14    0.81
   6  -3  -4  131.54    1.10
   6   0  -8   13.20    0.43
   6   0  -4   22.51    0.73
   6  -1  -3    0.71    0.40
   6   0  -7   12.21    0.63
   6   0  -5   36.17    0.80
   6  -1  -9   11.06    0.52
   6  -3  -5    1.25    0.49
   5   0 -11   31.29    0.49
   5  -5  -9    0.23    0.22
   6   0  -6   33.37    0.67
   6  -2  -9    3.95    0.44
   6  -2  -4   -0.25    0.58
   5   1  -9   22.88    0.58
   5  -3 -12   19.97    0.31
   6  -1  -8   76.53    0.89
   6  -3  -7    3.98    0.48
   6  -3  -6    1.02    0.46
   5  -4 -11  100.22    0.63
   6  -1  -6   87.79    1.04
   6  -1  -5    1.70    0.59
   4   1 -11    1.45    0.35
   6  -2  -7   37.13    0.78
   5   1  -8   48.07    0.82
   5   0 -10   85.47    0.89
   4  -1 -13   28.68    0.41
   5   1  -7   26.85    0.63
   5   1  -6   37.12    0.79
   4   0 -12   65.19    0.70
   5  -3 -11    4.84    0.39
   5  -4 -10    1.25    0.36
   5  -4  -9   19.85    0.62
   5  -4  -6   45.13    0.85
   4   1 -10   29.75    0.66
   4  -2 -13   42.25    0.52
   4  -3 -13    8.16    0.36
   4  -5 -11    4.25    0.31
   5  -1 -10   41.92    0.73
   3   0 -13   45.81    0.58
   5  -3 -10   27.70    0.62
   5  -4  -8    9.28    0.50
   5  -4  -7    7.75    0.56
   5   0  -7  103.91    1.09
   5   0  -6    0.87    0.58
   5  -2 -10    7.37    0.56
   5  -1  -9   29.81    0.77
   5  -3  -5   27.38    0.63
   4   1  -9   67.18    0.93
   4  -5 -10   18.24    0.50
   5  -1  -8   53.25    0.94
   5  -2  -9   85.29    1.02
   5  -3  -6  108.05    1.13
   3  -2 -14    0.54    0.28
   5  -1  -7   15.16    0.76
   5  -1  -6   56.94    0.95
   5  -3  -7    3.05    0.57
   4   1  -8    0.47    0.62
   3   1 -11   82.38    0.90
   3  -3 -14   60.04    0.53
   5  -2  -8    1.90    0.63
   5  -2  -7  133.51    1.25
   5  -2  -6    0.99    0.59
   4  -2 -12    4.01    0.47
   4  -3 -12   18.47    0.54
   4  -5  -9   44.79    0.65
   4  -5  -8    8.56    0.51
   4  -1 -11    2.73    0.53
   3   0 -12    1.01    0.51
   3  -1 -13   62.75    0.74
   3  -5 -12    4.20    0.34
   4   0  -9  119.27    1.23
   3   1 -10   70.90    0.99
   3  -4 -13   22.48    0.45
   4  -2 -11  139.63    1.21
   4  -3 -11   -0.10    0.53
   4  -4 -10    8.69    0.54
   4  -1 -10   20.22    0.73
   3  -2 -13   47.70    0.71
   2   0 -13    0.98    0.54
   2  -1 -14  101.13    0.81
   4  -4  -9   62.34    0.88
   3   1  -9   18.55    0.71
   4  -4  -8    6.61    0.48
   5  -3  -7    3.52    0.49
   5  -4  -8    9.96    0.45
   4  -3 -10  107.66    1.02
   1  -1 -11    7.93    0.58
   3  -1  -9   10.11    0.61
   3  -4 -12    0.40    0.46
   1  -3 -13    0.74    0.42
   5  -5  -7   46.57    0.56
   3  -5 -12    4.10    0.37
   2  -1 -10   49.40    0.85
   5  -3  -6  104.85    0.92
   4  -4 -10    8.60    0.54
   5  -3  -5   27.95    0.58
   5  -5  -6    0.77    0.42
   4  -2  -8    7.41    0.59
   4  -5 -10   18.98    0.46
   4  -7  -8   10.61    0.25
   3  -2 -10    5.08    0.60
   3  -3 -11    0.83    0.59
   5  -4  -6   43.62    0.69
   4  -6  -9    1.06    0.33
   3  -4 -11   61.19    0.81
   3  -6 -11    9.21    0.37
   4  -4  -9   62.85    0.83
   2  -4 -12   33.49    0.65
   1  -5 -13   58.95    0.62
   4  -3  -8   60.08    0.88
   3  -2  -9  167.37    1.24
   3  -3 -10    0.56    0.55
   2  -6 -12   47.18    0.54
   1  -3 -12   79.70    0.93
   2  -5 -12   49.71    0.71
   4  -6  -8  138.65    0.88
   0  -6 -13    2.46    0.27
   1  -7 -12    0.02    0.22
   0  -5 -13    1.46    0.36
  -1  -6 -13    0.90    0.23
   4  -5  -8    8.80    0.48
   3  -8  -7   -0.32    0.14
   2  -7 -11   82.35    0.59
   0  -3 -12   35.48    0.72
   3  -3  -9   27.34    0.76
   3  -6 -10   54.76    0.65
   3  -5 -10   43.29    0.72
   3  -7  -9   49.06    0.52
   2  -4 -11    1.56    0.57
   4  -4  -7   74.60    0.87
   1  -6 -12   57.38    0.63
   4  -5  -7   29.70    0.63
   2  -5 -11   16.34    0.61
   2  -6 -11    6.30    0.47
   1  -3 -11   35.71    0.77
   4  -6  -6   67.28    0.69
   3  -4  -9   40.64    0.79
   4  -4  -6   80.40    0.86
   3  -6  -9    1.11    0.46
   0  -4 -12  105.43    1.02
   0  -8 -11    4.94    0.22
   4  -5  -6   21.11    0.58
   3  -5  -9    4.02    0.53
   2  -7 -10    0.41    0.35
  -1  -7 -12   13.98    0.34
   1  -7 -11    2.28    0.35
   1  -8 -10    2.23    0.25
   0  -3 -11   41.24    0.77
   0  -5 -12    5.47    0.49
   0  -6 -12   74.31    0.72
  -1  -4 -12   14.29    0.55
   2  -4 -10  117.62    1.07
   3  -4  -8  162.81    1.23
   2  -6 -10   14.01    0.55
   3  -7  -7   46.48    0.59
   2  -5 -10    0.30    0.41
   2  -8  -8   18.92    0.39
   1  -3 -10    4.40    0.55
   1  -5 -11   53.26    0.81
   1  -6 -11   10.84    0.51
  -1  -5 -12    0.59    0.43
  -1  -6 -12   35.65    0.56
   2  -7  -9    6.26    0.43
   2  -4  -9   50.74    0.86
   0  -4 -11    1.81    0.55
   0  -7 -11   55.04    0.62
   3  -6  -7    6.69    0.48
   2  -8  -7   38.62    0.53
   1  -7 -10   14.97    0.52
   1  -8  -9   16.92    0.41
   0  -8 -10   38.00    0.47
   3  -5  -7   55.45    0.83
   2  -5  -9   98.50    1.02
   2  -6  -9    1.56    0.51
   0  -9  -8    4.04    0.25
   3  -7  -5    0.14    0.36
   0  -5 -11   24.82    0.55
  -1  -4 -11    4.83    0.56
   1  -6 -10   96.64    0.99
  -2  -7 -11   19.83    0.46
   2  -8  -6    3.36    0.32
  -1  -8 -10    0.46    0.26
   3  -5  -6   -0.03    0.43
   1  -9  -5    0.34    0.22
  -1  -5 -11   45.43    0.76
  -1  -6 -11    0.77    0.46
  -2  -8 -10   10.88    0.29
   2  -6  -8  210.34    1.30
   1  -7  -9   53.51    0.73
   1  -8  -8   40.98    0.53
   0  -4 -10  139.65    1.17
   0  -7 -10   10.06    0.48
   3  -6  -5    0.23    0.41
   2  -5  -8    1.56    0.36
   2  -8  -5   31.62    0.52
   1  -4  -9   11.29    0.58
   0  -8  -9   11.90    0.44
  -1  -9  -8   50.15    0.43
  -2  -6 -11   61.49    0.71
   2  -7  -7   33.16    0.62
   2  -8  -4    2.66    0.35
   1  -5  -9    0.19    0.51
   1  -6  -9    0.96    0.52
   0  -6 -10   52.60    0.79
  -1  -4 -10   98.97    1.00
  -1  -7 -10   23.80    0.56
  -3  -7 -10   25.82    0.47
   2  -5  -7   37.73    0.62
   2  -7  -6    7.26    0.47
   1  -7  -8   12.30    0.55
  -1  -8  -9   77.08    0.69
  -3  -8  -9   37.17    0.43
   0  -7  -9    0.52    0.49
   0  -8  -8    8.48    0.44
  -1  -5 -10    1.47    0.52
  -1  -6 -10   88.74    0.93
  -1  -9  -7    0.12    0.24
  -2  -7 -10   61.52    0.68
  -2  -8  -9   15.63    0.42
   2  -6  -6   64.40    0.81
   2  -7  -5   88.18    0.82
   1  -5  -8    0.59    0.50
   1  -6  -8   46.31    0.78
   1  -8  -6    9.16    0.46
  -2  -9  -7   10.23    0.32
  -3  -6 -10   29.51    0.61
   0  -6  -9   11.87    0.60
   0  -9  -5    0.12    0.27
  -2  -5 -10    0.49    0.51
  -2  -6 -10   10.79    0.51
   1  -7  -7   41.02    0.68
   0  -8  -7  115.02    0.89
   0  -9  -4   72.95    0.57
  -1  -7  -9   36.02    0.68
  -1  -8  -8    1.01    0.39
  -1  -9  -6   27.08    0.40
   2  -6  -5   43.33    0.67
   1  -8  -5   66.59    0.69
   1  -6  -7   13.47    0.56
   0  -9  -3   14.03    0.33
  -3  -9  -6    5.93    0.21
   0  -9  -2    2.83    0.21
  -1  -5  -9    0.66    0.52
  -2  -8  -8   -0.23    0.39
  -2  -9  -6   33.97    0.43
  -3  -7  -9    1.43    0.41
   1  -8  -4    3.03    0.37
   0  -6  -8   82.10    0.95
   2  -6  -4    3.42    0.44
   0  -8  -6    0.40    0.41
   1  -8  -3  123.19    0.84
  -1  -7  -8    6.57    0.55
  -1  -8  -7    1.96    0.45
  -2  -5  -9   70.39    0.87
  -2  -6  -9   47.64    0.74
  -3  -6  -9   62.59    0.86
   1  -6  -6   45.29    0.73
  -2  -9  -5    0.79    0.33
  -3  -9  -5   53.06    0.47
  -4  -8  -7   58.59    0.49
   1  -8  -2    1.33    0.31
  -4  -7  -8   83.95    0.70
  -2  -7  -8   71.58    0.80
  -2  -8  -7  156.33    1.03
  -5  -7  -7    1.49    0.25
   0  -6  -7    0.82    0.48
  -1  -9  -3    1.99    0.28
  -3  -8  -7    0.11    0.34
   0  -7  -6    5.97    0.51
  -1  -8  -6    3.84    0.45
  -1  -9  -2   46.39    0.45
  -1  -9  -1   -0.04    0.23
  -2  -9  -4   38.12    0.45
  -3  -9  -4    2.09    0.28
  -1  -7  -7   -0.06    0.53
  -4  -6  -8    0.49    0.39
  -2  -5  -8   64.17    0.82
  -2  -8  -6    0.72    0.44
  -3  -9  -3   32.91    0.39
   1  -7  -3   17.80    0.51
   0  -6  -6   97.92    0.94
  -1  -8  -5   73.60    0.80
  -2  -9  -2    0.04    0.27
  -3  -6  -8    0.45    0.47
   0  -8  -3    9.91    0.45
  -1  -6  -7  111.22    1.03
  -2  -7  -7    0.22    0.48
  -3  -5  -8  106.55    1.01
  -3  -8  -6   14.16    0.46
  -3  -9  -2    6.52    0.24
  -4  -7  -7    4.87    0.41
   1  -7  -2   20.12    0.56
  -1  -7  -6  111.93    1.02
   0  -8  -2    8.91    0.42
  -5  -7  -6   29.25    0.44
   0  -8  -1   96.49    0.79
  -1  -8  -4    1.14    0.44
  -2  -8  -5   19.11    0.58
  -4  -8  -5   17.69    0.41
  -6  -7  -4    0.34    0.20
  -3  -8  -5   36.57    0.54
  -4  -6  -7   14.43    0.54
  -1  -6  -6   32.62    0.65
  -1  -7  -5    0.22    0.49
  -2  -7  -6   25.81    0.57
  -3  -6  -7  124.52    1.11
  -5  -8  -3    0.26    0.19
  -2  -8  -4   15.11    0.53
  -4  -7  -6    0.96    0.41
   0  -7  -3    2.01    0.42
  -3  -5  -7   48.72    0.76
  -4  -5  -7   14.54    0.56
  -4  -8  -4   72.28    0.68
  -1  -8  -2   20.14    0.53
  -3  -8  -4   -0.15    0.42
  -5  -7  -5    4.94    0.36
  -5  -8  -2   25.21    0.34
  -2  -6  -6   11.65    0.52
  -6  -7  -3    0.57    0.24
   0  -7  -2  160.48    1.06
  -1  -7  -4  144.17    1.12
  -1  -8  -1    0.97    0.39
  -2  -7  -5    8.02    0.55
  -5  -8  -1    0.29    0.18
  -1  -8   0   42.71    0.56
  -3  -8  -3   35.29    0.60
  -4  -8  -3   10.07    0.41
  -3  -6  -6    0.30    0.51
  -3  -7  -5    2.95    0.52
  -4  -6  -6    5.10    0.51
   0  -7  -1   10.74    0.44
  -2  -8  -2   40.87    0.55
  -2  -8   3    0.19    0.18
  -5  -7  -4   17.52    0.44
  -1  -7  -3   16.78    0.56
  -3  -8  -2   53.84    0.66
  -4  -8  -2   18.61    0.44
  -6  -7  -2    6.02    0.24
  -2  -7  -4   87.52    0.86
  -3  -8   3    2.80    0.18
  -4  -5  -6  168.35    1.19
  -5  -6  -5    3.04    0.39
  -6  -6  -4    1.20    0.28
  -2  -6  -5  173.79    1.14
  -2  -8   0   12.21    0.44
  -2  -8   2   74.47    0.58
  -4  -8  -1    2.90    0.33
  -2  -8   1    1.54    0.34
  -3  -7  -4   39.36    0.74
  -3  -8  -1    0.74    0.38
  -4  -7  -4   26.03    0.58
  -4  -8   0   14.58    0.36
  -4  -8   1    0.69    0.22
  -3  -8   0   65.59    0.63
  -3  -8   2    7.34    0.29
  -4  -6  -5  105.49    0.99
  -2  -7  -3    0.51    0.48
  -6  -7   1   36.17    0.32
  -5  -5  -5   12.56    0.49
  -1  -7  -1   34.42    0.63
  -4  -7  -3    6.31    0.51
  -6  -6  -3    0.58    0.30
  -5  -7  -2    1.59    0.36
  -1  -7   0  113.70    0.91
  -2  -7  -2   81.65    0.80
  -3  -6  -4   19.00    0.61
  -4  -6  -4    4.69    0.49
  -1  -7   1    1.74    0.38
  -3  -7  -2    1.75    0.47
  -4  -7  -2   28.19    0.63
  -5  -7  -1   44.68    0.60
  -6  -6  -2   95.81    0.77
  -2  -7  -1   28.26    0.56
  -4  -7   5   36.14    0.32
  -5  -6  -3   36.90    0.63
  -5  -7   0    1.06    0.34
  -5  -7   3   89.54    0.54
  -3  -7   5   91.58    0.56
  -4  -7  -1   50.23    0.72
  -5  -7   1    2.63    0.33
  -6  -5  -3   62.11    0.71
  -7  -5  -1   64.95    0.53
  -2  -7   4    1.37    0.28
  -6  -6  -1    2.54    0.34
  -2  -7   1  107.38    0.89
  -3  -7   0   24.36    0.60
  -4  -5  -4    5.89    0.51
  -4  -7   0    0.37    0.43
  -2  -7   2   14.50    0.47
  -3  -7   4    3.49    0.38
  -3  -7   1    3.84    0.45
  -4  -7   2    5.49    0.41
  -6  -6   4   61.04    0.44
  -7  -5   0    0.31    0.24
  -3  -7   3   90.69    0.75
  -3  -6  -2    2.48    0.39
  -4  -6  -2   57.71    0.81
  -5  -5  -3    9.84    0.48
  -6  -5  -2   36.10    0.59
  -6  -6   1    1.17    0.29
  -7  -5   1   39.72    0.44
  -4  -6   7   18.35    0.25
  -5  -6  -1   13.76    0.53
  -6  -6   2    2.84    0.31
  -6  -6   3   12.54    0.31
  -7  -5   2    5.33    0.24
  -3  -6   7    0.23    0.22
  -4  -6  -1    6.91    0.40
  -5  -6   0   78.77    0.84
  -6  -5  -1   14.16    0.46
  -5  -5  -2   26.98    0.62
  -5  -6   5    8.91    0.28
  -6  -4  -2    0.02    0.37
  -2  -6   1   94.17    0.88
  -3  -6   0   62.47    0.73
  -4  -6   0   36.70    0.62
  -4  -6   6   41.47    0.45
  -5  -6   2   87.42    0.81
  -5  -6   4   23.35    0.45
  -7  -4   0   11.22    0.36
   0   2  14    2.49    0.33
   0  -1  15   23.29    0.27
  -1   2  13   29.95    0.48
  -2   2  11  133.25    0.95
  -3   1   9    9.73    0.47
  -3  -2  10    1.14    0.37
  -1  -1  14   37.28    0.42
  -3   0  10   57.16    0.73
  -3  -3   8   23.87    0.48
  -1   0  14   12.44    0.35
  -2  -3  11   85.85    0.64
  -3  -1  10   70.90    0.75
  -2   2  10   27.37    0.56
  -3  -2   9   56.34    0.68
   1   1  15    1.32    0.21
  -2   0  12    9.93    0.49
  -3   0   9    7.27    0.38
  -1   2  12   34.31    0.60
  -1  -4  11    0.91    0.22
  -2  -1  12   77.40    0.74
  -3  -1   9   18.81    0.56
  -3  -2   8   45.37    0.63
   1   2  14    8.35    0.31
  -1  -2  13    1.32    0.31
   2   1  15    2.55    0.22
   1  -1  15    0.21    0.17
   0   2  13   89.09    0.79
   0   1  14   84.56    0.68
   0  -2  14    1.41    0.25
   0  -4  12   27.29    0.32
  -1  -3  12   24.69    0.41
  -2  -3  10   24.51    0.48
  -1   0  13  104.77    0.83
  -2   0  11   50.28    0.65
  -2  -1  11   -0.39    0.45
   0   0  14    6.63    0.35
   0  -1  14   11.10    0.37
   2  -1  15    3.04    0.22
  -1  -4  10  125.42    0.76
  -2  -3   9    1.46    0.38
   2   0  15   61.25    0.44
  -2   0  10    3.22    0.47
   1   1  14    1.53    0.34
   0   2  12    1.45    0.42
  -1  -2  12   54.65    0.59
  -2  -1  10   63.88    0.75
   1  -2  14   15.26    0.32
   0   1  13   11.64    0.47
  -1   0  12    2.48    0.48
  -1  -3  11   40.80    0.56
  -2  -3   8   98.85    0.80
   0  -2  13  109.04    0.77
   0  -4  11   54.35    0.56
  -1   1  11    8.41    0.55
  -1  -1  12    6.48    0.38
  -2  -2   9   31.44    0.60
   1  -4  12   36.41    0.38
   1  -1  14   92.72    0.67
   0   0  13    3.90    0.43
   2   1  14   56.65    0.55
   0   2  11   85.51    0.82
  -1  -2  11   66.87    0.73
   2  -2  14    1.34    0.23
   0   1  12   45.72    0.68
  -1   0  11  165.05    1.04
  -1  -3  10   16.05    0.51
   1   2  12   72.39    0.75
  -1  -1  11   22.71    0.49
   3   1  14    0.66    0.23
   1   1  13   22.90    0.53
   3  -2  14    3.10    0.27
   2   0  14   10.26    0.38
   1  -2  13    0.46    0.34
   0  -2  12    8.24    0.46
   0  -4  10    3.55    0.36
   2  -3  13    9.61    0.30
   2  -4  12   15.94    0.29
   0   0  12    7.26    0.47
   0  -3  11   11.27    0.44
  -1  -3   9   43.48    0.61
   1  -4  11    1.10    0.33
   0   1  11   14.46    0.53
  -1  -1  10   73.33    0.78
   4   0  14   47.34    0.42
   3   0  14    2.59    0.30
   1  -1  13    1.02    0.31
   3  -1  14   75.82    0.54
   2   1  13    7.42    0.40
   2  -5  10    0.48    0.23
   4  -3  13    6.25    0.22
   3  -4  12   13.19    0.28
   1   1  12   59.24    0.72
   0  -4   9   36.00    0.53
   2  -2  13   94.86    0.68
   0   0  11  136.56    1.01
   1  -2  12   38.26    0.60
   0  -1  11   -0.19    0.47
   0  -3  10   81.41    0.74
   3   1  13   63.31    0.59
   2  -1  13    2.57    0.38
   4   1  13   17.95    0.40
   2  -3  12    9.47    0.36
   2  -4  11   72.91    0.57
   1  -4  10   53.50    0.57
   3  -2  13    6.45    0.32
   3  -5  10   72.13    0.46
   0  -4   8   95.51    0.74
   5  -2  13   20.23    0.25
   4  -5  10    0.12    0.17
   2   1  12   31.05    0.54
   1   1  11    7.04    0.44
   0  -2  10   28.64    0.58
   4  -2  13   52.69    0.46
   3   0  13  111.91    0.76
   2  -5   9   19.45    0.39
   0  -3   9    0.30    0.38
   5   0  13   12.25    0.28
   3  -1  13    8.67    0.37
   3  -3  12  126.07    0.71
   3  -4  11    0.41    0.28
   2  -2  12   -0.06    0.38
   1  -2  11  223.78    1.15
   5  -3  12   98.95    0.48
   4  -1  13    5.47    0.33
   1  -1  11    7.56    0.47
   1  -4   9  107.05    0.76
   4  -3  12   15.75    0.34
   3   1  12   25.14    0.48
   2  -1  12   77.35    0.66
   2  -4  10    2.45    0.33
   6  -2  12   25.54    0.25
   2  -3  11    0.67    0.25
   5   1  12    1.11    0.23
   3  -5   9    3.45    0.25
   6   0  12   57.73    0.39
   4   1  12    1.32    0.32
   3  -2  12    2.23    0.27
   2  -5   8   67.98    0.55
   6  -1  12   16.35    0.27
   3   0  12    9.35    0.39
   3  -1  12    2.25    0.36
   1  -2  10   -0.20    0.38
   5  -2  12   17.07    0.34
   5  -5   9    2.96    0.17
   4  -5   9    0.25    0.25
   2  -2  11   24.13    0.52
   1  -4   8    1.08    0.32
   6  -3  11   18.81    0.25
   3  -3  11    1.11    0.34
   3  -4  10    0.07    0.29
   2  -1  11   10.24    0.41
   1  -3   9   12.68    0.43
   5   0  12   32.90    0.44
   4   0  12   46.55    0.53
   4  -1  12   70.32    0.61
   3   1  11    0.74    0.34
   2  -4   9   46.64    0.55
   5  -3  11    3.56    0.28
   4  -3  11    0.69    0.31
   3  -5   8   33.68    0.44
   3  -2  11  110.28    0.76
   5   1  11    0.52    0.26
   4   1  11  112.02    0.76
   3   0  11   30.74    0.50
   2  -2  10    4.58    0.37
   6  -2  11    1.05    0.23
   6   0  11   -0.09    0.22
   4  -2  11   30.41    0.48
   4  -5   8   62.97    0.47
   3  -3  10   14.88    0.39
   3  -4   9  132.91    0.75
   2  -1  10   81.53    0.70
   2  -4   8    0.48    0.31
   5  -2  11   28.30    0.43
   5  -5   8   41.40    0.37
   4   0  11   14.32    0.38
   7  -2  10    9.47    0.20
   6  -3  10   55.95    0.42
   5   0  11   10.52    0.34
   4  -1  11   12.46    0.39
   7   0  10   76.52    0.43
   4  -3  10   71.49    0.60
   3  -5   7    0.30    0.24
   7  -4   8    1.29    0.15
   3  -2  10    9.04    0.38
   7  -1  10    2.31    0.20
   4   1  10    0.08    0.30
   3   0  10  177.59    0.88
   7  -3   9   64.59    0.37
   6  -5   7    2.46    0.18
   5   1  10   12.01    0.39
   3  -1  10   90.32    0.64
   4  -5   7    2.36    0.23
   3  -3   9    7.38    0.30
   3  -4   8    1.33    0.23
   6  -2  10   30.21    0.40
   5  -5   7   27.65    0.37
   6   0  10    0.11    0.26
   5  -2  10   18.83    0.41
   4   0  10    0.84    0.28
   4  -1  10    8.19    0.37
   3  -5   6   11.73    0.30
   8   0   8   22.93    0.23
   8  -2   8    5.11    0.14
   5   0  10  150.61    0.81
   4  -3   9    1.58    0.30
   7  -2   9    3.42    0.22
   6  -3   9    3.35    0.25
   6  -4   8   24.81    0.31
   7   0   9   10.40    0.28
   5  -3   9   89.77    0.63
   8  -1   8    2.57    0.15
   8  -3   7   67.91    0.32
   7  -1   9    0.32    0.21
   7  -4   7    9.59    0.20
   7  -3   8    0.26    0.19
   7  -5   5   10.07    0.18
   6  -5   6   27.67    0.29
   4  -5   6   79.47    0.53
   6  -2   9    4.88    0.29
   5  -5   6   18.59    0.30
   4  -2   9   41.73    0.45
   5  -2   9   19.88    0.41
   8  -4   5    5.24    0.15
   6   0   9    8.86    0.33
   4  -3   8   62.85    0.55
   4  -4   7   23.32    0.38
   6  -3   8   12.23    0.33
   6  -4   7   11.57    0.28
   5   0   9    2.74    0.28
   8  -2   7    5.67    0.17
   7  -2   8   98.44    0.56
   5  -3   8    1.38    0.30
   8   0   7    0.43    0.13
   8  -3   6    0.38    0.14
   7  -4   6   44.63    0.34
   6  -5   5   36.44    0.34
   8  -1   7   19.50    0.25
   7   0   8   17.35    0.30
   7  -3   7    0.49    0.21
   5  -5   5   21.81    0.33
   4  -2   8    3.43    0.22
   6  -2   8   42.93    0.48
   5  -2   8  162.83    0.82
   8  -4   4   19.85    0.20
   4  -3   7   68.27    0.53
   9  -2   4    0.69    0.09
   6   0   8   62.06    0.52
   6  -3   7   93.19    0.62
   5   0   8   31.03    0.41
   8  -2   6   28.82    0.30
   7  -2   7    3.52    0.25
   5  -3   7    1.23    0.27
   8   0   6    5.99    0.22
   8  -3   5   64.01    0.37
   7  -4   5    0.01    0.17
   7  -5   3    7.52    0.17
   6  -5   4    1.86    0.20
   4  -5   4    2.11    0.22
   9  -1   4   21.27    0.18
   8  -1   6   66.98    0.42
   7   0   7   49.71    0.43
   7  -3   6    5.24    0.27
   5  -5   4   33.11    0.36
   8  -4   3    7.72    0.17
   6  -2   7    2.50    0.29
   9   0   3   18.37    0.17
   9  -2   3   35.78    0.23
   4  -4   5  107.94    0.59
   8  -2   5    8.26    0.23
   7  -5   2    1.65    0.15
   6   0   7    0.03    0.27
   6  -3   6    0.78    0.28
   5  -4   5    1.04    0.25
   9  -1   3    0.24    0.12
   8  -3   4   11.32    0.24
   7  -2   6   32.91    0.41
   7  -4   4   50.25    0.39
   5  -3   6   23.65    0.39
   7  -3   5   33.17    0.40
   8  -1   5    5.25    0.21
   8  -4   2   65.70    0.35
   7   0   6    5.94    0.27
   9   0   2    1.13    0.11
   9  -2   2    1.29    0.11
   7  -5   1   75.06    0.40
   6  -2   6   70.38    0.54
   8  -2   4   25.16    0.32
   6  -3   5  127.41    0.72
   9  -1   2   70.48    0.34
   8  -3   3    2.55    0.21
   7  -2   5   26.67    0.40
   5  -3   5   39.88    0.44
   5  -4   4   68.39    0.50
   9  -2   1    0.36    0.10
   7  -3   4   -0.09    0.26
   9   0   1   43.66    0.25
   8   0   4    0.53    0.18
   7  -5   0    4.16    0.17
   7   0   5   24.02    0.37
   9  -1   1    0.81    0.12
   6  -2   5    0.11    0.28
   6  -4   3    0.84    0.26
   6  -5   1    1.44    0.21
   9   0   0    1.90    0.12
   9  -2   0    2.75    0.12
   8  -2   3   47.54    0.42
   7  -5  -1   29.50    0.28
   7  -2   4    1.69    0.29
   6  -3   4    9.98    0.27
   5  -4   3    9.02    0.28
   9  -1   0    0.74    0.12
   9  -2  -1   61.87    0.28
   8   0   3   69.90    0.48
   7   1   4  105.41    0.61
   7  -3   3   59.53    0.53
   9  -2  -2    0.89    0.10
   7  -5  -2   17.58    0.24
   6   0   5   53.67    0.52
   8  -3   1   19.74    0.30
   6  -5   0    6.37    0.25
   8  -2   2    0.04    0.23
   7   0   4   36.64    0.44
   7  -5  -3    1.40    0.17
   8  -4  -4    7.34    0.12
   8  -4  -3   13.61    0.18
   6  -2   4  128.86    0.78
   7  -2   3   27.56    0.44
   7  -3   2   15.05    0.36
   6  -3   3    0.10    0.23
   5  -4   2    2.92    0.27
   8   0   2    0.23    0.22
   8  -3   0    5.41    0.24
   6  -5  -1   25.92    0.35
   8  -2   1   68.52    0.52
   7   1   3    0.44    0.25
  -3  -6  -8    0.98    0.52
  -7  -3  -7    0.22    0.45
  -7  -5  -7   24.25    0.51
  -7  -6  -6   18.65    0.36
  -4  -7  -7    4.71    0.43
  -5  -6  -8    5.90    0.48
  -6  -5  -8   71.15    0.87
  -4  -6  -8    0.54    0.51
  -6  -4  -8    1.44    0.57
  -6  -6  -7    3.86    0.45
  -5  -3  -8  203.70    1.61
  -5  -5  -8   58.08    0.96
  -4  -5  -8  119.93    1.24
  -7  -6  -5    0.92    0.30
  -8  -4  -4   36.73    0.49
  -3  -7  -6  120.44    0.98
  -7  -3  -6   95.57    0.98
  -7  -5  -6    5.56    0.45
  -3  -6  -7  122.97    1.12
  -4  -7  -6    0.74    0.52
  -5  -6  -7   83.33    0.96
  -6  -5  -7    0.35    0.55
  -4  -6  -7   15.12    0.63
  -6  -4  -7   45.86    0.89
  -6  -6  -6    9.29    0.54
  -7  -2  -5   46.51    0.76
  -6  -7  -4    0.75    0.30
  -7  -6  -4   62.69    0.60
  -8  -4  -3   17.21    0.38
  -3  -5  -7   48.02    0.86
  -5  -3  -7    0.71    0.64
  -5  -5  -7    1.70    0.67
  -5  -7  -5    5.31    0.46
  -3  -7  -5    3.24    0.54
  -5  -4  -7   52.78    1.07
  -7  -3  -5   22.49    0.64
  -4  -4  -7   62.89    1.05
  -4  -7  -5   48.22    0.73
  -5  -6  -6   33.94    0.75
  -6  -5  -6   78.51    1.02
  -3  -6  -6   -0.25    0.53
  -6  -6  -5   56.68    0.80
  -6  -7  -3    1.06    0.30
  -7  -6  -3    2.26    0.30
  -8  -3  -2   17.50    0.41
  -8  -4  -2    2.46    0.30
  -4  -6  -6    4.70    0.60
  -6  -4  -6    5.51    0.51
  -7  -2  -4    9.57    0.57
  -5  -7  -4   18.31    0.55
  -5  -5  -6    4.42    0.70
  -6  -7  -2    5.95    0.33
  -7  -6  -2    7.07    0.32
  -8  -3  -1   74.95    0.67
  -7  -3  -4    7.52    0.60
  -8  -4   0   65.14    0.53
  -3  -7  -4   38.28    0.68
  -4  -5  -6  174.47    1.50
  -4  -7  -4   26.01    0.67
  -5  -4  -6   16.00    0.82
  -5  -6  -5    2.95    0.58
  -6  -5  -5   24.51    0.65
  -6  -6  -4    1.02    0.51
  -6  -4  -5   15.25    0.72
  -6  -7  -1   63.73    0.56
  -7  -2  -3   97.57    1.01
  -7  -5  -3   28.43    0.60
  -7  -6  -1    2.45    0.29
  -8  -3   0    8.01    0.35
  -3  -6  -5   12.98    0.60
  -5  -7  -3   88.07    0.86
  -6  -7   0    4.88    0.27
  -7  -6   0   36.69    0.44
  -7  -6   1   -0.02    0.19
  -6  -6  -3    0.54    0.49
  -7  -3  -3   36.68    0.78
  -3  -7  -3   47.65    0.76
  -4  -7  -3    6.32    0.55
  -5  -6  -4   36.49    0.81
  -5  -4  -5  233.74    1.73
  -5  -7  -2    1.26    0.44
  -4  -5  -5    1.58    0.55
  -6  -3  -4  142.32    1.39
  -6  -4  -4    7.41    0.64
  -7  -2  -2    6.95    0.54
  -3  -6  -4   18.97    0.69
  -4  -6  -4    4.46    0.61
  -6  -6  -2   96.59    0.96
  -7  -5  -1   71.76    0.79
  -4  -7  -2   27.22    0.66
  -5  -5  -4  133.66    1.38
  -5  -6  -3   36.83    0.82
  -6  -5  -3   66.65    1.02
  -3  -7  -2    1.54    0.49
  -7  -5   0    0.12    0.40
  -5  -4  -4    4.51    0.67
  -5  -7   0    0.80    0.40
  -6  -6  -1    2.91    0.51
  -7  -4  -1    3.63    0.52
  -6  -3  -3    5.77    0.67
  -6  -4  -3   37.25    0.78
  -7  -5   1   40.19    0.56
  -3  -6  -3  102.72    1.12
  -4  -6  -3   88.14    1.02
  -5  -7   1    2.24    0.38
  -5  -7   3   81.86    0.58
  -6  -5  -2   37.66    0.86
  -7  -5   2    5.18    0.33
  -7  -5   3    2.85    0.27
  -3  -7  -1   71.58    0.88
  -5  -5  -3    9.90    0.72
  -5  -6  -2    9.26    0.64
  -5  -7   2    0.56    0.30
  -6  -6   0   48.04    0.74
  -7  -2   0   66.07    0.90
  -4  -7   0    0.28    0.45
  -6  -6   1    0.99    0.45
  -6  -6   4   57.09    0.49
  -7  -3   0   40.14    0.77
  -5  -4  -3   33.32    0.85
  -6  -3  -2   45.89    0.91
  -6  -6   2    2.60    0.40
  -6  -6   3   12.81    0.38
  -7  -4   1    1.36    0.45
  -3  -7   0   24.52    0.73
  -4  -6  -2   55.15    0.93
  -5  -6  -1   13.67    0.67
  -7  -4   5    4.14    0.23
  -3  -6  -2    3.07    0.58
  -4  -7   1  143.50    1.07
  -7  -2   1    8.95    0.51
  -7  -3   1   77.22    0.96
  -7  -4   2   20.70    0.54
  -5  -5  -2   24.94    0.69
  -7  -3   6    0.41    0.23
  -7  -4   4   70.84    0.63
  -4  -7   2    5.55    0.47
  -4  -7   3   11.73    0.48
  -4  -7   4    3.70    0.33
  -5  -6   0   77.73    1.01
  -6  -4  -1   58.38    0.99
  -3  -7   1    3.83    0.51
  -4  -6  -1    6.14    0.64
  -7  -3   2   -0.02    0.47
  -6  -3  -1   43.22    0.79
  -6  -5   1   35.19    0.77
  -6  -5   6   27.30    0.39
  -7  -3   5    6.05    0.38
  -3  -7   2    5.79    0.47
  -5  -5  -1   80.73    1.14
  -5  -6   1    0.22    0.54
  -5  -6   6   23.14    0.35
  -7  -3   3   59.37    0.75
  -7  -3   4    1.01    0.37
  -3  -6  -1  103.24    1.16
  -3  -7   5   86.04    0.64
  -6  -4   0   93.69    1.16
  -6  -5   2   -0.13    0.51
  -7  -2   4   16.57    0.46
  -3  -7   3   89.56    0.84
  -3  -7   4    3.73    0.43
  -4  -6   0   37.61    0.82
  -5  -6   2   86.42    0.98
  -6  -5   5   27.12    0.49
  -5  -6   3    0.61    0.47
  -5  -6   5    9.04    0.36
  -6  -3   0   15.13    0.71
  -6  -5   3  113.92    0.99
  -6  -5   4   -0.04    0.44
  -5  -4  -1   52.37    0.97
  -5  -5   0    0.43    0.66
  -5  -6   4   21.26    0.55
  -6  -4   1    5.70    0.61
  -4  -5  -1   11.58    0.72
  -4  -6   1   31.70    0.81
  -5  -5   8   14.05    0.28
  -5  -5   1   90.00    1.13
  -6  -2   1  161.36    1.33
  -5  -4   0   32.14    0.86
  -6  -4   3    6.17    0.58
  -6  -4   6  117.32    0.86
  -3  -6   1    4.50    0.64
  -4  -5   0  167.18    1.44
  -5  -5   2    2.58    0.63
  -6  -3   2   80.35    1.04
  -6  -3   8   10.41    0.34
  -6  -4   4    1.28    0.50
  -6  -4   5    0.30    0.42
  -3  -6   8   87.62    0.63
  -5  -5   7   94.35    0.73
  -6  -2   2   33.25    0.79
  -5  -5   3    8.73    0.66
  -3  -6   2  112.30    1.20
  -5  -4   1   56.12    0.95
  -5  -4   9    1.02    0.23
  -5  -5   4   -0.24    0.56
  -5  -5   6   -0.68    0.44
  -6  -3   3   16.66    0.69
  -6  -3   7   47.72    0.62
  -4  -5   1    1.21    0.62
  -4  -5   9   81.13    0.57
  -5  -5   5   68.96    0.88
  -6  -2   3    1.52    0.56
  -6  -3   4    1.00    0.50
  -2  -6   2    1.70    0.52
  -3  -6   3   30.22    0.79
  -6  -2   8   71.44    0.64
  -6  -3   5  147.20    1.18
  -6  -3   6    0.40    0.49
  -2  -6   8    0.14    0.36
  -3  -6   4   19.55    0.70
  -4  -5   2   12.58    0.71
  -6  -2   4   98.02    1.06
  -6  -2   7   16.86    0.51
  -3  -6   5    1.07    0.51
  -4  -5   8    5.55    0.50
  -5  -4   8   17.00    0.49
  -2  -6   7    0.01    0.45
  -4  -5   3  251.89    1.63
  -5  -4   7    0.84    0.47
  -2  -6   4   77.27    0.98
  -4  -5   4    0.73    0.58
  -4  -5   7   11.37    0.57
  -5  -4   6   39.78    0.79
  -2  -6   5    0.37    0.50
  -2  -6   6   80.43    0.87
  -4  -4  10   17.07    0.40
  -4  -5   5   52.11    0.89
  -4  -5   6    8.61    0.65
  -5  -2  10    0.76    0.33
  -2  -5  10    0.19    0.31
  -3  -5   3    4.06    0.63
  -4  -3  11   69.60    0.58
  -4  -4   9    0.80    0.43
  -3  -4  11    0.49    0.29
  -4  -4   3  131.90    1.29
  -5  -1  10    2.84    0.40
  -5  -2   9    1.66    0.44
  -4  -4   4   27.34    0.83
  -4  -4   5   21.90    0.79
  -4  -4   7    4.14    0.59
  -5  -2   8   40.44    0.72
  -1  -5  10    4.05    0.35
  -2  -5   9  108.61    0.92
  -3  -3  12    0.82    0.35
  -4  -3  10    0.24    0.42
  -4  -4   6  154.55    1.36
  -5  -1   9   22.37    0.56
  -5  -2   5   88.67    1.05
  -3  -4  10   77.00    0.81
  -5  -2   6  128.85    1.21
  -2  -3  13   44.30    0.45
  -2  -5   8    6.62    0.54
  -3  -2  13    0.78    0.23
  -5  -1   8   49.25    0.83
  -5  -1   6   37.49    0.78
  -5  -1   7   27.21    0.71
  -1  -4  12   33.93    0.45
  -1  -5   9    4.89    0.45
  -2  -5   5  109.16    1.10
  -2  -5   6   60.39    0.96
  -2  -5   7   12.10    0.65
  -4  -3   9   16.56    0.64
  -4  -3   5  139.08    1.30
  -4  -3   8    9.57    0.66
  -1  -5   8    6.66    0.55
  -3  -4   5    8.92    0.62
  -4  -3   6    2.16    0.62
  -4  -3   7  111.54    1.18
   0  -4  12   27.15    0.43
  -1  -5   6    0.52    0.55
  -1  -5   7   94.28    1.04
  -3  -4   6   23.91    0.80
  -4  -1  11    0.95    0.45
  -2  -4  10   11.63    0.55
  -2  -3  12    0.47    0.41
  -3  -2  12   56.56    0.68
  -4   0  11   17.23    0.56
  -1  -3  13   29.59    0.45
  -3  -3  10    3.90    0.58
  -4  -1  10   30.14    0.68
  -2  -1  14    0.27    0.28
  -2  -2  13   19.51    0.47
  -3   0  13   44.59    0.59
  -1  -2  14   52.15    0.50
  -3   1  13   59.89    0.56
  -3  -3   9  129.27    1.14
   0  -4  11   53.53    0.68
  -1  -4  10  128.43    1.12
  -3  -2  11    7.67    0.55
  -3  -3   8   23.91    0.78
  -4   0  10    3.65    0.53
  -4  -1   9   67.19    0.93
   0  -3  13   51.04    0.56
  -4  -1   8    0.71    0.53
   6   0  10    0.06    0.28
   5   0  10  160.74    0.87
   4   4   7   63.36    0.74
   8   2   8    2.92    0.24
   7   3   8  104.40    0.72
   7   2   9   72.88    0.61
   6   4   7   46.72    0.59
   5   1  10   12.28    0.40
   8  -1   8    2.68    0.17
   7  -1   9    0.36    0.19
   8   3   6   20.77    0.32
   7   4   5   54.57    0.52
   4   2   9    0.32    0.33
   7   1   9   50.76    0.52
   6   4   6    5.02    0.38
   9   2   4    3.20    0.14
   9   1   6   73.08    0.38
   8   1   8   67.34    0.48
   8  -2   7   -0.21    0.08
   6   3   8   10.80    0.44
   6   2   9   15.89    0.39
   5   3   8  209.64    1.14
   5   2   9    4.33    0.37
   8   3   5    2.26    0.22
   6  -1   9  133.27    0.72
   9   0   6    1.64    0.14
   7   2   8    3.19    0.33
   6   4   5   14.72    0.45
   6   0   9    9.01    0.34
   5   0   9    2.78    0.24
   9   1   5    0.74    0.14
   7   3   6   92.94    0.69
   6   3   7    1.11    0.36
   5   3   7   -0.21    0.37
   8   2   6    1.01    0.25
   8   1   7    0.52    0.24
   7   1   8    6.88    0.37
   7  -1   8    4.87    0.27
   6   2   8   21.76    0.41
   5   2   8   27.83    0.51
   8  -1   7   20.27    0.31
   9  -1   5   11.45    0.19
   7   2   7    7.62    0.37
   9   1   4   22.95    0.25
   9   0   5   43.58    0.33
   7   3   5   21.58    0.41
   6   1   8   75.71    0.68
   7  -2   7    3.54    0.26
   6  -1   8    2.71    0.28
   5   1   8    1.43    0.33
   5  -1   8    0.34    0.25
   8  -2   6   27.72    0.28
   6   2   7   70.59    0.69
   6   0   8   64.13    0.61
   5   0   8   32.41    0.47
   8   1   6   12.19    0.28
   7   3   4    6.56    0.33
   7   1   7   23.56    0.46
   7   2   6    9.43    0.38
   6   3   5   17.08    0.43
   9   0   4    2.50    0.17
   9  -1   4   21.96    0.25
   8   2   4    6.56    0.28
   8   0   6    6.05    0.28
   7  -1   7   42.51    0.47
   9   1   2    1.02    0.16
   7   0   7   49.48    0.48
   6  -2   7    2.65    0.27
   6   2   6    1.49    0.34
   6   1   7   32.75    0.46
   8   2   3    1.15    0.26
   9   0   3   20.01    0.26
   8  -2   5    8.15    0.28
   7   1   6   90.25    0.72
   6  -1   7   47.82    0.53
   9  -1   3    0.30    0.14
   7  -2   6   32.17    0.40
   8   0   5   47.92    0.48
   8  -3   4   10.69    0.20
   6   3   3    5.22    0.33
   9   0   2    1.19    0.16
   8   1   4   23.68    0.39
   8  -1   5    5.38    0.26
   7  -1   6    2.96    0.29
   9  -2   2    1.03    0.13
   7  -3   5   32.40    0.35
   6   1   6   20.48    0.41
   9  -1   2   71.27    0.40
   7   1   5    1.18    0.33
   8  -4   2   49.57    0.28
   6  -2   6   71.44    0.57
   8   0   4    0.23    0.28
   8  -2   4   25.15    0.35
   6   0   6  132.38    0.84
   9  -1   1    0.69    0.16
   9  -2   1    0.00    0.13
   8  -1   4   27.53    0.40
   6  -1   6   12.38    0.31
   7   0   5   24.48    0.40
   7  -2   5   26.27    0.39
   6   1   5    7.28    0.36
   9  -1   0    0.59    0.15
   7   2   2    5.35    0.33
   7   1   4  108.22    0.77
   9  -1  -1   12.76    0.19
   9  -2   0    2.38    0.16
   8   0   3   72.54    0.59
   7   2   1    6.41    0.32
   7  -3   4   -0.17    0.22
   9  -2  -2    0.82    0.09
   9  -2  -1   59.99    0.33
   8  -1   3   10.05    0.34
   8  -4   1    1.87    0.15
   6   0   5   52.66    0.57
   8   1  -2    6.24    0.21
   7   1   3    0.71    0.33
   6  -2   5    0.11    0.27
   8   0   2    0.22    0.21
   8  -3   2   41.14    0.37
   7  -2   4    2.04    0.28
   6  -1   5   13.23    0.38
   7  -1   4   38.05    0.51
   8  -1   2    9.30    0.33
   8   0   1    3.06    0.30
   8  -2   2    0.44    0.26
   8  -4   0    2.72    0.16
   6  -3   4   10.68    0.33
   7   0   3   21.54    0.47
   7  -3   3   58.96    0.51
   7  -4   2    0.22    0.20
   8  -1   1    0.49    0.28
   7   1   1    8.54    0.35
   7  -1   3   13.57    0.38
   6  -2   4  122.90    0.80
   8   0  -3   37.74    0.37
   8   0  -2    0.49    0.24
   8  -4  -1   63.07    0.38
   7  -5   0    4.03    0.16
   7   0   2    0.55    0.31
   8  -1   0  115.97    0.71
   8  -3   0    5.32    0.24
   8  -2  -6    0.52    0.11
   8  -2   0    0.47    0.28
   7   1  -1    1.28    0.28
   7  -3   2   14.57    0.35
   8  -1  -1    0.75    0.28
   7  -1   2   94.20    0.74
   7  -4   1    0.88    0.22
   6  -3   3    0.14    0.28
   8  -1  -4    0.76    0.19
   8  -1  -2   45.34    0.44
   8  -3  -1    6.69    0.27
   8  -4  -4    7.49    0.15
   8  -4  -3   13.80    0.21
   7   0   1   97.27    0.75
   7  -2   2   80.17    0.66
   8  -2  -1   11.39    0.33
   7  -5  -1   30.08    0.31
   6  -2   3   17.42    0.41
   6  -4   2  140.50    0.74
   8  -3  -2   40.54    0.39
   8  -2  -2    6.24    0.30
   8  -3  -5   12.57    0.20
   7  -3   1   20.25    0.40
   8  -2  -4    0.10    0.19
   8  -2  -3   53.50    0.45
   8  -3  -4   48.52    0.37
   8  -3  -3    0.57    0.17
   7  -4   0   44.22    0.45
   7   0  -1   60.17    0.62
   7  -5  -2   17.76    0.27
   6  -3   2   48.82    0.55
   7   0  -2   17.29    0.41
   7  -1   0   29.93    0.50
   7  -4  -1    2.69    0.27
   7  -5  -3    1.66    0.21
   6  -4   1    0.21    0.28
   7  -2  -8    0.40    0.15
   7  -1  -1    3.17    0.34
   7  -5  -6    3.69    0.15
   7  -5  -4   34.67    0.33
   6  -6  -3    0.31    0.18
   7  -3  -1    8.92    0.37
   7  -1  -6    9.80    0.30
   7  -1  -2   59.75    0.64
   7  -2  -1   48.62    0.57
   6  -3   1   67.82    0.59
   6  -5  -1   26.52    0.39
   6  -4   0   62.14    0.58
   7  -2  -7   36.95    0.37
   7  -2  -2    0.38    0.36
   7  -3  -2   43.20    0.55
   7  -4  -7    6.55    0.21
   7  -4  -3   47.44    0.48
   7  -2  -3  118.46    0.82
   7  -3  -7    0.25    0.20
   7  -4  -6    5.06    0.24
   7  -4  -4   -0.35    0.27
   6  -6  -7    2.35    0.12
   6  -6  -5    4.12    0.20
   7  -2  -4    2.39    0.34
   7  -3  -3   20.29    0.38
   7  -4  -5   56.18    0.44
   6  -2   0   67.22    0.68
   6  -3   0    0.46    0.35
   6  -5  -2    1.03    0.27
   6  -6  -6   57.06    0.35
   7  -2  -5    0.39    0.21
   7  -3  -6  140.30    0.72
   7  -3  -5    0.30    0.28
   7  -3  -4   12.86    0.40
   6  -4  -1   36.22    0.53
   6   0  -3  112.43    0.81
   6  -3 -10   59.64    0.34
   6  -5  -9   11.30    0.18
   6  -2  -1    4.06    0.38
   6  -5  -3  112.78    0.72
   6  -2  -9    3.60    0.27
   6  -4  -2   46.95    0.58
   5  -6  -3   -0.12    0.25
   6  -5  -8    6.97    0.27
   6  -5  -4   17.71    0.39
   6  -1  -7    0.30    0.30
   6  -2  -2    2.72    0.39
   6  -4  -9   32.86    0.34
   6  -5  -7    2.21    0.27
   6  -1  -5    2.03    0.36
   6  -1  -4    4.91    0.41
   6  -5  -6   68.37    0.55
   5  -6  -4  105.89    0.66
   6  -2  -3   47.61    0.64
   5  -5  -2   13.89    0.40
   6  -3  -3    3.53    0.30
   6  -4  -4   36.76    0.55
   5  -6  -9   11.54    0.22
   6  -2  -4   -0.23    0.39
   6  -3  -8   37.08    0.47
   6  -4  -7   87.52    0.67
   6  -4  -5    0.55    0.38
   5  -6  -5    8.72    0.33
   6  -3  -7    3.83    0.37
   6  -3  -4  129.15    0.88
   6  -4  -6   10.75    0.40
   5  -3 -11    4.91    0.23
   6  -3  -6    1.77    0.41
   6  -3  -5    0.61    0.39
   5  -5  -3    2.08    0.35
   5  -6  -7   11.53    0.31
   5  -6  -6    1.51    0.29
   4  -7  -8   10.40    0.22
   4  -7  -7   44.24    0.36
   5  -4  -2  126.18    0.91
   5  -5 -10   37.50    0.37
   5  -2 -10    7.47    0.31
   5  -5  -4   17.84    0.48
   4  -6 -11   39.94    0.30
   5  -5  -9    0.15    0.29
   4  -5 -12   64.24    0.37
   5  -3 -10   25.78    0.42
   5  -4 -10    1.44    0.28
   5  -4  -3    7.85    0.47
   5  -2  -9   82.34    0.69
   5  -5  -8   68.42    0.63
   5  -5  -5   94.71    0.74
   4  -6  -4    2.61    0.34
   5  -1  -6   57.58    0.68
   4  -3 -12   18.23    0.36
   5  -4  -9   19.90    0.46
   4  -6 -10    1.12    0.22
   3  -7 -10    3.39    0.18
   5  -2  -8    1.84    0.38
   5  -2  -7  129.57    0.95
   5  -4  -8    9.36    0.45
   5  -4  -5   69.62    0.77
   4  -5  -3  158.61    0.99
  -3  -4  11    0.25    0.15
  -5  -2   6  124.54    1.02
  -5  -2   4    8.11    0.58
  -5  -4   2   57.94    0.82
  -5  -4   6   39.53    0.63
  -3  -7   6    2.20    0.27
  -4  -5   8    5.02    0.34
  -4  -6   1   31.97    0.58
  -4  -6   6   42.10    0.52
  -5  -3   3  167.64    1.21
  -5  -3   6    6.29    0.51
  -5  -4   3   17.99    0.58
  -5  -4   5    0.12    0.51
  -5  -3   4   56.71    0.79
  -5  -3   5    0.82    0.45
  -5  -4   4   61.11    0.74
  -3  -3  11   15.51    0.34
  -4  -1   8    0.72    0.43
  -4  -2   9    0.46    0.39
  -4  -5   0  161.19    1.06
  -4  -6   2    0.64    0.45
  -4  -6   5    1.23    0.37
  -3  -7   2    5.90    0.35
  -4  -3   9   16.28    0.46
  -4  -6   3    4.89    0.44
  -3  -6   8   91.55    0.59
  -4  -5   7   11.26    0.46
  -2  -3  12    0.80    0.20
  -3  -7   4    3.91    0.35
  -4  -4   8   76.53    0.73
  -4  -5   1    1.68    0.52
  -3  -4  10   72.31    0.60
  -4  -3   8    9.99    0.48
  -4  -5   2   12.19    0.55
  -4  -5   6    8.24    0.48
  -3  -5   9    1.79    0.33
  -4  -5   5   50.29    0.75
  -3  -6   7    0.23    0.33
  -4  -2   7  115.08    0.97
  -4  -4   7    3.63    0.37
  -4  -5   4   -0.14    0.46
  -2  -6   9    5.92    0.28
  -3  -2  10    1.17    0.37
  -3  -6   1    4.07    0.44
  -4  -4   6  153.06    1.12
  -1  -6  10   57.58    0.43
  -1  -7   8    1.02    0.19
  -2  -4  11    1.24    0.27
  -2  -7   6    0.88    0.29
  -3  -6   6   16.11    0.47
  -4  -3   6    1.92    0.52
  -4  -4   4   27.76    0.65
  -4  -4   5   22.59    0.64
  -3  -5   8    0.24    0.30
  -3  -6   2  115.30    0.95
  -4  -3   5  139.64    1.09
  -2  -7   5   38.86    0.53
  -3  -6   3   31.78    0.64
  -2  -3  11   87.05    0.72
  -2  -7   3   17.05    0.46
  -3  -2   9   55.50    0.74
  -3  -3   9  126.91    0.94
  -2  -6   8    0.25    0.35
  -3  -5   7  130.64    0.98
  -3  -4   8    4.79    0.46
  -1  -3  12   24.54    0.37
  -3  -5   6    5.60    0.50
  -2  -5   9  108.53    0.81
  -3  -2   8   45.13    0.69
  -3  -3   8   23.77    0.58
  -3  -4   7   18.38    0.57
  -3  -5   3    4.52    0.49
  -3  -5   4   23.48    0.61
  -3  -5   5  124.74    1.01
   0  -6  10   82.23    0.53
  -1  -7   6    1.92    0.34
  -2  -2  10   68.19    0.73
  -2  -3  10   24.05    0.53
  -2  -6   6   81.78    0.81
  -3  -4   6   23.76    0.63
   0  -4  12   27.60    0.35
  -1  -4  11    0.52    0.31
  -1  -5  10    4.46    0.35
  -1  -7   5   66.21    0.67
  -2  -5   8    6.06    0.48
  -1  -7   3   72.14    0.70
  -1  -7   4    1.46    0.37
  -2  -4   9   12.45    0.50
  -2  -6   3   84.15    0.84
  -3  -4   5    8.86    0.41
   1  -3  13    2.50    0.20
   0  -5  11   73.06    0.52
  -1  -6   8  107.65    0.79
  -2  -6   4   75.90    0.75
  -1  -3  11   40.56    0.56
  -2  -3   9    0.76    0.44
   1  -6  10   31.03    0.35
   0  -6   9    2.15    0.33
  -1  -2  11   65.67    0.66
  -2  -2   9   31.88    0.57
  -2  -4   8  152.15    1.06
   0  -3  12    1.19    0.28
   0  -7   6    0.48    0.36
  -1  -5   9    4.30    0.44
  -1  -6   7   10.19    0.48
  -2  -5   6   60.61    0.78
   2  -7   8   13.56    0.25
   1  -4  12   36.07    0.43
   0  -7   5   21.42    0.48
  -2  -3   8  100.40    0.90
  -2  -4   7    0.67    0.42
  -2  -5   5  111.38    0.90
   2  -3  13    9.34    0.23
   1  -5  11   17.39    0.33
   1  -7   7    8.04    0.33
   0  -4  11   51.62    0.56
   0  -5  10   12.90    0.42
   0  -7   3   11.27    0.42
   0  -7   4   71.00    0.70
  -1  -6   6   30.89    0.51
   2  -6  10   24.66    0.32
   0  -6   8    1.53    0.41
  -1  -5   8    7.39    0.50
  -1  -6   5   59.91    0.72
  -1  -2  10    3.04    0.40
  -1  -6   3   29.12    0.56
  -1  -6   4   29.98    0.60
  -2  -4   6   45.92    0.70
   3  -6  10    4.94    0.17
   1  -6   9    0.82    0.35
   1  -7   6   10.44    0.38
  -1  -4   9   53.82    0.69
   2  -7   7   47.62    0.45
   2  -4  12   16.29    0.35
   2  -5  11   31.30    0.38
   1  -3  12   51.62    0.52
   0  -3  11   10.97    0.43
   0  -6   7   58.84    0.70
  -1  -5   7   94.47    0.80
   3  -7   7    0.16    0.23
   1  -7   5   27.02    0.48
   0  -5   9   36.90    0.53
  -1  -3   9   43.24    0.67
   1  -5  10   36.58    0.54
   1  -7   4    6.44    0.40
   0  -2  11   18.43    0.48
  -1  -4   8   -0.33    0.45
  -1  -5   6    1.11    0.45
   2  -6   9   59.50    0.53
   1  -2  12   36.43    0.47
   1  -6   8   94.31    0.74
   4  -7   6   36.49    0.29
   3  -4  12   13.48    0.27
   3  -5  11   12.02    0.25
  -1  -5   5   55.27    0.73
   0  -5   8   54.25    0.73
   0  -6   5   47.93    0.66
  -1  -4   7   98.53    0.85
   3  -6   9    3.02    0.29
   3  -7   6   39.97    0.41
   2  -7   5    5.25    0.33
   0  -3  10   81.64    0.77
   4  -6   9  102.81    0.47
   2  -7   4   64.17    0.62
   1  -6   7   23.01    0.52
   0  -4   9   34.67    0.60
   0  -6   3  104.57    0.82
   0  -6   4   25.54    0.48
   4  -7   5    0.44    0.18
   1  -5   9    8.61    0.48
   3  -7   5   22.00    0.36
   2  -6   8    1.10    0.35
   1  -3  11    6.64    0.41
   0  -5   7    5.53    0.49
   1  -4  10   53.54    0.63
   5  -5  10   58.90    0.34
   3  -7   4    0.92    0.26
   2  -2  12   -0.04    0.27
   3  -3  12  122.48    0.65
   3  -6   8   25.54    0.41
   1  -2  11  220.55    1.06
   0  -3   9    0.91    0.41
   0  -4   8   94.92    0.77
   0  -5   6  134.13    0.96
   1  -5   8   29.88    0.58
   1  -6   5  165.50    1.02
   4  -5  10   -0.05    0.23
   4  -6   8    0.20    0.23
   2  -5   9   19.73    0.48
   5  -4  11    0.85    0.17
   1  -3  10   58.06    0.65
   1  -4   9  107.09    0.83
   1  -6   4    5.36    0.44
   4  -4  11   78.33    0.51
   2  -3  11    0.55    0.33
   2  -4  10    2.34    0.37
   1  -6   3   45.14    0.59
   3  -2  12    2.07    0.27
   2  -6   6    8.39    0.44
   1  -5   7   16.81    0.49
   5  -6   7   39.06    0.35
   3  -5   9    3.46    0.29
   2  -5   8   67.75    0.70
   1  -2  10    0.20    0.36
   6  -6   5    1.31    0.12
   5  -5   9    2.81    0.23
   2  -2  11   24.56    0.44
   1  -4   8    1.25    0.39
   1  -5   6    1.48    0.43
   6  -3  11   17.95    0.24
   6  -4  10   16.61    0.21
   5  -2  12   16.06    0.26
   4  -2  12    9.87    0.29
   4  -5   9   -0.04    0.31
   3  -3  11    0.92    0.32
   3  -4  10    0.44    0.34
   3  -6   6    1.24    0.37
   2  -4   9   47.08    0.62
   2  -6   4    0.43    0.28
   6  -5   8   42.34    0.34
   5  -6   6    0.43    0.23
   4  -6   6    5.10    0.34
   2  -3  10  100.33    0.76
   2  -6   3  227.09    1.06
   4  -3  11    0.81    0.36
   4  -4  10   10.70    0.38
   3  -5   8   34.30    0.55
   3  -6   5  184.59    0.96
   2  -5   7    1.54    0.30
   5  -4  10    5.92    0.29
   5  -6   5   83.27    0.53
   5  -5   8   41.25    0.45
   4  -6   5    7.97    0.34
   3  -6   4    5.24    0.36
   2  -5   6  181.05    1.01
   3  -4   9  131.68    0.85
   3  -6   3   42.26    0.52
   2  -2  10    4.82    0.37
   2  -4   8    0.64    0.31
   5  -6   4    4.29    0.25
   4  -6   4   11.87    0.38
   3  -5   7    0.27    0.27
   6  -2  11    1.00    0.19
   6  -4   9    5.07    0.24
   3  -1  11   49.57    0.50
   7  -4   8    1.20    0.16
   4  -2  11   29.34    0.42
   4  -4   9   21.12    0.46
   4  -6   3  149.76    0.79
   2  -5   5    0.37    0.27
   7  -5   5   10.92    0.21
   6  -3  10   56.99    0.43
   5  -4   9   91.40    0.63
   5  -5   7   26.40    0.41
   4  -5   7    2.11    0.37
   2  -4   7   55.78    0.62
   5  -3  10    2.49    0.28
   3  -2  10    9.15    0.36
   7  -2  10    8.89    0.19
   7  -3   9   63.05    0.39
   6  -1  11   11.65    0.28
   3  -3   9    7.27    0.42
   7  -5   4    7.79    0.19
   3  -5   5    4.63    0.39
   6  -4   8   24.71    0.38
   5  -1  11  119.23    0.65
   4  -4   8   17.08    0.44
   5  -4   8    0.36    0.32
   3  -1  10   85.50    0.62
   3  -4   7  163.19    0.93
   6  -5   5   41.10    0.43
   4  -2  10   46.49    0.51
   4  -3   9    1.88    0.33
   3  -5   4  106.30    0.74
   6  -2  10   30.18    0.41
   4  -5   5   29.13    0.47
   8  -3   7   68.47    0.35
   7  -1  10    1.77    0.19
   5  -2  10   18.10    0.39
   5  -3   9   90.07    0.67
   5  -5   5   22.47    0.42
   3  -2   9   84.54    0.66
   3  -3   8   29.20    0.48
   6  -4   7   12.57    0.35
   4  -4   7   24.01    0.47
   7  -3   8    0.29    0.23
   7  -4   6   46.60    0.39
   4  -5   4    2.71    0.35
   3  -4   6   25.97    0.47
   8  -2   8    5.59    0.17
   8  -4   3    8.36    0.17
   7  -2   9    3.60    0.23
   5  -4   7   36.44    0.46
   5  -5   4   36.75    0.48
   4  -1  10    7.86    0.34
   8   0   9   23.41    0.22
   7   0  10   76.25    0.43
   6  -5   3   86.40    0.55
   4  -3   8   64.30    0.61
   6  -1  10    4.74    0.29
   5  -1  10   10.48    0.37
   4  -2   9   42.15    0.54
   4  -5   3   69.91    0.59
   8  -3   6    0.31    0.15
   6  -3   8   12.82    0.38
   6  -4   6   47.36    0.52
   6  -5   2    7.23    0.26
   5  -5   3    9.85    0.33
   4  -4   6   14.77    0.42
   5  -4   6   66.44    0.61
   7  -3   7    0.60    0.26
   5  -5   2   14.32    0.35
   7  -2  -4    2.47    0.31
   6  -1  -5    1.62    0.32
   6  -4  -8    0.99    0.17
   6  -5  -8    5.85    0.17
   7  -2   1    0.35    0.30
   7  -3  -5    0.05    0.25
   7  -4   2    0.35    0.19
   7  -6  -4   21.84    0.18
   7  -5   1   76.68    0.44
   7  -6  -1    2.13    0.13
   7  -2  -2    0.44    0.32
   7  -2  -1   47.78    0.53
   7  -4  -5   50.93    0.42
   7  -5  -5   22.01    0.26
   7  -6  -3    0.43    0.12
   6  -2  -6    0.57    0.28
   7  -3  -4   13.10    0.37
   7  -3   1   21.38    0.40
   6  -3  -7    4.06    0.27
   7  -4   1    1.40    0.24
   6  -1  -3    0.13    0.34
   7  -3  -3   21.18    0.44
   7  -3   0   97.18    0.66
   7  -4  -4   -0.01    0.27
   7  -5   0    4.18    0.22
   7  -3  -2   43.23    0.55
   7  -3  -1    9.23    0.36
   7  -4  -3   47.10    0.50
   7  -4   0   44.70    0.47
   7  -5  -3    1.54    0.24
   7  -5  -2   17.48    0.30
   6  -5  -7    2.91    0.25
   7  -4  -2   36.31    0.48
   6  -3  -6    0.35    0.34
   6  -2  -4    0.17    0.39
   6  -7  -1   12.36    0.19
   6  -2  -3   47.90    0.60
   6  -6  -6   57.46    0.38
   6  -7  -4    1.83    0.15
   6  -3   2   49.95    0.55
   6  -6   1   11.24    0.23
   6  -7  -3   16.38    0.23
   6  -7  -2    0.98    0.18
   5  -2  -6    0.96    0.36
   5  -4  -8    9.60    0.32
   6  -2  -2    3.28    0.31
   6  -2  -1    4.57    0.37
   6  -5  -6   66.48    0.51
   5  -6  -8   11.48    0.24
   6  -4   2  147.38    0.78
   5  -3  -7    3.11    0.37
   5  -5  -8   67.23    0.54
   6  -3  -4  127.56    0.85
   6  -3   1   68.96    0.66
   6  -4  -5    0.35    0.38
   6  -5  -5    6.41    0.38
   6  -6   0  100.64    0.57
   6  -3  -3    3.80    0.32
   6  -3   0    0.76    0.38
   6  -5   1    2.29    0.32
   6  -6  -4    1.47    0.30
   6  -3  -2   68.94    0.63
   6  -3  -1   88.03    0.75
   6  -4  -4   37.81    0.57
   6  -6  -1    0.12    0.29
   4  -5  -9   44.58    0.47
   4  -6  -9    1.14    0.19
   6  -5  -4   17.96    0.45
   6  -5   0    6.24    0.37
   6  -6  -3    0.13    0.32
   5  -3  -6  104.11    0.79
   5  -4  -7    8.13    0.39
   6  -4  -3    9.67    0.46
   6  -5  -3  111.11    0.77
   5  -7  -6    0.74    0.21
   6  -4  -2   45.33    0.54
   6  -5  -2    0.64    0.40
   5  -5  -7   46.77    0.53
   4  -7  -8   10.72    0.27
   4  -4  -8    6.93    0.39
   5  -6  -6    1.60    0.34
   5  -7  -5    4.43    0.29
   5  -7   0   46.55    0.41
   4  -3  -7   23.70    0.49
   5  -7  -4    0.36    0.31
   5  -7  -1   56.84    0.53
   4  -5  -8    8.19    0.38
   4  -6  -8  134.99    0.72
   4  -8  -6    1.10    0.19
   4  -8   0    1.36    0.20
   3  -7  -9   47.66    0.39
   5  -4  -5   64.81    0.71
   5  -6   1    9.63    0.36
   3  -8  -8   26.50    0.25
   5  -6  -5    9.17    0.41
   5  -5  -5   90.83    0.71
   5  -4  -4    6.98    0.33
   5  -5   1  138.73    0.84
   5  -6  -4  109.28    0.77
   5  -6   0    5.31    0.36
   4  -8  -5    8.18    0.25
   3  -6  -9    0.51    0.26
   5  -4  -3    7.89    0.46
   5  -5  -4   17.17    0.51
   4  -8  -1   63.31    0.43
   5  -4  -2  124.04    0.88
   5  -5   0    7.11    0.39
   5  -6  -3   -0.19    0.29
   5  -6  -2   61.62    0.63
   5  -6  -1   21.29    0.45
   4  -5  -7   29.74    0.51
   4  -6  -7   -0.03    0.35
   4  -8  -4   24.63    0.35
   3  -9  -4    6.15    0.17
   5  -5  -2   13.08    0.49
   4  -7  -6   14.15    0.39
   4  -8  -3    2.07    0.25
   4  -4  -6   81.69    0.74
   4  -7   1   27.65    0.38
   3  -7  -8    0.95    0.28
   4  -6  -6   67.56    0.65
   4  -7  -5  104.65    0.68
   3  -5  -8   11.53    0.42
   3  -6  -8   39.72    0.51
   2  -7  -9    5.82    0.31
   4  -7   0   27.19    0.42
   3  -8  -6   62.98    0.51
   2  -8  -8   19.24    0.31
   2  -9  -6   42.89    0.32
   4  -7  -4   17.76    0.45
   4  -7  -1    4.45    0.36
   4  -5  -5   50.57    0.65
   4  -6  -5    0.29    0.30
   4  -6   1   16.98    0.43
   4  -7  -3   13.18    0.42
   2  -6  -9    1.87    0.32
   2  -9  -5    0.41    0.22
   2  -9  -1    3.09    0.17
   4  -6  -4    2.13    0.39
   3  -8  -5    9.65    0.34
   4  -5  -4    0.85    0.39
   4  -6   0   61.88    0.64
   3  -5  -7   58.50    0.67
   3  -6  -7    6.27    0.38
   3  -8  -1   32.84    0.47
   2  -9  -2    3.43    0.25
   4  -6  -3   46.31    0.57
   4  -6  -2  118.46    0.88
   4  -6  -1    1.70    0.36
   3  -7  -6   21.33    0.46
   3  -8  -4    2.94    0.34
   2  -9  -4   53.61    0.41
   2  -9  -3    1.13    0.21
   3  -8  -3  117.48    0.71
   4  -5  -2    2.09    0.29
   1  -9   0   15.29    0.21
   3  -7   1    6.96    0.33
   1  -7  -9   52.57    0.49
   1  -9  -6   24.66    0.34
   3  -5  -6   -0.41    0.38
   3  -7  -5    0.42    0.40
   2  -5  -8    1.76    0.35
   2  -6  -8  208.01    1.04
   2  -8   1   75.47    0.54
   1  -8  -8   39.81    0.43
   2  -8  -6    3.48    0.34
   3  -7  -4   27.76    0.53
   3  -7   0  135.24    0.85
   2  -7  -7   34.98    0.54
   1  -6  -9    0.76    0.31
   3  -6  -5    0.09    0.37
   3  -7  -3   96.56    0.79
   3  -7  -1   14.02    0.42
   1  -9  -1    0.98    0.21
   2  -8  -5   32.72    0.50
   2  -8   0    4.25    0.30
   3  -6  -4  110.22    0.88
   3  -6   1   80.15    0.71
   2  -6  -7    0.33    0.39
   1  -9  -4   14.10    0.32
   2  -8  -1  112.54    0.74
   1  -9  -3    4.64    0.26
   3  -6  -3    5.43    0.39
   3  -6   0   13.02    0.47
   2  -7  -6    7.14    0.41
   2  -8  -3    2.65    0.35
   0  -7  -9    0.56    0.27
   0  -9  -6   44.17    0.41
   0  -9   0   22.25    0.28
   3  -6  -2   53.02    0.65
   3  -6  -1  107.17    0.83
   1  -6  -8   45.43    0.58
   2  -7  -5   90.33    0.79
   1  -8  -6    9.10    0.38
   2  -7   1    8.38    0.39
   1  -8   1   39.65    0.44
   0  -9  -1   41.39    0.39
   2  -7  -4   43.48    0.62
   1  -7  -7   40.10    0.55
   0  -9  -4   74.77    0.55
   2  -7   0   24.10    0.48
   1  -8  -5   69.25    0.67
  -1  -9  -6   27.09    0.34
  -1  -9   0   10.71    0.23
   2  -6  -5   43.64    0.61
   2  -7  -3   12.73    0.45
   2  -7  -1    1.21    0.34
   1  -8   0   29.87    0.47
   0  -7  -8   87.60    0.70
  -1  -7  -9   34.57    0.43
  -1  -8  -8    1.12    0.25
   2  -7  -2   74.37    0.74
   1  -6  -7   13.41    0.44
   1  -8  -4    3.32    0.38
   1  -8  -1   26.14    0.49
  -1  -9  -5   70.16    0.52
  -2  -9  -6   32.22    0.34
   2  -6  -4    3.53    0.30
   0  -8  -6    0.15    0.34
  -1  -9  -4    7.03    0.29
  -2  -8  -8    0.01    0.23
   0  -6  -8   83.98    0.70
  -1  -9  -3    1.65    0.27
  -3  -8  -8    9.45    0.26
   1  -6  -6   46.01    0.60
   1  -7  -5    4.47    0.32
   0  -7  -7   16.25    0.44
   0  -8   1   33.35    0.43
  -1  -8  -7    2.01    0.31
  -2  -9  -5    0.92    0.21
   0  -8  -5   36.92    0.55
  -2  -9  -1   56.62    0.40
  -3  -9  -5   50.62    0.36
   1  -7  -4  162.31    1.00
   1  -7   1    7.26    0.37
  -1  -7  -8    6.79    0.37
  -2  -9  -4   38.93    0.39
   0  -8  -4    0.19    0.37
   0  -8   0    2.60    0.31
  -2  -9  -3   58.18    0.46
   1  -7  -3   18.44    0.48
   1  -7   0  122.72    0.84
  -1  -8  -6    3.63    0.33
  -3  -9  -4    1.98    0.19
  -3  -9  -2    6.52    0.20
   1  -7  -2   22.37    0.52
   1  -7  -1    2.63    0.38
   0  -6  -7    1.28    0.36
   0  -8  -3   10.20    0.36
   0  -8  -2    8.70    0.42
   0  -8  -1   98.04    0.68
  -2  -8  -7  155.25    0.80
  -3  -9  -3   32.07    0.32
  -4  -8  -7   62.01    0.43
  -1  -6  -8   34.45    0.51
  -1  -8   1    8.31    0.30
  -2  -7  -8   70.41    0.60
  -3  -8  -7    0.29    0.25
   0  -7  -5    8.12    0.40
  -1  -7  -7    0.18    0.34
  -1  -8  -5   70.28    0.62
  -1  -8  -4    1.25    0.37
  -1  -8   0   45.16    0.52
   0  -7  -4   30.91    0.55
   0  -7   1   18.51    0.44
  -1  -8  -3   86.93    0.73
  -3  -7  -8   15.62    0.35
  -1  -8  -2   20.68    0.45
  -2  -8   1    1.71    0.26
  -4  -7  -8   78.11    0.54
   0  -7  -3    1.45    0.37
   0  -7   0   34.38    0.52
  -1  -6  -7  112.27    0.79
  -2  -8  -5   18.37    0.44
  -4  -8   1    0.53    0.15
   0  -7  -2  164.26    0.97
  -2  -6  -8   38.18    0.51
  -2  -7  -7    0.39    0.32
  -2  -8  -4   14.25    0.42
  -2  -8   0   12.05    0.35
  -3  -8   1    6.26    0.23
  -1  -7  -5    0.11    0.39
  -1  -7   2   60.55    0.57
  -3  -8  -5   35.94    0.49
  -2  -8  -3    7.82    0.38
  -2  -8  -2   39.76    0.53
  -4  -8  -5   18.10    0.33
  -5  -8  -4    5.63    0.19
  -2  -7  -6   24.96    0.49
  -3  -7  -7    1.12    0.31
  -3  -8   0   66.05    0.51
  -5  -7  -7    1.65    0.20
  -3   0  12    1.41    0.59
  -3  -2   8   45.06    0.89
  -4   2   9    4.58    0.67
  -4   1   9   24.77    0.82
  -4   0   8    2.75    0.73
  -2   3  14   13.54    0.46
  -2  -2  11   21.33    0.66
  -3   3  12   86.48    0.98
  -4   2   8    7.68    0.69
  -2   4  13   81.33    0.76
  -2   1  14  100.95    0.88
  -4   1   8  190.02    1.58
  -2   2  14    0.01    0.46
  -3   1  12   37.43    0.88
  -1   1  15    2.71    0.35
  -1  -2  12   54.18    0.73
  -3   0  11   76.11    1.10
  -1   2  15   97.83    0.76
  -2   0  13    1.20    0.53
  -2  -1  12   79.38    0.99
  -2  -2  10   69.24    1.00
  -3   3  11    0.54    0.61
   0   0  15   46.23    0.57
  -1   4  14   38.48    0.62
   0  -1  14    9.70    0.47
  -3   2  11    9.47    0.74
  -3   1  11    3.31    0.79
  -1  -1  13   13.00    0.57
  -2   4  12   35.34    0.71
  -2   3  13    2.75    0.55
  -2  -2   9   32.05    0.83
  -3   3  10    0.80    0.66
  -3   0  10   55.14    0.92
  -2   1  13    0.74    0.61
  -2  -1  11    0.22    0.62
  -1  -2  11   66.80    0.95
  -2   2  13   64.25    0.94
  -3   1  10  184.94    1.65
  -3   0   9    7.07    0.76
  -2   0  12    9.76    0.57
   0  -2  12    8.03    0.50
  -1   1  14    7.34    0.57
  -2   4  11    1.85    0.60
  -3   1   9   10.03    0.77
   1   0  15   18.41    0.43
   0   3  15    7.45    0.44
  -2   3  12   46.93    0.90
  -2  -1  10   62.93    1.07
   1  -1  14   90.32    0.76
   0   2  15    0.67    0.49
  -1   4  13    8.17    0.58
  -1   2  14    0.91    0.56
  -1  -1  12    7.19    0.67
  -2   1  12   31.97    0.89
   1   4  15    1.58    0.29
  -1  -2  10    2.85    0.61
  -2   4  10  120.42    1.24
   0  -1  13    7.81    0.59
   0   4  14    0.07    0.45
  -2   3  11    4.14    0.72
   2   0  15   58.47    0.58
   2  -1  14    7.86    0.41
   0  -2  11   18.72    0.82
  -2   1  11    0.34    0.73
   1   1  15    1.02    0.40
  -1   4  12    3.17    0.64
  -1   1  13   14.26    0.64
  -1  -1  11   22.41    0.83
  -2   0  10    3.28    0.54
  -1   0  12    3.35    0.72
  -2   3  10  107.41    1.31
   1   3  15   25.53    0.54
   0   3  14   14.46    0.60
   0   1  14   81.58    1.03
  -2   1  10   49.33    1.06
   1   2  15   93.86    0.87
   0   2  14    2.37    0.61
   1   0  14    6.81    0.53
   0  -1  12   61.49    1.00
  -1  -1  10   72.91    1.11
   1   5  13  136.62    1.01
   0   4  13   41.38    0.81
  -1   4  11   28.68    0.84
  -1   3  12   80.86    1.13
  -1   1  12  100.54    1.29
   2   1  15    2.90    0.38
  -1   2  12   34.66    1.00
  -1   0  11  164.58    1.55
   2   3  15   23.72    0.56
   2   2  15    3.17    0.44
   0   1  13   11.36    0.81
  -1   4  10   73.80    1.09
   1   1  14    0.86    0.60
   0  -1  11   -0.66    0.67
  -1   3  11   37.66    1.01
   2  -1  13    2.32    0.49
   1   3  14   37.92    0.82
   0   4  12  112.61    1.34
   0   2  13   86.55    1.22
  -1   1  11    7.21    0.65
   3   3  15   20.84    0.46
   1   2  14    8.86    0.67
   1  -1  12    3.05    0.64
  -1   2  11    6.06    0.61
   4   2  15    0.28    0.27
   2   4  14    5.01    0.49
   1   5  12    1.32    0.51
   3   0  14    2.73    0.47
   3  -1  13    8.73    0.55
   1   4  13    1.58    0.64
  -1   3  10    3.83    0.73
   2   1  14   55.92    0.84
   0   4  11    1.68    0.69
   2   3  14    7.87    0.62
   1   1  13   22.93    0.86
   0   2  12    2.18    0.54
   3   5  13   69.21    0.76
   3   4  14   50.69    0.67
   2   2  14   27.50    0.76
   1   3  13    3.33    0.69
   2   0  13    0.66    0.57
   2  -1  12   76.89    0.99
   1   2  13   17.36    0.83
   1  -1  11    6.88    0.68
   5   1  14    0.58    0.29
   3   1  14    0.02    0.49
   2   5  12   12.72    0.71
   0   1  11   14.86    0.79
   2   4  13    1.03    0.62
   0   4  10  142.58    1.38
   5   3  14   20.49    0.45
   3   3  14    0.42    0.53
   3   2  14   35.22    0.75
   0   2  11   82.92    1.09
   5   2  14   33.20    0.52
   3   0  13  110.26    1.07
   3  -1  12    1.59    0.64
   1   1  12   58.52    1.03
   4   3  14    3.86    0.46
   4   2  14   36.25    0.67
   5   0  13   12.61    0.45
   2   3  13  153.51    1.38
   2   2  13   35.52    0.89
   1   2  12   73.50    1.15
   4   0  13    0.39    0.50
   4  -1  12   68.50    0.80
   3   5  12    5.44    0.54
   3   4  13    3.96    0.56
   2   0  12   13.40    0.72
   2  -1  11    9.96    0.68
   6   1  13   47.63    0.47
   2   5  11   64.61    0.95
   5   5  12    5.17    0.32
   3   1  13   62.45    0.92
   2   4  12  125.80    1.25
   6   3  13   44.84    0.49
   1   1  11    7.21    0.71
   6   2  13    3.33    0.35
   2   1  12   29.50    0.85
   4   1  13   18.11    0.65
   3  -1  11   50.63    0.84
   2   3  12   15.14    0.76
   1   2  11   26.37    0.85
   6   0  12   58.35    0.61
   2   2  12    7.81    0.73
   5   3  13   -0.17    0.45
   4   3  13  146.11    1.20
   4   2  13    4.51    0.63
   3   5  11   56.02    0.89
   2   0  11   69.04    1.04
   4   0  12   43.87    0.81
   2   4  11    0.43    0.68
   5   0  12   30.95    0.69
   5  -1  11  123.21    1.03
   4  -1  11   12.61    0.59
   4   5  11   31.82    0.79
   3   1  12   22.83    0.74
   5   5  11   15.98    0.49
   3   3  12    0.62    0.64
   3   2  12  108.57    1.19
   2   1  11  134.55    1.31
   2   2  11   30.74    0.86
   4   1  12    1.89    0.61
   3   5  10   52.26    0.89
   3  -1  10   94.24    1.05
   4   3  12    2.65    0.64
   3   4  11   12.35    0.67
   2   4  10  118.85    1.24
   6   2  12    8.03    0.51
   4   2  12    8.57    0.68
   7   1  11    1.58    0.32
   6   5  10    1.27    0.33
   6   0  11    0.62    0.44
   6  -1  10    4.62    0.47
   5   2  12   98.46    1.05
   4   0  11   14.46    0.65
   7   3  11   13.69    0.40
   4   5  10    0.34    0.52
   4  -1  10    8.08    0.60
   3   3  11   83.65    1.12
   3   1  11    0.56    0.63
   7   2  11    7.14    0.39
   5   5  10  131.24    1.14
   5   0  11   10.97    0.59
   5  -1  10   10.16    0.57
   4   4  11    5.29    0.63
   3   2  11    1.73    0.65
   3   5   9   -0.84    0.54
   7   0  10   79.17    0.69
   3   4  10   72.20    1.02
   3   0  10  178.00    1.35
   4   3  11   14.64    0.70
   6   3  11    6.28    0.55
   4   2  11    0.45    0.59
   6   5   9    1.35    0.47
   6   2  11   53.05    0.81
   4   5   9    3.60    0.68
   8   3   9    0.23    0.24
   5   2  11    8.16    0.69
   4   4  10   38.42    0.83
   4   0  10    0.83    0.53
   3   1  10    5.31    0.44
   3  -4 -13   23.19    0.45
   4  -4 -10    8.67    0.55
   3  -1 -12   37.91    0.81
   3  -3 -13    0.29    0.46
   3  -5 -12    4.21    0.33
   1  -2 -15   99.71    0.69
   4  -2 -10    4.10    0.72
   2  -2 -14    0.39    0.40
   4  -1  -8  182.93    1.44
   4  -4  -9   63.48    0.89
   2  -1 -13   -0.21    0.56
   2  -4 -14    0.67    0.32
   1   0 -13  105.95    1.01
   1  -1 -14    7.87    0.58
   1  -3 -15    0.90    0.35
   1  -4 -15    4.39    0.27
   4  -2  -9    4.83    0.67
   4  -4  -8    6.52    0.57
   3  -2 -12    4.57    0.67
   2  -6 -12   45.28    0.49
   4  -4  -7   74.89    0.93
   3  -1 -11    4.22    0.68
   3  -5 -11   48.76    0.70
   4  -2  -8    8.30    0.54
   4  -3  -8   59.28    0.94
   3  -3 -12   83.82    1.00
   4  -3  -7   24.22    0.75
   2   0 -11   53.76    1.01
   3  -1 -10  184.82    1.48
   3  -3 -11    1.01    0.66
   1   0 -12    3.41    0.64
   1  -5 -14    4.14    0.33
   1  -6 -13    5.62    0.32
   3  -2 -10    4.50    0.77
   3  -5  -9    4.68    0.52
   2   0 -10    2.91    0.67
   0  -4 -15   60.09    0.59
  -1  -2 -15   96.67    0.82
   3  -4 -10   16.87    0.69
   2  -5 -12   47.69    0.72
   1  -3 -14   60.87    0.85
   1  -4 -14   37.63    0.65
   3  -3 -10    0.62    0.65
   2  -2 -12    0.23    0.70
   2  -6 -10   13.39    0.56
  -2  -2 -15    2.74    0.34
   3  -2  -9  159.96    1.43
  -1  -1 -14    1.21    0.55
   3  -4  -9   39.12    0.84
   2  -3 -12   47.65    0.95
   2  -4 -12   34.47    0.80
   1   0 -11  169.38    1.54
   1  -6 -12   56.21    0.66
   0   0 -12    7.96    0.68
  -1  -3 -15   25.02    0.54
   3  -4  -8  157.64    1.33
   2  -5 -11   17.68    0.67
   1  -1 -12  102.37    1.24
   1  -5 -13   59.00    0.74
  -1  -4 -15    1.40    0.32
   2  -1 -10   48.31    0.99
   2  -2 -11  134.42    1.42
   0  -1 -13   11.30    0.74
   1  -3 -13    0.88    0.68
   1  -4 -13    8.01    0.66
   0  -6 -13    2.57    0.37
   2  -4 -11    1.73    0.61
   0  -3 -14   13.77    0.65
   0  -4 -14    0.58    0.53
  -2  -3 -15   23.15    0.51
   2  -5 -10    0.87    0.59
   1  -2 -12   34.54    0.93
   1  -6 -11   11.02    0.53
  -1  -2 -14    8.44    0.64
  -1  -7 -12   13.67    0.36
   1  -1 -11    8.07    0.80
   0   0 -11  131.94    1.35
   2  -3 -10  101.90    1.24
   2  -5  -9   95.68    1.11
   0  -2 -13   89.84    1.21
  -1  -1 -13   23.26    0.76
   1  -3 -12   76.59    1.18
   1  -4 -12    3.11    0.70
   0  -1 -12   43.95    1.02
  -1  -5 -14    1.93    0.42
   2  -5  -8    1.08    0.58
   1  -6 -10   94.73    0.96
   0  -5 -13    1.58    0.56
   0  -6 -12   75.63    0.82
  -2  -2 -14   28.12    0.78
   2  -4  -9   46.86    0.91
   0  -3 -13   58.91    1.03
  -1  -4 -14   23.56    0.69
   1  -2 -11    5.82    0.58
   1  -5 -11   54.89    0.91
   0  -4 -13   41.54    0.88
  -3  -2 -14   34.96    0.66
  -2  -1 -13    6.79    0.64
  -2  -7 -12    0.82    0.26
   1  -3 -11   36.67    0.96
   1  -4 -11   28.41    0.83
   1  -6  -9    1.38    0.51
  -1  -7 -11    6.28    0.39
  -2  -5 -14   -0.19    0.40
   0  -1 -11   15.51    0.81
  -1  -2 -13   17.72    0.77
  -2  -3 -14    7.79    0.61
   1  -5 -10    5.07    0.65
   0  -5 -12    5.91    0.61
   0  -6 -11   25.62    0.70
  -1  -1 -12   59.60    1.09
  -2  -4 -14    5.44    0.54
  -3  -5 -14    2.91    0.37
  -1  -5 -13  137.67    1.18
  -2  -6 -13    2.02    0.37
  -3  -3 -14    0.74    0.60
  -4  -3 -14    3.30    0.39
   0  -3 -12   34.62    0.83
   0  -4 -12  110.32    1.29
  -1  -3 -13    4.00    0.68
   1  -3 -10    3.12    0.69
   1  -4 -10   73.39    1.10
  -1  -4 -13    0.53    0.65
   1  -5  -9    0.82    0.61
  -1  -7 -10   23.06    0.55
  -2  -2 -13   36.56    0.87
  -3  -6 -13   12.59    0.40
  -2  -7 -11   19.45    0.49
  -1  -2 -12   73.42    1.12
  -2  -5 -13    2.11    0.57
   0  -3 -11   44.38    1.01
  -1  -1 -11    6.79    0.77
  -1  -5 -12    0.74    0.63
  -3  -2 -13    7.79    0.62
   0  -4 -11    1.97    0.54
  -1  -6 -11    0.10    0.54
  -1  -7  -9   34.84    0.68
  -2  -4 -13    0.76    0.62
  -2  -6 -12   22.27    0.60
  -4  -2 -13    4.75    0.50
   0  -6  -9   12.43    0.61
  -1  -3 -12   13.10    0.76
  -1  -4 -12   14.88    0.79
  -3  -7 -11    2.17    0.33
   0  -5 -10    0.72    0.60
  -3  -5 -13   70.92    0.87
  -5  -3 -13    0.49    0.37
  -2  -7 -10   61.31    0.76
  -3  -3 -13    1.51    0.64
  -4  -5 -13    9.26    0.46
   0  -6  -8   79.97    0.97
  -2  -2 -12    7.28    0.79
  -3  -4 -13    3.47    0.58
  -3  -6 -12   30.60    0.64
  -4  -3 -13  146.58    1.21
   0  -4 -10  142.31    1.37
  -1  -2 -11   24.91    0.75
  -1  -5 -11   44.32    0.91
  -2  -1 -11  137.27    1.35
  -4  -6 -12    1.09    0.40
  -1  -6 -10   90.36    1.04
   0  -5  -9  219.43    1.54
  -1  -3 -11  112.34    1.32
  -2  -4 -12  123.94    1.32
  -1  -4 -11    4.28    0.57
  -2  -7  -9   -0.13    0.45
  -3  -2 -12  116.63    1.31
  -3  -7 -10   27.81    0.58
  -4  -7 -10   66.61    0.66
  -1  -6  -9   34.37    0.78
  -3  -1 -11    1.12    0.69
  -4  -2 -12    8.28    0.69
  -5  -5 -12    5.63    0.43
  -2  -2 -11   29.67    0.84
  -3  -6 -11    1.07    0.52
  -4  -5 -12   69.37    0.90
  -2  -5 -11   63.45    1.04
  -2  -6 -10   11.02    0.66
  -2  -7  -8   69.17    0.87
  -3  -4 -12    2.41    0.66
  -5  -6 -11   -0.31    0.35
  -3  -7  -9    1.29    0.43
  -4  -3 -12    2.71    0.66
  -4  -6 -11   51.79    0.78
  -5  -3 -12    0.54    0.55
  -2  -3 -11   39.68    0.98
  -2  -4 -11    1.14    0.68
  -5  -7  -9    8.77    0.33
  -1  -6  -8   34.75    0.78
  -6  -5 -11    0.50    0.31
  -6  -6 -10   -0.02    0.25
  -1  -5  -9    0.40    0.64
  -3  -5 -11   55.22    0.97
  -4  -7  -9    2.12    0.41
  -2  -5 -10   -0.22    0.61
  -2  -6  -9   49.01    0.85
  -3  -7  -8   15.37    0.56
  -4  -2 -11   -0.17    0.68
  -4  -5 -11   32.13    0.81
  -5  -2 -11    8.89    0.62
  -5  -5 -11   16.23    0.67
  -6  -3 -11    5.49    0.50
  -2  -4 -10  118.31    1.29
  -4  -6 -10    3.12    0.55
  -5  -6 -10    0.45    0.47
  -5  -7  -8   19.97    0.46
  -7  -4 -10    3.55    0.36
  -2  -3 -10    3.98    0.47
  -4  -7  -8   89.19    0.86
  -7  -3 -10    2.52    0.39
  -3  -7  -7    0.91    0.53
  -5  -3 -11   57.59    0.98
  -5  -4 -11   46.97    0.88
  -2  -6  -8   39.77    0.72
  -3  -5 -10   50.23    0.98
  -3  -6  -9   62.78    0.96
  -6  -6  -9    8.45    0.39
  -3  -2 -10   41.02    0.91
  -6  -5 -10    1.30    0.44
  -7  -5  -9    4.16    0.31
  -3  -3 -10    3.17    0.68
  -3  -4 -10   70.47    0.97
  -4  -5 -10    0.33    0.48
  -5  -5 -10  129.13    1.21
  -5  -6  -9   47.25    0.77
   8   4   8    2.79    0.25
   5   6   8    5.50    0.58
   5   1  10   12.34    0.73
   4   4  10   40.37    0.83
   8   1   8   68.65    0.60
   6   5   9    1.37    0.50
   5   4  10   18.69    0.84
   7   5   8   36.60    0.57
   7   1   9   49.17    0.71
   6   6   7    4.15    0.44
   6   3  10   82.31    1.05
   4   3  10   71.15    0.98
   5   3  10   -0.85    0.69
   4   6   7   14.47    0.72
   3   5   8  107.56    1.25
   7   3   9    1.84    0.50
   7   2   9   70.77    0.82
   6   4   9   55.75    0.91
   4   4   9   51.41    0.98
   8   4   7    8.85    0.37
   4   5   8  118.99    1.30
   5   5   8   56.51    0.96
   5   4   9   11.38    0.61
   5   1   9   88.36    1.06
   4   3   9   25.25    0.77
   3   5   7   46.54    0.93
   7   4   8    0.75    0.49
   6   3   9   17.95    0.74
   6   0   8   64.30    0.91
   4   2   9    1.14    0.40
   8   1   7    0.81    0.39
   5   3   9   44.41    0.95
   5   0   8   32.23    0.68
   9   2   5   11.82    0.24
   8   3   7    4.78    0.38
   7   3   8  105.53    1.02
   4   4   8   13.69    0.70
   8   2   7   59.48    0.68
   7   0   7   52.45    0.77
   6   4   8    0.89    0.62
   5   6   5    2.79    0.60
   4   5   7   13.82    0.58
   5   5   7    1.05    0.59
   5   4   8   37.88    0.86
   7   4   7   68.27    0.87
   6   6   4    1.56    0.36
   6   1   8   79.50    0.99
   6   3   8   11.28    0.73
   5   1   8    1.33    0.51
   9   1   4   24.40    0.34
   5   3   8  201.49    1.55
   8   3   6   20.49    0.52
   7   5   5   21.62    0.54
   6   5   6   79.53    0.97
   6   0   7    0.41    0.47
   4   5   6  169.80    1.41
   9   3   3   25.28    0.31
   7   1   7   23.90    0.61
   6   4   7   46.90    0.90
   5   5   6    4.00    0.64
   5   4   7   52.01    0.95
   8   0   5   48.55    0.59
   7   4   6    6.46    0.55
   7   5   4   34.32    0.60
   7   0   6    6.05    0.47
   9   1   3   14.21    0.34
   8   4   4   32.74    0.52
   8   3   5    2.28    0.44
   6   5   5   24.61    0.69
   6   3   7    1.56    0.46
   4   5   5    1.87    0.55
   6   2   7   71.64    1.02
   5   3   7    0.33    0.44
   8   1   5    0.84    0.41
   6   4   6    5.47    0.60
   5   5   5   12.43    0.55
   8   4   3   16.97    0.48
   8   2   5   55.26    0.71
   7   5   3   24.76    0.61
   7   4   5   55.62    0.84
   6   0   6  135.95    1.10
   7   2   6    9.52    0.59
   6   5   4   12.87    0.61
   9   2   2   25.83    0.37
   8   3   4   50.14    0.69
   8   0   4    0.60    0.36
   9   1   2    0.74    0.25
   9   0   1   44.86    0.41
   7   5   2    8.23    0.43
   5   5   4  129.74    1.22
   8   4   2    2.60    0.33
   9   2   1    2.18    0.22
   8   2   4    6.36    0.49
   8   1   4   23.68    0.58
   7   4   4    6.90    0.54
   6   2   6    1.08    0.45
   7   5  -1   32.48    0.47
   7   5   0    0.55    0.35
   9   2   0   50.35    0.44
   9   1   1   23.09    0.38
   8   3   3   10.13    0.49
   7   2   5   48.95    0.81
   7   1   5    1.50    0.50
   9   0   0    1.63    0.21
   8   4  -1    1.99    0.27
   6   0   5   55.05    0.78
   5   5   3    9.46    0.65
   9   2  -1    0.37    0.17
   7   4   3    3.94    0.51
   6   3   5   19.29    0.75
   9   0  -1   19.28    0.30
   8   2   3    1.10    0.43
   7   3   4    7.32    0.60
   8   1   3    3.54    0.47
   6   2   5  143.23    1.27
   6   1   5    7.61    0.56
   5   4   4    4.13    0.61
   6   5   1   13.74    0.58
   5   5   2   24.32    0.70
   7   2   4    9.50    0.60
   8   2   2   10.59    0.53
   8  -1   1    0.54    0.33
   7   3   3   36.75    0.78
   6   5   0   22.97    0.61
   8   3   0    7.74    0.47
   7   0   3   22.73    0.63
   6   4   2   -0.13    0.54
   6   2   4    7.17    0.48
   8   3  -1   10.11    0.44
   7   4   0   12.10    0.53
   7   3   2  106.65    1.11
   8  -1   0  117.15    0.84
   6   3   3    6.25    0.57
   7   4  -1    1.61    0.45
   7   4  -3    3.58    0.37
   6   4   1   55.70    0.89
   7   3   1    2.33    0.59
   7   2   2    6.08    0.60
   8   0   0   15.03    0.52
   6   2   3    2.79    0.47
   8   2  -5    0.22    0.21
   8  -1  -1    1.09    0.35
   6   3   2   47.65    0.88
   8   2  -2   47.95    0.67
   7   3   0   40.86    0.80
   8   2  -4   55.72    0.57
   8   2  -3    0.02    0.37
   8   1  -1   34.71    0.64
   8   0  -1   44.51    0.67
   6   4  -1    5.14    0.60
   8   1  -6    3.42    0.24
   7   3  -6    0.19    0.26
   6   3   1   42.81    0.88
   8   1  -2    6.53    0.46
   7   1   1    8.85    0.71
   7   0   1  103.96    0.97
   6   4  -5    0.34    0.40
   6   4  -2  119.39    1.11
   8   1  -3   54.13    0.69
   8   0  -2    1.25    0.41
   8  -1  -6   31.01    0.36
   8  -1  -3   16.45    0.43
   7   3  -5    6.58    0.43
   7   3  -2    0.56    0.51
   7   2   0   69.74    0.95
   8   0  -6   51.31    0.45
   8  -1  -4    0.91    0.36
   6   4  -4    0.90    0.44
   8  -1  -5   27.43    0.41
   6   3   0   14.81    0.69
   8   0  -5    1.33    0.32
   7   1   0  117.17    1.17
   7   2  -1    8.90    0.50
   7   0   0    1.82    0.41
   7  -1  -1    3.23    0.52
   5   4  -2   52.85    0.89
   7   2  -6   78.91    0.74
   6   3  -7   47.28    0.66
   6   2   0    9.38    0.66
   5   4  -5    0.54    0.55
   5   4  -3   16.83    0.67
   7   2  -4   16.72    0.64
   7   1  -8    1.46    0.33
   7   0  -9    0.66    0.25
   7   1  -2   79.13    1.01
   7  -1  -2   60.93    0.82
   7  -2  -3  118.73    0.95
  -5  -5  -5   13.87    0.75
  -4  -6  -6    4.58    0.73
  -4  -8  -4   71.66    0.79
  -3  -7  -6  118.92    1.27
  -3  -8  -5   35.14    0.74
  -3  -9  -2    6.74    0.35
  -4  -7  -5   48.89    0.88
  -5  -7  -3   91.35    0.89
  -1  -7  -6  114.30    1.15
  -1  -8  -5   70.61    0.85
  -1  -9  -3    1.95    0.34
  -5  -4  -4    5.19    0.59
  -3  -6  -6    0.12    0.69
  -3  -9  -1    4.37    0.28
  -4  -8  -3    8.45    0.49
  -4  -6  -5  103.26    1.18
  -5  -7  -2    1.62    0.41
  -3  -8  -4   -0.30    0.54
  -4  -5  -5    1.98    0.63
   0  -8  -4   -0.19    0.41
  -1  -6  -6   31.49    0.69
  -1  -9  -2   47.99    0.59
  -4  -7  -4   26.21    0.74
  -4  -8  -2   18.32    0.52
  -5  -6  -3   38.18    0.74
  -5  -7  -1   45.29    0.64
  -5  -7   2    0.39    0.22
   0  -9  -1   35.95    0.43
  -2  -9  -1   58.03    0.62
  -4  -8  -1    2.50    0.38
  -5  -7   0    0.56    0.34
  -5  -7   1    2.41    0.29
  -3  -8  -3   33.21    0.74
  -4  -8   2   42.23    0.42
  -5  -6  -2    9.80    0.57
  -1  -9  -1   -0.17    0.36
  -3  -6  -5   11.37    0.62
  -4  -6  -4    3.91    0.52
  -4  -8   0   14.42    0.38
   0  -9   0   22.27    0.38
  -2  -9   0   -0.09    0.26
  -3  -7  -4   38.61    0.86
  -2  -6  -5  178.63    1.47
  -2  -9   1    0.61    0.22
  -5  -5  -2   26.97    0.70
  -2  -8  -3    7.77    0.55
  -3  -8  -2   51.96    0.77
   0  -7  -4   30.31    0.70
   0  -9   1    1.93    0.23
  -1  -8  -3   87.52    0.97
  -4  -7  -2   27.42    0.72
  -1  -9   1   97.43    0.64
  -2  -7  -4   84.22    1.10
  -5  -5  -1   83.50    0.94
  -5  -6   0   78.08    0.82
  -1  -7  -4  149.16    1.28
  -3  -7  -3   47.60    0.91
  -3  -8  -1    0.38    0.50
  -5  -6   1    0.26    0.39
  -5  -6   3    0.43    0.28
  -2  -8  -2   40.68    0.78
  -4  -7  -1   50.83    0.77
  -5  -6   2   84.08    0.72
  -3  -8   0   65.75    0.77
  -5  -5   0    0.07    0.48
  -1  -8  -2   21.13    0.65
  -2  -7  -3    1.10    0.62
  -3  -7  -2    1.58    0.57
  -3  -8   1    6.77    0.44
  -2  -8  -1   51.27    0.80
  -3  -6  -3  101.20    1.16
  -3  -8   2    8.13    0.40
  -3  -8   3    2.77    0.29
  -4  -7   4    3.92    0.28
  -5  -5   1   88.67    0.89
  -1  -7  -3   16.99    0.69
  -4  -7   2    5.12    0.43
  -4  -7   3   11.92    0.42
   0  -8  -1  100.62    0.94
  -1  -8  -1    1.80    0.52
  -3  -7  -1   71.03    0.97
  -2  -7  -2   78.46    1.02
  -2  -8   1    1.65    0.51
  -2  -8   5    0.46    0.24
  -3  -6  -2    3.01    0.42
  -4  -6   0   36.91    0.74
   0  -7  -2  164.86    1.25
   0  -8   0    2.60    0.47
  -1  -7  -2    8.00    0.68
   1  -8   1   38.74    0.56
  -2  -8   2   79.67    0.80
  -2  -8   3    0.21    0.38
  -2  -8   4   63.19    0.59
  -3  -7   6    2.31    0.29
  -4  -6   1   31.32    0.68
  -1  -8   6   57.67    0.44
  -2  -7  -1   28.53    0.77
  -1  -8   1    8.33    0.53
  -3  -6  -1  103.50    1.11
  -4  -5   0  171.54    1.28
  -4  -6   2    0.41    0.46
  -4  -6   5    1.88    0.33
   1  -8   2    0.20    0.42
   0  -8   1   32.97    0.63
  -4  -6   3    5.72    0.44
  -4  -6   4   80.83    0.77
  -1  -8   2   20.82    0.58
  -1  -8   5    2.69    0.32
  -3  -6   8   83.06    0.49
  -3  -7   2    5.66    0.54
   1  -8   3   54.63    0.63
   0  -7  -1   11.60    0.65
   0  -8   2   58.31    0.78
  -1  -8   3   14.90    0.51
  -1  -8   4   54.20    0.64
  -2  -7   0   26.58    0.74
  -3  -7   3   94.05    0.88
  -4  -5   1    1.79    0.52
   1  -8   4   10.73    0.40
   1  -8   5   12.38    0.32
  -3  -6   0   62.31    0.93
   0  -8   3    0.16    0.41
   1  -7   0  122.47    1.04
  -2  -7   1  109.72    1.12
  -2  -7   7  116.45    0.68
  -4  -5   2   12.94    0.55
  -4  -5   6    8.82    0.37
   0  -7   0   34.64    0.75
  -2  -7   2   15.41    0.66
  -3  -6   7    0.01    0.35
  -4  -5   3  252.14    1.40
  -4  -5   5   50.53    0.71
  -1  -7   8    0.97    0.23
  -2  -7   6    0.76    0.36
  -4  -5   4   -0.06    0.44
  -1  -7   1    1.98    0.59
  -2  -6   9    5.84    0.27
  -2  -7   3   16.94    0.66
  -2  -7   5   39.65    0.65
  -3  -5   9    1.89    0.20
   1  -7   1    6.48    0.53
  -2  -7   4    1.59    0.41
  -3  -6   6   15.33    0.49
   0  -7   1   18.30    0.65
  -3  -6   4   18.86    0.62
  -3  -6   5    0.74    0.46
  -1  -7   2   61.12    0.90
  -1  -7   7    5.37    0.37
   0  -7   8    2.15    0.28
  -2  -6   1   96.78    1.08
   1  -7   2  155.99    1.17
   0  -7   2   17.96    0.66
  -1  -7   3   72.24    0.96
  -1  -7   6    1.65    0.43
  -1  -7   4    0.12    0.57
  -1  -7   5   64.51    0.84
  -3  -5   8    0.16    0.32
   2  -7   4   61.95    0.68
   0  -7   7   94.50    0.78
  -2  -6   2    1.77    0.55
   2  -7   5    5.76    0.38
   2  -7   6   30.88    0.49
   1  -7   3   34.83    0.71
  -2  -5  10    0.11    0.29
   1  -7   4    6.11    0.51
   0  -7   4   68.28    0.91
   0  -7   5   21.17    0.62
   0  -7   6    1.88    0.45
  -2  -6   3   83.78    0.99
  -3  -5   3    3.90    0.41
  -3  -5   7  126.79    0.93
   1  -7   5   27.74    0.61
   1  -7   6    9.84    0.46
  -1  -6   9   -0.34    0.31
  -2  -6   4   77.14    0.97
  -3  -5   4   21.85    0.64
  -3  -5   6    5.85    0.50
   0  -6  10   80.41    0.56
  -2  -6   5   -0.25    0.50
  -2  -6   6   78.96    0.80
  -3  -5   5  125.03    1.07
  -1  -5  11   18.24    0.32
  -1  -6   2  114.74    1.16
   2  -6  10   24.10    0.31
  -2  -4  11    1.71    0.27
   1  -6  10   30.24    0.40
  -1  -6   8  110.95    0.90
  -2  -5   9  107.23    0.83
  -1  -6   3   27.34    0.63
  -3  -4   8    4.29    0.42
   0  -6   9    1.96    0.39
  -1  -6   4   30.03    0.79
  -1  -6   7   10.62    0.59
   3  -6   8   25.03    0.39
  -1  -4  12   34.51    0.40
  -1  -6   5   61.06    0.92
  -2  -5   8    6.02    0.48
   3  -6   7   45.20    0.59
   2  -6   3  226.13    1.32
   2  -6   9   58.87    0.57
   1  -6   9    1.30    0.37
  -3  -4   6   23.21    0.60
   3  -6   6    1.56    0.36
   1  -6   3   46.00    0.82
   0  -6   8    1.64    0.46
  -1  -3  13   26.80    0.30
  -2  -5   7   12.54    0.55
   0  -5  11   77.25    0.62
   0  -6   4   26.15    0.74
  -2  -4  10   11.94    0.43
   2  -6   8    1.37    0.40
   1  -6   8   93.19    0.86
   0  -6   5   48.73    0.84
   0  -6   6   76.52    0.97
   0  -6   7   57.71    0.74
   2  -6   5   19.93    0.60
   1  -6   4    5.71    0.43
   2  -6   6    8.62    0.54
   2  -6   7   51.13    0.69
   1  -4  13   30.41    0.32
   1  -6   5  159.01    1.24
  -1  -5   9    4.53    0.44
   8  -1   6   69.88    0.38
   7  -1   8    4.27    0.23
   6  -1   9  131.48    0.66
   5  -4   9   88.33    0.40
   6  -3   9    3.05    0.20
   7  -2   8   97.91    0.50
   7  -3   8    0.42    0.15
   6   0   8   63.77    0.52
   6  -2   9    3.93    0.23
   8  -3   6    0.21    0.11
   6   1   6   20.52    0.30
   5  -1   9    2.02    0.27
   7   0   6    6.00    0.25
   5  -3   9   90.41    0.49
   4  -1   9   54.34    0.46
   8  -4   5    4.85    0.12
   7  -1   7   43.52    0.39
   7  -4   7   10.21    0.18
   6   1   5    6.69    0.27
   5   0   8   34.18    0.42
   5  -2   9   22.35    0.33
   4  -3   9    2.12    0.20
   8  -1   4   27.83    0.27
   6   0   7    0.20    0.25
   6  -1   8    2.32    0.25
   8  -1   3    9.95    0.21
   7   0   5   25.66    0.33
   6  -5   7    2.28    0.13
   8  -3   5   67.68    0.34
   7  -2   7    3.63    0.23
   7  -3   7    0.40    0.18
   6  -2   8   42.67    0.38
   7   0   4   37.07    0.37
   5  -1   8    0.34    0.18
   5  -4   8    0.14    0.18
   8  -4   4   19.88    0.18
   4  -4   8   16.28    0.26
   7  -4   6   45.50    0.33
   6  -1   7   46.80    0.42
   5  -3   8    1.51    0.24
   5  -6   6    0.15    0.11
   8  -2   3   46.69    0.33
   7  -2   6   33.64    0.38
   5  -5   7   26.42    0.27
   4  -2   8    3.52    0.24
   7  -1   5   51.91    0.43
   7  -3   6    4.90    0.24
   8  -2   2    0.27    0.15
   6  -3   7   92.16    0.56
   6  -6   5    5.55    0.14
   5  -1   7   81.20    0.56
   8  -3   3    2.28    0.16
   6  -1   6   12.23    0.31
   6  -5   6   28.09    0.29
   7  -1   4   36.35    0.39
   7  -6   3    0.07    0.09
   8  -3   2   41.57    0.30
   7  -4   5    0.22    0.22
   5  -4   7   40.35    0.42
   5  -2   7   19.09    0.37
   8  -3   1   18.53    0.22
   8  -4  -1   60.19    0.25
   8  -4   1    2.08    0.13
   7  -5   4    7.99    0.21
   6  -2   6   70.39    0.55
   6  -4   6   49.05    0.43
   4  -4   7   23.57    0.35
   8  -4   0    2.48    0.13
   6  -3   6    0.67    0.31
   5  -5   6   20.15    0.31
   5  -6   5   81.25    0.41
   4  -3   7   71.39    0.52
   7  -4   4   53.67    0.41
   7  -6   2   55.92    0.28
   7  -3   4   -0.07    0.27
   4  -5   6   82.48    0.51
   7  -2   3   25.10    0.35
   7  -5   3    7.51    0.22
   5  -2   6   68.38    0.54
   6  -4   5    4.54    0.32
   5  -4   6   67.53    0.47
   4  -6   5    6.18    0.22
   7  -6   1    0.53    0.14
   6  -3   5  129.93    0.69
   5  -7   3   10.74    0.19
   7  -2   2   76.30    0.50
   7  -3   3   58.76    0.46
   7  -4   3   13.41    0.29
   7  -5   2    1.87    0.21
   6  -5   4    1.90    0.26
   6  -6   3   14.35    0.24
   5  -5   5   22.50    0.35
   4  -4   6   14.79    0.28
   7  -2   1    0.08    0.21
   7  -6   0    2.24    0.14
   6  -2   4  121.71    0.67
   6  -7   1   20.06    0.20
   5  -6   4    3.63    0.24
   7  -4   2    0.48    0.23
   7  -2   0   20.62    0.30
   7  -6  -1    2.42    0.12
   6  -3   4   11.39    0.36
   6  -4   4   52.82    0.49
   4  -7   3    8.92    0.22
   4  -8   1   12.96    0.14
   7  -6  -3    0.40    0.09
   5  -3   5   42.35    0.45
   4  -5   5   28.46    0.37
   7  -3   1   20.89    0.31
   6  -6   2    7.24    0.24
   5  -7   2   54.92    0.34
   6  -5   3   85.56    0.53
   6  -7   0    1.65    0.14
   4  -6   4   11.63    0.28
   7  -3   0   87.74    0.51
   7  -5  -4   32.30    0.21
   4  -4   5  134.33    0.68
   6  -4   3    1.05    0.26
   5  -6   3    4.61    0.24
   7  -5  -3    1.58    0.14
   7  -5  -2   17.01    0.23
   6  -2   2   19.72    0.35
   6  -7  -1   12.89    0.19
   7  -4  -1    2.18    0.20
   6  -5   2    7.00    0.29
   6  -6   1   10.81    0.27
   5  -4   4   79.78    0.55
   7  -4  -2   31.80    0.31
   5  -8  -2    9.83    0.15
   4  -8   0    1.75    0.15
   6  -3   2   47.96    0.47
   6  -4   2  146.84    0.74
   6  -7  -2    1.50    0.14
   4  -5   4    3.34    0.27
   4  -7   2   21.77    0.28
   6  -7  -4    1.92    0.10
   6  -7  -3   18.03    0.19
   5  -5   3   10.22    0.32
   4  -6   3  151.29    0.69
   6  -6   0   95.67    0.51
   5  -8  -3   46.54    0.23
   6  -5   1    1.84    0.21
   5  -4   3    9.30    0.32
   5  -8  -4   12.37    0.15
   6  -4   1    0.01    0.26
   5  -7   0   45.49    0.36
   6  -6  -1   -0.06    0.23
   4  -8  -1   61.23    0.34
   3  -6   3   41.56    0.40
   3  -8   0    2.16    0.13
   5  -5   2   15.55    0.35
   4  -7   1   26.33    0.33
   6  -3   0    0.78    0.24
   6  -6  -2   60.06    0.42
   5  -6   1    9.64    0.30
   4  -5   3   72.02    0.52
   6  -4   0   62.14    0.50
   5  -7  -1   54.16    0.42
   4  -6   2   21.09    0.38
   6  -3  -1   85.97    0.58
   6  -5  -1   27.18    0.39
   6  -6  -5    3.86    0.17
   6  -6  -3    0.17    0.18
   5  -4   2    2.59    0.24
   6  -5  -6   64.96    0.37
   4  -8  -2   16.44    0.23
   6  -3  -2   69.15    0.51
   5  -5   1  140.78    0.77
   5  -6   0    5.35    0.31
   5  -7  -2    7.69    0.25
   3  -7   1    6.24    0.26
   6  -3  -3    3.70    0.24
   6  -4  -2   45.02    0.45
   6  -5  -5    6.47    0.25
   4  -7   0   27.68    0.36
   6  -4  -5    0.46    0.19
   6  -5  -4   17.32    0.30
   6  -5  -3  109.74    0.57
   5  -4   1    0.90    0.29
   3  -6   2    2.89    0.26
   6  -4  -4   35.77    0.38
   6  -4  -3    9.28    0.29
   5  -7  -3   52.32    0.41
   4  -6   1   17.75    0.36
   5  -6  -1   21.99    0.42
   5  -7  -6    0.03    0.14
   5  -7  -4    1.09    0.20
   5  -5   0    6.68    0.27
   5  -7  -5    4.27    0.22
   4  -8  -7   16.43    0.17
   4  -8  -4   24.50    0.27
   5  -4   0  149.20    0.81
   4  -8  -6    0.84    0.14
   4  -8  -5    8.63    0.20
   3  -8  -2    5.25    0.23
   5  -6  -2   63.64    0.56
   3  -7   0  135.63    0.71
   5  -5  -1   75.23    0.63
   4  -5   1   26.54    0.44
   5  -6  -3    0.01    0.29
   4  -7  -2    8.47    0.31
   3  -6   1   80.03    0.58
   5  -4  -1    3.05    0.32
   5  -5  -8   64.43    0.40
   5  -6  -7   10.91    0.26
   4  -7  -9    6.34    0.16
   3  -8  -3  120.65    0.61
   2  -8  -2    1.62    0.22
   4  -6 -10    0.88    0.13
   3  -7  -1   14.32    0.36
   5  -5  -3    1.83    0.34
   4  -5   0   32.22    0.47
   4  -7  -3   13.96    0.30
   6  -6  -5    3.98    0.25
   4  -2  -8    8.09    0.51
   3  -5 -11   49.26    0.55
   6  -3  -4  129.24    0.90
   6  -6  -4    1.58    0.26
   5  -2  -6   -0.04    0.44
   3  -2  -9  156.33    1.07
   3  -3 -10    0.94    0.40
   6  -3  -3    3.30    0.38
   6  -3  -2   70.57    0.68
   6  -4  -5    0.73    0.36
   6  -6  -3   -0.06    0.23
   5  -6  -8   11.69    0.32
   5  -7  -7   34.13    0.31
   5  -3  -7    3.81    0.36
   5  -5  -8   65.20    0.64
   4  -7  -9    6.18    0.22
   2  -4 -11    1.82    0.36
   6  -4  -4   37.28    0.55
   6  -5  -4   17.84    0.40
   6  -4  -2   45.63    0.56
   4  -4  -9   64.95    0.73
   3  -7 -10    3.60    0.25
   5  -3  -6  104.74    0.90
   5  -4  -7    8.16    0.49
   3  -4 -10   17.24    0.51
   2  -3 -10  100.77    0.87
   5  -6  -7   10.31    0.38
   4  -3  -8   59.12    0.79
   4  -6  -9    0.83    0.34
   2  -5 -11   17.15    0.42
   2  -6 -11    6.04    0.29
   5  -5  -7   49.57    0.65
   4  -5  -9   46.03    0.62
   4  -8  -7   16.20    0.22
   3  -3  -9   28.01    0.60
   3  -5 -10   42.41    0.63
   3  -6 -10   55.23    0.56
   5  -4  -6   42.71    0.66
   5  -7  -5    4.64    0.26
   4  -7  -8   10.59    0.32
   5  -6  -6    1.63    0.37
   4  -4  -8    6.44    0.51
   5  -5  -6    0.52    0.46
   4  -3  -7   24.42    0.61
   2  -4 -10  117.31    0.92
   5  -7  -4    0.73    0.27
   4  -6  -8  142.85    0.90
   4  -8  -6    0.94    0.20
   3  -4  -9   39.20    0.67
   5  -7  -3   51.97    0.45
   5  -7  -2    7.34    0.24
   3  -7  -9   50.63    0.50
   3  -8  -8   27.72    0.34
   2  -7 -10    0.18    0.27
   5  -4  -4    6.15    0.50
   4  -4  -7   73.46    0.85
   4  -7  -7   45.00    0.52
   2  -5 -10    0.34    0.44
   2  -6 -10   13.93    0.42
   5  -6  -4  108.03    0.79
   4  -5  -7   30.51    0.54
   4  -6  -7   -0.32    0.32
   4  -8  -4   23.69    0.34
   1  -7 -10   14.49    0.40
   5  -5  -3    2.36    0.42
   4  -7  -6   13.70    0.45
   3  -7  -8    0.91    0.38
   3  -8  -7    1.46    0.27
   2  -4  -9   49.13    0.71
   5  -5  -2   13.01    0.46
   4  -4  -6   82.69    0.89
   4  -8  -3    2.72    0.25
   4  -8  -2   15.94    0.29
   1  -5 -10    4.89    0.46
   3  -5  -8   11.63    0.57
   1  -6 -10   93.17    0.76
   1  -8  -9   16.97    0.36
   4  -5  -6   18.84    0.59
   4  -6  -6   65.68    0.76
   3  -6  -8   40.50    0.67
   2  -5  -9   98.18    0.91
   2  -8  -8   19.50    0.37
   4  -7  -5  105.35    0.76
   2  -6  -9    1.50    0.42
   2  -9  -6   44.38    0.39
   3  -8  -6   62.68    0.57
   3  -7  -7   46.77    0.62
   4  -5  -5   51.17    0.73
   4  -6  -5    0.26    0.41
   1  -9  -7    0.04    0.19
   0  -8  -9   11.80    0.31
   3  -6  -7    6.32    0.50
   1  -7  -9   51.96    0.60
   3  -8  -5    9.47    0.39
   2  -7  -8   30.73    0.54
   2  -9  -5    0.19    0.21
   4  -7  -2    8.75    0.38
   4  -7  -1    4.91    0.32
   2  -8  -7   39.08    0.46
   1  -5  -9    0.68    0.42
   3  -7  -6   21.56    0.54
   1  -6  -9    1.31    0.41
   4  -6  -3   48.20    0.65
   2  -9  -4   54.33    0.44
   4  -5  -3  155.19    1.03
   3  -5  -6    0.11    0.52
   3  -6  -6   32.44    0.65
   1  -9  -6   24.24    0.36
   0  -7  -9    0.37    0.34
   4  -6  -2  119.35    0.88
   3  -8  -3  117.51    0.75
   4  -6  -1    1.89    0.41
   3  -8   0    2.17    0.22
   2  -7  -7   34.18    0.62
   2  -8  -6    3.51    0.29
   2  -9  -2    3.11    0.27
   2  -9  -1    2.93    0.20
   0  -6  -9   12.39    0.54
  -1  -9  -7    0.09    0.18
   3  -8  -2    5.13    0.35
   3  -8  -1   31.73    0.43
   1  -7  -8   11.90    0.48
   0  -8  -8    8.39    0.40
   2  -6  -7    0.72    0.46
   1  -5  -8    0.58    0.44
   1  -8  -7    8.41    0.40
   3  -7  -4   25.95    0.58
   1  -6  -8   44.97    0.69
   1  -9  -5    0.31    0.27
   2  -8  -5   32.32    0.55
   0  -9  -6   42.61    0.44
  -1  -8  -8    1.31    0.28
   2  -7  -6    6.78    0.50
   3  -6  -4  110.22    0.93
   1  -9  -4   15.06    0.37
   0  -7  -8   88.18    0.78
   2  -6  -6   66.48    0.78
   2  -8  -4    2.37    0.40
   1  -8  -6    9.55    0.44
   3  -7  -2   -0.23    0.38
   3  -7  -1   14.69    0.47
   3  -7   0  132.77    0.85
   2  -7  -5   88.84    0.85
   1  -9  -3    4.48    0.30
   0  -6  -8   82.49    0.81
   0  -9  -5    0.36    0.29
   2  -8  -3    1.86    0.37
   1  -9   0   25.87    0.33
  -1  -7  -8    7.02    0.41
   1  -9  -1    0.71    0.25
   3  -6  -2   52.76    0.66
   2  -6  -5   43.46    0.69
   2  -8   1   74.47    0.56
   1  -8  -5   67.43    0.72
   2  -7  -4   42.95    0.68
   2  -8  -1  115.68    0.79
   2  -8   0    4.04    0.32
   1  -7  -6   54.52    0.72
   0  -7  -7   16.19    0.51
   0  -8  -6    0.44    0.38
   0  -9  -4   75.11    0.61
  -1  -6  -8   33.94    0.58
  -1  -9  -5   70.15    0.55
   3  -6  -1  106.04    0.85
  -2  -9  -5    0.59    0.23
   2  -7  -3   12.55    0.52
   1  -6  -6   45.87    0.68
   1  -8  -4    3.56    0.43
   0  -6  -7    0.97    0.44
   0  -9  -3   13.93    0.40
   2  -6  -4    3.57    0.36
   0  -9   1    2.06    0.19
  -1  -9  -4    6.59    0.34
  -3  -9  -4    1.98    0.19
   1  -7  -5    4.91    0.37
   0  -8  -5   36.59    0.61
   0  -9  -2    3.78    0.32
  -1  -7  -7    0.22    0.41
  -1  -8  -6    3.33    0.39
   1  -8  -3  125.90    0.92
   0  -9   0   22.25    0.34
  -2  -9  -4   37.33    0.44
  -1  -9  -3    1.91    0.32
  -2  -8  -6    0.61    0.34
  -3  -8  -6   12.41    0.33
   2  -7  -1    0.59    0.40
   1  -8  -2    1.64    0.39
  -2  -7  -7    0.08    0.37
   2  -7   0   23.38    0.52
   2  -7   1    8.34    0.42
   1  -7  -4  160.60    1.09
   1  -8   2    0.21    0.28
   0  -8  -4   -0.35    0.42
  -1  -6  -7  111.71    0.89
   1  -8   1   38.14    0.50
   0  -6  -6   99.67    0.87
  -1  -8  -5   71.85    0.76
  -1  -9  -2   48.27    0.51
  -1  -9   1   98.76    0.54
  -2  -9  -3   59.71    0.53
   1  -8   0   28.76    0.51
  -1  -9  -1    0.17    0.27
  -1  -9   0   10.94    0.29
   0  -7  -5    8.44    0.50
  -1  -7  -6  110.91    0.86
  -2  -9  -2    0.07    0.25
  -3  -9  -2    6.42    0.23
   0  -4  13    4.20    0.16
  -1  -1  13   13.18    0.38
  -2   0  11   53.26    0.65
  -2  -2  12   39.68    0.46
  -2  -4  11    1.36    0.30
  -3  -2  10    0.63    0.45
  -3  -4   9    3.74    0.35
  -1  -2  13    1.24    0.27
  -3  -5   7  129.45    0.80
  -1  -4  12   33.38    0.37
  -1  -5  11   18.08    0.28
   1  -2  14   15.12    0.25
  -1   0  12    3.15    0.36
  -2  -6   7   -0.08    0.31
  -3  -3   9  130.39    0.94
  -2   0  10    2.92    0.44
  -2  -1  11    0.39    0.42
  -2  -3  11   86.71    0.73
  -3  -2   9   58.57    0.75
  -3  -5   5  122.82    0.82
  -1  -6   9   -0.25    0.21
  -2  -5   9  106.24    0.71
  -2  -6   6   81.51    0.64
  -3  -4   7   18.14    0.49
   1  -4  13   29.84    0.27
   0  -1  13    7.78    0.40
  -1  -1  12    7.01    0.42
  -1  -3  12   24.22    0.45
   1  -5  12    1.42    0.14
  -3  -4   6   24.10    0.52
   0  -2  13  108.77    0.68
  -2  -5   8    6.52    0.38
  -3  -3   7   68.55    0.75
  -3  -4   5    8.28    0.43
  -2  -2  10   70.51    0.75
  -2  -3  10   25.09    0.48
   0  -4  12   28.13    0.40
   0  -5  11   75.25    0.50
  -1  -6   8  108.28    0.65
  -2  -4   9   11.52    0.46
  -1  -1  11   22.30    0.53
   1  -1  13    1.26    0.28
  -1  -3  11   41.60    0.61
  -2  -3   9    1.10    0.44
   1  -2  13    0.26    0.29
   0  -1  12   61.23    0.66
   0  -3  12    0.84    0.35
   0  -6   9    1.86    0.27
  -1  -2  11   64.79    0.73
  -1  -6   7   10.18    0.36
  -1  -4  10  127.48    0.87
  -2  -5   6   61.06    0.64
   0  -2  12    8.41    0.41
  -2  -5   5  110.12    0.78
   2  -3  13    9.62    0.27
   1  -5  11   16.46    0.32
   0   0  11  138.01    0.89
  -2  -3   8  104.12    0.86
  -2  -4   7   -0.37    0.48
   1  -7   7    7.51    0.24
   0  -4  11   51.82    0.51
   0  -5  10   12.31    0.39
  -1  -1  10   75.71    0.69
  -1  -3  10   16.16    0.51
  -1  -6   6   31.45    0.47
   3  -3  13    2.61    0.19
   2  -2  13   94.05    0.58
   2  -6  10   23.73    0.27
  -1  -2  10    2.49    0.45
  -1  -5   8    6.96    0.43
  -1  -4   9   52.42    0.65
   3  -2  13    6.69    0.25
   1  -1  12    3.39    0.41
   0  -1  11   -0.02    0.40
   0  -3  11   11.41    0.46
   2  -4  12   15.91    0.31
   2  -5  11   30.34    0.34
   1  -2  12   37.05    0.51
  -1  -3   9   44.93    0.63
  -1  -5   7   95.39    0.78
   3  -4  12   13.49    0.29
   0  -4  10    2.44    0.43
   0  -5   9   36.23    0.45
   0  -6   7   57.27    0.60
  -1  -2   9  133.05    0.90
   2  -7   7   47.20    0.37
   1  -4  11    1.33    0.34
   1  -5  10   35.27    0.47
  -1  -4   8    0.31    0.32
   3  -5  11   12.12    0.25
  -1  -5   6    0.94    0.38
   0  -3  10   80.39    0.74
   1  -6   8   93.28    0.64
   0  -6   6   74.76    0.66
   3  -7   7    0.31    0.16
   1  -1  11    7.69    0.38
   1  -3  11    6.64    0.40
   0  -4   9   35.72    0.57
   3  -3  12  121.11    0.64
   1  -2  11  216.80    1.04
   4  -3  12   15.80    0.28
   3  -6   9    3.20    0.21
   2  -5  10    0.59    0.30
   2  -7   6   32.06    0.34
   1  -4  10   51.25    0.59
   1  -5   9    8.03    0.40
   4  -6   9  103.42    0.43
   3  -2  12    2.38    0.27
   1  -6   7   22.92    0.43
   0  -3   9   -0.44    0.40
   0  -5   7    5.87    0.37
   4  -2  12   10.04    0.27
   0  -4   8   95.66    0.76
   3  -5  10   69.84    0.46
   1  -3  10   58.58    0.62
   4  -4  11   78.87    0.48
   4  -5  10    0.10    0.20
   3  -7   6   37.74    0.33
   2  -2  11   23.67    0.46
   2  -7   5    4.74    0.25
   4  -7   6   52.07    0.32
   2  -5   9   19.61    0.41
   1  -4   9  105.10    0.76
   1  -5   8   28.82    0.50
   0  -5   6  130.29    0.79
   5  -6   8    0.59    0.15
   1  -6   6   10.16    0.38
   5  -3  11    3.27    0.25
   4  -6   8    0.09    0.18
   2  -6   7   51.43    0.50
   4  -3  11    0.85    0.28
   3  -1  11   49.87    0.49
   3  -2  11  110.18    0.69
   3  -7   5   22.13    0.29
   1  -3   9   12.65    0.40
   3  -5   9    3.56    0.31
   2  -3  10   98.98    0.71
   1  -6   5  160.61    0.81
   5  -2  11   28.64    0.37
   4  -7   5    0.12    0.16
   1  -4   8    1.43    0.33
   5  -4  10    5.36    0.23
   4  -2  11   29.84    0.40
   4  -4  10   10.94    0.33
   2  -4   9   46.66    0.55
   3  -7   4    0.57    0.24
   1  -6   4    4.99    0.31
   5  -7   4    7.08    0.16
   6  -3  10   58.13    0.38
   5  -6   7   39.33    0.32
   1  -5   6    1.42    0.33
   6  -5   8   41.12    0.30
   4  -7   4   33.20    0.29
   3  -5   8   33.40    0.46
   2  -3   9    0.59    0.34
   7  -3   9   63.51    0.31
   3  -1  10   90.34    0.62
   3  -2  10    8.78    0.36
   3  -4   9  129.58    0.76
   2  -5   7    1.95    0.34
   6  -2  10   30.82    0.34
   6  -4   9    4.81    0.19
   5  -3  10    2.57    0.28
   3  -6   6    1.37    0.28
   2  -4   8    0.46    0.34
   2  -6   5   20.04    0.38
   5  -7   3   11.37    0.19
   4  -5   8   62.91    0.52
   5  -4   9   91.52    0.57
   5  -5   8   42.53    0.41
   4  -2  10   47.60    0.50
   4  -4   9   20.52    0.40
   4  -7   3    9.78    0.24
   5  -2  10   18.26    0.34
   7  -2   9    3.37    0.16
   3  -5   7    0.55    0.29
   2  -6   4    0.41    0.28
   3  -6   5  178.71    0.81
   6  -3   9    3.20    0.28
   3  -4   8    1.23    0.25
   2  -4   7   56.42    0.56
   7  -5   6    1.97    0.15
   3  -2   9   89.61    0.62
   6  -4   8   25.44    0.35
   4  -5   7    2.23    0.32
   2  -6   3  222.87    0.89
   4  -4   8   16.79    0.40
   4  -6   5    7.09    0.30
   2  -5 -11   16.67    0.45
   1  -6 -12   57.27    0.63
   1  -4 -12    3.43    0.46
   0  -5 -13    1.22    0.36
   3  -4  -8  158.97    1.17
   2  -7  -9    6.17    0.39
   1  -5 -12    3.79    0.47
   1  -7 -11    1.67    0.33
   3  -6  -6   31.68    0.60
   2  -6 -10   13.20    0.54
   1  -8  -9   16.20    0.35
   0  -7 -12    0.06    0.27
   2  -4 -10  117.76    1.09
   0  -3 -12   34.42    0.67
  -1  -4 -13    0.32    0.46
  -1  -6 -13    1.35    0.34
   3  -5  -7   56.11    0.83
   2  -5 -10    0.98    0.51
   2  -7  -8   30.20    0.55
  -1  -5 -13  134.53    0.89
  -1  -8 -11   35.73    0.36
   1  -6 -11   11.28    0.52
   1  -8  -8   38.92    0.50
   0  -8 -10   35.54    0.44
   2  -7  -7   33.63    0.58
   1  -5 -11   54.86    0.82
   1  -7 -10   15.19    0.49
   0  -4 -12  108.01    1.01
   0  -6 -12   76.71    0.75
   2  -4  -9   48.00    0.82
   2  -5  -9   99.26    1.01
  -2  -5 -13    2.56    0.40
   2  -7  -6    6.68    0.43
   1  -3 -10    4.37    0.53
   1  -8  -7    7.59    0.35
   0  -7 -11   55.06    0.64
   1  -6 -10   96.33    0.94
   0  -3 -11   40.97    0.74
  -2  -7 -12    1.12    0.26
   2  -5  -8    1.19    0.51
   1  -4 -10   74.73    0.93
   2  -6  -7    0.14    0.44
   1  -5 -10    5.49    0.56
  -1  -4 -12   14.37    0.60
   0  -6 -11   25.22    0.53
  -1  -5 -12    0.42    0.46
   2  -6  -6   64.68    0.78
   1  -7  -8   12.20    0.50
   0  -7 -10    9.82    0.49
  -1  -7 -11    6.15    0.41
   1  -6  -9    1.17    0.52
   2  -6  -5   43.15    0.67
  -1  -3 -11  107.81    0.99
  -2  -6 -12   22.17    0.50
  -2  -8 -10   11.44    0.34
   1  -4  -9   12.44    0.58
   1  -5  -9    0.97    0.53
   1  -7  -7   40.02    0.65
  -1  -8  -9   75.80    0.65
  -3  -6 -12   28.95    0.52
   0  -6 -10   52.47    0.81
   0  -8  -7  115.38    0.83
  -2  -5 -12   13.02    0.49
  -3  -8 -10    0.37    0.20
   1  -6  -8   47.36    0.78
   0  -7  -9    0.34    0.47
  -1  -6 -11    0.29    0.47
  -2  -7 -11   19.72    0.48
   1  -7  -6   54.43    0.73
   0  -5 -10    0.03    0.54
   0  -8  -6    0.46    0.34
  -3  -5 -12    5.02    0.41
  -3  -7 -11    1.90    0.30
   1  -5  -8    0.53    0.52
  -2  -8  -9   17.25    0.45
   3  -3  13    2.82    0.28
   2  -4  11   71.52    0.64
   1  -3  12   51.12    0.68
   0  -2  12    7.88    0.58
  -1  -1  11   21.85    0.70
  -1  -2  10    2.73    0.57
   3  -2  14    2.74    0.29
   1  -2  13    0.57    0.42
   1  -4  10   51.83    0.67
   0   0  13    3.93    0.52
  -1   1  11    7.87    0.58
   3   1  15   23.66    0.37
   3   0  15   13.29    0.32
   1   1  14    0.93    0.42
   1   0  14    7.27    0.44
  -1   0  11  165.68    1.28
   0  -3  10   80.77    0.91
   3  -4  11    0.46    0.24
  -1  -1  10   76.23    0.93
   2   2  14   27.02    0.49
   2  -1  14    7.60    0.42
   0  -1  12   58.80    0.76
   0  -2  11   19.02    0.62
   2  -3  12    9.33    0.44
   1   2  13   17.87    0.56
   1  -1  13    0.97    0.49
   1  -4   9  109.30    0.91
   0   1  12   44.28    0.76
   2  -2  13   93.40    0.79
   0   0  12    7.67    0.56
   2   1  14   54.28    0.65
   2   0  14   10.42    0.48
   1  -2  12   37.88    0.69
   0  -3   9    0.58    0.37
   3  -1  14   73.68    0.65
   1   0  13  185.71    1.22
   0   2  11   84.10    0.89
   3   2  14   35.59    0.48
   3  -3  12  121.49    0.81
   0  -2  10   30.16    0.68
   4  -1  14    4.13    0.31
   3  -2  13    6.42    0.38
   4   2  14   35.28    0.46
   4  -3  12   15.46    0.35
   3   0  14    2.81    0.40
   3  -4  10    0.37    0.33
   1  -3  10   59.04    0.80
   0   0  11  137.28    1.15
   4  -2  13   48.80    0.51
   3   1  14    0.41    0.36
   2  -1  13    2.42    0.48
   1   2  12   73.23    0.86
   5   1  14    0.14    0.24
   5   0  14    9.32    0.25
   2   2  13   35.54    0.62
   2  -2  12    0.02    0.45
   1  -2  11  224.23    1.37
   4   0  14   46.94    0.53
   1   1  12   57.54    0.78
   1   0  12    0.62    0.50
   0  -1  10  136.20    1.07
   4   1  14   25.44    0.44
   2   1  13    7.01    0.49
   2   0  13    0.11    0.47
   3  -1  13    8.96    0.48
   1  -3   9   12.90    0.55
   3   2  13    7.72    0.41
   2  -3  10  102.13    0.94
   1   2  11   25.68    0.62
   1  -1  11    6.88    0.47
   5  -1  13   23.78    0.40
   5  -3  11    3.54    0.34
   4  -1  13    5.38    0.41
   2  -1  12   76.77    0.86
   6   0  13    0.77    0.23
   4  -3  11    1.03    0.36
   3   0  13  109.79    0.90
   2   2  12    7.53    0.51
   2  -2  11   24.13    0.63
   1   1  11    7.34    0.51
   1   0  11   85.17    0.91
   4  -2  12    9.99    0.39
   5   2  13    0.15    0.27
   4   2  13    4.40    0.39
   2   1  12   29.68    0.63
   2   0  12   12.52    0.44
   4   0  13    0.37    0.38
   3  -3  10   14.77    0.48
   5   0  13   12.38    0.39
   3  -1  12    1.89    0.44
   2  -3   9    0.42    0.42
   0   0   0    0.00    0.00
;
_shelx_hkl_checksum              92508
loop_
_space_group_symop_operation_xyz
'x, y, z'
'-x, -y, -z'
loop_
_atom_site_label
_atom_site_type_symbol
_atom_site_fract_x
_atom_site_fract_y
_atom_site_fract_z
_atom_site_U_iso_or_equiv
_atom_site_adp_type
_atom_site_occupancy
_atom_site_site_symmetry_order
_atom_site_calc_flag
_atom_site_refinement_flags_posn
_atom_site_refinement_flags_adp
_atom_site_refinement_flags_occupancy
_atom_site_disorder_assembly
_atom_site_disorder_group
Br1 Br 0.71815(2) 0.80417(2) 0.44154(2) 0.01561(8) Uani 1 1 d . . . . .
Br2 Br -0.20515(2) 0.39079(3) 0.90014(2) 0.01647(8) Uani 1 1 d . . . . .
N1 N 0.3657(2) 0.6070(2) 0.61793(13) 0.0151(3) Uani 1 1 d . . . . .
H1C H 0.4711 0.6573 0.5837 0.018 Uiso 1 1 calc R U . . .
H1D H 0.3718 0.4875 0.6230 0.018 Uiso 1 1 calc R U . . .
N2 N 0.0874(2) 0.6914(2) 0.74319(13) 0.0155(3) Uani 1 1 d . . . . .
H2C H 0.0255 0.6220 0.8016 0.019 Uiso 1 1 calc R U . . .
H2D H 0.0577 0.8062 0.7438 0.019 Uiso 1 1 calc R U . . .
N3 N 0.4215(2) 0.8614(2) 0.74857(13) 0.0135(3) Uani 1 1 d . . . . .
H3A H 0.3901 0.9427 0.6927 0.016 Uiso 1 1 calc R U . . .
H3B H 0.3773 0.8982 0.8108 0.016 Uiso 1 1 calc R U . . .
N4 N 0.8909(2) 1.0474(3) 0.73349(18) 0.0229(4) Uani 1 1 d . . . . .
N5 N 0.3609(2) 0.5015(2) 0.85126(13) 0.0142(3) Uani 1 1 d . . . . .
H5C H 0.4811 0.4984 0.8546 0.017 Uiso 1 1 calc R U . . .
H5D H 0.3080 0.5306 0.9141 0.017 Uiso 1 1 calc R U . . .
N6 N 0.2295(3) 0.0189(2) 0.92914(15) 0.0198(4) Uani 1 1 d . . . . .
C1 C 0.2122(3) 0.6782(3) 0.55975(16) 0.0201(4) Uani 1 1 d . . . . .
H1A H 0.2039 0.6210 0.4962 0.024 Uiso 1 1 calc R U . . .
H1B H 0.2270 0.8075 0.5348 0.024 Uiso 1 1 calc R U . . .
C2 C 0.0464(3) 0.6366(3) 0.64033(17) 0.0198(4) Uani 1 1 d . . . . .
H2A H -0.0569 0.7028 0.6129 0.024 Uiso 1 1 calc R U . . .
H2B H 0.0170 0.5085 0.6530 0.024 Uiso 1 1 calc R U . . .
C3 C 0.6207(3) 0.8629(3) 0.74222(16) 0.0159(4) Uani 1 1 d . . . . .
H3C H 0.6717 0.8246 0.6745 0.019 Uiso 1 1 calc R U . . .
H3D H 0.6577 0.7777 0.8037 0.019 Uiso 1 1 calc R U . . .
C4 C 0.6941(3) 1.0451(3) 0.74489(18) 0.0193(4) Uani 1 1 d . . . . .
H4A H 0.6525 1.1314 0.6854 0.023 Uiso 1 1 calc R U . . .
H4B H 0.6478 1.0812 0.8142 0.023 Uiso 1 1 calc R U . . .
C5 C 0.2965(3) 0.3221(3) 0.84300(15) 0.0147(4) Uani 1 1 d . . . . .
H5A H 0.3767 0.2763 0.7868 0.018 Uiso 1 1 calc R U . . .
H5B H 0.1752 0.3312 0.8196 0.018 Uiso 1 1 calc R U . . .
C6 C 0.2899(3) 0.1915(3) 0.94846(16) 0.0178(4) Uani 1 1 d . . . . .
H6A H 0.4101 0.1814 0.9734 0.021 Uiso 1 1 calc R U . . .
H6B H 0.2058 0.2322 1.0049 0.021 Uiso 1 1 calc R U . . .
Be1 Be 0.3179(3) 0.6645(3) 0.74533(19) 0.0126(4) Uani 1 1 d . . . . .
H4C H 0.932(4) 1.065(4) 0.665(3) 0.043(9) Uiso 1 1 d . . . . .
H4D H 0.922(4) 1.137(5) 0.757(3) 0.037(8) Uiso 1 1 d . . . . .
H6C H 0.124(4) 0.028(4) 0.913(2) 0.029(7) Uiso 1 1 d . . . . .
H6D H 0.229(3) -0.058(4) 0.985(2) 0.019(6) Uiso 1 1 d . . . . .
loop_
_atom_site_aniso_label
_atom_site_aniso_U_11
_atom_site_aniso_U_22
_atom_site_aniso_U_33
_atom_site_aniso_U_23
_atom_site_aniso_U_13
_atom_site_aniso_U_12
Br1 0.01808(12) 0.01507(12) 0.01304(11) -0.00111(7) -0.00122(7) -0.00087(8)
Br2 0.01779(11) 0.01508(12) 0.01576(11) -0.00182(8) -0.00004(8) -0.00101(7)
N1 0.0184(8) 0.0138(8) 0.0125(7) -0.0024(6) 0.0003(6) -0.0018(6)
N2 0.0168(8) 0.0148(8) 0.0145(8) -0.0019(6) -0.0013(6) 0.0001(6)
N3 0.0140(7) 0.0133(8) 0.0132(7) -0.0026(6) -0.0014(6) -0.0001(6)
N4 0.0163(8) 0.0200(9) 0.0312(10) -0.0029(8) -0.0007(7) -0.0015(7)
N5 0.0166(7) 0.0140(8) 0.0117(7) -0.0017(6) -0.0012(6) 0.0002(6)
N6 0.0235(9) 0.0137(9) 0.0198(9) 0.0000(7) 0.0019(7) -0.0009(7)
C1 0.0273(11) 0.0194(10) 0.0140(9) -0.0007(8) -0.0068(8) 0.0000(8)
C2 0.0201(10) 0.0205(10) 0.0205(10) -0.0049(8) -0.0077(8) 0.0011(8)
C3 0.0148(9) 0.0165(9) 0.0168(9) -0.0043(7) -0.0013(7) 0.0000(7)
C4 0.0170(9) 0.0166(10) 0.0244(10) -0.0029(8) -0.0029(8) -0.0019(7)
C5 0.0177(9) 0.0126(9) 0.0135(9) -0.0020(7) -0.0012(7) 0.0008(7)
C6 0.0241(10) 0.0141(9) 0.0138(9) -0.0010(7) 0.0012(7) 0.0007(7)
Be1 0.0128(10) 0.0131(11) 0.0118(10) -0.0029(9) -0.0005(8) -0.0011(8)
loop_
_atom_type_symbol
_atom_type_description
_atom_type_scat_dispersion_real
_atom_type_scat_dispersion_imag
_atom_type_scat_source
C C 0.0181 0.0091 'International Tables Vol C Tables 4.2.6.8 and 6.1.1.4'
H H 0.0000 0.0000 'International Tables Vol C Tables 4.2.6.8 and 6.1.1.4'
Be Be 0.0038 0.0014 'International Tables Vol C Tables 4.2.6.8 and 6.1.1.4'
N N 0.0311 0.0180 'International Tables Vol C Tables 4.2.6.8 and 6.1.1.4'
Br Br -0.6763 1.2805 'International Tables Vol C Tables 4.2.6.8 and 6.1.1.4'
loop_
_geom_angle_atom_site_label_1
_geom_angle_atom_site_label_2
_geom_angle_atom_site_label_3
_geom_angle
_geom_angle_site_symmetry_1
_geom_angle_site_symmetry_3
_geom_angle_publ_flag
C1 N1 Be1 103.79(14) . . ?
C1 N1 H1C 111.0 . . ?
Be1 N1 H1C 111.0 . . ?
C1 N1 H1D 111.0 . . ?
Be1 N1 H1D 111.0 . . ?
H1C N1 H1D 109.0 . . ?
C2 N2 Be1 105.53(14) . . ?
C2 N2 H2C 110.6 . . ?
Be1 N2 H2C 110.6 . . ?
C2 N2 H2D 110.6 . . ?
Be1 N2 H2D 110.6 . . ?
H2C N2 H2D 108.8 . . ?
C3 N3 Be1 117.17(15) . . ?
C3 N3 H3A 108.0 . . ?
Be1 N3 H3A 108.0 . . ?
C3 N3 H3B 108.0 . . ?
Be1 N3 H3B 108.0 . . ?
H3A N3 H3B 107.2 . . ?
C4 N4 H4C 109(2) . . ?
C4 N4 H4D 106(2) . . ?
H4C N4 H4D 106(3) . . ?
C5 N5 Be1 114.09(14) . . ?
C5 N5 H5C 108.7 . . ?
Be1 N5 H5C 108.7 . . ?
C5 N5 H5D 108.7 . . ?
Be1 N5 H5D 108.7 . . ?
H5C N5 H5D 107.6 . . ?
C6 N6 H6C 109(2) . . ?
C6 N6 H6D 110.7(18) . . ?
H6C N6 H6D 108(3) . . ?
N1 C1 C2 106.03(16) . . ?
N1 C1 H1A 110.5 . . ?
C2 C1 H1A 110.5 . . ?
N1 C1 H1B 110.5 . . ?
C2 C1 H1B 110.5 . . ?
H1A C1 H1B 108.7 . . ?
N2 C2 C1 106.83(16) . . ?
N2 C2 H2A 110.4 . . ?
C1 C2 H2A 110.4 . . ?
N2 C2 H2B 110.4 . . ?
C1 C2 H2B 110.4 . . ?
H2A C2 H2B 108.6 . . ?
N3 C3 C4 111.48(16) . . ?
N3 C3 H3C 109.3 . . ?
C4 C3 H3C 109.3 . . ?
N3 C3 H3D 109.3 . . ?
C4 C3 H3D 109.3 . . ?
H3C C3 H3D 108.0 . . ?
N4 C4 C3 111.15(17) . . ?
N4 C4 H4A 109.4 . . ?
C3 C4 H4A 109.4 . . ?
N4 C4 H4B 109.4 . . ?
C3 C4 H4B 109.4 . . ?
H4A C4 H4B 108.0 . . ?
N5 C5 C6 113.18(15) . . ?
N5 C5 H5A 108.9 . . ?
C6 C5 H5A 108.9 . . ?
N5 C5 H5B 108.9 . . ?
C6 C5 H5B 108.9 . . ?
H5A C5 H5B 107.8 . . ?
N6 C6 C5 107.99(16) . . ?
N6 C6 H6A 110.1 . . ?
C5 C6 H6A 110.1 . . ?
N6 C6 H6B 110.1 . . ?
C5 C6 H6B 110.1 . . ?
H6A C6 H6B 108.4 . . ?
N3 Be1 N5 112.20(15) . . ?
N3 Be1 N1 110.25(15) . . ?
N5 Be1 N1 114.47(15) . . ?
N3 Be1 N2 110.80(15) . . ?
N5 Be1 N2 110.70(15) . . ?
N1 Be1 N2 97.55(14) . . ?
loop_
_geom_bond_atom_site_label_1
_geom_bond_atom_site_label_2
_geom_bond_distance
_geom_bond_site_symmetry_2
_geom_bond_publ_flag
N1 C1 1.491(3) . ?
N1 Be1 1.743(3) . ?
N1 H1C 0.9100 . ?
N1 H1D 0.9100 . ?
N2 C2 1.501(2) . ?
N2 Be1 1.748(3) . ?
N2 H2C 0.9100 . ?
N2 H2D 0.9100 . ?
N3 C3 1.490(2) . ?
N3 Be1 1.712(3) . ?
N3 H3A 0.9100 . ?
N3 H3B 0.9100 . ?
N4 C4 1.470(3) . ?
N4 H4C 0.87(4) . ?
N4 H4D 0.84(4) . ?
N5 C5 1.487(2) . ?
N5 Be1 1.724(3) . ?
N5 H5C 0.9100 . ?
N5 H5D 0.9100 . ?
N6 C6 1.472(3) . ?
N6 H6C 0.84(3) . ?
N6 H6D 0.83(3) . ?
C1 C2 1.512(3) . ?
C1 H1A 0.9900 . ?
C1 H1B 0.9900 . ?
C2 H2A 0.9900 . ?
C2 H2B 0.9900 . ?
C3 C4 1.513(3) . ?
C3 H3C 0.9900 . ?
C3 H3D 0.9900 . ?
C4 H4A 0.9900 . ?
C4 H4B 0.9900 . ?
C5 C6 1.517(3) . ?
C5 H5A 0.9900 . ?
C5 H5B 0.9900 . ?
C6 H6A 0.9900 . ?
C6 H6B 0.9900 . ?
