#------------------------------------------------------------------------------
#$Date: 2021-07-05 20:38:59 +0300 (Mon, 05 Jul 2021) $
#$Revision: 267179 $
#$URL: file:///home/coder/svn-repositories/cod/cif/7/70/74/7707453.cif $
#------------------------------------------------------------------------------
#
# This file is available in the Crystallography Open Database (COD),
# http://www.crystallography.net/
#
# All data on this site have been placed in the public domain by the
# contributors.
#
data_7707453
loop_
_publ_author_name
'Masahara, Shingo'
'Yokoyama, Hiromichi'
'Suzaki, Yuji'
'Ide, Tomohito'
_publ_section_title
;
 Convenient synthesis of copper(I) halide quasi-one-dimensional
 coordination polymers: their structures and solid-state luminescent
 properties.
;
_journal_issue                   25
_journal_name_full
'Dalton transactions (Cambridge, England : 2003)'
_journal_page_first              8889
_journal_page_last               8898
_journal_paper_doi               10.1039/d1dt01571k
_journal_volume                  50
_journal_year                    2021
_chemical_formula_moiety         'C5 H4 Br2 Cu N'
_chemical_formula_sum            'C5 H4 Br2 Cu N'
_chemical_formula_weight         301.45
_space_group_crystal_system      monoclinic
_space_group_IT_number           14
_space_group_name_Hall           '-P 2yn'
_space_group_name_H-M_alt        'P 1 21/n 1'
_atom_sites_solution_hydrogens   geom
_atom_sites_solution_primary     dual
_audit_creation_date             2021-03-13
_audit_creation_method
;
Olex2 1.3
(compiled 2020.11.12 svn.r5f609507 for OlexSys, GUI svn.r6272)
;
_audit_update_record
;
2021-03-13 deposited with the CCDC.	2021-05-19 downloaded from the CCDC.
;
_cell_angle_alpha                90
_cell_angle_beta                 100.957(4)
_cell_angle_gamma                90
_cell_formula_units_Z            4
_cell_length_a                   8.7546(3)
_cell_length_b                   3.91060(10)
_cell_length_c                   21.0487(7)
_cell_measurement_reflns_used    2954
_cell_measurement_temperature    90
_cell_measurement_theta_max      75.7910
_cell_measurement_theta_min      4.3150
_cell_volume                     707.48(4)
_computing_cell_refinement       'CrysAlisPro 1.171.40.84a (Rigaku OD, 2020)'
_computing_data_collection       'CrysAlisPro 1.171.40.84a (Rigaku OD, 2020)'
_computing_data_reduction        'CrysAlisPro 1.171.40.84a (Rigaku OD, 2020)'
_computing_molecular_graphics    'Olex2 1.3 (Dolomanov et al., 2009)'
_computing_publication_material  'Olex2 1.3 (Dolomanov et al., 2009)'
_computing_structure_refinement  'SHELXL 2018/3 (Sheldrick, 2015)'
_computing_structure_solution    'ShelXT (Sheldrick, 2015)'
_diffrn_ambient_temperature      90
_diffrn_detector                 'Hybrid Pixel Array Detector'
_diffrn_detector_area_resol_mean 10.0000
_diffrn_detector_type            HyPix
_diffrn_measured_fraction_theta_full 0.998
_diffrn_measured_fraction_theta_max 0.958
_diffrn_measurement_details
;
List of Runs (angles in degrees, time in seconds):

  # Type    Start    End  Width  t~exp~   \w     \q     \k     \f   Frames
#--------------------------------------------------------------------------
  1  \w    -98.00 -54.00   0.50    0.05    --  -46.45 -36.00  62.00   88
  2  \w    -69.00 -44.00   0.50    0.05    -- -102.00  61.00   0.00   50
  3  \w    -63.00 -36.00   0.50    0.05    -- -102.00  61.00 -30.00   54
  4  \w    -68.00 -31.00   0.50    0.05    -- -102.00  61.00 -60.00   74
  5  \w    -30.00  -5.00   0.50    0.05    --  -46.45  36.00-141.00   50
  6  \w    -67.00 -36.00   0.50    0.05    -- -102.00  61.00-180.00   62
  7  \w    -67.00 -31.00   0.50    0.05    -- -102.00  61.00-150.00   72
  8  \w    -99.00 -29.00   0.50    0.05    -- -102.00  77.00-150.00  140
  9  \w    -69.00 -30.00   0.50    0.05    -- -102.00  61.00  60.00   78
 10  \w    -68.00 -43.00   0.50    0.05    -- -102.00  61.00 150.00   50
 11  \w   -156.00-131.00   0.50    0.05    -- -102.00 -36.00  62.00   50
 12  \w    -26.00  36.00   0.50    0.05    --   46.45 -36.00  62.00  124
 13  \w     94.00 119.00   0.50    0.05    --  104.61  15.00 -60.00   50
 14  \w    136.00 161.00   0.50    0.05    --  104.61  15.00 -60.00   50
 15  \w     96.00 171.00   0.50    0.05    --  104.61  36.00-141.00  150
 16  \w     62.00 104.00   0.50    0.05    --  104.61 -94.00-150.00   84
 17  \w     36.00 119.00   0.50    0.05    --   46.45  36.00-141.00  166
 18  \w     43.00  73.00   0.50    0.05    --  104.61 -61.00  60.00   60
 19  \w    -26.00  26.00   0.50    0.05    --   46.45 -19.00 -90.00  104
;
_diffrn_measurement_device       'four-circle diffractometer'
_diffrn_measurement_device_type  'XtaLAB Synergy R, DW system, HyPix'
_diffrn_measurement_method       '\w scans'
_diffrn_orient_matrix_type
'CrysAlisPro convention (1999,Acta A55,543-557)'
_diffrn_orient_matrix_UB_11      0.0344990000
_diffrn_orient_matrix_UB_12      0.1406265000
_diffrn_orient_matrix_UB_13      -0.0641738000
_diffrn_orient_matrix_UB_21      -0.1622583000
_diffrn_orient_matrix_UB_22      -0.1162155000
_diffrn_orient_matrix_UB_23      -0.0351913000
_diffrn_orient_matrix_UB_31      -0.0677471000
_diffrn_orient_matrix_UB_32      0.3491970000
_diffrn_orient_matrix_UB_33      0.0142214000
_diffrn_radiation_monochromator  mirror
_diffrn_radiation_probe          x-ray
_diffrn_radiation_type           'Cu K\a'
_diffrn_radiation_wavelength     1.54184
_diffrn_reflns_av_R_equivalents  0.0230
_diffrn_reflns_av_unetI/netI     0.0241
_diffrn_reflns_Laue_measured_fraction_full 0.998
_diffrn_reflns_Laue_measured_fraction_max 0.958
_diffrn_reflns_limit_h_max       8
_diffrn_reflns_limit_h_min       -10
_diffrn_reflns_limit_k_max       4
_diffrn_reflns_limit_k_min       -3
_diffrn_reflns_limit_l_max       25
_diffrn_reflns_limit_l_min       -26
_diffrn_reflns_number            3394
_diffrn_reflns_point_group_measured_fraction_full 0.998
_diffrn_reflns_point_group_measured_fraction_max 0.958
_diffrn_reflns_theta_full        67.684
_diffrn_reflns_theta_max         75.917
_diffrn_reflns_theta_min         4.279
_diffrn_source                   'Rotating-anode X-ray tube'
_diffrn_source_type              'Rigaku (Cu) X-ray Source'
_exptl_absorpt_coefficient_mu    16.789
_exptl_absorpt_correction_T_max  1.00000
_exptl_absorpt_correction_T_min  0.46129
_exptl_absorpt_correction_type   multi-scan
_exptl_absorpt_process_details
;
CrysAlisPro 1.171.40.84a (Rigaku Oxford Diffraction, 2020)
Empirical absorption correction using spherical harmonics,
implemented in SCALE3 ABSPACK scaling algorithm.
;
_exptl_crystal_colour            'clear light colourless'
_exptl_crystal_colour_lustre     clear
_exptl_crystal_colour_modifier   light
_exptl_crystal_colour_primary    colourless
_exptl_crystal_density_diffrn    2.830
_exptl_crystal_description       block
_exptl_crystal_F_000             560
_exptl_crystal_size_max          0.616
_exptl_crystal_size_mid          0.081
_exptl_crystal_size_min          0.041
_refine_diff_density_max         0.760
_refine_diff_density_min         -1.298
_refine_diff_density_rms         0.227
_refine_ls_extinction_method     none
_refine_ls_goodness_of_fit_ref   1.152
_refine_ls_hydrogen_treatment    constr
_refine_ls_matrix_type           full
_refine_ls_number_parameters     82
_refine_ls_number_reflns         1406
_refine_ls_number_restraints     0
_refine_ls_restrained_S_all      1.152
_refine_ls_R_factor_all          0.0363
_refine_ls_R_factor_gt           0.0352
_refine_ls_shift/su_max          0.000
_refine_ls_shift/su_mean         0.000
_refine_ls_structure_factor_coef Fsqd
_refine_ls_weighting_details
'w=1/[\s^2^(Fo^2^)+(0.0483P)^2^+3.8749P] where P=(Fo^2^+2Fc^2^)/3'
_refine_ls_weighting_scheme      calc
_refine_ls_wR_factor_gt          0.0933
_refine_ls_wR_factor_ref         0.0941
_reflns_Friedel_coverage         0.000
_reflns_number_gt                1353
_reflns_number_total             1406
_reflns_threshold_expression     'I > 2\s(I)'
_cod_data_source_file            d1dt01571k2.cif
_cod_data_source_block           hy312
_cod_depositor_comments
'Adding full bibliography for 7707451--7707455.cif.'
_cod_database_code               7707453
_shelx_shelxl_version_number     2018/3
_shelx_space_group_comment
;
The symmetry employed for this shelxl refinement is uniquely defined
by the following loop, which should always be used as a source of
symmetry information in preference to the above space-group names.
They are only intended as comments.
;
_shelx_estimated_absorpt_t_max   0.546
_shelx_estimated_absorpt_t_min   0.034
_reflns_odcompleteness_completeness 99.93
_reflns_odcompleteness_iscentric 1
_reflns_odcompleteness_theta     66.97
_olex2_refinement_description
;
1. Fixed Uiso
 At 1.2 times of:
  All C(H) groups
2.a Aromatic/amide H refined with riding coordinates:
 C1(H1), C3(H3), C4(H4), C5(H5)
;
_shelx_res_file
;
TITL hy312_a.res in P2(1)/n
    hy312.res
    created by SHELXL-2018/3 at 20:20:16 on 13-Mar-2021
REM Old TITL hy312_a.res in P2(1)
REM SHELXT solution in P2(1)/n: R1 0.059, Rweak 0.002, Alpha 0.021
REM <I/s> 1.822 for 217 systematic absences, Orientation as input
REM Formula found by SHELXT: C5 N Br2 Cu
CELL 1.54184 8.7546 3.9106 21.0487 90 100.957 90
ZERR 4 0.0003 0.0001 0.0007 0 0.004 0
LATT 1
SYMM 0.5-X,0.5+Y,0.5-Z
SFAC C H Br Cu N
UNIT 20 16 8 4 4

L.S. 10
PLAN  1
SIZE 0.041 0.081 0.616
TEMP -183.15
CONF
BOND
LIST 6
MORE -1
BOND $H
fmap 2
acta
REM <olex2.extras>
REM <HklSrc "%.\\hy312.hkl">
REM </olex2.extras>

WGHT    0.048300    3.874900
FVAR       0.43939
BR1   3    0.168668    1.116843    0.323379    11.00000    0.01213    0.01631 =
         0.01128    0.00050    0.00325   -0.00016
BR2   3    0.751177    0.160869    0.518867    11.00000    0.01851    0.02073 =
         0.01198    0.00160   -0.00022    0.00017
CU1   4    0.318264    0.627547    0.295985    11.00000    0.01207    0.02387 =
         0.01707    0.00255    0.00200    0.00174
N1    5    0.539530    0.552800    0.343134    11.00000    0.00864    0.02197 =
         0.01439   -0.00172    0.00093   -0.00015
C1    1    0.568838    0.407229    0.401866    11.00000    0.01286    0.02321 =
         0.01188    0.00078    0.00575   -0.00105
AFIX  43
H1    2    0.484167    0.340795    0.421427    11.00000   -1.20000
AFIX   0
C3    1    0.844707    0.440781    0.406716    11.00000    0.00907    0.02226 =
         0.01799   -0.00061    0.00084    0.00141
AFIX  43
H3    2    0.948451    0.399301    0.428447    11.00000   -1.20000
AFIX   0
C2    1    0.718744    0.351521    0.434586    11.00000    0.01916    0.01219 =
         0.01203    0.00281    0.00061   -0.00133
C4    1    0.813991    0.592160    0.346232    11.00000    0.01106    0.02888 =
         0.01749   -0.00170    0.00549   -0.00304
AFIX  43
H4    2    0.896952    0.659492    0.325718    11.00000   -1.20000
AFIX   0
C5    1    0.661030    0.644522    0.315898    11.00000    0.01333    0.02170 =
         0.01140   -0.00193    0.00326   -0.00132
AFIX  43
H5    2    0.640904    0.748862    0.274386    11.00000   -1.20000
AFIX   0
HKLF 4




REM  hy312_a.res in P2(1)/n
REM wR2 = 0.0941, GooF = S = 1.152, Restrained GooF = 1.152 for all data
REM R1 = 0.0352 for 1353 Fo > 4sig(Fo) and 0.0363 for all 1406 data
REM 82 parameters refined using 0 restraints

END

WGHT      0.0483      3.8749

REM Highest difference peak  0.760,  deepest hole -1.298,  1-sigma level  0.227
Q1    1   0.7406 -0.2287  0.5172  11.00000  0.05    0.76
;
_shelx_res_checksum              23448
_shelx_hkl_file
;
   0   0  -2  371.10    7.69
   0   0  -3    0.69    0.60
   0   0  -4  506.31   11.38
   0   0  -5    3.26    1.33
   0   0  -6 7458.11  128.50
   0   0  -7    0.65    1.09
   0   0  -8 2538.35   48.98
   0   0  -9    0.13    1.51
   0   0 -10 2537.35   50.90
   0   0 -11   -0.49    1.69
   0   0 -12  511.05   16.78
   0   0 -13    4.98    2.23
   0   0  14  525.94   17.49
   0   0 -14  513.62   18.13
   0   0  15    0.21    1.61
   0   0 -15    0.95    2.03
   0   0  16   16.81    3.30
   0   0 -16   18.94    3.84
   0   0  17   -0.24    1.77
   0   0 -17    1.35    2.28
   0   0 -18  125.55    9.44
   0   0  18  132.31    9.08
   0   0 -19    1.95    3.07
   0   0 -19    1.42    2.31
   0   0  19   -0.24    1.98
   0   0 -20  720.99   24.01
   0   0  20  684.68   22.56
   0   0 -21   -0.74    2.43
   0   0  21   -0.44    1.86
   0   0 -22  299.15   13.33
   0   0 -23    1.51    2.23
   0   0 -24  200.94    9.02
   0   0  24  199.08    7.61
   0   0 -25    2.25    1.41
   0   0 -26 1212.16   24.40
   0   1   0    0.66    0.56
   0   1   1   66.15    2.39
   0   1  -1   59.47    2.61
   0  -1  -2    4.76    0.55
   0   1  -2    3.13    0.84
   0   1  -2    3.41    0.52
   0   1  -3  902.58   18.28
   0   1  -3  902.70   16.70
   0  -1  -3  863.37   16.62
   0  -1  -4    5.58    0.96
   0   1  -4    8.73    1.12
   0   1  -5  864.65   17.94
   0  -1  -5  855.47   17.94
   0  -1  -6 1375.55   28.34
   0   1  -6 1482.83   28.44
   0   1  -7 1618.02   31.92
   0  -1  -7 1548.90   31.85
   0  -1  -8   81.14    4.80
   0   1  -8   87.02    4.90
   0   1  -9  330.21   10.96
   0  -1  -9  321.58   10.95
   0  -1 -10 3355.48   65.92
   0   1 -10 3613.96   66.38
   0  -1 -11  569.11   16.93
   0   1  11  555.75   15.43
   0   1 -11  536.72   16.41
   0  -1 -12  414.31   14.56
   0   1  12  387.01   12.78
   0   1  12  426.52   13.85
   0   1 -12  397.10   14.19
   0  -1  12  421.08   13.84
   0   1  13   22.98    3.01
   0   1 -13   22.32    3.37
   0  -1  13   22.13    3.23
   0  -1 -13   29.08    3.88
   0   1  13   20.01    3.09
   0  -1  14  125.96    7.65
   0   1  14  125.86    7.59
   0   1 -14  129.19    8.24
   0   1  14  130.21    7.17
   0  -1 -14  136.54    8.56
   0  -1  15  641.62   20.07
   0   1  15  633.40   19.90
   0   1 -15  632.64   20.90
   0  -1 -15  646.55   21.40
   0   1  16 2940.14   60.31
   0  -1  16 2907.39   60.27
   0  -1 -16 2767.89   61.94
   0   1 -16 2876.25   61.89
   0   1  17  978.03   27.46
   0  -1  17 1014.98   27.76
   0   1 -17 1010.47   28.96
   0  -1 -17 1008.23   29.44
   0  -1 -17 1023.27   29.41
   0   1 -17  990.60   29.04
   0   1 -18   62.36    6.36
   0  -1  18   72.90    6.17
   0  -1 -18   76.43    7.13
   0  -1 -18   69.74    6.73
   0   1 -18   70.82    6.81
   0   1  18   76.58    6.36
   0  -1 -19 1086.23   30.36
   0  -1  19 1066.55   28.62
   0   1 -19 1089.56   29.94
   0  -1 -19 1070.69   30.67
   0   1  19 1077.23   28.63
   0   1 -19 1020.97   29.98
   0   1 -20  466.35   17.19
   0  -1  20  465.32   16.34
   0   1  20  465.83   16.44
   0  -1 -20  477.58   17.59
   0  -1 -21  221.87   10.93
   0   1 -21  207.71   10.44
   0   1 -22  386.32   13.93
   0  -1 -22  396.31   14.28
   0   1  23  112.50    6.31
   0   1 -23  101.94    6.02
   0  -1 -23  104.23    6.19
   0   1  24  232.07    8.39
   0  -1 -24  222.83    8.30
   0   1 -24  226.26    8.23
   0  -1 -25  546.27   12.98
   0   1 -25  546.80   12.82
   0   2   0   86.27    4.06
   0   2   1 3477.24   61.49
   0   2  -1 3447.71   62.64
   0   2   2  311.39    8.28
   0   2   3 2311.07   41.74
   0   2   4  551.99   12.11
   0   2   5 2729.89   48.33
   0   2  -6   56.54    5.24
   0   2   6   67.28    4.33
   0   2  -7 1401.31   33.94
   0   2   7 1358.37   30.53
   0   2   7 1341.13   29.19
   0   2   8   76.66    4.89
   0   2  -8   79.32    6.46
   0   2   8   71.97    5.17
   0   2   9 3055.61   60.92
   0   2  -9 3110.35   64.65
   0   2 -10   35.37    4.64
   0   2 -11  401.95   16.49
   0   2 -12   37.16    4.95
   0   2  12   31.01    3.95
   0   2 -13  203.00   11.61
   0   2  13  178.48    9.63
   0   2  14    0.41    1.74
   0   2 -14    2.57    2.10
   0   2  15 1761.39   40.92
   0   2 -15 1720.87   42.92
   0   2 -16    2.48    2.09
   0   2 -17  349.30   14.41
   0   2 -18   57.93    5.19
   0   2  19   52.11    4.97
   0   2  20   73.78    5.40
   0   2  20   67.32    4.88
   0   2  21  382.82   11.59
   0   2  21  418.06   12.97
   0   2  22   72.96    4.35
   0   2  23  115.03    4.84
   0   3   0    4.41    1.48
   0   3   1  915.69   22.30
   0   3   1  913.87   22.63
   0   3   1  849.39   22.36
   0   3   2  133.07    7.34
   0   3   2  126.46    7.02
   0   3   2  140.56    7.24
   0   3   2  138.81    6.81
   0   3  -2  141.19    7.30
   0   3  -2  127.77    7.92
   0   3   3  429.07   14.79
   0   3   3  457.77   13.81
   0   3  -3  437.12   16.29
   0   3   3  431.48   14.38
   0   3   3  475.86   14.62
   0   3   4   12.40    2.37
   0   3   4    8.15    1.94
   0   3   4    5.85    1.95
   0   3   4    7.22    2.29
   0   3  -4   11.21    2.82
   0   3   5  399.42   15.08
   0   3   5  408.38   14.37
   0   3   5  438.09   14.10
   0   3   6   33.84    4.30
   0   3   6   39.56    3.82
   0   3   6   28.89    3.63
   0   3   7 1156.76   29.21
   0   3   7 1141.71   30.78
   0   3   7 1168.75   28.37
   0   3  -7 1220.55   33.77
   0   3  -8   66.40    6.90
   0   3   8   64.43    5.43
   0   3   8   62.09    6.08
   0   3  -9   18.56    4.03
   0   3   9   18.90    3.86
   0   3 -10  647.89   23.74
   0   3  10  583.80   21.84
   0   3  11  363.97   13.72
   0   3 -11  331.19   15.81
   0   3  12  147.60    9.68
   0   3  12  157.87    8.65
   0   3  13   19.37    3.79
   0   3  13   20.11    3.27
   0   3 -13   22.10    3.98
   0   3  13    9.99    2.70
   0   3 -14   53.19    5.51
   0   3  14   50.24    4.91
   0   3  14   51.13    5.43
   0   3  15  575.55   18.74
   0   3 -15  575.02   18.68
   0   3 -16  660.80   19.09
   0   3  16  681.81   19.48
   0   3  17   73.83    4.94
   0   3 -17   63.72    4.57
   0   3  18  367.44   10.82
   0   3  19  339.94    8.96
   0   4   0 2620.41   51.02
   0   4   0 2508.12   50.17
   0   4   1   47.84    3.92
   0   4   1   45.81    3.90
   0   4  -1   44.24    3.85
   0   4  -2  125.51    6.76
   0   4   2  127.61    6.66
   0   4   3   20.21    3.35
   0   4  -3   12.95    2.41
   0   4  -4   75.42    5.41
   0   4   4   76.19    6.04
   0   4  -5   12.08    2.55
   0   4   5   14.76    3.11
   0   4   6  840.53   23.45
   0   4  -6  840.42   22.74
   0   4   7  311.81   12.52
   0   4  -7  296.87   11.96
   0   4   8  326.57   12.80
   0   4  -8  329.10   12.64
   0   4   9  176.15    8.80
   0   4  -9  149.63    8.07
   0   4 -10  128.41    7.41
   0   4  10  208.84    9.09
   0   4 -11   15.37    2.60
   0   4  11   36.94    3.74
   0   4  12   60.45    4.30
   0   4  13  162.80    6.49
   0   4  14  139.09    5.16
   1   0 -26    1.10    1.17
   1   0 -25 1028.93   24.18
   1   0 -24    2.79    2.09
  -1   0  24    6.59    1.50
   1   0 -23  135.12    8.38
  -1   0  23  144.18    7.21
   1   0 -22    2.10    2.74
   1   0 -21   52.36    6.00
   1   0 -20    3.35    2.03
  -1   0  19 2114.04   48.73
   1   0 -19 2044.69   50.24
  -1   0  18   16.78    3.51
   1   0 -18   21.38    4.29
  -1   0  17  104.79    7.76
   1   0 -17   96.99    7.97
   1   0 -16    0.25    1.79
  -1   0  16    2.20    1.57
   1   0 -15  932.04   27.66
  -1   0  15  980.46   26.79
   1   0 -14   12.80    3.40
  -1   0  14   11.36    2.81
   1   0 -13 1959.81   44.19
  -1   0  13 1967.28   42.82
   1   0 -12   29.08    4.28
   1   0 -11 2125.56   44.57
   1   0 -10    2.45    2.03
   1   0  -9  496.32   14.54
   1   0  -8   61.76    4.86
   1   0  -7 5062.10   89.78
   1   0  -6    0.84    1.01
   1   0  -5   44.64    2.84
   1   0  -4   11.59    1.21
   1   0  -3 1132.69   20.45
   1   0  -2   18.97    1.08
  -1   0   2   19.15    1.18
  -1   0   2   17.05    1.18
  -1   0   1 3772.36   63.88
  -1   0   1 3773.79   63.87
  -1   0   0    1.62    0.43
  -1   0  -1 3308.32   56.49
  -1   0  -2    3.00    0.75
   1   0   2    2.60    0.74
   1   0   3 1304.87   24.58
  -1   0  -3 1290.34   24.37
   1   0   4    0.67    1.22
  -1   0  -4    2.21    1.15
   1   0   5   66.94    3.64
  -1   0  -5   67.37    3.60
   1   0   6   25.28    2.80
  -1   0  -6   27.38    3.30
  -1   0  -7 8526.40  147.69
  -1   0  -8    4.22    1.89
  -1   0  -9  479.54   14.43
  -1   0 -10   19.55    3.44
  -1   0 -11 5539.94  102.61
  -1   0 -12   23.15    3.78
  -1   0 -13 1824.03   42.31
  -1   0 -14    7.13    2.97
  -1   0 -15    9.26    2.61
  -1   0 -15    9.20    2.96
  -1   0 -16    1.34    2.35
  -1   0 -16   -0.53    2.37
   1   0  16    0.93    1.50
  -1   0 -17 2779.45   63.18
  -1   0 -17 2791.25   62.38
   1   0  17 2846.88   61.00
  -1   0 -18   23.24    4.40
  -1   0 -18   21.91    4.33
   1   0  18   26.16    4.37
   1   0  19  205.12   11.35
  -1   0 -19  207.63   12.05
  -1   0 -19  210.27   12.28
  -1   0 -20   -0.26    2.45
   1   0  20    2.28    1.98
   1   0  21    6.79    2.47
  -1   0 -21    6.06    2.95
  -1   0 -22    5.04    2.69
   1   0  22    5.91    2.23
  -1   0 -23  266.63   11.06
  -1   0 -24   11.49    2.37
  -1   0 -25   77.79    4.28
  -1   1  25   41.65    2.92
   1  -1 -25   36.35    2.78
   1   1 -25   37.99    2.75
   1   1 -24  337.57   11.01
  -1   1  24  369.68   11.40
   1  -1 -24  343.11   11.22
  -1   1  23  926.01   22.93
   1  -1 -23  909.13   23.33
   1   1 -23  872.84   22.80
  -1   1  22    6.74    2.21
   1  -1 -22   10.38    2.64
   1   1 -22    7.86    2.50
   1  -1 -21  110.94    7.82
   1   1 -21  112.66    7.81
   1  -1 -20   24.17    4.31
   1   1 -20   24.97    4.25
   1   1 -19   14.75    3.40
   1  -1 -19    9.13    2.70
   1  -1 -18 1036.78   30.09
   1   1 -18 1045.01   29.88
  -1  -1  17 1642.35   39.13
  -1   1  17 1688.38   39.23
   1   1 -17 1601.03   40.46
   1  -1 -17 1605.28   40.83
  -1  -1  16  313.09   13.10
  -1   1  16  313.22   13.12
   1   1 -16  284.43   13.34
   1  -1 -16  298.06   13.83
  -1   1  15  774.04   22.27
   1   1 -15  710.31   22.46
  -1  -1  15  794.47   22.55
   1  -1 -15  737.51   22.98
  -1   1  14 2064.96   44.06
   1   1 -14 1949.11   44.98
  -1  -1  14 2017.29   44.02
   1  -1 -14 1984.75   45.51
   1   1 -13   53.30    5.19
  -1  -1  13   56.02    4.99
   1  -1 -13   53.85    5.17
  -1   1  13   57.54    4.95
   1   1 -12  531.28   17.28
   1  -1 -12  550.04   17.57
  -1  -1  12  565.76   16.74
  -1   1  12  564.73   16.32
  -1   1  12  542.17   16.42
  -1   1  11  227.48    8.97
   1   1 -11  227.83    9.97
   1  -1 -11  244.02   10.36
   1  -1 -10  733.85   19.64
   1   1 -10  723.66   19.39
   1  -1  -9 3381.49   65.50
   1   1  -9 3636.34   65.83
   1   1  -8 4449.91   77.16
   1  -1  -8 3992.30   76.65
   1   1  -7  774.97   18.27
   1  -1  -7  789.58   18.47
   1   1  -6  347.17    9.84
   1  -1  -6  355.05   10.08
   1   1  -6  370.64   10.46
   1   1  -5 1264.82   24.82
   1  -1  -5 1248.26   24.84
   1  -1  -4  112.18    4.21
   1   1  -4  101.05    4.03
  -1   1   3 5026.85   85.42
  -1  -1   3 5042.55   85.47
   1   1  -2 3827.06   66.82
  -1  -1   1  143.66    3.63
  -1   1   1  152.45    3.68
   1   1   0 1660.48   29.92
   1  -1   0 1636.21   28.26
  -1  -1   0 1588.89   28.17
  -1   1   0 1653.23   28.22
  -1   1  -1 4203.04   70.58
  -1  -1  -1 4165.33   70.55
   1  -1   1 4113.74   70.86
   1   1   1 4206.12   70.85
   1  -1   2  334.41    7.84
   1   1   2  321.24    7.70
  -1   1  -3 1937.75   34.03
   1  -1   3 1898.17   34.50
   1   1   3 1859.20   34.39
  -1  -1  -3 1872.46   34.01
  -1  -1  -4   10.87    1.52
  -1   1  -4   11.04    1.62
  -1   1  -5  191.95    6.25
  -1  -1  -5  185.53    6.27
  -1   1  -6  627.79   14.82
  -1  -1  -6  610.55   14.83
  -1   1  -7  329.25   10.38
  -1  -1  -7  350.19   10.64
  -1   1  -8  666.14   17.33
  -1  -1  -8  692.46   17.59
  -1  -1  -9 1039.32   24.58
  -1   1  -9 1035.99   24.47
  -1  -1 -10  100.89    6.20
  -1   1 -10   90.86    5.91
  -1  -1 -11   82.92    6.04
   1   1  11   74.19    4.93
  -1   1 -11   78.77    5.80
  -1   1 -12 1105.63   28.51
  -1  -1 -12 1156.29   29.02
  -1  -1 -12 1161.89   29.12
   1   1  12 1082.20   26.03
  -1   1 -12 1127.49   28.60
  -1   1 -13   34.39    4.56
  -1  -1 -13   35.73    4.79
  -1   1 -13   32.62    4.54
  -1  -1 -13   26.05    3.96
   1   1  13   29.96    3.61
  -1   1 -14  716.27   22.50
  -1   1 -14  726.92   22.67
   1   1  14  708.28   19.74
  -1  -1 -14  752.57   23.32
  -1  -1 -14  762.85   23.09
   1   1  15  180.09    9.55
   1   1  15  163.78    8.30
  -1   1 -15  166.85   10.10
  -1  -1 -15  194.26   10.73
  -1   1 -15  172.74   10.05
  -1  -1 -15  183.38   10.65
   1  -1  15  176.33    9.44
   1   1  16  149.77    8.97
  -1   1 -16  138.75    9.44
   1  -1  16  150.61    8.98
  -1   1 -16  159.34    9.90
  -1  -1 -16  155.67   10.14
  -1  -1 -16  159.08    9.89
  -1  -1 -17 1266.10   34.52
   1  -1  17 1254.65   32.43
  -1   1 -17 1253.16   34.11
  -1  -1 -17 1298.05   34.22
  -1   1 -17 1276.69   33.91
   1   1  17 1244.22   32.39
  -1   1 -18 1471.48   37.13
   1   1  18 1430.22   35.60
  -1  -1 -18 1486.89   37.64
  -1  -1 -18 1388.57   37.66
  -1   1 -18 1522.72   35.97
  -1   1 -18 1372.62   37.26
   1  -1  18 1463.79   35.76
   1  -1  19   47.08    4.94
   1   1  19   53.25    5.20
  -1   1 -19   56.28    5.82
  -1  -1 -19   56.68    6.05
  -1  -1 -20   11.26    3.24
   1  -1  20    8.75    2.23
  -1   1 -20    6.52    2.59
   1   1  20    8.58    2.13
   1  -1  21  344.83   12.77
  -1   1 -21  351.50   13.49
   1   1  21  338.96   12.73
  -1  -1 -21  386.24   14.22
  -1   1 -22   11.26    2.73
  -1  -1 -22   14.04    2.88
  -1   1 -23  926.74   22.18
  -1  -1 -23  919.29   22.38
  -1  -1 -24  404.58   11.20
  -1   1 -24  402.03   11.01
  -1   2  23   12.10    1.50
  -1   2  22  133.46    6.08
  -1   2  22  136.94    5.90
  -1   2  22  144.98    6.70
  -1   2  21   82.24    5.34
  -1   2  21   69.21    4.68
  -1   2  20    1.83    1.57
  -1   2  19    0.57    1.58
  -1   2  18  881.93   25.35
  -1   2  17  105.67    7.76
   1   2 -17   88.69    6.47
  -1   2  16    3.13    2.35
   1   2 -16    7.72    2.49
   1   2 -15  292.87   13.25
   1   2 -14    6.08    2.46
   1   2 -13  104.34    7.88
  -1   2  12   22.44    3.48
   1   2 -12   40.09    5.01
   1   2 -11  300.01   13.60
  -1   2  11  285.54   11.85
  -1   2  10    6.77    2.12
   1   2 -10   11.10    2.86
  -1   2   9  281.29   11.49
   1   2  -9  300.98   13.45
  -1   2   8 2247.55   46.13
  -1   2   8 2105.10   46.34
  -1   2   7   11.21    1.98
  -1   2   7    4.16    1.52
   1   2  -6  130.39    7.63
   1   2  -5   91.42    5.48
   1   2  -4  883.11   21.14
   1   2  -3  172.87    7.48
   1   2  -2 2991.58   55.97
   1   2  -1   21.19    2.52
   1   2   0  681.85   16.43
   1   2   1   45.59    4.03
   1   2   2 4734.55   84.12
   1   2   3   97.34    4.95
   1   2   4  718.57   17.31
   1   2   5   61.08    4.03
   1   2   5   61.30    3.98
   1   2   6    5.66    1.50
   1   2   6    7.43    1.56
  -1   2  -7  132.98    9.11
   1   2   8 4585.61   82.21
  -1   2  -8 4212.59   88.77
   1   2   9  171.78    8.03
   1   2   9  159.90    8.36
  -1   2  -9  158.70   10.32
  -1   2 -10  969.03   29.51
   1   2  10  962.99   25.37
   1   2  11  130.49    8.02
  -1   2 -11  139.59    9.93
   1   2  12   97.13    6.96
  -1   2 -12  106.74    8.69
   1   2  13  231.11   11.09
  -1   2 -13  236.01   12.98
   1   2  14  334.00   13.73
  -1   2 -14  351.30   15.89
  -1   2 -15  205.94   11.67
   1   2  15  200.10   10.34
  -1   2 -16 1217.85   33.43
   1   2  16 1240.22   31.39
  -1   2 -17   46.86    5.28
   1   2  18    2.11    1.60
  -1   2 -18    1.24    1.69
  -1   2 -19   32.54    3.74
   1   2  20   75.21    5.21
   1   2  21   47.77    3.70
   1   2  22  476.04   12.33
  -1   3  20  106.60    4.26
  -1   3  19   62.31    3.92
  -1   3  18 1217.23   27.88
  -1   3  17  600.15   18.45
  -1   3  16   15.70    3.37
  -1   3  16   15.20    2.90
  -1   3  15  464.89   16.59
  -1   3  15  459.31   18.27
  -1   3  14  971.91   27.99
  -1   3  14 1023.50   31.54
  -1   3  13   33.40    4.80
  -1   3  13   32.10    5.52
   1   3 -12  619.66   20.52
  -1   3  12  701.25   19.83
  -1   3  12  498.48   18.92
  -1   3  12  454.84   21.08
  -1   3  11  147.50    8.38
   1   3 -11  142.39    9.39
  -1   3  11  122.12   10.12
  -1   3  11  115.07    8.21
  -1   3  10   24.00    3.99
  -1   3  10   18.93    4.54
   1   3 -10   24.70    4.27
  -1   3  10   27.91    3.85
   1   3  -9 1232.13   33.62
  -1   3   9 1283.54   30.80
   1   3  -8 2229.00   51.29
  -1   3   8 2258.65   47.82
  -1   3   8 2228.50   52.47
  -1   3   7  887.87   23.80
  -1   3   7  905.50   26.80
   1   3  -7  887.99   26.69
  -1   3   6   54.79    4.91
   1   3  -6   52.42    5.59
  -1   3   6   51.65    4.48
  -1   3   5   12.09    2.31
  -1   3   5   15.45    2.75
  -1   3   4  101.67    5.60
  -1   3   4   76.98    5.44
  -1   3   4   91.23    5.47
  -1   3   4   87.62    6.34
  -1   3   3  626.37   17.03
  -1   3   3  602.59   18.52
  -1   3   3  653.64   16.84
   1   3  -2  637.40   17.74
  -1   3   2  572.80   17.50
  -1   3   2  593.33   16.39
  -1   3   2  582.49   15.91
  -1   3   1  365.80   11.68
  -1   3   1  380.14   12.10
   1   3  -1  347.27   12.40
  -1   3   1  326.69   12.14
  -1   3   0  280.63   10.19
  -1   3   0  282.58   11.50
   1   3   0  272.96   10.61
  -1   3   0  255.84   10.29
   1   3   0  280.69   10.67
  -1   3   0  279.36    9.98
  -1   3  -1  261.21   10.27
  -1   3  -1  271.01   11.78
   1   3   1  254.20   10.49
  -1   3  -1  277.20   10.00
   1   3   1  296.53   10.92
  -1   3  -2   41.42    4.04
   1   3   2   43.72    4.20
   1   3   2   40.33    3.75
  -1   3  -2   32.18    4.27
   1   3   3  140.19    7.15
   1   3   3  124.44    7.26
   1   3   3  145.08    7.68
  -1   3  -3  144.45    9.11
   1   3   4  124.60    7.15
   1   3   4  128.95    6.88
   1   3   4  105.36    6.78
  -1   3  -4  119.39    8.76
   1   3   4  116.72    7.20
   1   3   5  234.77   10.00
   1   3   5  224.11   10.29
   1   3   5  231.47    9.60
  -1   3  -5  220.62   12.61
   1   3   6  391.69   14.83
  -1   3  -6  436.82   18.93
   1   3   6  426.54   14.35
   1   3   6  418.36   14.93
   1   3   7   44.35    4.33
   1   3   7   40.28    4.83
   1   3   7   38.56    4.75
   1   3   8  594.29   18.82
   1   3   8  595.00   19.69
   1   3   8  635.27   19.41
   1   3   9  293.42   12.94
  -1   3  -9  315.24   16.89
   1   3   9  304.81   12.68
   1   3  10  140.21    8.30
   1   3  10  124.13    8.17
  -1   3 -10  135.65   10.82
   1   3  11  203.49   10.26
  -1   3 -11  229.57   13.87
   1   3  12  667.58   21.01
  -1   3 -12  802.02   26.69
  -1   3 -13   55.37    6.42
   1   3  13   50.20    4.89
  -1   3 -14  582.60   20.35
   1   3  14  516.28   16.44
   1   3  15  123.37    6.63
  -1   3 -15  125.91    8.17
  -1   3 -16   33.87    3.92
   1   3  16   37.06    3.29
  -1   3 -17  420.36   13.00
   1   3  17  376.28   10.51
  -1   3 -18  928.09   20.84
  -1   4  15   77.62    3.60
   1   4 -14   54.06    3.78
  -1   4  14   81.86    4.28
  -1   4  13  256.22    8.92
   1   4 -13  168.02    7.79
  -1   4  12   48.66    4.32
   1   4 -12   25.21    3.33
  -1   4  11   49.21    4.73
   1   4 -10   25.26    3.55
  -1   4  10   33.14    4.26
  -1   4   9   16.52    3.39
   1   4  -9   19.64    3.40
  -1   4   8   41.63    4.99
   1   4  -8   37.91    4.52
   1   4  -7  408.34   14.91
   1   4  -6  187.80    9.44
   1   4  -5   60.80    5.20
   1   4  -5   63.83    5.34
   1   4  -4  115.31    7.12
  -1   4   4  118.46    7.53
   1   4  -4  117.32    7.08
  -1   4   3    7.83    2.75
   1   4  -3   12.44    2.68
   1   4  -3   12.07    2.49
   1   4  -2  219.08    9.57
   1   4  -2  239.04   10.33
   1   4  -1  623.37   18.28
   1   4  -1  609.17   17.58
   1   4   0  403.56   13.64
  -1   4   0  382.06   11.95
   1   4   0  401.52   13.29
  -1   4  -1  804.24   19.85
   1   4   1  806.07   21.30
   1   4   1  847.84   21.37
  -1   4  -2  148.96    6.85
   1   4   2  155.61    7.59
   1   4   3  211.57    8.91
  -1   4  -3  199.97    8.20
   1   4   4  199.07    8.73
   1   4   5    6.64    2.46
   1   4   6  113.81    6.95
   1   4   6  129.40    7.07
   1   4   7 1099.97   27.89
   1   4   7 1266.36   28.21
   1   4   8   48.06    4.42
   1   4   8   52.52    4.31
   1   4   9  248.02   10.11
   1   4   9  327.49   10.88
   1   4  10  115.56    5.89
   1   4  10   96.71    5.60
   1   4  11  486.99   13.36
   1   4  12    7.50    1.63
   2   0 -26 2108.79   40.64
  -2   0  25    1.70    1.17
   2   0 -25    1.17    1.55
  -2   0  24   88.98    4.64
   2   0 -24   88.67    6.24
  -2   0  23    1.13    1.16
   2   0 -23    2.48    2.45
  -2   0  22 1075.49   26.47
  -2   0  21   -0.55    1.45
   2   0 -20 1190.90   33.85
   2   0 -19    3.89    2.34
   2   0 -18  592.96   21.90
   2   0 -17    1.11    1.98
   2   0 -16 1692.93   42.50
  -2   0  15    2.68    1.77
   2   0 -15    0.73    2.03
  -2   0  14   81.14    6.19
   2   0 -14   84.36    6.76
   2   0 -13    6.87    2.50
  -2   0  13    0.17    1.39
  -2   0  12  396.05   13.82
   2   0 -12  422.40   15.16
   2   0 -11    1.48    1.73
   2   0 -10   58.43    4.74
   2   0  -9    0.38    1.45
   2   0  -8  643.84   16.66
   2   0  -7    0.36    0.59
   2   0  -6 2712.33   48.24
   2   0  -5    1.76    0.71
  -2   0   5    0.27    0.82
  -2   0   4 1086.18   22.21
  -2   0   4 1154.07   22.17
   2   0  -4 1120.87   21.23
  -2   0   3    0.62    0.87
   2   0  -3    2.63    0.82
  -2   0   3    0.89    0.92
  -2   0   2 1486.75   27.49
  -2   0   1    0.18    0.95
  -2   0   0 9999.00  168.41
  -2   0  -1    0.90    0.99
   2   0   2   85.96    3.61
   2   0   3   -0.07    0.79
  -2   0  -3   -0.06    0.79
  -2   0  -4 4589.36   81.33
   2   0   4 4631.21   81.48
   2   0   5    0.09    0.90
  -2   0  -5   -0.09    0.90
  -2   0  -6 4178.07   75.33
   2   0   6 4117.50   75.49
   2   0   7    0.73    1.20
  -2   0  -7    1.39    1.35
   2   0   8 2869.06   56.44
  -2   0  -8 2870.11   55.93
  -2   0  -9    7.06    2.25
  -2   0 -10 5443.87  101.08
  -2   0 -11    0.57    1.49
  -2   0 -12  249.85   11.60
  -2   0 -12  252.14   11.79
  -2   0 -13    1.57    2.06
  -2   0 -13    2.06    1.83
  -2   0 -14  611.31   21.26
  -2   0 -14  613.42   21.13
  -2   0 -15    2.11    2.39
  -2   0 -15    1.55    2.40
  -2   0 -16 1725.77   43.73
  -2   0 -16 1698.21   43.10
  -2   0 -17    2.57    2.25
  -2   0 -17    3.86    3.10
  -2   0 -18 2330.51   56.28
  -2   0 -18 2461.12   56.16
   2   0  18 2510.94   54.84
   2   0  19    2.31    2.10
  -2   0 -19    0.26    2.66
  -2   0 -20  223.83   11.82
   2   0  20  231.79   11.43
  -2   0 -21   -0.21    2.30
   2   0  21    1.12    1.71
  -2   0 -22   65.39    5.46
   2   0  22   51.57    4.52
  -2   0 -23   -0.14    1.45
  -2   0 -24 1188.87   25.50
   2  -1 -25   51.48    3.36
  -2   1  25   55.39    3.37
   2   1 -25   53.45    3.33
  -2   1  25   51.03    3.41
  -2   1  24    7.47    1.79
   2   1 -24    2.79    1.52
   2  -1 -24    5.10    1.82
   2  -1 -23    3.13    1.85
   2   1 -23    4.21    1.99
  -2   1  23    1.99    1.53
  -2   1  22  262.66   11.06
   2   1 -22  266.49   11.53
   2  -1 -22  263.15   11.67
  -2   1  21  373.37   14.35
  -2   1  20  134.03    8.53
   2   1 -19  126.14    8.88
  -2   1  19  143.48    9.03
  -2  -1  19  151.43    9.31
   2  -1 -19  131.01    9.11
   2  -1 -18   27.60    4.48
  -2   1  18   32.56    4.53
  -2  -1  18   34.75    4.76
   2   1 -18   31.06    4.66
   2   1 -17  163.81   10.06
  -2   1  17  195.69   10.54
  -2  -1  17  181.64   10.24
   2  -1 -17  164.96   10.33
   2  -1 -16 2028.44   48.33
   2   1 -16 2131.46   48.55
   2   1 -15  958.34   27.40
   2  -1 -15  938.85   27.53
   2  -1 -14   74.98    6.40
   2   1 -14   72.31    6.34
   2   1 -13  350.01   13.26
   2  -1 -13  232.55   11.35
   2  -1 -12  894.22   24.23
   2   1 -12  903.96   24.25
   2  -1 -11  653.41   19.10
   2   1 -11  625.86   18.60
   2   1 -10 3708.04   69.52
   2  -1 -10 3567.20   69.58
   2  -1  -9 1139.54   26.11
   2   1  -9 1102.11   25.74
  -2  -1   8  484.65   13.23
  -2   1   8  467.25   12.99
   2   1  -8  471.18   13.49
   2  -1  -8  446.39   13.46
   2   1  -8  504.36   13.88
  -2  -1   7 4103.35   73.19
   2  -1  -7 3960.75   73.64
  -2   1   7 4111.70   73.06
   2   1  -7 4000.28   73.48
   2   1  -7 4152.34   73.85
   2   1  -6 3135.59   56.33
  -2   1   6 3042.95   55.15
  -2  -1   6 2932.59   55.15
  -2   1   5    5.26    1.15
   2   1  -5    1.85    0.96
  -2   1   4  115.12    4.29
  -2  -1   4  123.53    4.45
   2   1  -4  126.35    5.20
  -2   1   3    3.86    0.90
  -2  -1   3    4.95    0.95
  -2  -1   2  551.49   11.91
  -2   1   2  573.06   12.04
  -2  -1   1 4410.95   77.07
  -2   1   1 4584.63   77.19
  -2   1   0 2080.45   36.60
  -2  -1   0 2000.17   36.50
   2   1   1  264.25    6.94
   2  -1   1  268.46    6.94
  -2  -1  -1  255.47    6.75
  -2   1  -1  254.73    6.77
  -2   1  -2 1312.28   24.78
  -2  -1  -2 1305.14   24.75
   2   1   2 1280.01   24.99
   2  -1   2 1274.07   24.94
   2   1   3  988.13   20.24
   2  -1   3  945.78   20.05
   2  -1   4  230.04    7.56
   2   1   4  233.22    7.62
  -2  -1  -5  943.72   20.89
  -2   1  -5  956.66   20.79
   2  -1   5  967.54   21.27
   2   1   5  983.21   21.40
  -2  -1  -6   63.54    4.07
   2   1   6   61.34    4.11
  -2   1  -6   63.47    3.97
   2  -1   6   60.26    4.08
  -2  -1  -7   18.37    2.52
  -2   1  -7   15.10    2.37
  -2  -1  -8 1370.15   30.70
  -2   1  -8 1420.10   30.84
  -2   1  -9  270.87   10.57
  -2  -1  -9  276.19   10.73
  -2   1 -10  939.03   24.39
   2   1  10  915.92   22.37
  -2  -1 -10  980.03   24.82
   2   1  11  137.88    6.94
  -2   1 -11  157.96    8.56
  -2  -1 -11  153.71    8.53
  -2  -1 -11  147.20    8.28
  -2   1 -11  160.76    8.56
  -2   1 -12  658.06   20.63
   2   1  12  642.89   18.03
  -2  -1 -12  685.22   20.86
  -2   1 -12  674.30   20.64
  -2  -1 -12  682.43   21.19
  -2  -1 -13   40.93    4.80
  -2  -1 -13   38.15    4.80
  -2   1 -13   34.07    4.38
   2   1  13   30.81    3.45
  -2   1 -13   33.54    4.30
  -2   1 -14  683.65   21.84
  -2   1 -14  659.61   21.88
  -2  -1 -14  684.82   22.02
   2   1  14  613.87   18.08
  -2  -1 -14  651.81   22.05
  -2  -1 -15  205.40   11.21
  -2   1 -15  179.19   10.58
  -2  -1 -15  182.59   10.96
  -2   1 -15  182.28   10.52
   2   1  15  173.38    8.34
   2   1  16 1092.42   29.10
  -2  -1 -16 1115.98   30.94
   2  -1  16 1065.46   28.86
  -2   1 -16 1022.62   30.54
  -2   1 -16 1082.18   30.32
  -2  -1 -16 1075.62   31.16
   2  -1  17   75.90    6.26
  -2   1 -17   74.58    7.06
  -2  -1 -17   80.33    7.19
   2   1  17   75.09    6.28
  -2  -1 -17   72.15    6.75
  -2   1 -17   78.90    6.92
   2  -1  18    4.84    2.14
  -2  -1 -18    1.89    2.20
  -2   1 -18   -0.46    2.09
   2   1  18    3.44    1.93
   2  -1  19  439.94   15.67
   2   1  19  441.53   15.81
  -2   1 -19  478.34   16.27
  -2  -1 -19  461.54   17.10
  -2   1 -19  466.79   16.96
   2  -1  20  401.53   14.14
   2   1  20  407.61   14.27
  -2  -1 -20  422.57   15.57
  -2   1 -20  409.49   15.10
   2  -1  21    6.81    1.89
  -2  -1 -21    6.30    2.24
  -2   1 -21    6.77    2.26
   2   1  21    7.41    1.93
  -2  -1 -22  192.67    8.33
  -2   1 -22  187.48    8.15
  -2   1 -23    2.20    1.16
  -2  -1 -23    2.10    1.16
  -2   2  23  695.40   16.36
  -2   2  22   77.05    4.47
  -2   2  21  197.16    8.27
  -2   2  20   28.83    3.49
  -2   2  19   73.13    5.70
  -2   2  18   53.52    5.35
  -2   2  17 2671.15   57.54
  -2   2  16   12.46    3.27
  -2   2  15   34.17    4.58
   2   2 -15   24.88    3.61
   2   2 -14    1.55    1.53
  -2   2  14    2.31    1.95
   2   2 -13  296.88   12.66
  -2   2  13  266.82   12.61
   2   2 -12    2.20    1.74
  -2   2  12    0.21    1.69
  -2   2  11 1766.22   40.06
   2   2 -11 1855.60   41.18
   2   2 -10   34.61    4.15
  -2   2  10   27.38    3.77
  -2   2  10   31.03    3.71
   2   2  -9  204.06    9.93
  -2   2   9  171.81    8.82
  -2   2   9  181.54    8.57
  -2  -2   9  178.96    8.00
   2   2  -8   25.18    3.48
  -2   2   8   16.91    2.74
  -2   2   8   20.38    2.76
  -2   2   8   22.15    2.97
   2   2  -7  270.66   10.82
   2   2  -7  299.57   11.76
  -2   2   7  278.85   10.28
  -2   2   7  264.74   10.37
   2   2  -6  123.30    6.71
   2   2  -6  132.91    7.34
   2   2  -5 1559.10   33.51
   2   2  -5 1381.71   31.71
   2   2  -4  352.44   12.23
   2   2  -4  324.19   11.24
   2   2  -3  115.14    6.04
   2   2  -2  214.98    8.39
   2   2  -1  649.14   16.86
   2   2   0  349.18   11.24
   2   2   1 1584.62   33.41
   2   2   2  287.24   10.18
   2   2   2  295.70    9.81
   2   2   3 2082.99   42.99
   2   2   3 2163.80   41.83
   2   2   4   50.05    4.08
   2   2   4   56.19    3.94
   2   2   5  678.65   17.84
   2   2   5  729.90   18.71
   2   2   6  186.11    8.22
   2   2   7  356.84   12.60
   2   2   7  385.75   12.63
   2   2   8  121.74    7.21
   2   2   8  126.76    6.70
   2   2   8  124.37    7.05
   2   2   9 5507.72  102.53
   2   2   9 5574.15  103.68
   2   2   9 5778.79  104.49
   2   2  10    0.55    1.67
   2   2  10    1.02    1.46
   2   2  11  131.94    7.77
   2   2  11  136.86    8.25
   2   2  12    9.25    2.59
   2   2  12    9.31    2.48
  -2   2 -13  354.59   17.40
   2   2  13  349.33   14.04
   2   2  14    0.78    1.57
  -2   2 -14   -1.20    2.28
   2   2  15 2846.47   59.50
  -2   2 -15 2961.37   64.58
  -2   2 -16   46.30    5.53
   2   2  16   45.71    4.67
  -2   2 -17  185.11   10.26
  -2   2 -18   13.63    2.79
  -2   2 -19 1249.67   29.70
  -2   2 -20   14.56    2.16
   2   2  21  249.88    8.12
  -2   3  20    6.75    1.40
  -2   3  19  211.57    8.31
  -2   3  18   48.14    4.45
  -2   3  17    3.43    2.27
  -2   3  17    5.17    1.91
  -2   3  16  468.61   18.38
  -2   3  16  441.43   15.28
  -2   3  15  355.86   17.03
  -2   3  15  399.27   14.94
  -2   3  14  130.60   10.77
  -2   3  14  184.61    9.92
  -2   3  13    9.98    4.09
  -2   3  13   25.87    4.05
  -2   3  12   11.49    3.06
  -2   3  11  255.84   12.21
  -2   3  10  553.50   18.73
  -2   3   9   39.19    6.08
  -2   3   9   37.04    4.37
  -2   3   8 1022.23   30.36
  -2   3   8  947.84   25.49
  -2   3   7 2023.15   46.76
  -2   3   7 1949.56   41.78
  -2   3   7 1878.29   41.23
  -2   3   6  586.90   19.68
  -2   3   6  554.36   16.58
  -2   3   5   91.10    7.00
  -2   3   4   15.44    2.96
  -2   3   3  237.46    8.48
   2   3  -3  210.86   10.56
  -2   3   3  229.14   10.16
   2   3  -2  554.23   18.57
  -2   3   2  613.69   15.39
  -2   3   2  589.02   17.55
  -2   3   1 2094.02   40.83
   2   3  -1 2125.17   43.75
  -2   3   1 2133.38   43.98
  -2   3   1 2088.19   43.24
  -2   3   0  835.60   21.56
   2   3   0  802.05   23.26
  -2   3   0  902.35   23.58
   2   3   0  884.35   22.46
  -2   3   0  836.26   20.06
  -2   3  -1   23.04    3.53
   2   3   1   20.08    2.99
  -2   3  -1   18.24    2.71
  -2   3  -1   17.45    2.46
  -2   3  -2  262.46   12.45
   2   3   2  267.91   10.98
  -2   3  -2  243.53    9.67
  -2   3  -3 1424.10   36.18
   2   3   3 1326.73   30.97
  -2   3  -4   49.53    6.12
   2   3   4   44.94    4.37
  -2   3  -5  821.52   27.93
   2   3   5  730.47   20.92
  -2   3  -6  203.82   13.61
   2   3   6  217.53   10.56
   2   3   6  174.54    9.02
  -2   3  -7   50.01    7.22
   2   3   7   63.82    5.43
   2   3   7   57.90    5.02
   2   3   8   98.08    6.86
   2   3   8   84.77    6.19
   2   3   8   90.18    6.37
   2   3   9  226.78   10.29
   2   3  10   49.78    4.61
  -2   3 -11   95.01    9.55
   2   3  11   81.59    5.69
  -2   3 -12   25.55    5.31
   2   3  12   23.21    3.09
   2   3  12   20.14    3.36
  -2   3 -13   14.97    4.05
   2   3  13   12.06    2.60
   2   3  13   10.59    2.16
   2   3  14   40.03    3.37
   2   3  14   43.59    4.34
  -2   3 -15  136.95    8.51
   2   3  15  110.69    6.43
  -2   3 -16   99.64    6.44
  -2   3 -17    3.53    1.50
  -2   3 -18  149.46    5.82
  -2   4  15  119.95    4.71
   2   4 -14    7.22    1.62
  -2   4  14   10.23    1.88
   2   4 -13  121.96    6.39
   2   4 -12  116.94    6.59
   2   4 -11   32.63    3.70
  -2   4  10   40.66    4.75
   2   4 -10   64.95    5.33
   2   4  -9  132.23    7.76
  -2   4   9  110.00    7.52
  -2   4   8    9.69    2.99
   2   4  -8   15.61    3.08
   2   4  -7  117.88    7.69
  -2   4   7  137.40    8.22
   2   4  -7  142.57    8.13
  -2   4   6  429.72   15.23
   2   4  -6  404.93   15.12
   2   4  -6  399.25   14.59
   2   4  -5   47.05    4.81
  -2   4   5   45.34    4.79
   2   4  -5   45.12    4.45
  -2   4   4    7.65    2.61
   2   4  -4    7.76    2.25
   2   4  -4    6.21    2.33
   2   4  -3   92.21    6.11
  -2   4   3   96.48    6.44
   2   4  -3  103.05    6.90
   2   4  -2  109.74    6.60
   2   4  -2  120.55    7.55
   2   4  -1    0.69    1.43
   2   4  -1    3.41    1.40
   2   4   0 1228.55   29.55
   2   4   0 1220.53   28.62
   2   4   1   41.26    4.06
   2   4   1   42.23    3.84
   2   4   2  155.09    8.54
   2   4   2  168.78    8.07
   2   4   3   11.43    2.65
   2   4   3    9.69    2.10
   2   4   4  341.24   11.86
   2   4   4  348.11   13.05
   2   4   5  139.52    7.63
   2   4   6  514.51   15.94
   2   4   7  114.48    6.52
   2   4   8  480.80   14.51
   2   4   9   72.13    4.71
   2   4  10  839.28   19.99
   3   0 -26    2.44    1.16
   3   0 -25  913.57   22.05
  -3   0  25  888.31   20.16
  -3   0  24    4.63    1.68
   3   0 -24   -0.50    1.98
  -3   0  23  281.56    9.61
  -3   0  23  283.08   11.11
  -3   0  22    1.11    1.21
  -3   0  21  388.55   13.63
  -3   0  20    2.34    1.70
   3   0 -19 1207.28   35.31
  -3   0  19 1277.78   34.88
  -3   0  19 1293.78   31.73
  -3   0  18   -0.20    1.58
  -3   0  18    9.01    2.87
   3   0 -18    4.77    2.88
  -3   0  17  382.89   16.10
  -3   0  17  353.40   13.98
   3   0 -17  336.09   16.06
   3   0 -16    2.12    2.64
  -3   0  16    6.61    2.15
  -3   0  16    2.92    2.26
  -3   0  15 6067.97  118.21
  -3   0  15 6269.79  115.66
  -3   0  14    2.07    1.61
   3   0 -14    3.12    2.34
  -3   0  14    2.76    2.02
   3   0 -13  625.03   20.47
  -3   0  13  630.42   19.85
   3   0 -12    0.19    1.61
  -3   0  12    1.25    1.50
   3   0 -11  119.88    7.38
  -3   0  11  125.32    7.21
  -3   0  10    1.02    1.43
   3   0 -10    0.47    1.50
  -3   0   9 5552.92  100.52
  -3   0   8    0.24    1.15
   3   0  -8    5.71    1.21
  -3   0   7  148.90    6.48
   3   0  -7  135.00    5.23
  -3   0   6    0.38    0.96
   3   0  -6    2.59    0.85
  -3   0   5  797.29   18.30
   3   0  -5  823.15   17.18
  -3   0   5  808.54   18.29
   3   0  -4    3.13    0.91
  -3   0   4    0.83    0.96
  -3   0   3 1628.61   31.55
  -3   0   2    3.93    1.17
  -3   0   1   21.59    2.06
  -3   0   0    3.43    1.17
  -3   0  -1 2195.33   41.57
   3   0   2    3.13    1.01
  -3   0  -2    3.08    1.26
   3   0   3  260.75    8.64
   3   0   4    0.62    1.00
   3   0   5  102.64    5.69
   3   0   6    0.81    1.42
  -3   0  -7 4937.64   89.13
   3   0   7 4721.80   89.45
  -3   0  -8    1.09    1.40
   3   0   8    0.50    1.32
   3   0   9  456.29   16.00
  -3   0  -9  463.08   15.64
  -3   0 -10    0.58    1.61
  -3   0 -10   -0.19    1.50
  -3   0 -11 5377.41  102.98
  -3   0 -11 5376.35  102.37
  -3   0 -12    2.33    1.96
  -3   0 -12    3.92    2.45
  -3   0 -13 2142.25   49.65
  -3   0 -13 2149.89   49.90
  -3   0 -14    0.53    1.92
  -3   0 -14    0.52    2.26
  -3   0 -15   93.47    8.06
  -3   0 -16    3.00    3.01
  -3   0 -17 2937.49   64.55
   3   0  18    2.53    2.14
  -3   0 -18    1.30    2.29
   3   0  19   35.15    4.53
  -3   0 -19   38.49    5.06
   3   0  20    0.19    1.60
  -3   0 -20    1.92    2.08
  -3   0 -21  207.25    9.80
   3   0  21  198.51    9.16
   3   0  22    0.24    1.04
  -3   0 -22    1.49    1.54
  -3   0 -23  671.30   16.51
   3   1 -25  495.58   12.64
  -3   1  25  552.93   13.48
   3  -1 -25  505.34   12.87
  -3   1  25  548.41   12.74
  -3   1  24    3.24    1.44
   3  -1 -24    2.79    1.60
   3   1 -24    3.34    1.52
  -3   1  24    2.72    1.28
   3  -1 -23  353.88   12.66
  -3   1  23  367.71   12.25
   3   1 -23  343.99   12.30
  -3   1  23  357.42   12.36
  -3   1  22    3.43    1.84
  -3   1  22    1.80    1.66
  -3   1  21   63.51    5.42
  -3   1  20  574.56   18.99
   3   1 -19  227.20   11.98
   3  -1 -19  227.29   12.14
   3   1 -18  245.46   12.86
  -3   1  18  278.07   13.10
  -3   1  18  303.49   13.49
  -3  -1  18  288.84   13.39
   3  -1 -18  266.45   13.55
  -3  -1  17  262.41   12.67
  -3   1  17  255.94   12.45
   3   1 -17  228.91   12.41
  -3   1  17  267.11   12.44
   3  -1 -17  240.27   12.84
  -3   1  16   66.93    6.01
   3   1 -16   50.76    5.76
   3  -1 -16   59.00    6.18
  -3   1  16   55.93    5.68
  -3  -1  16   56.72    5.71
  -3   1  15  327.72   13.77
   3  -1 -15  302.51   13.93
   3   1 -15  308.06   13.68
  -3   1  15  307.03   13.44
  -3  -1  15  308.65   13.53
   3  -1 -14  971.10   27.65
   3   1 -14  981.46   27.56
  -3   1  14  941.72   26.58
  -3  -1  14  963.40   26.76
  -3   1  14 1011.32   26.99
   3  -1 -13  174.44    9.77
   3   1 -13  152.21    9.02
  -3   1  13  168.25    9.08
  -3   1  13  146.49    8.57
   3   1 -12  238.25   10.91
   3  -1 -12  238.25   11.02
  -3   1  12  241.27   10.64
  -3  -1  12  240.77   10.67
  -3   1  12  222.96   10.36
   3   1 -11   86.63    6.10
  -3  -1  11  102.46    6.37
  -3  -1  11   94.25    5.95
  -3   1  11   90.28    5.99
  -3   1  11   89.16    6.05
   3   1 -10   55.08    4.67
   3   1 -10   63.55    4.80
  -3  -1  10   56.92    4.58
   3  -1 -10   59.76    4.87
  -3   1  10   65.90    4.97
  -3   1  10   57.74    4.56
   3   1  -9 2671.94   50.86
   3  -1  -9 2549.05   51.06
   3   1  -9 2549.38   50.78
  -3  -1   9 2574.94   50.43
  -3  -1   8 4180.27   77.25
  -3   1   8 4082.18   77.04
  -3  -1   7  404.07   11.92
  -3   1   7  389.85   11.69
   3   1  -6  363.58   11.02
  -3  -1   6  350.54   10.33
  -3   1   6  335.25   10.05
   3   1  -5 2545.84   48.41
   3   1  -4   28.43    2.68
  -3  -1   4   27.90    2.41
  -3   1   4   28.31    2.42
   3  -1  -3 2587.97   44.49
  -3  -1   3 2596.01   47.93
  -3   1   3 2675.76   48.08
   3   1  -2 1169.81   24.24
  -3  -1   2 1113.07   23.06
  -3   1   2 1160.01   23.19
  -3  -1   1  145.78    5.28
  -3   1   1  132.59    5.10
  -3  -1   0 1883.69   36.34
  -3   1   0 1984.90   36.51
   3   1   1 6703.54  119.16
   3  -1   1 7065.58  119.31
  -3  -1  -1 7008.01  119.23
  -3   1  -1 6894.91  119.26
   3   1   2 1759.32   34.41
   3  -1   2 1782.46   34.36
  -3  -1  -2 1755.90   34.03
  -3   1  -2 1746.36   34.05
   3   1   3   55.04    3.66
   3  -1   3   57.94    3.69
  -3  -1  -3   53.90    3.49
  -3   1  -3   57.09    3.64
   3   1   4  762.75   18.59
   3  -1   4  742.79   18.36
  -3  -1  -4  782.09   18.21
  -3   1  -4  755.68   18.03
   3   1   5  459.55   13.54
   3  -1   5  459.08   13.49
   3   1   6 1622.54   34.68
   3  -1   6 1613.73   34.54
   3  -1   7 2088.64   43.48
   3   1   7 2108.70   43.75
   3   1   8  320.09   12.23
   3  -1   8  331.54   12.35
  -3  -1  -9  411.49   14.44
   3   1   9  424.02   13.06
  -3   1  -9  387.18   13.99
  -3   1 -10 1234.89   30.44
  -3  -1 -10 1242.35   30.66
   3   1  10 1196.90   27.64
  -3  -1 -11  285.44   12.48
  -3   1 -11  286.54   12.38
   3   1  11  261.81   10.20
  -3   1 -12  123.70    8.18
  -3  -1 -12  128.72    8.40
   3   1  12  104.68    6.26
  -3   1 -13  106.42    7.94
  -3  -1 -13  121.82    8.45
   3   1  13  102.22    6.16
   3   1  14    0.56    1.22
  -3  -1 -14    4.19    2.49
  -3   1 -14    1.69    1.97
   3   1  15  159.30    7.52
  -3  -1 -15  149.00    9.78
  -3   1 -15  141.86    9.44
  -3   1 -16  742.83   23.98
  -3  -1 -16  768.78   24.60
   3   1  17   47.27    4.93
   3  -1  17   52.21    5.14
  -3   1 -17   59.14    6.08
  -3  -1 -17   51.73    5.97
  -3  -1 -18  464.94   17.14
   3   1  18  417.90   15.20
   3  -1  18  405.15   14.93
  -3   1 -18  444.13   16.62
   3  -1  19   50.30    4.54
   3   1  19   53.41    4.70
  -3  -1 -19   55.84    5.35
   3  -1  20   25.01    3.06
   3   1  20   25.51    3.06
  -3  -1 -20   24.58    3.47
  -3   1 -20   23.50    3.02
  -3   1 -20   25.96    3.44
   3  -1  21  573.42   15.53
   3   1  21  590.08   15.67
  -3  -1 -21  603.07   16.58
  -3   1 -21  594.23   16.35
  -3   1 -22   68.20    3.94
  -3  -1 -22   65.21    3.94
  -3   2  23    8.61    1.56
  -3   2  23    7.54    1.31
  -3   2  22   22.31    2.62
  -3   2  22   28.44    2.73
  -3   2  21   23.80    2.86
  -3   2  20   64.71    4.97
  -3   2  19   57.50    5.04
  -3   2  18 1668.45   38.76
  -3   2  17  118.22    7.93
  -3   2  16  680.35   21.56
  -3   2  15   38.61    4.86
  -3   2  15   31.25    4.29
  -3   2  14  646.01   21.39
  -3   2  14  648.11   21.05
  -3   2  13  130.11    8.54
  -3   2  13  120.77    8.09
  -3   2  12   16.31    3.15
  -3   2  12   17.03    3.36
  -3   2  11  350.43   14.09
  -3  -2  11  352.12   12.77
  -3   2  11  329.88   13.32
  -3   2  10 1899.86   42.95
  -3  -2  10 1945.88   41.01
  -3   2  10 1887.62   41.98
  -3   2   9   57.24    4.86
  -3   2   9   66.07    5.40
  -3  -2   9   57.92    4.74
  -3   2   9   56.92    4.86
  -3   2   8  209.06    9.05
  -3   2   8  189.18    9.20
  -3  -2   8  205.41    8.83
  -3   2   8  196.46    8.86
  -3   2   7  122.40    6.45
   3   2  -7  128.37    7.31
  -3   2   7  122.11    6.55
  -3   2   7  123.58    6.97
  -3  -2   7  120.92    6.50
   3   2  -6  946.60   23.86
  -3   2   6  923.31   22.93
  -3   2   6  890.96   21.85
  -3   2   5  115.58    6.26
   3   2  -5  122.09    6.80
   3   2  -4 1170.14   27.56
  -3   2   4 1165.54   26.43
   3   2  -3   78.25    5.29
  -3   2   3   89.07    5.14
   3   2  -2  500.03   15.02
   3   2  -1   39.25    3.70
  -3   2   0  461.51   14.49
   3   2   0  510.38   15.43
  -3   2  -1   78.86    5.32
   3   2   1   80.48    5.44
   3   2   1   92.84    5.19
   3   2   2 2608.20   54.10
   3   2   2 2774.77   52.06
   3   2   3  154.91    6.91
   3   2   3  139.12    7.67
   3   2   4  116.90    6.18
   3   2   4  137.03    6.96
   3   2   5   64.04    4.80
   3   2   5   64.05    4.56
   3   2   6   37.96    3.74
   3   2   7  119.63    6.72
   3   2   8 3528.10   67.65
   3   2   9  246.99   10.60
   3   2   9  283.51   12.14
   3   2  10  625.67   19.61
   3   2  11   72.36    5.95
   3   2  12  167.19    9.16
   3   2  13   80.38    6.23
  -3   2 -14  136.19   10.47
   3   2  14  111.27    7.22
  -3   2 -15  157.80   10.61
   3   2  15  136.16    7.76
  -3   2 -16 1961.53   45.36
   3   2  16 1829.59   40.42
  -3   2 -17  100.62    7.25
  -3   2 -18  314.10   12.40
  -3   2 -19   45.83    4.05
  -3   2 -20  184.67    6.74
  -3   3  20  309.72    8.93
  -3   3  19   39.72    3.37
  -3   3  19   34.33    2.87
  -3   3  18  294.15   11.52
  -3   3  18  290.89   10.00
  -3   3  17   28.51    3.30
  -3   3  16   97.52    6.41
  -3   3  15  336.67   13.26
  -3   3  14  647.97   25.92
  -3   3  14  840.09   23.39
  -3   3  13   86.99    9.21
  -3   3  13  160.52    9.16
  -3   3  12  188.69   10.22
  -3   3  12  130.51   11.13
  -3   3  11   62.72    7.80
  -3   3  11   79.12    6.61
  -3   3  10   32.69    5.62
  -3   3  10   33.17    4.43
  -3   3   9  700.57   24.84
  -3   3   9  657.28   20.77
  -3   3   8 2328.64   53.20
  -3   3   8 2229.00   48.85
  -3   3   7  557.75   19.54
  -3   3   7  516.65   17.06
  -3   3   6   24.08    3.81
  -3   3   6   20.30    3.28
   3   3  -5  314.89   13.99
  -3   3   5  330.65   13.28
  -3   3   5  330.70   12.18
   3   3  -4  269.39   12.75
  -3   3   4  282.01   11.58
   3   3  -3  125.82    8.42
  -3   3   3  146.85    7.70
   3   3  -2  772.45   23.65
  -3   3   2  738.87   20.20
   3   3  -2  812.72   21.80
   3   3  -1  754.39   23.67
  -3   3   1  746.32   20.51
  -3   3   1  772.21   19.90
   3   3  -1  810.55   21.59
   3   3   0 1268.00   33.39
   3   3   0 1320.56   30.34
  -3   3   0 1260.05   30.86
  -3   3   0 1230.75   28.32
   3   3   1 1003.75   29.08
  -3   3  -1 1061.89   28.38
  -3   3  -1 1023.01   24.27
   3   3   1 1053.74   25.89
   3   3   2  173.59   10.41
   3   3   2  207.68    9.28
  -3   3  -2  199.53   11.16
   3   3   2  183.18    8.61
   3   3   2  194.42    9.51
   3   3   3  100.92    6.53
  -3   3  -3   98.21    8.34
   3   3   3   81.53    5.64
   3   3   3   93.21    6.46
   3   3   4  241.45   10.75
  -3   3  -4  246.50   14.29
   3   3   4  216.43    9.51
   3   3   4  245.14   10.53
   3   3   5    4.67    2.12
  -3   3  -5    9.82    3.90
   3   3   5    3.69    1.78
  -3   3  -6  821.89   31.95
   3   3   6  874.01   22.48
   3   3   7  419.48   13.42
   3   3   7  431.80   14.67
  -3   3  -8    1.40    3.27
   3   3   8    1.86    1.41
   3   3   8    8.92    2.26
   3   3   9  442.90   13.43
   3   3   9  483.71   16.13
   3   3  10  786.87   22.58
   3   3  11   25.87    3.55
   3   3  12  397.19   14.41
  -3   3 -12  495.32   21.18
  -3   3 -13  197.75   12.01
   3   3  13  153.47    7.84
  -3   3 -14  221.71   11.64
   3   3  14  176.14    8.16
   3   3  15   48.68    3.89
  -3   3 -15   66.75    5.62
  -3   3 -16  468.05   14.52
  -3   3 -17    1.99    1.13
   3   4 -14    1.01    0.96
  -3   4  14    2.14    1.09
  -3   4  13   84.27    4.59
   3   4 -13   60.13    4.01
   3   4 -12    7.18    1.77
  -3   4  12   10.27    2.21
   3   4 -11    2.52    1.37
  -3   4  11    1.62    1.76
   3   4 -10    0.43    1.26
  -3   4  10    1.91    1.91
  -3   4   9  524.80   16.20
   3   4  -9  531.49   16.31
  -3   4   8  219.06    9.66
   3   4  -8  204.72    9.38
  -3   4   7   30.70    3.77
   3   4  -7   20.95    3.09
   3   4  -6  226.49   11.05
  -3   4   6  263.25   10.59
   3   4  -6  242.01   10.20
   3   4  -5    4.23    1.69
  -3   4   5    8.02    2.41
   3   4  -5    7.31    2.45
   3   4  -4   17.32    2.67
   3   4  -4   20.00    3.31
   3   4  -3  164.40    8.88
   3   4  -3  161.10    7.90
   3   4  -2  309.24   11.45
   3   4  -2  334.59   12.85
   3   4  -1    2.13    1.23
   3   4  -1    2.01    1.81
   3   4   0  168.74    8.36
   3   4   0  179.28    8.05
   3   4   0  153.11    8.76
   3   4   1  110.42    6.48
   3   4   1  101.03    6.91
   3   4   2   54.54    4.42
   3   4   2   56.91    5.09
   3   4   3   86.29    5.42
   3   4   3   88.00    6.09
   3   4   4  500.73   15.99
   3   4   5   87.69    5.79
   3   4   6  127.84    6.81
   3   4   7  435.62   13.46
   3   4   8    5.78    1.64
   3   4   9  179.89    7.15
   3   4  10   46.22    3.23
   4   0 -26  666.39   15.18
  -4   0  25    0.58    0.84
   4   0 -25    0.81    1.54
  -4   0  24   46.32    3.59
  -4   0  23    1.53    1.42
  -4   0  22 2336.17   48.76
  -4   0  21    1.14    1.65
  -4   0  21    0.42    1.24
  -4   0  20  408.76   14.19
  -4   0  20  435.26   16.03
  -4   0  19    0.22    1.85
   4   0 -19    0.60    2.32
  -4   0  19    0.35    1.43
   4   0 -18 1245.00   36.21
  -4   0  18 1279.16   31.53
  -4   0  17    1.30    2.13
   4   0 -17    1.15    2.23
  -4   0  17    0.74    1.46
   4   0 -16 3220.26   69.73
  -4   0  16 3225.03   67.77
  -4   0  16 3091.62   63.56
   4   0 -15    1.66    2.06
  -4   0  15    2.16    2.06
  -4   0  15   -0.35    1.47
  -4   0  14  758.61   23.51
  -4   0  14  739.21   21.00
   4   0 -14  769.68   24.45
  -4   0  13    0.42    1.51
  -4   0  13    1.27    1.18
   4   0 -13    0.94    1.86
   4   0 -12  148.46    8.91
  -4   0  12  138.04    8.35
  -4   0  12  136.49    7.26
  -4   0  11    0.37    1.42
   4   0 -11    0.59    1.82
  -4   0  11    0.97    1.15
  -4   0  10 1818.89   39.48
  -4   0  10 1727.44   37.81
   4   0  -9    1.86    1.08
  -4   0   9    1.48    1.38
   4   0  -8 5520.63   99.30
  -4   0   8 5855.84  102.70
   4   0  -7    1.47    0.91
   4   0  -6  110.87    4.99
  -4   0   6  100.57    5.79
   4   0  -5    2.51    1.13
  -4   0   5    2.31    1.53
   4   0  -4 1379.02   27.75
  -4   0   4 1340.14   28.91
  -4   0   3   -0.20    1.30
  -4   0   2 3781.10   69.09
  -4   0   1    0.61    1.26
  -4   0   0  289.93    9.83
  -4   0  -1    0.66    1.35
   4   0   2 3110.97   62.20
  -4   0  -2 3587.26   63.20
  -4   0  -3    5.23    1.82
   4   0   3    7.01    1.77
  -4   0  -4 1989.32   41.12
   4   0   4 1955.59   41.07
  -4   0  -5    0.74    1.59
   4   0   5    2.36    1.55
   4   0   6  296.41   12.02
  -4   0  -6  325.67   12.30
   4   0   7    0.19    1.38
   4   0   8    1.42    1.60
  -4   0  -8    3.37    1.75
  -4   0  -9    0.65    1.75
   4   0   9    0.22    1.57
  -4   0 -10 1372.01   35.33
  -4   0 -11    2.99    2.49
  -4   0 -12  274.49   13.75
  -4   0 -13    0.28    2.75
  -4   0 -14   11.54    3.61
  -4   0 -15    2.81    2.37
  -4   0 -16  560.33   21.01
  -4   0 -17    1.26    2.43
   4   0  18 2921.38   61.92
  -4   0 -18 3069.95   63.37
   4   0  19    0.88    1.68
  -4   0 -19    0.20    2.00
   4   0  20    5.15    1.84
  -4   0 -20    6.16    2.22
   4   0  21    1.02    1.16
  -4   0 -21    2.12    1.61
   4   0  22  135.60    5.45
  -4   0 -22  136.28    5.78
  -4   1  25   48.36    3.01
  -4   1  24  357.43   10.02
   4  -1 -24  333.63   10.57
  -4   1  24  345.92   10.60
  -4   1  23  246.96    9.07
  -4   1  23  235.54    9.39
  -4   1  22    1.44    1.57
  -4   1  22    2.93    1.62
  -4   1  21   34.43    4.01
  -4   1  21   41.20    4.44
  -4   1  20   37.16    4.33
  -4   1  20   37.44    4.52
  -4   1  19    2.41    2.17
  -4   1  19    4.44    2.18
   4  -1 -18  658.80   22.99
  -4  -1  18  707.63   22.30
  -4   1  18  701.65   21.85
  -4   1  18  716.22   22.33
  -4   1  17  523.84   18.27
  -4   1  17  482.81   17.99
   4  -1 -17  475.74   18.86
   4   1 -17  471.04   18.56
  -4  -1  17  497.49   18.38
  -4   1  17  507.59   18.38
   4  -1 -16  310.15   14.40
   4   1 -16  309.84   14.25
  -4   1  16  329.77   14.05
  -4   1  16  316.32   13.98
  -4  -1  16  320.25   14.18
  -4   1  16  339.13   14.43
  -4   1  15    1.79    1.70
   4  -1 -15    1.03    2.17
   4   1 -15    2.97    2.27
  -4  -1  15    5.91    2.34
  -4   1  15    1.53    2.00
  -4  -1  14  734.60   22.20
   4  -1 -14  696.17   22.91
   4   1 -14  659.09   22.16
  -4   1  14  699.14   21.68
  -4   1  14  694.52   21.77
   4   1 -13  164.07    9.45
  -4   1  13  167.88    9.35
  -4   1  13  162.68    9.11
  -4  -1  13  169.87    9.37
   4  -1 -13  157.81    9.44
  -4  -1  13  170.09    9.03
   4  -1 -12 1049.39   28.12
   4   1 -12  994.71   27.38
  -4   1  12 1033.33   27.19
  -4   1  12 1007.38   26.69
  -4  -1  12 1065.50   27.26
  -4  -1  12 1033.35   26.61
   4   1 -11   31.88    3.76
   4  -1 -11   29.43    3.86
   4   1 -11   24.58    3.49
  -4   1  11   29.58    3.73
  -4   1  11   28.04    3.53
  -4  -1  11   29.76    3.60
  -4  -1  11   33.90    3.88
   4   1 -10  826.25   21.73
   4  -1 -10  801.68   22.32
   4   1 -10  780.16   21.94
  -4  -1  10  769.54   21.20
  -4   1  10  799.37   21.90
  -4  -1  10  811.97   21.69
  -4   1  10  762.92   21.13
   4   1  -9    2.25    1.34
  -4  -1   9    1.05    1.40
  -4   1   9    3.14    1.59
   4   1  -8    1.99    1.25
  -4   1   8    1.18    1.42
  -4   1   7 1353.10   30.40
  -4   1   7 1318.23   30.21
   4   1  -6 1905.22   39.30
   4   1  -5  235.89    8.99
  -4  -1   5  214.57    8.22
  -4   1   5  235.37    8.51
   4   1  -4   57.10    4.28
  -4  -1   4   50.91    3.72
  -4   1   4   53.12    3.81
   4   1  -3  368.90   11.45
  -4  -1   3  344.13   10.58
  -4   1   3  340.65   10.57
   4   1  -2  360.75   11.40
  -4  -1   2  373.87   10.90
  -4   1   2  357.61   10.80
  -4  -1   1 4274.22   77.65
  -4   1   1 4367.18   77.89
  -4  -1   0 1947.15   38.98
  -4   1   0 2010.64   39.11
   4   1   1 1330.75   28.34
   4  -1   1 1302.10   28.17
  -4  -1  -1 1311.75   27.94
  -4   1  -1 1297.53   27.92
   4   1   2 1980.16   39.73
   4  -1   2 1932.44   39.47
  -4  -1  -2 1950.90   39.20
  -4   1  -2 1953.96   39.25
   4   1   3 1621.21   34.22
   4  -1   3 1612.82   34.03
  -4  -1  -3 1567.83   33.70
  -4   1  -3 1605.52   33.92
   4  -1   4   30.90    3.34
  -4   1  -4   29.68    3.21
   4   1   4   32.61    3.47
  -4  -1  -4   32.96    3.37
  -4   1  -4   33.94    3.34
   4   1   5  870.38   22.65
   4  -1   5  829.23   22.17
  -4   1  -5  849.10   22.00
  -4  -1  -5  887.79   22.23
  -4   1  -5  868.09   22.11
  -4   1  -6   54.58    4.61
   4   1   6   60.21    5.05
   4  -1   6   61.66    4.99
  -4  -1  -6   61.74    4.92
  -4   1  -6   58.96    4.85
   4   1   7  383.16   14.20
   4  -1   7  395.08   14.24
  -4  -1  -7  403.44   14.17
  -4   1  -7  405.29   14.11
  -4  -1  -7  396.33   14.07
  -4   1  -7  405.13   14.24
  -4   1  -8 3392.83   68.59
   4   1   8 3467.24   69.89
   4  -1   8 3340.03   69.17
  -4  -1  -8 3549.01   69.23
  -4  -1  -8 3581.63   69.41
  -4   1  -8 3503.40   69.04
  -4  -1  -9 2024.33   45.16
  -4  -1  -9 2050.52   45.24
   4   1   9 1935.03   41.32
  -4   1  -9 2037.02   44.95
  -4   1  -9 2002.05   44.83
  -4   1 -10   36.57    4.53
  -4  -1 -10   46.47    5.09
   4   1  10   42.02    3.86
  -4   1 -10   47.03    5.04
  -4  -1 -10   43.45    5.06
  -4  -1 -11   72.50    6.55
  -4   1 -11   70.11    6.32
   4   1  11   46.62    4.12
  -4  -1 -11   67.04    6.23
  -4   1 -11   51.99    5.63
  -4  -1 -12  936.15   27.67
  -4   1 -12  914.32   27.17
  -4  -1 -12  921.44   27.42
  -4   1 -12  898.03   27.03
  -4  -1 -13  151.60    9.87
  -4   1 -13  145.29    9.53
  -4  -1 -13  139.89    9.51
  -4   1 -13  136.37    9.37
  -4  -1 -14  957.31   28.35
  -4   1 -14  951.48   27.96
  -4  -1 -14  935.28   28.33
  -4   1 -14  947.94   28.17
  -4   1 -15   27.96    4.45
  -4  -1 -15   20.81    4.02
  -4  -1 -16   27.23    4.28
  -4   1 -16   26.19    4.19
   4  -1  17  107.56    6.98
   4   1  17  122.12    7.46
  -4  -1 -17  128.49    8.26
  -4   1 -17  113.72    7.69
   4  -1  18  264.13   10.69
   4   1  18  264.27   10.74
  -4   1 -18  259.63   11.32
  -4  -1 -18  274.67   11.74
   4  -1  19   16.29    2.47
   4   1  19   16.72    2.54
  -4   1 -19   17.38    2.77
  -4  -1 -19   20.00    3.03
  -4   1 -19   18.44    2.86
   4  -1  20  159.29    6.79
   4   1  20  167.34    6.89
  -4   1 -20  167.39    6.96
  -4   1 -20  166.93    7.24
  -4  -1 -20  176.19    7.48
   4   1  21    4.21    1.13
   4  -1  21    3.79    1.04
  -4   1 -21    6.67    1.41
  -4  -1 -21    3.70    1.25
  -4   2  23 1015.57   21.07
  -4   2  23  945.54   20.58
  -4   2  22    4.64    1.32
  -4   2  22   14.89    2.06
  -4   2  21   23.26    2.82
  -4   2  21   23.70    2.69
  -4   2  20   29.62    3.42
  -4   2  20   28.76    3.29
  -4   2  19    3.44    1.79
  -4   2  19    0.86    1.81
  -4   2  18  109.20    7.18
  -4   2  17 3205.24   63.19
  -4   2  17 3053.59   64.18
  -4   2  16    2.99    2.13
  -4   2  16    3.84    2.15
  -4   2  15  470.81   17.29
  -4   2  14    3.75    2.26
  -4   2  13  736.97   22.55
  -4   2  13  703.21   21.92
  -4   2  12    1.05    1.74
  -4   2  12    6.78    2.45
  -4  -2  12    2.52    2.18
  -4   2  12    5.71    2.51
  -4   2  11 2297.93   51.27
  -4   2  11 2391.93   51.45
  -4  -2  11 2372.30   49.56
  -4   2  11 2263.93   50.24
   4   2 -10   52.27    5.24
  -4   2  10   53.01    5.27
  -4   2  10   52.38    5.21
  -4  -2  10   49.14    4.75
  -4   2  10   50.03    4.96
   4   2  -9  292.76   12.47
  -4   2   9  296.07   12.41
  -4  -2   9  310.02   11.99
  -4   2   9  277.06   12.09
  -4   2   9  259.16   11.39
  -4   2   8   36.62    4.29
  -4   2   8   41.87    4.48
  -4  -2   8   46.97    4.54
  -4   2   8   39.54    4.18
  -4   2   7 3006.18   59.53
  -4   2   7 2962.97   60.37
  -4  -2   7 2979.09   59.76
  -4   2   7 3165.55   60.71
  -4   2   7 2976.27   59.64
  -4   2   6    9.84    2.19
  -4   2   6    6.93    2.12
  -4   2   6    9.95    2.41
  -4   2   6   10.69    2.63
  -4   2   6   10.03    2.30
  -4   2   5   19.57    2.82
  -4   2   5   17.50    3.23
  -4   2   5   22.08    3.06
  -4   2   5   16.37    2.71
  -4   2   5   18.24    2.86
   4   2  -4  175.94    8.83
  -4   2   4  192.25    8.64
  -4   2   4  186.05    8.44
  -4   2   4  190.21    9.47
  -4   2   4  189.63    8.71
  -4   2   3   59.50    4.59
   4   2  -3   55.19    4.71
  -4   2   3   50.33    4.41
  -4   2   3   51.28    4.45
   4   2  -2  437.58   14.89
  -4   2   2  420.84   13.71
  -4   2   2  441.18   14.11
  -4   2   2  438.68   15.05
  -4  -2   2  457.31   14.47
  -4   2   1  677.65   20.05
  -4   2   1  676.44   18.86
   4   2  -1  739.71   18.64
   4   2  -1  691.37   20.20
  -4  -2   1  706.23   19.34
  -4   2   0  247.11   10.73
  -4   2   0  224.53    9.53
   4   2   0  228.51   10.59
  -4  -2   0  217.77    9.50
  -4   2   0  222.93   10.21
   4   2   0  245.50    9.26
   4   2   1  277.68   11.74
  -4   2  -1  242.53   10.87
  -4   2  -1  278.64   10.77
  -4  -2  -1  263.19   10.53
   4   2   1  276.94    9.98
   4   2   2  116.08    6.14
  -4   2  -2  106.23    6.87
   4   2   2  110.04    7.26
  -4  -2  -2  114.49    6.71
   4   2   3  270.75   10.04
  -4  -2  -3  245.87   10.53
   4   2   3  242.56   11.42
   4   2   4   69.48    5.12
   4   2   4   70.77    6.13
   4   2   5  142.20    7.49
   4   2   6  112.27    6.55
   4   2   7  445.08   14.37
   4   2   8   37.58    3.90
   4   2   9 1348.21   33.17
   4   2  10   28.28    3.86
   4   2  11   62.42    5.45
   4   2  12   21.75    3.40
   4   2  13 1005.55   26.00
  -4   2 -14   63.80    7.03
   4   2  14   47.38    4.35
  -4   2 -15 1428.88   37.16
   4   2  15 1331.52   30.36
  -4   2 -16   21.67    3.72
  -4   2 -17   99.77    6.60
  -4   2 -18    4.81    1.77
  -4   2 -19 1387.15   29.08
  -4  -2 -19 1430.55   28.46
  -4   3  20   57.75    2.91
  -4   3  19   26.78    2.47
  -4   3  19   24.57    2.29
  -4   3  18  149.77    6.93
  -4   3  18  138.40    6.22
  -4   3  17  191.41    9.11
  -4   3  17  185.94    8.03
  -4   3  16    0.59    1.98
  -4   3  16    1.06    1.42
  -4   3  15   31.99    4.59
  -4   3  15   28.99    3.73
  -4   3  14    3.65    2.85
  -4   3  14    1.89    1.82
  -4   3  13   13.09    3.81
  -4   3  13   21.51    3.53
  -4   3  12  142.93   10.33
  -4   3  12  145.26    8.85
  -4   3  11   73.25    7.32
  -4   3  11   86.86    6.86
  -4   3  10   15.38    3.73
  -4   3  10   15.90    3.31
  -4   3   9   11.31    3.21
  -4   3   9    9.57    2.80
  -4   3   8  258.57   12.29
  -4   3   8  262.11   11.82
  -4   3   7 1126.67   29.04
  -4   3   7 1072.29   28.38
   4   3  -6  700.79   22.96
  -4   3   6  728.56   21.34
  -4   3   6  746.67   21.22
   4   3  -5  144.01    9.34
  -4   3   5  150.42    7.91
  -4   3   5  150.95    8.25
  -4   3   4   63.76    4.91
  -4   3   4   61.37    5.17
   4   3  -4   63.79    5.28
   4   3  -4   56.26    5.82
   4   3  -3  193.93   10.95
  -4   3   3  188.10    8.27
  -4   3   3  195.29    9.26
   4   3  -3  196.50    9.42
   4   3  -2  188.77   11.02
  -4   3   2  186.45    7.84
  -4   3   2  187.71    9.03
   4   3  -2  187.56    9.11
  -4   3   1 1612.12   34.18
   4   3  -1 1598.05   41.15
   4   3   0  887.46   27.93
  -4   3   0  914.92   24.31
   4   3   1    3.26    2.22
  -4   3  -1    6.39    2.40
   4   3   1    2.40    1.51
   4   3   1    1.67    1.78
  -4   3  -2 1058.05   29.86
   4   3   2 1108.12   26.72
   4   3   2 1072.51   27.17
   4   3   3 1442.68   34.34
  -4   3  -3 1451.23   39.21
   4   3   4   39.34    4.28
  -4   3  -4   38.46    5.98
  -4   3  -5  655.95   26.62
   4   3   5  654.77   19.44
   4   3   6  432.59   14.56
   4   3   6  442.38   15.59
   4   3   7   -0.19    1.41
  -4   3  -7   -0.46    3.20
   4   3   7    1.28    1.37
  -4   3  -8  198.80   16.29
   4   3   8  690.67   18.26
  -4   3  -9  499.15   25.32
   4   3   9  743.61   20.35
  -4   3 -10   81.13    9.28
   4   3  10   84.75    5.98
  -4   3 -11   56.11    7.26
   4   3  11   45.10    4.21
   4   3  12   22.07    2.87
   4   3  13   15.59    2.34
  -4   3 -14  152.53    8.60
   4   3  14  130.32    5.99
  -4   3 -15   12.74    2.33
  -4   3 -16   73.30    4.15
   4   4 -13  152.42    5.38
   4   4 -12   16.89    2.32
   4   4 -12   17.38    2.02
   4   4 -11   25.94    2.57
   4   4 -10  278.62    9.41
   4   4  -9   75.42    4.71
   4   4  -8  834.16   19.57
   4   4  -8  659.31   20.23
   4   4  -7  142.24    6.78
   4   4  -7  123.66    7.36
   4   4  -6   13.05    2.17
   4   4  -6   20.09    3.19
   4   4  -5   75.07    4.91
   4   4  -5   79.20    5.76
   4   4  -4   24.06    3.39
   4   4  -4   24.65    2.86
   4   4  -3   70.36    4.76
   4   4  -2  748.54   18.28
   4   4  -2  547.14   19.15
   4   4  -1    0.74    1.72
   4   4   0    1.23    1.67
   4   4   1   36.01    4.02
   4   4   2  126.94    6.26
   4   4   2  110.58    6.78
   4   4   3   38.41    3.38
   4   4   3   43.79    4.15
   4   4   4  334.75   11.73
   4   4   5   68.86    4.75
   4   4   6    0.69    1.17
   4   4   7   21.80    2.45
   4   4   8    7.79    1.55
   4   4   9  114.41    4.84
   5   0 -25   60.94    3.81
  -5   0  24   -0.08    0.88
  -5   0  23   36.34    3.32
  -5   0  22    1.39    1.36
  -5   0  21  334.57   12.61
  -5   0  20    0.76    1.62
  -5   0  19  423.84   15.78
  -5   0  19  410.53   13.76
  -5   0  18    3.24    2.16
   5   0 -18    2.63    2.58
  -5   0  18   -0.32    1.25
  -5   0  17    9.71    2.79
   5   0 -17    3.39    2.63
  -5   0  17    2.88    1.80
  -5   0  16    0.88    1.89
   5   0 -16    4.25    2.17
  -5   0  16    0.76    1.93
  -5   0  16   -0.17    1.39
   5   0 -15 4679.90   94.06
  -5   0  15 4541.64   86.73
  -5   0  15 4569.48   91.43
  -5   0  15 4651.39   89.84
   5   0 -14    0.28    2.10
  -5   0  14    2.03    1.76
   5   0 -13  106.74    8.29
  -5   0  13   88.27    6.03
  -5   0  13   97.21    6.97
  -5   0  12    0.38    1.73
   5   0 -12    8.33    2.83
  -5   0  12    5.83    2.07
  -5   0  12    0.47    1.43
  -5   0  11  218.25    9.28
  -5   0  11  210.14    9.88
  -5   0  10    1.00    1.38
   5   0 -10    0.57    0.92
  -5   0  10    0.42    1.28
  -5   0  10    2.38    1.47
   5   0  -9 4983.10   90.76
  -5   0   9 5031.09   92.38
  -5   0   9 4981.16   92.29
  -5   0   9 5110.20   93.61
  -5   0   9 5240.86   93.93
  -5   0   8    2.06    1.47
   5   0  -8    2.19    1.14
  -5   0   8    0.77    1.23
   5   0  -7 1561.34   32.33
  -5   0   7 1530.38   33.77
  -5   0   6    1.75    1.33
   5   0  -6    1.41    1.05
  -5   0   6    1.06    1.75
   5   0  -5 2668.69   51.06
  -5   0   5 2585.48   52.54
   5   0  -4    1.57    1.00
  -5   0   4    1.70    1.47
  -5   0   3  861.56   21.89
  -5   0   2    2.04    1.56
  -5   0   1 1848.21   39.18
  -5   0   0    1.29    1.35
   5   0   1 1332.43   30.52
  -5   0  -1 1336.31   30.75
   5   0   2    1.29    1.36
  -5   0  -2    1.58    1.71
  -5   0  -3  492.47   14.61
  -5   0  -3  490.82   16.12
  -5   0  -3  518.49   16.36
   5   0   3  494.92   16.24
  -5   0  -4    2.67    1.86
   5   0   4    2.77    1.70
  -5   0  -4    0.18    1.37
  -5   0  -4    1.73    1.26
  -5   0  -5  848.02   21.57
   5   0   5  833.38   24.12
  -5   0  -5  842.55   23.61
  -5   0  -5  845.10   23.80
  -5   0  -6    8.08    2.56
   5   0   6    6.15    2.36
  -5   0  -6   -0.15    1.18
  -5   0  -6   -0.20    1.67
  -5   0  -7  249.04   11.96
   5   0   7  257.77   12.56
  -5   0  -7  263.49   12.40
  -5   0  -8    6.89    2.37
   5   0   8    2.95    2.17
  -5   0  -8    1.61    2.27
   5   0   9  872.19   26.99
  -5   0  -9  845.66   25.84
  -5   0  -9  842.13   26.22
  -5   0 -10    1.58    2.33
  -5   0 -10    1.28    1.90
  -5   0 -11 1848.42   45.40
  -5   0 -11 1840.69   45.65
  -5   0 -12    1.41    2.18
  -5   0 -12    0.54    2.35
  -5   0 -13  445.47   18.34
  -5   0 -13  431.92   18.33
  -5   0 -14    7.97    3.17
  -5   0 -15  142.39    9.57
  -5   0 -16    1.40    2.37
  -5   0 -17 1623.99   38.58
   5   0  18    2.53    1.49
  -5   0 -18    2.10    1.73
   5   0  19   51.11    4.11
  -5   0 -19   45.56    4.16
   5   0  20    3.66    1.24
  -5   0 -20    2.90    1.46
   5   1 -24  261.95    8.24
   5  -1 -24  286.66    8.64
  -5   1  23    0.79    1.23
  -5   1  23    2.10    1.14
  -5   1  22  274.78    9.79
  -5   1  22  261.21   10.15
  -5   1  21  144.90    7.37
  -5   1  21  141.09    7.77
  -5   1  20  585.15   17.79
  -5   1  20  559.09   18.23
  -5   1  19  618.59   19.30
  -5   1  19  608.68   19.80
  -5   1  18  144.57    8.67
  -5   1  18  135.37    8.76
   5  -1 -17  168.77   10.39
   5   1 -17  168.00   10.28
  -5   1  17  202.40   10.51
  -5   1  17  189.38   10.49
   5  -1 -16  630.43   22.35
   5   1 -16  596.86   21.50
  -5   1  16  657.04   20.93
  -5   1  16  637.94   21.24
   5  -1 -15  153.20   10.10
   5   1 -15  162.54   10.20
  -5   1  15  169.38    9.73
  -5   1  15  167.31    9.92
   5  -1 -14  115.85    8.58
   5   1 -14  118.09    8.49
  -5   1  14  136.01    8.52
  -5   1  14  116.38    8.12
   5  -1 -13   25.83    4.19
   5   1 -13   19.42    3.66
  -5   1  13   28.06    3.88
  -5  -1  13   24.90    4.02
  -5   1  13   22.54    3.74
  -5   1  12   14.66    3.23
   5  -1 -12   10.87    2.86
   5   1 -12    9.33    2.77
  -5  -1  12    6.04    2.43
  -5   1  12    6.05    2.33
   5   1 -11  172.15    9.15
   5  -1 -11  169.03    9.66
   5   1 -11  163.46    9.32
  -5   1  11  166.97    9.14
   5   1 -10  601.99   18.27
  -5   1  10  526.17   17.69
   5   1  -9  149.59    8.16
  -5   1   9  139.10    7.99
   5   1  -8  599.76   17.92
  -5   1   8  562.81   17.61
   5   1  -7   74.36    5.41
  -5   1   7   71.17    5.41
   5   1  -6   30.48    3.44
  -5   1   6   30.83    3.59
  -5   1   5 1516.68   33.99
  -5  -1   5 1437.32   32.88
  -5   1   5 1483.83   33.17
  -5   1   4  237.85    9.90
  -5  -1   4  227.92    9.41
  -5   1   4  229.02    9.41
   5   1  -3  842.58   21.87
  -5   1   3  850.87   21.97
  -5  -1   3  813.54   20.94
  -5   1   3  833.90   21.15
  -5   1   2  253.62   10.10
   5   1  -2  225.54    9.46
  -5  -1   2  227.61    9.23
  -5   1   2  228.87    9.26
  -5   1   1  117.42    6.42
  -5   1   1  115.34    6.71
  -5  -1   1  106.25    6.06
  -5   1   1  110.81    6.14
  -5   1   0  936.03   23.10
   5   1   0  926.77   22.86
   5  -1   0  890.58   22.49
  -5  -1   0  891.15   22.49
  -5   1   0  911.57   22.61
  -5   1  -1 3875.71   73.76
   5   1   1 3998.97   74.27
   5  -1   1 3877.09   73.85
  -5  -1  -1 3888.80   73.45
  -5   1  -1 3813.36   73.33
  -5   1  -2  728.28   19.97
  -5   1  -2  756.35   20.47
  -5  -1  -2  728.60   20.44
  -5  -1  -2  720.39   19.95
  -5   1  -2  747.67   20.11
   5   1   2  730.27   20.41
   5  -1   2  745.17   20.34
  -5   1  -3    6.33    1.94
   5   1   3    0.51    1.25
   5  -1   3    0.82    1.43
  -5   1  -3    4.82    1.88
  -5  -1  -3    6.18    2.10
  -5  -1  -3    6.93    1.80
  -5   1  -3    7.37    1.94
  -5   1  -4  610.72   18.55
   5   1   4  659.41   19.73
   5  -1   4  643.85   19.44
  -5   1  -4  620.88   18.84
  -5  -1  -4  635.24   19.03
  -5  -1  -4  646.89   18.96
  -5   1  -4  638.47   18.85
  -5   1  -5  381.88   13.95
   5   1   5  351.88   14.12
   5  -1   5  377.42   14.33
  -5   1  -5  375.32   13.98
  -5  -1  -5  378.34   14.07
  -5  -1  -5  376.17   13.96
  -5   1  -5  374.45   13.89
  -5   1  -6  697.10   20.65
  -5   1  -6  666.02   20.50
  -5  -1  -6  705.16   21.00
   5   1   6  684.57   21.39
   5  -1   6  669.56   21.03
  -5  -1  -6  692.11   20.99
  -5   1  -6  692.58   20.81
   5  -1   7 1543.72   37.95
  -5   1  -7 1579.46   37.66
  -5  -1  -7 1609.15   38.11
  -5  -1  -7 1648.88   38.47
  -5   1  -7 1600.39   37.93
   5   1   7 1563.54   38.32
   5   1   8  495.02   18.47
   5  -1   8  472.39   17.90
  -5   1  -8  501.04   17.69
  -5  -1  -8  539.88   18.32
  -5  -1  -8  484.70   17.67
  -5   1  -8  485.53   17.54
  -5   1  -9  634.90   21.04
  -5  -1  -9  675.58   21.70
  -5  -1  -9  670.18   21.81
  -5   1  -9  634.39   21.26
  -5   1 -10 1913.20   45.06
  -5  -1 -10 1896.63   45.23
  -5  -1 -10 1894.11   45.43
  -5   1 -10 1913.03   45.38
  -5   1 -11  892.68   26.77
  -5  -1 -11  895.54   27.13
  -5  -1 -11  902.70   27.43
  -5   1 -11  907.50   27.26
  -5  -1 -12    1.29    2.24
  -5   1 -12    4.06    2.30
  -5  -1 -12    4.41    2.42
  -5   1 -12    2.40    2.21
  -5   1 -13    4.47    2.53
  -5  -1 -13    3.12    2.50
  -5   1 -14   11.04    3.01
  -5  -1 -14   17.24    3.65
  -5   1 -15  451.37   16.55
  -5  -1 -15  453.62   16.84
  -5   1 -16 1091.71   28.35
  -5  -1 -16 1126.97   28.84
   5  -1  17  123.71    6.66
   5   1  17  125.99    6.74
  -5   1 -17  117.63    7.06
  -5  -1 -17  124.59    7.28
   5  -1  18   40.07    3.37
   5   1  18   37.97    3.28
  -5   1 -18   38.19    3.72
  -5  -1 -18   35.61    3.67
   5  -1  19  397.86   11.23
   5   1  19  433.20   11.48
  -5   1 -19  429.88   12.32
  -5   1 -19  423.61   11.93
  -5  -1 -19  418.25   12.02
  -5   2  22    2.98    0.97
  -5   2  22    1.23    0.90
  -5   2  22    0.56    0.91
  -5   2  21   17.16    2.33
  -5   2  21   15.81    2.15
  -5   2  20  342.00   11.54
  -5   2  20  338.78   11.32
  -5   2  19   58.19    4.72
  -5   2  19   64.00    4.87
  -5   2  18  654.11   19.29
  -5   2  18  641.67   19.05
  -5   2  17   68.11    5.72
  -5   2  17   66.08    5.41
  -5   2  17   57.38    5.30
  -5   2  16  471.50   16.43
  -5   2  16  440.80   16.18
  -5   2  16  441.83   16.23
  -5   2  15   53.78    5.52
  -5   2  15   46.79    5.16
  -5   2  14  645.33   21.57
  -5   2  14  708.48   22.10
  -5   2  13  131.04    8.87
  -5   2  13  144.19    8.97
  -5  -2  12  147.74    8.49
  -5   2  12  122.92    8.69
  -5   2  12  131.97    8.54
   5   2 -11  109.14    7.79
  -5   2  11  108.84    8.09
  -5  -2  11  102.80    7.17
  -5   2  11   99.33    7.40
   5   2 -10 1535.61   37.65
  -5   2  10 1568.86   38.29
  -5   2  10 1517.14   37.40
  -5  -2  10 1558.08   36.45
  -5   2  10 1519.64   37.09
   5   2  -9   77.26    6.30
  -5   2   9   77.50    6.42
  -5  -2   9   81.83    6.42
  -5   2   9   86.68    6.89
  -5   2   9   76.88    6.33
   5   2  -8 1077.16   28.59
  -5   2   8 1027.07   27.40
  -5   2   8 1094.74   29.01
  -5   2   8 1114.42   28.90
  -5  -2   8 1100.45   28.02
  -5   2   8 1023.54   27.62
  -5   2   7  148.81    8.38
   5   2  -7  143.86    8.59
  -5   2   7  137.16    9.65
  -5   2   7  148.10    8.35
  -5   2   7  147.84    8.68
  -5   2   7  156.76    8.84
   5   2  -6 2796.41   59.32
  -5   2   6 2849.83   62.56
  -5   2   6 2925.63   59.31
  -5   2   6 2915.87   59.32
  -5   2   6 2811.90   58.49
  -5   2   5    6.03    2.74
  -5   2   5   10.21    2.79
  -5   2   5    6.22    2.30
  -5   2   5    6.26    2.47
  -5   2   4  391.24   15.86
  -5   2   4  374.62   13.89
  -5   2   4  365.78   13.82
  -5   2   4  382.49   14.22
  -5   2   3    1.42    1.71
  -5   2   3    2.43    2.08
  -5   2   3    0.35    1.52
   5   2  -3    0.93    1.15
  -5   2   3   -0.35    1.82
  -5   2   2   26.36    3.71
  -5   2   2   19.52    3.55
  -5   2   2   19.02    3.32
   5   2  -2   20.02    3.26
  -5  -2   2   19.11    3.24
   5   2  -2   26.15    2.93
   5   2  -1   48.29    4.99
  -5   2   1   67.96    5.71
  -5  -2   1   56.51    5.09
  -5   2   1   61.18    5.81
   5   2  -1   58.45    4.32
   5   2   0 3592.94   65.84
   5   2   0 3415.20   70.75
  -5   2   0 3445.73   69.23
  -5  -2   0 3430.36   68.82
  -5   2   0 3386.67   70.27
   5   2   1    7.57    2.39
  -5   2  -1   11.13    2.94
   5   2   1   12.62    2.30
  -5  -2  -1   10.68    2.68
  -5   2  -2   26.28    3.92
   5   2   2   20.16    3.56
  -5  -2  -2   23.86    3.63
   5   2   3   33.68    3.74
  -5  -2  -3   26.79    3.80
   5   2   3   23.32    3.86
   5   2   4  416.46   16.97
  -5  -2  -4  439.49   16.18
   5   2   5    5.27    1.77
  -5  -2  -5   10.37    2.89
   5   2   6 1002.77   24.88
   5   2   7  185.69    8.77
   5   2   8  134.64    8.08
   5   2   9  149.38    8.43
   5   2  10    2.63    1.59
   5   2  11   34.99    3.92
   5   2  12   98.71    6.15
   5   2  13  153.01    7.22
  -5   2 -14   20.26    4.20
   5   2  14   20.57    2.49
  -5   2 -15   59.71    5.60
  -5   2 -16  419.44   14.25
  -5  -2 -16  394.26   12.76
  -5   2 -17   25.69    2.99
  -5  -2 -17   23.54    2.64
  -5  -2 -18  118.84    4.72
  -5   3  18    2.35    0.96
  -5   3  18    2.58    1.18
  -5   3  17  310.62    9.71
  -5   3  17  303.30    9.94
  -5   3  16  653.10   16.96
  -5   3  16  604.40   16.81
  -5   3  15   24.24    3.18
  -5   3  15   24.36    3.20
  -5   3  14  197.90    9.23
  -5   3  14  188.19    9.07
  -5   3  13   66.59    5.53
  -5   3  13   71.81    5.84
  -5   3  12  174.91    9.11
  -5   3  12  178.06    9.42
  -5   3  11   95.67    6.66
  -5   3  11   94.14    6.91
  -5   3  10  498.72   16.48
  -5   3  10  505.05   17.45
  -5   3   9    1.95    1.70
  -5  -3   9   -0.15    1.50
  -5   3   8  312.30   11.76
   5   3  -8  312.97   12.14
  -5   3   8  336.69   13.59
  -5  -3   8  310.40   11.82
  -5   3   7   43.05    3.91
  -5   3   7   33.08    4.42
  -5  -3   7   33.85    3.90
   5   3  -7   34.15    3.80
  -5   3   6   49.10    4.02
  -5   3   6   55.00    5.32
  -5  -3   6   54.22    4.91
   5   3  -6   50.90    4.66
  -5   3   5  224.60   10.78
  -5  -3   5  226.96   10.25
   5   3  -5  228.67   10.10
  -5   3   4  354.70   13.81
  -5  -3   4  364.94   13.55
   5   3  -4  364.17   12.95
   5   3  -3    4.88    2.15
   5   3  -3    4.91    1.67
  -5  -3   3    5.15    2.03
  -5   3   3    7.61    2.77
   5   3  -2   88.69    5.82
   5   3  -2   81.61    7.23
   5   3  -1  111.27    6.63
   5   3   0  429.51   15.32
   5   3   0  446.04   14.62
   5   3   1  781.20   22.05
   5   3   2  164.90    8.62
  -5   3  -2  140.16    8.56
   5   3   3  275.73   11.28
  -5   3  -3  272.14   13.25
  -5   3  -4  528.11   20.53
   5   3   4  505.06   16.03
  -5  -3  -4  536.42   18.25
  -5   3  -5   17.74    4.44
   5   3   5   14.02    2.44
  -5  -3  -5   15.74    3.39
  -5   3  -6  448.38   20.67
   5   3   6  480.11   15.23
   5   3   6  474.69   16.06
  -5  -3  -6  496.41   17.24
   5   3   7  314.06   11.97
  -5  -3  -7  293.17   12.60
   5   3   8   83.45    5.71
  -5  -3  -8   76.76    6.10
  -5   3  -9  585.49   23.21
   5   3   9  579.19   16.47
   5   3  10 1281.85   28.47
  -5  -3 -10 1135.20   28.60
  -5   3 -11  426.27   16.98
   5   3  11  367.14   11.75
  -5   3 -12  132.30    8.21
   5   3  12  108.11    5.24
   5   3  13    2.40    1.02
  -5   3 -13    3.66    1.76
  -5   3 -14   98.89    5.20
   5   4 -10   10.34    1.48
   5   4 -10    8.62    1.82
   5   4  -9  823.32   18.02
   5   4  -8  158.93    6.05
   5   4  -7  316.58    9.52
   5   4  -6   50.33    3.48
   5   4  -5  171.05    7.92
   5   4  -4   75.97    5.15
   5   4  -3  140.84    6.72
   5   4  -3   86.51    6.12
   5   4  -2  224.01    8.59
   5   4  -2  173.81    8.65
   5   4  -1  337.68   10.82
   5   4  -1  307.38   11.68
   5   4   0   50.64    3.69
   5   4   0   40.14    3.94
   5   4   1  191.73    7.36
   5   4   1  200.12    8.51
   5   4   2  153.87    6.42
   5   4   2  164.00    7.33
   5   4   3   12.61    2.14
   5   4   4  274.67    9.28
   5   4   5  125.68    5.55
   5   4   6   22.40    2.18
  -6   0  24  312.86    9.03
  -6   0  23    0.54    0.85
  -6   0  22  551.60   14.79
  -6   0  21    0.80    1.28
  -6   0  20    7.31    2.09
  -6   0  19   -0.18    1.60
  -6   0  18   44.39    4.78
  -6   0  17   -0.62    1.83
   6   0 -16  820.85   27.24
  -6   0  16  751.08   21.15
  -6   0  16  810.53   23.65
  -6   0  15    0.86    1.89
   6   0 -15    3.91    2.61
  -6   0  15    0.34    1.37
   6   0 -14  841.54   27.45
  -6   0  14  805.18   22.47
  -6   0  14  843.25   24.53
  -6   0  13    2.31    2.03
   6   0 -13    1.43    1.95
  -6   0  13    0.85    1.59
  -6   0  12   36.67    4.19
  -6   0  12   38.07    4.58
  -6   0  11   -0.60    1.75
  -6   0  11   -0.16    1.59
  -6   0  11    0.16    1.47
  -6   0  10  306.28   11.82
  -6   0  10  297.17   11.65
  -6   0  10  300.76   12.46
  -6   0  10  317.21   12.84
  -6   0   9   -0.18    1.80
  -6   0   9    1.44    2.06
  -6   0   9    2.33    1.78
  -6   0   9    1.73    1.72
   6   0  -8 4816.77   87.17
  -6   0   8 4827.97   90.11
  -6   0   8 4679.66   88.55
  -6   0   8 4626.21   88.34
  -6   0   8 4812.48   90.05
  -6   0   7    0.85    1.58
   6   0  -7    2.11    1.23
  -6   0   7    0.17    1.93
  -6   0   7    0.90    1.43
  -6   0   6  838.65   22.57
   6   0  -6  857.04   21.47
  -6   0   6  827.97   22.87
  -6   0   6  796.93   21.66
   6   0  -5    0.14    1.01
  -6   0   5    1.54    1.79
  -6   0   5    2.07    1.53
  -6   0   5    1.51    1.73
   6   0  -4 2124.86   43.39
  -6   0   4 2093.42   44.80
  -6   0   4 1958.00   43.19
  -6   0   4 2076.51   43.73
  -6   0   4 2123.32   45.62
   6   0  -3    4.08    1.61
  -6   0   3    0.31    1.52
  -6   0   3    5.87    1.63
  -6   0   3    2.17    1.66
  -6   0   3    0.37    1.96
  -6   0   2 5498.23  100.37
  -6   0   2 5304.15  100.98
  -6   0   2 5556.79  100.44
  -6   0   2 5500.79  102.53
  -6   0   1    1.54    1.54
  -6   0   1    3.31    2.13
  -6   0   1    4.03    1.60
  -6   0   1    0.55    1.61
  -6   0   0  818.30   22.19
  -6   0   0  862.61   24.49
   6   0   0  835.25   23.59
  -6   0   0  856.13   22.49
  -6   0   0  848.26   23.85
  -6   0  -1    4.74    2.24
  -6   0  -1    0.16    1.52
   6   0   1    4.29    2.02
  -6   0  -1    4.50    2.18
  -6   0  -2 5010.33   93.29
  -6   0  -2 5147.08   96.82
  -6   0  -2 4920.70   93.52
   6   0   2 4946.24   96.42
  -6   0  -2 5039.37   95.99
  -6   0  -3    0.16    1.41
  -6   0  -3    2.42    2.15
  -6   0  -3    4.49    2.29
  -6   0  -4  305.35   11.95
   6   0   4  309.71   14.13
  -6   0  -4  319.73   14.04
  -6   0  -4  315.04   13.72
  -6   0  -5    2.26    1.66
  -6   0  -5    0.47    1.99
   6   0   5    2.79    2.17
  -6   0  -5    3.29    2.16
  -6   0  -6    8.73    2.35
   6   0   6    9.59    2.97
  -6   0  -6    8.60    3.17
  -6   0  -6    8.57    2.92
  -6   0  -7    4.58    2.46
   6   0   7    1.11    2.19
  -6   0  -7    3.34    2.33
   6   0   8 2089.03   49.68
  -6   0  -8 1987.55   48.19
  -6   0  -8 1974.28   48.17
  -6   0  -9   -0.28    2.13
   6   0   9    1.77    2.02
  -6   0  -9    2.41    1.96
  -6   0 -10    3.63    2.50
  -6   0 -10    4.04    2.87
  -6   0 -11    0.28    1.90
  -6   0 -11   -0.54    2.26
  -6   0 -12    3.93    2.41
  -6   0 -13   -1.25    2.35
  -6   0 -14   18.28    3.97
  -6   0 -15    0.42    2.08
  -6   0 -16   50.35    4.96
   6   0  17    1.33    1.23
  -6   0 -17    0.90    1.57
   6   0  18  283.85    9.44
  -6   0 -18  286.98   10.01
  -6   0 -19    4.52    1.26
  -6   1  23  591.77   14.10
  -6   1  23  664.88   15.33
  -6   1  22   50.80    3.55
  -6   1  22   57.59    3.63
  -6   1  22   54.48    3.99
  -6   1  21    6.75    1.96
  -6   1  21    5.59    1.63
  -6   1  21    8.97    1.90
  -6   1  20   81.06    5.40
  -6   1  20   76.35    5.62
  -6   1  19   58.33    4.93
  -6   1  19   55.63    5.14
  -6   1  18 1265.88   30.68
  -6   1  18 1187.35   31.09
  -6   1  17  923.67   25.17
  -6   1  17  866.52   25.48
  -6   1  16   25.74    3.87
  -6   1  16   22.19    3.87
   6  -1 -15  268.18   13.67
   6   1 -15  267.23   13.46
  -6   1  15  308.22   13.28
  -6   1  15  312.45   13.78
   6  -1 -14 1191.76   33.53
   6   1 -14 1192.76   33.28
  -6   1  14 1261.68   32.32
  -6   1  14 1270.34   32.95
  -6   1  13   13.35    3.44
   6  -1 -13   12.95    3.28
   6   1 -13   15.92    3.46
  -6   1  13   14.83    3.27
   6   1 -12  616.10   19.77
   6  -1 -12  588.31   20.91
   6   1 -12  574.80   20.42
  -6   1  12  614.90   20.17
  -6   1  12  589.31   20.18
   6   1 -11   27.49    3.85
   6  -1 -11   24.87    4.15
  -6   1  11   32.02    4.27
  -6   1  11   39.14    4.77
   6   1 -10   65.77    5.75
  -6   1  10   72.95    6.46
  -6   1  10   69.03    6.02
  -6   1  10   60.27    5.78
   6   1  -9  657.58   20.19
  -6   1   9  637.42   20.76
  -6   1   9  634.05   20.32
  -6   1   9  609.29   20.03
   6   1  -8  924.53   25.02
  -6   1   8  939.61   26.09
  -6   1   8  865.09   24.95
  -6   1   8  860.90   24.86
  -6   1   7   31.04    4.09
   6   1  -7   27.57    3.64
  -6   1   7   28.21    4.30
  -6   1   7   26.93    3.91
   6   1  -6   80.28    6.08
  -6   1   6   75.88    5.97
  -6   1   6   82.53    6.42
  -6   1   5  127.27    7.62
  -6   1   5  131.96    8.34
   6   1  -5  128.77    7.68
  -6   1   5  127.89    7.94
  -6  -1   5  122.90    7.47
  -6   1   5  137.95    7.83
  -6   1   4   55.46    5.00
   6   1  -4   57.28    5.17
  -6   1   4   58.91    5.71
  -6   1   4   61.59    5.50
  -6  -1   4   59.12    5.00
  -6   1   4   49.31    4.64
   6   1  -3  203.49   10.06
  -6   1   3  202.51    9.67
  -6   1   3  226.61   10.63
  -6  -1   3  191.26    9.35
  -6   1   3  187.51    9.21
  -6   1   2    9.09    2.39
  -6   1   2    9.61    2.76
   6   1  -2   11.35    2.49
  -6  -1   2   12.21    2.54
  -6   1   2   11.22    2.54
   6   1  -1  305.46   12.62
  -6   1   1  334.65   12.90
   6   1  -1  338.30   13.20
   6  -1  -1  337.92   13.08
  -6   1   1  362.29   14.18
  -6  -1   1  321.58   12.67
  -6   1   1  317.69   12.56
  -6   1   0  186.13    9.40
  -6   1   0  177.69    9.31
  -6  -1   0  182.64    9.44
   6   1   0  180.01    9.49
   6  -1   0  179.43    9.31
  -6  -1   0  172.37    8.91
  -6   1   0  164.66    8.74
  -6   1  -1   13.89    2.88
  -6   1  -1   27.35    3.86
  -6  -1  -1   26.88    3.85
  -6  -1  -1   28.50    3.86
  -6   1  -1   21.15    3.34
   6   1   1   16.68    3.23
   6  -1   1   20.44    3.30
   6   1   2  371.50   14.61
   6  -1   2  379.06   14.54
  -6   1  -2  354.84   13.71
  -6   1  -2  363.88   14.24
  -6  -1  -2  384.91   14.70
  -6  -1  -2  354.44   13.85
  -6   1  -2  361.41   13.90
  -6   1  -3 1066.54   27.98
   6  -1   3 1097.78   29.31
  -6   1  -3 1064.65   28.65
  -6  -1  -3 1111.34   29.31
   6   1   3 1077.46   29.37
  -6  -1  -3 1061.17   28.33
  -6   1  -3 1057.34   28.21
  -6   1  -4   20.18    3.47
   6   1   4   22.46    3.80
   6  -1   4   23.35    3.86
  -6   1  -4   25.16    3.86
  -6  -1  -4   19.13    3.67
  -6  -1  -4   22.45    3.66
  -6   1  -4   20.00    3.46
  -6   1  -5   96.31    7.09
  -6   1  -5   92.79    7.23
  -6  -1  -5   91.10    7.25
   6   1   5   82.89    7.11
   6  -1   5   86.55    7.28
  -6  -1  -5   94.73    7.15
  -6   1  -5   90.28    7.06
  -6   1  -6   93.90    7.37
  -6  -1  -6  105.12    7.86
   6   1   6   85.95    7.32
   6  -1   6   92.07    7.51
  -6  -1  -6   93.48    7.37
  -6   1  -6   92.60    7.18
   6   1   7   49.32    5.82
   6  -1   7   51.05    5.66
  -6   1  -7   48.84    5.50
  -6  -1  -7   45.06    5.39
  -6  -1  -7   42.41    5.20
  -6   1  -7   44.20    5.31
   6   1   8 1842.33   44.57
  -6   1  -8 1775.17   42.94
  -6  -1  -8 1779.02   43.39
   6  -1   8 1776.73   43.76
  -6  -1  -8 1750.70   43.02
  -6   1  -8 1756.29   42.82
  -6   1  -9  955.85   28.15
  -6  -1  -9  975.50   28.63
  -6  -1  -9  960.45   28.33
  -6   1  -9  955.42   28.01
  -6   1 -10   10.28    3.27
  -6  -1 -10   16.59    3.78
  -6  -1 -10   15.10    3.45
  -6   1 -10   14.65    3.42
  -6   1 -11  372.53   15.58
  -6  -1 -11  373.45   15.89
  -6   1 -12  885.26   26.12
  -6  -1 -12  923.72   26.72
  -6   1 -13   39.41    4.60
  -6  -1 -13   35.34    4.46
  -6   1 -14  593.15   18.95
  -6  -1 -14  604.21   19.34
  -6   1 -15  157.87    8.31
  -6  -1 -15  171.66    8.66
   6  -1  16   16.99    2.28
   6   1  16   16.94    2.27
  -6   1 -16   12.11    2.47
  -6  -1 -16   13.24    2.59
   6  -1  17  725.96   16.88
   6   1  17  730.97   16.90
  -6   1 -17  731.79   17.64
  -6  -1 -18  790.05   17.89
  -6   2  21    0.62    1.01
  -6   2  20   38.16    3.12
  -6   2  20   38.67    3.06
  -6   2  20   40.07    3.38
  -6   2  19  277.26    9.90
  -6   2  19  277.92   10.14
  -6   2  18   -0.14    1.32
  -6   2  18    2.35    1.69
  -6   2  17  677.63   18.67
  -6   2  17  652.93   19.21
  -6   2  17  637.90   18.96
  -6   2  16    6.98    2.40
  -6   2  16    7.94    2.37
  -6   2  16    6.07    2.30
  -6   2  15   47.43    4.95
  -6   2  15   44.62    4.86
  -6   2  15   43.09    4.70
  -6   2  14   20.26    3.72
  -6   2  14   26.15    4.05
  -6   2  13 1265.03   33.21
  -6   2  13 1273.95   33.29
  -6  -2  13 1292.84   31.66
  -6   2  13 1263.35   32.76
  -6   2  12   14.11    3.27
  -6   2  12   12.68    3.33
  -6   2  12   14.28    3.44
  -6  -2  12   17.09    3.34
  -6   2  11  479.83   17.39
   6   2 -11  491.01   17.73
  -6   2  11  430.49   18.17
  -6   2  11  476.27   18.03
  -6  -2  11  508.67   17.13
  -6   2  10   16.98    3.47
   6   2 -10   12.21    2.85
  -6   2  10   14.78    3.91
  -6   2  10   17.99    3.65
  -6  -2  10   14.99    3.32
   6   2  -9  250.05   11.88
  -6   2   9  261.35   12.63
  -6  -2   9  253.66   11.74
   6   2  -8   19.88    3.39
  -6   2   8   25.51    3.98
  -6   2   8   15.88    4.10
  -6   2   8   16.21    3.58
  -6  -2   8   19.75    3.76
   6   2  -7 3678.78   76.16
  -6   2   7 3896.54   81.50
  -6   2   7 3757.66   75.43
  -6   2   7 3892.62   77.28
  -6   2   7 3831.03   76.88
   6   2  -6  125.32    8.26
  -6   2   6  146.55   10.41
  -6   2   6  135.85    8.45
  -6   2   6  141.74    8.99
  -6   2   6  138.63    8.94
   6   2  -5  165.34    9.56
  -6   2   5  191.94   11.65
  -6   2   5  175.87    9.64
  -6   2   5  192.57   10.36
  -6   2   5  175.06    9.96
   6   2  -4   78.44    6.47
  -6   2   4   96.03    7.99
  -6   2   4   94.67    7.04
  -6   2   4   88.51    6.93
  -6   2   4   96.35    7.30
  -6   2   3    5.17    2.81
  -6   2   3    8.24    3.14
  -6   2   2   56.98    6.15
  -6   2   2   50.68    5.38
  -6   2   2   56.23    5.74
  -6   2   1 1728.38   42.76
  -6   2   1 1827.09   41.95
  -6  -2   1 1687.80   40.88
   6   2   0  190.14   10.79
  -6  -2   0  196.34   10.63
   6   2   1 2589.41   60.65
  -6   2  -1 2671.29   60.47
  -6  -2  -1 2794.67   59.72
  -6   2  -2  167.21   10.06
   6   2   2  191.98    8.86
  -6  -2  -2  189.60   10.39
   6   2   3   94.95    7.73
   6   2   3  120.23    6.71
  -6  -2  -3  107.21    7.81
   6   2   4   29.17    4.45
   6   2   4   30.27    3.33
  -6  -2  -4   29.67    4.41
   6   2   5    1.03    1.54
   6   2   5    1.04    1.26
  -6  -2  -5    0.46    1.96
   6   2   6   46.12    5.58
  -6  -2  -6   58.66    5.87
   6   2   7 1476.08   33.81
  -6  -2  -7 1346.45   35.52
   6   2   8   23.15    3.28
  -6  -2  -8   22.57    3.90
   6   2   9    6.39    1.94
  -6  -2  -9    1.55    2.24
   6   2  10    1.51    1.32
  -6  -2 -10    1.48    1.89
   6   2  11  442.04   13.05
  -6  -2 -11  426.72   15.72
  -6   2 -12   25.05    4.50
  -6  -2 -12   18.99    3.24
  -6  -2 -13  654.23   18.84
  -6  -2 -14    0.79    1.56
  -6   2 -15  108.74    6.06
  -6  -2 -15  102.37    5.34
  -6   2 -16   16.97    2.16
  -6  -2 -16   21.10    2.07
  -6   3  16  263.16    8.73
  -6   3  15  157.01    6.97
  -6   3  14   88.37    5.51
   6   3 -13    3.45    1.11
  -6   3  13    9.66    2.51
  -6   3  12   74.00    5.61
   6   3 -12   74.27    4.29
   6   3 -11    1.64    1.11
  -6   3  11    3.33    2.22
  -6   3  10   90.26    6.50
   6   3 -10   87.55    5.00
  -6  -3   9  384.38   12.68
  -6   3   9  379.57   14.26
   6   3  -9  360.34   11.59
  -6   3   8   94.75    6.90
  -6  -3   8   93.83    5.94
   6   3  -8   94.17    5.40
   6   3  -7   92.61    5.38
  -6  -3   7   86.58    5.85
  -6   3   7  100.69    7.10
   6   3  -6    1.73    1.20
  -6  -3   6    0.94    1.72
  -6   3   6    2.64    2.36
   6   3  -5  238.36    9.21
  -6  -3   5  228.07   10.14
  -6   3   5  230.57   11.10
   6   3  -4   61.03    4.44
  -6  -3   4   55.64    4.87
   6   3  -3  394.98   12.59
  -6  -3   3  373.09   13.80
   6   3  -2   20.83    3.03
   6   3  -1  573.10   17.36
   6   3   0   82.79    5.73
   6   3   1   80.17    5.49
   6   3   2  160.10    7.65
   6   3   3  719.16   18.83
   6   3   4   68.60    4.66
   6   3   5  381.01   13.32
   6   3   6    6.90    1.99
   6   3   7    3.19    1.50
   6   3   8  278.60    9.75
  -6   3  -9  426.16   15.29
   6   3   9  511.86   13.43
  -6   3 -10  334.25   12.23
   6   3  10  388.71   10.42
  -6   3 -11   66.31    4.38
   6   4  -6  232.31    7.41
   6   4  -5   54.48    3.30
   6   4  -4  209.96    7.03
   6   4  -3   24.45    2.21
   6   4  -2  589.05   13.50
   6   4  -2  537.77   14.39
   6   4  -1    4.20    1.30
   6   4  -1    6.51    1.25
   6   4   0  213.01    7.40
  -7   0  22    1.59    1.16
  -7   0  21  387.66   12.18
  -7   0  20    0.46    1.21
  -7   0  19   13.86    2.54
  -7   0  18    0.97    1.40
  -7   0  17  354.39   13.38
  -7   0  16    0.77    1.81
  -7   0  15  964.23   26.53
  -7   0  14    3.33    2.21
   7   0 -14    0.30    2.04
  -7   0  13  191.53   10.22
   7   0 -13  205.02   12.31
  -7   0  13  175.80    8.83
  -7   0  12   -0.42    1.97
  -7   0  12    0.34    1.59
  -7   0  12   -0.85    1.49
  -7   0  11  563.70   18.77
  -7   0  11  530.92   18.58
  -7   0  11  534.92   17.18
  -7   0  11  508.49   16.58
  -7   0  10    0.85    1.68
  -7   0  10   -0.17    1.63
  -7   0  10    1.05    1.71
  -7   0   9 2128.71   47.13
  -7   0   9 2081.21   45.63
  -7   0   9 2029.12   44.99
  -7   0   8    2.01    2.48
  -7   0   8    1.64    1.73
  -7   0   8    1.02    1.82
  -7   0   8   -0.18    1.56
  -7   0   7  400.83   15.07
  -7   0   7  399.73   15.22
  -7   0   7  400.94   14.65
  -7   0   7  381.25   13.90
  -7   0   6    2.01    2.34
  -7   0   6    0.97    1.81
  -7   0   6    0.37    1.77
  -7   0   5  724.42   22.09
  -7   0   5  737.93   21.64
  -7   0   5  689.93   21.41
  -7   0   5  749.90   23.39
   7   0  -4    1.22    1.44
  -7   0   4    4.94    2.15
  -7   0   4    0.56    1.70
  -7   0   4    2.77    1.72
   7   0  -3  273.05   11.78
  -7   0   3  288.38   12.88
  -7   0   3  291.58   12.23
  -7   0   3  305.92   13.52
   7   0  -2    0.37    1.05
  -7   0   2    4.49    2.01
   7   0  -2   -0.23    1.54
  -7   0   2    2.31    1.98
   7   0  -1  538.78   18.11
   7   0  -1  623.15   20.99
  -7   0   1  570.60   18.36
  -7   0   1  589.12   20.17
  -7   0   0    5.41    2.27
   7   0   0   -0.25    2.19
  -7   0   0    0.23    2.07
  -7   0  -1 2039.13   45.00
  -7   0  -1 2049.58   48.24
  -7   0  -1 2029.35   45.13
  -7   0  -1 2002.87   47.09
   7   0   1 2045.05   48.15
  -7   0  -2    0.57    1.59
   7   0   2   -0.26    1.91
  -7   0  -2   -1.01    2.47
  -7   0  -2    1.95    2.16
  -7   0  -2   -0.24    1.82
  -7   0  -3 1953.68   43.08
   7   0   3 1963.37   47.48
  -7   0  -3 1900.64   46.58
  -7   0  -3 1884.60   43.22
  -7   0  -3 1882.08   45.67
  -7   0  -4    0.96    1.57
  -7   0  -4    1.87    2.55
  -7   0  -4    2.23    1.98
   7   0   4    1.14    2.25
  -7   0  -4    3.09    2.33
  -7   0  -5  416.32   15.12
  -7   0  -5  434.18   18.10
   7   0   5  406.42   17.98
  -7   0  -5  429.06   15.90
  -7   0  -5  389.18   16.94
  -7   0  -6    0.55    2.43
   7   0   6    1.18    2.33
  -7   0  -6    1.05    1.95
  -7   0  -6   -0.27    2.03
   7   0   7   24.01    4.59
  -7   0  -7   18.45    4.30
  -7   0  -7   25.29    4.01
  -7   0  -7   22.66    4.25
  -7   0  -8    1.64    2.61
  -7   0  -8    1.04    1.78
  -7   0  -9 2791.40   62.89
  -7   0  -9 2835.58   59.02
  -7   0 -10    4.37    3.02
  -7   0 -10    0.39    1.91
  -7   0 -11    2.42    2.47
  -7   0 -11    0.72    1.66
  -7   0 -12    0.22    2.25
  -7   0 -12    0.33    1.56
  -7   0 -13  338.78   13.63
  -7   0 -13  318.86   11.54
  -7   0 -14    1.04    1.82
  -7   0 -15 1214.22   28.45
   7   0  16    2.19    1.13
  -7   0 -16    1.71    1.43
  -7   1  22  231.40    7.02
  -7  -1  21  302.91    8.70
  -7   1  21  304.44    9.42
  -7  -1  20   10.74    1.83
  -7   1  20    9.93    1.99
  -7   1  20    8.06    1.88
  -7   1  19  287.07   11.05
  -7   1  19  284.33   10.73
  -7   1  19  312.99   10.64
  -7   1  18   32.99    3.76
  -7   1  18   32.11    3.70
  -7   1  18   34.42    4.00
  -7   1  17  286.98   11.91
  -7   1  17  298.09   11.76
  -7   1  17  297.98   12.45
  -7   1  16 1677.83   37.97
  -7   1  16 1609.43   38.48
  -7   1  15  822.74   23.40
  -7   1  15  791.52   23.86
  -7   1  14  177.36    9.81
  -7   1  14  168.74    9.90
  -7   1  13  213.32   11.00
  -7  -1  13  219.43   11.05
  -7   1  13  207.62   11.13
  -7   1  12  108.79    7.92
  -7  -1  12  107.49    6.94
   7  -1 -12   93.58    7.75
   7   1 -12   95.52    7.72
  -7   1  12  113.30    7.93
  -7  -1  12  111.12    7.79
  -7   1  11  251.07   12.40
   7   1 -11  245.45   11.65
  -7  -1  11  256.34   11.04
   7   1 -11  240.60   12.55
  -7   1  11  249.00   12.22
  -7  -1  11  258.00   12.25
   7   1 -10 1014.46   27.62
  -7  -1  10 1016.75   26.01
  -7   1  10  950.31   27.84
  -7   1  10 1056.09   29.46
  -7   1  10 1011.25   28.39
  -7  -1  10 1051.89   28.61
   7   1  -9  401.20   15.42
  -7  -1   9  394.22   13.94
  -7   1   9  355.71   14.96
  -7   1   9  394.79   16.18
  -7   1   9  405.05   15.94
  -7  -1   9  411.05   15.91
   7   1  -8  379.72   15.16
  -7   1   8  397.30   15.69
  -7   1   8  410.69   16.54
  -7   1   8  410.26   16.09
  -7  -1   8  420.19   16.10
   7   1  -7 1483.80   36.09
  -7   1   7 1494.59   37.39
  -7   1   7 1387.61   35.65
  -7   1   7 1461.55   36.42
   7   1  -6  972.19   26.99
  -7   1   6 1003.88   28.52
  -7   1   6  913.90   26.57
  -7   1   6  999.53   27.64
   7   1  -5  226.03   11.19
  -7   1   5  235.15   12.22
  -7   1   5  231.45   11.33
  -7   1   5  237.04   11.92
   7   1  -4  244.27   11.67
  -7   1   4  247.44   12.60
  -7   1   4  245.83   11.73
  -7  -1   4  230.56   11.36
  -7   1   4  239.78   11.53
   7   1  -3  223.40   11.25
  -7   1   3  245.10   12.57
  -7   1   3  219.28   11.04
   7   1  -3  203.92   10.91
   7  -1  -3  223.51   11.28
  -7   1   3  235.91   11.95
  -7  -1   3  203.03   10.67
  -7   1   3  212.48   10.82
  -7   1   2  392.52   15.58
   7   1  -2  402.08   15.80
   7   1  -2  392.91   15.89
   7  -1  -2  384.54   15.62
  -7  -1   2  419.44   16.35
  -7  -1   2  370.94   14.93
  -7   1   2  379.33   14.99
  -7   1   1 1372.26   34.42
   7   1  -1 1280.25   33.92
   7   1  -1 1371.16   35.16
  -7  -1   1 1331.96   33.99
  -7   1   1 1304.65   33.78
   7  -1  -1 1343.02   34.89
   7   1   0    2.44    1.81
   7   1   0    2.83    2.05
   7  -1   0    6.05    2.68
  -7   1   0    2.55    2.05
  -7  -1   0    2.34    2.20
  -7  -1   0    2.37    1.98
  -7   1   0    2.36    2.17
   7   1   1  310.15   14.27
   7  -1   1  324.57   14.36
   7   1   1  282.36   13.30
  -7   1  -1  325.31   13.65
  -7  -1  -1  336.44   14.59
  -7  -1  -1  326.16   14.02
  -7   1  -1  320.32   13.75
   7   1   2   16.19    3.25
  -7   1  -2   16.61    3.34
   7   1   2   22.39    4.03
   7  -1   2   18.55    3.78
  -7  -1  -2   17.22    3.68
  -7  -1  -2   14.63    3.36
  -7   1  -2   19.13    3.61
  -7   1  -3   63.21    5.96
   7   1   3   65.18    6.56
   7  -1   3   69.34    6.69
  -7   1  -3   68.30    6.36
  -7  -1  -3   70.60    6.54
  -7  -1  -3   71.75    6.62
  -7  -1  -3   57.61    5.83
  -7   1  -3   63.86    6.01
  -7   1  -4  247.75   11.96
  -7   1  -4  253.28   12.54
  -7  -1  -4  245.29   12.54
   7   1   4  250.47   13.11
   7  -1   4  246.31   12.88
  -7  -1  -4  284.10   13.32
  -7  -1  -4  227.76   11.94
  -7   1  -4  238.35   12.01
  -7   1  -5  475.02   18.01
  -7  -1  -5  482.46   18.46
  -7  -1  -5  508.47   18.57
   7   1   5  439.15   18.27
   7  -1   5  449.47   18.21
  -7  -1  -5  439.30   17.29
  -7   1  -5  478.49   17.71
  -7   1  -6   10.47    3.16
  -7  -1  -6   21.35    4.05
  -7  -1  -6   15.79    3.49
  -7   1  -6   15.36    3.32
  -7   1  -7  376.31   15.97
  -7  -1  -7  358.00   15.83
  -7  -1  -7  403.20   16.30
  -7   1  -8   17.97    3.74
  -7  -1  -8   20.48    3.91
  -7  -1  -8   14.07    3.49
  -7   1  -9   48.18    5.37
  -7  -1  -9   52.23    5.65
  -7  -1  -9   49.93    5.50
  -7   1 -10 1058.20   29.44
  -7  -1 -10 1114.24   30.09
  -7  -1 -10 1149.14   30.13
  -7   1 -11  356.38   14.31
  -7  -1 -11  376.82   14.77
  -7   1 -12    0.17    1.65
  -7  -1 -12    1.78    1.93
  -7  -1 -12    2.00    1.92
  -7   1 -13   18.57    3.06
  -7  -1 -13   28.49    3.62
  -7  -1 -13   30.06    3.66
  -7   1 -14   17.71    2.64
  -7  -1 -14   15.80    2.54
  -7  -1 -14   18.74    2.76
   7  -1  15  135.08    5.49
   7   1  15  143.80    5.61
  -7   1 -15  124.45    5.68
  -7  -1 -15  124.61    5.72
  -7  -1 -16  419.96   10.81
  -7   2  19   60.63    3.96
  -7   2  18    4.14    1.83
  -7   2  17   94.03    5.82
  -7   2  16    3.35    1.58
  -7   2  16    0.74    1.74
  -7   2  15   41.06    4.17
  -7   2  15   32.84    3.99
  -7   2  14  204.99    9.89
  -7   2  14  214.14   10.24
  -7   2  13  104.26    7.22
  -7   2  13  112.58    7.50
  -7   2  12  104.04    7.37
  -7   2  12   95.51    7.12
  -7   2  12   90.09    7.03
  -7  -2  12   90.06    6.48
  -7   2  11   43.84    5.17
  -7   2  11   39.93    4.77
  -7   2  11   40.23    4.99
  -7  -2  11   39.44    4.63
  -7   2  10  420.87   17.69
  -7   2  10  453.88   17.28
  -7   2  10  475.54   17.30
  -7  -2  10  482.22   16.49
  -7   2   9   17.34    4.13
  -7   2   9   17.06    3.71
  -7  -2   9   17.50    3.55
  -7   2   8   85.65    7.92
  -7   2   8   81.51    6.44
  -7   2   8   82.03    6.95
  -7  -2   8   88.66    6.89
  -7   2   7   87.90    8.10
  -7   2   7   84.44    6.76
  -7   2   7   85.31    7.13
  -7  -2   7   88.18    6.95
   7   2  -6 1503.41   37.41
  -7   2   6 1501.08   37.00
   7   2  -5   42.76    4.90
  -7   2   5   50.17    6.28
  -7   2   5   42.54    4.99
   7   2  -4   37.06    4.63
  -7   2   4   37.28    5.31
  -7   2   4   39.87    4.92
  -7   2   4   43.24    5.59
   7   2  -3   13.36    2.99
  -7   2   3   10.39    3.17
  -7   2   3   11.67    3.48
   7   2  -2    5.61    2.14
  -7   2   2   13.66    3.44
  -7   2   2    6.94    3.18
   7   2  -1    8.87    2.56
  -7   2   1   11.86    3.20
  -7   2   1    8.82    3.24
  -7   2   0 2804.11   61.73
  -7  -2   0 2884.76   62.01
  -7  -2  -1    7.75    3.06
  -7  -2  -2   67.73    6.34
  -7   2  -3    1.66    1.87
  -7  -2  -3    2.03    2.37
  -7   2  -4 1069.00   31.36
  -7  -2  -4 1120.45   30.37
  -7  -2  -5   37.51    4.78
   7   2   6  695.65   19.01
  -7  -2  -6  640.74   21.20
   7   2   7   53.13    4.20
  -7  -2  -7   54.57    5.47
  -7   2  -8  371.27   16.56
   7   2   8  385.51   11.74
  -7  -2  -8  370.78   14.42
  -7   2  -9   46.51    5.58
  -7  -2  -9   53.67    5.07
  -7   2 -10  771.41   23.13
  -7  -2 -10  715.74   20.59
  -7   2 -11  159.17    8.62
  -7  -2 -11  161.40    7.83
  -7   2 -12    8.00    2.02
  -7  -2 -12    9.38    2.19
  -7   2 -13   52.97    3.90
  -7  -2 -13   56.08    3.75
  -7   3  14    5.05    1.56
  -7   3  13  158.22    6.91
  -7   3  12  205.94    8.43
  -7   3  11   89.34    5.64
  -7   3  10  777.43   20.69
  -7   3   9  577.83   17.30
  -7  -3   8    2.91    1.55
  -7  -3   7  272.96   10.01
  -7  -3   6  437.61   13.60
   7   3  -5   10.72    2.12
  -7  -3   5   11.25    2.28
   7   3  -4   74.94    4.91
  -7  -3   4   72.73    5.20
   7   3  -3   51.16    4.06
  -7  -3   3   48.06    4.36
   7   3  -2   17.08    2.44
  -7  -3   2   24.03    3.19
   7   3  -1  240.31    8.83
  -7  -3   1  240.09    9.92
   7   3   0   14.75    2.10
   7   3   1    4.25    1.37
   7   3   2   38.47    3.03
   7   3   3  178.37    7.86
   7   3   4  206.56    8.18
   7   3   5  116.89    5.65
   7   3   6   70.92    4.07
   7   3   7   71.90    3.74
  -8   0  21    2.28    0.95
  -8   0  20   49.00    3.45
  -8   0  19    6.33    1.74
  -8   0  18  835.06   21.32
  -8   0  17    3.29    1.67
  -8   0  16  249.49   10.84
  -8   0  15    2.23    1.89
  -8   0  14    1.37    1.85
  -8   0  13    8.13    2.57
  -8   0  12   75.14    6.20
  -8   0  11    1.46    1.97
  -8   0  11    0.62    1.63
  -8   0  10  255.03   11.89
  -8   0  10  222.08    9.86
  -8   0  10  229.71   10.69
  -8   0   9   10.63    3.06
  -8   0   9    5.19    2.27
  -8   0   8  293.31   12.83
  -8   0   8  318.54   13.34
  -8   0   8  281.18   11.48
  -8   0   7    6.88    2.58
  -8   0   7    1.25    1.89
  -8   0   7    4.40    2.09
  -8   0   6   16.95    3.72
  -8   0   6   20.54    3.60
  -8   0   6   18.47    3.19
  -8   0   5    4.51    2.43
  -8   0   5   -0.21    1.89
  -8   0   4 2405.15   53.30
  -8   0   4 2451.86   52.86
   8   0  -4 2460.01   55.66
  -8   0   4 2432.18   55.40
  -8   0   3   11.13    3.63
   8   0  -3    6.57    2.38
  -8   0   3    7.02    2.71
  -8   0   2 1249.38   32.97
   8   0  -2 1272.13   35.44
  -8   0   2 1227.01   34.16
   8   0  -1    8.37    3.11
  -8   0   1    0.42    1.77
  -8   0   1   -0.23    2.58
  -8   0   1    5.88    2.72
   8   0   0  256.53   13.61
  -8   0   0  255.14   11.88
  -8   0   0  226.87   12.49
  -8   0  -1    2.38    2.15
   8   0   1    1.14    2.36
  -8   0  -1    4.02    2.26
  -8   0  -1   -1.05    2.35
  -8   0  -2 3613.01   70.81
  -8   0  -2 3425.94   70.15
  -8   0  -2 3524.15   74.26
  -8   0  -3    0.38    1.65
  -8   0  -3    0.19    1.74
  -8   0  -4    3.96    2.10
  -8   0  -5    0.52    2.52
  -8   0  -5    1.29    1.81
  -8   0  -6    1.77    2.32
  -8   0  -6    5.01    2.15
  -8   0  -7   19.18    4.04
  -8   0  -7    1.02    1.78
  -8   0  -8 2316.03   51.61
  -8   0  -8 2256.94   47.30
  -8   0  -9    1.28    2.24
  -8   0 -10  572.66   18.61
  -8   0 -11   -0.51    1.81
  -8   0 -12  139.07    7.33
  -8   1  20  139.45    5.42
  -8   1  18  505.07   13.49
  -8  -1  17  526.90   14.09
  -8   1  17  596.51   15.60
  -8  -1  16   40.78    3.49
  -8   1  16   41.02    4.00
  -8  -1  15  354.87   11.68
  -8   1  15  379.64   13.12
  -8  -1  14 1204.60   27.50
  -8   1  14 1166.40   29.94
  -8   1  14 1220.37   29.59
  -8  -1  13  116.78    6.50
  -8   1  13  112.50    7.60
  -8   1  13  130.85    7.88
  -8  -1  12  287.01   10.85
  -8   1  12  297.40   12.86
  -8   1  12  287.80   12.47
  -8  -1  12  277.85   12.08
  -8   1  11   27.81    4.14
  -8   1  11   28.92    4.34
  -8  -1  11   17.27    3.49
  -8   1  10    2.16    2.21
  -8  -1  10    4.52    2.56
  -8   1  10    3.65    2.61
  -8   1   9 1141.67   31.24
  -8   1   9 1077.39   30.13
  -8   1   9 1179.20   31.09
  -8  -1   9 1177.20   30.68
  -8   1   8 1267.97   33.70
  -8   1   8 1202.43   32.31
  -8   1   8 1244.40   33.21
  -8  -1   8 1316.35   33.12
  -8   1   7  159.61    9.98
  -8   1   7  155.86    9.51
  -8   1   7  178.12   10.44
  -8  -1   7  163.70    9.70
  -8   1   6  116.60    8.62
  -8   1   6  109.51    7.94
  -8   1   6  117.03    8.66
   8   1  -5  314.71   13.54
  -8   1   5  317.41   14.61
  -8   1   5  294.56   13.47
   8   1  -4  124.67    8.29
  -8   1   4  138.94    9.20
  -8   1   4  142.71    9.69
   8   1  -3  109.56    7.78
  -8   1   3  115.47    8.28
  -8  -1   3   95.82    7.51
  -8   1   3  113.38    8.03
   8   1  -2  236.61   11.85
  -8   1   2  256.56   12.35
  -8   1   2  271.08   13.44
  -8  -1   2  243.08   12.18
  -8   1   2  237.01   11.95
  -8   1   1    3.79    2.25
  -8   1   1    7.92    3.30
  -8   1   1    4.78    2.22
  -8   1   0  169.50    9.83
  -8  -1   0  189.20   10.78
  -8   1  -1  859.72   25.67
  -8  -1  -1  938.64   27.30
  -8   1  -2   30.25    4.43
  -8  -1  -2   28.27    4.58
  -8   1  -3   94.81    7.10
  -8  -1  -3   87.58    7.23
  -8  -1  -4  145.76    9.26
  -8  -1  -5   36.25    4.87
  -8  -1  -6  347.74   14.43
  -8  -1  -7   97.25    7.17
  -8  -1  -8  205.88   10.19
  -8  -1  -9   23.14    3.56
  -8  -1 -10   88.71    5.96
  -8  -1 -11   33.79    3.48
  -8  -1 -12  486.51   13.56
  -8  -1 -13   65.89    3.62
  -8   2  17   17.13    2.23
  -8   2  16   22.06    2.80
  -8   2  15  498.78   14.67
  -8   2  14    4.39    1.73
  -8   2  14    5.54    2.23
  -8   2  13  327.83   11.81
  -8   2  13  307.71   12.04
  -8   2  12    5.39    2.12
  -8  -2  12    3.14    1.86
  -8   2  12    4.48    2.45
  -8   2  11    0.69    1.58
  -8  -2  11    0.76    1.67
  -8   2  11    1.94    2.34
  -8   2  10    0.39    1.68
  -8  -2  10    0.81    1.74
  -8   2  10    2.61    2.65
  -8   2   9  342.98   14.30
  -8  -2   9  346.46   13.02
  -8   2   9  330.64   13.63
  -8   2   8   72.91    6.61
  -8  -2   8   79.00    6.31
  -8   2   8   79.16    6.72
  -8   2   7  962.25   25.86
  -8   2   7  991.30   28.50
  -8  -2   7  998.19   26.25
  -8   2   7  983.20   27.37
  -8   2   6  112.93    8.36
  -8   2   6  101.13    6.99
  -8  -2   6   89.29    6.75
  -8   2   5  105.42    8.19
  -8   2   5  100.40    7.01
  -8  -2   5  104.51    7.21
  -8   2   4    4.46    2.35
  -8   2   4    8.13    2.91
  -8   2   3  131.28    8.94
  -8   2   3  113.63    7.65
  -8   2   2   81.16    6.47
  -8   2   2   88.09    7.30
  -8   2   1  236.70   11.26
  -8   2   0  155.12    9.20
  -8   2  -1 1558.35   37.18
  -8   2  -2   37.03    4.73
  -8   2  -3  445.35   15.93
  -8   2  -4   71.61    5.94
   8   2   4   64.06    4.38
  -8   2  -5   80.05    6.15
  -8  -2  -5   87.67    6.28
  -8   2  -6   32.02    4.04
  -8  -2  -6   31.75    3.87
  -8   2  -7 1025.53   25.42
  -8  -2  -7 1046.78   25.69
  -8   2  -8    3.98    1.95
  -8  -2  -8    0.92    1.54
  -8   2  -9  213.23    8.32
  -8  -2  -9  240.11    8.81
  -8   2 -10    7.45    1.65
  -8  -3   7   35.41    2.83
  -8  -3   6  188.49    6.95
  -8  -3   5  380.25   10.93
  -8  -3   4    5.69    1.53
  -8  -3   3  261.13    8.75
  -8  -3   2  124.88    5.74
  -8  -3   1   23.57    2.52
  -8  -3   0   74.84    4.28
   8   3   1  570.67   13.99
  -8  -3  -1  523.86   13.62
   8   3   2   37.62    2.69
  -8  -3  -2   30.51    2.67
  -9   0  18    1.14    0.98
  -9   0  17 1519.12   31.06
  -9   0  16    5.54    1.65
  -9   0  15    6.29    1.91
  -9   0  14    1.13    1.51
  -9   0  13  596.26   17.51
  -9   0  12    1.46    1.71
  -9   0  11  718.21   20.56
  -9   0  10    0.70    1.50
  -9   0   9    9.38    2.62
  -9   0   8    5.52    2.14
  -9   0   7  191.88    9.50
  -9   0   7  175.18    7.97
  -9   0   6    2.20    1.99
  -9   0   6    0.96    1.37
  -9   0   5  226.75   10.59
  -9   0   5  206.31    8.92
  -9   0   4    1.01    1.67
  -9   0   4    2.47    1.72
  -9   0   4    2.15    1.24
  -9   0   3    8.99    2.66
  -9   0   3   14.02    2.88
  -9   0   3   11.41    2.28
  -9   0   2    2.52    2.08
  -9   0   2    0.75    1.51
  -9   0   1   20.29    3.39
  -9   0   1   24.25    3.94
  -9   0   0   -0.19    2.13
  -9   0   0    2.14    1.76
  -9   0  -1  375.35   13.43
  -9   0  -1  340.53   13.58
  -9   0  -2    1.49    2.15
  -9   0  -3  755.41   21.59
  -9   0  -4    6.34    2.54
  -9   0  -5   83.74    5.93
  -9   0  -6    2.04    1.82
  -9   0  -7    0.64    1.50
  -9   0  -8    2.24    1.52
  -9   0  -9 1596.60   31.41
  -9   1  17   24.67    2.40
  -9   1  16  431.39   11.77
  -9   1  16  457.23   12.77
  -9   1  15  371.75   11.37
  -9   1  15  345.07   11.47
  -9   1  14  110.78    6.15
  -9   1  14  107.27    6.13
  -9   1  13  192.77    8.81
  -9   1  12  279.18   11.18
  -9   1  11   23.25    3.60
  -9  -1  11   25.90    3.49
  -9   1  10  412.18   15.10
  -9   1  10  400.56   14.64
  -9  -1  10  412.47   14.07
  -9   1   9  169.71    9.12
  -9  -1   9  186.41    9.05
  -9   1   8  282.62   12.56
  -9  -1   8  288.03   11.88
  -9   1   7 1589.84   38.33
  -9   1   7 1584.56   38.18
  -9  -1   7 1664.50   37.44
  -9   1   6 1073.08   29.07
  -9   1   6 1094.17   29.29
  -9  -1   6 1138.79   28.65
  -9   1   5    6.29    2.90
  -9   1   5    0.61    1.99
  -9  -1   5    6.62    2.54
  -9   1   4   19.70    3.89
  -9   1   4   16.64    3.31
  -9   1   3  203.42   10.38
  -9   1   3  203.39   10.70
  -9   1   2  175.00    9.62
  -9   1   2  192.40   10.53
  -9   1   1 1349.26   33.23
  -9   1   1 1332.34   33.97
  -9   1   0  531.43   17.67
  -9   1   0  526.67   18.37
  -9   1  -1   61.93    6.04
  -9   1  -2  527.55   17.98
  -9   1  -3  611.90   19.54
  -9   1  -4    3.50    2.50
  -9   1  -5  194.75    9.40
  -9   1  -6   26.01    3.55
  -9   1  -7    4.88    2.15
  -9   1  -8  292.89   10.22
  -9   1  -9  192.27    7.27
  -9   2  10    4.45    1.57
  -9  -2  10    4.82    1.72
  -9   2   9   47.06    4.07
  -9  -2   9   41.70    3.71
  -9   2   8  282.18   10.96
  -9  -2   8  276.34   10.23
  -9   2   7   42.03    4.25
  -9  -2   7   41.87    3.91
  -9   2   6  153.65    8.21
  -9  -2   6  150.60    7.47
  -9   2   5    4.41    1.83
  -9   2   5    2.56    1.90
  -9  -2   5    2.70    1.77
  -9   2   4   27.78    3.37
  -9  -2   4   27.21    3.36
  -9   2   3   27.92    3.41
  -9  -2   3   27.40    3.37
  -9   2   2  217.67    9.37
  -9  -2   2  223.98    9.45
  -9   2   1    2.15    1.96
  -9   2   0  686.88   18.71
  -9   2  -1   11.79    2.64
  -9   2  -2    9.52    2.28
  -9   2  -3    3.00    1.74
  -9   2  -4  565.81   15.11
  -9   2  -5   28.85    2.80
  -9   2  -6  188.72    6.58
 -10   0  14  547.62   14.04
 -10   0  13    2.86    1.29
 -10   0  12    4.82    1.54
 -10   0  11    3.31    1.93
 -10   0  10  774.81   20.09
 -10   0   9    3.78    2.28
 -10   0   8   73.38    5.17
 -10   0   7   -0.58    1.41
 -10   0   6  633.86   17.78
 -10   0   5    1.27    1.84
 -10   0   4  284.61   10.60
 -10   0   3    8.22    2.12
 -10   0   3    4.53    2.05
 -10   0   2   79.73    4.97
 -10   0   2   86.49    5.26
 -10   0   1    1.23    1.57
 -10   0   0  486.38   13.47
 -10   0  -1    5.28    1.71
 -10   0  -2  350.38   10.18
 -10   1  13   53.06    3.25
 -10   1  12   28.45    2.65
 -10  -1  11   39.35    2.92
 -10   1  11   47.16    3.59
 -10  -1  10   40.42    3.04
 -10  -1   9  131.09    5.52
 -10   1   8  598.07   16.64
 -10  -1   8  578.82   15.16
 -10   1   7  225.23    9.25
 -10  -1   7  214.16    8.17
 -10   1   6   85.11    5.58
 -10  -1   6   95.12    5.23
 -10   1   5  672.14   18.40
 -10   1   5  675.05   18.67
 -10  -1   5  679.16   17.38
 -10   1   4  197.12    8.67
 -10   1   4  191.55    8.66
 -10  -1   4  211.55    8.25
 -10   1   3   85.51    5.54
 -10   1   3   83.79    5.51
 -10  -1   3   85.91    5.05
 -10   1   2  121.41    6.63
 -10  -1   2  129.31    6.24
 -10   1   1  133.16    6.77
 -10  -1   1  123.22    6.05
 -10   1   0  411.68   13.04
 -10  -1   0  443.35   12.44
 -10   1  -1  806.65   20.12
 -10  -1  -1  835.37   19.12
 -10   1  -2  209.11    8.07
 -10   1  -3   15.27    2.29
 -10   1  -4  109.75    5.00
   0   0   0    0.00    0.00



TITL hy312 in P2(1)/n
REM P2(1)/n (#14 in standard setting)
CELL 1.54184   8.754586   3.910572  21.048668  90.0000 100.9568  90.0000
ZERR    3.00   0.000329   0.000140   0.000702   0.0000   0.0035   0.0000
LATT  1
SYMM -x+1/2, y+1/2,-z+1/2
SFAC C H N O
UNIT 33.00 30.00 3.00 3.00
TREF
HKLF 4
END
_computing_structure_solution     'SHELXT 2018/2 (Sheldrick, 2018)'
_computing_structure_solution     'SHELXT 2018/2 (Sheldrick, 2018)'
;
_shelx_hkl_checksum              90237
_olex2_submission_special_instructions 'No special instructions were received'
_oxdiff_exptl_absorpt_empirical_details
;
Empirical correction (ABSPACK) includes:
- Absorption correction using spherical harmonics
- Frame scaling
;
_oxdiff_exptl_absorpt_empirical_full_max 2.153
_oxdiff_exptl_absorpt_empirical_full_min 0.633
loop_
_space_group_symop_operation_xyz
'x, y, z'
'-x+1/2, y+1/2, -z+1/2'
'-x, -y, -z'
'x-1/2, -y-1/2, z-1/2'
loop_
_atom_site_label
_atom_site_type_symbol
_atom_site_fract_x
_atom_site_fract_y
_atom_site_fract_z
_atom_site_U_iso_or_equiv
_atom_site_adp_type
_atom_site_occupancy
_atom_site_site_symmetry_order
_atom_site_calc_flag
_atom_site_refinement_flags_posn
_atom_site_refinement_flags_adp
_atom_site_refinement_flags_occupancy
_atom_site_disorder_assembly
_atom_site_disorder_group
Br1 Br 0.16867(5) 1.11684(12) 0.32338(2) 0.01311(17) Uani 1 1 d . . . . .
Br2 Br 0.75118(6) 0.16087(14) 0.51887(2) 0.01748(17) Uani 1 1 d . . . . .
Cu1 Cu 0.31826(8) 0.6275(2) 0.29599(4) 0.0178(2) Uani 1 1 d . . . . .
N1 N 0.5395(4) 0.5528(12) 0.34313(19) 0.0152(8) Uani 1 1 d . . . . .
C1 C 0.5688(6) 0.4072(13) 0.4019(2) 0.0155(10) Uani 1 1 d . . . . .
H1 H 0.484167 0.340795 0.421427 0.019 Uiso 1 1 calc R U . . .
C3 C 0.8447(5) 0.4408(14) 0.4067(2) 0.0167(10) Uani 1 1 d . . . . .
H3 H 0.948451 0.399301 0.428447 0.020 Uiso 1 1 calc R U . . .
C2 C 0.7187(6) 0.3515(12) 0.4346(2) 0.0148(10) Uani 1 1 d . . . . .
C4 C 0.8140(6) 0.5922(14) 0.3462(2) 0.0188(10) Uani 1 1 d . . . . .
H4 H 0.896952 0.659492 0.325718 0.023 Uiso 1 1 calc R U . . .
C5 C 0.6610(6) 0.6445(13) 0.3159(2) 0.0154(10) Uani 1 1 d . . . . .
H5 H 0.640904 0.748862 0.274386 0.018 Uiso 1 1 calc R U . . .
loop_
_atom_site_aniso_label
_atom_site_aniso_U_11
_atom_site_aniso_U_22
_atom_site_aniso_U_33
_atom_site_aniso_U_23
_atom_site_aniso_U_13
_atom_site_aniso_U_12
Br1 0.0121(3) 0.0163(3) 0.0113(3) 0.00050(17) 0.00325(18) -0.00016(17)
Br2 0.0185(3) 0.0207(3) 0.0120(3) 0.00160(19) -0.00022(19) 0.00017(19)
Cu1 0.0121(4) 0.0239(4) 0.0171(4) 0.0026(3) 0.0020(3) 0.0017(3)
N1 0.0086(18) 0.022(2) 0.0144(19) -0.0017(17) 0.0009(15) -0.0001(16)
C1 0.013(2) 0.023(3) 0.012(2) 0.0008(19) 0.0058(17) -0.0010(19)
C3 0.009(2) 0.022(3) 0.018(2) -0.001(2) 0.0008(17) 0.0014(19)
C2 0.019(2) 0.012(2) 0.012(2) 0.0028(18) 0.0006(18) -0.0013(18)
C4 0.011(2) 0.029(3) 0.017(2) -0.002(2) 0.0055(18) -0.003(2)
C5 0.013(2) 0.022(3) 0.011(2) -0.0019(18) 0.0033(18) -0.0013(18)
loop_
_atom_type_symbol
_atom_type_description
_atom_type_scat_dispersion_real
_atom_type_scat_dispersion_imag
_atom_type_scat_source
C C 0.0181 0.0091 'International Tables Vol C Tables 4.2.6.8 and 6.1.1.4'
H H 0.0000 0.0000 'International Tables Vol C Tables 4.2.6.8 and 6.1.1.4'
Br Br -0.6763 1.2805 'International Tables Vol C Tables 4.2.6.8 and 6.1.1.4'
Cu Cu -1.9646 0.5888 'International Tables Vol C Tables 4.2.6.8 and 6.1.1.4'
N N 0.0311 0.0180 'International Tables Vol C Tables 4.2.6.8 and 6.1.1.4'
loop_
_geom_angle_atom_site_label_1
_geom_angle_atom_site_label_2
_geom_angle_atom_site_label_3
_geom_angle
_geom_angle_site_symmetry_1
_geom_angle_site_symmetry_3
_geom_angle_publ_flag
Cu1 Br1 Cu1 103.97(3) . 1_565 ?
Cu1 Br1 Cu1 69.69(3) . 2 ?
Cu1 Br1 Cu1 68.67(2) 1_565 2 ?
Br1 Cu1 Br1 103.97(3) . 1_545 ?
Br1 Cu1 Br1 111.89(3) . 2_545 ?
Br1 Cu1 Br1 109.72(3) 1_545 2_545 ?
Br1 Cu1 Cu1 56.614(19) . 2 ?
Br1 Cu1 Cu1 53.70(3) 2_545 2_545 ?
Br1 Cu1 Cu1 56.034(18) 1_545 2_545 ?
Br1 Cu1 Cu1 122.09(4) 1_545 2 ?
Br1 Cu1 Cu1 121.47(4) . 2_545 ?
Br1 Cu1 Cu1 55.29(3) 2_545 2 ?
Cu1 Cu1 Cu1 86.66(4) 2 2_545 ?
N1 Cu1 Br1 105.35(13) . 1_545 ?
N1 Cu1 Br1 120.17(13) . . ?
N1 Cu1 Br1 105.32(12) . 2_545 ?
N1 Cu1 Cu1 118.23(13) . 2_545 ?
N1 Cu1 Cu1 132.17(13) . 2 ?
C1 N1 Cu1 120.8(3) . . ?
C1 N1 C5 118.5(4) . . ?
C5 N1 Cu1 120.8(3) . . ?
N1 C1 H1 119.2 . . ?
N1 C1 C2 121.7(4) . . ?
C2 C1 H1 119.2 . . ?
C2 C3 H3 121.1 . . ?
C4 C3 H3 121.1 . . ?
C4 C3 C2 117.7(4) . . ?
C1 C2 Br2 119.3(4) . . ?
C1 C2 C3 120.4(4) . . ?
C3 C2 Br2 120.3(4) . . ?
C3 C4 H4 120.3 . . ?
C3 C4 C5 119.3(4) . . ?
C5 C4 H4 120.3 . . ?
N1 C5 C4 122.4(5) . . ?
N1 C5 H5 118.8 . . ?
C4 C5 H5 118.8 . . ?
loop_
_geom_bond_atom_site_label_1
_geom_bond_atom_site_label_2
_geom_bond_distance
_geom_bond_site_symmetry_2
_geom_bond_publ_flag
Br1 Cu1 2.4487(9) . ?
Br1 Cu1 2.5370(9) 2 ?
Br1 Cu1 2.5146(9) 1_565 ?
Br2 C2 1.895(5) . ?
Cu1 Cu1 2.8495(11) 2_545 ?
Cu1 Cu1 2.8495(11) 2 ?
Cu1 N1 2.023(4) . ?
N1 C1 1.341(6) . ?
N1 C5 1.349(6) . ?
C1 H1 0.9500 . ?
C1 C2 1.379(7) . ?
C3 H3 0.9500 . ?
C3 C2 1.389(7) . ?
C3 C4 1.383(7) . ?
C4 H4 0.9500 . ?
C4 C5 1.385(7) . ?
C5 H5 0.9500 . ?
loop_
_geom_torsion_atom_site_label_1
_geom_torsion_atom_site_label_2
_geom_torsion_atom_site_label_3
_geom_torsion_atom_site_label_4
_geom_torsion
_geom_torsion_site_symmetry_1
_geom_torsion_site_symmetry_2
_geom_torsion_site_symmetry_3
_geom_torsion_site_symmetry_4
_geom_torsion_publ_flag
Cu1 N1 C1 C2 179.5(4) . . . . ?
Cu1 N1 C5 C4 -178.9(4) . . . . ?
N1 C1 C2 Br2 177.5(4) . . . . ?
N1 C1 C2 C3 -1.1(8) . . . . ?
C1 N1 C5 C4 0.3(8) . . . . ?
C3 C4 C5 N1 -0.1(8) . . . . ?
C2 C3 C4 C5 -0.7(8) . . . . ?
C4 C3 C2 Br2 -177.3(4) . . . . ?
C4 C3 C2 C1 1.3(8) . . . . ?
C5 N1 C1 C2 0.2(8) . . . . ?
