#------------------------------------------------------------------------------
#$Date: 2021-07-05 20:34:25 +0300 (Mon, 05 Jul 2021) $
#$Revision: 267160 $
#$URL: file:///home/coder/svn-repositories/cod/cif/7/70/72/7707231.cif $
#------------------------------------------------------------------------------
#
# This file is available in the Crystallography Open Database (COD),
# http://www.crystallography.net/
#
# All data on this site have been placed in the public domain by the
# contributors.
#
data_7707231
loop_
_publ_author_name
'Chen, Xiao-Hui'
'Guo, Run-Ze'
'Huang, Ya-Xi'
'Pan, Yuanming'
'Mi, Jin-Xiao'
_publ_section_title
;
 Crystal structure and magnetic properties of the magnetically isolated
 zigzag chain in KGaCu(PO<sub>4</sub>)<sub>2</sub>.
;
_journal_issue                   22
_journal_name_full
'Dalton transactions (Cambridge, England : 2003)'
_journal_page_first              7835
_journal_page_last               7842
_journal_paper_doi               10.1039/d1dt00819f
_journal_volume                  50
_journal_year                    2021
_chemical_compound_source        Synthetic
_chemical_formula_sum            'Cu Ga K O8 P2'
_chemical_formula_weight         362.30
_chemical_name_systematic        KGaCu(PO4)2
_space_group_crystal_system      monoclinic
_space_group_IT_number           14
_space_group_name_Hall           '-P 2ybc'
_space_group_name_H-M_alt        'P 1 21/c 1'
_audit_creation_method           SHELXL-2013
_audit_update_record
;
2021-03-07 deposited with the CCDC.	2021-04-27 downloaded from the CCDC.
;
_cell_angle_alpha                90
_cell_angle_beta                 101.906(8)
_cell_angle_gamma                90
_cell_formula_units_Z            4
_cell_length_a                   4.977(3)
_cell_length_b                   14.025(8)
_cell_length_c                   9.376(5)
_cell_measurement_reflns_used    3895
_cell_measurement_temperature    203(2)
_cell_measurement_theta_max      28.872
_cell_measurement_theta_min      2.653
_cell_volume                     640.4(6)
_computing_cell_refinement       'SAINT (Bruker, 2001)'
_computing_data_collection       'SMART (Bruker, 2001)'
_computing_data_reduction        'SAINT (Bruker, 2001)'
_computing_molecular_graphics
'DIAMOND (Brandenburg, 2011) and ATOMS (Dowty, 2004)'
_computing_publication_material  'SHELXL-2013 (Sheldrick, 2015)'
_computing_structure_refinement  'SHELXL-2013 (Sheldrick, 2015)'
_computing_structure_solution    'SHELXS-2013 (Sheldrick, 2015)'
_diffrn_ambient_temperature      203(2)
_diffrn_measured_fraction_theta_full 0.998
_diffrn_measured_fraction_theta_max 0.910
_diffrn_measurement_device_type  'Bruker Diffraction CCD area-detector'
_diffrn_measurement_method
'1265 images,\f=0, 90, 180 degree, and \D\w=0.3 degree, \c= 54.74 degree'
_diffrn_radiation_type           MoK\a
_diffrn_radiation_wavelength     0.71073
_diffrn_reflns_av_R_equivalents  0.0424
_diffrn_reflns_av_unetI/netI     0.0572
_diffrn_reflns_Laue_measured_fraction_full 0.998
_diffrn_reflns_Laue_measured_fraction_max 0.910
_diffrn_reflns_limit_h_max       6
_diffrn_reflns_limit_h_min       -6
_diffrn_reflns_limit_k_max       18
_diffrn_reflns_limit_k_min       -18
_diffrn_reflns_limit_l_max       7
_diffrn_reflns_limit_l_min       -12
_diffrn_reflns_number            3895
_diffrn_reflns_point_group_measured_fraction_full 0.998
_diffrn_reflns_point_group_measured_fraction_max 0.910
_diffrn_reflns_theta_full        25.242
_diffrn_reflns_theta_max         28.872
_diffrn_reflns_theta_min         2.653
_diffrn_standards_number         0
_exptl_absorpt_coefficient_mu    8.689
_exptl_absorpt_correction_T_max  0.879
_exptl_absorpt_correction_T_min  0.756
_exptl_absorpt_correction_type   multi-scan
_exptl_absorpt_process_details   'SMART (Bruker, 2001)'
_exptl_crystal_colour            'light blue'
_exptl_crystal_density_diffrn    3.758
_exptl_crystal_description       prism
_exptl_crystal_F_000             692
_exptl_crystal_size_max          0.500
_exptl_crystal_size_mid          0.300
_exptl_crystal_size_min          0.300
_refine_diff_density_max         1.433
_refine_diff_density_min         -1.761
_refine_diff_density_rms         0.299
_refine_ls_extinction_method     none
_refine_ls_goodness_of_fit_ref   1.179
_refine_ls_hydrogen_treatment    undef
_refine_ls_matrix_type           full
_refine_ls_number_parameters     118
_refine_ls_number_reflns         1536
_refine_ls_number_restraints     6
_refine_ls_restrained_S_all      1.178
_refine_ls_R_factor_all          0.0691
_refine_ls_R_factor_gt           0.0580
_refine_ls_shift/su_max          0.000
_refine_ls_shift/su_mean         0.000
_refine_ls_structure_factor_coef Fsqd
_refine_ls_weighting_details
;
 w=1/[\s^2^(Fo^2^)+(0.0261P)^2^+14.5723P]
 where P=(Fo^2^+2Fc^2^)/3
;
_refine_ls_weighting_scheme      calc
_refine_ls_wR_factor_gt          0.1211
_refine_ls_wR_factor_ref         0.1280
_reflns_Friedel_coverage         0.000
_reflns_number_gt                1355
_reflns_number_total             1536
_reflns_threshold_expression     'I > 2\s(I)'
_cod_data_source_file            d1dt00819f2.cif
_cod_data_source_block           kgacup
_cod_depositor_comments          'Adding full bibliography for 7707231.cif.'
_cod_original_sg_symbol_H-M      'P 21/c'
_cod_database_code               7707231
_shelx_space_group_comment
;
The symmetry employed for this shelxl refinement is uniquely defined
by the following loop, which should always be used as a source of
symmetry information in preference to the above space-group names.
They are only intended as comments.
;
_shelx_estimated_absorpt_t_min   0.098
_shelx_estimated_absorpt_t_max   0.180
_shelxl_version_number           2013-2
_shelx_res_file
;
TITL 0521C18lan01 in P2(1)/c,  'Cu Ga K O8 P2'
CELL 0.71073   4.9766  14.0251   9.3762  90.000 101.906  90.000
ZERR    4.00   0.0028   0.0079   0.0053   0.000   0.008   0.000
LATT  1
SYMM -X, 0.5+Y, 0.5-Z
SFAC  O   P  K  CU  GA
UNIT  32  8  4  4   4
TEMP 0.000
L.S. 14
BOND
FMAP 2
PLAN 20
TEMP -70
SIZE 0.5 0.3 0.3
ACTA
ISOR 0.005 O6

WGHT    0.026100   14.572300
FVAR       0.11385
GA1   5    0.251351    0.629022    0.386675    11.00000    0.00519    0.00384 =
         0.00541   -0.00052    0.00080    0.00047
CU1   4    0.242851    0.454523    0.958730    11.00000    0.01472    0.00860 =
         0.01825    0.00222    0.01032    0.00162
P1    2    0.258762    0.673507    0.041750    11.00000    0.00952    0.00365 =
         0.00585    0.00088    0.00230   -0.00156
P2    2    0.282887    0.491631    0.671664    11.00000    0.00165    0.00535 =
         0.00653    0.00074    0.00084    0.00171
K     3    0.189148    0.172148    0.802025    11.00000    0.01815    0.01694 =
         0.02079    0.00137   -0.00450    0.00220
O1    1    0.229778    0.690300    0.197336    11.00000    0.01314    0.00379 =
         0.00560    0.00323    0.00325    0.00174
O2    1    0.442711    0.334124    0.972853    11.00000    0.01061    0.00765 =
         0.01781   -0.00120    0.00261    0.00236
O3    1    0.124031    0.742480    0.449118    11.00000    0.00367    0.00762 =
         0.01493   -0.00349   -0.00196    0.00118
O4    1    0.088452    0.585435    0.977622    11.00000    0.01184    0.00608 =
         0.00945   -0.00074    0.00284   -0.00370
O5    1    0.273651    0.584774    0.589818    11.00000    0.01340    0.00758 =
         0.01314    0.00314    0.00485    0.00287
O6    1    0.457302    0.503299    0.824095    11.00000    0.00631    0.01248 =
         0.00360    0.00081    0.00303    0.00211
O7    1    0.615700    0.592519    0.407580    11.00000    0.00671    0.00678 =
         0.01246   -0.00096    0.00341    0.00061
O8    1    0.009077    0.533193    0.308560    11.00000    0.00459    0.00953 =
         0.01456   -0.00503    0.00485    0.00112
HKLF 4

REM  0521C18lan01 in P2(1)/c,  'Cu Ga K O8 P2'
REM R1 =  0.0580 for    1355 Fo > 4sig(Fo)  and  0.0691 for all    1536 data
REM    118 parameters refined using      6 restraints

END

WGHT      0.0054     16.4318

REM Highest difference peak  1.433,  deepest hole -1.761,  1-sigma level  0.299
Q1    1   0.3653  0.4721  1.0361  11.00000  0.05    1.43
Q2    1   0.2014  0.6585  0.2540  11.00000  0.05    1.12
Q3    1   0.3751  0.4232  0.9243  11.00000  0.05    1.05
Q4    1   0.0791  0.4884  0.8661  11.00000  0.05    0.95
Q5    1   0.4879  0.6088  0.4150  11.00000  0.05    0.94
Q6    1   0.1370  0.7000 -0.0020  11.00000  0.05    0.92
Q7    1   0.1302  0.4127  0.8482  11.00000  0.05    0.91
Q8    1  -0.0192  0.5447  1.0045  11.00000  0.05    0.91
Q9    1   0.1103  0.6895  0.1610  11.00000  0.05    0.90
Q10   1   0.3202  0.6444  0.4205  11.00000  0.05    0.89
Q11   1   0.3668  0.3010  1.0014  11.00000  0.05    0.89
Q12   1  -0.1088  0.5636  0.2612  11.00000  0.05    0.87
Q13   1   0.1521  0.5163  1.0244  11.00000  0.05    0.87
Q14   1   0.6054  0.5489  0.4356  11.00000  0.05    0.86
Q15   1   0.5083  0.6212  0.6061  11.00000  0.05    0.84
Q16   1   0.2473  0.7301  0.5908  11.00000  0.05    0.84
Q17   1   0.0385  0.5670  0.2183  11.00000  0.05    0.83
Q18   1   0.4636  0.1988  0.7969  11.00000  0.05    0.83
Q19   1   0.0536  0.6446  0.9601  11.00000  0.05    0.82
Q20   1   0.2670  0.6494  0.3320  11.00000  0.05    0.82
;
_shelx_res_checksum              42398
_shelx_hkl_file
;
   1   0   0    1.12    0.32
  -1   0   0    0.61    0.62
   2   0   0 1000.00   10.50
  -2   0   0  969.43   12.04
   3   0   0    5.84    1.14
  -3   0   0    6.19    1.71
   4   0   0  398.54    9.73
  -5   0   0    0.20    0.73
   5   0   0    1.42    0.52
   0  -1   0    0.15    0.07
   0  -1   0    0.13    0.08
   0   1   0    0.17    0.09
   1  -1   0  130.88    2.04
   1  -1   0  129.37    2.87
  -1  -1   0  134.73    3.62
  -1   1   0  127.40    2.87
   2  -1   0    8.03    0.64
   2  -1   0    8.49    0.96
  -2  -1   0    8.42    1.60
   2   1   0    7.97    0.80
  -2   1   0    9.01    1.18
  -3  -1   0   69.88    4.28
   3  -1   0   71.24    2.58
   3  -1   0   69.42    3.53
   3   1   0   71.96    3.28
  -3   1   0   74.21    4.08
   4  -1   0   33.99    2.65
  -4  -1   0   26.66    3.14
  -4   1   0   27.36    3.10
  -5  -1   0   35.38    3.57
   5  -1   0   35.57    2.87
   5   1   0   34.19    2.72
  -5   1   0   32.59    3.44
   0  -2   0  145.13    2.00
   0   2   0  144.15    2.62
   1  -2   0   12.94    0.96
  -1  -2   0   12.56    1.62
   1  -2   0   13.37    0.76
  -1  -2   0   12.73    1.13
  -1   2   0   12.66    1.19
   2  -2   0    3.85    0.40
   2  -2   0    4.76    1.03
  -2  -2   0    3.27    1.14
   2   2   0    4.29    0.51
  -2   2   0    4.53    1.02
   3  -2   0   42.23    2.79
  -3  -2   0   38.25    3.49
   3  -2   0   39.62    1.79
   3   2   0   36.97    2.18
  -3   2   0   42.46    3.03
   4  -2   0   40.02    3.08
  -4  -2   0   41.39    4.00
  -4   2   0   29.08    3.13
   4   2   0   45.33    2.83
   5  -2   0    5.73    1.14
  -5  -2   0    7.75    1.86
   6  -2   0    7.62    1.31
   0  -3   0    0.73    0.34
   0  -3   0    0.18    0.12
   0   3   0    0.50    0.25
   1  -3   0    4.98    0.53
  -1  -3   0    3.56    0.86
  -1  -3   0    2.71    1.02
   1  -3   0    3.97    0.71
  -1   3   0    4.44    0.85
   2  -3   0    2.66    0.35
  -2  -3   0    1.88    1.12
   2  -3   0    1.83    0.61
  -2   3   0    2.19    0.83
  -3  -3   0    3.62    1.63
   3  -3   0    2.02    0.63
   3  -3   0    2.35    0.35
  -3   3   0    2.53    0.86
   3   3   0    1.79    0.39
   4  -3   0    6.62    1.36
  -4  -3   0    6.03    2.12
   4   3   0    5.41    0.95
  -4   3   0    5.99    1.60
   5  -3   0    4.21    0.71
  -5  -3   0    6.74    1.98
  -6  -3   0    2.90    1.25
   6  -3   0    0.31    0.68
   0  -4   0   29.88    1.25
   0  -4   0   30.30    1.81
   0   4   0   31.60    1.77
   1  -4   0    2.35    0.48
  -1  -4   0    2.49    1.04
  -1  -4   0    3.02    0.86
   1  -4   0    2.27    0.55
  -1   4   0    3.19    0.71
   2  -4   0   75.04    2.51
  -2  -4   0   70.80    4.33
  -2  -4   0   71.33    3.46
   2  -4   0   71.19    3.34
  -2   4   0   71.07    3.06
   3  -4   0    2.30    0.71
   3  -4   0    3.23    0.62
  -3  -4   0    1.58    1.50
   3   4   0    1.93    0.46
  -3   4   0    1.47    0.82
   4  -4   0   12.30    2.14
  -4  -4   0   11.96    2.99
  -4   4   0   13.57    1.87
  -5  -4   0    8.08    2.26
   5  -4   0    6.35    1.36
   6  -4   0   13.47    1.62
  -6  -4   0   21.82    3.95
   0  -5   0    1.17    0.52
   0   5   0    0.50    0.31
   1  -5   0  257.23    5.51
  -1  -5   0  252.82    6.98
  -1  -5   0  248.94    6.33
   1  -5   0  252.83    5.35
  -1   5   0  258.75    5.68
  -2  -5   0   21.23    2.00
  -2  -5   0   23.46    2.85
   2  -5   0   22.21    1.89
   2  -5   0   20.96    1.42
  -2   5   0   21.68    1.69
  -3  -5   0  325.17   10.68
   3  -5   0  349.53    6.54
  -3   5   0  348.57    8.35
  -4  -5   0    6.78    2.33
   4  -5   0    9.19    1.85
  -5  -5   0  126.17    7.79
   5  -5   0  113.41    6.26
   6  -5   0   -1.11    0.76
  -6  -5   0   -2.21    1.11
   0  -6   0  150.95    4.83
   0  -6   0  150.93    3.50
   0   6   0  154.15    4.87
  -1  -6   0   20.15    1.94
   1  -6   0   20.71    1.64
   1  -6   0   18.77    1.50
  -1   6   0   21.51    1.83
  -2  -6   0   55.05    4.26
   2  -6   0   57.71    2.70
   2  -6   0   59.60    3.32
  -2  -6   0   57.17    3.54
  -2   6   0   56.54    2.83
   3  -6   0    5.86    1.39
  -3  -6   0    4.16    2.15
  -3   6   0    9.70    1.34
   4  -6   0   65.21    4.36
  -4  -6   0   67.92    5.56
  -5  -6   0   -0.37    0.94
   5  -6   0    1.29    0.54
   6  -6   0    0.44    0.84
  -6  -6   0   -0.40    1.14
   0  -7   0    0.21    0.15
   0  -7   0    0.49    0.30
   0   7   0    0.38    0.31
  -1  -7   0  267.11    7.69
   1  -7   0  279.19    6.89
   1  -7   0  272.41    6.37
   1   7   0  280.44    7.68
  -1   7   0  264.21    6.86
  -2  -7   0   23.17    3.18
  -2  -7   0   24.97    2.53
   2  -7   0   27.70    2.25
   2  -7   0   28.79    1.97
  -2   7   0   25.77    2.00
   3  -7   0   63.00    4.05
  -3  -7   0   61.12    5.27
  -3   7   0   67.93    3.82
   4  -7   0    7.67    1.45
  -4  -7   0    9.76    2.43
  -5  -7   0   19.04    3.70
   5  -7   0   24.08    2.40
   0  -8   0    1.40    0.24
   0  -8   0    2.75    0.89
   0   8   0    0.56    0.43
  -1  -8   0    7.23    1.57
   1  -8   0    5.27    1.09
   1  -8   0    5.09    1.16
  -1   8   0    8.54    1.66
   1   8   0    9.06    1.86
   2  -8   0    2.01    0.53
  -2  -8   0    1.73    0.85
  -2  -8   0    1.50    1.41
  -2   8   0    1.54    0.70
   3  -8   0    7.05    1.43
  -3  -8   0   11.53    3.11
   4  -8   0    2.51    0.54
  -4  -8   0    5.55    1.71
  -5  -8   0   22.85    3.15
   5  -8   0   21.94    2.22
   0  -9   0   -0.35    0.47
   0  -9   0    0.62    0.24
   0   9   0    0.73    0.52
   1  -9   0    1.52    0.82
  -1  -9   0    1.62    1.04
   1  -9   0    1.21    0.35
  -1   9   0    0.53    0.52
   1   9   0    1.13    0.57
   2  -9   0    0.87    0.40
   2  -9   0    0.81    0.48
  -2  -9   0   -0.34    0.62
  -2   9   0    1.35    0.67
   3  -9   0    3.00    0.95
  -3  -9   0    5.01    1.74
   4  -9   0    5.17    1.05
  -4  -9   0    7.01    1.87
   5  -9   0    1.75    0.72
  -5  -9   0    0.21    0.97
   0 -10   0   22.75    1.62
   0 -10   0   19.60    2.36
   0  10   0   20.41    2.27
   1 -10   0   14.42    1.41
  -1 -10   0   10.05    2.13
   1 -10   0   14.88    1.76
   1  10   0    9.47    1.91
  -1  10   0   12.53    2.38
  -2 -10   0   29.48    3.08
   2 -10   0   27.07    2.48
   2 -10   0   28.60    2.38
   2  10   0   25.13    2.89
   3 -10   0    6.32    1.20
  -4 -10   0   20.24    4.04
   4 -10   0   15.42    2.73
  -5 -10   0    6.68    1.88
   5 -10   0    9.71    1.14
   0 -11   0    2.39    1.12
   0  11   0    1.55    0.66
   1 -11   0    6.01    1.61
   1 -11   0    3.18    0.65
  -1 -11   0    5.37    1.59
  -1  11   0    4.23    1.42
   1  11   0    2.42    0.99
   2 -11   0    0.70    0.40
   2 -11   0    4.03    0.86
  -2 -11   0    1.87    0.82
   2  11   0    1.47    0.68
  -3 -11   0    3.93    1.09
   3  11   0    4.61    1.48
   4 -11   0   18.51    2.18
   0 -12   0    1.25    0.89
   0  12   0    2.88    1.01
  -1 -12   0    3.00    1.18
   1 -12   0    3.96    1.31
   1 -12   0    3.53    0.72
   1  12   0    4.06    1.18
  -1  12   0    2.31    1.03
   2 -12   0   33.01    2.71
  -2 -12   0   32.15    3.46
   2 -12   0   37.60    2.91
   2  12   0   36.32    3.52
   3 -12   0    2.18    0.57
  -3 -12   0    5.33    1.30
   3  12   0    3.02    0.79
   4 -12   0   49.43    3.73
   4  12   0   58.22    4.92
   0 -13   0    0.40    0.57
   0  13   0    0.89    0.73
   1 -13   0   14.98    2.49
  -1 -13   0   13.64    2.66
   1  13   0   14.36    2.80
  -2 -13   0    3.50    1.09
   2 -13   0    1.09    0.52
   2 -13   0    2.50    0.82
   2  13   0    2.42    1.07
  -3 -13   0    3.62    0.92
   3 -13   0    5.18    0.84
   3  13   0    6.52    1.75
   4 -13   0    3.37    0.80
   4  13   0    3.42    0.85
   0 -14   0   30.83    3.07
   0  14   0   24.83    3.05
   1 -14   0    8.04    1.48
  -1 -14   0    8.79    2.08
   1  14   0   10.05    2.02
   2 -14   0    8.39    1.57
  -2 -14   0    7.42    1.68
   2  14   0    9.82    2.41
   3 -14   0    5.36    1.10
  -3 -14   0    5.36    0.96
   3  14   0    4.39    1.13
   4 -14   0    4.02    0.83
   0 -15   0    0.72    0.70
   0  15   0   -0.92    0.80
  -1 -15   0    0.02    0.73
   1 -15   0    1.28    0.65
   1  15   0    1.44    0.65
  -2 -15   0    3.84    1.13
   2  15   0    5.35    1.11
   3 -15   0   -0.45    0.74
   3  15   0    0.36    0.79
   0 -16   0   36.63    3.12
   1 -16   0    0.18    0.71
  -1 -16   0    0.90    0.78
   1  16   0    0.00    0.82
  -2 -16   0   54.26    4.42
   2  16   0   45.20    4.34
   3 -16   0    1.10    0.83
   3  16   0    0.70    1.12
   0 -17   0   -0.49    0.73
   1 -17   0   73.66    4.88
  -1 -17   0   86.66    5.86
   1  17   0   75.36    5.91
  -2 -17   0    2.10    0.84
   2  17   0    2.77    0.96
   0 -18   0    1.30    1.00
   1 -18   0    3.29    0.91
   2  18   0    5.53    1.26
   5   0  -1    0.44    0.43
  -5   0   1    1.27    0.81
   4   0  -1    0.33    0.27
  -4   0   1    0.06    0.97
   4   0  -1    0.18    0.31
  -3   0   1    0.05    0.55
  -2   0   1    1.23    0.57
  -1   0   1    0.02    0.51
   0   0  -1    0.16    0.09
   0   0  -1    0.42    0.20
  -1   0  -1   -0.12    0.65
   1   0   1    0.44    0.13
  -2   0  -1    0.88    0.72
  -3   0  -1    0.16    0.98
   3   0   1    0.27    0.24
  -4   0  -1    1.80    1.05
   4   0   1    0.83    0.35
   5   0   1   -0.21    0.47
  -5   0  -1    0.62    0.72
   6  -1  -1    2.87    0.66
  -5  -1   1    1.93    1.08
   5  -1  -1    0.73    0.47
   5   1  -1    0.47    0.44
  -4  -1   1    1.28    1.21
   4  -1  -1    0.95    0.45
   4   1  -1    1.11    0.33
  -4   1   1    2.73    1.22
  -3  -1   1   43.88    3.35
   3  -1  -1   49.60    2.40
   3  -1  -1   47.09    2.90
  -3   1   1   49.05    3.07
   2  -1  -1   53.10    2.13
  -2  -1   1   50.97    2.90
  -2   1   1   50.39    2.41
  -1  -1   1    0.29    0.67
   1  -1  -1    0.49    0.20
  -1   1   1    0.21    0.39
   0  -1  -1   11.61    0.64
   0  -1  -1   10.79    0.64
   0   1  -1   10.97    0.82
  -1  -1  -1    1.01    0.76
   1  -1   1    1.83    0.43
  -1  -1  -1    1.89    0.44
   1   1   1    1.74    0.34
  -1   1  -1    1.26    0.78
  -2  -1  -1   28.31    2.45
   2  -1   1   27.50    1.83
  -2   1  -1   25.27    2.19
   2   1   1   28.71    1.63
   3  -1   1    2.86    0.82
  -3  -1  -1    3.20    1.49
   3   1   1    4.02    0.73
  -3   1  -1    3.47    1.42
  -4  -1  -1   13.37    2.91
   4  -1   1   10.64    1.78
   4   1   1   13.44    1.45
  -4   1  -1   10.81    2.41
   5  -1   1    0.79    0.50
  -5  -1  -1    2.35    1.07
  -5   1  -1    2.11    0.94
  -6  -1  -1   21.36    3.54
   6  -2  -1   32.60    2.83
   5  -2  -1   32.02    2.81
  -5  -2   1   34.34    3.47
   5   2  -1   29.69    2.68
  -4  -2   1   31.34    3.56
   4  -2  -1   33.16    2.71
  -4   2   1   35.67    3.13
   4   2  -1   32.38    2.39
   3  -2  -1   38.21    2.01
   3  -2  -1   38.53    2.68
  -3  -2   1   34.56    3.18
  -3   2   1   34.83    2.45
  -2  -2   1   67.62    3.58
   2  -2  -1   70.06    2.47
  -2   2   1   68.94    2.57
   1  -2  -1   48.47    1.81
  -1  -2   1   45.78    2.60
   0  -2   1  107.00    2.60
   0  -2  -1  106.82    2.38
   0  -2   1  108.88    2.41
   0  -2  -1  109.65    2.67
   0   2  -1  106.28    3.06
  -1  -2  -1  119.71    3.95
   1  -2   1  117.08    3.33
  -1  -2  -1  121.55    3.16
  -1   2  -1  120.11    3.62
   1   2   1  122.64    2.15
  -2  -2  -1   15.70    2.05
   2  -2   1   15.65    1.47
   2   2   1   15.93    1.08
  -2   2  -1   14.36    1.60
  -3  -2  -1  153.05    6.90
   3  -2   1  168.91    5.92
   3   2   1  160.23    4.85
  -3   2  -1  155.03    6.25
  -4  -2  -1   57.86    4.75
   4  -2   1   58.89    3.89
   4   2   1   54.30    3.21
  -4   2  -1   48.44    4.00
   5  -2   1   43.46    3.44
  -5  -2  -1   46.41    4.34
  -5   2  -1   51.58    4.30
  -6  -2  -1   23.55    3.05
   6  -2   1   25.22    2.38
  -6  -3   1    0.03    1.00
   6  -3  -1    2.26    0.68
   5  -3  -1   13.00    1.54
  -5  -3   1   19.37    3.64
  -4  -3   1   34.78    3.72
   4  -3  -1   28.62    2.64
  -4   3   1   33.87    2.81
   4   3  -1   31.47    2.28
   3  -3  -1   85.19    3.18
   3  -3  -1   79.66    4.01
  -3  -3   1   83.22    5.02
  -3   3   1   80.42    3.65
  -2  -3   1   98.12    4.62
   2  -3  -1   98.74    3.12
   2  -3  -1   99.71    3.83
  -2   3   1   98.16    2.90
   1  -3  -1  463.05    6.37
   1   3  -1  453.18    7.35
   0  -3   1   35.70    1.63
   0  -3   1   36.26    1.73
   0  -3  -1   34.71    1.82
   0  -3  -1   36.15    1.84
   0   3  -1   35.79    2.11
   1  -3   1  592.95    5.35
  -1  -3  -1  578.41    9.15
   1  -3   1  581.40    7.97
  -1  -3  -1  593.76    8.03
  -1   3  -1  580.13    8.15
  -2  -3  -1   41.46    2.31
   2  -3   1   40.02    2.49
  -2  -3  -1   40.56    3.27
  -2   3  -1   37.82    2.58
   2   3   1   40.64    1.68
   3  -3   1  210.61    6.96
   3   3   1  219.53    5.42
  -3   3  -1  207.01    7.23
  -4  -3  -1    1.89    1.31
   4  -3   1    2.50    0.72
  -4   3  -1    1.08    0.90
   5  -3   1   65.92    4.41
  -5  -3  -1   59.68    4.95
  -6  -3  -1    7.91    2.24
   6  -3   1   10.04    1.44
   6  -4  -1    7.99    1.40
  -6  -4   1    7.46    1.92
  -5  -4   1   62.24    5.18
   5  -4  -1   74.12    4.77
  -4  -4   1    1.59    1.41
   4  -4  -1    0.75    0.40
   3  -4  -1  233.11    5.50
  -3  -4   1  235.77    8.78
  -3   4   1  232.60    6.01
  -2  -4   1    1.82    1.26
   2  -4  -1    2.33    0.57
   2  -4  -1    2.98    0.75
  -2   4   1    2.80    0.58
   1  -4  -1  286.54    5.57
   1  -4  -1  282.21    5.30
  -1  -4   1  285.57    6.24
  -1   4   1  284.89    4.09
   1   4  -1  279.23    6.47
   0  -4   1   26.55    1.47
   0  -4  -1   23.19    1.67
   0  -4  -1   24.57    0.98
   0  -4   1   23.99    1.57
   0  -4  -1   23.38    1.67
   0   4  -1   21.33    1.75
  -1  -4  -1   97.42    3.65
   1  -4   1   95.60    3.38
  -1  -4  -1   95.62    4.07
   1  -4   1   97.08    2.64
  -1   4  -1   94.53    3.65
  -2  -4  -1    4.97    1.57
   2  -4   1    5.67    1.24
  -2  -4  -1    3.84    0.98
  -2   4  -1    4.50    1.19
   2   4   1    4.54    0.39
  -3  -4  -1  139.34    6.91
   3   4   1  135.85    3.90
  -3   4  -1  137.99    5.76
   4  -4   1    0.56    0.54
  -4  -4  -1    1.98    1.21
  -4   4  -1    0.84    0.69
   5  -4   1    5.38    0.85
  -5  -4  -1    8.41    2.37
   6  -4   1   -0.58    0.74
   6  -5  -1    0.03    0.71
  -6  -5   1   -1.74    0.89
  -5  -5   1   10.99    2.65
   5  -5  -1   10.97    1.99
   4  -5  -1    9.04    1.69
  -4  -5   1   15.53    3.22
   3  -5  -1    8.68    1.56
  -3  -5   1    9.02    2.33
   3  -5  -1   13.04    1.20
  -3   5   1   13.98    1.33
  -2  -5   1   14.58    2.68
   2  -5  -1   17.77    1.61
   2  -5  -1   15.13    1.29
  -2   5   1   15.95    1.15
  -1  -5   1   57.08    3.04
   1  -5  -1   58.99    2.77
   1  -5  -1   60.09    2.47
   1   5  -1   59.34    3.16
  -1   5   1   55.84    2.15
   0  -5   1  121.73    3.94
   0  -5  -1  119.85    2.52
   0  -5   1  113.25    3.35
   0  -5  -1  114.32    4.00
   0   5  -1  116.49    4.43
  -1  -5  -1   42.14    2.62
   1  -5   1   39.86    2.28
  -1  -5  -1   45.08    3.03
   1  -5   1   39.54    1.93
  -1   5  -1   40.06    2.54
   2  -5   1  122.94    3.21
  -2  -5  -1  127.98    4.96
   2  -5   1  126.42    4.89
  -2  -5  -1  126.32    6.03
  -2   5  -1  124.16    4.75
   3  -5   1    5.24    1.11
  -3  -5  -1    6.35    2.27
  -3   5  -1    6.41    1.79
  -4  -5  -1   67.53    5.53
   4  -5   1   67.09    4.43
  -4   5  -1   64.31    4.31
  -5  -5  -1   23.80    4.61
   5  -5   1   26.75    2.62
  -6  -5  -1   43.72    4.71
   6  -5   1   58.12    4.14
   6  -6  -1   14.45    1.63
  -6  -6   1   13.94    3.02
   5  -6  -1    2.90    0.75
  -5  -6   1    4.14    1.38
   4  -6  -1    2.55    0.74
  -4  -6   1    4.29    1.41
  -3  -6   1    9.96    2.47
   3  -6  -1   12.61    1.22
   3  -6  -1    8.80    1.61
   2  -6  -1   23.63    1.99
  -2  -6   1   21.63    2.89
   2  -6  -1   22.52    1.78
  -2   6   1   23.82    1.47
   1  -6  -1    3.88    0.99
   1  -6  -1    3.98    0.75
  -1  -6   1    4.71    1.21
   1   6  -1    3.33    0.97
  -1   6   1    4.57    1.01
   0  -6   1    1.43    0.33
   0  -6  -1    0.78    0.13
   0  -6  -1    1.12    0.40
   0  -6   1    0.54    0.33
   0   6  -1    1.41    0.51
   0   6   1    1.12    0.34
  -1  -6  -1   12.83    1.60
  -1  -6  -1   16.28    2.67
   1  -6   1   13.14    1.31
   1  -6   1   14.22    1.27
  -1   6  -1   12.77    1.66
   2  -6   1   11.67    1.93
   2  -6   1    7.91    0.86
  -2  -6  -1    9.21    2.38
  -2  -6  -1   11.17    1.92
  -2   6  -1   10.87    1.91
  -3  -6  -1    5.62    2.05
   3  -6   1    1.06    0.45
  -3   6  -1    2.71    0.98
  -4  -6  -1    3.82    1.79
  -5  -6  -1    3.45    1.42
   5  -6   1    5.98    1.13
  -6  -7   1   43.69    4.74
  -5  -7   1    4.55    1.36
   5  -7  -1    2.84    0.57
   4  -7  -1   54.30    4.02
  -4  -7   1   54.14    4.91
   3  -7  -1   20.15    1.74
  -3  -7   1   15.39    3.36
   2  -7  -1  140.35    4.86
  -2  -7   1  132.50    5.88
   2  -7  -1  140.40    5.15
  -2   7   1  136.74    3.94
   2   7  -1  128.83    5.89
   1  -7  -1    0.99    0.49
   1  -7  -1    0.60    0.22
  -1  -7   1   -0.13    0.40
  -1   7   1    1.23    0.44
   1   7  -1    0.69    0.51
   0  -7   1   67.23    3.50
   0  -7   1   69.59    2.90
   0  -7  -1   68.10    3.74
   0  -7  -1   67.62    2.22
   0   7  -1   63.36    3.82
   0   7   1   70.14    3.22
   1  -7   1   70.72    3.41
  -1  -7  -1   69.20    4.26
   1  -7   1   67.80    3.20
  -1  -7  -1   66.41    3.85
  -1   7  -1   70.97    3.94
   2  -7   1   58.72    3.59
  -2  -7  -1   60.60    3.87
   2  -7   1   58.71    2.70
  -2   7  -1   59.21    3.54
  -3  -7  -1   14.19    3.27
   3  -7   1   13.05    2.22
  -3  -7  -1   11.87    2.23
  -3   7  -1   11.90    2.13
  -4  -7  -1   28.89    3.53
   4  -7   1   22.68    2.44
   5  -7   1    0.02    0.63
  -5  -7  -1    0.91    0.95
   5  -8  -1    1.53    0.61
  -5  -8   1    1.68    0.99
  -4  -8   1   16.15    3.59
   4  -8  -1   15.26    2.54
   3  -8  -1   14.16    1.73
   3  -8  -1   16.04    1.55
   2  -8  -1    5.84    1.09
  -2  -8   1    8.13    1.90
   2  -8  -1    5.89    1.26
  -2   8   1    8.40    0.94
   2   8  -1    4.75    1.33
   1  -8  -1   28.72    2.34
  -1  -8   1   26.69    2.61
   1  -8  -1   26.78    1.84
   1   8  -1   30.71    2.76
  -1   8   1   26.53    2.06
   0  -8  -1   10.99    1.95
   0  -8   1   11.70    1.97
   0  -8  -1   11.87    0.88
   0  -8   1   11.97    1.11
   0   8   1   10.64    1.28
   0   8  -1   12.89    2.35
   1  -8   1   10.86    1.31
   1  -8   1   11.77    1.31
  -1  -8  -1   13.78    2.40
  -1  -8  -1   12.15    2.52
  -1   8  -1   12.96    2.29
  -2  -8  -1    0.67    1.55
   2  -8   1    0.76    0.39
  -2  -8  -1    0.59    0.72
   2  -8   1    1.59    0.48
  -2   8  -1    3.47    1.21
  -3  -8  -1   12.96    2.29
  -3  -8  -1   11.17    3.19
   3  -8   1   13.83    2.36
  -3   8  -1   13.85    1.79
  -4  -8  -1   33.36    4.10
   4  -8   1   30.79    2.86
  -5  -8  -1   16.91    3.29
   5  -8   1   21.30    2.25
   5  -9  -1    4.98    0.98
   4  -9  -1   69.31    4.68
   3  -9  -1    2.08    0.44
   3  -9  -1    4.27    0.80
   3   9  -1    2.64    1.04
   2  -9  -1  152.10    5.83
   2  -9  -1  152.57    5.86
  -2  -9   1  152.99    6.96
   2   9  -1  141.94    6.93
   1  -9  -1    1.86    0.50
   1  -9  -1    1.69    0.94
  -1  -9   1    1.31    0.93
  -1   9   1    2.64    0.71
   1   9  -1    2.39    1.01
   0  -9  -1  247.11    7.94
   0  -9  -1  245.01    4.99
   0  -9   1  232.36    7.56
   0  -9   1  243.02    6.30
   0   9   1  248.75    7.28
   0   9  -1  245.06    8.51
   1  -9   1   24.92    2.02
  -1  -9  -1   21.69    2.59
   1  -9   1   22.65    2.08
   1   9   1   23.33    2.26
  -1   9  -1   25.50    2.72
  -2  -9  -1  134.68    6.55
  -2  -9  -1  138.43    7.55
   2  -9   1  144.47    5.12
   2  -9   1  148.04    6.01
  -2   9  -1  142.16    6.15
  -3  -9  -1    2.17    1.30
   3  -9   1    0.95    0.55
  -3  -9  -1    0.37    0.54
  -4  -9  -1   81.19    6.20
   4  -9   1   79.93    5.17
  -5  -9  -1   -0.92    0.88
   5  -9   1    0.25    0.72
   5 -10  -1   37.65    3.02
   5  10  -1   39.75    3.86
   4 -10  -1   25.06    2.47
   4  10  -1   33.14    3.42
   3 -10  -1   73.99    4.51
   3  10  -1   80.41    5.68
  -2 -10   1   26.28    2.93
   2 -10  -1   23.71    2.21
   2 -10  -1   24.00    2.14
   2  10  -1   27.26    2.97
  -1 -10   1  226.43    8.36
   1 -10  -1  225.44    6.28
   1 -10  -1  228.24    7.96
  -1  10   1  227.57    7.52
   0 -10  -1  106.53    3.40
   0 -10   1  104.29    4.19
   0 -10   1  107.90    5.47
   0 -10  -1  110.58    5.60
   0  10   1  102.29    4.93
   0  10  -1  115.34    6.11
  -1 -10  -1   83.79    5.25
   1 -10   1   81.59    4.45
   1 -10   1   81.39    4.13
  -1  10  -1   86.40    5.26
   2 -10   1   87.16    4.76
  -2 -10  -1   88.65    5.47
   2 -10   1   89.98    4.31
  -2 -10  -1   87.60    6.23
  -2  10  -1   80.77    4.84
  -3 -10  -1   51.39    4.10
  -3 -10  -1   54.51    5.03
   3 -10   1   52.07    3.84
  -4 -10  -1   23.63    4.35
   4 -10   1   21.25    2.22
   5 -10   1   22.29    2.28
  -5 -10  -1   15.89    3.63
   5 -11  -1   28.74    2.72
   5  11  -1   22.06    2.79
   4 -11  -1    6.97    1.20
   4  11  -1    8.12    1.89
   3 -11  -1    1.25    0.64
   3  11  -1    0.69    0.48
   2 -11  -1   33.50    2.79
   2 -11  -1   33.46    2.62
  -2 -11   1   33.64    3.41
   2  11  -1   37.59    3.76
   1 -11  -1    3.78    0.84
  -1 -11   1    4.35    1.29
   1 -11  -1    4.59    1.28
  -1  11   1    4.02    1.21
   1  11  -1    2.71    1.00
   0 -11   1    2.39    0.47
   0 -11  -1    0.55    0.82
   0 -11   1    0.28    0.59
   0  11  -1    1.37    0.84
   0  11   1    1.28    0.58
  -1 -11  -1   14.67    2.74
   1 -11   1   19.21    1.99
   1 -11   1   14.68    1.69
  -1  11  -1   16.24    3.11
   1  11   1   17.94    2.10
  -2 -11  -1    3.69    1.33
   2 -11   1    3.70    0.87
  -2  11  -1    1.99    1.06
  -3 -11  -1    3.14    0.89
   3 -11   1    4.27    0.84
  -3 -11  -1    4.08    1.70
  -4 -11  -1   18.92    4.06
   4 -11   1   15.62    2.65
   4 -12  -1    1.12    0.65
   4  12  -1    0.92    0.65
   3 -12  -1   45.29    3.39
   3  12  -1   43.58    4.11
  -2 -12   1    1.86    1.00
   2 -12  -1    0.68    0.50
   2 -12  -1    0.30    0.41
   2  12  -1    0.48    0.62
   1 -12  -1   56.78    3.17
  -1 -12   1   51.74    4.25
   1 -12  -1   47.73    3.70
   1  12  -1   53.07    4.49
   0 -12   1    1.01    0.66
   0 -12  -1    0.35    0.59
   0  12  -1    1.05    0.98
   0  12   1    0.76    0.59
  -1 -12  -1   49.83    4.13
   1 -12   1   51.59    3.36
   1 -12   1   48.40    3.52
  -1  12  -1   45.42    4.14
   1  12   1   51.03    4.03
  -2 -12  -1   -0.58    0.57
   2 -12   1    0.85    0.50
   2  12   1    1.43    0.61
  -3 -12  -1    2.91    0.82
   3 -12   1    4.44    0.77
   4 -12   1    1.35    0.65
  -4 -12  -1    0.95    1.04
   4 -13  -1    6.78    1.11
   4  13  -1    9.57    1.59
   3 -13  -1    4.49    0.68
   3  13  -1    4.77    1.14
   2 -13  -1   45.94    3.32
   2 -13  -1   40.64    3.20
  -2 -13   1   47.06    4.17
   2  13  -1   42.09    4.12
  -1 -13   1   21.98    2.71
   1 -13  -1   23.15    2.40
   1  13  -1   16.03    3.00
   0 -13  -1   13.03    2.48
   0 -13   1   13.29    2.59
   0  13  -1   11.01    2.44
   0  13   1    8.28    1.88
   1 -13   1   18.66    2.06
  -1 -13  -1   21.53    3.65
   1 -13   1   15.98    1.73
  -1  13  -1   12.74    2.24
   1  13   1   18.64    2.24
   2 -13   1   13.91    2.19
  -2 -13  -1   18.53    2.35
   2  13   1   14.38    2.87
   3 -13   1    8.02    1.79
  -3 -13  -1    8.18    2.21
   3  13   1    6.34    1.58
   4 -13   1    0.33    0.75
   4  13   1   -0.33    0.80
   4 -14  -1   16.92    1.81
   4  14  -1   18.29    2.32
   3 -14  -1  113.01    5.93
   3  14  -1   99.71    7.01
  -2 -14   1   20.36    2.50
   2 -14  -1   21.83    2.12
   2 -14  -1   23.96    2.19
   2  14  -1   22.14    2.93
   1 -14  -1  109.24    6.15
  -1 -14   1  130.00    7.29
   1  14  -1  123.65    7.61
   0 -14  -1   27.34    3.04
   0 -14   1   27.49    2.87
   0  14  -1   24.06    3.30
  -1 -14  -1   81.03    5.52
   1 -14   1   85.84    5.17
   1  14   1   73.25    5.08
   2 -14   1   24.85    2.37
  -2 -14  -1   27.99    3.15
   2  14   1   24.40    2.77
   3 -14   1   28.08    2.51
  -3 -14  -1   28.46    2.97
   3  14   1   26.75    3.04
   3 -15  -1    8.27    0.93
   3  15  -1   10.70    1.81
  -2 -15   1   42.19    3.83
   2 -15  -1   43.40    3.48
   2  15  -1   43.65    4.06
   1 -15  -1    2.29    0.97
  -1 -15   1    3.38    0.85
   1  15  -1    4.27    1.78
   0 -15   1   59.35    4.52
   0 -15  -1   61.77    4.74
   0  15  -1   63.34    5.36
  -1 -15  -1    0.03    0.65
   1 -15   1   -0.14    0.66
   1  15   1   -0.51    0.70
   2 -15   1   60.78    4.00
  -2 -15  -1   70.28    5.34
   2  15   1   77.07    5.75
  -3 -15  -1   -1.03    0.85
   3 -15   1    0.68    0.71
   3  15   1    0.64    0.73
   3  16  -1    2.35    1.11
  -2 -16   1   10.84    2.70
   2 -16  -1   12.55    1.92
   2  16  -1   11.55    2.15
  -1 -16   1    1.38    0.66
   1 -16  -1    2.18    0.82
   1  16  -1   -0.97    0.92
   0 -16   1    5.90    0.88
   0 -16  -1   14.61    2.87
   0  16  -1    7.15    1.48
  -1 -16  -1    0.92    0.71
   1 -16   1    3.49    0.74
   1  16   1    1.81    1.00
  -2 -16  -1    3.15    0.93
   2  16   1    7.51    1.66
   3 -16   1    0.64    0.81
   3  16   1    1.15    0.87
  -2 -17   1    0.30    0.91
   2  17  -1    1.82    1.28
  -1 -17   1    0.56    0.77
   1 -17  -1    0.94    0.76
   1  17  -1   -0.76    0.87
   0 -17  -1    0.18    0.76
   0 -17   1    1.04    0.86
   1 -17   1   19.13    2.26
  -1 -17  -1   16.59    3.15
   2  17   1    5.77    1.49
  -1 -18   1    4.43    1.39
   1 -18  -1    8.18    1.40
   1  18  -1    9.80    1.99
   0 -18   1    6.08    1.40
   0 -18  -1    7.28    1.25
   2  18   1    3.76    1.16
   6   0  -2   94.56    5.19
   5   0  -2   59.07    3.86
  -4   0   2   86.58    5.02
   4   0  -2   88.43    4.07
   3   0  -2   38.77    2.35
  -3   0   2   41.02    2.87
  -2   0   2  250.35    5.66
   1   0  -2  164.08    3.64
   1   0  -2  167.16    3.49
   0   0  -2  163.73    3.63
   0   0  -2  162.63    2.92
  -1   0  -2   77.77    3.38
   1   0   2   78.93    2.72
  -2   0  -2    0.13    0.82
   2   0   2    0.57    0.30
   3   0   2   24.34    2.01
  -3   0  -2   26.01    3.84
   4   0   2    4.04    0.94
  -4   0  -2    2.35    1.33
  -5   0  -2   15.95    3.11
  -6   0  -2   26.20    4.61
   6  -1  -2   12.59    2.05
   5  -1  -2    4.85    1.12
  -5  -1   2    3.04    1.32
   5   1  -2    3.28    0.74
   4  -1  -2    4.85    0.96
  -4  -1   2    6.35    1.78
  -4   1   2    4.63    1.41
  -3  -1   2    0.65    0.63
   3  -1  -2    0.15    0.19
  -3   1   2    0.73    0.58
  -2  -1   2   42.29    2.59
   2  -1  -2   43.21    2.24
  -2   1   2   43.87    2.07
   1  -1  -2   54.85    2.17
   1  -1  -2   55.20    1.60
   1   1  -2   54.89    2.23
   0  -1  -2    4.38    0.52
   0  -1  -2    3.88    0.79
   0   1  -2    2.72    0.89
   1  -1   2   41.76    2.09
  -1  -1  -2   41.42    1.58
  -1  -1  -2   40.95    2.54
  -1   1  -2   40.26    2.46
   1   1   2   38.34    1.76
   2  -1   2   35.96    2.28
  -2  -1  -2   37.51    1.61
  -2  -1  -2   36.52    3.02
   2   1   2   35.65    1.97
  -2   1  -2   37.85    2.92
   3  -1   2   19.75    1.90
  -3  -1  -2   24.39    3.14
   3   1   2   18.03    1.60
  -3   1  -2   24.82    3.07
   4  -1   2    1.79    0.58
  -4  -1  -2    1.98    0.86
  -4   1  -2    3.90    1.44
   4   1   2    1.40    0.61
   5  -1   2    1.37    0.66
  -5  -1  -2    2.11    1.22
  -5   1  -2    0.04    0.83
  -6  -1  -2   -1.01    1.32
   6  -2  -2   14.56    1.45
   5  -2  -2   -0.67    0.42
  -5  -2   2    2.29    1.07
   5   2  -2    0.60    0.46
   4  -2  -2   13.13    2.19
  -4  -2   2   20.43    2.76
   4  -2  -2   15.67    1.50
  -3  -2   2    4.56    1.54
   3  -2  -2    4.06    0.77
  -3   2   2    7.06    1.31
   2  -2  -2   97.02    3.41
  -2   2   2   98.80    2.78
   1  -2  -2   19.53    1.34
   1   2  -2   21.60    1.62
   0  -2  -2    3.40    0.86
   0  -2  -2    4.41    0.77
   0   2  -2    3.01    1.06
   1  -2   2    1.47    0.43
  -1  -2  -2    1.95    0.52
  -1  -2  -2    0.82    0.72
   1   2   2    0.97    0.27
  -1   2  -2    1.79    0.87
  -2  -2  -2   55.53    2.34
  -2  -2  -2   60.64    3.91
   2  -2   2   63.84    3.19
   2   2   2   64.57    2.52
  -2   2  -2   61.52    3.71
  -3  -2  -2    9.28    2.34
   3  -2   2   12.49    2.00
  -3   2  -2   12.97    2.77
   3   2   2   11.57    1.09
   4  -2   2    1.51    0.56
  -4  -2  -2    1.26    1.25
  -4   2  -2    2.92    1.07
   4   2   2    0.26    0.36
   5  -2   2   30.79    2.65
  -5  -2  -2   29.99    3.49
  -5   2  -2   34.94    3.46
  -6  -2  -2    2.10    1.17
   6  -3  -2   10.73    1.29
  -5  -3   2    4.69    1.34
   4  -3  -2   20.61    1.75
   4  -3  -2   19.76    2.06
  -4  -3   2   21.04    2.94
  -3  -3   2   29.46    3.17
   3  -3  -2   25.86    1.86
  -3   3   2   23.45    1.75
   2  -3  -2    2.40    0.53
   2   3  -2    3.00    0.79
   1  -3  -2   41.21    2.07
   1   3  -2   41.70    2.44
   0  -3  -2   44.03    2.06
   0  -3  -2   43.66    2.15
   0   3  -2   47.89    2.78
  -1  -3  -2   14.83    1.33
  -1  -3  -2   13.60    1.65
   1  -3   2   12.73    1.24
  -1   3  -2   14.41    1.64
  -2  -3  -2    4.65    0.94
   2  -3   2    3.48    0.97
  -2  -3  -2    4.28    1.46
  -2   3  -2    3.94    1.34
   2   3   2    4.31    0.46
   3  -3   2    1.16    0.53
  -3  -3  -2    1.11    1.30
   3   3   2    2.14    0.46
  -3   3  -2    3.22    1.48
   4  -3   2    1.34    0.48
  -4  -3  -2    3.06    1.09
  -4   3  -2    1.98    1.09
   5  -3   2    4.36    0.74
  -5  -3  -2    4.83    1.32
  -5   3  -2    4.73    1.33
   6  -3   2    1.91    0.81
  -6  -3  -2   -2.45    0.98
   6  -4  -2    0.15    0.62
  -6  -4   2   -2.12    0.96
  -5  -4   2   57.90    4.88
   5  -4  -2   56.16    4.09
   4  -4  -2    1.40    0.55
  -4  -4   2    0.58    1.09
   4  -4  -2    1.62    0.42
  -3  -4   2  222.76    8.49
   3  -4  -2  218.31    6.00
  -3   4   2  216.99    5.04
   2  -4  -2    6.32    1.15
   2   4  -2    4.30    1.13
   1  -4  -2  197.78    5.08
   1   4  -2  195.89    5.87
   0  -4  -2   30.66    1.95
   0  -4  -2   30.52    1.85
   0  -4   2   31.33    1.95
   0   4  -2   28.68    2.36
   1  -4   2   38.85    1.58
   1  -4   2   39.52    2.39
  -1  -4  -2   40.56    2.42
  -1  -4  -2   39.89    2.77
  -1   4  -2   40.40    2.69
  -2  -4  -2    7.91    1.41
   2  -4   2    5.03    1.16
  -2  -4  -2    7.21    1.98
  -2   4  -2    8.12    1.77
   2   4   2    5.24    0.52
  -3  -4  -2   45.65    4.38
   3  -4   2   46.59    3.33
  -3   4  -2   49.59    3.98
  -4  -4  -2   18.14    3.63
   4  -4   2   16.14    1.90
  -4   4  -2   20.02    2.53
  -5  -4  -2   15.66    2.91
   5  -4   2   12.62    1.52
  -5   4  -2    8.42    1.94
   6  -4   2    4.68    0.83
  -6  -5   2    3.51    1.39
   6  -5  -2    7.36    0.89
   5  -5  -2   21.84    2.36
  -5  -5   2   25.60    3.08
  -4  -5   2   34.24    3.91
   4  -5  -2   36.08    3.08
   3  -5  -2  111.66    5.09
   3  -5  -2  107.78    4.29
   2  -5  -2   98.64    3.94
   2   5  -2   99.94    4.82
   1  -5  -2   90.97    3.72
   1   5  -2   90.56    4.27
   0  -5   2   15.17    1.40
   0  -5  -2   14.91    1.52
   0  -5  -2   18.19    1.51
   0  -5   2   15.37    1.35
   0   5  -2   15.06    1.80
   1  -5   2  173.48    5.35
  -1  -5  -2  171.06    5.92
   1  -5   2  170.49    3.99
  -1  -5  -2  163.52    5.30
  -1   5  -2  163.51    5.77
  -2  -5  -2  105.97    5.69
   2  -5   2  109.28    4.80
  -2  -5  -2  118.42    4.83
  -2   5  -2  108.48    5.05
   3  -5   2  109.74    5.38
  -3  -5  -2  113.53    6.81
  -3  -5  -2  118.72    5.07
  -3   5  -2   98.48    5.50
  -4  -5  -2   70.98    5.56
   4  -5   2   69.04    4.59
  -4   5  -2   67.23    4.67
   5  -5   2   24.29    2.37
  -5  -5  -2   26.71    3.24
   6  -6  -2   14.83    2.53
   5  -6  -2    0.61    0.46
  -5  -6   2   -0.33    1.06
   4  -6  -2   32.52    2.92
  -4  -6   2   36.21    4.02
   3  -6  -2    1.30    0.38
   3  -6  -2    1.31    0.39
   3   6  -2    0.43    0.71
   2  -6  -2   22.04    1.89
   2  -6  -2   18.80    1.72
   2   6  -2   20.92    2.22
   1  -6  -2   25.85    2.12
   1   6  -2   27.88    2.56
   0  -6  -2  113.24    4.07
   0  -6   2  111.26    4.15
   0  -6  -2  109.68    4.47
   0  -6   2  110.44    4.10
   0   6  -2  108.77    5.16
   1  -6   2   19.53    1.44
   1  -6   2   20.16    1.81
  -1  -6  -2   21.22    2.37
  -1  -6  -2   21.67    2.08
  -1   6  -2   20.13    2.20
   2  -6   2    2.20    0.32
  -2  -6  -2    3.13    1.11
  -2  -6  -2    2.75    1.62
   2  -6   2    2.32    0.77
  -2   6  -2    2.69    1.10
   3  -6   2   22.59    2.30
  -3  -6  -2   25.99    3.64
  -3  -6  -2   23.89    2.35
  -3   6  -2   26.59    3.05
  -4  -6  -2   13.06    3.23
   4  -6   2    8.19    1.72
  -4   6  -2   10.20    2.10
   5  -6   2    1.22    0.66
  -5  -6  -2    1.28    0.99
   6   7  -2   26.53    2.84
   5  -7  -2   29.04    2.78
   4  -7  -2   28.19    2.73
   3  -7  -2   19.33    2.03
   3  -7  -2   17.87    1.71
   3   7  -2   18.80    2.41
   2  -7  -2  127.15    5.09
   2  -7  -2  123.05    4.84
   2   7  -2  122.95    5.92
   1  -7  -2   15.47    1.27
   1  -7  -2   15.77    1.73
  -1  -7   2   14.99    1.84
   1   7  -2   17.24    2.06
  -1   7   2   15.57    1.25
   0  -7   2  229.66    6.49
   0  -7  -2  232.82    6.96
   0  -7   2  229.52    6.30
   0  -7  -2  222.79    6.27
   0  -7  -2  224.16    3.99
   0   7  -2  238.17    8.00
  -1  -7  -2   14.80    2.63
   1  -7   2   13.02    1.49
   1  -7   2   13.92    1.31
  -1  -7  -2   15.29    2.57
  -1   7  -2   15.01    2.59
  -2  -7  -2  130.30    5.83
  -2  -7  -2  136.82    7.04
  -2   7  -2  128.01    5.84
  -3  -7  -2   10.00    1.85
  -3  -7  -2   14.55    3.22
   3  -7   2   10.99    2.05
  -3   7  -2   12.20    2.18
  -4  -7  -2   26.99    3.38
   4  -7   2   17.62    2.12
  -5  -7  -2    0.83    0.83
   5  -7   2    1.70    0.70
   5  -8  -2    7.10    1.16
   5   8  -2    7.20    1.74
   4  -8  -2   17.54    2.04
   4   8  -2   20.69    2.63
   3  -8  -2    4.22    1.12
   3  -8  -2    1.40    0.75
   3   8  -2    4.13    1.41
   2  -8  -2   13.03    1.58
   2  -8  -2   14.08    1.51
   2   8  -2   11.42    2.33
  -1  -8   2    8.11    1.74
   1  -8  -2    8.56    0.90
   1  -8  -2    7.70    1.70
  -1   8   2    6.90    0.86
   1   8  -2    8.22    1.91
   0  -8   2   29.00    2.17
   0  -8  -2   28.72    2.65
   0  -8  -2   26.86    1.33
   0  -8   2   30.86    2.58
   0   8  -2   28.39    2.99
   0   8   2   27.04    1.98
  -1  -8  -2   91.25    4.87
  -1  -8  -2   85.60    5.08
   1  -8   2   87.16    3.86
   1  -8   2   84.68    4.19
  -1   8  -2   91.89    5.31
  -2  -8  -2    7.77    2.34
  -2  -8  -2    6.60    1.63
   2  -8   2    8.66    1.74
  -2   8  -2   10.45    2.22
  -3  -8  -2   39.61    4.20
   3  -8   2   36.68    3.12
  -3  -8  -2   38.74    3.28
  -3   8  -2   40.56    3.39
   4  -8   2   19.49    2.10
  -4  -8  -2   22.43    3.05
   5  -8   2   36.66    3.36
  -5  -8  -2   38.85    4.21
   5  -9  -2   13.85    2.23
   5   9  -2   15.33    1.89
   4  -9  -2   45.33    3.62
   4   9  -2   52.42    4.57
   3  -9  -2    8.62    1.65
   3  -9  -2    4.09    0.93
   3   9  -2    4.37    1.29
   2  -9  -2   93.34    4.44
   2   9  -2   96.66    5.87
  -1  -9   2    0.44    0.78
   1  -9  -2    1.63    0.79
   1  -9  -2    2.71    0.66
  -1   9   2    3.10    0.67
   1   9  -2    1.88    1.02
   0  -9   2  121.78    5.41
   0  -9  -2  122.68    3.31
   0  -9   2  121.35    4.93
   0   9  -2  121.91    6.36
   0   9   2  132.72    5.03
  -1  -9  -2   22.36    2.88
   1  -9   2   20.41    1.91
   1  -9   2   18.50    1.91
  -1  -9  -2   19.71    2.37
  -1   9  -2   17.32    3.18
   2  -9   2   56.44    3.78
  -2  -9  -2   54.39    4.07
  -2  -9  -2   56.50    5.02
  -3  -9  -2    2.38    0.83
  -3  -9  -2    2.03    1.18
   3  -9   2    2.78    0.99
  -3   9  -2    2.32    1.03
   4  -9   2   43.19    4.03
  -4  -9  -2   43.28    4.51
  -5  -9  -2    0.54    1.15
   5  -9   2    0.95    0.76
   5 -10  -2   14.55    1.76
   5  10  -2   15.96    2.08
   4 -10  -2   24.67    2.38
   4  10  -2   20.49    2.66
   3 -10  -2   28.14    2.44
   3 -10  -2   27.90    2.51
   3  10  -2   29.78    3.35
   2 -10  -2   49.00    3.52
   2 -10  -2   42.64    2.97
   2  10  -2   45.11    4.09
   1 -10  -2  141.89    4.79
  -1 -10   2  146.02    6.72
   1 -10  -2  151.46    6.57
   0 -10  -2   76.82    4.79
   0 -10   2   68.10    4.32
   0 -10   2   76.93    3.95
   0  10   2   74.98    3.91
  -1 -10  -2   70.31    4.75
   1 -10   2   67.56    3.99
   1 -10   2   70.17    3.95
  -1  10  -2   59.99    4.95
  -2 -10  -2   56.34    4.37
  -2 -10  -2   56.24    4.87
   2 -10   2   51.09    3.73
  -2  10  -2   58.96    4.37
  -3 -10  -2   54.36    5.00
   3 -10   2   47.17    3.77
  -3 -10  -2   45.68    3.86
   4 -10   2   39.04    3.43
  -4 -10  -2   34.88    3.87
   5 -11  -2    0.77    0.74
   5  11  -2    0.84    0.82
   4 -11  -2   29.25    2.59
   4  11  -2   30.21    3.18
   3 -11  -2    3.30    0.95
   3 -11  -2    4.68    0.86
   3  11  -2    2.63    0.94
   2 -11  -2   69.09    4.35
   2 -11  -2   68.73    3.93
   2  11  -2   72.83    5.39
  -1 -11   2   12.32    2.49
   1 -11  -2   11.63    2.43
   1 -11  -2   11.45    1.18
   1  11  -2    9.44    2.25
   0 -11   2   62.82    3.65
   0 -11   2   60.62    4.16
   0 -11  -2   59.21    4.32
   0  11   2   65.91    3.95
   0  11  -2   66.24    5.26
  -1 -11  -2    8.68    2.06
   1 -11   2    5.28    1.30
   1 -11   2    3.03    0.86
  -1  11  -2    3.36    1.54
   1  11   2    3.63    0.83
  -2 -11  -2    7.62    1.90
   2 -11   2   10.11    1.94
  -2 -11  -2    9.77    2.16
  -2  11  -2    5.41    1.61
   3 -11   2    0.89    0.52
  -3 -11  -2    2.51    1.14
  -3 -11  -2    0.75    0.71
  -4 -11  -2   18.00    3.69
   4 -11   2   22.53    2.48
   4 -12  -2    0.29    0.61
   4  12  -2    0.25    0.73
   3 -12  -2   89.78    4.91
   3 -12  -2   97.29    5.32
   3  12  -2   87.77    6.44
   2 -12  -2   15.62    1.65
   2 -12  -2   18.08    1.98
   2  12  -2   17.96    3.63
  -1 -12   2  156.14    7.51
   1 -12  -2  152.38    7.28
   1  12  -2  150.82    8.17
   0 -12  -2   14.54    2.79
   0 -12   2   17.61    2.90
   0  12  -2   14.92    3.15
   0  12   2    9.11    2.01
   1 -12   2  122.65    5.71
   1 -12   2  130.17    6.06
  -1 -12  -2  128.41    7.01
  -1  12  -2  123.12    7.19
   1  12   2  115.42    6.18
  -2 -12  -2   80.34    5.53
   2 -12   2   79.81    4.76
  -2  12  -2   85.68    5.55
   3 -12   2  171.05    7.95
  -3 -12  -2  155.15    8.03
  -3 -12  -2  157.23    9.14
  -4 -12  -2   40.25    4.58
   4 -12   2   38.24    3.21
   4 -13  -2   22.17    2.21
   4  13  -2   20.28    2.47
   3 -13  -2   13.66    1.54
   3  13  -2   12.52    2.55
   2 -13  -2   82.10    4.33
   2 -13  -2   78.99    4.95
   2  13  -2   85.69    6.16
  -1 -13   2   45.86    3.99
   1 -13  -2   50.93    3.98
   1  13  -2   49.22    4.61
   0 -13   2   22.21    2.43
   0 -13  -2   30.11    3.12
   0  13  -2   34.36    3.94
  -1 -13  -2   57.73    4.72
   1 -13   2   57.53    3.94
   1 -13   2   65.56    4.13
  -1  13  -2   60.14    5.16
   1  13   2   57.63    4.13
  -2 -13  -2   15.42    2.71
   2 -13   2   13.43    2.43
   2  13   2   13.39    1.73
   3 -13   2   32.40    2.87
  -3 -13  -2   39.96    3.84
   4 -13   2   17.42    1.95
  -4 -13  -2   18.19    3.69
   4 -14  -2   13.30    1.59
   4  14  -2   11.34    2.11
   3 -14  -2    1.49    0.64
   3  14  -2    1.01    0.77
   2 -14  -2   27.07    2.52
   2  14  -2   27.86    3.22
  -1 -14   2   14.04    2.77
   1 -14  -2   10.98    1.97
   1  14  -2   11.29    2.54
   0 -14  -2   22.76    2.69
   0 -14   2   24.12    2.58
   0  14  -2   22.52    2.78
  -1 -14  -2    2.99    0.93
   1 -14   2    3.23    0.72
   1 -14   2    3.43    0.70
  -1  14  -2    0.37    1.37
   1  14   2    3.29    1.04
  -2 -14  -2    7.87    1.66
   2 -14   2    5.96    1.12
   2  14   2    8.98    2.11
   3 -14   2    0.65    0.67
  -3 -14  -2    1.08    0.90
   3  14   2    2.15    0.77
   4 -15  -2    4.46    1.38
   3  15  -2    6.44    1.68
   2 -15  -2    4.64    0.84
   2  15  -2    2.65    0.95
   1 -15  -2    4.19    0.91
  -1 -15   2   10.39    2.02
   1  15  -2    6.14    1.71
   0 -15   2   13.98    2.66
   0 -15  -2    9.36    2.43
   0  15  -2   11.57    2.40
   1 -15   2    8.99    1.60
  -1 -15  -2    8.28    1.40
   1  15   2   14.14    2.68
  -2 -15  -2    2.93    0.81
   2 -15   2    3.41    0.77
   2  15   2    2.39    0.94
   3 -15   2    8.60    1.35
  -3 -15  -2    7.20    1.25
   3  15   2    6.06    1.15
   3  16  -2    4.06    0.99
   2 -16  -2    0.14    0.72
   2  16  -2   -0.20    0.87
   1 -16  -2    7.83    1.79
  -1 -16   2    4.78    0.97
   1  16  -2    6.25    1.49
   0 -16  -2    3.12    1.02
   0 -16   2    3.70    0.75
   0  16  -2    2.72    1.65
  -1 -16  -2   24.66    2.88
  -2 -16  -2    1.45    0.89
   2  16   2   -0.47    0.77
   3 -16   2    7.06    1.58
   2 -17  -2   60.39    4.50
   2  17  -2   66.48    5.76
  -1 -17   2   14.45    2.63
   1 -17  -2   16.28    1.97
   1  17  -2   18.91    3.45
   0 -17   2   72.66    4.95
   0 -17  -2   77.72    5.69
   0  17  -2   77.46    6.80
  -1 -17  -2   15.43    1.84
   2  17   2   60.10    4.97
   1 -18  -2   -0.21    0.89
   1  18  -2   -0.71    1.02
   0 -18   2    1.91    0.84
   6   0  -3    0.86    0.58
   4   0  -3   -0.12    0.31
  -4   0   3    2.19    0.94
   3   0  -3    0.11    0.27
   2   0  -3    0.50    0.33
   2   0  -3    1.22    0.33
   1   0  -3    1.34    0.39
   1   0  -3    1.10    0.40
   0   0  -3    0.30    0.57
   0   0  -3    0.25    0.10
   1   0   3    1.33    0.32
  -1   0  -3    0.83    0.80
  -1   0  -3    1.51    0.19
   2   0   3    0.94    0.28
  -2   0  -3   -0.23    0.93
  -3   0  -3    1.44    1.28
   3   0   3    0.85    0.39
  -4   0  -3   -1.23    0.68
   4   0   3    0.92    0.45
  -5   0  -3    0.99    0.97
   6  -1  -3   56.13    3.83
   6   1  -3   49.76    3.52
   5  -1  -3    0.32    0.41
   5   1  -3    0.86    0.60
  -4  -1   3  134.82    6.34
   4  -1  -3  106.73    4.93
   4   1  -3  135.19    5.45
   3  -1  -3    1.67    0.54
   3   1  -3    3.24    0.86
   2  -1  -3  241.00    5.97
   2  -1  -3  229.48    4.53
   2   1  -3  228.73    5.66
   1  -1  -3    1.40    0.35
   1  -1  -3    1.75    0.47
   1   1  -3    1.83    0.60
   0  -1  -3  585.97    8.01
   0  -1  -3  591.63    7.36
   0   1  -3  586.71    8.94
   0   1  -3  596.63    6.70
  -1  -1  -3   74.29    2.45
   1  -1   3   75.14    3.30
  -1  -1  -3   76.36    3.72
  -1   1  -3   77.05    3.78
  -2  -1  -3  182.03    6.85
   2  -1   3  181.20    5.65
  -2  -1  -3  172.15    3.74
  -2   1  -3  177.32    6.75
   2   1   3  179.39    5.18
  -3  -1  -3   17.31    3.21
   3  -1   3   11.26    1.97
  -3   1  -3   21.37    3.53
   3   1   3   20.69    1.80
  -4  -1  -3   46.96    4.28
   4  -1   3   43.99    3.23
  -4   1  -3   47.12    4.25
   4   1   3   46.61    3.02
   5  -1   3    3.71    0.78
  -5  -1  -3    6.56    1.77
  -5   1  -3    2.18    1.03
  -6   1  -3   -1.21    1.17
   6  -2  -3   20.46    2.05
   5  -2  -3   -0.37    0.41
  -5  -2   3    1.04    0.79
   5   2  -3    0.73    0.40
   4  -2  -3    5.40    1.10
   3  -2  -3   -0.06    0.22
   3   2  -3    0.29    0.24
   2  -2  -3  193.00    5.41
   2   2  -3  191.73    5.63
   1  -2  -3    9.06    0.72
   1  -2  -3    7.61    0.93
   1   2  -3    8.59    1.12
   0  -2  -3  339.87    6.03
   0  -2  -3  352.92    6.18
   0   2  -3  346.98    7.41
  -1  -2  -3    9.77    1.85
  -1  -2  -3    9.08    0.87
   1  -2   3    8.89    1.49
  -1   2  -3    9.71    1.80
  -2  -2  -3  166.29    4.42
  -2  -2  -3  172.29    6.79
   2  -2   3  175.26    5.80
  -2   2  -3  169.17    6.68
   2   2   3  172.82    4.88
   3  -2   3   13.91    1.65
  -3  -2  -3   10.71    2.69
  -3   2  -3   11.05    2.53
   3   2   3   14.39    1.43
  -4  -2  -3  131.39    7.66
   4  -2   3  136.14    6.28
  -4   2  -3  137.79    7.41
  -5  -2  -3   20.81    2.80
   5  -2   3   25.72    2.17
  -5   2  -3   26.13    2.94
   6  -3  -3    2.30    0.62
   5  -3  -3   87.78    5.23
   4  -3  -3    3.40    0.79
   3  -3  -3  298.62    7.52
   3   3  -3  307.13    8.69
   2  -3  -3    1.28    0.41
   2   3  -3    2.84    0.89
   1  -3  -3   23.86    1.75
   1   3  -3   23.12    2.09
   0  -3  -3   17.92    1.46
   0  -3  -3   19.94    1.51
   0   3  -3   19.01    2.11
  -1  -3  -3  166.42    5.62
  -1  -3  -3  165.63    4.63
   1  -3   3  162.62    5.36
  -1   3  -3  161.53    5.71
   2  -3   3    2.40    0.77
  -2  -3  -3    2.88    0.60
  -2  -3  -3    0.08    1.10
  -2   3  -3    0.28    0.90
   2   3   3    2.57    0.63
  -3  -3  -3   12.64    2.91
   3  -3   3    9.86    1.73
  -3   3  -3   15.73    2.85
   3   3   3   11.53    1.15
   4  -3   3    4.91    1.03
  -4  -3  -3    7.15    2.00
  -4   3  -3    5.77    1.38
  -5  -3  -3   17.77    3.50
   5  -3   3   15.48    2.38
  -5   3  -3   19.68    2.45
   6  -4  -3    3.55    0.77
   5  -4  -3   36.49    3.08
   4  -4  -3    7.29    1.35
   4   4  -3    6.27    1.39
   3  -4  -3   61.37    3.32
   3   4  -3   55.54    3.78
   2  -4  -3   25.97    2.05
   2   4  -3   26.32    2.36
   1  -4  -3    0.09    0.21
   1   4  -3    0.62    0.58
   0  -4  -3    9.90    1.08
   0  -4  -3    9.50    1.13
   0   4  -3   12.10    2.09
  -1  -4  -3   24.25    2.37
   1  -4   3   21.24    1.94
  -1  -4  -3   22.98    1.82
  -1   4  -3   24.50    2.55
  -2  -4  -3   10.97    2.40
   2  -4   3   14.90    1.70
  -2  -4  -3   11.50    1.32
  -2   4  -3   11.16    2.39
  -3  -4  -3   44.01    4.44
   3  -4   3   46.05    3.42
  -3   4  -3   49.09    4.26
   4  -4   3    8.03    1.83
  -4  -4  -3   10.58    2.86
  -4   4  -3    9.35    2.03
  -5  -4  -3    7.17    2.01
   5  -4   3    8.00    1.32
  -5   4  -3    6.78    1.69
   6  -5  -3    1.49    0.82
   5  -5  -3    6.72    1.30
   5   5  -3    8.98    1.80
   4  -5  -3   13.69    1.48
   4  -5  -3   11.51    2.03
   4   5  -3   20.63    2.31
   3  -5  -3   51.87    3.13
   3   5  -3   48.24    3.72
   2  -5  -3   48.11    2.96
   2   5  -3   48.39    3.46
   1  -5  -3    6.05    1.32
   1   5  -3    6.27    1.69
   0  -5  -3    3.23    0.85
   0  -5  -3    2.55    0.80
   0   5  -3    2.69    1.05
   1  -5   3   11.92    1.45
  -1  -5  -3   12.31    2.28
  -1  -5  -3   12.13    2.03
  -1   5  -3   12.90    2.43
  -2  -5  -3    0.29    1.37
  -2  -5  -3    3.34    0.97
   2  -5   3    1.96    0.70
  -2   5  -3    1.55    1.20
   3  -5   3    8.70    1.75
  -3  -5  -3    9.97    2.83
  -3  -5  -3   10.61    1.30
  -3   5  -3    8.29    2.17
  -4  -5  -3    2.19    1.26
   4  -5   3    2.66    0.69
  -4   5  -3    3.50    1.32
  -5  -5  -3    5.38    2.01
   5  -5   3    6.43    1.31
  -5   5  -3    2.78    1.08
   6  -6  -3    1.77    0.72
   6   6  -3    3.46    0.81
   5  -6  -3   45.06    3.56
   5   6  -3   40.24    3.60
   4  -6  -3    5.12    0.86
   4  -6  -3    8.53    1.70
   4   6  -3    8.03    2.00
   3  -6  -3  152.40    5.80
   3   6  -3  151.57    6.94
   2  -6  -3    6.83    1.49
   2   6  -3    6.94    1.68
   1  -6  -3  213.12    6.54
   1   6  -3  214.11    7.77
   0  -6  -3   12.82    1.41
   0  -6  -3   13.56    1.59
   0   6  -3   14.53    2.74
  -1  -6  -3  177.43    6.62
  -1  -6  -3  166.83    5.98
   1  -6   3  167.64    6.05
  -1   6  -3  176.24    6.95
   2  -6   3    2.67    0.81
  -2  -6  -3    2.41    0.98
  -2  -6  -3    1.38    1.42
  -2   6  -3    3.91    1.59
  -3  -6  -3   51.63    3.47
  -3  -6  -3   56.33    5.10
   3  -6   3   49.62    3.77
  -3   6  -3   50.47    4.07
   4  -6   3    4.87    1.12
  -4  -6  -3    5.46    1.61
  -4   6  -3    4.27    1.00
   5  -6   3   27.13    2.61
  -5  -6  -3   29.87    3.86
   6   7  -3    3.81    0.95
   5  -7  -3   25.93    2.50
   5   7  -3   24.72    2.56
   4  -7  -3   22.34    2.07
   4  -7  -3   24.05    2.40
   4   7  -3   27.85    2.94
   3  -7  -3   45.02    3.35
   3   7  -3   44.95    3.96
   2  -7  -3   82.16    4.20
   2   7  -3   80.03    5.10
   1  -7  -3  149.22    5.91
  -1   7   3  139.28    3.48
   1   7  -3  147.24    6.84
   0  -7  -3   34.01    2.79
   0  -7  -3   35.13    2.43
   0   7  -3   38.39    3.57
  -1  -7  -3  133.01    6.11
   1  -7   3  129.66    5.51
  -1  -7  -3  128.63    5.69
  -1   7  -3  132.62    6.40
   2  -7   3   32.30    2.85
  -2  -7  -3   31.59    3.69
  -2  -7  -3   30.37    2.87
  -2   7  -3   30.67    3.32
  -3  -7  -3   86.24    4.81
  -3  -7  -3   94.01    6.28
   3  -7   3   81.16    5.05
  -3   7  -3   77.29    5.01
   4  -7   3   11.95    2.05
  -4  -7  -3   11.25    2.67
  -4   7  -3    9.57    2.06
  -5  -7  -3   47.62    4.92
   5  -7   3   44.86    3.65
   6   8  -3   15.65    2.06
   5  -8  -3    1.30    0.74
   5   8  -3    2.22    0.83
   4  -8  -3   22.78    2.33
   4   8  -3   22.08    2.63
   3  -8  -3   10.57    1.86
   3  -8  -3   12.07    2.06
   3   8  -3    9.83    2.24
   2  -8  -3   52.45    3.19
   2   8  -3   51.88    4.28
   1  -8  -3   29.99    2.69
  -1   8   3   39.79    1.97
   0  -8  -3   76.39    4.48
   0  -8  -3   77.41    3.85
   0   8  -3   83.22    5.44
  -1  -8  -3   23.74    2.98
  -1  -8  -3   26.17    2.66
   1  -8   3   21.57    2.32
  -1   8  -3   29.07    3.41
  -2  -8  -3   81.16    5.74
  -2  -8  -3   82.25    4.95
   2  -8   3   83.20    4.83
  -2   8  -3   79.11    5.19
  -3  -8  -3    0.78    0.61
   3  -8   3    0.78    0.51
  -3  -8  -3    0.66    1.14
  -3   8  -3    2.47    0.96
  -4  -8  -3   46.63    4.75
   4  -8   3   53.21    4.12
   5  -8   3    1.54    0.79
  -5  -8  -3   -0.16    1.04
   5  -9  -3   -1.09    0.59
   5   9  -3   -0.60    0.67
   4  -9  -3   19.01    2.14
   4   9  -3   18.31    2.43
   3  -9  -3    1.28    0.63
   3  -9  -3    1.20    0.34
   3   9  -3    1.75    0.77
   2  -9  -3    8.85    1.08
   2  -9  -3    5.95    1.36
   2   9  -3    8.55    2.16
   1  -9  -3   63.21    4.28
   1  -9  -3   68.23    3.08
   1   9  -3   68.65    5.15
   0  -9  -3   44.33    3.27
   0   9  -3   41.74    4.21
  -1  -9  -3   61.52    4.24
  -1  -9  -3   57.64    4.51
   1  -9   3   62.05    4.00
   1  -9   3   58.07    3.39
  -1   9  -3   62.35    4.82
  -2  -9  -3    4.71    1.72
   2  -9   3    2.10    0.76
  -2  -9  -3    4.12    1.43
  -2   9  -3    5.23    1.70
  -3  -9  -3   78.09    5.02
  -3  -9  -3   79.69    6.08
   3  -9   3   78.27    5.01
  -3   9  -3   75.15    4.94
  -4  -9  -3    2.38    1.26
   4  -9   3    2.71    0.67
   5 -10  -3    2.40    0.70
   5  10  -3    2.73    1.12
   4 -10  -3   63.56    4.26
   4  10  -3   62.30    5.08
   3 -10  -3    0.88    0.50
   3 -10  -3    2.29    0.65
   3  10  -3    1.39    0.67
   2 -10  -3   43.58    3.56
   2 -10  -3   44.90    2.96
   2  10  -3   47.10    4.33
   1 -10  -3    1.42    0.44
   1 -10  -3    1.32    0.63
   1  10  -3    3.59    1.49
   0 -10   3   20.14    2.30
   0 -10  -3   19.41    2.46
   0  10  -3   14.87    3.22
   0  10   3   17.46    1.63
   1 -10   3    4.36    1.14
   1 -10   3    5.77    1.08
  -1 -10  -3    6.14    1.72
  -1 -10  -3    5.67    1.57
  -1  10  -3    4.10    1.71
   2 -10   3   13.63    2.34
  -2 -10  -3   13.92    2.67
  -2 -10  -3   14.42    2.89
  -2  10  -3   13.39    2.63
  -3 -10  -3    1.70    0.71
  -3 -10  -3    1.15    1.08
   3 -10   3    1.94    0.66
  -3  10  -3   -0.63    0.77
   4 -10   3    0.78    0.86
  -4 -10  -3    0.05    1.04
   5 -11  -3    3.10    0.80
   5  11  -3    6.42    1.24
   4 -11  -3   22.15    2.22
   4  11  -3   19.65    2.70
   3 -11  -3   -0.11    0.49
   3 -11  -3    0.62    0.45
   3  11  -3   -0.17    0.58
   2 -11  -3    5.05    1.13
   2 -11  -3    5.65    1.26
   2  11  -3    5.01    1.58
   1 -11  -3    7.89    1.70
   1  11  -3    4.54    1.76
   0 -11  -3    4.25    1.08
   0 -11   3    4.89    1.35
   0  11  -3    7.43    2.46
   0  11   3    4.50    1.07
  -1 -11  -3   15.77    2.99
   1 -11   3   12.88    2.05
   1 -11   3   17.24    1.96
  -1 -11  -3   12.82    2.46
  -1  11  -3   16.64    3.45
  -2 -11  -3    3.13    0.84
  -2 -11  -3    2.56    0.94
   2 -11   3    2.62    0.69
  -2  11  -3    6.36    1.68
   3 -11   3    2.64    0.89
  -3 -11  -3    3.60    0.89
  -3 -11  -3    1.01    0.62
   4 -11   3   20.17    2.23
  -4 -11  -3   20.15    2.67
   4 -12  -3    7.76    1.41
   4  12  -3    4.66    1.24
   3 -12  -3    3.16    1.20
   3  12  -3    2.33    0.93
   2 -12  -3    2.66    0.60
   2 -12  -3    2.79    1.03
   2  12  -3    2.75    0.95
   1 -12  -3    2.03    1.03
   1  12  -3    0.79    0.93
   0 -12  -3    6.14    1.32
   0 -12   3    3.73    0.84
   0  12  -3    4.28    1.58
   1 -12   3   12.64    2.18
   1 -12   3   11.21    1.82
  -1 -12  -3   15.34    2.98
  -1  12  -3   10.20    2.45
  -2 -12  -3    6.09    1.92
  -2 -12  -3    7.71    1.69
   2 -12   3    6.99    1.44
  -2  12  -3    8.07    1.79
  -3 -12  -3    4.37    1.40
  -3 -12  -3    4.96    0.79
   3 -12   3    3.96    0.90
  -4 -12  -3    1.16    1.38
   4 -13  -3    9.27    1.69
   4  13  -3   13.76    2.80
   3 -13  -3    0.49    0.59
   3 -13  -3    0.31    0.58
   3  13  -3    1.54    0.77
   2 -13  -3    4.95    1.08
   2  13  -3    6.77    1.55
   1 -13  -3    2.02    0.64
   1  13  -3    3.13    1.05
   0 -13  -3    5.95    1.51
   0 -13   3    8.08    1.43
   0  13  -3    7.09    2.35
   1 -13   3    0.63    0.65
  -1 -13  -3    1.18    0.82
   1  13   3    0.69    0.48
  -1  13  -3    1.53    1.10
  -2 -13  -3    0.50    0.84
   2 -13   3    0.95    0.56
  -2 -13  -3    0.22    0.65
  -2  13  -3    0.65    1.00
  -3 -13  -3    2.38    1.39
   3 -13   3    1.17    0.69
   4 -14  -3   44.87    3.27
   3 -14  -3    1.15    0.61
   3 -14  -3    3.05    0.67
   3  14  -3    1.40    1.03
   2 -14  -3   31.64    2.84
   2  14  -3   30.62    3.89
   1 -14  -3    4.06    1.13
   1  14  -3    3.40    1.48
   0 -14  -3   28.93    2.99
   0 -14   3   32.81    2.87
   0  14  -3   28.77    3.84
  -1 -14  -3    7.26    1.71
   1 -14   3    7.21    1.27
  -1  14  -3    8.10    2.19
   2 -14   3   53.65    4.16
  -2 -14  -3   55.49    4.45
   2  14   3   58.96    4.48
   3 -14   3   -0.92    0.74
  -3 -14  -3   -0.45    0.87
   4 -15  -3    2.44    0.94
   3  15  -3    5.95    1.93
   2 -15  -3    5.27    0.90
   2  15  -3    4.27    1.21
   1 -15  -3   29.10    2.82
   1  15  -3   24.58    3.18
   0 -15  -3    7.55    1.67
   0  15  -3    5.82    2.15
  -1 -15  -3   38.29    3.69
  -1  15  -3   29.67    3.56
  -2 -15  -3    0.97    0.78
   2 -15   3    1.88    0.72
   2  15   3    2.50    0.73
   3 -15   3   29.14    2.42
  -3 -15  -3   24.33    2.76
   3  15   3   27.22    2.62
   2 -16  -3    2.17    0.83
   2  16  -3    1.59    1.34
   1 -16  -3   16.34    2.92
   1  16  -3   11.10    2.61
   0 -16  -3   35.96    3.27
   0  16  -3   27.48    4.59
  -1 -16  -3    4.84    1.49
  -2 -16  -3   49.05    4.10
   2 -16   3   42.14    3.17
   2 -17  -3   39.37    3.33
   2  17  -3   48.95    4.95
   1 -17  -3    4.63    1.08
   1  17  -3    5.93    1.66
   0 -17  -3   12.05    2.14
   0  17  -3   11.97    2.36
  -1 -17  -3   12.35    2.21
   1  18  -3    2.62    1.51
   6   0  -4   18.38    1.89
   5   0  -4   20.27    1.87
   4   0  -4   50.77    3.59
   3   0  -4   14.00    1.36
   3   0  -4   14.36    1.67
   2   0  -4   17.61    1.74
   2   0  -4   15.79    1.42
   1   0  -4   17.18    1.60
   1   0  -4   20.61    1.61
   0   0  -4    5.59    1.34
   0   0  -4    6.30    0.71
  -1   0  -4  113.13    3.07
  -1   0  -4  106.68    4.88
  -2   0  -4   33.18    3.49
   2   0   4   40.27    2.74
  -3   0  -4   68.12    5.31
   3   0   4   72.12    4.00
  -4   0  -4    0.76    1.02
   4   0   4    0.35    0.51
  -5   0  -4   27.97    3.41
   6  -1  -4    5.39    0.72
   6   1  -4    3.73    0.77
   5  -1  -4    5.72    1.31
   5   1  -4   10.32    1.63
   4  -1  -4    5.94    1.33
   4   1  -4    7.21    1.49
   4   1  -4    3.95    0.90
   3  -1  -4    5.91    0.82
   3  -1  -4    5.73    1.27
   3   1  -4    6.98    1.31
   3   1  -4    5.67    1.30
   2  -1  -4    1.12    0.30
   2  -1  -4    0.95    0.54
   2   1  -4    1.54    0.56
   1  -1  -4    7.73    0.94
   1  -1  -4    8.91    1.02
   1   1  -4    8.44    0.97
   1   1  -4    8.84    1.57
   0  -1  -4   23.88    1.90
   0  -1  -4   20.07    1.40
   0   1  -4   21.18    2.07
   0   1  -4   21.34    1.39
  -1  -1  -4  116.95    5.12
  -1  -1  -4  110.62    3.36
  -1   1  -4  119.00    2.90
  -1   1  -4  117.41    5.20
  -2  -1  -4    4.68    1.99
  -2  -1  -4    5.14    0.51
   2  -1   4    4.00    1.11
  -2   1  -4    4.21    1.79
   2   1   4    4.56    0.96
  -3  -1  -4   87.83    6.08
   3  -1   4   90.01    4.74
  -3   1  -4   94.13    6.26
   3   1   4   93.18    4.54
   4  -1   4   16.33    1.75
  -4  -1  -4   22.81    3.02
  -4   1  -4   16.09    3.48
  -5  -1  -4   27.08    3.43
  -5   1  -4   29.95    3.45
   6  -2  -4    0.02    0.59
   5  -2  -4   14.47    1.79
   5   2  -4   12.27    1.53
   4  -2  -4    1.46    0.63
   3  -2  -4  129.21    5.23
   3   2  -4  124.85    5.24
   2  -2  -4    3.39    0.46
   2  -2  -4    3.11    0.89
   2   2  -4    3.87    0.99
   1  -2  -4   49.23    2.13
   1  -2  -4   53.63    2.81
   1   2  -4   48.47    3.00
   0  -2  -4    4.16    0.98
   0  -2  -4    3.85    0.75
   0   2  -4    3.56    1.27
   0   2  -4    4.48    0.54
  -1  -2  -4  138.97    4.21
  -1  -2  -4  140.16    5.59
  -1   2  -4  141.59    5.84
  -1   2  -4  139.62    3.02
  -2  -2  -4    0.14    0.25
  -2  -2  -4    0.06    1.21
   2  -2   4    2.02    0.72
  -2   2  -4   -0.06    1.13
   3  -2   4   94.55    4.97
  -3  -2  -4   98.16    6.42
  -3   2  -4   90.09    5.89
   3   2   4   84.73    4.05
  -4  -2  -4    6.11    1.63
   4  -2   4    5.44    1.40
  -4   2  -4    2.18    1.00
   5  -2   4   16.75    1.81
  -5  -2  -4   17.16    3.61
  -5   2  -4   16.69    3.15
   6  -3  -4    2.03    0.61
   4  -3  -4   15.47    1.72
   4   3  -4   15.97    1.99
   3  -3  -4  138.02    5.52
   3   3  -4  134.95    5.82
   2  -3  -4   27.57    2.23
   2   3  -4   29.24    2.55
   1  -3  -4  175.40    5.39
   1  -3  -4  168.07    3.62
   1   3  -4  175.80    6.43
   0  -3  -4   67.02    3.15
   0  -3  -4   62.37    2.99
   0   3  -4   64.70    3.88
  -1  -3  -4   47.12    2.50
  -1  -3  -4   47.83    3.38
   1  -3   4   46.51    3.14
  -1   3  -4   45.16    1.64
  -1   3  -4   45.92    3.58
  -2  -3  -4   20.24    1.61
  -2  -3  -4   15.30    2.80
  -2   3  -4   19.86    3.15
  -3  -3  -4   62.54    5.14
   3  -3   4   56.29    3.89
  -3   3  -4   61.03    4.90
  -4  -3  -4   11.69    2.75
   4  -3   4   11.53    1.98
  -4   3  -4   13.36    2.88
  -5  -3  -4   18.68    3.63
   5  -3   4   21.09    2.20
  -5   3  -4   20.76    2.69
   6  -4  -4   10.23    1.25
   5  -4  -4    0.62    0.46
   5   4  -4    2.30    0.57
   4  -4  -4   19.63    1.97
   4   4  -4   23.57    2.51
   3  -4  -4   24.62    2.33
   3   4  -4   35.44    3.03
   2  -4  -4  138.04    5.27
   2   4  -4  138.25    6.05
   1  -4  -4   65.30    2.14
   1  -4  -4   69.00    3.51
   1   4  -4   64.52    4.17
   0  -4  -4   80.48    3.44
   0  -4  -4   80.38    3.66
   0   4  -4   84.94    4.69
  -1  -4  -4   59.65    3.18
   1  -4   4   63.76    3.85
  -1  -4  -4   62.31    3.92
  -1   4  -4   61.71    4.17
  -2  -4  -4   62.39    3.25
  -2  -4  -4   63.87    4.86
   2  -4   4   63.75    4.00
  -2   4  -4   64.29    4.64
  -3  -4  -4   15.27    3.32
   3  -4   4   14.42    2.31
  -3   4  -4   17.91    3.49
   4  -4   4   45.45    3.68
  -4  -4  -4   46.08    4.61
  -4   4  -4   43.07    4.07
   5  -4   4    0.02    0.69
  -5  -4  -4    0.84    1.45
  -5   4  -4   -1.39    0.99
   6  -5  -4   -0.06    0.67
   5  -5  -4    5.11    1.42
   5   5  -4    4.76    1.43
   4  -5  -4   68.44    4.07
   4   5  -4   69.83    4.78
   3  -5  -4    2.07    0.65
   3   5  -4    0.87    0.62
   2  -5  -4   96.10    4.49
   2   5  -4  102.80    5.53
   1  -5  -4    1.12    0.58
   1   5  -4    2.58    1.29
   0  -5  -4  109.89    4.67
   0  -5  -4  110.64    4.26
   0   5  -4  104.37    5.60
  -1  -5  -4   33.94    3.01
  -1  -5  -4   38.62    2.73
   1  -5   4   41.04    3.12
  -1   5  -4   29.62    3.28
   2  -5   4   56.73    3.83
  -2  -5  -4   63.35    4.87
  -2  -5  -4   59.45    3.38
  -2   5  -4   64.62    4.86
   3  -5   4    5.49    1.34
  -3  -5  -4    1.74    1.26
  -3   5  -4    5.67    1.71
   4  -5   4   34.86    3.04
  -4  -5  -4   38.09    3.99
  -4   5  -4   33.44    3.39
  -5  -5  -4   17.81    3.61
   5  -5   4   22.99    2.58
  -5   5  -4   18.55    3.23
   5  -6  -4    8.10    1.50
   5   6  -4    3.38    1.19
   4  -6  -4   13.10    1.61
   4   6  -4   15.23    2.78
   3  -6  -4    0.82    0.43
   3   6  -4    1.39    0.80
   2  -6  -4   20.81    2.18
   2   6  -4   19.52    2.65
   1  -6  -4    0.93    0.30
   1  -6  -4    0.46    0.49
   1   6  -4    2.83    1.32
   0  -6  -4    3.36    0.89
   0  -6  -4    1.90    0.81
   0   6  -4    2.17    1.28
  -1  -6  -4   27.70    3.00
  -1  -6  -4   30.46    2.50
  -1   6  -4   29.55    3.45
   2  -6   4   39.22    3.24
  -2  -6  -4   43.15    4.34
  -2  -6  -4   40.51    2.94
  -2   6  -4   41.84    4.11
  -3  -6  -4    3.43    1.13
  -3   6  -4    2.06    1.08
  -4  -6  -4    9.16    2.25
   4  -6   4   12.22    2.25
  -4   6  -4   12.66    2.42
   5  -6   4    2.38    0.91
  -5  -6  -4    6.94    1.64
   5  -7  -4   18.39    1.94
   5   7  -4   14.75    1.97
   4  -7  -4   23.11    2.16
   4  -7  -4   23.70    2.50
   4   7  -4   26.31    2.87
   3  -7  -4   62.47    3.96
   3   7  -4   70.84    5.10
   2  -7  -4   15.83    1.90
   2   7  -4   11.38    2.62
   1  -7  -4    1.89    0.76
   1   7  -4    2.42    1.37
   0  -7  -4  133.54    5.75
   0  -7  -4  133.94    5.05
   0   7  -4  115.35    6.59
  -1  -7  -4    3.46    1.56
   1  -7   4    3.38    0.91
  -1  -7  -4    4.02    1.22
  -1   7  -4    3.71    1.64
   2  -7   4   20.11    2.27
  -2  -7  -4   21.35    2.31
  -2  -7  -4   22.37    3.81
  -2   7  -4   18.66    3.27
   3  -7   4    5.99    1.31
  -3  -7  -4    4.59    1.35
  -3   7  -4    5.30    1.45
   4  -7   4   47.12    3.85
  -4  -7  -4   44.98    4.61
  -4   7  -4   44.94    4.09
   5  -7   4    0.12    0.82
   6   8  -4   69.83    5.38
   5  -8  -4    1.89    0.93
   5   8  -4    2.90    1.13
   4  -8  -4  149.43    6.98
   4  -8  -4  141.52    6.34
   4   8  -4  145.83    8.01
   3  -8  -4   10.48    1.75
   3   8  -4   10.27    2.49
   2  -8  -4  104.37    5.38
   2   8  -4  115.91    6.85
   1   8  -4   29.51    3.68
   0  -8  -4  206.48    7.66
   0  -8  -4  211.60    6.68
   1  -8   4   38.92    3.34
  -1  -8  -4   42.40    3.41
  -1  -8  -4   31.50    3.33
  -1   8  -4   37.49    4.20
  -2  -8  -4  123.85    6.11
   2  -8   4  135.01    6.64
  -2  -8  -4  129.40    7.03
  -2   8  -4  130.92    7.00
  -3  -8  -4   16.36    3.24
  -3  -8  -4   10.96    1.78
   3  -8   4   10.19    2.05
  -3   8  -4   10.81    2.26
  -4  -8  -4   34.36    4.09
   4  -8   4   33.65    3.16
  -4   8  -4   37.08    3.54
   5  -9  -4   58.15    4.25
   5   9  -4   51.66    4.37
   4  -9  -4    4.26    0.83
   4  -9  -4    3.66    0.86
   4   9  -4    2.83    0.85
   3  -9  -4   29.39    2.58
   3  -9  -4   30.85    2.66
   3   9  -4   29.11    3.27
   2  -9  -4    0.87    0.51
   2   9  -4    1.68    1.18
   1  -9  -4   90.01    5.06
   1   9  -4   89.58    6.21
   0  -9  -4   18.24    2.27
   0  -9  -4   20.48    2.11
   0   9  -4   13.60    3.08
  -1  -9  -4   61.60    4.54
   1  -9   4   63.48    4.39
  -1  -9  -4   64.36    4.50
  -1   9  -4   68.12    5.50
  -2  -9  -4    2.86    1.12
  -2   9  -4    3.64    1.10
  -3  -9  -4   27.53    2.74
  -3  -9  -4   30.23    3.60
   3  -9   4   32.17    3.16
  -3   9  -4   30.66    3.26
  -4  -9  -4    3.36    1.55
   4  -9   4    2.75    0.78
   5  10  -4    6.97    1.57
   4 -10  -4   20.89    3.33
   4 -10  -4   17.03    1.82
   4  10  -4   18.56    2.42
   3 -10  -4    1.85    0.47
   3 -10  -4    0.98    0.58
   3  10  -4    1.22    0.89
   2 -10  -4    5.09    1.08
   2 -10  -4    3.63    1.07
   2  10  -4    4.89    1.75
   1 -10  -4   28.96    3.01
   1 -10  -4   25.22    1.79
   1  10  -4   26.95    3.71
   0 -10  -4   15.16    2.83
   0 -10  -4   18.99    2.20
   0  10  -4   14.16    3.19
  -1 -10  -4    4.59    1.05
  -1 -10  -4    3.46    1.14
   1 -10   4    3.30    0.88
  -1  10  -4    7.79    2.25
   2 -10   4    2.40    0.77
  -2 -10  -4    2.62    0.86
  -2 -10  -4    4.88    1.64
  -2  10  -4    5.85    1.53
  -3 -10  -4    3.27    0.98
  -3 -10  -4    1.41    0.78
  -3  10  -4    5.67    1.37
  -4 -10  -4    2.94    1.18
   4 -10   4    2.63    0.74
   5 -11  -4    7.04    1.08
   5  11  -4    3.92    1.06
   4 -11  -4    1.74    0.80
   4  11  -4   -0.78    0.78
   3 -11  -4   10.24    1.58
   3 -11  -4   11.85    1.47
   3  11  -4    8.49    2.35
   2 -11  -4    6.27    1.59
   2 -11  -4    5.03    0.95
   2  11  -4    5.30    1.75
   1 -11  -4   28.58    2.91
   1  11  -4   31.27    3.80
   0 -11  -4    1.83    0.72
   0  11  -4    0.89    1.53
  -1 -11  -4    1.54    0.62
  -1 -11  -4    3.03    0.90
   1 -11   4    0.91    0.59
  -1  11  -4    1.17    0.81
  -2 -11  -4   -0.11    0.62
   2 -11   4    0.03    0.59
  -2 -11  -4    0.99    1.11
  -2  11  -4    3.00    1.10
   3 -11   4    3.02    0.65
  -3 -11  -4    2.62    1.41
  -3 -11  -4    3.26    1.12
  -3  11  -4    4.40    1.28
   4 -11   4    6.74    1.18
  -4 -11  -4    3.79    1.44
   4 -12  -4    0.86    0.59
   4  12  -4    0.64    0.81
   3 -12  -4   88.39    4.82
   3 -12  -4   85.64    5.21
   3  12  -4   80.14    6.48
   2 -12  -4    8.13    0.96
   2 -12  -4    6.47    1.56
   2  12  -4    7.03    2.33
   1 -12  -4  104.31    6.05
   1  12  -4  100.52    7.30
   0 -12  -4   20.19    2.53
   0  12  -4   23.52    3.19
  -1 -12  -4   56.44    4.46
   1 -12   4   65.84    4.46
  -1 -12  -4   62.38    4.65
  -1  12  -4   64.55    5.36
  -2 -12  -4   21.49    2.58
  -2 -12  -4   14.54    2.69
   2 -12   4   16.36    1.88
  -2  12  -4   21.83    2.64
  -3 -12  -4   30.13    3.51
   3 -12   4   35.84    3.07
  -3 -12  -4   22.86    2.42
   4 -13  -4    4.06    0.84
   4  13  -4    5.76    1.53
   3 -13  -4  108.22    5.33
   3 -13  -4  106.57    5.94
   3  13  -4  103.04    7.52
   2 -13  -4    0.98    0.67
   2  13  -4    2.92    1.26
   1 -13  -4  109.78    6.51
   1  13  -4  106.32    7.72
   0 -13  -4    0.52    0.65
   0  13  -4    1.02    1.02
  -1 -13  -4   36.04    3.45
  -1  13  -4   35.16    3.90
  -2 -13  -4    0.86    0.86
   2 -13   4    2.07    0.80
  -2 -13  -4    4.21    1.03
  -2  13  -4    1.43    0.82
  -3 -13  -4    5.60    1.10
   3 -13   4    4.58    0.86
  -3 -13  -4    6.90    1.76
   4 -14  -4   37.44    2.76
   3 -14  -4    5.02    0.95
   3  14  -4    4.34    1.32
   2 -14  -4   34.75    3.24
   2  14  -4   35.97    4.03
   1 -14  -4    6.54    1.50
   1  14  -4    4.18    1.73
   0 -14  -4   41.64    3.88
   0  14  -4   38.66    4.46
  -1 -14  -4   12.12    2.23
  -1  14  -4   13.74    2.91
  -2 -14  -4   28.42    3.04
   2 -14   4   26.57    2.80
  -2 -14  -4   23.27    3.08
  -2  14  -4   23.18    4.07
  -3 -14  -4    2.87    1.01
   3 -14   4    2.53    0.93
  -3 -14  -4    1.49    1.57
   3 -15  -4    8.39    1.32
   3  15  -4    5.57    1.58
   2 -15  -4    0.20    0.71
   2  15  -4    0.95    1.13
   1 -15  -4   17.12    2.11
   1  15  -4   17.26    3.39
   0 -15  -4    2.61    0.89
   0  15  -4   -0.19    1.08
  -1 -15  -4   17.18    2.17
  -1  15  -4   12.06    2.79
  -2 -15  -4   -2.08    0.85
   2 -15   4    0.10    0.84
   3 -16  -4    6.19    1.01
   2 -16  -4   17.06    2.14
   2  16  -4   26.13    3.11
   1 -16  -4   15.77    1.75
   1  16  -4    9.92    2.22
   0 -16  -4   31.72    2.78
   0  16  -4   33.07    3.98
  -1 -16  -4   12.46    2.51
  -1  16  -4   10.46    2.30
   2 -16   4   10.83    1.46
   1 -17  -4    0.30    0.90
   0  17  -4   16.50    3.05
   5   0  -5    0.53    0.53
   4   0  -5    0.38    0.41
   3   0  -5    0.07    0.42
   3   0  -5    0.80    0.40
   2   0  -5    1.47    0.54
   2   0  -5    0.99    0.53
   1   0  -5    0.80    0.27
   0   0  -5    0.97    0.78
   0   0  -5    0.43    0.30
  -1   0  -5    0.77    0.25
  -1   0  -5    0.35    0.96
  -2   0  -5    0.34    1.21
   3   0   5    0.94    0.55
  -3   0  -5    2.69    1.51
  -4   0  -5    0.01    0.71
   5  -1  -5   22.09    2.16
   5   1  -5   18.29    1.93
   4  -1  -5   43.52    3.36
   4   1  -5   39.65    3.17
   3  -1  -5   14.18    2.32
   3   1  -5   13.31    2.21
   3   1  -5   17.85    1.83
   2  -1  -5   81.10    4.11
   2  -1  -5   81.09    3.36
   2   1  -5   82.18    4.09
   2   1  -5   83.12    4.16
   1  -1  -5  137.68    4.46
   1  -1  -5  140.07    4.91
   1   1  -5  134.03    4.77
   1   1  -5  137.08    5.15
   0  -1  -5   94.63    4.32
   0  -1  -5  102.09    3.83
   0   1  -5   96.33    4.63
   0   1  -5  100.77    3.55
  -1  -1  -5    6.40    0.79
  -1  -1  -5    6.29    1.73
  -1   1  -5    5.14    1.80
  -1   1  -5    5.85    0.62
   2  -1   5    4.22    1.28
  -2  -1  -5    7.67    2.48
  -2   1  -5    5.72    2.13
   3  -1   5   12.18    2.07
  -3  -1  -5   17.09    3.38
  -3   1  -5   16.30    3.36
   3   1   5   14.66    1.57
  -4  -1  -5    0.77    0.80
   4  -1   5    3.66    0.94
  -4   1  -5    1.75    0.73
  -5  -1  -5    7.62    1.85
  -5   1  -5    3.42    1.27
   6  -2  -5    1.24    0.63
   5  -2  -5   20.33    2.17
   5   2  -5   20.35    1.94
   4  -2  -5    4.22    1.19
   4   2  -5    4.77    1.21
   3  -2  -5  113.50    5.33
   3   2  -5  101.28    5.05
   2  -2  -5   49.11    3.20
   2  -2  -5   46.68    2.13
   2   2  -5   47.33    3.33
   1  -2  -5  284.95    6.09
   1  -2  -5  288.34    7.33
   1   2  -5  304.14    8.44
   1   2  -5  283.67    6.79
   0  -2  -5   11.95    1.67
   0  -2  -5   11.54    1.22
   0   2  -5   12.66    1.15
   0   2  -5   10.93    2.32
  -1  -2  -5  134.47    4.47
  -1  -2  -5  139.15    6.06
  -1   2  -5  137.25    3.47
  -1   2  -5  131.62    6.17
  -2  -2  -5    3.11    1.85
   2  -2   5    6.76    1.44
  -2   2  -5    6.09    2.15
  -3  -2  -5   99.44    6.55
   3  -2   5  106.89    5.58
  -3   2  -5   92.99    6.17
   4  -2   5    0.48    0.59
  -4  -2  -5    1.28    1.18
  -4   2  -5   -0.16    0.78
  -5  -2  -5   23.36    3.24
  -5   2  -5   30.88    5.08
   6  -3  -5    3.28    0.78
   5  -3  -5    2.94    0.63
   5   3  -5    2.12    0.52
   4  -3  -5   46.30    3.39
   4   3  -5   41.84    3.43
   3  -3  -5    1.75    0.64
   3   3  -5    2.31    0.83
   2  -3  -5    9.18    1.75
   2   3  -5   13.34    1.81
   1  -3  -5    2.51    0.62
   1  -3  -5    3.33    1.02
   1   3  -5    3.13    1.45
   0  -3  -5   51.97    3.00
   0  -3  -5   55.25    3.18
   0   3  -5   56.30    2.56
   0   3  -5   53.72    3.91
  -1  -3  -5    6.03    1.15
  -1  -3  -5    4.48    1.53
  -1   3  -5    5.02    0.48
  -1   3  -5    3.33    1.67
  -2  -3  -5   48.82    3.15
  -2  -3  -5   54.48    4.73
   2  -3   5   56.57    3.98
  -2   3  -5   53.07    4.49
   3  -3   5   62.61    4.35
  -3  -3  -5   53.48    4.70
  -3   3  -5   54.81    4.69
   4  -3   5   29.23    2.75
  -4  -3  -5   36.57    3.83
  -4   3  -5   43.03    4.00
   5  -3   5    6.57    1.41
  -5  -3  -5   10.89    2.41
  -5   3  -5    4.02    2.00
   6  -4  -5    2.24    0.80
   5  -4  -5   11.40    1.89
   4   4  -5    3.47    0.80
   3  -4  -5   33.03    2.86
   2  -4  -5    3.39    0.93
   2   4  -5    4.57    1.41
   1  -4  -5   46.02    2.19
   1  -4  -5   50.08    3.14
   1   4  -5   52.41    3.91
   0  -4  -5    2.36    0.87
   0   4  -5    1.70    1.34
  -1  -4  -5   40.09    3.51
  -1  -4  -5   40.77    2.66
  -1   4  -5   43.44    1.83
  -1   4  -5   38.85    3.83
  -2  -4  -5   20.24    3.60
  -2  -4  -5   21.27    1.89
   2  -4   5   19.65    2.32
  -2   4  -5   26.08    4.08
  -3  -4  -5   12.09    2.98
   3  -4   5    8.57    1.87
  -3   4  -5   10.54    2.44
  -4  -4  -5   23.46    4.19
   4  -4   5   22.81    2.16
  -4   4  -5   18.73    2.50
  -5  -4  -5   -0.75    1.29
   5  -4   5    1.87    0.81
  -5   4  -5    4.03    1.36
   6  -5  -5    0.57    0.72
   6   5  -5    1.97    0.67
   5  -5  -5   17.06    1.88
   5   5  -5   16.25    2.94
   4  -5  -5    1.06    0.50
   4   5  -5    0.77    0.59
   3  -5  -5   36.06    2.95
   3   5  -5   39.71    3.72
   2  -5  -5   33.42    2.76
   2   5  -5   32.66    3.42
   1  -5  -5   29.57    1.73
   1  -5  -5   32.26    2.68
   1   5  -5   34.99    3.46
   0  -5  -5  111.51    4.97
   0  -5  -5  110.30    4.63
   0   5  -5  107.78    6.00
  -1  -5  -5   83.53    4.27
  -1  -5  -5   85.34    4.94
  -1   5  -5   78.99    5.38
  -2  -5  -5   58.66    4.93
   2  -5   5   56.77    4.16
  -2  -5  -5   51.63    3.23
  -2   5  -5   49.44    4.58
   3  -5   5    5.15    1.30
  -3  -5  -5    6.70    1.98
  -3   5  -5    7.54    1.94
   4  -5   5   27.52    2.63
  -4  -5  -5   26.07    3.23
  -4   5  -5   25.24    3.10
   5  -5   5   11.07    2.08
  -5   5  -5   13.69    2.40
   5  -6  -5   41.26    3.46
   5   6  -5   42.80    3.77
   4  -6  -5   72.81    4.34
   4   6  -5   64.71    4.86
   3  -6  -5   71.90    4.33
   3   6  -5   70.59    5.25
   2  -6  -5   99.53    5.10
   2   6  -5  103.61    6.34
   1  -6  -5   55.85    3.70
   0  -6  -5  108.16    4.62
   0  -6  -5   78.97    4.53
   0   6  -5  105.10    6.24
  -1  -6  -5   38.93    3.55
  -1  -6  -5   40.50    3.07
  -1   6  -5   41.55    4.32
   2  -6   5   67.56    4.63
  -2  -6  -5   74.57    5.44
  -2   6  -5   66.29    5.24
  -3  -6  -5   22.36    3.08
   3  -6   5   20.74    2.38
  -3   6  -5   20.08    2.61
  -4  -6  -5   26.42    4.83
   4  -6   5   21.73    2.23
  -4   6  -5   20.53    2.64
  -5   6  -5    8.15    2.32
   5  -7  -5    5.96    0.84
   5   7  -5    6.44    1.44
   4  -7  -5   28.11    2.49
   4   7  -5   23.01    2.93
   3  -7  -5   12.24    1.51
   3   7  -5   13.90    2.82
   2  -7  -5    5.43    1.33
   2   7  -5    3.97    1.65
   1  -7  -5    6.49    1.50
   1   7  -5    5.70    1.94
   0  -7  -5    1.10    0.67
   0  -7  -5    1.16    0.72
   0   7  -5    1.49    1.54
  -1  -7  -5   24.94    2.42
  -1  -7  -5   24.83    3.02
  -1   7  -5   24.80    4.14
  -2  -7  -5    2.47    0.94
   2  -7   5    1.99    0.70
  -2  -7  -5    2.22    0.60
  -2   7  -5    1.49    1.52
   3  -7   5    0.02    0.54
  -3  -7  -5    1.46    1.24
  -3   7  -5    2.12    1.25
  -4  -7  -5    3.06    1.01
   4  -7   5    3.97    0.76
  -4   7  -5    5.74    1.70
   5  -8  -5    2.35    0.65
   5   8  -5    3.94    1.07
   4  -8  -5   34.05    2.87
   4   8  -5   33.30    3.49
   3  -8  -5    0.46    0.61
   3   8  -5   -0.11    0.70
   2  -8  -5   19.65    2.25
   2   8  -5   18.93    3.64
   1  -8  -5    4.77    1.39
   1   8  -5   11.20    2.84
   0  -8  -5   35.78    3.16
   0  -8  -5   38.10    3.01
   0   8  -5   41.14    4.67
  -1  -8  -5    6.82    1.64
  -1  -8  -5    5.91    1.35
  -1   8  -5    5.51    2.26
   2  -8   5   18.20    3.14
  -2  -8  -5   17.42    3.16
  -2  -8  -5   13.01    2.36
  -2   8  -5   20.16    3.80
   3  -8   5    7.54    1.51
  -3  -8  -5    9.19    2.15
  -4  -8  -5    4.82    1.72
   4  -8   5    3.01    0.88
   5  -9  -5   18.42    1.92
   5   9  -5   20.94    2.67
   4  -9  -5   -0.40    0.51
   4  -9  -5    0.86    0.50
   4   9  -5   -0.47    0.71
   3  -9  -5   12.16    1.51
   3   9  -5   11.00    2.44
   2  -9  -5    0.76    0.84
   2   9  -5    3.42    1.46
   1  -9  -5   23.26    2.60
   1   9  -5   21.89    4.15
   0  -9  -5   15.19    2.71
   0   9  -5   12.17    3.44
  -1  -9  -5    8.12    1.87
  -1  -9  -5    5.52    1.32
  -1   9  -5    6.44    2.09
   2  -9   5   -0.18    0.65
  -2  -9  -5    0.81    0.65
  -2  -9  -5    3.54    1.28
  -2   9  -5    2.19    1.23
   3  -9   5    5.42    2.66
  -3  -9  -5    6.18    1.51
  -3   9  -5    4.19    1.61
   4  -9   5    3.26    1.04
  -4  -9  -5    2.11    1.44
  -4   9  -5   -0.91    1.18
   5 -10  -5   11.46    1.88
   5  10  -5   14.55    2.58
   4 -10  -5   29.66    2.45
   4 -10  -5   28.13    2.35
   4  10  -5   31.17    3.49
   3 -10  -5    6.86    1.50
   3 -10  -5    2.40    0.66
   3  10  -5    2.00    1.09
   2 -10  -5   60.64    4.40
   2  10  -5   61.71    5.53
   1 -10  -5    2.25    0.84
   1  10  -5    0.59    1.29
   0 -10  -5   26.66    2.84
   0  10  -5   32.53    4.06
  -1 -10  -5   11.72    2.17
  -1 -10  -5   14.95    2.87
  -1  10  -5   15.28    3.26
   2 -10   5    3.05    1.00
  -2 -10  -5    1.11    0.92
  -2 -10  -5    0.27    0.68
  -2  10  -5    3.81    1.46
   3 -10   5   19.82    2.41
  -3 -10  -5   19.34    2.69
  -3  10  -5   15.26    2.88
  -4 -10  -5    4.66    1.67
   4 -11  -5   24.53    2.28
   4 -11  -5   24.44    2.21
   4  11  -5   21.01    3.96
   3 -11  -5   94.22    5.61
   3 -11  -5   91.39    4.97
   3  11  -5   94.74    6.89
   2 -11  -5   54.91    3.25
   2 -11  -5   55.63    4.19
   2  11  -5   57.18    5.27
   1 -11  -5  103.95    6.05
   1  11  -5   96.39    7.25
   0 -11  -5   27.37    2.90
   0  11  -5   29.41    3.93
  -1 -11  -5  126.20    6.71
  -1 -11  -5  120.24    6.60
  -1  11  -5  124.57    7.66
  -2 -11  -5   89.02    5.61
   2 -11   5   88.59    5.61
  -2 -11  -5   92.80    6.15
  -2  11  -5   88.32    6.30
   3 -11   5  105.42    6.26
  -3 -11  -5   84.88    6.31
  -3  11  -5   88.84    6.37
   4 -12  -5    0.13    0.68
   4 -12  -5    0.74    0.63
   4  12  -5    0.20    0.94
   3 -12  -5   -0.08    0.58
   3 -12  -5    1.65    0.63
   3  12  -5    3.79    1.22
   2 -12  -5    0.70    0.60
   2  12  -5   -0.10    0.94
   1 -12  -5    6.53    1.52
   1  12  -5    7.90    2.19
   0 -12  -5    0.37    0.71
   0  12  -5    0.29    0.95
  -1 -12  -5    1.39    0.74
  -1  12  -5    2.69    1.22
  -2 -12  -5    1.64    0.98
   2 -12   5    3.53    0.87
  -2  12  -5    2.08    1.01
  -3 -12  -5    0.20    0.92
   3 -12   5    2.28    0.74
  -3  12  -5    3.10    1.22
   4 -13  -5    7.20    1.02
   4  13  -5    7.95    1.86
   3 -13  -5   24.57    2.08
   3 -13  -5   24.31    2.35
   3  13  -5   28.39    3.30
   2 -13  -5   39.07    3.47
   2  13  -5   47.85    4.76
   1 -13  -5   35.91    3.28
   1  13  -5   40.84    4.42
   0 -13  -5   12.66    2.53
   0  13  -5   15.08    3.36
  -1 -13  -5   30.32    2.81
  -1  13  -5   27.17    3.39
  -2 -13  -5   34.57    3.44
  -2 -13  -5   34.87    3.64
   2 -13   5   31.89    3.24
  -2  13  -5   34.33    3.53
   3 -13   5   20.82    2.32
  -3 -13  -5   13.68    3.14
   4 -14  -5    5.14    0.77
   3 -14  -5    8.87    1.79
   3  14  -5    5.88    1.48
   2 -14  -5    0.34    0.68
   2  14  -5   -1.84    0.92
   1 -14  -5    2.20    0.73
   1  14  -5    2.83    1.12
   0 -14  -5    0.75    0.71
   0  14  -5   -1.21    0.86
  -1 -14  -5    9.09    1.65
  -1  14  -5    7.01    2.12
   2 -14   5    6.40    1.15
  -2 -14  -5    5.81    1.30
  -2  14  -5    6.94    1.92
  -3 -14  -5   -1.39    1.01
   3 -15  -5    0.28    0.81
   2 -15  -5   18.80    2.06
   2  15  -5   23.20    3.21
   1 -15  -5    0.95    0.88
   1  15  -5    1.44    1.38
   0 -15  -5   19.24    3.14
   0  15  -5   19.28    3.67
  -1 -15  -5   13.19    2.02
  -1  15  -5   10.37    2.38
  -2 -15  -5    4.88    1.20
  -2  15  -5    3.88    1.71
   2 -16  -5   76.42    5.07
   1 -16  -5    7.82    1.25
   1  16  -5    9.44    2.72
   0 -16  -5   82.03    5.79
   0  16  -5   82.24    6.84
  -1  16  -5    6.64    1.73
   0  17  -5   -0.08    1.25
   5   0  -6    2.37    0.61
   4   0  -6   25.63    2.66
   3   0  -6   64.97    4.27
   2   0  -6    1.29    0.80
   2   0  -6    1.92    0.69
   1   0  -6    1.15    0.76
   1   0  -6    1.80    0.66
   0   0  -6   11.20    2.32
   0   0  -6   10.48    1.15
  -1   0  -6    1.58    1.47
  -1   0  -6    1.53    0.45
  -2   0  -6   36.36    4.04
  -3   0  -6   42.04    4.18
  -4   0  -6   17.46    3.50
   6   1  -6   34.61    2.99
   5  -1  -6   22.71    2.14
   5   1  -6   14.91    1.66
   4  -1  -6   87.45    5.18
   4   1  -6   92.10    5.38
   3  -1  -6   28.67    2.70
   3   1  -6   27.24    2.56
   3   1  -6   30.79    2.83
   2  -1  -6  175.87    5.46
   2  -1  -6  159.84    6.15
   2   1  -6  166.15    6.25
   2   1  -6  168.07    6.43
   1  -1  -6    5.05    1.12
   1  -1  -6    7.74    1.63
   1   1  -6    6.52    1.79
   1   1  -6    4.97    0.99
   0  -1  -6  217.81    6.25
   0  -1  -6  212.39    7.09
   0   1  -6  208.28    7.50
   0   1  -6  210.38    5.79
  -1  -1  -6   31.98    3.58
  -1  -1  -6   27.42    1.85
  -1   1  -6   26.39    3.49
  -1   1  -6   28.13    1.63
  -2  -1  -6  155.93    7.96
  -2   1  -6  162.22    8.01
  -3  -1  -6    3.37    1.33
  -3   1  -6    2.57    1.13
  -4  -1  -6   64.78    5.60
   4  -1   6   73.05    4.86
  -4   1  -6   73.38    5.90
   6   2  -6    3.57    0.75
   5  -2  -6   96.03    5.54
   5   2  -6   95.56    5.65
   4  -2  -6    6.13    1.50
   4   2  -6    4.76    1.03
   3  -2  -6   84.69    4.84
   3   2  -6   88.16    4.97
   3   2  -6   85.13    4.79
   2  -2  -6    2.51    0.85
   2   2  -6    3.70    1.19
   2   2  -6    1.15    0.45
   1  -2  -6   50.86    2.97
   1  -2  -6   47.65    3.09
   1   2  -6   47.41    3.74
   1   2  -6   45.87    2.89
   0  -2  -6   19.85    2.30
   0  -2  -6   19.12    1.75
   0   2  -6   20.56    2.70
   0   2  -6   19.86    1.57
  -1  -2  -6   27.22    3.31
  -1  -2  -6   31.24    2.14
  -1   2  -6   23.07    3.67
  -2  -2  -6    2.99    1.73
  -2   2  -6    6.54    2.06
  -3  -2  -6   19.07    3.76
   3  -2   6   13.60    2.33
  -3   2  -6   13.35    2.67
  -4  -2  -6    7.50    1.78
   4  -2   6    7.79    1.28
  -4   2  -6    8.39    2.20
   6   3  -6   42.26    3.41
   5  -3  -6   11.74    2.08
   5   3  -6   10.86    1.89
   4  -3  -6   44.46    3.47
   4   3  -6   45.34    3.59
   3  -3  -6   46.80    3.49
   3   3  -6   37.31    3.36
   2  -3  -6  116.13    5.45
   2   3  -6  116.30    5.92
   1  -3  -6    6.39    0.87
   1  -3  -6    5.17    1.32
   1   3  -6    4.68    0.99
   1   3  -6    6.24    1.99
   0  -3  -6   77.32    3.96
   0  -3  -6   66.80    3.94
   0   3  -6   66.62    3.17
  -1  -3  -6   10.90    2.38
  -1  -3  -6   13.57    1.38
  -1   3  -6   14.25    3.16
  -2  -3  -6   54.36    4.68
  -2   3  -6   53.05    4.75
   3  -3   6   11.39    2.26
  -3  -3  -6   14.63    3.05
  -3   3  -6   13.83    2.84
  -4  -3  -6   16.53    3.10
   4  -3   6   12.16    2.02
  -4   3  -6   18.38    3.51
   6   4  -6    2.63    0.82
   5  -4  -6   77.66    4.78
   5   4  -6   77.29    4.83
   4  -4  -6   29.70    2.71
   4   4  -6   30.75    3.06
   3  -4  -6  144.19    6.51
   2   4  -6   19.10    3.28
   1  -4  -6  159.79    6.14
   1  -4  -6  159.49    4.80
   0  -4  -6   78.33    4.34
   0  -4  -6   81.25    4.23
   0   4  -6   75.76    5.30
   0   4  -6   81.67    3.44
  -1  -4  -6   44.82    3.81
  -1  -4  -6   44.04    2.85
  -1   4  -6   40.67    4.22
  -2  -4  -6   27.85    3.32
  -2   4  -6   20.39    3.58
  -3  -4  -6   27.91    3.37
   3  -4   6   23.09    2.35
  -3   4  -6   24.08    3.00
  -4  -4  -6   27.35    3.34
   4  -4   6   21.39    2.17
  -4   4  -6   31.35    3.25
   6   5  -6    1.12    0.75
   5  -5  -6    0.89    0.60
   4  -5  -6    0.65    0.51
   4   5  -6    0.61    0.87
   3  -5  -6    2.56    0.74
   3   5  -6    4.37    1.19
   2  -5  -6    2.94    0.96
   2   5  -6    4.09    1.83
   1  -5  -6   18.95    2.14
   1   5  -6   18.18    3.49
   0  -5  -6   75.41    4.28
   0  -5  -6   77.87    4.16
   0   5  -6   77.23    5.59
  -1  -5  -6    2.82    1.36
  -1  -5  -6    0.78    0.76
  -1   5  -6    0.31    1.36
  -2  -5  -6   12.16    2.78
  -2   5  -6   17.59    3.43
  -3  -5  -6    0.71    0.87
   3  -5   6    0.81    0.64
  -3   5  -6    1.25    0.76
   4  -5   6   13.29    2.32
  -4  -5  -6   12.02    2.85
  -4   5  -6   11.53    2.24
   6   6  -6    3.42    0.87
   5  -6  -6    8.07    1.39
   4  -6  -6   33.63    2.90
   4   6  -6   33.67    3.44
   3  -6  -6   13.63    1.73
   3   6  -6   11.97    2.64
   2  -6  -6    8.51    1.79
   2   6  -6    8.36    2.45
   1  -6  -6    5.97    1.43
   1   6  -6    5.96    2.39
   0  -6  -6   73.94    4.42
   0  -6  -6   67.49    3.88
   0   6  -6   65.16    5.35
  -1  -6  -6   56.75    4.27
  -1  -6  -6   57.89    3.85
  -1   6  -6   55.64    4.96
  -2  -6  -6   10.18    2.19
  -2   6  -6    6.72    2.02
  -3  -6  -6   18.34    2.49
   3  -6   6   12.88    2.26
  -3   6  -6   19.46    2.68
   4  -6   6    2.01    0.75
  -4  -6  -6    2.69    0.99
  -4   6  -6    3.04    1.00
   5  -7  -6    2.60    0.69
   5   7  -6    0.63    1.25
   4  -7  -6   11.68    1.42
   4   7  -6    9.57    1.96
   3  -7  -6    6.53    1.49
   3   7  -6    4.67    1.61
   2  -7  -6   72.89    4.64
   2   7  -6   75.43    6.01
   1  -7  -6    1.21    0.57
   1   7  -6    0.78    1.61
   0  -7  -6   84.55    5.00
   0  -7  -6   93.64    4.77
   0   7  -6   88.30    6.41
  -1  -7  -6    2.59    0.68
  -1  -7  -6    2.78    1.11
  -1   7  -6    0.70    1.28
  -2  -7  -6   26.36    3.06
  -2  -7  -6   28.14    2.57
  -2   7  -6   34.87    3.68
  -3  -7  -6   26.29    3.26
   3  -7   6   30.72    3.10
  -3   7  -6   35.61    3.52
   4  -7   6    5.39    0.90
  -4  -7  -6    5.52    1.42
   5  -8  -6   11.57    2.05
   5  -8  -6   10.37    1.51
   5   8  -6   11.07    2.12
   4  -8  -6    2.93    0.59
   4   8  -6    3.50    0.87
   3  -8  -6   35.46    3.17
   3   8  -6   29.55    3.74
   2  -8  -6    5.29    1.28
   2   8  -6    3.21    1.32
   1  -8  -6   48.01    3.82
   1   8  -6   51.69    5.00
   0  -8  -6    2.29    0.82
   0   8  -6    1.45    1.80
  -1  -8  -6  116.47    5.95
  -1  -8  -6  113.27    6.09
  -1   8  -6  114.07    7.08
  -2  -8  -6    2.06    1.25
  -2  -8  -6    0.42    0.67
  -2   8  -6    1.52    0.78
  -3  -8  -6   65.93    5.51
   3  -8   6   61.74    4.78
  -3   8  -6   66.05    5.15
  -4  -8  -6    2.09    1.22
   4  -8   6    0.70    0.85
  -4   8  -6    1.00    1.10
   5  -9  -6    0.45    0.67
   5   9  -6   -0.33    1.02
   4  -9  -6   30.62    2.75
   4   9  -6   33.72    3.76
   3  -9  -6    4.27    1.19
   3   9  -6    1.72    1.23
   2  -9  -6   45.37    3.81
   2   9  -6   38.54    4.59
   1  -9  -6   10.87    2.28
   1   9  -6   14.92    3.33
   0  -9  -6   18.37    3.12
   0   9  -6   20.99    3.98
  -1  -9  -6   25.85    2.76
  -1  -9  -6   23.26    2.47
  -1   9  -6   26.40    4.61
  -2  -9  -6   23.52    2.86
  -2  -9  -6   24.47    2.37
  -2   9  -6   27.10    3.18
  -3  -9  -6    3.13    1.13
   3  -9   6    3.38    1.01
  -3   9  -6    3.83    1.22
  -4   9  -6    5.76    1.34
   5  10  -6    1.08    1.05
   4 -10  -6    0.05    0.57
   4 -10  -6    1.03    0.77
   4  10  -6   -1.31    0.87
   3 -10  -6   18.71    1.94
   3  10  -6   18.24    3.32
   2 -10  -6    0.13    0.58
   2  10  -6    1.40    0.98
   1 -10  -6   22.89    2.55
   1  10  -6   29.73    3.54
   0 -10  -6   11.30    2.16
   0  10  -6   13.10    2.95
  -1 -10  -6   19.21    2.08
  -1 -10  -6   20.85    2.46
  -1  10  -6   19.82    3.70
  -2 -10  -6   12.09    2.55
  -2 -10  -6   12.59    1.56
  -2  10  -6    9.89    2.33
   3 -10   6    8.44    2.04
  -3 -10  -6    5.25    1.86
  -3  10  -6    7.44    1.55
  -4  10  -6    0.26    1.35
   4 -11  -6    3.36    0.66
   4 -11  -6    3.49    0.78
   4  11  -6    3.78    1.53
   3 -11  -6    6.08    1.30
   3 -11  -6    4.83    1.01
   3  11  -6    4.42    1.34
   2 -11  -6    7.90    1.63
   2  11  -6    6.62    2.34
   1 -11  -6    6.82    1.88
   1  11  -6    6.14    2.43
   0 -11  -6    0.85    0.69
   0  11  -6    1.03    1.35
  -1 -11  -6    4.23    1.16
  -1  11  -6    4.64    1.65
  -2 -11  -6   -0.02    0.77
  -2 -11  -6   -1.00    0.79
  -2  11  -6    0.00    0.85
   3 -11   6    4.06    1.02
  -3 -11  -6    5.11    1.43
  -3  11  -6    5.18    1.32
   4 -12  -6   20.68    2.19
   4 -12  -6   25.95    2.23
   4  12  -6   23.65    3.17
   3 -12  -6   16.56    1.77
   3 -12  -6   13.09    1.49
   3  12  -6   19.73    3.83
   2 -12  -6   22.00    2.30
   2  12  -6   19.58    4.02
   1 -12  -6    4.73    1.19
   1  12  -6    4.93    1.83
   0 -12  -6   26.55    2.59
   0  12  -6   26.73    4.96
  -1 -12  -6    1.43    0.93
  -1  12  -6    0.96    1.02
  -2 -12  -6    2.96    1.06
  -2 -12  -6    3.01    1.04
  -2  12  -6   -0.97    1.16
  -3 -12  -6   -0.48    1.10
  -3  12  -6    0.07    0.98
   4 -13  -6   13.95    2.15
   4 -13  -6   12.69    1.42
   3 -13  -6    2.51    0.90
   3  13  -6    0.49    1.34
   2 -13  -6   16.90    2.82
   2  13  -6   18.49    4.04
   1 -13  -6    1.72    0.79
   1  13  -6    1.45    1.15
   0 -13  -6   15.15    2.59
   0  13  -6   11.10    2.82
  -1 -13  -6    1.20    0.72
  -1  13  -6    1.71    1.09
  -2 -13  -6    9.77    2.11
  -2  13  -6    3.97    1.43
   3 -14  -6    3.22    1.16
   3  14  -6    1.49    1.08
   2  14  -6    6.21    1.89
   1 -14  -6    6.10    1.31
   1  14  -6    5.82    1.59
   0 -14  -6    0.80    0.84
   0  14  -6   -2.09    0.95
  -1 -14  -6   22.26    2.59
  -1  14  -6   28.11    3.46
  -2 -14  -6   -0.58    1.02
  -2  14  -6    1.80    1.30
   2 -15  -6   49.04    3.89
   2  15  -6   46.81    4.79
   1 -15  -6    0.17    0.81
   1  15  -6   -0.98    1.00
   0 -15  -6   69.18    5.09
   0  15  -6   59.12    5.76
  -1 -15  -6    1.24    0.90
  -1  15  -6    3.22    1.37
   6   0  -7    2.39    0.75
   5   0  -7   -0.07    0.57
   4   0  -7    0.16    0.50
   3   0  -7    0.98    0.45
   2   0  -7    1.75    0.81
   2   0  -7    0.63    0.48
   1   0  -7    0.57    0.83
   1   0  -7    0.19    0.32
   0   0  -7   -2.30    0.96
   0   0  -7    0.43    0.33
  -1   0  -7    1.52    1.65
  -2   0  -7    2.73    0.94
  -3   0  -7    2.44    0.89
  -4   0  -7    0.26    1.07
   6  -1  -7   20.65    2.06
   6   1  -7   24.05    2.29
   5  -1  -7   66.42    4.45
   5   1  -7   77.46    5.11
   4  -1  -7   15.28    2.77
   4   1  -7   13.87    1.70
   3  -1  -7   86.55    5.07
   3   1  -7   87.31    5.12
   2  -1  -7   24.94    2.42
   2   1  -7   26.36    2.51
   2   1  -7   29.99    2.84
   1  -1  -7  108.37    4.98
   1  -1  -7  120.33    5.26
   1   1  -7  116.70    5.07
   1   1  -7  113.93    5.68
   0  -1  -7    1.99    0.49
   0  -1  -7    1.61    1.12
   0   1  -7    2.52    1.53
   0   1  -7    1.35    0.54
  -1  -1  -7  117.25    6.61
  -1   1  -7  119.16    6.61
  -2  -1  -7   12.31    2.70
  -2   1  -7   11.82    2.74
  -3  -1  -7   52.76    4.78
  -3   1  -7   49.52    4.74
  -4  -1  -7    2.27    1.31
  -4   1  -7    3.45    1.15
   6  -2  -7    1.96    0.81
   6   2  -7    2.95    0.94
   5  -2  -7   -0.33    0.59
   5   2  -7    0.57    0.57
   4  -2  -7    2.96    0.88
   4   2  -7    1.38    0.61
   3  -2  -7    2.22    0.48
   3   2  -7    1.37    0.41
   3   2  -7    2.18    1.03
   2  -2  -7    3.11    1.12
   2   2  -7    2.91    0.93
   2   2  -7    6.70    1.75
   1  -2  -7    7.99    1.67
   1  -2  -7   11.99    1.67
   1   2  -7    8.87    1.64
   0  -2  -7    7.45    1.90
   0  -2  -7    7.06    1.32
   0   2  -7    7.05    0.89
   0   2  -7    5.20    2.00
  -1  -2  -7   20.30    1.73
  -1  -2  -7   21.87    3.60
  -1   2  -7   25.32    4.19
  -2  -2  -7    5.78    1.73
  -2   2  -7    7.60    2.15
  -3  -2  -7   10.85    2.61
  -3   2  -7    5.71    1.50
  -4  -2  -7    3.09    1.08
  -4   2  -7    3.26    1.54
   6   3  -7    0.26    0.80
   5  -3  -7    7.01    0.86
   5   3  -7    5.52    0.88
   4  -3  -7    3.03    0.75
   4   3  -7    4.52    1.04
   3  -3  -7   49.18    3.73
   3   3  -7   46.30    3.69
   3   3  -7   45.77    3.95
   2  -3  -7    1.78    0.59
   2   3  -7    1.44    0.54
   2   3  -7    1.36    1.07
   1  -3  -7   49.74    3.50
   1  -3  -7   50.63    3.16
   1   3  -7   53.64    3.34
   1   3  -7   52.42    4.51
   0  -3  -7    0.05    0.72
   0  -3  -7    1.72    0.54
   0   3  -7    1.14    0.43
   0   3  -7    0.33    1.42
  -1  -3  -7   38.91    2.69
  -1  -3  -7   39.03    3.72
  -1   3  -7   37.79    4.09
  -2  -3  -7    2.32    0.94
  -2   3  -7    2.76    1.17
  -3  -3  -7    4.47    1.14
  -3   3  -7    6.27    1.88
  -4  -3  -7    1.03    1.15
  -4   3  -7    0.71    1.49
   5  -4  -7    1.77    0.84
   5   4  -7    1.98    0.63
   4  -4  -7   31.62    2.99
   4   4  -7   33.57    3.00
   3  -4  -7   13.52    2.41
   3   4  -7   12.58    2.51
   2  -4  -7   58.07    4.08
   2   4  -7   54.14    4.64
   1  -4  -7   21.07    2.19
   1   4  -7   18.20    3.40
   1   4  -7   18.17    1.80
   0  -4  -7   17.07    2.08
   0  -4  -7   12.91    1.58
   0   4  -7   12.93    3.28
   0   4  -7   14.64    1.32
  -1  -4  -7   59.83    3.56
  -1  -4  -7   57.46    4.49
  -1   4  -7   56.75    4.96
  -2  -4  -7    7.23    2.28
  -2   4  -7    7.62    2.13
  -3  -4  -7   18.86    3.87
  -3   4  -7   22.79    2.74
  -4  -4  -7    1.27    1.07
  -4   4  -7    4.54    1.36
   5  -5  -7   13.20    1.55
   5   5  -7   11.11    1.35
   4  -5  -7    1.95    0.51
   4   5  -7    2.73    1.05
   3  -5  -7   31.40    3.06
   3   5  -7   38.91    3.92
   2  -5  -7   29.10    2.80
   2   5  -7   33.29    3.79
   1  -5  -7   21.84    2.35
   1   5  -7   22.98    3.91
   0  -5  -7    1.22    0.79
   0  -5  -7    1.26    0.53
   0   5  -7    0.96    0.36
   0   5  -7    1.94    1.87
  -1  -5  -7   10.68    1.27
  -1  -5  -7    8.84    2.36
  -1   5  -7   10.67    2.79
  -2  -5  -7   14.67    3.15
  -2   5  -7   12.33    2.72
  -3  -5  -7    6.10    1.68
  -3   5  -7    3.32    1.15
  -4  -5  -7    0.70    1.10
  -4   5  -7    2.19    1.13
   5  -6  -7    1.19    0.63
   4  -6  -7  127.47    6.60
   4   6  -7  128.39    7.64
   3  -6  -7   10.66    1.29
   3   6  -7    8.78    1.81
   2  -6  -7  161.18    7.22
   2   6  -7  166.85    8.36
   1  -6  -7    2.51    0.66
   1   6  -7    3.43    1.87
   0  -6  -7  236.27    8.47
   0  -6  -7  225.17    7.69
   0   6  -7  223.05    9.80
  -1  -6  -7   13.69    1.49
  -1  -6  -7   10.42    2.26
  -1   6  -7   10.54    2.64
  -2  -6  -7  124.23    7.20
  -2   6  -7  121.97    7.46
  -3  -6  -7   -0.65    0.76
  -3   6  -7    1.23    0.86
   4  -6   7   61.40    4.62
  -4   6  -7   72.99    5.90
   5  -7  -7    7.42    1.15
   4  -7  -7    6.60    1.45
   4   7  -7    5.14    1.62
   3  -7  -7    5.38    1.48
   3   7  -7    8.59    2.31
   2  -7  -7   20.27    2.27
   2   7  -7   17.65    3.43
   1  -7  -7   43.46    3.50
   1   7  -7   48.20    4.70
   0  -7  -7    7.21    1.51
   0   7  -7    8.18    2.54
  -1  -7  -7   37.32    3.36
  -1  -7  -7   43.14    3.31
  -1   7  -7   43.36    4.25
  -2  -7  -7    2.49    1.05
  -2   7  -7    3.13    1.30
  -3  -7  -7   28.62    3.21
  -3   7  -7   27.41    3.24
   5  -8  -7    0.42    0.77
   5   8  -7   -1.38    1.03
   4  -8  -7   13.63    1.51
   4   8  -7    9.24    2.13
   3  -8  -7    3.76    0.97
   3   8  -7    4.62    1.35
   2  -8  -7    1.87    0.61
   2   8  -7    2.40    1.59
   1  -8  -7    3.06    0.81
   1   8  -7    2.65    1.34
   0  -8  -7   37.09    3.16
   0   8  -7   32.88    3.96
  -1  -8  -7    5.09    1.15
  -1  -8  -7    6.41    1.30
  -1   8  -7    4.74    1.47
  -2  -8  -7   10.14    2.15
  -2   8  -7   13.03    2.80
  -3  -8  -7    1.73    1.06
  -3   8  -7    3.18    1.07
   5  -9  -7    6.91    0.99
   5   9  -7    8.71    1.88
   4  -9  -7    3.67    0.81
   4   9  -7    4.74    1.48
   3  -9  -7   24.30    2.45
   3   9  -7   22.93    3.08
   2  -9  -7   -0.04    0.66
   2   9  -7    0.80    0.85
   1  -9  -7   34.47    3.30
   1   9  -7   37.56    4.31
   0  -9  -7    3.14    0.73
   0   9  -7    3.24    1.15
  -1  -9  -7   23.30    2.31
  -1   9  -7   20.20    3.76
  -2  -9  -7    0.25    0.76
  -2   9  -7    0.06    0.78
  -3  -9  -7    9.03    1.69
  -3   9  -7   12.14    2.29
   5 -10  -7    0.40    0.85
   4 -10  -7   20.29    2.12
   4  10  -7   18.48    2.47
   3 -10  -7    0.67    0.64
   3  10  -7    1.37    1.01
   2 -10  -7   23.25    2.45
   2  10  -7   24.60    4.66
   1 -10  -7    3.05    0.84
   1  10  -7    2.46    1.04
   0 -10  -7   15.98    1.96
   0  10  -7   20.93    4.19
  -1 -10  -7   14.63    2.63
  -1  10  -7   17.86    3.75
  -2 -10  -7   29.46    3.08
  -2  10  -7   38.10    3.88
  -3  10  -7    0.05    0.95
   4 -11  -7    2.09    0.78
   4 -11  -7    2.46    0.85
   4  11  -7   -0.91    1.05
   3 -11  -7  152.81    7.87
   3  11  -7  157.91    9.80
   2 -11  -7    3.56    0.86
   2  11  -7    3.11    1.24
   1 -11  -7  117.82    6.80
   1  11  -7  122.06    8.26
   0 -11  -7   11.85    2.23
   0  11  -7   13.43    3.15
  -1 -11  -7  109.28    6.40
  -1  11  -7  107.33    7.43
  -2 -11  -7    7.64    1.24
  -2 -11  -7    6.18    1.79
  -2  11  -7    6.62    1.88
  -3 -11  -7   47.64    4.83
   4 -12  -7    3.88    0.72
   4 -12  -7    2.39    0.86
   3 -12  -7    4.17    1.26
   3  12  -7    3.51    1.20
   2 -12  -7    5.50    1.19
   2  12  -7   10.12    2.23
   1 -12  -7    2.07    0.72
   1  12  -7    0.29    1.41
   0 -12  -7    5.40    1.01
   0  12  -7   11.20    2.58
  -1 -12  -7    3.80    0.91
  -1  12  -7    2.21    1.09
  -2 -12  -7   10.15    1.31
  -2  12  -7   11.50    2.48
   3 -13  -7   36.62    3.15
   3  13  -7   31.91    4.10
   2 -13  -7    3.13    0.90
   2  13  -7   -0.20    1.13
   1 -13  -7   16.16    2.56
   1  13  -7   14.40    2.99
   0 -13  -7    6.39    0.93
   0  13  -7    2.58    1.37
  -1 -13  -7    9.70    1.70
  -1  13  -7    7.89    1.62
  -2 -13  -7    8.34    1.82
  -2  13  -7    8.80    1.68
   2 -14  -7   13.97    1.92
   2  14  -7    9.89    2.36
   1 -14  -7    4.30    0.90
   1  14  -7    2.70    1.14
   0 -14  -7   10.67    2.11
   0  14  -7   13.08    2.52
  -1 -14  -7   -0.53    0.95
  -1  14  -7   -1.92    0.99
   5   0  -8    0.41    0.61
   4   0  -8    1.81    0.58
   3   0  -8   15.50    2.76
   2   0  -8    2.40    0.63
   1   0  -8    1.26    0.42
   1   0  -8    1.97    1.10
   0   0  -8   34.36    2.54
   0   0  -8   36.33    3.54
  -1   0  -8    9.51    2.09
  -2   0  -8    4.74    1.61
  -3   0  -8   43.40    4.38
   5  -1  -8    5.14    0.87
   5   1  -8    3.71    1.11
   4  -1  -8   39.50    3.43
   4   1  -8   33.33    3.14
   3  -1  -8   30.76    2.81
   3   1  -8   29.40    2.79
   2  -1  -8   25.57    2.62
   2   1  -8   25.59    2.80
   2   1  -8   18.78    2.09
   1  -1  -8   41.72    3.19
   1  -1  -8   42.10    3.42
   1   1  -8   43.32    3.08
   1   1  -8   51.47    4.10
   0  -1  -8   26.23    2.82
   0  -1  -8   18.15    1.79
   0   1  -8   27.65    3.25
   0   1  -8   20.35    1.88
  -1  -1  -8    5.85    1.49
  -1   1  -8    5.42    1.68
  -2  -1  -8    9.29    2.34
  -2   1  -8    4.63    1.87
  -3  -1  -8    3.40    1.07
  -3   1  -8    4.68    1.49
   5  -2  -8    9.74    1.53
   5   2  -8    6.35    1.34
   4  -2  -8    5.54    1.27
   4   2  -8    4.01    0.84
   3  -2  -8    1.57    0.55
   3   2  -8   -0.08    0.43
   2  -2  -8    1.46    0.70
   2   2  -8   -0.09    0.43
   2   2  -8    0.59    0.87
   1  -2  -8   12.59    1.59
   1  -2  -8   12.27    2.23
   1   2  -8    7.41    1.39
   1   2  -8   11.81    2.52
   0  -2  -8    4.91    1.05
   0  -2  -8    8.67    2.00
   0   2  -8    9.67    2.38
   0   2  -8    5.34    1.09
  -1  -2  -8   32.14    3.37
  -1   2  -8   32.54    3.55
  -2  -2  -8   -0.88    0.83
  -2   2  -8    2.39    1.04
  -3  -2  -8   19.71    2.65
  -3   2  -8   20.37    3.78
   5  -3  -8    5.28    0.78
   5   3  -8    5.07    1.11
   4  -3  -8   16.14    1.83
   4   3  -8   13.49    2.60
   3  -3  -8   20.91    2.30
   3   3  -8   19.51    2.39
   3   3  -8   21.41    2.54
   2  -3  -8   41.17    3.39
   2   3  -8   43.19    3.70
   2   3  -8   42.31    3.38
   1  -3  -8   64.20    4.12
   1   3  -8   63.92    3.78
   1   3  -8   66.65    5.09
   0  -3  -8   23.88    2.23
   0  -3  -8   30.16    2.86
   0   3  -8   27.85    2.19
   0   3  -8   33.46    3.62
  -1  -3  -8   43.64    3.95
  -1   3  -8   39.92    4.17
  -2  -3  -8   12.59    2.57
  -2   3  -8   15.15    2.96
  -3  -3  -8   22.44    3.08
  -3   3  -8   25.48    2.95
   5  -4  -8    3.42    0.80
   5   4  -8    2.75    0.68
   4  -4  -8   20.31    2.16
   4   4  -8   22.18    2.27
   3  -4  -8   17.93    1.96
   3   4  -8   19.27    2.58
   3   4  -8   20.54    2.21
   2  -4  -8   15.48    1.88
   2   4  -8   19.05    2.10
   2   4  -8   15.20    2.91
   1  -4  -8   18.00    1.92
   1   4  -8   17.50    1.83
   1   4  -8   20.77    3.59
   0  -4  -8   99.56    5.34
   0  -4  -8   95.30    5.00
   0   4  -8  100.18    6.19
  -1  -4  -8   18.74    2.40
  -1   4  -8   22.45    3.00
  -2  -4  -8   47.71    4.34
  -2   4  -8   46.72    4.26
  -3  -4  -8   20.83    4.04
  -3   4  -8   20.37    2.73
   5  -5  -8    7.65    1.45
   5   5  -8    6.18    1.28
   4  -5  -8    0.35    0.57
   4   5  -8    0.09    0.52
   3  -5  -8    3.42    1.03
   3   5  -8    4.54    1.34
   3   5  -8    3.00    1.10
   2  -5  -8    4.19    1.18
   2   5  -8    3.10    1.56
   2   5  -8    2.41    0.67
   1  -5  -8   14.76    2.52
   1   5  -8   11.60    1.45
   1   5  -8   14.63    2.96
   0  -5  -8    2.38    0.85
   0  -5  -8    4.80    1.17
   0   5  -8    4.64    2.07
  -1  -5  -8    2.50    0.64
  -1  -5  -8    3.41    1.18
  -1   5  -8    3.91    1.23
  -2  -5  -8    5.51    1.07
  -2   5  -8    3.78    0.94
  -3  -5  -8    1.73    1.16
  -3   5  -8    1.31    1.19
   5  -6  -8    4.16    1.05
   5   6  -8    2.82    0.84
   4  -6  -8    0.27    0.58
   4   6  -8   -0.70    1.05
   3  -6  -8   19.29    2.32
   3   6  -8   24.91    3.06
   2  -6  -8   10.61    2.18
   2   6  -8   13.02    2.88
   1  -6  -8   70.37    4.57
   1   6  -8   73.42    5.58
   0  -6  -8   23.28    2.36
   0   6  -8   28.99    3.38
  -1  -6  -8   57.60    3.94
  -1  -6  -8   51.40    4.08
  -1   6  -8   55.83    4.82
  -2  -6  -8    4.71    1.36
  -2   6  -8    4.21    1.36
  -3  -6  -8   19.38    3.37
  -3   6  -8   22.32    3.02
   5  -7  -8    3.76    0.86
   4  -7  -8   26.36    2.43
   4   7  -8   28.13    3.27
   3  -7  -8    3.46    0.78
   3   7  -8    5.19    1.32
   2  -7  -8   16.94    3.03
   2   7  -8   15.29    3.15
   1  -7  -8    2.65    0.76
   1   7  -8    3.26    1.54
   0  -7  -8   13.78    2.42
   0   7  -8    9.72    2.50
  -1  -7  -8    1.00    0.99
  -1  -7  -8    0.66    0.58
  -1   7  -8    4.05    1.21
  -2  -7  -8    2.90    1.03
  -2   7  -8    3.11    1.40
  -3  -7  -8   -1.92    1.06
  -3   7  -8    1.61    0.95
   5  -8  -8   53.66    3.87
   4  -8  -8   53.73    4.19
   4   8  -8   57.52    5.13
   3  -8  -8   46.69    3.68
   3   8  -8   51.99    4.78
   2  -8  -8   79.01    5.19
   2   8  -8   78.08    6.27
   1  -8  -8   55.15    4.27
   1   8  -8   52.34    5.03
   0  -8  -8   39.65    3.33
   0   8  -8   46.41    4.60
  -1  -8  -8   15.74    1.93
  -1   8  -8   22.08    2.99
  -2  -8  -8   46.60    4.10
  -2   8  -8   37.81    4.09
  -3  -8  -8    6.20    1.63
  -3   8  -8    8.58    2.45
   4  -9  -8   19.85    1.85
   4   9  -8   16.88    2.95
   3  -9  -8   46.68    3.80
   3   9  -8   46.51    4.52
   2  -9  -8   12.94    2.34
   2   9  -8   12.91    2.74
   1  -9  -8   23.78    2.53
   1   9  -8   23.96    3.19
   0  -9  -8   23.14    2.29
   0   9  -8   21.54    4.32
  -1  -9  -8   46.22    3.38
  -1   9  -8   46.01    4.46
  -2  -9  -8   19.84    3.48
  -2   9  -8   22.68    3.02
  -3  -9  -8   34.44    4.28
   4 -10  -8    2.04    0.98
   4  10  -8    4.14    1.67
   3 -10  -8   25.58    2.58
   3  10  -8   21.19    4.14
   2 -10  -8    1.05    0.66
   2  10  -8    2.78    1.61
   1 -10  -8   20.34    2.05
   1  10  -8   19.28    3.73
   0 -10  -8    0.84    0.75
   0  10  -8    2.46    1.05
  -1 -10  -8    1.86    0.75
  -1  10  -8    0.17    0.91
  -2  10  -8    2.80    1.09
   3 -11  -8    3.35    0.86
   3  11  -8    1.68    1.43
   2 -11  -8    1.09    0.69
   2  11  -8    2.15    1.13
   1 -11  -8    1.68    0.94
   1  11  -8    0.44    1.00
   0 -11  -8    1.28    0.85
   0  11  -8    1.46    1.15
  -1 -11  -8   17.63    2.91
  -1  11  -8   14.74    3.25
  -2  11  -8    0.87    1.39
   3 -12  -8   21.96    2.23
   3  12  -8   18.64    3.69
   2 -12  -8   40.58    3.41
   2  12  -8   33.36    4.18
   1 -12  -8   16.79    3.26
   1  12  -8    9.62    2.07
   0 -12  -8   42.86    3.36
   0  12  -8   41.80    4.48
  -1 -12  -8    3.74    0.99
  -1  12  -8    4.51    1.26
   2 -13  -8   15.24    2.39
   2  13  -8   15.70    2.97
   1 -13  -8    8.18    1.48
   1  13  -8    1.96    1.41
   0 -13  -8   20.14    2.30
   0  13  -8   18.58    3.69
  -1 -13  -8   25.55    2.61
   5   0  -9   -0.06    0.75
   4   0  -9    0.40    0.63
   3   0  -9    0.41    0.50
   2   0  -9    0.11    0.47
   1   0  -9    3.03    0.92
   1   0  -9    1.25    0.69
   0   0  -9    1.87    0.86
   0   0  -9    1.07    0.45
  -1   0  -9    1.62    0.94
  -2   0  -9    2.93    1.14
  -3   0  -9   -0.76    1.15
   5  -1  -9   12.67    2.14
   5   1  -9   15.32    1.79
   4  -1  -9   17.28    2.05
   4   1  -9   17.79    2.09
   3  -1  -9   14.04    1.75
   3   1  -9   10.20    2.14
   2  -1  -9    8.56    1.52
   2   1  -9    9.34    1.95
   1  -1  -9    2.16    0.79
   1  -1  -9    1.75    0.64
   1   1  -9    2.42    1.11
   1   1  -9    2.71    0.66
   0  -1  -9   46.67    3.09
   0  -1  -9   46.49    3.94
   0   1  -9   50.00    4.23
  -1  -1  -9    3.65    1.00
  -1   1  -9    5.61    1.82
  -2  -1  -9   57.14    4.89
  -2   1  -9   51.91    4.65
  -3  -1  -9    2.80    1.18
  -3   1  -9    5.39    1.66
   5  -2  -9   27.78    2.65
   5   2  -9   24.17    2.48
   4  -2  -9   37.64    3.30
   4   2  -9   33.89    3.16
   3  -2  -9   63.28    4.56
   3   2  -9   74.92    5.02
   2  -2  -9   44.81    3.60
   2   2  -9   43.54    3.73
   2   2  -9   44.18    3.48
   1  -2  -9   28.66    2.60
   1   2  -9   32.64    3.29
   1   2  -9   27.81    2.38
   0  -2  -9   29.44    2.79
   0  -2  -9   21.72    2.04
   0   2  -9   26.05    2.91
  -1  -2  -9   35.33    3.40
  -1   2  -9   36.31    3.73
  -2  -2  -9   20.49    2.45
  -2   2  -9   20.06    2.54
  -3  -2  -9   14.97    3.38
  -3   2  -9   10.19    1.99
   5  -3  -9   29.24    2.44
   5   3  -9   25.89    2.50
   4  -3  -9    7.07    1.08
   4   3  -9    8.56    1.44
   3  -3  -9   39.31    3.42
   3   3  -9   37.11    3.27
   2  -3  -9   46.20    3.59
   2   3  -9   47.55    4.05
   2   3  -9   53.79    3.86
   1  -3  -9    2.25    0.67
   1   3  -9    0.47    0.79
   1   3  -9    0.15    0.44
   0  -3  -9   50.92    3.50
   0  -3  -9   47.12    3.65
   0   3  -9   49.52    4.34
  -1  -3  -9    2.88    0.84
  -1   3  -9    2.90    1.08
  -2  -3  -9   56.91    4.73
  -2   3  -9   64.28    5.34
  -3  -3  -9    1.03    1.18
  -3   3  -9   -1.10    0.98
   5  -4  -9   20.28    1.99
   4  -4  -9    6.67    1.01
   4   4  -9    8.03    1.25
   3  -4  -9   16.56    2.02
   3   4  -9   17.99    2.08
   2  -4  -9   10.72    2.19
   2   4  -9    9.21    2.16
   2   4  -9   10.09    1.93
   1  -4  -9   26.65    2.51
   1   4  -9   22.91    2.95
   1   4  -9   23.83    2.37
   0  -4  -9    5.72    1.15
   0   4  -9    7.05    2.02
  -1  -4  -9   12.91    2.47
  -1   4  -9   11.85    2.74
  -2  -4  -9    2.03    0.99
  -2   4  -9    3.25    1.14
  -3  -4  -9    1.80    1.15
   4  -5  -9   23.24    2.14
   4   5  -9   26.34    2.64
   3  -5  -9   12.59    1.51
   3   5  -9   10.28    2.47
   3   5  -9    8.58    1.39
   2  -5  -9   28.96    2.62
   2   5  -9   31.00    2.58
   2   5  -9   27.50    3.02
   1  -5  -9    4.37    1.10
   1   5  -9    4.88    0.87
   1   5  -9    5.42    1.59
   0  -5  -9   23.06    2.24
   0   5  -9   22.44    4.05
  -1  -5  -9    2.59    1.04
  -1   5  -9    2.02    0.89
  -2  -5  -9   15.84    2.21
  -2   5  -9   18.72    2.61
  -3  -5  -9    0.02    1.06
   4  -6  -9    5.22    0.86
   4   6  -9    4.83    0.97
   3  -6  -9   36.80    3.22
   3   6  -9   41.32    3.43
   3   6  -9   45.27    4.37
   2  -6  -9   16.18    1.72
   2   6  -9   16.15    1.89
   2   6  -9   22.31    2.60
   1  -6  -9   69.91    4.79
   1   6  -9   65.84    4.04
   1   6  -9   68.99    5.52
   0  -6  -9    4.59    1.32
   0   6  -9    6.58    1.81
  -1  -6  -9   46.74    3.85
  -1   6  -9   42.47    4.16
  -2  -6  -9    2.90    0.94
  -2   6  -9   -0.57    0.77
   4  -7  -9    2.55    0.72
   4   7  -9    2.58    0.73
   3  -7  -9   -0.91    0.60
   3   7  -9    2.43    1.03
   2  -7  -9    3.40    0.99
   2   7  -9    2.19    0.65
   2   7  -9    4.87    1.70
   1  -7  -9    3.65    0.93
   1   7  -9    4.38    0.86
   1   7  -9    6.97    1.92
   0  -7  -9    6.28    1.27
   0   7  -9    8.94    2.29
  -1   7  -9    4.88    1.69
  -2  -7  -9    0.16    1.24
  -2   7  -9   -0.06    1.05
   4  -8  -9    7.17    1.06
   4   8  -9    1.99    1.16
   3  -8  -9    5.99    1.04
   3   8  -9    3.97    1.53
   2  -8  -9   19.37    2.00
   2   8  -9   17.45    2.40
   1  -8  -9    0.91    0.66
   1   8  -9    2.24    1.11
   0  -8  -9   29.36    2.68
   0   8  -9   30.13    3.33
  -1   8  -9    6.30    1.49
  -2  -8  -9    4.51    1.18
  -2   8  -9    5.55    1.58
   4   9  -9   -0.82    1.32
   3  -9  -9   -0.04    0.70
   3   9  -9    0.09    1.10
   2  -9  -9   14.01    2.40
   2   9  -9   10.44    2.53
   1  -9  -9   31.63    2.76
   1   9  -9   27.73    4.90
   0  -9  -9   11.79    2.13
   0   9  -9    8.75    2.27
  -1   9  -9    8.31    1.54
   3 -10  -9    9.11    1.45
   3  10  -9   11.34    2.38
   2 -10  -9    0.75    0.77
   2  10  -9   -1.98    0.97
   1 -10  -9   18.04    2.12
   1  10  -9   14.74    3.14
   0 -10  -9    8.83    1.72
   0  10  -9    7.28    2.25
  -1 -10  -9   16.92    1.86
  -1  10  -9   16.56    3.09
   3  11  -9    5.66    1.44
   2 -11  -9   94.48    5.98
   2  11  -9   97.30    7.71
   1 -11  -9    7.09    0.92
   1  11  -9    8.94    2.60
   0 -11  -9   32.32    3.00
   0  11  -9   34.38    4.08
  -1 -11  -9    2.16    0.94
   1 -12  -9    2.82    1.11
   0 -12  -9    2.10    0.88
  -1 -12  -9    1.26    1.02
   4   0 -10    9.22    1.17
   3   0 -10   38.09    3.38
   2   0 -10    2.31    0.61
   1   0 -10   59.39    3.83
   0   0 -10    5.66    1.26
  -1   0 -10   57.41    4.63
  -2   0 -10    2.82    1.33
   4  -1 -10    2.70    0.71
   4   1 -10    2.29    0.68
   3  -1 -10   10.62    1.21
   3   1 -10   12.25    2.15
   2  -1 -10   12.73    2.48
   2   1 -10   10.23    1.87
   1  -1 -10    3.58    0.81
   1   1 -10    3.31    0.83
   1   1 -10    6.51    1.30
   0  -1 -10    2.85    1.10
   0   1 -10    4.39    1.05
  -1  -1 -10    1.54    1.22
  -1   1 -10   -0.38    0.72
  -2  -1 -10    1.46    0.97
  -2   1 -10    1.02    0.93
   4  -2 -10   26.53    2.46
   4   2 -10   29.67    2.75
   3  -2 -10   46.39    3.86
   3   2 -10   40.41    3.42
   2  -2 -10   20.81    2.14
   2   2 -10   16.68    1.80
   1  -2 -10   22.83    2.06
   1   2 -10   18.87    1.97
   1   2 -10   19.29    2.62
   0  -2 -10    6.08    1.46
  -1  -2 -10   20.46    2.53
  -1   2 -10   19.58    2.69
  -2  -2 -10   12.77    2.40
  -2   2 -10   12.83    2.82
   4  -3 -10    0.55    0.73
   4   3 -10    0.96    0.73
   3  -3 -10   30.61    3.15
   3   3 -10   35.51    3.14
   2  -3 -10    0.56    0.60
   2   3 -10    0.13    0.88
   2   3 -10   -0.61    0.51
   1  -3 -10   46.14    3.79
   1   3 -10   51.79    3.48
   1   3 -10   48.87    4.10
   0   3 -10    3.79    1.00
  -1  -3 -10   25.00    2.70
  -1   3 -10   25.66    2.86
  -2  -3 -10    7.56    2.31
  -2   3 -10    9.66    1.81
   4  -4 -10   25.96    2.76
   4   4 -10   27.34    2.53
   3  -4 -10    5.16    1.18
   3   4 -10    3.19    0.87
   2  -4 -10   39.37    3.14
   2   4 -10   46.57    3.83
   2   4 -10   42.54    3.36
   1  -4 -10    2.12    0.78
   1   4 -10    3.17    1.35
   1   4 -10    1.88    0.61
   0  -4 -10   45.78    3.18
   0   4 -10   44.59    4.09
  -1  -4 -10    0.12    0.81
  -1   4 -10    1.72    1.10
  -2  -4 -10   20.04    2.65
  -2   4 -10   20.70    2.73
   4  -5 -10   29.54    2.65
   4   5 -10   25.43    2.60
   3  -5 -10   11.61    1.37
   3   5 -10    8.76    1.41
   2  -5 -10   28.74    2.64
   2   5 -10   34.76    2.90
   2   5 -10   32.95    3.30
   1  -5 -10    9.05    1.59
   1   5 -10    9.96    2.04
   0  -5 -10   17.20    1.79
   0   5 -10   20.10    2.43
  -1   5 -10   16.98    2.13
  -2  -5 -10    8.25    1.86
   3   6 -10    0.47    0.88
   3   6 -10    1.36    0.68
   2  -6 -10    2.11    0.96
   2   6 -10    3.18    0.61
   2   6 -10    0.94    0.98
   1  -6 -10    3.77    0.76
   1   6 -10    6.65    1.48
   0  -6 -10   -1.57    0.70
  -1   6 -10    8.97    2.07
  -2  -6 -10   -1.12    1.00
   3  -7 -10    0.96    0.75
   3   7 -10    1.40    0.74
   3   7 -10    1.78    1.60
   2  -7 -10   22.35    2.25
   2   7 -10   16.88    3.15
   2   7 -10   21.38    2.10
   1  -7 -10    6.86    1.13
   1   7 -10    1.71    1.11
   0  -7 -10   43.27    3.47
   0   7 -10   38.41    4.16
  -1   7 -10    4.38    1.22
   3  -8 -10   44.16    3.39
   3   8 -10   41.34    4.28
   3   8 -10   43.77    3.53
   2  -8 -10   21.29    2.24
   2   8 -10   20.97    2.04
   2   8 -10   21.34    2.99
   1  -8 -10   33.03    3.05
   1   8 -10   30.02    3.59
   0  -8 -10   15.31    1.80
   0   8 -10   12.46    2.31
  -1   8 -10   11.23    2.55
   3   9 -10   17.34    1.89
   3   9 -10   20.12    3.92
   2  -9 -10    5.34    1.07
   2   9 -10    6.68    1.25
   1  -9 -10   14.76    1.75
   1   9 -10   13.75    3.03
   0  -9 -10    0.07    0.83
   0   9 -10    0.11    0.91
   2  10 -10    3.45    1.13
   1 -10 -10    2.89    0.86
   1  10 -10    0.82    1.16
   0 -10 -10   13.14    1.83
   3   0 -11    0.23    0.68
   2   0 -11   -0.72    0.65
   1   0 -11   -1.06    0.61
   0   0 -11    1.21    0.99
  -1   0 -11   -0.03    0.95
   3  -1 -11   49.84    4.01
   3   1 -11   45.53    3.71
   2  -1 -11   36.27    3.15
   2   1 -11   37.60    3.01
   1  -1 -11   20.77    2.03
   1   1 -11   27.05    2.46
   0   1 -11   47.39    4.04
  -1  -1 -11   34.07    3.50
  -1   1 -11   29.63    3.43
   3  -2 -11    0.97    0.69
   3   2 -11    1.02    0.71
   2  -2 -11   32.17    2.79
   2   2 -11   29.34    2.71
   1  -2 -11    4.72    1.22
   1   2 -11    6.00    1.10
   0   2 -11   25.03    2.69
  -1  -2 -11    2.61    1.10
  -1   2 -11   -1.49    0.97
   3  -3 -11   13.97    1.76
   3   3 -11   18.19    1.44
   2  -3 -11    0.08    0.66
   2   3 -11    0.64    0.65
   1  -3 -11   42.87    3.26
   1   3 -11   37.30    3.60
  -1  -3 -11   12.82    2.37
  -1   3 -11   14.08    2.78
   3  -4 -11   14.05    1.52
   3   4 -11   12.63    1.58
   2  -4 -11    1.27    0.70
   2   4 -11    1.89    0.80
   1  -4 -11   13.94    1.55
   1   4 -11   12.46    2.33
   0   4 -11    1.49    1.00
  -1   4 -11   17.45    3.35
   3  -5 -11    0.72    0.78
   3   5 -11    0.39    0.76
   2  -5 -11   14.44    1.66
   2   5 -11   14.79    3.03
   2   5 -11   18.47    1.58
   1  -5 -11    0.94    0.74
   1   5 -11   -0.61    0.99
   0   5 -11    2.43    1.57
   3   6 -11   15.86    1.59
   2  -6 -11   10.87    1.70
   2   6 -11   13.04    2.72
   2   6 -11   13.34    1.54
   1  -6 -11    9.81    1.77
   1   6 -11   10.50    1.75
   0   6 -11   11.06    2.36
   2  -7 -11   -0.46    0.79
   2   7 -11   -2.50    0.94
   2   7 -11    1.18    0.73
   1  -7 -11   19.97    1.70
   1   7 -11   21.95    3.00
   0   7 -11    0.67    1.03
   2   8 -11    0.59    1.20
   2   8 -11   -2.02    0.78
   1  -8 -11    4.32    0.90
   1   8 -11    6.12    1.59
   2   0 -12   39.99    2.93
   2  -1 -12   -0.89    0.92
   2   1 -12    0.71    0.77
   0   1 -12   -1.26    1.25
   2  -2 -12    0.06    0.77
   2   2 -12    0.65    0.77
   0   2 -12    5.82    1.57
   2  -3 -12   -0.13    0.79
   2   3 -12    0.29    0.85
   0   3 -12   14.69    2.01
   2  -4 -12    7.90    1.30
   2   4 -12    5.98    1.05
   1  -4 -12   14.11    1.69
   1   4 -12   12.83    2.75
   1  -5 -12   33.01    2.43
   1   5 -12   24.18    2.99
   0   0   0    0.00    0.00
;
_shelx_hkl_checksum              97996
loop_
_space_group_symop_operation_xyz
'x, y, z'
'-x, y+1/2, -z+1/2'
'-x, -y, -z'
'x, -y-1/2, z-1/2'
loop_
_atom_site_label
_atom_site_type_symbol
_atom_site_fract_x
_atom_site_fract_y
_atom_site_fract_z
_atom_site_U_iso_or_equiv
_atom_site_adp_type
_atom_site_occupancy
_atom_site_site_symmetry_order
_atom_site_calc_flag
_atom_site_refinement_flags_posn
_atom_site_refinement_flags_adp
_atom_site_refinement_flags_occupancy
_atom_site_disorder_assembly
_atom_site_disorder_group
Ga1 Ga 0.25135(18) 0.62902(6) 0.38667(10) 0.0049(2) Uani 1 1 d . . . . .
Cu1 Cu 0.2429(2) 0.45452(8) 0.95873(13) 0.0129(3) Uani 1 1 d . . . . .
P1 P 0.2588(4) 0.67351(15) 0.0417(2) 0.0062(4) Uani 1 1 d . . . . .
P2 P 0.2829(4) 0.49163(15) 0.6717(2) 0.0045(4) Uani 1 1 d . . . . .
K K 0.1891(4) 0.17215(15) 0.8020(2) 0.0199(5) Uani 1 1 d . . . . .
O1 O 0.2298(12) 0.6903(4) 0.1973(6) 0.0073(11) Uani 1 1 d . . . . .
O2 O 0.4427(13) 0.3341(4) 0.9729(7) 0.0121(13) Uani 1 1 d . . . . .
O3 O 0.1240(12) 0.7425(4) 0.4491(7) 0.0093(12) Uani 1 1 d . . . . .
O4 O 0.0885(12) 0.5854(4) 0.9776(6) 0.0090(12) Uani 1 1 d . . . . .
O5 O 0.2737(13) 0.5848(4) 0.5898(7) 0.0111(12) Uani 1 1 d . . . . .
O6 O 0.4573(12) 0.5033(4) 0.8241(6) 0.0072(11) Uani 1 1 d . U . . .
O7 O 0.6157(12) 0.5925(4) 0.4076(7) 0.0084(12) Uani 1 1 d . . . . .
O8 O 0.0091(12) 0.5332(4) 0.3086(7) 0.0091(12) Uani 1 1 d . . . . .
loop_
_atom_site_aniso_label
_atom_site_aniso_U_11
_atom_site_aniso_U_22
_atom_site_aniso_U_33
_atom_site_aniso_U_23
_atom_site_aniso_U_13
_atom_site_aniso_U_12
Ga1 0.0052(4) 0.0038(4) 0.0054(4) -0.0005(3) 0.0008(3) 0.0005(3)
Cu1 0.0147(6) 0.0086(5) 0.0182(6) 0.0022(4) 0.0103(4) 0.0016(4)
P1 0.0095(10) 0.0036(9) 0.0059(10) 0.0009(8) 0.0023(8) -0.0016(7)
P2 0.0017(9) 0.0054(9) 0.0065(9) 0.0007(8) 0.0008(7) 0.0017(7)
K 0.0182(10) 0.0169(10) 0.0208(11) 0.0014(8) -0.0045(8) 0.0022(8)
O1 0.013(3) 0.004(3) 0.006(3) 0.003(2) 0.003(2) 0.002(2)
O2 0.011(3) 0.008(3) 0.018(3) -0.001(2) 0.003(3) 0.002(2)
O3 0.004(3) 0.008(3) 0.015(3) -0.003(2) -0.002(2) 0.001(2)
O4 0.012(3) 0.006(3) 0.009(3) -0.001(2) 0.003(2) -0.004(2)
O5 0.013(3) 0.008(3) 0.013(3) 0.003(2) 0.005(2) 0.003(2)
O6 0.006(2) 0.012(3) 0.004(2) 0.001(2) 0.003(2) 0.002(2)
O7 0.007(3) 0.007(3) 0.012(3) -0.001(2) 0.003(2) 0.001(2)
O8 0.005(3) 0.010(3) 0.015(3) -0.005(2) 0.005(2) 0.001(2)
loop_
_atom_type_symbol
_atom_type_description
_atom_type_scat_dispersion_real
_atom_type_scat_dispersion_imag
_atom_type_scat_source
O O 0.0106 0.0060 'International Tables Vol C Tables 4.2.6.8 and 6.1.1.4'
P P 0.1023 0.0942 'International Tables Vol C Tables 4.2.6.8 and 6.1.1.4'
K K 0.2009 0.2494 'International Tables Vol C Tables 4.2.6.8 and 6.1.1.4'
Cu Cu 0.3201 1.2651 'International Tables Vol C Tables 4.2.6.8 and 6.1.1.4'
Ga Ga 0.2307 1.6083 'International Tables Vol C Tables 4.2.6.8 and 6.1.1.4'
loop_
_geom_angle_atom_site_label_1
_geom_angle_atom_site_label_2
_geom_angle_atom_site_label_3
_geom_angle
_geom_angle_site_symmetry_1
_geom_angle_site_symmetry_3
_geom_angle_publ_flag
O3 Ga1 O8 120.7(3) . . ?
O3 Ga1 O7 126.5(3) . . ?
O8 Ga1 O7 112.6(3) . . ?
O3 Ga1 O1 87.2(3) . . ?
O8 Ga1 O1 92.9(3) . . ?
O7 Ga1 O1 95.0(3) . . ?
O3 Ga1 O5 85.4(3) . . ?
O8 Ga1 O5 93.2(3) . . ?
O7 Ga1 O5 87.3(3) . . ?
O1 Ga1 O5 172.1(3) . . ?
O3 Ga1 K 81.89(19) . 2_656 ?
O8 Ga1 K 139.8(2) . 2_656 ?
O7 Ga1 K 52.60(19) . 2_656 ?
O1 Ga1 K 122.95(19) . 2_656 ?
O5 Ga1 K 53.21(19) . 2_656 ?
O3 Ga1 K 46.1(2) . 3_566 ?
O8 Ga1 K 94.8(2) . 3_566 ?
O7 Ga1 K 135.83(19) . 3_566 ?
O1 Ga1 K 47.83(18) . 3_566 ?
O5 Ga1 K 126.57(18) . 3_566 ?
K Ga1 K 121.95(4) 2_656 3_566 ?
O6 Cu1 O4 156.3(3) . 3_567 ?
O6 Cu1 O2 90.5(3) . . ?
O4 Cu1 O2 100.5(3) 3_567 . ?
O6 Cu1 O4 90.4(2) . . ?
O4 Cu1 O4 82.7(3) 3_567 . ?
O2 Cu1 O4 169.3(3) . . ?
O6 Cu1 O6 98.0(2) . 3_667 ?
O4 Cu1 O6 103.6(2) 3_567 3_667 ?
O2 Cu1 O6 86.3(2) . 3_667 ?
O4 Cu1 O6 83.1(2) . 3_667 ?
O6 Cu1 P2 31.45(18) . . ?
O4 Cu1 P2 125.66(19) 3_567 . ?
O2 Cu1 P2 95.2(2) . . ?
O4 Cu1 P2 91.11(18) . . ?
O6 Cu1 P2 129.30(15) 3_667 . ?
O6 Cu1 Cu1 55.17(18) . 3_667 ?
O4 Cu1 Cu1 145.42(19) 3_567 3_667 ?
O2 Cu1 Cu1 87.2(2) . 3_667 ?
O4 Cu1 Cu1 84.52(18) . 3_667 ?
O6 Cu1 Cu1 42.86(14) 3_667 3_667 ?
P2 Cu1 Cu1 86.50(7) . 3_667 ?
O6 Cu1 Cu1 127.20(19) . 3_567 ?
O4 Cu1 Cu1 42.16(18) 3_567 3_567 ?
O2 Cu1 Cu1 141.7(2) . 3_567 ?
O4 Cu1 Cu1 40.53(17) . 3_567 ?
O6 Cu1 Cu1 94.12(15) 3_667 3_567 ?
P2 Cu1 Cu1 113.26(7) . 3_567 ?
Cu1 Cu1 Cu1 118.35(8) 3_667 3_567 ?
O6 Cu1 K 151.20(18) . 4_566 ?
O4 Cu1 K 51.93(18) 3_567 4_566 ?
O2 Cu1 K 69.9(2) . 4_566 ?
O4 Cu1 K 105.17(18) . 4_566 ?
O6 Cu1 K 61.06(15) 3_667 4_566 ?
P2 Cu1 K 162.34(7) . 4_566 ?
Cu1 Cu1 K 101.59(7) 3_667 4_566 ?
Cu1 Cu1 K 76.89(6) 3_567 4_566 ?
O1 P1 O2 112.7(4) . 3_666 ?
O1 P1 O3 108.0(3) . 4_575 ?
O2 P1 O3 108.9(3) 3_666 4_575 ?
O1 P1 O4 110.2(3) . 1_554 ?
O2 P1 O4 112.0(3) 3_666 1_554 ?
O3 P1 O4 104.6(3) 4_575 1_554 ?
O1 P1 K 135.6(3) . 2 ?
O2 P1 K 111.2(3) 3_666 2 ?
O3 P1 K 50.6(2) 4_575 2 ?
O4 P1 K 56.5(2) 1_554 2 ?
O1 P1 K 74.2(2) . 3_666 ?
O2 P1 K 52.9(2) 3_666 3_666 ?
O3 P1 K 88.6(2) 4_575 3_666 ?
O4 P1 K 163.3(3) 1_554 3_666 ?
K P1 K 131.91(8) 2 3_666 ?
O1 P1 K 47.9(2) . 3_566 ?
O2 P1 K 140.4(3) 3_666 3_566 ?
O3 P1 K 62.4(3) 4_575 3_566 ?
O4 P1 K 107.5(2) 1_554 3_566 ?
K P1 K 92.71(8) 2 3_566 ?
K P1 K 87.56(8) 3_666 3_566 ?
O5 P2 O6 109.6(4) . . ?
O5 P2 O7 113.4(4) . 3_666 ?
O6 P2 O7 110.9(3) . 3_666 ?
O5 P2 O8 109.0(4) . 3_566 ?
O6 P2 O8 106.3(3) . 3_566 ?
O7 P2 O8 107.3(3) 3_666 3_566 ?
O5 P2 Cu1 130.6(3) . . ?
O6 P2 Cu1 41.7(2) . . ?
O7 P2 Cu1 114.8(2) 3_666 . ?
O8 P2 Cu1 65.5(2) 3_566 . ?
O5 P2 K 57.3(2) . 2_556 ?
O6 P2 K 96.7(2) . 2_556 ?
O7 P2 K 152.1(2) 3_666 2_556 ?
O8 P2 K 59.4(2) 3_566 2_556 ?
Cu1 P2 K 83.35(7) . 2_556 ?
O5 P2 K 51.4(3) . 2_656 ?
O6 P2 K 66.1(2) . 2_656 ?
O7 P2 K 105.3(2) 3_666 2_656 ?
O8 P2 K 147.0(2) 3_566 2_656 ?
Cu1 P2 K 105.08(8) . 2_656 ?
K P2 K 88.71(8) 2_556 2_656 ?
O3 K O1 55.39(17) 3_566 3_566 ?
O3 K O2 103.35(19) 3_566 . ?
O1 K O2 72.79(18) 3_566 . ?
O3 K O7 164.92(19) 3_566 2_646 ?
O1 K O7 111.16(18) 3_566 2_646 ?
O2 K O7 76.25(18) . 2_646 ?
O3 K O5 141.11(19) 3_566 2_646 ?
O1 K O5 154.44(19) 3_566 2_646 ?
O2 K O5 82.81(18) . 2_646 ?
O7 K O5 53.97(17) 2_646 2_646 ?
O3 K O4 49.91(17) 3_566 2_546 ?
O1 K O4 94.14(18) 3_566 2_546 ?
O2 K O4 151.32(19) . 2_546 ?
O7 K O4 132.36(18) 2_646 2_546 ?
O5 K O4 111.16(18) 2_646 2_546 ?
O3 K O5 97.30(19) 3_566 2_546 ?
O1 K O5 70.00(18) 3_566 2_546 ?
O2 K O5 114.40(19) . 2_546 ?
O7 K O5 69.83(18) 2_646 2_546 ?
O5 K O5 115.3(2) 2_646 2_546 ?
O4 K O5 83.09(18) 2_546 2_546 ?
O3 K O8 107.92(18) 3_566 4_566 ?
O1 K O8 115.24(18) 3_566 4_566 ?
O2 K O8 146.01(19) . 4_566 ?
O7 K O8 70.07(17) 2_646 4_566 ?
O5 K O8 81.22(17) 2_646 4_566 ?
O4 K O8 62.62(17) 2_546 4_566 ?
O5 K O8 49.05(17) 2_546 4_566 ?
O3 K O3 102.08(16) 3_566 2_546 ?
O1 K O3 47.52(16) 3_566 2_546 ?
O2 K O3 65.27(17) . 2_546 ?
O7 K O3 63.79(17) 2_646 2_546 ?
O5 K O3 114.95(18) 2_646 2_546 ?
O4 K O3 124.12(18) 2_546 2_546 ?
O5 K O3 49.62(16) 2_546 2_546 ?
O8 K O3 95.02(17) 4_566 2_546 ?
O3 K O6 104.43(18) 3_566 2_646 ?
O1 K O6 158.54(17) 3_566 2_646 ?
O2 K O6 123.53(18) . 2_646 ?
O7 K O6 87.73(16) 2_646 2_646 ?
O5 K O6 46.31(16) 2_646 2_646 ?
O4 K O6 64.86(16) 2_546 2_646 ?
O5 K O6 109.51(17) 2_546 2_646 ?
O8 K O6 60.46(16) 4_566 2_646 ?
O3 K O6 148.34(16) 2_546 2_646 ?
O3 K P2 95.92(14) 3_566 2_546 ?
O1 K P2 89.29(14) 3_566 2_546 ?
O2 K P2 138.33(16) . 2_546 ?
O7 K P2 75.89(13) 2_646 2_546 ?
O5 K P2 104.56(14) 2_646 2_546 ?
O4 K P2 64.38(13) 2_546 2_546 ?
O5 K P2 25.38(12) 2_546 2_546 ?
O8 K P2 26.08(11) 4_566 2_546 ?
O3 K P2 74.80(12) 2_546 2_546 ?
O6 K P2 85.50(12) 2_646 2_546 ?
O3 K P1 24.95(13) 3_566 2_545 ?
O1 K P1 70.85(13) 3_566 2_545 ?
O2 K P1 128.31(15) . 2_545 ?
O7 K P1 151.94(14) 2_646 2_545 ?
O5 K P1 132.87(15) 2_646 2_545 ?
O4 K P1 25.83(12) 2_546 2_545 ?
O5 K P1 85.74(14) 2_546 2_545 ?
O8 K P1 83.64(13) 4_566 2_545 ?
O3 K P1 110.64(13) 2_546 2_545 ?
O6 K P1 87.69(12) 2_646 2_545 ?
P2 K P1 76.16(7) 2_546 2_545 ?
P1 O1 Ga1 143.9(4) . . ?
P1 O1 K 108.9(3) . 3_566 ?
Ga1 O1 K 101.5(2) . 3_566 ?
P1 O2 Cu1 123.2(4) 3_666 . ?
P1 O2 K 102.5(3) 3_666 . ?
Cu1 O2 K 118.7(3) . . ?
P1 O3 Ga1 134.5(4) 4_576 . ?
P1 O3 K 104.4(3) 4_576 3_566 ?
Ga1 O3 K 105.5(3) . 3_566 ?
P1 O3 K 92.6(3) 4_576 2_556 ?
Ga1 O3 K 102.4(2) . 2_556 ?
K O3 K 118.1(2) 3_566 2_556 ?
P1 O4 Cu1 122.7(4) 1_556 3_567 ?
P1 O4 Cu1 125.0(4) 1_556 . ?
Cu1 O4 Cu1 97.3(3) 3_567 . ?
P1 O4 K 97.7(3) 1_556 2_556 ?
Cu1 O4 K 96.9(2) 3_567 2_556 ?
Cu1 O4 K 114.4(2) . 2_556 ?
P2 O5 Ga1 138.4(4) . . ?
P2 O5 K 104.8(3) . 2_656 ?
Ga1 O5 K 93.9(2) . 2_656 ?
P2 O5 K 97.4(3) . 2_556 ?
Ga1 O5 K 107.8(2) . 2_556 ?
K O5 K 115.3(2) 2_656 2_556 ?
P2 O6 Cu1 106.9(3) . . ?
P2 O6 Cu1 169.7(4) . 3_667 ?
Cu1 O6 Cu1 82.0(2) . 3_667 ?
P2 O6 K 89.1(3) . 2_656 ?
Cu1 O6 K 152.8(3) . 2_656 ?
Cu1 O6 K 80.76(17) 3_667 2_656 ?
P2 O7 Ga1 125.0(4) 3_666 . ?
P2 O7 K 131.8(3) 3_666 2_656 ?
Ga1 O7 K 97.1(2) . 2_656 ?
P2 O8 Ga1 132.0(4) 3_566 . ?
P2 O8 K 94.5(3) 3_566 4_565 ?
Ga1 O8 K 121.9(3) . 4_565 ?
loop_
_geom_bond_atom_site_label_1
_geom_bond_atom_site_label_2
_geom_bond_distance
_geom_bond_site_symmetry_2
_geom_bond_publ_flag
Ga1 O3 1.852(6) . ?
Ga1 O8 1.853(6) . ?
Ga1 O7 1.855(6) . ?
Ga1 O1 1.955(6) . ?
Ga1 O5 1.984(6) . ?
Ga1 K 3.645(3) 2_656 ?
Ga1 K 3.757(3) 3_566 ?
Cu1 O6 1.938(6) . ?
Cu1 O4 1.948(6) 3_567 ?
Cu1 O2 1.950(6) . ?
Cu1 O4 2.012(6) . ?
Cu1 O6 2.339(6) 3_667 ?
Cu1 P2 2.789(3) . ?
Cu1 Cu1 2.821(3) 3_667 ?
Cu1 Cu1 2.973(2) 3_567 ?
Cu1 K 3.734(3) 4_566 ?
P1 O1 1.514(6) . ?
P1 O2 1.524(7) 3_666 ?
P1 O3 1.534(6) 4_575 ?
P1 O4 1.548(6) 1_554 ?
P1 K 3.521(3) 2 ?
P1 K 3.567(3) 3_666 ?
P1 K 3.626(3) 3_566 ?
P2 O5 1.511(6) . ?
P2 O6 1.520(6) . ?
P2 O7 1.534(6) 3_666 ?
P2 O8 1.542(6) 3_566 ?
P2 K 3.497(3) 2_556 ?
P2 K 3.620(3) 2_656 ?
K O3 2.810(7) 3_566 ?
K O1 2.841(6) 3_566 ?
K O2 2.913(7) . ?
K O7 2.918(6) 2_646 ?
K O5 2.926(7) 2_646 ?
K O4 2.961(7) 2_546 ?
K O5 2.966(7) 2_546 ?
K O8 3.020(6) 4_566 ?
K O3 3.217(7) 2_546 ?
K O6 3.311(6) 2_646 ?
K P2 3.497(3) 2_546 ?
K P1 3.521(3) 2_545 ?
O1 K 2.841(6) 3_566 ?
O2 P1 1.524(7) 3_666 ?
O3 P1 1.534(6) 4_576 ?
O3 K 2.810(7) 3_566 ?
O3 K 3.217(7) 2_556 ?
O4 P1 1.548(6) 1_556 ?
O4 Cu1 1.948(6) 3_567 ?
O4 K 2.961(7) 2_556 ?
O5 K 2.926(7) 2_656 ?
O5 K 2.966(7) 2_556 ?
O6 Cu1 2.339(6) 3_667 ?
O6 K 3.311(6) 2_656 ?
O7 P2 1.534(6) 3_666 ?
O7 K 2.918(6) 2_656 ?
O8 P2 1.542(6) 3_566 ?
O8 K 3.021(6) 4_565 ?
