#------------------------------------------------------------------------------
#$Date: 2021-09-06 14:07:23 +0300 (Mon, 06 Sep 2021) $
#$Revision: 268747 $
#$URL: file:///home/coder/svn-repositories/cod/cif/7/70/79/7707922.cif $
#------------------------------------------------------------------------------
#
# This file is available in the Crystallography Open Database (COD),
# http://www.crystallography.net/
#
# All data on this site have been placed in the public domain by the
# contributors.
#
data_7707922
loop_
_publ_author_name
'Wang, Jinhui'
'Zhang, Xinyuan'
'Liang, Fei'
'Hu, Zhanggui'
'Wu, Yicheng'
_publ_section_title
;
 Co-crystal
 AX&#x00B7;(H<sub>3</sub>C<sub>3</sub>N<sub>3</sub>O<sub>3</sub>) (A = Na,
 Rb, Cs; X = Br, I): a series of strongly anisotropic alkali halide
 cyanurates with a planar structural motif and large birefringence.
;
_journal_issue                   33
_journal_name_full
'Dalton transactions (Cambridge, England : 2003)'
_journal_page_first              11555
_journal_page_last               11561
_journal_paper_doi               10.1039/d1dt02217b
_journal_volume                  50
_journal_year                    2021
_chemical_formula_moiety         'Br, 0.25(C12 H12 N12 O12 Rb4)'
_chemical_formula_sum            'C3 H3 Br N3 O3 Rb'
_chemical_formula_weight         294.46
_space_group_crystal_system      orthorhombic
_space_group_IT_number           57
_space_group_name_Hall           '-P 2c 2b'
_space_group_name_H-M_alt        'P b c m'
_atom_sites_solution_hydrogens   mixed
_atom_sites_solution_primary     dual
_audit_creation_date             2020-11-23
_audit_creation_method
;
Olex2 1.2
(compiled 2017.08.10 svn.r3458 for OlexSys, GUI svn.r5381)
;
_audit_update_record
;
2021-06-30 deposited with the CCDC.	2021-07-26 downloaded from the CCDC.
;
_cell_angle_alpha                90
_cell_angle_beta                 90
_cell_angle_gamma                90
_cell_formula_units_Z            4
_cell_length_a                   6.7921(7)
_cell_length_b                   8.5866(8)
_cell_length_c                   12.8580(15)
_cell_measurement_reflns_used    935
_cell_measurement_temperature    295(2)
_cell_measurement_theta_max      25.65
_cell_measurement_theta_min      3.17
_cell_volume                     749.89(14)
_computing_cell_refinement       'SAINT V8.38A (?, 2016)'
_computing_data_reduction        'SAINT V8.38A (?, 2016)'
_computing_molecular_graphics    'Olex2 (Dolomanov et al., 2009)'
_computing_publication_material  'Olex2 (Dolomanov et al., 2009)'
_computing_structure_refinement  'ShelXL (Sheldrick, 2015)'
_computing_structure_solution    'ShelXT (Sheldrick, 2015)'
_diffrn_ambient_temperature      295.0
_diffrn_measured_fraction_theta_full 0.999
_diffrn_measured_fraction_theta_max 0.999
_diffrn_measurement_device_type  'CCD area detector'
_diffrn_measurement_method       'phi and omega scans'
_diffrn_radiation_monochromator  graphite
_diffrn_radiation_type           MoK\a
_diffrn_radiation_wavelength     0.71073
_diffrn_reflns_av_R_equivalents  0.0550
_diffrn_reflns_av_unetI/netI     0.0446
_diffrn_reflns_Laue_measured_fraction_full 0.999
_diffrn_reflns_Laue_measured_fraction_max 0.999
_diffrn_reflns_limit_h_max       8
_diffrn_reflns_limit_h_min       -6
_diffrn_reflns_limit_k_max       7
_diffrn_reflns_limit_k_min       -10
_diffrn_reflns_limit_l_max       11
_diffrn_reflns_limit_l_min       -15
_diffrn_reflns_number            3586
_diffrn_reflns_point_group_measured_fraction_full 0.999
_diffrn_reflns_point_group_measured_fraction_max 0.999
_diffrn_reflns_theta_full        25.022
_diffrn_reflns_theta_max         25.022
_diffrn_reflns_theta_min         2.999
_exptl_absorpt_coefficient_mu    11.891
_exptl_absorpt_correction_T_max  0.7459
_exptl_absorpt_correction_T_min  0.6020
_exptl_absorpt_correction_type   none
_exptl_absorpt_process_details
;
SADABS-2016/2 (Bruker,2016/2) was used for absorption correction.
wR2(int) was 0.1082 before and 0.0598 after correction.
The Ratio of minimum to maximum transmission is 0.8071.
The \l/2 correction factor is Not present.
;
_exptl_crystal_density_diffrn    2.608
_exptl_crystal_description       plate
_exptl_crystal_F_000             552
_refine_diff_density_max         0.523
_refine_diff_density_min         -0.544
_refine_diff_density_rms         0.140
_refine_ls_extinction_method     none
_refine_ls_goodness_of_fit_ref   1.108
_refine_ls_hydrogen_treatment    mixed
_refine_ls_matrix_type           full
_refine_ls_number_parameters     59
_refine_ls_number_reflns         694
_refine_ls_number_restraints     0
_refine_ls_restrained_S_all      1.108
_refine_ls_R_factor_all          0.0554
_refine_ls_R_factor_gt           0.0320
_refine_ls_shift/su_max          0.000
_refine_ls_shift/su_mean         0.000
_refine_ls_structure_factor_coef Fsqd
_refine_ls_weighting_details
'w=1/[\s^2^(Fo^2^)+(0.0152P)^2^] where P=(Fo^2^+2Fc^2^)/3'
_refine_ls_weighting_scheme      calc
_refine_ls_wR_factor_gt          0.0508
_refine_ls_wR_factor_ref         0.0590
_reflns_Friedel_coverage         0.000
_reflns_number_gt                510
_reflns_number_total             694
_reflns_threshold_expression     'I > 2\s(I)'
_cod_data_source_file            d1dt02217b2.cif
_cod_data_source_block           a
_cod_depositor_comments
'Adding full bibliography for 7707922--7707924.cif.'
_cod_database_code               7707922
_shelx_shelxl_version_number     2016/4
_shelx_space_group_comment
;
The symmetry employed for this shelxl refinement is uniquely defined
by the following loop, which should always be used as a source of
symmetry information in preference to the above space-group names.
They are only intended as comments.
;
_olex2_refinement_description
;
1. Fixed Uiso
 At 1.2 times of:
  All N(H) groups
2.a Aromatic/amide H refined with riding coordinates:
 N1(H1)
;
_shelx_res_file
;
TITL a_a.res in Pbcm
 a.res created by SHELXL-2016/4 at 12:55:17 on 23-Nov-2020
REM Old TITL a in Pbcm
REM SHELXT solution in Pbcm
REM R1 0.102, Rweak 0.002, Alpha 0.025, Orientation as input
REM Formula found by SHELXT: C6 O3 Br2
CELL 0.71073 6.7921 8.5866 12.858 90 90 90
ZERR 4 0.0007 0.0008 0.0015 0 0 0
LATT 1
SYMM -X,-Y,0.5+Z
SYMM -X,0.5+Y,0.5-Z
SYMM +X,0.5-Y,-Z
SFAC C H Br N O Rb
UNIT 12 12 4 12 12 4

L.S. 4 0 0
PLAN  20
TEMP 21.85
list 4
fmap 2 53
acta
SHEL 999 0.84
REM <olex2.extras>
REM <HklSrc "%.\\a.hkl">
REM </olex2.extras>

WGHT    0.015200
FVAR       0.43891
BR1   3    1.378109    0.436546    0.250000    10.50000    0.02731    0.02691 =
         0.03364    0.00000    0.00000   -0.00148
RB1   6    0.865274    0.287460    0.250000    10.50000    0.03136    0.02438 =
         0.03799    0.00000    0.00000    0.00262
O1    5    0.887076    0.559622    0.378880    11.00000    0.02817    0.04133 =
         0.03590   -0.01508    0.00432    0.00397
O2    5    0.307492    0.750000    0.500000    10.50000    0.01225    0.04635 =
         0.06512   -0.00698    0.00000    0.00000
N1    4    0.888236    0.750000    0.500000    10.50000    0.00876    0.02995 =
         0.02990   -0.00661    0.00000    0.00000
AFIX  43
H1    2    1.014854    0.750001    0.500000    10.50000   -1.20000
AFIX   0
N2    4    0.595487    0.648153    0.442360    11.00000    0.01560    0.02723 =
         0.03682   -0.00809   -0.00147   -0.00433
C1    1    0.796120    0.645970    0.435977    11.00000    0.02162    0.02995 =
         0.01876    0.00326    0.00148   -0.00119
C2    1    0.489325    0.750000    0.500000    10.50000    0.02104    0.02764 =
         0.02569   -0.00058    0.00000    0.00000
H2    2    0.543919    0.601539    0.406681    11.00000    0.01024
HKLF 4




REM  a_a.res in Pbcm
REM R1 =  0.0320 for     510 Fo > 4sig(Fo)  and  0.0554 for all     694 data
REM     59 parameters refined using      0 restraints

END

WGHT      0.0152      0.0000

REM Highest difference peak  0.523,  deepest hole -0.544,  1-sigma level  0.140
Q1    1   1.1244  0.3277  0.2500  10.50000  0.05    0.52
Q2    1   0.9631  0.5207  0.3176  11.00000  0.05    0.48
Q3    1   0.8629  0.2164  0.3394  11.00000  0.05    0.47
Q4    1   0.4558  0.5783  0.3774  11.00000  0.05    0.46
Q5    1   0.8544  0.5872  0.2500  10.50000  0.05    0.45
Q6    1   1.0993  0.4774  0.3384  11.00000  0.05    0.45
Q7    1   1.0431  0.4075  0.3930  11.00000  0.05    0.44
Q8    1   0.8966  0.6076  0.5195  11.00000  0.05    0.41
Q9    1   1.3948  0.3025  0.1618  11.00000  0.05    0.40
Q10   1   0.4135  0.7033  0.6220  11.00000  0.05    0.40
Q11   1   0.6800  0.6446  0.2500  10.50000  0.05    0.40
Q12   1   1.4437  0.3397  0.3294  11.00000  0.05    0.39
Q13   1   0.8156  0.5173  0.3362  11.00000  0.05    0.39
Q14   1   0.6065  0.6746  0.4980  11.00000  0.05    0.39
Q15   1   0.8395  0.7870  0.3393  11.00000  0.05    0.38
Q16   1   0.7509  0.6217  0.3350  11.00000  0.05    0.38
Q17   1   1.2548  0.4758  0.3375  11.00000  0.05    0.38
Q18   1   0.7964  0.0988  0.1443  11.00000  0.05    0.38
Q19   1   1.3453  0.4164  0.3823  11.00000  0.05    0.38
Q20   1   1.0438  0.5193  0.4266  11.00000  0.05    0.38
;
_shelx_res_checksum              65544
_shelx_hkl_file
;
   1   0   0    5.60    2.30
   2   0   0   11.20    4.20
   3   0   0  518.75   29.20
   4   0   0 6895.01  167.48
   4   0   0 7123.29  168.98
   5   0   0    4.80    6.90
   5   0   0    4.30    6.30
   6   0   0    7.50   11.30
   6   0   0   11.80    9.90
   7   0   0   51.09   18.30
   7   0   0   -5.80   12.20
   8   0   0  661.03   55.59
   8   0   0  629.54   62.79
   9   0   0   11.60   21.80
   0  -1   0    0.60    0.80
   0   1   0   -0.40    1.20
   0  -1   0    0.10    0.70
   0   1   0    0.00    1.10
   1  -1   0    7.20    3.90
  -1   1   0   12.80    4.20
   1  -1   0   15.30    5.30
  -2   1   0 2711.63   73.69
   2   1   0 2553.14   61.29
   2  -1   0 2620.64   76.99
   3  -1   0   81.49   16.40
   3  -1   0   89.99   17.00
   3   1   0   85.39    9.10
   4  -1   0   56.79   14.70
   4   1   0   62.69   12.50
   4  -1   0   57.59   15.90
   5   1   0  277.27   26.70
   5   1   0  276.87   23.70
   5  -1   0  241.28   29.40
   5  -1   0  265.07   29.90
   6  -1   0 1048.70   66.09
   6  -1   0 1030.10   67.89
   6   1   0 1058.79   54.29
   6   1   0 1078.89   59.99
   6   1   0 1055.39   60.69
   7   1   0  101.09   25.90
   7  -1   0   92.79   26.80
   7   1   0   54.59   16.20
   7   1   0   76.29   25.40
   7  -1   0   71.59   22.40
   8   1   0   48.60   18.20
   8   1   0   19.10   19.90
   8  -1   0   44.90   22.30
   9   1   0  154.28   41.90
   9  -1   0   80.59   30.70
   0   2   0 1108.99   40.40
   0  -2   0 1105.19   43.80
   0  -2   0 1189.48   38.80
   0   2   0 1157.98   41.90
   1  -2   0 1566.34   55.69
   1   2   0 1534.25   43.50
  -1  -2   0 1558.54   44.50
   1  -2   0 1472.65   56.49
   1   2   0 1552.74   36.60
   2  -2   0   68.49   13.60
   2  -2   0   94.29   17.60
  -2   2   0   63.19   12.40
  -3   2   0 1838.32   70.99
   3  -2   0 1818.12   75.89
   3  -2   0 1852.61   78.29
   4  -2   0    2.40    6.40
   4  -2   0   -6.50    5.00
   5  -2   0  723.83   54.59
   5  -2   0  761.32   56.09
   5   2   0  717.43   39.00
   6  -2   0  115.39   27.10
   6  -2   0  160.68   31.90
   6   2   0  143.59   24.70
   7  -2   0  483.35   51.79
   7  -2   0  355.06   55.89
   7   2   0  478.25   44.00
   8   2   0   -9.30   12.50
   8  -2   0   14.30   18.40
   9   2   0   30.30   33.60
   9  -2   0   13.00   21.60
   9  -2   0   57.69   32.80
   0   3   0   -0.20    3.10
   0   3   0   -4.50    2.80
   0  -3   0    1.10    2.60
   0  -3   0    4.50    3.60
   1   3   0 6657.03  134.29
  -1   3   0 6252.37  153.68
   1  -3   0 6102.39  154.28
   1  -3   0 6338.97  161.08
   1   3   0 6326.17  140.29
  -1  -3   0 6290.07  142.49
  -2   3   0   61.89   14.60
   2   3   0   50.89    9.00
   2  -3   0   59.09   16.30
   2  -3   0   32.90   11.50
  -2  -3   0   72.09   11.70
  -3   3   0 1977.20   81.99
   3  -3   0 2213.08   92.29
   3  -3   0 2078.29   92.09
   4  -3   0   36.30   13.90
   4  -3   0   43.00   15.50
   5  -3   0  994.90   69.49
   5  -3   0 1150.28   74.99
   6  -3   0   25.40   16.10
   6   3   0   20.40    8.10
   6  -3   0   -4.90   10.20
   7   3   0  224.78   28.60
   7  -3   0  218.18   42.60
   7  -3   0  150.58   37.80
   8   3   0   44.50   22.10
   8  -3   0   34.90   20.10
   8  -3   0   -1.20   19.30
   9  -3   0   75.89   37.40
   9  -3   0  110.59   34.60
   0   4   0  576.74   36.10
   0  -4   0  576.94   34.50
   0  -4   0  638.44   42.00
   1  -4   0  586.64   43.50
  -1  -4   0  496.85   33.70
   1   4   0  555.74   31.30
   1   4   0  535.45   34.20
  -1  -4   0  488.65   22.90
  -1   4   0  504.85   37.00
   1  -4   0  564.44   38.90
   2   4   0    0.70    3.50
  -2  -4   0    2.20    5.10
  -2   4   0   -5.30    3.60
   2  -4   0   -0.20    4.80
   2   4   0    6.00    4.90
   2  -4   0    6.10    5.10
   3  -4   0  197.98   34.90
   3  -4   0  189.08   33.70
   4  -4   0  215.88   40.00
   4  -4   0  209.48   37.90
   5  -4   0  532.15   54.69
   5  -4   0  514.05   52.19
   6  -4   0   72.19   35.10
   6  -4   0  143.29   37.20
   7  -4   0   59.09   26.00
   7   4   0   64.29   15.70
   7  -4   0   62.99   28.50
   8  -4   0  -36.50   20.10
   8  -4   0   54.69   25.30
   0   5   0    7.40    5.70
   0  -5   0   -5.90    4.20
   0  -5   0    4.20    5.50
   1  -5   0   21.90   11.30
   1  -5   0    5.30   10.30
  -1  -5   0    2.90    4.80
  -1   5   0   13.30    8.50
   1   5   0   -2.10    5.40
  -1  -5   0    6.80    7.90
   2  -5   0  421.56   41.80
   2   5   0  465.95   29.10
  -2  -5   0  380.36   31.50
   2  -5   0  398.86   43.50
   3   5   0  456.65   26.30
   3  -5   0  400.06   43.10
  -3  -5   0  443.16   30.80
   3  -5   0  365.16   43.50
   4  -5   0  110.89   28.70
   4  -5   0   80.69   27.60
   5  -5   0  111.99   30.80
   5  -5   0  118.29   32.00
   6  -5   0  216.68   49.30
   6  -5   0  217.78   47.00
   7  -5   0  126.19   37.00
   7  -5   0  199.68   41.20
   8  -5   0   43.00   23.20
   8  -5   0   15.60   25.60
   0  -6   0 1074.99   58.09
   0  -6   0 1032.40   67.79
  -1  -6   0   36.10    9.80
   1   6   0   33.00   14.60
  -1  -6   0   53.99   18.30
   1  -6   0   54.79   16.90
   1  -6   0   41.90   16.30
  -1  -6   0   37.10   11.50
   2   6   0   23.30   12.30
  -2  -6   0   -3.70    7.60
   2  -6   0   18.90   12.40
   2  -6   0   17.60   11.10
   3   6   0   42.40   10.50
  -3  -6   0   22.70   12.10
   3  -6   0   54.19   20.60
   3  -6   0   27.20   16.90
   4  -6   0  369.76   48.40
   4  -6   0  416.46   53.89
   5  -6   0   22.10   22.60
   5  -6   0    9.70   17.30
   6  -6   0    7.10   13.20
   6  -6   0   -5.20   17.00
   7  -6   0  -14.90   17.30
   8  -6   0   33.90   35.80
   0  -7   0   -1.20    9.20
   0  -7   0   -2.40    6.80
  -1  -7   0   73.29   15.50
   1  -7   0   87.19   26.30
  -1  -7   0   85.19   24.40
   1  -7   0  111.69   26.50
   2  -7   0  199.98   38.40
  -2  -7   0  146.89   29.90
   2  -7   0  108.19   31.40
   3  -7   0    1.70   11.20
   3  -7   0   -9.90    9.20
  -3  -7   0   11.10   11.30
   4  -7   0   30.60   15.90
   4  -7   0   10.20   15.80
   5  -7   0   22.90   18.70
   5  -7   0  -15.30   10.50
   6  -7   0   18.00   24.50
   6  -7   0   10.10   22.70
   7  -7   0   32.30   28.10
   7  -7   0   -1.90   22.40
   0  -8   0  525.65   44.90
   0  -8   0  512.45   54.69
   1  -8   0   20.00   15.20
  -1  -8   0   51.39   20.60
   1  -8   0   44.80   21.10
   2  -8   0   28.70   13.30
  -2  -8   0   26.30   14.90
  -3  -8   0   85.49   24.00
   3  -8   0   46.40   21.10
   3  -8   0   91.39   30.10
   4  -8   0  556.04   71.49
   4  -8   0  530.45   66.69
   5  -8   0   67.89   26.10
   5  -8   0   22.60   26.10
   6  -8   0  -11.00   24.00
   6  -8   0   30.00   24.30
   0  -9   0   23.40   12.00
   0  -9   0  -16.30   16.30
   0  -9   0    3.90   12.40
   1  -9   0   39.60   20.70
  -1  -9   0   15.90   18.90
   1  -9   0   48.70   22.10
  -2  -9   0  266.67   48.80
   2  -9   0  355.76   64.39
   2  -9   0  302.07   53.39
  -3  -9   0    8.70   18.80
   3  -9   0   24.40   21.80
   3  -9   0   -6.00   19.40
   4  -9   0    5.40   19.60
   4  -9   0  -30.10   16.70
   5  -9   0   24.00   19.90
   5  -9   0   30.90   30.80
   0 -10   0   66.99   24.40
   0 -10   0   32.10   25.90
   1 -10   0  185.08   38.60
   1 -10   0  164.78   43.90
  -1 -10   0  257.27   51.59
  -2 -10   0    4.30   22.70
   2 -10   0    1.60   18.70
   2 -10   0   -1.60   16.50
   3 -10   0   84.59   38.30
  -3 -10   0  121.49   39.10
   4 -10   0   -5.10   25.40
   4 -10   0   43.10   27.30
   0 -11   0  -21.00   27.30
  -1 -11   0  252.87   55.09
   1 -11   0  326.87   66.29
   2 -11   0   -2.90   23.20
  -2 -11   0  -46.90   25.60
   2 -11   0   28.20   30.00
   1   0  -1    0.70    1.40
  -1   0   1    0.30    1.40
   1   0  -1   -0.50    1.10
  -1   0   1    0.50    1.70
  -2   0   1    0.50    2.10
   2   0  -1   -0.10    1.90
   2   0  -1   -3.30    1.50
   3   0  -1    1.60    3.40
  -3   0   1    3.50    3.30
   3   0   1   -3.60    2.40
   3   0  -1   -2.20    2.90
   4   0   1    0.40    4.00
   4   0  -1    7.40    7.50
   4   0  -1    5.30    4.10
   5   0  -1   -3.70    5.90
   5   0   1   -8.10    4.70
   6   0   1   -4.00    6.40
   6   0  -1   -3.90    9.00
   6   0  -1    2.90    8.20
   7   0  -1   -9.90    8.50
   7   0   1   21.00   12.90
   7   0   1   14.20   11.70
   7   0  -1   -0.80   12.00
   8   0   1    9.40   14.30
   8   0  -1   13.10   15.90
   8   0  -1   17.00   16.00
   8   0   1  -16.90   14.40
   9   0  -1   38.20   24.60
   9   0   1  -11.00   18.80
   0   1   1   -1.30    1.30
   0  -1  -1   -0.10    1.20
   0  -1  -1   -0.80    1.20
   0   1   1    0.60    1.90
  -1  -1  -1   73.49    9.10
   1   1  -1   75.09    7.60
  -1   1   1   66.89   11.40
  -1   1   1   76.59    9.50
   1  -1  -1   76.99   10.00
   1   1   1   68.29    8.50
  -1  -1   1   67.69    5.90
  -2   1   1 4655.53  112.99
   2   1  -1 4697.03   98.59
  -2   1   1 4689.03  115.29
   2  -1   1 4537.05  110.99
   2   1   1 4497.55  107.39
   2  -1  -1 4528.65  116.79
   2  -1  -1 4539.55  116.49
   3  -1   1  143.99   17.50
  -3   1   1  162.28   17.30
   3   1  -1  144.79   14.50
   3   1  -1  153.88   11.90
   3   1   1  134.19   16.50
   3  -1  -1  163.38   19.50
   3  -1  -1  141.99   18.10
   4   1  -1    1.10    3.70
   4   1  -1   -6.50    4.10
   4  -1   1    2.10    5.70
   4   1   1  -10.00    4.90
   4   1   1    5.00    4.30
   4  -1  -1    2.40    4.70
   4  -1  -1   -7.40    4.20
   5  -1   1   88.99   21.60
   5   1  -1   86.49   17.90
   5  -1   1   65.19   18.00
   5   1  -1   70.89   14.90
   5   1   1  116.09   21.40
   5  -1  -1   61.89   23.50
   5  -1  -1   85.99   21.40
   5   1   1   85.29   16.30
   6   1  -1  734.63   43.20
   6  -1   1  769.92   56.39
   6   1  -1  678.43   51.29
   6  -1   1  729.83   54.79
   6  -1  -1  746.63   58.39
   6   1   1  740.33   45.80
   6   1   1  693.83   51.99
   6   1   1  723.53   47.60
   6  -1  -1  626.94   52.89
   7  -1   1   69.99   21.40
   7  -1   1   65.09   21.60
   7   1  -1   50.79   18.40
   7   1  -1   99.79   20.70
   7   1  -1   45.10   17.00
   7   1   1   52.69   15.80
   7  -1  -1   62.39   21.00
   7   1   1   63.29   21.90
   7   1   1   84.69   21.30
   7  -1  -1   54.89   20.60
   8   1  -1  -20.80   19.00
   8  -1   1  -16.50   17.50
   8  -1   1   15.80   17.10
   8   1   1  -10.50   14.80
   8  -1  -1   12.80   18.50
   8  -1  -1   12.10   15.30
   9  -1   1   69.09   22.80
   9   1  -1   38.70   26.60
   9  -1   1   21.00   27.00
   9   1   1   39.30   24.50
   9  -1  -1   24.00   26.70
   0   2   1 1354.76   45.50
   0   2   1 1361.46   50.29
   0  -2  -1 1418.36   45.40
   0  -2  -1 1510.15   52.49
   0  -2   1 1448.56   46.20
  -1   2   1  179.28   17.60
   1  -2   1  191.68   17.70
   1   2  -1  188.38   15.80
  -1  -2  -1  189.28   15.90
  -1   2   1  174.38   18.00
  -1  -2   1  169.78   11.30
  -1  -2   1  185.58   10.40
   1  -2  -1  211.48   18.90
  -1  -2   1  187.88   11.80
   1   2   1  188.28   19.30
   1  -2  -1  199.68   19.80
  -2  -2  -1    2.20    3.50
  -2   2   1   -1.90    2.70
   2  -2   1    2.20    3.20
   2   2  -1    1.20    2.10
   2   2   1    7.80    3.90
   2  -2  -1   -0.20    3.40
   2  -2  -1   -0.80    2.60
   3   2  -1   73.39    9.50
   3  -2   1  105.79   20.50
  -3   2   1   86.49   16.50
   3   2   1   97.79   15.00
   3  -2  -1   79.09   18.70
   3  -2  -1   71.09   16.60
   4  -2   1  956.10   57.69
   4   2  -1 1021.00   43.30
   4   2   1  997.70   47.10
   4  -2  -1 1012.70   62.09
   4  -2  -1 1026.80   62.19
   5   2  -1   86.79   17.00
   5  -2   1   51.69   16.90
   5   2   1   67.99   16.50
   5  -2  -1   73.09   21.60
   5   2   1   84.09   14.00
   5  -2  -1   88.99   23.00
   6   2  -1   19.70   11.20
   6  -2   1   20.60   12.40
   6  -2   1    7.20   12.00
   6   2   1   -5.50    6.60
   6   2   1   14.90    8.30
   6   2   1  -18.10   10.10
   6  -2  -1    3.60   11.10
   6  -2  -1   -3.40   10.40
   7   2  -1   16.50   12.60
   7  -2   1   -5.20   12.20
   7  -2   1   20.00   14.30
   7   2   1   16.20   11.30
   7  -2  -1    6.80   14.60
   7  -2  -1   -8.50   10.30
   8  -2   1  206.78   45.30
   8   2  -1  177.58   35.30
   8  -2   1  218.78   50.99
   8   2   1  269.27   41.60
   8  -2  -1  253.57   48.40
   8  -2  -1  150.08   37.90
   9  -2   1   39.30   25.30
   9  -2   1   -7.70   21.50
   9  -2  -1   17.20   25.70
   9  -2  -1   34.90   24.90
   0   3  -1    0.40    3.30
   0  -3   1    0.50    2.10
   0  -3  -1   -6.00    2.50
   0   3   1    0.50    3.20
   0  -3  -1    2.50    3.10
   0   3   1   -3.90    2.10
   1   3  -1 1407.76   48.00
  -1   3   1 1600.64   66.29
   1  -3   1 1473.45   60.89
   1  -3   1 1406.66   63.49
  -1  -3  -1 1423.26   56.29
  -1   3   1 1403.86   59.69
  -1   3  -1 1485.55   60.29
  -1  -3   1 1426.66   49.50
   1   3   1 1419.76   56.89
  -1  -3   1 1477.65   50.29
   1   3   1 1422.66   54.49
   1  -3  -1 1480.65   65.79
   1  -3  -1 1454.85   60.49
  -1  -3   1 1425.36   41.80
  -2  -3  -1   46.70   11.00
  -2   3   1   29.70   10.40
   2   3  -1   36.50    9.60
   2  -3   1   29.00   12.20
  -2   3   1   31.20    9.90
   2  -3   1   11.90    7.90
   2   3   1   25.30    7.60
   2  -3  -1   11.40    8.10
   2  -3  -1   45.20   14.60
  -3   3   1  485.45   39.40
  -3  -3  -1  490.45   29.60
   3  -3   1  522.85   42.30
   3  -3   1  520.25   45.00
   3  -3  -1  486.95   42.40
   3   3   1  523.35   27.40
   3  -3  -1  467.25   42.10
   4  -3   1   80.99   20.70
   4  -3   1   87.29   21.90
   4   3  -1   90.59   14.20
   4  -3  -1   85.19   22.50
   4  -3  -1  127.69   28.70
   5  -3   1  374.96   42.40
   5   3  -1  354.46   27.80
   5  -3   1  342.27   40.70
   5  -3  -1  357.26   42.60
   5  -3  -1  339.97   40.10
   6  -3   1    0.30   11.70
   6   3  -1    4.20    7.80
   6  -3   1   19.40   13.80
   6  -3  -1    0.40   11.10
   6   3   1  -11.30    6.20
   6  -3  -1   -7.00   11.60
   7  -3   1   56.49   21.40
   7  -3   1   79.29   25.00
   7   3  -1   34.00   13.10
   7   3   1   78.69   19.80
   7  -3  -1   27.70   16.10
   7  -3  -1   86.89   28.00
   8   3  -1   36.70   18.50
   8  -3   1   23.90   20.70
   8  -3   1   45.50   23.90
   8  -3  -1   10.20   18.80
   8   3   1   17.80   18.00
   8  -3  -1   22.60   24.30
   9  -3   1   60.39   27.30
   9  -3   1  -12.70   24.80
   9  -3  -1   80.39   35.00
   9  -3  -1  -12.80   25.80
   0  -4   1    5.40    4.00
   0   4   1    2.20    3.40
   0   4  -1    8.40    6.20
   0  -4  -1    5.40    5.80
   0   4   1   -3.40    2.90
   0  -4   1    4.50    4.10
  -1   4   1 3282.77  113.39
   1   4  -1 3432.36   95.89
   1  -4   1 3566.94  113.19
   1  -4   1 3465.85  117.39
  -1  -4  -1 3430.06  107.09
  -1  -4   1 3476.35   86.19
  -1  -4   1 3431.16  100.49
   1  -4  -1 3601.24  113.29
   1  -4  -1 3404.46  119.39
   1   4   1 3400.56   93.49
   1   4   1 3651.03  107.19
  -2   4   1   10.60    7.30
   2  -4   1    2.40    5.90
  -2  -4  -1   21.40    7.40
   2   4  -1    7.30    6.40
   2  -4   1    7.60    7.50
   2   4   1    7.30    7.10
   2  -4  -1    5.40    5.70
   2  -4  -1   27.40   13.40
   2   4   1    3.80    3.80
  -2  -4   1    9.70    5.90
   3  -4   1 2186.18   99.09
  -3  -4  -1 2094.29   75.59
   3   4  -1 2159.58   74.09
   3  -4   1 2138.39  101.99
   3   4   1 2128.19   67.79
   3  -4  -1 2120.29  100.79
   3  -4  -1 2261.47  105.09
   4  -4   1    1.10    7.60
   4  -4   1   11.40   10.50
   4   4  -1   22.50    7.80
   4  -4  -1  -17.00    7.80
   4  -4  -1    7.40    7.40
   5  -4   1 1040.50   77.99
   5  -4   1  924.11   71.89
   5   4  -1  968.60   48.40
   5  -4  -1 1075.29   79.99
   5  -4  -1 1056.99   78.49
   6   4  -1   67.29   16.20
   6  -4   1  134.19   32.70
   6  -4  -1   57.99   21.40
   6  -4  -1   18.20   20.80
   7   4  -1  466.55   41.70
   7  -4   1  350.36   57.39
   7  -4   1  367.86   62.59
   7  -4  -1  444.26   58.79
   7  -4  -1  422.76   67.79
   8  -4   1   -1.70   17.00
   8  -4   1  -29.40   17.40
   8  -4  -1   -4.50   16.80
   8  -4  -1  -30.40   15.60
   0  -5   1   -4.00    4.10
   0   5  -1   -1.80    5.80
   0   5   1  -10.40    4.80
   0  -5  -1    4.70    4.40
   0  -5   1   -4.40    4.40
   0  -5  -1   -5.10    5.50
   0   5   1    2.10    5.70
   1   5  -1 1042.50   51.79
  -1  -5  -1 1002.10   58.49
  -1   5   1 1048.00   65.49
   1  -5   1 1013.90   59.89
   1  -5   1 1110.09   66.49
  -1   5   1  961.80   58.19
  -1  -5   1 1038.90   43.50
   1  -5  -1  925.91   65.99
  -1  -5   1 1067.39   52.19
   1   5   1 1066.79   51.49
  -1  -5   1 1081.69   56.89
  -1   5  -1  999.70   60.99
   1   5   1 1108.69   57.79
   1  -5  -1  937.11   56.99
  -2  -5  -1  263.87   28.00
   2  -5   1  213.38   38.10
   2  -5   1  283.47   33.90
   2   5   1  215.78   23.50
   2   5   1  187.38   19.20
  -2  -5   1  208.88   22.50
   2  -5  -1  175.28   31.70
   2  -5  -1  227.58   30.40
   3   5  -1  594.54   39.90
   3  -5   1  538.95   51.19
  -3  -5  -1  566.04   39.70
   3  -5   1  474.75   50.79
   3   5   1  546.35   34.10
   3  -5  -1  527.05   50.39
   3  -5  -1  490.35   52.19
   4   5  -1   38.70   12.40
   4  -5   1   13.30   12.10
   4  -5   1   27.10   16.60
   4  -5  -1   58.99   21.20
   4  -5  -1   33.90   16.10
   5   5  -1  429.96   35.30
   5  -5   1  421.36   52.79
   5  -5   1  473.35   52.79
   5  -5  -1  387.66   61.69
   5  -5  -1  462.65   56.59
   6   5  -1   39.10   15.10
   6  -5   1   26.30   19.90
   6  -5   1   35.90   24.10
   6  -5  -1   48.30   21.40
   6  -5  -1   42.90   25.20
   7  -5   1   40.10   25.20
   7  -5   1   15.40   23.00
   7   5  -1   40.70   20.20
   7  -5  -1   52.79   26.00
   7  -5  -1   24.40   22.30
   8  -5   1  232.88   59.29
   8  -5   1   30.00   29.10
   8  -5  -1   26.50   27.80
   8  -5  -1  -14.20   21.60
   0  -6   1 2551.54   95.29
   0  -6  -1 2571.84   95.29
   0  -6  -1 2469.15  110.39
   1  -6   1    2.40    9.20
  -1  -6  -1    0.70    7.20
   1  -6   1    7.00    7.80
  -1  -6   1   -2.70    8.00
  -1  -6   1    2.50    6.60
   1   6   1    7.20    6.10
   1  -6  -1   -5.70    7.30
   1   6   1    4.50    7.80
  -1  -6   1   -0.50    5.50
   1  -6  -1   17.90   12.60
   2  -6   1    7.90   12.20
  -2  -6  -1    8.50    8.70
   2  -6   1   12.30   12.40
   2  -6  -1   23.80   12.30
  -2  -6   1   46.00   13.50
   2  -6  -1   23.30   14.20
   2   6   1   25.20    8.40
   3  -6   1   65.89   23.80
   3  -6   1   64.79   21.10
  -3  -6  -1   60.19   16.50
   3  -6  -1   56.19   25.60
   3   6   1   70.89   14.50
   3  -6  -1   73.09   23.20
   3   6   1   48.00   14.00
  -3  -6   1   84.79   17.10
   4  -6   1  982.20   83.99
   4  -6   1 1193.98   87.09
  -4  -6  -1 1093.99   54.89
   4  -6  -1 1171.98   85.99
   4  -6  -1 1154.78   90.69
   5   6  -1   44.80   14.80
   5  -6   1    0.20   15.50
   5  -6   1   49.99   24.50
   5  -6  -1   39.30   20.30
   5  -6  -1   48.70   23.30
   6  -6   1   17.80   20.90
   6   6  -1    7.50   17.20
   6  -6   1   -4.40   20.90
   6  -6  -1    5.40   13.70
   6  -6  -1   17.70   20.10
   7  -6   1   16.40   24.70
   7  -6  -1  -32.00   20.30
   7  -6  -1   56.79   28.20
   8  -6   1   77.49   35.90
   8  -6  -1   90.99   41.00
   0  -7  -1    5.00    9.60
   0  -7   1   -6.90    7.40
   0  -7   1    7.90    7.90
   0  -7  -1   -3.20    7.60
   1  -7   1  -10.00    6.80
   1  -7   1   22.60   12.30
  -1  -7  -1   -0.80    9.50
   1  -7  -1   26.40   14.60
  -1  -7   1   14.10   13.40
   1  -7  -1    5.60   10.70
  -1  -7   1    7.00    6.40
  -1  -7   1   -5.40   10.00
  -2  -7  -1 2436.86  131.89
   2  -7   1 2443.16  128.09
   2  -7   1 2554.14  121.49
  -2  -7   1 2452.15  103.09
   2  -7  -1 2399.66  116.79
   2   7   1 2393.46  101.19
   2  -7  -1 2594.24  132.69
   3  -7   1  -14.60    9.40
   3  -7   1   -6.40   11.00
   3   7   1    0.80    8.90
   3  -7  -1   -9.40   11.00
  -3  -7   1   22.60    9.50
   3  -7  -1  -21.00    8.10
  -4  -7  -1  -28.50   12.60
   4  -7   1   17.80   15.10
   4  -7   1   13.90   17.30
   4  -7  -1    5.40   13.80
   4  -7  -1    7.70   15.90
   5  -7   1   48.20   20.40
   5  -7   1   22.30   25.40
   5  -7  -1   31.20   18.90
   5  -7  -1   55.89   27.60
   6  -7   1  789.42   88.49
   6  -7   1  835.52   86.89
   6  -7  -1  754.52   81.99
   6  -7  -1  674.63   81.39
   7  -7   1  -20.80   21.60
   7  -7   1  -29.60   20.00
   7  -7  -1   17.20   21.50
   7  -7  -1   25.80   26.90
   0  -8   1  608.14   48.90
   0  -8  -1  703.43   66.19
   0  -8   1  560.84   56.19
   0  -8   1  594.34   54.69
  -1  -8  -1  219.48   42.10
   1  -8   1  198.98   38.00
   1  -8   1  190.58   42.40
  -1  -8   1  144.89   25.60
   1  -8  -1  145.79   38.00
  -1  -8   1  151.08   22.70
  -1  -8   1  168.08   35.70
   1  -8  -1  152.88   32.10
   2  -8   1    8.60   14.30
  -2  -8  -1   28.00   16.80
  -2  -8   1  -21.30   11.40
   2  -8  -1   -5.30   13.70
   2  -8  -1    6.30   16.60
   3  -8   1  198.78   44.80
   3  -8   1  190.18   42.80
  -3  -8  -1  211.68   39.00
   3  -8  -1  170.98   40.60
   3  -8  -1  185.58   48.60
  -3  -8   1  224.08   35.90
   4  -8   1  162.68   46.60
  -4  -8  -1  231.18   37.30
   4  -8   1  278.27   52.59
   4  -8  -1  358.86   64.59
   4  -8  -1  279.07   54.69
   5  -8   1   10.20   20.70
   5  -8   1    5.80   16.30
   5  -8  -1   -9.30   18.50
   5  -8  -1   -3.80   19.00
   6  -8   1   14.30   19.40
   6  -8   1   56.99   30.50
   6  -8  -1   32.50   25.80
   6  -8  -1  -14.90   15.10
   0  -9  -1   29.40   14.60
   0  -9   1   18.20   14.40
   0  -9  -1  -14.90   10.20
   0  -9   1   17.80   14.40
   1  -9   1  350.66   60.39
   1  -9   1  431.66   49.99
  -1  -9  -1  395.46   61.29
  -1  -9   1  342.97   57.69
   1  -9  -1  410.56   65.69
   1  -9  -1  486.95   53.39
   2  -9   1   16.00   15.90
   2  -9   1  -29.00   11.40
  -2  -9  -1   29.20   19.60
   2  -9  -1   15.80   26.50
  -2  -9   1  -18.30   13.20
   2  -9  -1   -8.50   18.60
   3  -9   1  193.28   49.10
  -3  -9  -1  218.38   41.80
   3  -9   1  222.18   47.50
  -3  -9   1  189.98   35.80
   3  -9  -1  230.88   53.09
   3  -9  -1  172.88   40.80
   4  -9   1   14.40   18.60
  -4  -9  -1   27.00   25.00
   4  -9   1   24.70   20.80
   4  -9  -1   45.70   28.60
   4  -9  -1    9.30   20.60
   5  -9   1  218.58   57.09
   5  -9   1  198.88   51.79
   5  -9  -1  186.28   55.89
   5  -9  -1  261.47   59.09
   0 -10  -1   15.60   21.80
   0 -10  -1  -17.30   14.60
   0 -10   1   -3.30   17.50
   0 -10   1   43.20   22.50
  -1 -10  -1  259.97   55.19
   1 -10   1  314.57   63.29
   1 -10   1  207.18   39.30
   1 -10  -1  219.68   43.60
   1 -10  -1  236.88   54.49
   2 -10   1   31.40   23.00
   2 -10   1  -21.10   15.70
  -2 -10  -1   26.40   24.80
   2 -10  -1   -8.60   17.40
   2 -10  -1   -8.90   21.60
   3 -10   1  200.48   46.50
  -3 -10  -1  114.09   42.70
  -3 -10   1  181.18   42.20
   3 -10  -1  109.19   36.50
   4 -10   1   18.50   25.70
   4 -10   1  -30.50   26.60
   4 -10  -1   16.50   22.20
   4 -10  -1  -22.50   17.30
   0 -11   1   25.90   25.30
   0 -11  -1   67.29   30.20
   1 -11   1   16.70   28.00
   1 -11   1   86.49   33.20
  -1 -11  -1  -20.10   23.60
  -1 -11   1   34.90   29.70
   1 -11  -1   28.70   28.50
   1 -11  -1   17.90   25.50
  -2 -11  -1   80.19   40.30
   2 -11   1   90.79   35.70
   2 -11   1   88.09   34.20
   2 -11  -1  123.49   34.30
  -2 -11   1   68.19   34.70
   2 -11  -1   32.20   35.20
   3 -11   1  -29.70   23.70
   0   0  -2 2403.06   69.39
   0   0   2 2500.95   69.99
   1   0  -2  110.39   11.10
  -1   0   2  106.19   17.70
   1   0   2  127.19   14.20
  -1   0   2  111.29   11.20
   1   0  -2  104.59   17.60
  -2   0   2    7.50    4.60
   2   0  -2   10.80    5.00
   2   0  -2   15.30    6.10
  -3   0   2    9.80    5.30
   3   0  -2    6.30    5.00
   3   0  -2   10.30    6.50
   4   0  -2 3809.32  120.29
  -4   0   2 3679.13   98.79
   4   0  -2 3940.41  110.39
   5   0  -2  107.89   20.10
   5   0  -2  109.69   23.50
   5   0   2  111.49   19.90
   6   0  -2   29.00   14.70
   6   0  -2   56.59   16.80
   7   0   2   22.00   13.50
   7   0   2    7.00   12.80
   7   0  -2   20.40   12.80
   7   0  -2   36.20   19.00
   8   0   2  593.14   58.99
   8   0   2  585.74   53.79
   8   0  -2  571.44   53.19
   9   0   2  -20.40   25.90
   9   0  -2   -1.00   20.50
   0  -1  -2   -4.90    4.00
   0   1   2   -0.70    2.20
   0  -1  -2    1.90    2.00
   0  -1   2   -2.80    2.40
   0   1   2    6.00    3.50
  -1   1   2 1274.17   47.90
  -1  -1  -2 1130.89   50.99
   1   1  -2 1242.28   37.80
   1   1  -2 1135.29   47.10
  -1   1   2 1293.17   48.30
   1   1   2 1145.39   46.60
  -1  -1   2 1262.77   38.50
   1  -1  -2 1144.09   46.20
  -1  -1   2 1265.37   44.00
  -2   1   2 5628.74  135.49
   2   1  -2 5382.16  128.09
  -2  -1  -2 5606.04  135.39
  -2   1   2 5669.13  135.29
   2  -1  -2 5505.05  135.59
   2  -1  -2 5308.57  138.79
  -2  -1   2 5467.35  116.69
   2   1   2 5473.75  134.99
   3   1  -2  557.24   33.80
  -3   1   2  577.44   36.90
  -3   1   2  583.84   36.40
   3   1  -2  612.34   25.70
   3  -1  -2  574.64   37.80
  -3  -1   2  554.84   23.40
   3   1   2  569.14   37.40
   3  -1  -2  608.04   40.80
   4  -1   2  322.87   29.30
  -4   1   2  347.17   28.90
   4   1  -2  328.57   28.90
   4   1  -2  344.67   23.30
   4  -1  -2  331.97   31.40
   4   1   2  278.37   30.30
   4  -1  -2  355.86   34.80
   5   1  -2  271.37   22.50
   5   1  -2  295.57   30.40
   5  -1   2  249.58   28.70
   5   1   2  337.27   34.90
   5   1   2  272.97   24.40
   5  -1  -2  311.47   36.60
   5  -1  -2  257.77   30.50
   6   1  -2  527.75   34.60
   6   1  -2  493.45   47.70
   6  -1   2  539.85   47.50
   6   1   2  525.45   48.90
   6  -1  -2  525.85   50.89
   6   1   2  551.94   39.20
   7  -1   2   42.50   17.90
   7   1  -2   72.09   16.10
   7  -1   2   47.20   21.20
   7   1  -2   82.49   25.90
   7  -1  -2   65.79   23.70
   7   1   2    4.20   14.50
   7  -1  -2   54.59   19.70
   8  -1   2   -3.10   15.40
   8   1  -2   31.80   27.80
   8  -1   2    3.00   14.00
   8  -1  -2    1.20   20.50
   8   1   2   -0.60   14.70
   8  -1  -2   35.80   23.00
   8   1   2   -4.40   14.20
   9  -1   2   27.70   23.60
   9   1  -2  -22.50   25.90
   9  -1   2    6.20   22.70
   9   1   2   43.60   34.10
   9  -1  -2  -39.80   19.80
   0  -2   2  565.24   34.60
   0  -2  -2  555.34   33.70
   0  -2  -2  556.94   29.10
   0   2   2  506.25   31.80
   0   2   2  571.44   29.90
   1   2  -2 3574.84  102.69
  -1   2   2 3797.32  102.89
  -1  -2  -2 3675.23  101.89
  -1   2   2 3725.03  106.39
   1  -2  -2 3598.64  102.89
   1  -2  -2 3649.73  106.39
  -1  -2   2 3483.35   97.79
   1   2   2 3784.22  101.49
   1   2   2 3563.74   83.79
   2   2  -2   35.90    9.50
  -2   2   2   29.40    9.60
  -2   2   2   25.40    8.50
   2  -2   2   33.30   10.20
  -2  -2  -2   62.29   13.10
   2   2   2   28.20    9.50
   2  -2  -2   48.80   13.40
   2  -2  -2   23.80    9.10
  -3   2   2 1992.60   82.59
   3  -2   2 2131.09   82.29
  -3   2   2 2011.60   80.89
   3   2  -2 2096.89   69.99
   3  -2  -2 2176.58   89.49
   3   2   2 2059.39   74.49
   3  -2  -2 2212.38   88.59
  -4   2   2   29.10   12.20
   4  -2   2   18.20   10.70
   4   2  -2   20.50    8.50
   4   2   2   20.10   10.80
   4  -2  -2   26.20   14.40
   4  -2  -2   31.50   12.40
  -5   2   2  339.87   33.10
   5  -2   2  278.47   33.00
   5   2  -2  276.37   28.80
   5  -2  -2  276.57   36.70
   5  -2  -2  301.27   35.30
   5   2   2  327.97   32.50
   6  -2   2   65.19   20.00
   6  -2   2   47.50   19.20
   6   2  -2   14.50   12.30
   6   2   2   58.49   12.60
   6  -2  -2   32.50   17.10
   6   2   2   29.00   15.20
   6  -2  -2   45.60   18.50
   7   2  -2  411.86   42.40
   7  -2   2  362.46   47.20
   7  -2   2  448.66   50.79
   7   2   2  416.96   35.80
   7   2   2  397.86   36.60
   7  -2  -2  388.46   47.10
   8  -2   2   -9.90   14.90
   8   2  -2    3.20   17.40
   8  -2   2   25.40   20.40
   8  -2  -2   -1.40   19.80
   8  -2  -2   17.30   17.40
   8   2   2   27.70   16.70
   9  -2   2   -1.00   23.90
   9   2  -2   25.50   27.70
   9  -2   2   27.40   26.30
   9  -2  -2   42.20   27.90
   0  -3  -2    5.20    4.80
   0  -3   2    1.10    3.00
   0  -3  -2   -3.10    3.30
   0   3   2    7.50    4.60
   0   3   2   -6.80    4.10
   1  -3   2 2004.70   74.49
  -1   3   2 1988.90   80.19
  -1   3   2 2089.89   77.39
   1   3  -2 2053.89   77.39
  -1  -3  -2 1979.50   74.39
   1   3   2 2104.99   61.99
  -1  -3   2 2010.30   72.19
   1  -3  -2 2139.29   78.29
   1   3   2 2124.99   74.79
   1  -3  -2 1882.01   79.39
  -1  -3   2 1994.50   59.59
  -2   3   2   48.40   13.70
   2  -3   2   74.09   16.50
   2   3  -2   75.89   16.30
  -2  -3  -2   81.09   16.70
  -2   3   2   78.89   20.60
   2   3   2   62.69   12.80
   2  -3  -2   51.49   15.80
   2  -3  -2   62.89   16.30
   3   3  -2 1846.92   68.79
  -3   3   2 1825.72   82.19
  -3  -3  -2 1848.62   71.79
   3  -3   2 1984.60   85.29
  -3   3   2 1951.60   88.39
   3   3   2 1847.82   68.89
   3  -3  -2 1895.31   89.59
   3  -3  -2 1825.02   88.09
   4  -3   2   76.49   20.50
   4   3  -2   71.69   15.00
   4  -3  -2   62.39   20.10
   4   3   2   89.09   17.30
   4  -3  -2   59.09   20.70
   5  -3   2 1107.19   76.99
   5  -3   2 1145.49   74.99
   5   3  -2 1054.59   56.39
   5  -3  -2  988.60   73.09
   5   3   2  995.30   51.89
   5  -3  -2 1013.10   72.09
   6   3  -2   27.80   12.10
   6  -3   2   45.20   17.60
   6  -3   2   10.40   10.70
   6  -3  -2    3.90   13.30
   6  -3  -2   41.80   16.30
   7  -3   2  392.16   52.39
   7   3  -2  392.86   42.40
   7  -3  -2  385.76   51.09
   7   3   2  340.47   32.60
   7  -3  -2  369.26   59.29
   8  -3   2   38.40   21.00
   8  -3   2   27.80   24.70
   8   3  -2   22.50   20.70
   8  -3  -2   -3.50   22.00
   8  -3  -2   45.00   24.20
   9  -3   2  223.48   46.90
   9  -3   2  160.08   41.50
   9  -3  -2  205.18   50.59
   0  -4  -2  364.16   34.00
   0  -4   2  306.07   28.70
   0   4   2  331.47   31.80
   0  -4  -2  320.67   26.70
   0   4   2  301.57   27.40
   0  -4   2  361.26   28.40
   1  -4   2  173.68   21.90
  -1  -4  -2  187.78   23.20
  -1   4   2  201.08   34.30
  -1   4   2  139.49   25.40
   1  -4  -2  198.68   32.20
  -1  -4   2  169.48   18.30
   1   4   2  158.88   24.90
   1   4   2  173.98   17.60
   1  -4  -2  168.38   21.90
  -1  -4   2  153.38   24.20
  -1  -4   2  149.09   15.60
  -2  -4  -2   31.30   12.60
  -2   4   2   75.39   20.00
   2   4  -2   53.09   14.70
  -2   4   2   13.50   10.90
   2  -4   2   48.30   14.80
   2   4   2   39.00    8.40
   2  -4  -2   51.29   16.00
  -2  -4   2   22.00    7.60
   2  -4  -2   26.60   12.80
   2   4   2   44.30   11.00
  -3  -4  -2  293.17   29.30
   3   4  -2  349.96   31.50
   3  -4   2  290.47   33.70
   3  -4  -2  269.57   42.00
   3   4   2  259.47   25.80
   3  -4  -2  297.87   38.40
   4  -4   2  324.07   41.40
   4   4  -2  234.08   25.40
   4  -4   2  295.27   36.50
   4   4   2  231.48   23.40
   4  -4  -2  174.68   34.60
   4  -4  -2  217.98   39.90
   5  -4   2   52.99   19.80
   5  -4   2   26.10   16.00
   5   4  -2  118.89   21.50
   5  -4  -2   52.99   21.10
   5  -4  -2   84.19   25.80
   5   4   2   71.89   14.70
   6   4  -2  -21.50    9.20
   6  -4   2  -17.50   12.60
   6  -4  -2   19.90   14.70
   7  -4   2   38.80   19.30
   7  -4   2   33.40   22.40
   7   4  -2   64.99   26.60
   7  -4  -2   45.70   25.20
   7  -4  -2   58.89   28.80
   8  -4   2   26.50   20.30
   8   4  -2    8.70   21.70
   8  -4   2   -1.10   24.30
   8  -4  -2    1.20   21.60
   8  -4  -2   -6.10   21.70
   0   5   2    6.20    6.80
   0  -5  -2   -5.70    4.80
   0  -5  -2   -5.60    4.50
   0  -5   2    2.50    6.60
   0  -5   2   -7.10    3.80
   0   5   2    0.90    4.90
   1  -5   2  439.86   39.80
  -1  -5  -2  481.95   41.50
  -1   5   2  464.25   41.80
   1  -5   2  482.85   44.00
  -1  -5   2  432.86   29.70
  -1  -5   2  472.45   37.70
   1   5   2  322.37   41.20
   1  -5  -2  467.25   45.40
   1   5   2  450.05   33.10
   1  -5  -2  448.56   39.20
  -1  -5   2  440.76   35.40
   2  -5   2 2785.42  120.09
  -2  -5  -2 2720.43  104.29
   2  -5   2 2644.74  114.09
   2   5   2 2667.53   81.59
  -2  -5   2 2886.81   89.09
   2   5   2 2734.93   98.89
   2  -5  -2 2806.82  115.79
   2  -5  -2 2583.24  119.19
  -3  -5  -2  156.38   27.80
   3  -5   2  116.99   27.60
   3   5  -2  155.88   27.90
   3  -5   2  112.49   28.10
   3   5   2  148.59   23.30
   3  -5  -2   81.59   23.10
   3  -5  -2   82.39   24.00
   4  -5   2   16.40   10.50
  -4  -5  -2   24.70   10.60
   4  -5   2   -3.20   10.80
   4   5  -2   30.30   11.20
   4  -5  -2    4.10    9.90
   4  -5  -2   15.80   12.30
   4   5   2   24.10   10.00
   5  -5   2    0.70   13.50
   5  -5   2   18.70   12.10
   5   5  -2   39.20   13.20
   5  -5  -2   -3.50   11.20
   6  -5   2  603.14   67.59
   6  -5   2  578.64   66.09
   6   5  -2  540.45   49.60
   6  -5  -2  647.84   68.29
   6  -5  -2  557.84   66.79
   7   5  -2   -1.40   17.20
   7  -5   2   22.10   24.00
   7  -5   2   59.49   25.30
   7  -5  -2   55.49   25.60
   7  -5  -2   38.30   21.90
   8  -5   2    3.40   22.40
   8  -5  -2   41.10   31.40
   8  -5  -2   42.00   26.90
   0  -6  -2  482.35   39.10
   0  -6   2  491.35   53.49
   0  -6  -2  451.55   46.50
   0  -6   2  506.35   40.80
  -1  -6  -2  173.38   34.40
   1  -6   2  129.69   29.30
   1  -6   2  138.99   27.30
   1   6   2  178.08   31.00
   1  -6  -2  153.08   29.90
   1   6   2  185.68   28.30
  -1  -6   2  195.28   21.40
  -1  -6   2  139.49   25.80
  -1  -6   2  168.98   28.90
   1  -6  -2  167.58   33.90
  -2  -6  -2   -0.60    6.70
   2  -6   2   23.30   14.00
   2  -6   2    6.40    7.10
   2   6   2   19.40   10.80
   2  -6  -2    0.70    9.20
   2  -6  -2    4.30    9.00
  -2  -6   2   -1.90    5.80
   2   6   2    0.60    8.40
   3  -6   2   70.39   23.70
   3  -6   2   64.69   23.20
  -3  -6  -2   17.50   12.80
   3   6   2   45.20   14.70
   3  -6  -2   55.99   22.90
   3   6   2   71.19   13.60
  -3  -6   2   62.39   14.70
   3  -6  -2   58.29   22.20
   4   6  -2  392.26   39.00
   4  -6   2  289.57   51.19
   4  -6   2  395.66   49.00
  -4  -6  -2  412.96   38.00
   4  -6  -2  406.56   54.09
   4  -6  -2  424.76   52.69
   4   6   2  360.66   31.50
   5  -6   2  425.16   67.69
   5   6  -2  422.36   39.80
   5  -6   2  336.37   59.99
   5  -6  -2  313.77   54.49
   5  -6  -2  307.17   58.79
   6  -6   2   23.10   19.40
   6   6  -2  -18.30   13.60
   6  -6   2   17.70   17.50
   6  -6  -2   40.70   18.60
   6  -6  -2   45.80   26.20
   7  -6   2  -23.80   23.60
   7  -6   2   -3.70   26.30
   7  -6  -2   11.60   21.50
   7  -6  -2   13.20   20.10
   8  -6   2   25.20   30.30
   8  -6  -2   28.70   28.90
   0  -7  -2    9.80   11.30
   0  -7   2    0.00    7.20
   0  -7   2  -11.50    8.00
   0  -7   2   14.50   12.80
   0  -7  -2  -10.60    6.30
   1  -7   2   13.30    9.60
   1  -7   2    1.60   10.40
  -1  -7  -2   -2.20   10.70
   1  -7  -2    6.70   13.30
  -1  -7   2    5.40    9.70
   1  -7  -2    3.80   10.30
  -1  -7   2   24.00   11.20
   2  -7   2   20.30   13.30
  -2  -7  -2   41.70   18.20
   2  -7   2   17.90   14.50
  -2  -7   2   15.70   13.30
   2   7   2   41.30   13.80
   2  -7  -2   43.00   18.60
   2  -7  -2    8.10   14.80
   3  -7   2   25.80   17.50
  -3  -7  -2   13.30   13.50
   3  -7   2    6.90   17.00
   3   7   2   18.20   11.70
  -3  -7   2   30.00   13.40
   3  -7  -2   13.10   15.80
   3   7   2   37.90   15.60
   3  -7  -2   46.50   23.30
  -4  -7  -2   28.70   14.70
   4  -7   2   -2.10   12.70
   4  -7   2   -4.40   10.20
   4  -7  -2    6.00   15.30
   4   7   2   -6.90    9.00
   4  -7  -2  -19.90   13.10
   5  -7   2   24.80   19.50
   5  -7   2   19.70   16.10
   5  -7  -2  -13.70   13.50
   5  -7  -2   35.90   25.20
   6   7  -2   -9.90   16.60
   6  -7   2   53.09   27.10
   6  -7   2   22.40   20.40
   6  -7  -2   -0.40   19.20
   6  -7  -2   16.40   27.60
   7  -7   2   39.40   23.80
   7  -7   2   26.20   23.10
   7  -7  -2  -17.70   24.10
   7  -7  -2   47.10   33.00
   0  -8  -2 1298.87   73.59
   0  -8  -2 1346.77   93.69
   0  -8   2 1275.87   87.09
   0  -8   2 1214.08   71.69
   1  -8   2  125.29   35.70
   1  -8   2  174.28   35.40
  -1  -8  -2  134.49   36.90
  -1  -8   2  139.79   23.20
  -1  -8   2  129.19   29.90
   1  -8  -2  125.49   33.40
   1  -8  -2  135.09   30.50
  -1  -8   2   74.69   22.70
   2  -8   2  -17.40   10.30
   2  -8   2   -4.30   11.60
  -2  -8   2   13.70   13.60
   2  -8  -2   26.90   15.60
   2  -8  -2   21.70   20.00
   3  -8   2   68.29   24.70
   3  -8   2   32.90   23.10
  -3  -8  -2   19.00   14.90
  -3  -8   2   29.70   16.10
   3  -8  -2   44.30   25.10
   3  -8  -2   41.30   20.90
   4  -8   2  449.76   72.49
   4  -8   2  492.55   65.49
  -4  -8  -2  476.45   51.49
   4  -8  -2  365.36   59.99
   4  -8  -2  356.36   64.59
   5  -8   2  -10.00   15.20
   5  -8   2   39.50   23.60
   5  -8  -2   63.79   33.20
   5  -8  -2   12.40   18.80
   6  -8   2  -24.90   23.20
   6  -8   2   10.90   22.00
   6  -8  -2  -29.70   22.40
   6  -8  -2  -37.00   15.60
   0  -9   2   15.00   13.20
   0  -9   2   16.70   16.50
  -1  -9  -2    8.80   16.10
   1  -9   2    7.10   17.90
   1  -9   2   15.50   16.00
   1  -9  -2  -15.60   15.00
  -1  -9   2   15.90   17.30
  -2  -9  -2  185.38   42.30
   2  -9   2  231.68   50.99
   2  -9   2  101.49   32.40
  -2  -9   2  151.78   34.20
   2  -9  -2  241.68   53.59
  -3  -9  -2  -21.70   15.50
   3  -9   2   20.30   19.30
   3  -9   2  -17.40   13.20
   3  -9  -2   -9.80   14.90
   3  -9  -2  -14.70   17.30
  -3  -9   2    7.80   20.60
  -4  -9  -2    4.00   21.70
   4  -9   2  -12.00   16.80
   4  -9   2   36.60   23.70
   4  -9  -2    5.60   19.40
   4  -9  -2    6.90   19.20
   5  -9   2  -15.50   21.20
   5  -9  -2   24.90   27.80
   5  -9  -2   33.30   20.90
   0 -10  -2   87.79   34.90
   0 -10   2   43.70   20.70
   0 -10   2   63.39   29.20
   1 -10   2   46.30   27.60
  -1 -10  -2  192.78   42.80
   1 -10  -2  154.28   40.50
  -1 -10   2  111.29   43.00
   1 -10  -2  103.49   32.60
   2 -10   2   -4.10   17.70
  -2 -10  -2   12.90   20.20
   2 -10   2  -28.70   14.80
  -2 -10   2   -6.10   22.50
   2 -10  -2    1.10   19.20
   2 -10  -2   16.40   19.50
   3 -10   2  224.38   51.69
  -3 -10  -2  125.59   37.90
  -3 -10   2  222.68   42.70
   3 -10  -2  196.08   57.09
   3 -10  -2  194.28   44.70
   4 -10   2    1.00   24.30
   4 -10   2    3.30   23.50
   4 -10  -2   -1.40   23.20
   4 -10  -2   14.10   28.60
   0 -11  -2  -21.40   25.10
   0 -11   2   -7.90   21.20
   1 -11   2  158.08   41.10
  -1 -11  -2  154.38   48.50
   1 -11   2  129.89   45.20
   1 -11  -2   40.60   33.40
  -1 -11   2  207.08   55.19
   2 -11   2  -25.40   24.60
   2 -11   2   19.00   24.70
  -2 -11  -2  -11.90   25.90
  -2 -11   2  -24.70   28.40
   2 -11  -2   47.20   31.10
   2 -11  -2  -51.89   22.90
   3 -11   2   85.69   39.20
   3 -11  -2  129.89   50.29
   0   0  -3   -3.20    2.70
   0   0   3   -2.30    3.00
   0   0   3    4.30    4.40
   0   0  -3   -4.30    1.90
  -1   0   3    0.80    3.00
   1   0  -3   -2.30    2.20
  -1   0  -3    1.20    3.30
  -1   0   3    6.90    4.80
   1   0   3   -0.30    3.20
   1   0  -3   -0.30    2.40
  -2   0   3   -2.30    3.60
   2   0  -3    2.40    3.30
   2   0   3   -0.50    4.10
  -2   0   3   -3.90    3.40
   2   0  -3   -1.40    2.70
   3   0  -3   -8.80    3.30
  -3   0   3    3.20    3.70
   3   0  -3    7.30    5.00
  -3   0   3   -2.30    2.80
   3   0   3    0.40    5.80
   4   0  -3   -6.90    4.00
   4   0   3  -11.00    9.10
  -4   0   3   -4.90    4.00
   5   0  -3   -5.90    9.80
  -5   0   3    3.20    6.50
   5   0  -3   -5.80    5.20
   5   0   3  -14.90    7.60
   6   0   3  -20.40    8.20
   6   0  -3    4.80   10.30
   6   0  -3   -5.40    8.10
   7   0  -3   -3.40   13.70
   7   0   3  -10.70    8.60
   7   0  -3   -2.80   10.60
   8   0   3   13.00   16.70
   8   0   3  -23.40   15.20
   8   0  -3  -21.50   18.20
   9   0   3   18.80   25.10
   9   0  -3   32.80   24.60
   9   0   3    3.00   21.10
   0   1   3   -0.30    3.20
   0  -1  -3    1.20    3.00
   0  -1   3    2.60    3.60
   0   1  -3   -0.90    2.60
   0  -1   3   -1.00    3.70
   0  -1  -3   -4.00    1.50
   1   1  -3 2153.38   79.49
  -1  -1  -3 2219.98   78.99
  -1   1   3 2162.18   73.39
   1   1  -3 2115.79   65.69
   1  -1  -3 2235.78   76.69
   1   1   3 2277.57   78.59
   1  -1  -3 2175.58   74.59
   1   1   3 2016.60   73.69
  -1  -1   3 2214.68   74.69
  -1  -1   3 1793.22   96.49
  -2   1   3 1680.03   68.09
   2   1  -3 1891.31   70.39
   2   1  -3 1815.52   56.79
  -2   1   3 1961.40   70.59
  -2  -1  -3 1864.21   73.99
   2   1   3 1904.91   75.69
   2  -1  -3 1826.12   73.79
   2  -1  -3 1878.41   70.19
  -2  -1   3 1850.21   54.69
  -2  -1   3 1817.92   62.49
   3   1  -3 1136.89   56.19
  -3   1   3 1116.29   55.19
  -3   1   3 1088.39   53.89
   3   1  -3 1017.10   40.70
   3   1   3 1134.39   59.69
  -3  -1   3 1121.79   40.40
  -3  -1   3 1145.69   45.40
   3  -1  -3 1105.39   60.69
   3  -1  -3 1174.48   57.49
   4   1  -3   49.60   15.00
  -4   1   3   36.60   11.40
   4   1  -3   37.50    8.40
   4  -1  -3   49.70   13.70
   4  -1  -3   36.80   13.80
  -4  -1   3   38.80    9.30
   4   1   3   41.80   15.50
   5  -1   3  166.08   30.70
   5   1  -3  138.09   26.90
   5   1  -3  125.59   16.50
   5  -1  -3  113.59   24.10
   5  -1  -3   97.19   25.90
   5   1   3  115.09   28.30
   6  -1   3  608.84   51.09
   6   1  -3  576.94   36.70
   6   1  -3  684.63   55.89
   6  -1  -3  615.14   58.49
   6   1   3  614.54   42.60
   6   1   3  584.24   53.69
   6  -1  -3  554.64   62.89
   7   1  -3  218.88   40.90
   7  -1   3  216.88   40.30
   7   1   3  218.08   33.40
   7  -1  -3  260.17   40.60
   7  -1  -3  159.98   38.10
   8  -1   3   21.80   19.50
   8  -1   3   -8.30   14.30
   8   1  -3   -4.10   17.90
   8   1   3   16.20   13.90
   8  -1  -3  -35.50   14.80
   8   1   3   34.20   16.40
   9  -1   3   30.20   22.60
   9   1  -3   85.79   30.20
   9  -1   3  -24.20   22.70
   9   1   3   19.30   29.40
   9  -1  -3  -29.40   23.50
   0   2   3 8823.92  200.78
   0  -2  -3 8691.33  191.68
   0  -2  -3 8733.63  201.78
   0  -2   3 8686.13  204.68
   0   2   3 8544.95  192.48
  -1   2   3  148.59   19.00
  -1   2   3  156.78   19.10
  -1  -2  -3  145.89   19.20
   1   2  -3  162.58   21.00
   1  -2  -3  152.78   19.20
   1   2   3  138.59   18.60
  -1  -2   3  157.08   24.60
   1  -2  -3  153.28   24.60
  -1  -2   3  165.98   16.20
   1   2   3  159.18   16.70
  -2   2   3   12.90    6.50
  -2   2   3   -8.50    4.50
  -2  -2  -3   -2.30    3.50
   2   2  -3    4.00    5.20
   2  -2  -3    5.10    6.10
  -2  -2   3    1.70    3.10
   2   2   3    9.70    5.30
   2  -2  -3   -1.90    3.90
  -2  -2   3    4.60    4.70
   3   2  -3   24.20    9.70
  -3   2   3   35.50   11.80
  -3   2   3   17.10    9.50
  -3  -2  -3   11.40    8.20
   3  -2  -3   13.20   10.00
   3   2   3   22.90    9.60
   3  -2  -3   16.60   10.40
   4   2  -3 1875.81   78.99
  -4   2   3 1812.92   82.79
   4  -2   3 1717.33   83.09
   4   2   3 1872.51   83.59
   4  -2  -3 1872.51   93.39
   4  -2  -3 1793.82   87.19
   5  -2   3  237.08   31.50
   5   2  -3  212.28   33.10
   5  -2  -3  280.67   42.70
   5  -2  -3  194.58   35.70
   5   2   3  221.58   34.80
   6   2  -3   21.90   13.80
   6  -2   3   35.40   15.60
   6  -2  -3   24.40   18.20
   6   2   3   29.40    8.80
   6  -2  -3   17.60   12.60
   6   2   3   20.80   14.90
   7  -2   3   18.50   17.80
   7   2   3   27.00   17.90
   7  -2  -3   16.00   19.00
   7  -2  -3   15.40   17.00
   7   2   3   50.59   14.90
   8  -2   3  111.79   33.00
   8  -2   3  107.99   34.40
   8   2  -3  132.29   37.10
   8   2   3  205.08   35.20
   8   2   3  203.58   32.30
   8  -2  -3  137.09   38.40
   8  -2  -3  228.38   50.59
   9  -2   3    5.20   27.60
   9   2  -3   29.90   31.10
   9  -2   3    8.60   21.60
   9  -2  -3   43.10   31.40
   9  -2  -3  -14.00   25.80
   0  -3  -3    5.50    4.10
   0  -3   3    2.50    6.10
   0   3   3   -2.60    3.40
   0  -3  -3    4.90    4.80
   0   3   3   -2.50    3.70
   1   3  -3  398.26   35.00
  -1   3   3  450.55   37.20
  -1   3   3  377.56   32.30
  -1  -3  -3  416.46   34.90
  -1  -3   3  417.66   34.80
   1  -3  -3  416.66   34.20
   1   3   3  457.75   28.90
   1   3   3  363.36   31.50
  -2  -3  -3  544.05   41.20
   2   3  -3  467.25   39.00
  -2   3   3  473.95   40.90
   2  -3   3  516.25   39.40
  -2  -3   3  469.25   25.30
  -2  -3   3  457.95   30.40
   2   3   3  516.65   38.20
   2  -3  -3  560.54   43.80
   2  -3  -3  471.25   41.80
   3   3  -3  458.25   37.90
  -3   3   3  383.56   38.80
  -3  -3  -3  470.85   37.60
   3  -3   3  479.25   82.39
  -3   3   3  468.55   41.20
   3  -3  -3  488.85   44.70
   3  -3  -3  488.05   44.80
   3   3   3  429.36   34.50
   4  -3   3   43.60   16.80
   4   3  -3   31.40   11.30
   4  -3  -3   21.30   14.10
   4   3   3   47.50   13.80
   4  -3  -3   38.60   16.30
   5  -3   3  418.86   44.80
   5   3  -3  464.85   41.10
   5  -3  -3  458.75   49.20
   5  -3  -3  409.96   47.50
   5   3   3  471.25   38.50
   6  -3   3  103.09   31.80
   6   3  -3  112.89   26.30
   6  -3   3  131.19   29.70
   6  -3  -3   95.19   29.60
   6   3   3  159.98   27.70
   6  -3  -3  119.39   32.70
   7  -3   3   35.20   19.70
   7   3  -3   19.30   17.10
   7  -3   3   70.49   24.20
   7   3   3   85.69   16.70
   7  -3  -3   59.39   21.90
   7  -3  -3   22.30   23.70
   8   3  -3   -4.10   19.60
   8  -3   3   23.40   21.30
   8  -3   3  -10.80   19.10
   8  -3  -3  -20.80   20.70
   8  -3  -3   -2.90   17.50
   0  -4   3   50.49   16.40
   0  -4  -3   50.49   13.70
   0   4   3   77.09   17.20
   0  -4  -3   58.89   18.40
   0  -4   3   52.19   13.60
  -1  -4  -3 1368.56   69.69
  -1   4   3 1366.96   72.99
   1  -4   3 1358.26   66.69
  -1   4   3 1306.67   67.89
  -1  -4   3 1360.66   55.19
  -1  -4   3 1288.47   66.99
   1  -4  -3 1403.56   68.99
   1  -4  -3 1392.56   75.39
   1   4   3 1335.77   67.49
   1   4   3 1375.96   57.99
   2  -4   3   62.99   17.80
   2   4  -3   34.00   12.40
  -2  -4  -3   65.89   18.40
   2  -4  -3   38.90   17.90
  -2  -4   3   57.69   10.20
   2   4   3   63.19   12.40
   2   4   3   53.29   15.10
   2  -4  -3   94.19   25.20
  -2  -4   3   52.79   11.10
   3   4  -3 1429.86   74.99
   3  -4   3 1454.55   79.49
  -3  -4  -3 1492.35   75.49
   3  -4  -3 1500.65   86.19
   3   4   3 1492.75   67.59
   3  -4  -3 1387.46   84.29
   4  -4   3   56.69   19.80
   4   4  -3   83.09   21.20
  -4  -4  -3   35.60   15.30
   4   4   3   99.39   19.90
   4  -4  -3  108.09   27.80
   4  -4  -3   88.99   26.40
   5  -4   3  265.27   44.30
   5   4  -3  304.47   35.10
   5  -4   3  275.57   49.20
   5  -4  -3  258.37   49.20
   5  -4  -3  327.97   43.60
   5   4   3  319.67   31.40
   6   4  -3   55.69   16.70
   6  -4   3   18.90   17.00
   6  -4   3   38.40   22.60
   6  -4  -3   50.99   22.70
   6   4   3   40.00   13.80
   6  -4  -3   52.49   24.50
   7   4  -3  336.37   49.40
   7  -4   3  389.16   68.29
   7  -4   3  301.47   55.19
   7  -4  -3  340.47   61.09
   7  -4  -3  296.47   57.09
   8  -4   3   -0.30   19.10
   8  -4   3   78.89   27.90
   8   4  -3  -22.20   20.00
   8  -4  -3   43.90   28.50
   8  -4  -3    3.00   22.90
   0   5   3    2.70    7.40
   0  -5   3    0.10    5.10
   0  -5  -3   -3.50    4.70
   0   5   3    2.00    6.80
   0  -5   3   -7.80    4.00
   0  -5  -3   -6.80    5.90
   1  -5   3 1127.69   65.19
  -1  -5  -3 1155.58   69.99
  -1  -5   3 1124.69   57.49
  -1  -5   3 1181.08   54.79
   1   5   3 1232.08   58.69
   1   5   3 1070.79   64.39
   1  -5  -3 1191.28   66.99
  -1  -5   3 1180.48   66.79
   1  -5  -3 1177.38   74.49
  -2  -5  -3  325.27   35.80
   2  -5   3  338.17   37.50
   2   5   3  287.67   32.10
  -2  -5   3  284.47   25.60
   2   5   3  309.97   25.70
   2  -5  -3  354.56   42.10
   2  -5  -3  281.47   43.90
  -3  -5  -3  579.94   49.50
   3   5  -3  592.14   48.80
   3  -5   3  587.34   53.09
   3  -5  -3  654.43   61.19
   3   5   3  638.64   44.60
   3  -5  -3  583.04   55.49
   4  -5   3   23.90   15.00
   4   5  -3   41.20   19.00
  -4  -5  -3   70.29   19.30
   4  -5   3   30.90   17.40
   4  -5  -3   47.80   19.60
   4  -5  -3   20.60   16.60
   4   5   3   48.40   14.80
   5   5  -3  460.45   45.60
   5  -5   3  470.15   99.89
   5  -5   3  514.45  101.89
   5   5   3  424.46   34.90
   5  -5  -3  544.25   62.89
   5  -5  -3  461.45   55.79
   6  -5   3   77.79   27.90
   6  -5   3   25.00   24.10
   6   5  -3   58.59   20.70
   6  -5  -3   35.90   22.90
   6  -5  -3   73.89   30.60
   7  -5   3   29.80   23.70
   7   5  -3   45.40   27.40
   7  -5   3   65.09   26.70
   7  -5  -3   56.99   30.90
   7  -5  -3  121.19   40.10
   8  -5   3    4.70   22.80
   8  -5   3    2.50   26.30
   8  -5  -3   64.39   32.60
   8  -5  -3   34.90   26.00
   0  -6  -3 2119.19  104.89
   0  -6   3 1844.32   90.69
   0  -6  -3 2072.09   86.49
   0  -6   3 1987.20  100.09
   1  -6   3   69.79   21.30
  -1  -6  -3  139.99   31.50
   1  -6   3  128.89   28.00
  -1  -6   3   62.89   19.10
   1  -6  -3  126.89   29.60
   1  -6  -3  122.59   28.50
   1   6   3  128.29   24.20
  -1  -6   3   86.99   20.90
  -1  -6   3  128.69   22.10
   2  -6   3    0.40    7.90
   2  -6   3  -15.60    6.30
  -2  -6  -3    7.70   10.00
  -2  -6   3   -9.70    6.40
   2   6   3    3.30    6.60
   2  -6  -3   -7.20    6.70
   2   6   3  -12.10    6.20
   2  -6  -3   -4.90    7.60
   3  -6   3   81.79   26.30
  -3  -6  -3  107.59   26.30
   3  -6   3   78.99   24.30
   3  -6  -3  109.09   31.20
   3   6   3  100.99   16.80
   3  -6  -3  125.09   32.60
   3   6   3   71.19   20.50
   4   6  -3 1294.57   78.39
   4  -6   3 1267.87  104.99
  -4  -6  -3 1265.97   75.29
   4  -6   3 1297.97  107.99
   4  -6  -3 1348.27  100.49
   4   6   3 1249.57   66.49
   4  -6  -3 1309.97   98.99
   5  -6   3   21.20   21.30
   5   6  -3    1.00    8.80
   5  -6   3   28.20   23.90
   5  -6  -3   65.69   25.90
   5  -6  -3   42.00   19.60
   5   6   3   64.09   17.60
   6  -6   3   50.49   22.90
   6  -6   3   41.00   18.90
   6  -6  -3   45.60   21.70
   6  -6  -3   28.00   21.10
   7   6  -3   42.70   27.60
   7  -6   3   82.09   46.20
   7  -6   3   31.20   26.30
   7  -6  -3   17.60   19.30
   7  -6  -3   58.09   28.40
   0  -7  -3    5.50    9.70
   0  -7   3    2.70    7.40
   0  -7   3   -8.80    9.00
   0  -7  -3   -3.30    8.20
  -1  -7  -3   40.80   20.30
   1  -7   3   43.50   16.90
   1  -7   3   36.90   18.80
  -1  -7   3   79.79   22.40
  -1  -7   3   49.20   14.60
   1  -7  -3   69.79   24.80
  -1  -7   3   70.79   21.60
   1  -7  -3   37.90   19.50
   2  -7   3 1592.44  102.39
  -2  -7  -3 1501.25   92.09
   2  -7   3 1654.33   97.59
   2  -7  -3 1594.64   94.89
   2  -7  -3 1601.44  106.29
  -2  -7   3 1544.65   78.29
   3  -7   3   27.70   17.10
   3  -7  -3    8.80   15.90
   3   7   3   13.70   11.50
   3  -7  -3   24.60   15.70
  -3  -7   3   -2.10    9.50
  -4  -7  -3   84.49   25.90
   4  -7   3   60.59   25.50
   4  -7   3   59.59   26.10
   4   7   3   51.49   17.90
   4  -7  -3   82.89   30.00
   4  -7  -3  116.39   36.60
   5  -7   3  -21.20   12.40
   5  -7   3   10.50   18.60
  -5  -7  -3  -19.80   16.70
   5  -7  -3    4.40   14.80
   5  -7  -3   24.50   23.80
   6  -7   3  337.17   66.29
   6  -7   3  276.97   65.59
   6   7  -3  359.86   53.09
   6  -7  -3  270.97   69.09
   6  -7  -3  310.87   61.69
   7  -7   3   32.90   30.50
   7  -7  -3    0.60   21.80
   0  -8   3  256.37   43.80
   0  -8   3  239.88   38.00
   0  -8  -3  200.98   33.10
   0  -8  -3  161.38   37.70
   1  -8   3  224.28   41.60
   1  -8   3  257.17   48.90
  -1  -8  -3  160.58   38.10
  -1  -8   3  146.89   29.90
   1  -8  -3  153.68   39.50
   1  -8  -3  201.18   39.00
  -1  -8   3  165.08   34.30
  -1  -8   3  195.48   30.70
   2  -8   3  -11.90    8.80
   2  -8   3   22.50   18.30
  -2  -8  -3    7.50   12.10
   2  -8  -3   -1.80   12.70
  -2  -8   3   26.30   15.50
   2  -8  -3  -10.00   12.90
  -3  -8  -3  157.58   36.50
   3  -8   3  111.09   32.00
   3  -8   3  140.39   41.70
   3  -8  -3  146.89   41.10
   3  -8  -3  186.08   48.80
  -3  -8   3  157.28   29.00
   4  -8   3  132.09   40.20
   4  -8   3  157.98   41.20
  -4  -8  -3  109.69   33.30
   4  -8  -3  207.28   52.79
   4  -8  -3  228.28   49.30
  -5  -8  -3  102.09   28.40
   5  -8   3   75.29   37.60
   5  -8   3  139.69   43.80
   5  -8  -3   41.40   27.20
   5  -8  -3   77.79   35.70
   6  -8   3   12.80   23.10
   6  -8   3   45.30   30.80
   6  -8  -3    7.70   25.90
   6  -8  -3   26.90   27.00
   0  -9  -3   29.70   17.80
   0  -9   3   -1.60   13.10
   0  -9   3  -30.60   10.90
   0  -9  -3   18.70   18.00
  -1  -9  -3  531.45   66.39
   1  -9   3  632.34   68.69
   1  -9   3  532.95   57.49
   1  -9  -3  593.64   58.19
  -1  -9   3  584.94   44.60
  -1  -9   3  648.34   57.49
   1  -9  -3  569.64   65.69
  -1  -9   3  674.83   64.89
   2  -9   3   10.10   15.60
   2  -9   3    4.70   14.90
  -2  -9  -3  -19.80   14.50
  -2  -9   3    2.80   18.30
   2  -9  -3   -2.90   14.80
   2  -9  -3   26.80   23.20
   3  -9   3  315.37   55.89
   3  -9   3  397.56   72.89
  -3  -9  -3  353.36   55.29
   3  -9  -3  432.16   76.59
   3  -9  -3  293.97   53.09
  -4  -9  -3   25.90   26.10
   4  -9   3    1.60   17.70
   4  -9   3   16.80   17.70
   4  -9  -3   22.20   35.30
   4  -9  -3  -14.10   22.50
   5  -9   3  325.47   67.49
   5  -9   3  234.78   57.59
   5  -9  -3  153.28   44.40
   5  -9  -3  250.47   59.69
   0 -10   3  -17.80   14.50
   0 -10  -3   23.10   22.50
   0 -10   3   -0.60   18.20
   1 -10   3  151.08   38.50
   1 -10   3  144.99   37.40
  -1 -10  -3  182.48   47.30
  -1 -10   3   94.89   40.20
   1 -10  -3  185.38   40.80
   1 -10  -3   95.99   37.50
  -2 -10  -3    4.70   24.00
   2 -10   3  -15.60   20.00
   2 -10   3   25.80   21.50
   2 -10  -3    3.90   22.20
  -2 -10   3   18.20   25.30
   2 -10  -3    8.10   28.30
   3 -10   3  114.59   36.70
   3 -10   3  104.59   38.10
  -3 -10  -3  118.69   38.80
  -3 -10   3  161.28   54.19
   3 -10  -3  130.99   44.10
   3 -10  -3  173.98   46.30
   4 -10   3    7.00   24.70
   4 -10   3   40.90   27.60
   4 -10  -3  -31.10   23.60
   4 -10  -3   39.70   43.70
   0 -11   3   -6.50   27.50
   0 -11  -3  -49.50   26.80
   0 -11   3    9.70   21.50
   1 -11   3   -0.20   21.10
  -1 -11  -3  -46.20   19.70
   1 -11   3   15.50   26.30
   1 -11  -3  -11.20   23.50
  -1 -11   3   70.49   33.20
   1 -11  -3  -54.49   25.90
   2 -11   3   73.59   34.30
  -2 -11  -3  117.79   44.40
   2 -11   3   76.19   38.20
  -2 -11   3   68.49   39.80
   2 -11  -3  130.99   44.30
   2 -11  -3   54.99   36.90
   3 -11   3  -39.80   24.60
   3 -11  -3  -77.19   36.30
   0   0   4 9999.00  229.88
   0   0  -4 9839.82  224.88
   0   0  -4 9728.03  227.98
   0   0   4 9910.61  224.98
   1   0  -4  383.36   30.50
  -1   0   4  428.26   31.50
  -1   0  -4  358.16   31.90
   1   0   4  396.96   33.20
  -1   0   4  383.76   31.70
   1   0   4  361.56   29.40
   1   0  -4  414.36   34.70
   2   0   4   22.60    9.60
  -2   0   4   42.80   11.80
  -2   0   4   26.00   10.20
   2   0  -4   31.20   10.40
   2   0  -4   31.80   10.20
  -3   0   4    4.90    5.20
   3   0   4   -2.00    9.70
   3   0  -4   14.90    8.20
  -3   0   4   -1.40    4.80
   3   0  -4   21.10    8.10
   4   0  -4 2862.41   97.09
   4   0   4 2839.42  116.39
  -4   0   4 2736.13   91.49
  -4   0   4 2642.94   94.09
   4   0  -4 2837.72  113.29
   5   0  -4   22.70   12.50
  -5   0   4   30.00   11.30
   5   0  -4   33.30   14.40
   6   0   4   77.49   21.50
   6   0  -4   78.49   21.30
   6   0  -4   67.99   22.80
   7   0  -4   57.09   16.10
   7   0   4   14.00   14.10
   7   0  -4    0.90   16.90
   8   0   4  447.96   50.49
   8   0  -4  507.15   75.09
   8   0  -4  490.55   52.69
   9   0   4   -5.10   24.10
   9   0  -4   53.89   30.70
   9   0   4   84.69   31.40
   0  -1   4   -1.20    4.80
   0   1  -4    3.80    6.00
   0   1   4    0.20    3.70
   0   1  -4    6.40    4.50
   0   1   4    4.20    5.40
   0  -1  -4   -2.50    3.50
   0  -1  -4   -1.90    4.10
  -1  -1  -4  977.40   54.99
  -1   1   4  854.01   49.20
   1   1  -4  891.11   45.60
   1  -1   4  956.50   53.59
   1   1  -4  971.10   56.09
  -1   1   4  959.70   51.69
   1  -1  -4  972.80   52.19
  -1  -1   4  898.41   51.39
   1   1   4  905.11   52.49
   1  -1  -4  883.01   50.89
   1   1   4  976.40   47.90
  -1  -1   4  901.61   46.00
   2  -1   4 2614.24  101.19
  -2  -1  -4 2740.03  101.89
   2   1  -4 2484.05   81.19
  -2   1   4 2540.85   90.59
   2   1  -4 2645.94   98.29
  -2   1   4 2534.05   92.99
   2  -1  -4 2665.33   99.69
  -2  -1   4 2611.94   79.79
  -2  -1   4 2610.34   87.99
   2  -1  -4 2524.05   92.39
   2   1   4 2561.34   99.09
   3   1  -4   40.70   13.20
  -3   1   4   30.00   11.10
  -3   1   4   43.40   11.90
   3   1  -4   41.90   10.20
   3   1   4   36.90   14.10
   3  -1  -4   39.00   13.50
  -3  -1   4   37.50   10.00
  -3  -1   4   44.60   12.10
   3  -1  -4   17.80    9.60
  -4   1   4  -10.50    6.60
   4   1  -4    0.30    7.00
   4   1  -4   -3.00    5.00
  -4   1   4    9.80    8.30
   4   1   4  -11.40    8.10
  -4  -1   4    7.50    6.90
   4  -1  -4   -2.30    6.10
   4  -1  -4    8.30    8.60
  -4  -1   4   -3.70    5.80
   5   1  -4  251.17   32.80
  -5   1   4  196.08   25.40
   5   1  -4  184.18   21.10
   5  -1  -4  193.98   36.00
   5  -1  -4  230.78   29.70
  -5  -1   4  222.68   19.80
   5   1   4  164.68   32.40
   6   1  -4  832.32   66.39
   6  -1   4  822.42   60.99
   6   1  -4  808.22   44.60
  -6   1   4  804.92   51.89
   6  -1  -4  719.03   56.19
   6  -1  -4  774.12   67.79
   7   1  -4    4.80   17.10
   7  -1   4   10.00   14.00
   7  -1  -4   12.50   14.70
   7   1   4    8.80   10.60
   8   1  -4    4.80   16.10
   8  -1   4   13.80   15.70
   8  -1   4   37.50   18.50
   8  -1  -4   57.99   23.70
   8   1   4   -8.40   17.80
   8  -1  -4  -24.00   15.40
   9  -1   4   26.20   27.20
   9   1  -4    8.20   24.40
   9  -1   4   -7.60   25.30
   9   1   4   59.09   27.20
   0  -2  -4 2295.77   89.99
   0  -2   4 2187.48   89.29
   0  -2   4 2172.98   82.59
   0  -2  -4 2261.67   82.79
   0   2   4 2108.69   86.99
   0   2   4 2190.18   82.19
  -1  -2  -4 2920.31  108.99
   1   2  -4 3077.89  112.49
  -1   2   4 3066.79  103.19
  -1   2   4 3083.59  106.49
   1   2   4 2951.50  105.99
   1  -2  -4 3180.38  106.49
  -1  -2   4 3182.98  110.29
   1   2   4 3113.69   98.19
  -1  -2   4 2856.91   91.39
   1  -2  -4 3029.80  107.19
   2   2  -4   11.70    7.80
  -2   2   4    6.30    6.90
  -2  -2  -4    7.10    7.10
  -2   2   4    5.10    5.20
   2   2   4    9.00    4.80
   2   2   4   13.40    8.90
   2  -2  -4    9.10    8.00
  -2  -2   4    9.80    6.60
  -2  -2   4    4.70    6.10
  -3   2   4 2183.68   92.79
   3   2  -4 2347.47   95.29
  -3   2   4 2189.78   92.99
  -3  -2  -4 2167.68   93.69
   3  -2  -4 2325.37  101.79
   3  -2  -4 2276.97   96.49
  -3  -2   4 2270.87   72.69
   3   2   4 2233.88   94.59
   4   2  -4  119.09   25.20
  -4   2   4  137.09   26.30
   4   2   4  100.99   28.20
   4  -2  -4  120.29   26.40
   4  -2  -4   98.39   26.60
   5  -2   4 1194.68   73.99
   5   2  -4 1217.88   73.29
   5  -2  -4 1240.78   77.89
   5   2   4 1334.87   79.89
   5  -2  -4 1310.27   87.09
   6   2  -4   54.69   21.60
   6  -2   4   92.09   26.80
   6  -2  -4   89.59   28.80
   6  -2  -4  101.59   27.00
   7  -2   4  373.06   49.90
   7   2  -4  405.36   50.09
   7  -2  -4  382.66   63.69
   7  -2  -4  385.16   49.10
   7   2   4  357.96   35.10
   8   2  -4  -17.80   17.20
   8  -2   4   -2.70   13.10
   8  -2   4   11.60   19.40
   8  -2  -4  -16.30   20.60
   8   2   4   12.80   16.40
   8  -2  -4   21.60   20.20
   9   2  -4   57.79   35.40
   9  -2   4   49.60   32.70
   9  -2   4   68.29   31.30
   9  -2  -4   54.89   31.90
   0   3   4   -0.50    5.70
   0   3   4   -0.20    5.00
   0  -3   4   -5.40    5.20
   0  -3  -4   -5.20    2.20
   0  -3  -4    1.20    5.00
   1   3  -4 1903.61   88.49
  -1   3   4 1817.02   81.89
  -1  -3  -4 1782.12   57.69
  -1   3   4 1796.82   90.29
  -1  -3  -4 1852.51   84.49
   1   3   4 1906.31   84.09
   1  -3  -4 1874.41   82.59
   1  -3  -4 1930.81   88.99
  -1  -3   4 1942.01   86.99
  -1  -3   4 1764.42   70.79
   1   3   4 1938.91   73.09
   2   3  -4  745.83   54.19
  -2  -3  -4  724.93   53.19
  -2   3   4  736.33   53.49
  -2   3   4  719.53   50.79
  -2  -3   4  733.93   43.10
   2   3   4  757.22   50.39
   2   3   4  682.93   38.10
   2  -3  -4  723.73   53.59
   2  -3  -4  717.43   52.69
  -2  -3   4  789.72   38.10
   3   3  -4  574.14   47.50
  -3  -3  -4  462.65   42.40
   3  -3  -4  566.64   49.99
   3   3   4  548.45   44.00
   3  -3  -4  520.35   50.89
  -3  -3   4  538.65   35.20
   4   3  -4   51.39   17.60
   4  -3   4   69.69   22.30
   4  -3  -4   45.90   19.40
   4   3   4   51.59   17.30
   4  -3  -4   38.00   17.30
   5  -3   4  636.34   57.39
   5   3  -4  687.93   55.39
   5  -3  -4  581.44   56.19
   5  -3  -4  834.92   70.69
   5   3   4  675.23   52.29
   6  -3   4   26.60   16.00
   6   3  -4   65.59   21.50
   6  -3  -4   57.89   31.90
   6   3   4   83.29   24.20
   6  -3  -4   61.69   22.00
   7   3  -4   39.70   20.40
   7  -3   4   69.69   27.50
   7  -3   4   49.10   24.10
   7   3   4   89.99   17.10
   7  -3  -4   17.30   16.50
   7  -3  -4   21.50   22.40
   8  -3   4   49.90   29.90
   8   3  -4   46.60   28.70
   8  -3   4   31.70   26.20
   8  -3  -4  112.29   37.60
   8  -3  -4   42.10   32.90
   0  -4  -4 1106.69   58.19
   0  -4  -4 1199.58   71.69
   0   4   4 1217.98   62.79
   0  -4   4 1223.88   74.99
   0   4   4 1222.38   69.79
  -1   4   4  204.18   33.40
   1  -4   4  177.88   30.30
  -1   4   4  214.88   36.20
  -1  -4  -4  162.18   30.60
   1  -4  -4  202.08   26.30
  -1  -4   4  238.18   37.20
   1   4   4  154.28   28.00
   1   4   4  166.98   21.50
   1  -4  -4  188.18   34.00
   2  -4   4   10.70    9.70
  -2  -4  -4   -1.60    7.50
   2   4  -4    6.60    7.40
   2  -4  -4    5.10    8.80
   2   4   4   -6.00    4.80
   2   4   4    6.20    7.80
  -2  -4   4    4.90    6.60
  -2  -4   4   -2.60    7.80
   2  -4  -4    4.80    6.60
  -2  -4   4    4.80    5.60
   3  -4   4  271.77   34.00
   3   4  -4  296.47   35.70
  -3  -4  -4  242.58   39.00
   3  -4  -4  231.38   39.80
   3  -4  -4  200.78   39.30
  -4  -4  -4  189.78   33.40
   4   4  -4  156.68   32.50
   4  -4   4   85.09   23.30
   4  -4  -4  145.09   36.00
   4   4   4  130.59   27.10
   4  -4  -4  188.18   38.90
   5   4  -4  184.58   33.60
   5  -4   4  179.68   41.00
   5  -4  -4   97.89   31.70
   5  -4  -4  184.08   41.00
   5   4   4  167.68   28.20
   6   4  -4    9.20   18.60
   6  -4   4   38.30   22.40
   6  -4  -4   22.90   23.80
   6  -4  -4   36.50   25.80
   6   4   4   57.59   19.40
   7  -4   4   83.69   29.10
   7  -4   4    1.40   18.90
   7   4  -4   28.70   20.30
   7  -4  -4   34.90   26.10
   7  -4  -4   22.90   18.80
   8   4  -4   48.90   25.60
   8  -4   4   38.00   26.50
   8  -4   4   12.60   31.70
   8  -4  -4   37.00   27.90
   8  -4  -4   22.10   26.10
   0  -5  -4  -11.10    5.10
   0  -5   4    2.40    8.20
   0   5   4   -1.50    6.60
   0  -5  -4    2.40    9.30
   0  -5   4   -2.80    4.10
   1  -5   4   -0.80    7.70
  -1  -5  -4    0.20    9.50
  -1  -5   4   12.10    9.00
   1   5   4  -10.50    7.20
  -1  -5   4    5.90    5.90
   1  -5  -4   15.50    9.30
   1  -5  -4   -9.10    7.70
  -2  -5  -4 1407.26   81.09
   2  -5   4 1336.47   78.89
  -2  -5   4 1444.26   55.49
  -2  -5   4 1428.06   59.59
   2   5   4 1368.86   61.69
  -2  -5   4 1368.36   62.19
   2   5   4 1421.46   76.89
   2  -5  -4 1405.96   82.59
   3   5  -4   83.99   24.60
   3  -5   4  106.49   28.70
  -3  -5  -4   54.19   22.00
   3  -5  -4   77.39   25.80
   3   5   4   92.69   23.70
   3   5   4  110.39   18.40
   3  -5  -4   77.39   24.50
  -4  -5  -4   -5.50    9.50
   4  -5   4   -6.90   11.80
   4   5  -4   14.30   11.60
   4   5   4    9.80   10.70
   4  -5  -4  -16.30    8.60
   4  -5  -4    1.30   10.80
   5  -5   4    1.10   11.20
   5   5  -4   43.40   21.60
   5  -5   4   -1.50   13.60
   5   5   4    9.30   12.90
   5  -5  -4   22.80   20.10
   5  -5  -4   19.10   20.40
   6  -5   4  450.85   59.49
   6  -5   4  458.65   59.59
   6   5  -4  389.66   50.49
   6  -5  -4  498.65   65.39
   6   5   4  334.37   54.89
   6  -5  -4  400.86   67.29
   7   5  -4   16.80   23.10
   7  -5   4   82.59   31.00
   7  -5   4   78.39   26.80
   7  -5  -4   75.39   33.50
   7  -5  -4   78.89   33.70
   8  -5   4   25.30   25.00
   8  -5   4   17.70   23.50
   8  -5  -4  -11.50   20.20
   0  -6  -4  857.11   68.59
   0  -6   4  791.72   54.39
   0  -6   4  753.42   57.29
   0  -6  -4  769.62   52.29
   1  -6   4  266.27   33.00
  -1  -6  -4  287.07   47.00
  -1  -6   4  241.18   29.60
  -1  -6   4  232.88   47.60
   1   6   4  210.38   31.60
   1  -6  -4  181.38   38.60
   1  -6  -4  225.48   37.10
  -1  -6   4  262.07   28.80
   2  -6   4  -10.30    6.70
  -2  -6  -4    5.10   12.00
  -2  -6   4    6.80    6.30
   2  -6  -4  -14.90    6.10
  -2  -6   4   13.30    7.70
  -2  -6   4   -4.20    9.40
   2  -6  -4    9.70    8.00
   2   6   4   -5.90    7.80
  -3  -6  -4   35.80   19.10
   3  -6   4   67.89   21.40
   3  -6   4   48.50   22.20
   3  -6  -4   39.10   19.60
   3  -6  -4   32.80   19.40
   3   6   4   75.19   15.70
  -4  -6  -4  242.18   42.20
   4  -6   4  216.38   45.90
   4  -6   4  153.98   39.70
   4   6  -4  193.88   36.30
   4  -6  -4  190.28   47.60
   4  -6  -4  231.28   75.69
   4   6   4  184.68   32.50
   5   6  -4   41.00   19.20
   5  -6   4   29.00   18.50
  -5  -6  -4   37.30   18.20
   5  -6   4   22.70   17.50
   5  -6  -4   47.90   26.00
   5   6   4   33.40   16.20
   5  -6  -4   -5.10   15.40
   6  -6   4   24.40   20.60
   6   6  -4   66.79   26.50
   6  -6   4   17.10   16.70
   6  -6  -4    9.30   17.90
   6  -6  -4   15.50   19.50
   7  -6   4    5.90   19.60
   7  -6   4   48.00   26.90
   7   6  -4  -27.30   21.50
   7  -6  -4   14.00   20.80
   7  -6  -4  -12.20   18.00
   0  -7   4    0.60   11.10
   0  -7  -4   10.70   14.00
   0  -7   4   -4.00    8.90
   0  -7  -4    1.50    8.90
  -1  -7  -4  -13.90    9.70
   1  -7   4   17.60   14.80
  -1  -7   4   -5.00    7.80
  -1  -7   4    3.40   15.30
   1  -7  -4   20.80   15.90
   1  -7  -4    8.00   12.60
  -1  -7   4   12.40    9.90
  -2  -7  -4  220.18   42.50
   2  -7   4  289.77   48.80
   2  -7   4  200.98   39.90
   2  -7  -4  206.58   41.30
   2  -7  -4  255.47   50.79
  -2  -7   4  249.48   31.80
   3  -7   4   -0.10   11.00
  -3  -7  -4   19.90   15.30
   3  -7   4    6.70   13.00
   3   7   4  -21.90    8.90
   3  -7  -4   30.40   15.10
  -3  -7   4   -3.10    8.80
   3  -7  -4    8.70   11.20
  -4  -7  -4    9.90   16.10
   4  -7   4   26.90   16.30
   4  -7   4    7.40   11.80
   4  -7  -4   -4.90   15.60
   4  -7  -4   10.20   15.70
   4   7   4  -18.80   12.70
   5  -7   4   -0.10   15.80
  -5  -7  -4   21.10   30.40
   5  -7  -4   20.40   20.20
   5  -7  -4   12.00   21.50
   6  -7   4   20.60   25.40
   6   7  -4   18.90   25.80
   6  -7  -4   14.20   26.60
   6  -7  -4   41.50   27.40
   7  -7  -4  -33.60   21.20
   0  -8   4  269.77   35.60
   0  -8  -4  252.27   38.20
   0  -8   4  237.08   42.10
   0  -8  -4  242.98   53.89
  -1  -8  -4  124.09   34.30
   1  -8   4  107.59   28.40
   1  -8   4  138.69   33.20
  -1  -8   4   95.59   26.30
  -1  -8   4  112.19   27.90
  -1  -8   4  131.79   25.70
   1  -8  -4  213.58   38.70
   1  -8  -4  141.99   41.30
  -2  -8  -4  -19.00   12.20
   2  -8   4   20.80   16.50
   2  -8   4    1.40   10.70
   2  -8  -4   18.60   14.60
  -2  -8   4    5.70   10.70
   2  -8  -4   -3.00   15.00
  -3  -8  -4   85.89   29.30
   3  -8   4  111.99   36.50
   3  -8   4  117.69   30.40
   3  -8  -4   80.09   29.50
   3  -8  -4   42.70   25.10
  -3  -8   4   99.09   21.30
  -4  -8  -4  307.27   52.49
   4  -8   4  234.38   55.59
   4  -8   4  249.78   53.09
   4  -8  -4  234.98   52.19
   4  -8  -4  212.68   53.89
  -5  -8  -4  139.59   35.30
   5  -8   4  149.69   64.99
   5  -8  -4  198.98   49.90
   5  -8  -4  178.68   49.20
   6  -8   4   57.89   29.80
   6  -8   4  -23.40   20.20
   6  -8  -4  -23.40   27.30
   6  -8  -4  -10.20   23.20
   0  -9  -4    7.60   15.80
   0  -9   4  -12.50   15.20
   0  -9   4   13.10   16.00
   0  -9  -4   14.00   14.80
  -1  -9  -4  -30.40   16.90
   1  -9   4   19.50   18.10
   1  -9   4   14.20   17.80
  -1  -9   4   -0.10   12.60
   1  -9  -4   20.10   19.80
   1  -9  -4  -25.80   15.00
  -1  -9   4  -17.10   12.40
   2  -9   4  367.56   61.49
   2  -9   4  257.37   55.39
  -2  -9  -4  228.38   49.60
   2  -9  -4  292.67   63.19
   2  -9  -4  259.97   55.09
  -2  -9   4  285.97   47.80
   3  -9   4   -5.30   18.60
  -3  -9  -4    7.90   23.20
   3  -9   4   31.20   23.60
   3  -9  -4   -4.70   18.20
   3  -9  -4   23.30   22.20
  -3  -9   4   22.50   20.80
   4  -9   4   26.50   29.20
   4  -9   4   25.50   25.90
  -4  -9  -4    5.20   30.20
   4  -9  -4   -3.80   24.50
   4  -9  -4  -19.90   18.30
   5  -9   4   43.20   24.30
   5  -9   4   35.00   24.30
   5  -9  -4   22.60   26.50
   5  -9  -4  -26.30   21.90
   0 -10   4    5.00   17.40
   0 -10   4  -23.30   18.60
   0 -10  -4  -40.40   15.80
   1 -10   4  225.18   45.40
   1 -10   4  290.17   60.19
  -1 -10  -4  219.48   50.49
   1 -10  -4  196.18   43.80
   1 -10  -4  237.08   57.09
   2 -10   4   10.80   21.30
  -2 -10  -4   14.60   26.30
   2 -10   4    7.50   24.40
   2 -10  -4    2.40   18.50
  -2 -10   4  -34.20   22.90
   2 -10  -4  -25.00   21.00
   3 -10   4   64.29   37.20
   3 -10   4   80.19   33.80
  -3 -10  -4   95.19   36.10
   3 -10  -4   87.39   41.70
   3 -10  -4  154.58   38.30
   4 -10   4   54.19   30.30
   4 -10  -4   16.00   30.70
   0 -11   4    4.40   23.50
   0 -11   4   35.50   30.50
   0 -11  -4   13.40   31.60
   1 -11   4  180.18   44.00
  -1 -11  -4   91.89   45.60
   1 -11   4  211.88   55.99
   1 -11  -4  186.18   54.49
  -1 -11   4  124.79   40.30
  -2 -11  -4    6.00   32.00
   2 -11   4  -48.00   22.40
   2 -11   4   -6.80   26.90
   2 -11  -4    1.10   25.60
   2 -11  -4   28.30   35.10
  -2 -11   4  -50.39   26.60
   0   0   5   -2.50    4.60
   0   0   5    3.60    4.30
   0   0  -5    3.80    4.40
   0   0  -5    0.70    4.90
   1   0   5   -7.00    3.70
   1   0  -5    4.60    5.40
  -1   0  -5    4.60    5.50
   1   0   5    6.50    6.00
  -1   0   5   -3.60    5.30
   1   0  -5   -3.20    3.90
  -1   0   5   -4.60    4.80
   2   0   5    2.10    7.00
   2   0  -5    8.20    7.40
  -2   0   5   -6.80    3.70
   2   0  -5   -1.70    3.90
   3   0  -5   -6.50    4.70
   3   0   5  -10.30    5.00
  -3   0   5  -12.40    5.40
   3   0  -5   -1.90    4.20
   4   0  -5   -1.30    5.00
  -4   0   5    4.60    6.70
  -4   0   5    8.60    7.30
   5   0  -5   -7.50    9.60
   5   0  -5   -2.50    6.30
   6   0  -5    5.90   10.00
  -6   0   5    6.80   10.50
   6   0  -5    6.70   13.60
   7   0  -5  -30.50   11.20
   7   0  -5    1.10   22.90
   7   0   5  -20.80   11.00
   8   0   5   37.20   19.30
   8   0  -5  -14.20   19.30
   9   0   5   18.20   24.80
   9   0   5   -5.40   22.10
   9   0  -5   13.60   31.80
   0   1   5    6.80    5.50
   0   1   5   -1.70    5.40
   0  -1  -5   -2.30    3.90
   0  -1  -5   -1.00    4.20
   0   1  -5   -2.70    2.60
   0  -1   5    3.40    6.50
   0  -1   5   -1.70    4.30
   0   1  -5    6.70    6.60
   1   1  -5  241.48   31.30
  -1   1   5  217.98   27.70
  -1  -1  -5  207.98   27.80
  -1   1   5  243.48   27.80
   1  -1   5  264.97   30.60
   1  -1   5  225.88   27.80
   1   1  -5  223.88   24.50
   1   1   5  253.17   29.70
  -1  -1   5  209.28   23.90
   1  -1  -5  239.48   28.90
   1   1   5  225.58   25.50
  -1  -1   5  210.58   27.60
   1  -1  -5  259.27   28.90
   2   1  -5 1055.09   65.79
  -2   1   5  990.10   57.09
   2   1  -5 1035.00   52.69
  -2  -1  -5 1054.09   65.69
   2  -1   5 1027.20   64.69
  -2   1   5 1038.90   71.19
   2  -1  -5 1029.20   59.29
  -2  -1   5 1072.59   53.19
   2   1   5 1042.60   54.49
  -2  -1   5 1081.99   59.39
   2   1   5  979.10   62.79
   2  -1  -5 1050.19   62.89
   3   1  -5  376.96   39.90
   3  -1   5  479.65   45.20
  -3   1   5  490.15   39.40
   3   1  -5  470.75   34.40
  -3   1   5  419.46   38.50
   3   1   5  497.25   46.00
   3  -1  -5  467.55   40.00
   3  -1  -5  506.95   45.90
  -3  -1   5  413.86   35.10
  -3  -1   5  457.25   32.70
  -4   1   5   49.70   16.80
   4   1  -5   36.20   14.80
   4   1  -5   73.09   15.60
  -4   1   5   53.09   14.80
   4  -1  -5   40.90   15.90
   4   1   5   55.59   20.40
  -4  -1   5   48.10   11.90
   4  -1  -5   36.00   17.60
  -4  -1   5   70.89   15.20
   5   1  -5  128.29   20.70
  -5   1   5  175.28   29.10
   5   1  -5  151.38   34.40
   5  -1  -5   90.59   25.60
  -5  -1   5  168.48   21.00
   5  -1  -5  150.38   28.60
   6  -1   5  316.47   37.40
   6   1  -5  281.57   26.70
   6   1  -5  238.28   42.80
   6  -1  -5  216.08   43.00
   6  -1  -5  236.28   41.50
   7   1  -5  170.68   38.80
   7  -1   5   85.79   25.80
   7  -1  -5  127.09   34.10
   7   1   5  173.28   31.40
   7  -1  -5  117.29   28.70
   8  -1   5  -12.90   18.00
   8   1  -5   25.90   23.90
   8   1   5   31.90   16.30
   8  -1  -5  -40.70   17.90
   8  -1  -5   -6.40   19.80
   0  -2   5 1156.68   62.69
   0  -2   5 1227.08   70.09
   0  -2  -5 1209.48   63.79
   0   2   5 1218.08   63.69
   0  -2  -5 1102.09   64.69
   0   2   5 1098.69   65.59
  -1   2   5    4.60    7.40
  -1  -2  -5   11.40    7.10
   1  -2   5   17.40    9.70
  -1   2   5   56.69   17.00
  -1  -2  -5   21.60   12.10
   1   2  -5   20.10   11.40
   1  -2   5   14.40    9.60
   1  -2  -5   19.10   10.30
  -1  -2   5   21.60   10.30
   1   2   5   15.60    9.60
  -1  -2   5   15.30    9.50
   1   2   5   16.20    9.70
   1  -2  -5   20.70   10.40
   2   2  -5    4.20    5.00
  -2   2   5   -4.00    6.40
  -2   2   5    5.60    7.40
  -2  -2  -5    0.10    8.10
   2   2  -5    7.90   10.30
  -2  -2   5   19.20    9.60
  -2  -2   5   18.80    8.60
   2  -2  -5    2.40    6.20
   2   2   5   11.00    6.80
   2   2   5   10.80   10.00
   2  -2  -5    1.30    6.50
   3   2  -5   36.60   12.40
  -3   2   5   17.90    9.70
  -3  -2  -5   17.70   12.10
   3   2  -5   16.10    6.90
   3   2   5  -12.30    8.50
  -3  -2   5   -3.40    5.60
   3  -2  -5   11.90   10.70
  -3  -2   5   15.80    7.90
   3  -2  -5   17.00    9.80
   4   2  -5 1126.59   71.59
   4   2   5 1125.09   73.89
   4  -2  -5  989.80   72.99
  -4  -2   5 1072.29   49.70
   4  -2  -5 1028.30   69.49
   5   2  -5   27.60   16.20
   5  -2   5   13.30    9.80
   5  -2  -5   12.70   12.30
   5  -2  -5   35.30   16.20
   6   2  -5   30.90   15.80
   6  -2   5   31.70   15.70
   6  -2  -5  -10.10   12.80
   6  -2  -5   42.90   18.90
   7   2  -5    8.30   18.00
   7  -2   5   -7.40   14.60
   7  -2  -5   -0.20   19.50
   7  -2  -5   -1.70   15.60
   7   2   5   -0.50   15.10
   8  -2   5  159.28   43.00
   8   2  -5  233.98   51.59
   8  -2   5  206.78   53.19
   8  -2  -5  180.48   43.60
   8  -2  -5  240.18   53.19
   8   2   5  227.98   36.80
   0   3   5  -11.10    5.20
   0  -3  -5   -6.70    6.70
   0   3   5    6.90    7.30
   1   3  -5 1707.13   90.49
  -1   3   5 1736.03   86.49
  -1  -3  -5 1748.72   87.99
  -1   3   5 1713.63   83.19
  -1  -3  -5 1769.02   65.79
   1  -3  -5 1728.53   87.69
   1  -3  -5 1630.64   80.99
   1   3   5 1744.33   87.29
  -1  -3   5 1793.12   89.99
   1   3   5 1776.62   77.29
  -1  -3   5 1757.42   75.39
  -2   3   5   48.00   18.20
  -2  -3  -5   41.30   18.00
   2   3  -5   41.10   15.30
   2  -3  -5   26.00   14.20
   2  -3  -5   33.30   15.50
  -2  -3   5   60.29   15.20
   2   3   5   67.79   18.50
  -2  -3   5   67.39   16.90
   2   3   5   59.19   15.30
  -3  -3  -5  657.63   55.29
   3   3  -5  509.75   49.50
   3   3   5  592.04   49.99
   3  -3  -5  577.84   52.49
  -3  -3   5  586.04   37.70
   3  -3  -5  541.85   52.59
   3   3   5  598.74   36.80
  -4  -3  -5  183.38   35.60
   4   3  -5  178.08   34.50
   4   3   5  131.99   28.80
   4  -3  -5  155.58   35.50
   4  -3  -5  141.29   34.10
   5  -3   5  352.16   42.90
   5   3  -5  330.07   42.60
   5  -3  -5  257.37   46.00
   5  -3  -5  323.27   51.99
   6  -3   5    4.30   10.40
   6   3  -5   32.80   14.20
   6  -3  -5   -4.90   13.90
   6  -3  -5   -3.00    9.20
   7   3  -5   36.80   20.00
   7  -3   5   17.40   17.70
   7  -3  -5   52.69   30.70
   7  -3  -5   60.39   24.80
   8  -3   5   21.10   21.80
   8  -3   5  -38.50   16.80
   8   3  -5  -22.10   21.90
   8  -3  -5   52.29   27.70
   8  -3  -5   58.09   49.30
   0   4   5  402.76   37.80
   0  -4  -5  426.16   37.90
   0   4   5  357.26   40.80
   0  -4   5  344.27   40.40
  -1  -4  -5 1570.64   59.29
  -1  -4  -5 1584.54   87.09
   1  -4  -5 1560.74   81.59
   1  -4  -5 1594.34   89.89
  -1  -4   5 1587.24   87.39
   1   4   5 1556.64   74.49
   1   4   5 1665.83   85.99
  -1  -4   5 1636.44   75.79
   2   4  -5    5.60    9.40
  -2  -4  -5   -3.60   10.10
   2   4   5   22.50    9.40
  -2  -4   5   20.80   10.70
   2  -4  -5    6.30    9.80
   2  -4  -5   16.10   10.70
  -2  -4   5   21.70   11.50
   2   4   5   14.20   10.50
   3   4  -5 1021.70   74.29
   3  -4   5 1046.00   69.29
  -3  -4  -5  954.20   70.09
   3  -4  -5 1031.70   75.19
  -3  -4   5 1046.20   47.70
   3   4   5 1050.49   52.99
   3   4   5  936.61   65.09
   3  -4  -5 1087.29   77.49
   4  -4   5   71.49   22.20
  -4  -4  -5   99.79   25.80
   4   4   5   85.89   22.00
   4  -4  -5  149.69   35.30
   4  -4  -5   54.39   23.10
   5  -4   5  612.24   60.19
   5   4  -5  610.64   61.19
   5  -4  -5  666.03   66.09
   6  -4   5   85.39   29.10
   6   4  -5  109.09   29.30
   6  -4  -5   80.29   30.80
   6  -4  -5  112.89   38.70
   7  -4   5  360.06   64.59
   7   4  -5  224.68   49.00
   7  -4   5  213.88   51.49
   7  -4  -5  272.37   57.99
   7  -4  -5  331.27   60.29
   8  -4   5   23.00   26.90
   8  -4  -5    1.70   26.70
   8  -4  -5   -2.30   19.80
   0  -5   5    9.70   10.20
   0  -5  -5    0.60    7.30
   0  -5  -5   -2.70    6.70
   0  -5   5    9.00    7.00
   1  -5   5  912.61   61.69
  -1  -5  -5  872.91   66.79
   1  -5  -5  776.62   67.09
  -1  -5   5  878.61   64.99
   1  -5  -5  824.12   61.19
   1   5   5  864.61   55.59
  -1  -5   5  880.51   53.09
   2  -5   5  224.78   38.40
  -2  -5  -5  299.87   48.20
   2   5   5  261.27   27.70
  -2  -5   5  288.27   26.30
   2  -5  -5  259.07   43.90
  -2  -5   5  239.28   29.20
   2  -5  -5  238.28   45.60
  -2  -5   5  268.17   28.50
   3  -5   5  416.76   46.80
  -3  -5  -5  499.45   52.79
   3   5  -5  508.35   52.39
   3  -5  -5  526.95   56.39
   3   5   5  478.75   35.50
   3  -5  -5  462.35   54.49
   4   5  -5   22.80   13.80
   4  -5   5   14.50   11.10
  -4  -5  -5   16.00   16.80
   4  -5  -5   68.49   26.80
   4  -5  -5    2.00   13.70
   5  -5   5  373.46   59.89
   5   5  -5  350.86   56.29
   5  -5  -5  432.76   57.89
   5  -5  -5  337.87   61.09
   6   5  -5   89.09   32.00
   6  -5   5   86.89   29.90
   6  -5   5   76.99   31.70
   6  -5  -5   88.39   34.20
   6  -5  -5   53.49   27.80
   7  -5   5   65.29   33.80
   7  -5   5   36.20   20.40
   7   5  -5  129.79   42.70
   7  -5  -5   39.20   52.09
   7  -5  -5   34.10   26.60
   8  -5   5   29.30   31.50
   8  -5   5   42.90   40.80
   0  -6   5 2863.41  114.39
   0  -6  -5 2832.52  135.49
   0  -6  -5 2763.22  111.09
  -1  -6  -5   17.50   14.30
   1  -6   5   14.10   11.40
  -1  -6   5    6.80    8.90
  -1  -6   5    9.10   11.10
   1  -6  -5    8.20   12.20
   1  -6  -5    2.20   11.10
   2  -6   5    5.10   10.50
  -2  -6  -5   28.80   16.80
  -2  -6   5    0.10   10.40
   2   6   5   -3.30   10.90
  -2  -6   5   11.50    8.30
  -2  -6   5   15.40    9.20
   2  -6  -5    3.30   13.50
   2  -6  -5   30.90   13.60
   3  -6   5  146.49   34.80
  -3  -6  -5  114.49   29.30
   3  -6  -5   95.99   28.00
   3   6   5   84.39   19.80
  -3  -6   5  105.69   17.90
   3  -6  -5   69.19   25.40
  -4  -6  -5 1015.50   79.79
   4  -6   5 1202.78   89.99
   4   6  -5 1291.77   89.39
   4   6   5 1198.28   56.59
   4  -6  -5 1114.39   94.29
   4  -6  -5 1233.48   96.19
  -5  -6  -5  -26.20   13.80
   5  -6   5   22.20   15.30
   5   6  -5   13.10   16.20
   5  -6   5   36.30   16.60
   5  -6  -5   24.20   19.50
   5  -6  -5   -8.90   16.70
   6   6  -5  -30.60   20.80
   6  -6   5   30.90   21.70
   6  -6   5   14.30   16.10
   6  -6  -5   -8.90   19.80
   6  -6  -5   17.60   21.80
   7  -6   5    0.20   25.40
   7   6  -5   14.00   23.00
   7  -6   5   17.90   21.80
   7  -6  -5   51.69   41.40
   7  -6  -5    8.60   27.70
   0  -7   5  -10.40   11.20
   0  -7  -5  -22.60    9.30
   0  -7  -5    5.70   10.20
   0  -7   5   -6.80    8.10
   1  -7   5   32.30   15.20
   1  -7   5   23.40   14.60
  -1  -7  -5   11.60   16.80
  -1  -7   5   11.00   10.60
  -1  -7   5   41.60   18.10
  -1  -7   5   14.30   16.10
   1  -7  -5   14.50   17.40
   1  -7  -5   29.10   16.50
   2  -7   5 1397.96   92.99
  -2  -7  -5 1508.05   99.19
   2  -7   5 1494.85  103.19
   2  -7  -5 1846.32  167.58
   2  -7  -5 1587.24  100.19
  -2  -7   5 1496.85   74.09
  -2  -7   5 1603.04   66.89
  -2  -7   5 1531.65   78.69
  -3  -7  -5   51.29   25.30
   3  -7   5   72.79   32.40
   3  -7   5   21.00   17.30
  -3  -7   5   19.10   13.60
   3  -7  -5    4.60   15.00
   3  -7  -5   -1.90   18.00
   3   7   5   51.79   20.50
  -3  -7   5   24.90   16.80
   4  -7   5   17.10   18.80
  -4  -7  -5    2.60   15.50
   4  -7   5   25.60   22.60
   4   7   5   18.90   13.70
   4  -7  -5  -26.40   14.60
   5  -7   5  -14.40   10.20
  -5  -7  -5   44.90   27.80
   5   7  -5   20.20   25.00
   5  -7   5   12.60   20.10
   5  -7  -5   67.69   28.70
   5  -7  -5   31.80   21.80
   6   7  -5  533.45   64.99
   6  -7   5  640.74   82.59
   6  -7   5  492.95   80.19
   6  -7  -5  602.44   80.39
   7  -7  -5   34.30   30.70
   0  -8   5  688.03   59.09
   0  -8   5  660.43   62.59
   0  -8  -5  682.03  109.29
   0  -8  -5  671.63   53.89
   1  -8   5   66.99   25.50
  -1  -8  -5  111.19   33.90
   1  -8   5   59.79   22.10
  -1  -8   5   85.49   23.70
   1  -8  -5   72.59   26.90
  -1  -8   5  137.79   27.70
   1  -8  -5   76.39   26.00
   2  -8   5   34.80   18.20
  -2  -8  -5    1.70   14.80
   2  -8   5   -6.60   14.20
  -2  -8   5   27.00   12.40
  -2  -8   5   32.60   14.50
   2  -8  -5   -3.90   16.20
   2  -8  -5    8.40   18.60
   3  -8   5  164.98   44.30
   3  -8   5  159.18   38.70
  -3  -8  -5  127.29   34.60
  -3  -8   5  222.68   33.90
   3  -8  -5  179.18   47.90
   3  -8  -5  166.58   44.80
  -4  -8  -5  131.59   39.60
   4  -8   5  231.08   52.49
   4  -8   5  136.59   41.40
   4  -8  -5  211.28   51.99
   4  -8  -5  242.28   52.29
   5  -8   5    3.90   19.40
   5  -8   5   -1.90   17.10
   5  -8  -5  -18.50   17.20
   5  -8  -5   30.50   49.00
   6  -8  -5  -21.80   27.60
   0  -9  -5    3.40   15.10
   0  -9  -5   45.80   23.30
  -1  -9  -5  388.46   69.69
   1  -9   5  400.06   64.99
   1  -9   5  401.16   50.69
   1  -9  -5  388.26   49.20
   1  -9  -5  360.86   67.19
  -1  -9   5  301.67   38.40
  -1  -9   5  357.36   56.39
  -2  -9  -5   17.00   20.60
   2  -9   5   12.20   20.20
   2  -9   5   -3.80   16.40
   2  -9  -5   40.30   20.70
  -2  -9   5  -17.50   16.20
   2  -9  -5  -17.10   17.60
   3  -9   5  278.07   58.89
   3  -9   5  203.48   51.89
  -3  -9  -5  193.38   47.20
   3  -9  -5  194.48   53.19
   3  -9  -5  241.98   51.69
  -4  -9  -5   15.50   29.70
   4  -9   5  -17.90   19.80
   4  -9   5   21.90   18.80
   4  -9  -5   38.70   24.00
   4  -9  -5   23.30   24.40
   5  -9  -5  245.08   61.69
   0 -10   5    1.30   17.60
   0 -10  -5    4.40   30.90
   0 -10   5   -5.20   19.10
   1 -10   5  138.49   38.20
  -1 -10  -5  143.09   47.20
   1 -10   5  112.39   35.50
  -1 -10   5   93.69   26.10
   1 -10  -5  133.99   37.80
   1 -10  -5  112.59   41.60
  -1 -10   5  184.08   45.70
   2 -10   5   -5.90   20.60
  -2 -10  -5   46.80   29.50
   2 -10   5   -1.90   17.90
   2 -10  -5   -5.20   23.90
   2 -10  -5   -6.50   22.60
  -2 -10   5   90.19   33.50
   3 -10   5   65.79   38.60
   3 -10   5  119.89   37.60
   3 -10  -5  110.39   42.10
   3 -10  -5  152.68   48.40
  -4 -10  -5   99.89   78.49
   4 -10  -5   -1.70   33.60
   0 -11   5  -15.90   24.50
   0 -11  -5  -18.70   23.70
   1 -11   5   29.70   26.60
  -1 -11  -5   66.99   37.00
   1 -11   5    8.00   39.80
   1 -11  -5   73.19   32.00
  -1 -11   5    7.80   30.10
   2 -11   5   46.90   54.89
  -2 -11  -5  100.69   42.70
   2 -11   5   30.40   29.80
   2 -11  -5   49.70   38.10
   0   0  -6 6296.37  186.18
   0   0   6 6026.20  179.38
   0   0  -6 6300.07  184.78
   0   0   6 6128.69  186.98
   1   0   6   18.10   11.50
   1   0   6    7.90    6.80
   1   0  -6    5.00    7.60
   1   0  -6   11.20    9.40
  -1   0  -6    3.60    5.80
  -1   0   6    0.30    6.40
   2   0   6   24.00   12.10
   2   0  -6   21.20   10.60
  -2   0   6   16.60    9.50
   2   0  -6   54.89   17.30
   2   0   6   44.00   14.80
  -2   0   6   40.30   16.40
   3   0  -6   57.69   18.90
  -3   0   6   38.00   14.10
   3   0  -6   93.49   20.00
  -3   0   6   40.70   17.50
  -4   0   6 3000.90  108.29
   4   0  -6 3041.20  112.99
  -4   0   6 3090.59  115.79
   4   0  -6 2868.51  130.09
  -5   0   6  430.66   38.40
   5   0  -6  453.55   41.50
   5   0  -6  438.76   51.89
  -5   0   6  478.65   42.30
   6   0  -6  -21.20   12.10
  -6   0   6    4.30   12.50
   7   0  -6    0.60   18.70
   7   0   6   10.70   12.30
   8   0  -6  249.08   56.69
   8   0   6  285.37   60.49
   0  -1   6   10.60    9.80
   0   1  -6   -1.10    5.90
   0  -1   6   -5.00    6.70
   0  -1  -6   -5.10    4.80
   0  -1  -6   -0.50    5.50
   0   1   6   -5.60    5.60
   0   1   6   -4.00    6.00
   1   1  -6   53.59   18.40
  -1  -1  -6   30.50   13.70
   1   1  -6   31.50   11.80
  -1   1   6   43.40   16.30
  -1   1   6   67.19   19.10
   1  -1   6   57.99   18.80
   1  -1   6   21.00   12.00
   1   1   6   51.89   16.00
  -1  -1   6   51.29   16.30
   1   1   6   64.79   19.20
   1  -1  -6   34.10   13.80
   1  -1  -6   55.49   16.70
  -1  -1   6   48.00   19.30
   2   1  -6 3354.56  114.79
   2   1  -6 3270.67  135.69
   2  -1   6 3381.56  132.49
  -2   1   6 3217.28  123.79
  -2  -1  -6 3348.57  134.79
   2  -1  -6 3266.77  122.79
  -2  -1   6 2641.74  147.69
   2   1   6 3617.14  136.99
  -2  -1   6 3445.46  116.19
   2  -1  -6 3632.24  136.09
   2   1   6 3564.94  120.09
  -3   1   6  115.39   28.50
   3   1  -6  154.88   26.30
   3   1  -6  119.89   45.90
  -3   1   6  145.59   27.60
  -3  -1   6  161.08   20.60
   3   1   6  125.59   29.90
   3  -1  -6   64.09   20.50
  -3  -1   6  115.19   25.10
   3  -1  -6  112.89   27.20
   4   1  -6   12.50   11.50
   4   1  -6   15.60   11.20
  -4   1   6   -8.20   10.00
  -4  -1   6   -8.00    7.00
   4  -1  -6   16.20   11.70
  -4  -1   6    2.90    8.10
   4  -1  -6   16.10    9.40
   5   1  -6  235.28   26.60
   5   1  -6  253.87   44.40
  -5  -1   6  219.68   25.60
   5  -1  -6  223.38   47.20
   5  -1  -6  266.27   33.90
  -5  -1   6  226.28   27.00
   6   1  -6  623.14   43.80
   6   1  -6  559.14   61.79
  -6  -1   6  560.54   39.60
   6  -1  -6  650.53   56.39
   6  -1  -6  570.34   63.99
   7  -1   6   23.60   17.20
   7   1  -6   -5.50   19.70
   7  -1  -6    2.40   25.00
   7  -1  -6   15.70   17.10
   8  -1   6   26.60   20.70
   8   1  -6  -42.80   19.80
   8   1   6   37.90   19.60
   8  -1  -6  -16.80   22.20
   8  -1  -6   14.80   24.10
   0  -2  -6   60.79   17.00
   0  -2  -6   43.10   14.70
   0  -2   6   29.10   14.90
   0   2   6   46.20   16.30
   0  -2   6   43.40   16.20
   1  -2   6 1448.06   82.59
   1  -2   6 1493.85   82.59
   1   2  -6 1515.35   87.99
  -1  -2  -6 1476.55   85.69
  -1  -2  -6 1456.25   69.39
  -1   2   6 1561.34   82.59
  -1   2   6 1488.85   81.39
   1  -2  -6 1577.04   83.79
   1  -2  -6 1538.55   82.49
   1   2   6 1596.84   79.69
   1   2   6 1356.86   79.99
  -1  -2   6 1515.15   74.99
  -1  -2   6 1544.45   88.69
  -2  -2  -6   82.19   26.70
   2   2  -6   50.29   16.70
   2   2  -6   59.09   16.40
  -2   2   6   41.40   16.00
   2  -2  -6   32.40   14.30
   2  -2  -6   50.69   18.40
  -2  -2   6   68.39   17.30
   2   2   6   77.19   20.80
  -2  -2   6   28.00   14.50
   2   2   6   33.90   14.30
   3   2  -6 1225.68   95.09
  -3  -2  -6 1222.68   92.19
   3   2  -6 1170.88   57.89
   3   2   6 1235.28   63.19
   3  -2  -6 1135.19   88.29
  -3  -2   6 1166.28   57.49
   3  -2  -6 1204.08   79.49
   3   2   6 1096.89   74.09
  -3  -2   6 1204.88   63.79
   4   2  -6    1.10   12.40
   4   2  -6   -9.50    6.80
  -4  -2   6    4.60    7.80
   4  -2  -6    4.40    7.50
  -4  -2   6   34.10   11.00
   4  -2  -6   -7.40    7.70
   5   2  -6   78.59   27.00
  -5  -2   6  104.89   19.30
   5  -2  -6   84.69   26.00
   5  -2  -6   94.29   26.10
   6  -2   6  -14.10   10.70
   6   2  -6   30.80   18.80
   6  -2  -6   14.00   16.10
   6  -2  -6   36.30   20.60
   7  -2   6  273.37   48.00
   7   2  -6  278.17   50.99
   7  -2  -6  250.57   57.09
   7  -2  -6  222.88   44.30
   8   2  -6   -8.00   23.60
   8  -2   6   14.10   22.00
   8  -2  -6  -17.90   20.70
   8   2   6   11.70   15.60
   8  -2  -6   33.20   25.10
   0   3   6  -10.20    5.20
   0  -3  -6    3.90    6.00
   0  -3  -6  -10.00    5.50
   0  -3   6  -11.50    7.10
   0   3   6  -10.70    6.70
   0  -3   6   -0.10    7.50
  -1  -3  -6 1861.11   98.99
   1   3  -6 1808.82   99.69
  -1   3   6 1743.63   91.29
  -1  -3  -6 1888.71   76.29
   1  -3   6 1763.62   94.69
   1   3   6 1864.81   96.39
   1  -3  -6 1830.82   97.79
   1   3   6 1864.11   86.49
   1  -3  -6 1796.42   91.79
  -1  -3   6 1819.82   98.29
  -1  -3   6 1898.91   85.29
   2   3  -6   -1.30    5.70
  -2  -3  -6   16.20   11.40
   2   3   6   14.70   11.20
   2   3   6   -4.50    7.90
   2  -3  -6   -2.80    7.70
  -2  -3   6    8.60    8.90
  -2  -3   6   19.30    9.50
   3   3  -6 1218.78   85.59
  -3  -3  -6 1205.78   82.59
  -3  -3   6 1265.97   57.29
  -3  -3   6 1335.77   66.19
   3   3   6 1224.38   63.49
   3  -3  -6 1190.28   82.89
   3  -3  -6 1405.76   86.79
   4   3  -6   95.29   27.50
  -4  -3  -6   72.59   25.30
   4  -3  -6   71.79   27.30
   4  -3  -6   53.69   18.30
   4   3   6   72.09   17.60
  -4  -3   6  130.89   20.10
   5   3  -6  748.83   69.09
   5  -3   6  659.83   59.49
   5  -3  -6  553.44   64.09
   5  -3  -6  685.23   66.19
   6   3  -6   52.69   24.00
   6  -3   6   76.89   23.90
   6  -3  -6    4.10   20.50
   6  -3  -6   28.70   24.70
   7   3  -6  340.17   59.79
   7  -3   6  253.57   51.79
   7  -3  -6  231.78   53.89
   7  -3  -6  205.08   53.79
   8  -3   6  -36.00   19.40
   8   3  -6  -26.20   23.00
   8  -3  -6   19.80   25.40
   8  -3  -6   62.99   31.60
   0  -4  -6    5.60    8.60
   0  -4  -6    4.40    9.00
   0   4   6    4.50    9.70
  -1  -4  -6  286.17   26.40
  -1  -4  -6  317.27   40.90
   1   4   6  237.08   30.50
   1  -4  -6  313.97   40.50
  -1  -4   6  267.37   33.70
  -1  -4   6  261.17   44.10
   1  -4  -6  282.87   36.60
   2   4  -6   -9.60    5.30
  -2  -4   6   24.20   10.30
   2  -4  -6    6.30    9.50
   2  -4  -6    4.10    9.60
  -3  -4  -6   92.79   26.20
   3   4  -6  106.99   29.30
   3  -4  -6   65.09   26.70
  -3  -4   6   97.09   19.90
   3  -4  -6   63.19   21.70
  -3  -4   6  151.08   23.60
   3   4   6  104.29   24.40
   4  -4   6  121.49   28.20
  -4  -4  -6  160.58   35.50
   4   4  -6  164.78   36.30
   4   4   6  161.98   25.20
   4  -4  -6   79.29   26.80
   4  -4  -6  123.39   35.60
   5   4  -6   14.10   19.30
   5  -4   6   36.10   23.50
   5  -4  -6    1.70   14.40
   5  -4  -6    7.20   14.50
   5   4   6    4.70   11.80
   6   4  -6    3.00   18.90
   6  -4   6    8.60   16.70
   6  -4  -6   -4.10   18.00
   6  -4  -6  -10.80   14.00
   7   4  -6   99.59   28.90
   7  -4   6   21.40   22.00
   7  -4  -6   78.09   30.30
   7  -4  -6   34.30   25.20
   8  -4   6   -5.50   28.30
   8   4  -6   40.20   28.40
   8  -4   6   38.10   26.00
   8  -4  -6   31.40   26.80
   8  -4  -6  104.39   60.49
   0  -5  -6   -3.60   10.00
  -1  -5  -6   47.30   18.70
  -1  -5  -6   19.70    9.00
  -1  -5   6   14.00   12.20
  -1  -5   6   22.00   14.80
   1  -5  -6   14.10   11.10
   1  -5  -6   32.40   15.60
   1   5   6   14.10   12.00
   2  -5   6 1288.17   80.89
  -2  -5  -6 1261.47   87.29
  -2  -5   6 1254.37   68.09
  -2  -5   6 1178.08   61.19
  -2  -5   6 1269.37   98.09
   2  -5  -6 1256.67   83.09
   2  -5  -6 1229.78   91.09
   2   5   6 1285.17   71.39
   3  -5   6   92.59   28.20
   3   5  -6   76.29   26.10
  -3  -5  -6   57.49   24.30
  -3  -5   6   83.99   17.50
  -3  -5   6   60.19   14.80
  -3  -5   6   88.09   19.60
   3   5   6   66.49   18.50
   3  -5  -6   17.70   18.20
   3  -5  -6  107.69   31.20
  -4  -5  -6   22.40   19.30
   4  -5   6   61.79   26.90
   4   5  -6   61.99   26.30
   4   5   6   35.70   18.60
   4  -5  -6    5.00   14.90
   5   5  -6   -7.80   12.60
   5  -5   6   -0.10   13.90
   5  -5  -6   10.90   16.60
   5  -5  -6   24.30   19.60
   6   5  -6  132.59   36.30
   6  -5   6  215.38   46.80
   6  -5  -6  192.68   49.60
   6  -5  -6  166.18   44.90
   7   5  -6  -19.00   22.10
   7  -5  -6   19.30   22.90
   7  -5  -6   -2.80   25.10
   0  -6  -6   83.49   29.80
   0  -6   6   62.99   20.30
   0  -6  -6   81.89   21.00
  -1  -6  -6   68.29   24.50
   1  -6   6   85.09   21.90
   1  -6  -6   57.79   22.70
  -1  -6   6   76.49   21.10
   1  -6  -6   87.59   29.00
  -2  -6  -6   16.60   13.80
   2  -6   6    4.80   11.90
  -2  -6   6   -5.10    7.40
   2  -6  -6   11.80   10.20
  -2  -6   6   17.50   14.20
  -2  -6   6  -24.90   12.80
  -3  -6  -6   66.49   24.80
   3  -6  -6   64.99   27.00
  -3  -6   6  100.89   18.60
   3  -6  -6  148.39   55.99
   3   6   6   36.60   17.30
  -3  -6   6   82.59   17.90
  -3  -6   6   49.70   16.70
   4  -6   6  240.78   45.90
  -4  -6  -6  161.28   39.20
   4   6  -6  235.48   45.40
   4  -6  -6  199.28   48.00
   4  -6  -6  227.18   50.19
   5  -6   6  102.09   32.70
  -5  -6  -6   88.49   28.60
   5   6  -6  100.09   35.00
   5  -6  -6   70.69   33.10
   5  -6  -6  100.79   37.70
   6   6  -6    9.80   21.50
   6  -6   6   20.40   17.20
   6  -6   6    9.00   18.30
   6  -6  -6  -14.50   17.00
   6  -6  -6  -21.80   19.70
   7  -6   6   -1.00   22.20
   7  -6   6    5.70   25.90
   7   6  -6   -6.30   23.30
   7  -6  -6  -44.20   20.90
   0  -7  -6    1.30   11.60
   0  -7  -6  -21.70    8.00
   0  -7   6  -13.40    6.40
   1  -7   6   33.40   17.60
  -1  -7  -6   35.60   24.90
   1  -7  -6   -6.70    9.10
  -1  -7   6   15.00   12.20
   1  -7  -6   17.20   15.20
  -1  -7   6   30.30   13.90
  -2  -7  -6   23.40   18.20
   2  -7   6    7.30   18.80
  -2  -7   6  -16.00   15.10
  -2  -7   6   -4.80   12.50
   2  -7  -6   33.40   18.90
   2  -7  -6   -2.50   14.70
  -3  -7  -6   19.40   21.00
   3  -7   6    4.60   15.40
   3  -7  -6   59.39   26.80
   3  -7  -6  -10.70   14.70
  -3  -7   6   41.60   16.80
  -3  -7   6    4.60   19.20
   4  -7   6    3.60   12.90
   4  -7   6   -6.20   15.50
  -4  -7  -6  -29.00   17.30
   4   7   6    1.70   16.20
   4  -7  -6    1.80   17.10
   4  -7  -6   12.40   18.90
   5   7  -6   15.80   24.30
  -5  -7  -6  -50.59   26.30
   5  -7   6  -10.60   14.70
   5  -7  -6   30.20   23.40
   5  -7  -6   17.20   23.10
   6   7  -6   14.70   32.60
   6  -7   6   -1.80   17.50
   6  -7   6   46.20   32.00
   6  -7  -6   44.40   25.50
   6  -7  -6    5.50   30.20
   0  -8  -6  610.74   68.09
   0  -8   6  729.93   67.19
   0  -8  -6  682.43   65.89
   0  -8   6  732.13   63.39
  -1  -8  -6   18.40   42.70
   1  -8   6   67.69   33.70
   1  -8   6   71.69   27.30
  -1  -8   6   59.29   23.70
   1  -8  -6   63.49   28.10
  -1  -8   6   80.09   22.60
   1  -8  -6   -0.40   22.30
   2  -8   6   17.60   17.30
   2  -8   6    9.30   15.60
  -2  -8  -6  -32.50   16.80
  -2  -8   6   -0.80   18.40
  -2  -8   6    0.80   10.90
  -2  -8   6  -12.00   11.30
   2  -8  -6  -28.30   15.00
   2  -8  -6   -9.10   13.80
   3  -8   6   45.80   31.40
   3  -8   6   19.20   16.50
  -3  -8  -6  -18.00   26.60
   3  -8  -6   16.10   22.60
  -3  -8   6   33.00   19.40
   3  -8  -6    4.30   24.50
   4  -8   6  238.58   53.99
   4  -8   6  195.38   47.90
  -4  -8  -6  259.07   52.39
   4  -8  -6  235.78   50.39
   4  -8  -6  222.48   54.89
  -5  -8  -6    8.40   32.60
   5  -8   6   -8.20   19.80
   5  -8  -6    5.60   22.10
   5  -8  -6   32.50   27.70
   0  -9   6   -9.20   17.60
   0  -9  -6  -17.70   18.20
   0  -9   6   -3.00   15.60
   0  -9  -6   -6.60   14.90
   1  -9   6   12.40   22.50
   1  -9   6  -20.90   15.90
  -1  -9  -6   42.30   28.30
   1  -9  -6   19.20   22.30
  -1  -9   6    1.30   16.90
  -1  -9   6   33.10   20.40
   1  -9  -6   -0.60   23.50
   2  -9   6  132.59   41.60
  -2  -9  -6  127.69   42.10
   2  -9   6   85.19   32.40
   2  -9  -6   88.39   31.70
  -2  -9   6  134.79   35.40
   2  -9  -6   94.99   44.50
   3  -9   6    3.80   20.10
   3  -9   6   13.20   20.80
  -3  -9  -6   -4.50   22.80
   3  -9  -6    4.70   35.30
   3  -9  -6  -10.30   18.20
   4  -9   6    4.00   23.10
   4  -9   6  -11.60   24.30
  -4  -9  -6  -11.90   30.20
   4  -9  -6    8.00   43.50
   4  -9  -6   23.50   31.70
   0 -10   6  -29.60   24.20
   0 -10  -6   18.70   21.00
   0 -10   6  -35.90   17.00
   1 -10   6   75.59   35.70
   1 -10   6   90.99   33.40
  -1 -10  -6  142.49   45.60
  -1 -10   6   91.29   28.30
   1 -10  -6  167.28   42.10
  -1 -10   6   67.19   31.10
   1 -10  -6  169.48   58.29
   2 -10   6   31.80   34.60
  -2 -10  -6   -6.40   26.30
   2 -10  -6   13.20   27.80
   2 -10  -6  -39.20   22.20
  -2 -10   6   -1.90   26.00
   3 -10   6   69.49   38.90
  -3 -10  -6   85.19   42.70
   3 -10   6   68.99   34.30
   3 -10  -6   96.19   41.00
   3 -10  -6   75.69   56.79
   0 -11   6    8.90   27.80
   0 -11  -6  -28.50   25.30
   0 -11   6   40.20   31.40
   1 -11   6  176.08   50.69
   1 -11   6  177.98   47.30
  -1 -11  -6  256.57   63.29
  -1 -11   6  190.28   50.89
   0   0  -7   14.90    9.30
   0   0   7   12.30   12.20
   0   0  -7   13.90    8.60
   0   0   7    0.80    6.50
  -1   0  -7    0.70    6.90
  -1   0   7   15.60    7.50
   1   0  -7   -9.50    6.00
   1   0   7   18.10    8.10
   1   0   7  -13.50    5.80
   1   0  -7   12.20   11.50
  -2   0   7    3.00   10.10
   2   0   7   15.50   10.20
   2   0  -7   -6.20    6.30
  -2   0   7   -5.80    7.20
  -2   0  -7   -3.80    6.10
   2   0  -7   11.00    9.10
  -3   0   7  -13.40    7.70
   3   0  -7   -6.60    8.40
   3   0  -7    9.10    9.30
  -4   0   7   13.40    9.70
   4   0  -7    0.20    7.50
   4   0  -7  -13.00    6.30
   5   0  -7    6.50   11.70
  -5   0   7   -7.40    9.60
   5   0  -7   -2.40    8.70
   6   0  -7  -21.20    9.80
   7   0  -7   38.80   22.50
   7   0  -7  -12.40   13.00
   8   0  -7   43.10   25.30
   8   0   7    0.20   17.10
   0  -1   7  -14.30    6.20
   0  -1  -7   10.10    8.70
   0   1  -7    2.50    7.90
   0   1   7  -14.60    6.70
   0   1   7   -0.50    7.10
   0   1  -7   -3.80    6.40
   0  -1   7  -13.90    6.90
   0  -1  -7   -4.10    6.20
   1  -1   7  144.89   29.00
   1   1  -7  163.78   31.20
   1  -1   7  164.68   30.90
  -1   1   7  248.48   33.20
  -1  -1  -7  153.68   32.70
   1   1  -7  209.68   40.60
  -1   1   7  184.58   32.80
   1   1   7  202.68   38.10
   1   1   7  110.09   24.50
  -1  -1   7  162.68   33.30
  -1  -1   7  151.38   47.50
   1  -1  -7  237.58   40.30
   1  -1  -7  153.08   30.70
   2   1  -7 2307.87   99.49
  -2  -1  -7 2216.78  114.09
  -2   1   7 2098.59  100.79
   2   1  -7 2292.57  117.79
   2   1   7 2283.87  102.39
   2  -1  -7 2156.78  102.29
  -2  -1   7 2280.47  107.49
   2  -1  -7 2211.08  112.09
  -2  -1   7 2172.38   96.59
   3   1  -7  143.99   27.20
   3   1  -7   92.89   26.00
  -3   1   7  180.38   33.30
  -3  -1   7  135.49   27.40
   3  -1  -7  141.79   30.10
   3  -1  -7  128.59   31.70
  -3  -1   7  136.49   26.40
   3   1   7  124.89   25.20
   4   1  -7    5.40    9.40
   4   1  -7   20.60   17.60
   4  -1  -7    3.90   12.70
  -4  -1   7   29.40   11.60
  -4  -1   7    0.20    8.70
   4  -1  -7   44.80   16.10
   5   1  -7   24.50   13.60
   5   1  -7   39.80   21.10
   5  -1  -7    2.50   15.40
   5  -1  -7   56.29   22.10
  -5  -1   7   47.40   15.40
  -5  -1   7   57.39   19.10
   6   1  -7  627.84   66.19
   6   1  -7  528.35   43.30
   6  -1  -7  475.05   62.79
  -6  -1   7  474.15   43.20
   6  -1  -7  561.54   54.79
   7   1  -7  -15.30   17.20
   7  -1  -7   14.00   23.10
   7  -1  -7   57.69   23.70
   8   1  -7   -4.50   25.60
   8   1   7    3.50   16.00
   8  -1  -7   -9.30   27.70
   8  -1  -7  -17.40   20.10
   0   2   7 1591.24   86.29
   0  -2   7 1565.64   84.29
   0   2   7 1397.96  107.39
   0  -2  -7 1535.25   83.99
   0  -2   7 1511.65   90.79
  -1  -2  -7  194.38   32.20
   1   2  -7  221.18   41.40
  -1  -2  -7  168.48   35.80
   1  -2  -7  207.98   44.00
   1   2   7  190.88   35.20
   1  -2  -7  144.29   31.60
  -1  -2   7  183.58   36.00
   2   2  -7    5.90    7.10
   2   2  -7    8.30   11.20
  -2  -2  -7   16.40   15.70
   2   2   7   -5.10    7.90
  -2  -2   7    4.50   10.10
  -2  -2   7    2.80   10.00
   2  -2  -7   10.40    8.60
   2  -2  -7   -2.10    7.50
  -3  -2  -7   29.20   16.90
   3   2  -7   20.90   14.70
   3   2  -7    2.00   10.40
   3   2   7   42.40   14.20
   3  -2  -7   34.20   15.70
   3  -2  -7   51.29   18.40
  -3  -2   7   20.80   13.90
  -3  -2   7   16.60   10.10
   4   2  -7  604.74   63.19
   4   2  -7  609.34   43.50
   4  -2  -7  637.84   57.69
   4  -2  -7  664.63   66.09
  -4  -2   7  664.63   42.50
  -4  -2   7  741.63   51.19
   5   2  -7  196.48   45.50
  -5  -2   7  209.08   27.00
   5  -2  -7  207.48   43.00
   5  -2  -7  156.28   34.90
   6   2  -7  -17.70   12.60
   6  -2  -7  -15.50   12.10
   7  -2   7   -1.90   15.00
   7   2  -7   -5.10   14.90
   7  -2  -7   17.60   27.50
   7  -2  -7  -18.70   15.60
   8   2  -7   60.59   31.60
   8  -2   7  104.59   35.20
   8  -2  -7   84.39   38.10
   8  -2  -7   44.30   37.90
   8   2   7  105.49   33.50
   0  -3  -7   -8.30    5.60
   0  -3   7   -3.90    8.80
   0  -3  -7    9.20    9.60
  -1  -3  -7  231.98   28.10
   1   3  -7  227.18   43.50
  -1  -3  -7  310.27   50.89
  -1  -3   7  255.77   39.00
   1  -3  -7  212.68   39.70
   1   3   7  300.97   35.70
   1  -3  -7  231.58   39.50
  -1  -3   7  210.88   42.30
  -2  -3  -7   67.09   24.30
   2   3  -7   26.90   14.20
   2  -3  -7   59.49   20.10
  -2  -3   7   47.50   16.10
   2   3   7   33.70   15.70
   2  -3  -7   47.60   19.80
  -2  -3   7   59.99   22.80
  -3  -3  -7  202.88   42.10
   3   3  -7  122.19   30.00
  -3  -3   7  132.69   27.90
   3   3   7  120.49   31.70
   3  -3  -7  113.19   29.10
  -3  -3   7  170.88   27.00
   3  -3  -7  102.29   27.00
  -4  -3  -7  -10.10   11.50
   4   3  -7    6.40   11.60
   4   3   7   -3.40   11.00
   4  -3  -7    5.70   13.30
  -4  -3   7   -5.10    7.70
   5   3  -7  224.88   50.99
   5  -3  -7  209.68   44.80
  -5  -3   7  204.78   24.20
   5   3   7  138.49   29.40
   5  -3  -7  202.48   44.80
   6  -3   7  -26.80   13.00
   6   3  -7    0.00   12.30
   6  -3  -7   26.40   21.70
   6  -3  -7   42.20   23.10
   7   3  -7   -7.80   25.20
   7  -3   7   53.79   28.00
   7  -3  -7   59.99   30.70
   7  -3  -7   49.70   26.20
   8   3  -7   22.40   25.40
   8  -3  -7  -14.10   28.60
   8  -3  -7   14.40   30.20
   0  -4  -7   10.40    8.50
   0  -4  -7   17.10   12.60
  -1  -4  -7 1494.55   94.99
  -1  -4  -7 1476.45   69.49
   1  -4  -7 1325.47   91.09
  -1  -4   7 1454.95   81.79
   1   4   7 1381.36   93.39
   1  -4  -7 1560.14   90.89
  -2  -4  -7   16.60   12.50
   2   4  -7    4.50   12.30
  -2  -4   7   20.50   11.50
   2   4   7   13.00    8.30
  -2  -4   7   -4.80   11.00
   2  -4  -7   19.10   12.90
   2  -4  -7   -4.90    8.50
   3   4  -7 1243.68   92.69
  -3  -4  -7 1287.77   90.59
  -3  -4   7 1155.38   61.79
   3   4   7 1137.59   69.19
  -3  -4   7 1227.18   71.99
   3  -4  -7 1057.59   83.89
   3  -4  -7 1324.57   93.69
  -4  -4  -7    7.90   15.90
   4   4  -7    4.50   12.40
   4  -4  -7  -19.00   10.60
  -4  -4   7    3.20   10.70
   4   4   7   15.20   14.80
   4  -4  -7   18.10   12.80
   5   4  -7  512.15   62.09
   5  -4   7  459.05   52.79
   5   4   7  417.76   40.90
   5  -4  -7  437.56   56.79
   5  -4  -7  504.65   66.49
   6  -4   7    2.50   15.10
   6   4  -7    0.60   19.50
   6  -4  -7    5.70   18.20
   6  -4  -7  -17.20   16.80
   7  -4   7  270.47   49.80
   7   4  -7  214.68   49.00
   7  -4  -7  314.57   59.69
   7  -4  -7  194.68   52.89
   8  -4   7   11.30   24.20
   8   4  -7   38.60   26.90
   8  -4  -7   30.90   31.20
   0  -5  -7    7.40    9.70
   0  -5  -7    7.30   10.20
  -1  -5  -7  582.44   39.20
  -1  -5  -7  519.75   56.89
   1  -5  -7  574.94   56.79
   1  -5  -7  589.24   60.79
  -2  -5  -7  138.39   36.50
  -2  -5   7   81.79   23.10
   2  -5  -7   72.59   27.50
   2  -5  -7  129.29   34.10
  -2  -5   7  117.79   29.40
  -3  -5  -7  308.87   54.69
   3  -5   7  361.06   46.20
   3   5  -7  255.07   50.39
  -3  -5   7  251.57   32.90
   3   5   7  286.67   34.80
  -3  -5   7  232.88   29.70
   3  -5  -7  266.97   52.39
   3  -5  -7  276.77   52.29
  -4  -5  -7   22.00   18.10
   4  -5   7   13.20   17.30
   4   5  -7   13.20   16.60
   4  -5  -7   31.00   15.90
   4  -5  -7   37.80   29.10
   4   5   7   31.20   16.90
   5  -5   7  341.77   58.89
  -5  -5  -7  298.97   54.49
   5   5  -7  291.77   53.79
   5   5   7  260.47   37.40
   5  -5  -7  273.47   56.29
   5  -5  -7  271.87   55.79
   6   5  -7   34.30   26.60
   6  -5   7   38.80   23.30
   6  -5  -7    8.60   29.30
   6  -5  -7   43.50   30.10
   7  -5   7   75.69   29.90
   7   5  -7   58.89   31.40
   7  -5  -7   69.49   36.40
   7  -5  -7   -7.20   26.70
   0  -6   7  973.00   69.09
   0  -6  -7  886.41   67.29
   0  -6  -7 1011.20   85.89
  -1  -6  -7   -3.60   11.80
   1  -6   7   -2.60   10.30
   1  -6  -7    5.60   13.00
   1  -6  -7    1.60   11.80
  -1  -6   7    8.20   10.20
  -2  -6  -7    2.20   14.70
   2  -6   7    6.90   13.70
  -2  -6   7    4.60   15.40
  -2  -6   7   13.10   18.00
   2  -6  -7    9.80   14.40
  -2  -6   7    7.70    8.70
  -3  -6  -7   61.39   27.30
   3  -6   7   25.50   16.90
  -3  -6   7   50.49   18.30
   3  -6  -7   -1.20   16.10
  -3  -6   7   33.60   16.00
  -3  -6   7   26.50   12.10
  -3  -6   7   15.80   10.60
  -4  -6  -7  592.54   68.99
   4  -6   7  524.15   62.29
   4   6  -7  563.54   67.59
   4   6   7  522.75   46.60
   4  -6  -7  448.86   73.89
   4  -6  -7  395.66   67.79
   5  -6   7   28.20   21.60
   5   6  -7  -18.40   19.10
  -5  -6  -7  -12.00   22.60
   5  -6  -7  -27.70   16.40
   5  -6  -7   27.00   25.10
   6  -6   7    8.00   22.80
   6   6  -7   -9.10   25.70
   6  -6  -7   43.20   29.20
   6  -6  -7   34.00   23.30
   7   6  -7   18.30   36.50
   7  -6  -7   33.80   35.00
   0  -7  -7   25.00   17.70
   0  -7   7   -8.70   10.30
   1  -7   7   35.60   22.40
  -1  -7  -7   22.60   18.10
   1  -7  -7   67.29   25.60
  -1  -7   7   43.80   19.80
   1  -7  -7   85.99   29.40
  -2  -7  -7 1419.46  103.99
   2  -7   7 1240.98   89.89
   2  -7  -7 1206.88  101.79
   2  -7  -7 1173.78   91.29
  -2  -7   7 1248.48   68.19
  -2  -7   7 1256.67   74.09
  -3  -7  -7   -6.20   19.70
   3  -7   7   14.20   14.10
   3  -7  -7   10.10   14.20
   3  -7  -7   -0.40   19.70
  -3  -7   7   19.00   13.20
   4  -7   7    9.20   13.90
  -4  -7  -7   12.80   23.60
   4  -7  -7    4.80   23.60
   4  -7  -7    7.10   20.20
   5   7  -7   55.69   31.60
   5  -7   7   26.70   36.30
   5  -7   7  -37.40   30.50
  -5  -7  -7   34.00   29.70
   5  -7  -7   15.00   26.90
   5  -7  -7    2.90   25.20
   6   7  -7  272.27   55.59
   6  -7   7  263.57   56.39
   6  -7   7  226.98   57.59
   6  -7  -7  248.78   61.49
   6  -7  -7  281.17   68.49
   0  -8  -7  196.68   49.30
   0  -8   7  175.38   39.70
   0  -8   7  234.68   42.20
   1  -8   7   53.39   24.90
   1  -8   7   93.99   30.30
  -1  -8  -7  136.19   40.50
   1  -8  -7  158.08   40.10
   1  -8  -7  153.48   43.90
  -1  -8   7  113.59   31.90
  -1  -8   7  112.99   31.90
   2  -8   7  -25.90   15.40
  -2  -8  -7   18.70   17.80
   2  -8   7   18.20   15.60
   2  -8  -7   -1.80   19.60
  -2  -8   7  -15.50   12.80
   2  -8  -7   13.60   17.90
  -2  -8   7   16.50   15.40
   3  -8   7  173.48   48.80
  -3  -8  -7   68.69   36.60
   3  -8   7   87.89   31.90
   3  -8  -7   86.09   40.10
  -3  -8   7  136.29   30.10
   3  -8  -7   88.89   34.80
   4  -8   7   86.89   41.40
   4  -8   7   81.19   40.90
   4  -8  -7  126.49   37.30
   4  -8  -7   54.99   45.80
   5  -8   7   -5.40   23.50
  -5  -8  -7   19.70   38.20
   5  -8   7    8.70   22.50
   5  -8  -7   19.80   31.00
   5  -8  -7   25.10   28.60
   0  -9   7   -7.60   18.80
   0  -9  -7  -10.00   18.40
   0  -9  -7   24.10   18.60
   0  -9   7   17.50   20.30
   1  -9   7  241.88   51.39
  -1  -9  -7  186.18   47.30
   1  -9   7  277.67   52.99
  -1  -9   7  216.88   38.90
   1  -9  -7  287.77   58.99
   1  -9  -7  262.37   51.29
  -1  -9   7  292.97   49.00
   2  -9   7  -15.10   18.20
  -2  -9  -7   14.40   29.00
   2  -9   7    9.30   20.80
  -2  -9   7   33.60   20.00
   2  -9  -7   -9.00   20.80
   2  -9  -7   24.10   23.20
  -2  -9   7   20.80   21.70
   3  -9   7  149.59   57.49
  -3  -9  -7  109.09   42.30
   3  -9  -7   80.29   35.20
   3  -9  -7  152.98   54.69
   4  -9   7   17.00   25.40
   4  -9   7    8.20   23.50
  -4  -9  -7   -7.70   29.90
   4  -9  -7   38.90   37.20
   4  -9  -7  -19.00   24.10
   0 -10   7  -29.60   18.70
   0 -10  -7  -10.70   30.40
   0 -10   7    3.10   19.20
   1 -10   7  152.98   45.30
  -1 -10  -7   52.39   41.10
   1 -10   7  103.19   35.40
  -1 -10   7   41.90   35.10
   1 -10  -7  139.89   40.70
   1 -10  -7   59.89   33.60
  -1 -10   7   98.99   32.70
   2 -10   7   13.80   55.19
   2 -10   7  -27.60   23.60
  -2 -10  -7   -4.40   29.50
  -2 -10   7   62.39   33.30
   2 -10  -7   26.20   29.80
   2 -10  -7    4.50   22.50
  -3 -10  -7   -6.20   33.50
   3 -10   7   93.39   40.00
   3 -10  -7   37.20   33.70
   0   0  -8 5084.29  181.58
   0   0  -8 5007.10  186.48
  -1   0  -8   58.79   21.40
   1   0  -8   75.09   22.90
  -1   0   8   64.59   21.40
   1   0  -8   68.69   24.50
  -2   0  -8   24.40   14.70
  -2   0   8    8.50    9.60
   2   0  -8   -4.00    7.70
   2   0  -8   11.60   11.90
  -3   0   8   42.00   17.10
   3   0  -8   44.50   22.20
   3   0  -8   51.99   16.50
   4   0  -8 2378.76  132.49
   4   0  -8 2462.85  172.98
   5   0  -8  125.39   36.80
   5   0  -8  172.88   33.40
   6   0  -8   35.80   15.70
   6   0  -8   17.50   22.70
   7   0  -8   22.00   20.50
   7   0  -8   61.49   22.40
   8   0   8  506.05   58.79
   0   1  -8   -4.90    6.70
   0  -1  -8   -3.00    7.00
   0  -1  -8  -10.90    6.20
   0   1  -8    0.80    7.00
  -1  -1  -8  426.86   49.70
   1   1  -8  448.46   52.59
   1   1  -8  481.05   47.90
  -1  -1   8  468.15   46.30
   1  -1  -8  478.25   49.50
   1  -1  -8  508.15   53.59
   2   1  -8  655.23   64.09
   2   1  -8  699.83   55.69
  -2  -1  -8  611.44   62.79
  -2  -1   8  675.53   56.19
   2  -1  -8  658.53   58.89
   2  -1  -8  594.24   59.99
   3   1  -8   12.40   14.20
   3   1  -8    2.60    9.30
  -3  -1   8    8.80   13.80
   3  -1  -8    1.70   11.40
   3  -1  -8  -22.20    7.90
   4   1  -8  108.99   30.30
   4   1  -8   81.69   21.70
  -4  -1   8  116.09   23.00
   4  -1  -8  107.99   32.20
   4  -1  -8  126.89   28.90
   5   1  -8   74.49   20.00
   5   1  -8   73.09   30.60
  -5  -1   8   81.49   21.30
   5  -1  -8   33.80   20.10
   5  -1  -8   65.39   22.50
   6   1  -8  128.09   38.10
   6   1  -8  173.88   30.50
   6  -1  -8  182.88   42.40
   6  -1  -8  223.28   41.30
   7  -1  -8   47.90   21.40
   7  -1  -8   19.00   24.20
   8   1  -8    5.00   27.30
   8  -1   8   23.80   20.30
   8   1   8   -7.60   22.70
   8  -1  -8   -7.20   21.70
   0  -2  -8   43.10   18.40
   0  -2  -8   29.80   17.10
  -1  -2  -8  796.72   59.19
   1   2  -8  839.82   71.99
  -1  -2  -8  768.02   67.39
   1  -2  -8  784.02   65.49
   1  -2  -8  709.03   64.89
  -1  -2   8  744.23   59.49
  -2  -2  -8   -4.50   10.00
   2   2  -8   -1.30   12.20
   2   2  -8   -5.00    6.60
   2  -2  -8   -6.10    5.50
   2   2   8    3.20   11.50
   2  -2  -8    5.80    8.60
  -2  -2   8    7.40    9.90
  -3  -2  -8  713.73   69.19
   3   2  -8  764.92   72.39
   3   2  -8  682.13   52.99
   3   2   8  778.12   80.19
   3  -2  -8  785.72   66.89
   3  -2  -8  705.43   69.39
   4   2  -8  -11.00    8.10
   4   2  -8   20.80   15.50
   4  -2  -8   -5.30   10.20
   4  -2  -8  -21.50    8.40
  -4  -2   8  -12.70   10.40
   5   2  -8  411.76   66.79
   5   2  -8  453.95   38.60
   5  -2  -8  496.05   57.69
  -5  -2   8  516.55   39.50
   5  -2  -8  380.36   62.79
  -5  -2   8  477.55   45.50
   6   2  -8   90.39   33.40
   6  -2  -8   84.09   33.30
   6  -2  -8   72.29   32.90
   7  -2   8  196.68   42.30
   7   2  -8  248.08   58.19
   7  -2  -8  209.88   52.69
   7  -2  -8  144.69   40.80
   8  -2   8  -31.80   17.10
   8   2  -8   57.29   31.10
   8  -2  -8  -36.40   27.40
   8  -2  -8  -21.90   26.20
   0  -3  -8    6.40    7.80
   0  -3  -8   14.40   10.70
  -1  -3  -8 1284.87   72.99
  -1  -3  -8 1285.27   91.39
   1   3  -8 1364.06   96.09
   1  -3  -8 1250.37   87.09
   1  -3  -8 1189.78   84.09
  -1  -3   8 1189.18   76.99
  -2  -3  -8   14.70   14.30
   2   3  -8   17.20   14.10
   2  -3  -8   53.79   19.80
  -2  -3   8    8.60   10.40
   2  -3  -8   11.10   12.90
  -3  -3  -8  748.23   72.09
   3   3  -8  714.23   72.09
  -3  -3   8  696.83   52.69
   3   3   8  646.14   55.69
   3  -3  -8  736.03   70.89
   3  -3  -8  699.33   67.19
  -4  -3  -8   23.10   16.80
   4   3  -8   30.10   15.20
   4  -3  -8    3.70   14.60
  -4  -3   8  -18.10    9.10
   4  -3  -8   21.70   16.60
  -4  -3   8    7.70   10.70
   5   3  -8  449.76   71.79
  -5  -3   8  508.95   40.90
   5  -3  -8  452.25   60.69
   5  -3  -8  471.65   58.99
   6   3  -8   13.50   25.30
   6  -3   8   20.50   18.80
   6  -3  -8   -6.60   38.30
   6  -3  -8   22.10   18.90
   7   3  -8   34.20   30.20
   7  -3   8   63.49   27.10
   7  -3  -8   68.89   29.30
   8  -3   8   33.80   29.60
   8   3  -8    1.80   29.80
   8  -3  -8   20.10   28.40
   0  -4  -8  862.21   75.29
  -1  -4  -8   24.60   13.90
  -1  -4  -8   39.30   20.50
   1  -4  -8   31.50   17.20
   1  -4  -8   66.29   25.10
   2   4  -8   18.90   12.20
  -2  -4  -8   11.50   10.70
   2  -4  -8   37.60   17.80
  -2  -4   8   20.80   12.70
   2  -4  -8   26.50   16.20
   3   4  -8  241.78   52.79
  -3  -4  -8  229.98   47.40
  -3  -4   8  119.79   46.50
   3  -4  -8  255.87   51.79
  -3  -4   8  214.68   34.10
   3  -4  -8  110.49   34.50
   4   4  -8   99.59   34.70
  -4  -4  -8   90.09   32.80
   4   4   8  122.79   40.50
   4  -4  -8  112.49   32.30
   4  -4  -8  102.99   35.30
  -4  -4   8   86.39   24.70
   5   4  -8   12.80   19.20
   5  -4   8    1.80   14.50
   5  -4  -8  -15.10   14.00
   5  -4  -8   23.30   19.90
   6   4  -8  -30.90   17.70
   6  -4   8    5.70   18.90
   6  -4  -8  -28.10   19.30
   6  -4  -8    7.30   20.60
   7  -4   8   17.90   26.80
   7   4  -8  -10.90   27.00
   7  -4  -8   26.80   26.90
   7  -4  -8  -31.50   20.30
   0  -5  -8   -8.80    9.20
   0  -5  -8   -6.30   11.70
  -1  -5  -8  277.87   30.40
  -1  -5  -8  381.66   49.40
   1  -5  -8  396.16   51.69
   1  -5  -8  356.06   57.69
  -2  -5  -8  470.25   58.39
  -2  -5   8  404.06   42.90
   2  -5  -8  393.96   66.99
   2  -5  -8  427.66   53.39
  -3  -5  -8  232.68   48.70
   3   5  -8  349.57   62.29
   3  -5  -8  227.78   47.90
  -3  -5   8  281.07   43.70
  -3  -5   8  291.47   36.20
   3  -5  -8  195.08   57.99
   4   5  -8   22.30   21.00
   4  -5   8   20.00   14.90
  -4  -5  -8   19.40   18.10
  -4  -5   8    7.60   10.00
  -4  -5   8   11.20   12.90
   4  -5  -8   -2.00   18.30
   4  -5  -8  -15.10   11.00
   5  -5   8   -1.10   16.80
  -5  -5  -8   38.50   26.90
   5   5  -8   36.50   26.90
   5  -5  -8   16.90   25.00
   5  -5  -8   42.50   24.00
   6  -5   8  312.67   59.19
   6   5  -8  241.18   50.69
   6  -5  -8  268.37   56.79
   7  -5   8   28.30   29.30
   7   5  -8   82.29   41.40
   7  -5  -8  138.09   45.80
   0  -6  -8 1212.78   96.39
   0  -6  -8 1092.89   73.99
   1  -6   8   81.89   25.60
  -1  -6  -8   77.19   28.40
   1  -6  -8  136.69   41.80
   1  -6  -8  112.49   34.50
   2  -6   8  -13.70   11.10
  -2  -6  -8    5.50   18.80
   2  -6  -8  -14.60   14.00
  -2  -6   8    1.20   10.30
   2  -6  -8  -13.30   12.50
  -3  -6  -8   21.20   17.00
   3  -6  -8   17.40   16.40
   3  -6  -8  -16.50   15.10
  -3  -6   8   11.80   10.20
  -3  -6   8  -29.20   15.50
  -3  -6   8   -5.20   17.40
  -4  -6  -8  229.88   55.89
   4   6  -8  169.08   47.00
   4  -6   8  272.97   50.89
   4  -6  -8  237.18   51.89
   4  -6  -8  170.98   50.09
   5   6  -8    7.50   20.60
  -5  -6  -8  -18.50   22.70
   5  -6   8   43.90   24.70
   5  -6  -8   45.70   25.00
   5  -6  -8   53.29   29.10
   6  -6   8    8.30   18.50
   6   6  -8    6.80   26.10
   6  -6  -8   24.10   33.40
   6  -6  -8  -30.90   26.10
   0  -7  -8   -2.30   13.30
   0  -7   8    0.20   11.30
   0  -7  -8  -22.80   10.70
  -1  -7  -8   30.20   22.80
   1  -7   8    5.00   14.80
   1  -7  -8   10.20   15.50
   1  -7  -8   10.20   17.80
  -1  -7   8   16.10   14.20
   2  -7   8  100.99   29.80
   2  -7  -8   90.99   28.60
   2  -7  -8   59.09   23.20
  -2  -7   8   74.79   22.00
   3  -7   8   23.60   22.80
  -3  -7  -8   19.40   25.90
   3  -7  -8  -10.30   16.30
  -3  -7   8   -9.40   10.90
   3  -7  -8    6.60   17.80
  -4  -7  -8    7.50   25.40
   4  -7   8   -0.10   11.10
   4  -7  -8  -10.60   18.40
   4  -7  -8   -9.90   19.10
   5  -7   8   20.90   19.60
  -5  -7  -8   46.00   32.70
   5   7  -8   -8.40   26.00
   5  -7  -8   38.20   29.10
   5  -7  -8   -6.20   24.40
   6  -7  -8   36.20   37.40
   0  -8  -8  415.46   73.29
   0  -8  -8  480.45   48.40
   0  -8   8  544.35   57.59
   1  -8   8   -2.60   16.80
  -1  -8  -8   17.10   21.50
  -1  -8   8   34.70   18.90
   1  -8  -8  -19.50   13.50
  -1  -8   8    0.80   17.30
   1  -8  -8   34.80   22.10
  -2  -8  -8   35.60   24.80
   2  -8   8   19.60   19.40
   2  -8  -8   11.80   17.50
  -2  -8   8  -12.20   15.20
   2  -8  -8  -27.30   14.80
  -2  -8   8  -28.20   13.80
   3  -8   8   26.90   21.20
  -3  -8  -8  -11.00   24.20
   3  -8  -8   20.70   21.30
   3  -8  -8   32.80   27.90
  -3  -8   8   51.39   25.00
   4  -8   8  178.18   53.49
   4  -8   8  315.37   61.09
  -4  -8  -8  306.77   63.19
   4  -8  -8  286.67   61.19
   4  -8  -8  243.88   58.49
  -5  -8  -8   45.80   45.60
   5  -8  -8   31.70   33.30
   0  -9  -8   -7.70   19.40
   0  -9   8   -3.10   18.50
   0  -9   8   17.00   19.50
   1  -9   8   -1.00   18.10
   1  -9   8  -19.90   17.90
  -1  -9  -8  -28.00   25.20
   1  -9  -8  -57.79   22.90
  -1  -9   8  -14.20   13.80
  -1  -9   8  -17.80   19.60
   1  -9  -8   -4.60   24.60
   2  -9   8  175.08   48.30
   2  -9   8  101.39   37.20
  -2  -9  -8  191.68   49.60
  -2  -9   8  173.28   39.90
   2  -9  -8  115.29   40.00
  -2  -9   8  120.59   31.50
   2  -9  -8  138.59   50.59
  -3  -9  -8    3.20   27.90
   3  -9   8  -23.30   20.00
   3  -9   8   12.40   20.70
   3  -9  -8  -31.00   20.20
   3  -9  -8   18.80   22.90
  -4  -9  -8  -39.40   30.30
   4  -9  -8    5.60   22.60
   0 -10  -8  -31.20   29.70
   0 -10   8    9.00   24.80
   0 -10   8   29.80   25.10
   1 -10   8   72.49   39.00
  -1 -10  -8  -17.70   31.30
   1 -10   8   90.29   36.00
   1 -10  -8   -6.40   23.50
  -1 -10   8   81.19   36.30
   2 -10   8   47.40   28.50
  -2 -10  -8   49.10   39.40
   2 -10   8  -20.50   25.80
   2 -10  -8   18.10   29.10
   0   0  -9   -1.90    8.40
   0   0  -9   -2.10    7.00
   1   0  -9  -11.10    6.10
   1   0  -9   -6.80    6.60
  -1   0  -9  -12.90    8.00
   2   0  -9    9.40    8.60
   2   0  -9   -5.90   11.00
  -2   0  -9   24.40   17.50
   3   0  -9   13.40   12.60
   3   0  -9   24.20   17.30
   4   0  -9   -4.80   10.90
   4   0  -9  -12.00   10.40
   5   0  -9   -8.10   10.80
   5   0  -9   15.50   15.00
   6   0  -9   12.20   18.00
   6   0  -9    5.50   15.30
   7   0  -9   23.20   24.70
   7   0  -9   -8.00   16.20
   8   0   9  -39.30   21.60
   8   0  -9    2.40   30.70
   0  -1  -9    0.10    8.50
   0   1  -9   -3.40    7.10
   0  -1  -9    2.90    8.50
   1   1  -9  118.19   31.40
   1   1  -9  177.48   38.90
  -1  -1  -9  182.58   40.60
   1  -1  -9  142.99   35.20
   1  -1  -9  159.28   38.60
   2   1  -9 1172.18   78.59
   2   1  -9  954.80   84.29
  -2  -1  -9 1116.69   88.99
   2  -1  -9  904.61   79.29
   2  -1  -9 1014.30   78.49
   3   1  -9  152.48   31.20
   3   1  -9  145.79   37.50
   3  -1  -9   91.49   29.20
   3  -1  -9   98.39   29.90
   4   1  -9   36.60   21.40
   4   1  -9    6.00   12.70
   4  -1  -9   16.20   16.90
   4  -1  -9  -11.20    8.40
   5   1  -9   22.50   29.30
   5  -1  -9   47.70   21.50
   5  -1  -9   28.60   22.70
  -5  -1   9   -1.00   22.30
   6   1  -9  183.08   48.60
   6   1  -9  310.87   63.59
   6  -1  -9  431.26   76.69
   6  -1  -9  298.77   51.59
   7   1  -9   34.40   29.70
   7  -1  -9   86.49   33.30
   7  -1  -9  -23.30   21.00
   8  -1   9  -28.70   19.90
   8   1  -9  -44.30   25.80
   8  -1  -9   12.90   22.80
   0  -2  -9 1118.99   87.09
   0  -2  -9 1048.60   77.19
   1   2  -9   97.69   30.20
  -1  -2  -9   41.20   19.80
   1  -2  -9   37.40   17.40
   1  -2  -9   43.00   18.10
   3   2  -9   28.20   10.30
   3   2  -9  -14.90   10.70
  -3  -2  -9    9.90   13.50
  -3  -2   9   34.70   12.90
   3  -2  -9  -16.00   13.30
   3  -2  -9    2.00   14.60
   4   2  -9  382.76   41.40
   4   2  -9  428.26   70.89
   4  -2  -9  353.46   62.89
  -4  -2   9  392.56   41.00
   4  -2  -9  388.26   50.99
   5   2  -9   79.99   20.10
  -5  -2   9   87.49   30.40
   5  -2  -9   55.79   24.40
   5  -2  -9   34.20   27.70
   6   2  -9  -14.10   13.60
   6  -2  -9   10.50   19.20
   6  -2  -9   -2.30   17.50
   7   2  -9  -30.90   22.00
   7  -2   9  -34.80   14.40
   7  -2  -9  -14.60   19.20
   7  -2  -9  -20.40   22.50
   0  -3  -9   29.30   14.80
   0  -3  -9    9.50   11.40
  -1  -3  -9  237.08   50.39
   1   3  -9  143.29   38.10
  -1  -3  -9  182.88   35.00
   1  -3  -9  246.68   47.60
   1  -3  -9  256.67   49.30
   2   3  -9   31.50   15.10
  -2  -3  -9   -9.40   14.00
   2  -3  -9   45.00   24.00
   2  -3  -9   20.90   15.60
   3   3  -9  110.29   31.90
  -3  -3  -9  171.68   42.90
   3  -3  -9  200.28   43.70
  -3  -3   9  208.28   36.10
   3  -3  -9  171.38   42.20
   4   3  -9   -7.20   12.70
  -4  -3  -9   12.80   16.10
   4  -3  -9  -11.80    9.30
   4  -3  -9    2.00   15.80
   5   3  -9  142.69   41.40
   5  -3  -9  115.29   37.30
  -5  -3   9  138.39   29.20
   5  -3  -9  143.59   36.40
   6   3  -9   38.90   26.40
   6  -3  -9   26.70   24.60
   6  -3  -9    9.00   21.60
   7   3  -9   40.70   33.70
   7  -3   9   22.30   24.60
   7  -3  -9   34.50   31.50
   7  -3  -9  -27.70   28.40
   0  -4  -9    7.20   14.10
   0  -4  -9    1.20   10.20
  -1  -4  -9  765.72   78.09
  -1  -4  -9  956.80   63.49
   1  -4  -9  928.41   78.49
   1  -4  -9  906.41   81.19
   2   4  -9   24.90   18.60
   2  -4  -9   11.90   11.60
   2  -4  -9   25.90   15.10
  -3  -4  -9  784.72   80.29
   3   4  -9  723.03   77.79
   3  -4  -9  804.22   77.89
   3  -4  -9  662.43   72.39
  -3  -4   9  713.13   57.49
  -4  -4  -9   19.00   14.10
   4   4  -9  -12.00   15.70
   4  -4  -9  -17.10   11.50
   4  -4  -9    5.50   17.70
  -4  -4   9   22.50   17.50
   5   4  -9  271.47   60.69
   5  -4  -9  332.27   63.69
   5  -4  -9  267.67   52.59
   6  -4   9   16.70   17.60
   6   4  -9   26.90   25.30
   6  -4  -9   63.09   26.80
   6  -4  -9    0.60   18.50
   7  -4   9  124.69   36.40
   7   4  -9  215.58   53.49
   7  -4  -9  142.39   44.90
   7  -4  -9  144.59   59.79
   0  -5  -9   -5.20   12.50
  -1  -5  -9  347.57   61.29
  -1  -5  -9  274.47   33.60
   1  -5  -9  403.76   67.49
   1  -5  -9  392.36   51.99
  -2  -5  -9   73.19   29.30
   2  -5  -9   30.20   20.70
   2  -5  -9   92.59   52.79
  -3  -5  -9  174.68   46.60
   3   5  -9  131.89   38.90
  -3  -5   9  227.88   37.50
   3  -5  -9  160.78   42.80
   3  -5  -9  174.18   44.20
  -4  -5  -9   32.30   21.30
   4   5  -9   10.70   22.40
  -4  -5   9    0.10   18.40
   4  -5  -9   18.40   17.40
   4  -5  -9   23.70   26.10
   5  -5   9  133.79   36.90
  -5  -5  -9  125.79   44.50
   5   5  -9  104.79   46.80
   5  -5  -9  150.48   43.60
   5  -5  -9  123.09   41.90
   6   5  -9   17.90   25.20
   6  -5   9   18.20   23.50
   6  -5  -9   31.80   28.90
   6  -5  -9   35.70   29.50
   7   5  -9   16.40   33.30
   7  -5  -9  -49.60   21.90
   0  -6  -9  860.31   68.49
   0  -6  -9  845.12   83.79
   1  -6  -9   14.20   14.00
   1  -6  -9    0.40   13.40
  -2  -6  -9   -3.50   24.70
   2  -6  -9   11.90   19.50
   2  -6  -9    5.30   17.70
  -3  -6  -9   14.70   25.10
   3  -6   9  -14.10   16.10
  -3  -6   9   12.00   14.70
   3  -6  -9   30.20   18.60
   3  -6  -9   13.90   16.30
  -3  -6   9   16.40   23.60
   4  -6   9  430.56   68.69
  -4  -6  -9  452.45   75.19
   4   6  -9  579.24   75.89
   4  -6  -9  576.04   90.89
   4  -6  -9  446.66   77.09
   5   6  -9   37.20   22.30
  -5  -6  -9    6.60   24.60
   5  -6   9  -24.90   31.60
   5  -6  -9  -16.80   22.60
   5  -6  -9   -8.60   21.60
   6  -6   9   33.60   23.40
   6   6  -9  -14.70   20.50
   6  -6  -9  -14.50   46.10
   6  -6  -9   -9.00   23.70
   0  -7  -9  -11.10   13.60
   0  -7  -9    6.40   13.20
   0  -7   9   12.50   14.50
   1  -7   9   22.20   15.20
  -1  -7  -9   11.30   16.40
   1  -7  -9  -20.70   18.70
  -1  -7   9    9.10   17.80
   1  -7  -9  -12.40   18.60
   2  -7   9  927.61   83.09
  -2  -7  -9  881.51   94.59
   2  -7  -9 1004.70   98.39
   2  -7  -9  953.20   88.09
  -2  -7   9  896.21   66.49
   3  -7   9    7.30   19.10
  -3  -7  -9   -8.80   21.50
  -3  -7   9    7.40   15.90
  -3  -7   9    3.50   14.90
   3  -7  -9   -6.70   20.50
  -4  -7  -9  -18.30   26.90
   4  -7   9    8.90   25.30
   4  -7  -9   16.00   22.60
   4  -7  -9    9.40   22.70
   5  -7   9   38.30   24.60
   5   7  -9   30.90   26.40
  -5  -7  -9  -14.10   29.10
   5  -7  -9   22.00   23.80
   5  -7  -9   46.50   28.60
   0  -8  -9  107.99   29.30
   0  -8   9  160.98   37.00
   0  -8  -9   78.99   39.60
   1  -8   9   19.30   22.10
  -1  -8  -9   57.09   33.10
  -1  -8   9   26.30   20.20
   1  -8  -9   18.80   31.70
   1  -8  -9   34.50   24.80
  -2  -8  -9    9.30   19.20
   2  -8   9  -17.80   17.20
   2  -8  -9    4.60   24.30
   2  -8  -9    2.70   19.90
  -2  -8   9    9.00   18.30
  -2  -8   9  -29.60   17.30
  -3  -8  -9   18.70   34.50
  -3  -8   9   17.90   33.90
  -3  -8   9   33.00   24.40
   3  -8  -9   50.79   30.30
   3  -8  -9   72.09   32.90
  -4  -8  -9  100.89   40.90
   4  -8   9   80.49   35.60
   4  -8  -9   30.60   30.30
   4  -8  -9   78.99   44.00
  -5  -8  -9   43.80   44.60
   0  -9   9   14.80   22.60
   0  -9   9    6.70   18.40
   0  -9  -9   -4.50   27.00
  -1  -9  -9  226.08   59.99
   1  -9   9  290.77   53.49
   1  -9   9  138.39   44.00
   1  -9  -9  200.78   46.50
  -1  -9   9  190.78   45.50
   1  -9  -9  187.88   54.99
  -1  -9   9  224.88   43.10
   2  -9   9  -36.10   22.00
   2  -9   9   54.89   56.59
  -2  -9  -9  -15.60   26.40
  -2  -9   9    4.00   22.90
  -2  -9   9  -24.60   21.60
   2  -9  -9   46.20   30.60
   2  -9  -9   -4.70   26.30
   3  -9   9   78.19   37.10
   3  -9   9   79.49   40.60
  -3  -9  -9   42.50   38.10
   3  -9  -9   71.49   40.70
   0 -10   9  -12.40   24.00
   0 -10  -9  -50.69   22.50
   0 -10   9  -36.40   24.70
   1 -10   9  121.09   48.10
  -1 -10  -9   50.49   45.70
   1 -10   9   50.19   37.60
  -1 -10   9   70.89   37.30
  -1 -10   9   34.60   32.30
   0   0 -10 2291.17  127.59
   0   0 -10 2258.47  127.29
   1   0 -10   12.80   13.40
  -1   0 -10    3.90   13.00
   1   0 -10    2.50   14.80
   2   0 -10   27.60   15.70
   2   0 -10   23.20   15.40
  -2   0 -10   38.30   20.50
   3   0 -10  -11.10   10.70
   3   0 -10  -10.40   13.90
   4   0 -10 1345.37  113.19
   4   0 -10 1232.48   90.29
   5   0 -10  402.56   49.80
   5   0 -10  221.38   52.39
   6   0 -10   -8.40   16.80
   7   0 -10   58.29   24.80
   0   1 -10   -6.00    4.50
   0   1 -10   15.30   13.20
   0  -1 -10    4.40   12.40
   0  -1 -10   -1.90    8.70
  -1  -1 -10   28.00   19.00
   1   1 -10   31.60   18.10
   1   1 -10   32.80   18.30
   1  -1 -10   10.80   11.60
   1  -1 -10   26.60   17.40
   2   1 -10 1101.59   94.59
   2   1 -10 1356.16   89.09
  -2  -1 -10 1184.18   96.29
   2  -1 -10 1484.95  106.49
   2  -1 -10 1278.77   93.99
   3   1 -10   64.59   24.00
   3   1 -10   41.50   18.30
   3  -1 -10   55.99   20.20
   3  -1 -10   40.40   22.40
   4   1 -10   19.00   15.20
   4  -1 -10   -1.80   14.00
   4  -1 -10  -24.00   11.60
   5   1 -10   93.89   28.00
   5   1 -10  132.19   42.40
   5  -1 -10  156.78   44.20
   6   1 -10  299.07   67.49
   6   1 -10  333.87   47.30
   6  -1 -10  264.37   50.39
   6  -1 -10  326.67   68.49
   7   1 -10   23.40   30.00
   7  -1 -10   22.30   23.50
   7  -1 -10    3.20   21.20
   0  -2 -10   24.30   13.50
   0  -2 -10   14.60   13.80
  -1  -2 -10  690.83   71.69
   1   2 -10  630.24   69.89
   1  -2 -10  748.33   71.29
   1  -2 -10  720.73   72.09
   2   2 -10   14.50   11.50
  -2  -2 -10   19.20   17.30
   2   2 -10    1.90   14.50
   2  -2 -10   26.60   16.40
   2  -2 -10   20.70   17.10
   3   2 -10  537.55   53.29
  -3  -2 -10  605.24   70.79
   3   2 -10  546.05   69.79
   3  -2 -10  452.05   68.89
   3  -2 -10  427.86   72.49
   4   2 -10  -16.00   14.40
   4   2 -10   24.00   12.60
   4  -2 -10   -5.00   14.00
   4  -2 -10   13.90   20.50
   5   2 -10   43.10   26.40
   5  -2 -10   39.40   23.00
   5  -2 -10   68.59   28.30
  -5  -2  10   58.19   29.10
   6   2 -10  -14.90   20.40
   6  -2 -10  -16.60   16.10
   6  -2 -10   24.50   24.90
   7   2 -10   89.29   38.90
   7  -2 -10  145.59   45.40
   7  -2 -10  109.49   44.60
   0  -3 -10   16.10   15.80
   0  -3 -10  -11.00   12.00
   1   3 -10  650.93   75.29
  -1  -3 -10  796.52   77.79
   1  -3 -10  659.83   67.79
   1  -3 -10  583.44   67.79
  -2  -3 -10   31.70   18.80
   2   3 -10   14.40   17.10
   2  -3 -10   16.10    9.10
   3   3 -10  487.75   65.19
  -3  -3 -10  534.95   67.59
   3  -3 -10  559.74   64.49
   3  -3 -10  415.46  100.79
   4   3 -10   26.10   22.60
  -4  -3 -10   90.09   63.89
  -4  -3  10  133.79   29.10
   4  -3 -10   27.60   17.30
   4  -3 -10   43.00   21.20
   5   3 -10  280.37   60.29
   5  -3 -10  264.17   56.79
   5  -3 -10  469.05   80.79
   6   3 -10  -15.70   18.30
   6  -3 -10    9.10   30.60
   6  -3 -10   27.40   27.30
   7  -3  10   95.69   34.80
   7   3 -10   88.49   44.50
   7  -3 -10  273.37  105.99
   7  -3 -10  100.69   36.60
   0  -4 -10   -1.40   11.90
   0  -4 -10    8.20   14.10
  -1  -4 -10   95.59   30.70
   1  -4 -10   90.09   28.40
   1  -4 -10   73.79   26.50
  -2  -4 -10   21.30   17.50
   2  -4 -10  -10.30    8.60
   2  -4 -10    1.60   13.00
   3   4 -10   41.00   44.20
  -3  -4 -10    7.10   16.80
   3  -4 -10   14.40   17.60
   3  -4 -10    8.60   20.10
   4   4 -10   39.70   24.30
  -4  -4 -10   51.89   27.70
   4  -4 -10   49.70   27.60
   4  -4 -10   62.19   31.60
  -4  -4  10   41.40   24.70
   5   4 -10   12.50   21.50
   5  -4 -10   35.30   29.90
   5  -4 -10  -19.00   17.70
   6   4 -10   35.80   25.30
   6  -4  10    4.30   14.70
   6  -4 -10  -35.20   22.10
   6  -4 -10   -8.50   24.80
   7  -4  10   23.50   24.60
   7  -4 -10    5.00   29.80
   0  -5 -10    4.70   12.60
   0  -5 -10   12.60   15.30
  -1  -5 -10  -11.00   12.00
   1  -5 -10   -3.10   14.00
   1  -5 -10    5.30   16.70
  -2  -5 -10  518.55   68.19
   2  -5 -10  591.04   72.39
   2  -5 -10  682.03   78.49
   3   5 -10   26.70   19.80
  -3  -5 -10   14.60   21.40
   3  -5 -10   35.00   22.40
   3  -5 -10   35.20   24.70
  -4  -5 -10   28.60   24.50
   4   5 -10    2.30   17.70
   4  -5 -10    9.20   23.40
   4  -5 -10  -12.60   17.50
   5  -5  10   19.30   21.70
  -5  -5 -10   10.70   25.00
   5  -5 -10   -5.40   18.60
   5  -5 -10   48.30   28.10
   6  -5  10   81.29   31.60
   6   5 -10   57.39   29.10
   6  -5 -10   61.99   33.70
   6  -5 -10   99.09   39.00
   0  -6 -10   35.90   25.30
   0  -6 -10   33.90   19.60
  -1  -6 -10   27.60   16.90
   1  -6 -10   15.80   23.40
   1  -6 -10   71.29   28.10
  -2  -6 -10    7.20   17.70
   2  -6 -10   16.80   19.90
   2  -6 -10    5.90   20.60
  -3  -6 -10   56.79   29.00
   3  -6  10    9.80   20.00
   3  -6 -10   30.50   28.60
   3  -6 -10   27.00   19.70
  -4  -6 -10   69.39   29.00
   4  -6  10   80.79   30.50
   4   6 -10   95.39   38.40
  -4  -6  10  126.19   26.60
   4  -6 -10   62.19   32.00
   4  -6 -10  113.19   41.10
   5   6 -10   49.40   28.50
   5  -6  10   33.00   23.70
  -5  -6 -10   84.29   27.90
   5  -6 -10   27.50   26.60
   5  -6 -10   10.90   57.29
   6   6 -10   15.30   30.40
   6  -6 -10    4.90   29.70
   0  -7  10  -22.40   16.30
   0  -7 -10   -5.60   16.00
   0  -7 -10  -13.30   17.10
   1  -7  10   28.90   19.40
  -1  -7 -10   -6.50   18.40
  -1  -7  10  -11.10   17.40
   1  -7 -10   11.90   19.10
   1  -7 -10   21.10   18.10
  -2  -7 -10  -32.90   21.90
   2  -7  10  -15.80   16.70
  -2  -7  10    1.60   15.10
   2  -7 -10   -5.30   21.60
   2  -7 -10   54.29   29.20
  -3  -7 -10   -8.60   26.90
   3  -7  10   38.40   26.80
   3  -7 -10    5.00   18.20
   3  -7 -10   12.70   27.40
  -3  -7  10   20.90   18.90
   4  -7  10   24.80   21.90
  -4  -7 -10   27.40   29.50
   4  -7 -10  -12.20   27.90
  -5  -7 -10   16.30   33.80
   5  -7 -10   45.90   31.70
   5  -7 -10   15.50   44.50
   0  -8 -10  317.67   68.29
   0  -8 -10  213.58   37.60
   0  -8  10  236.18   47.80
  -1  -8 -10   61.39   32.50
   1  -8  10   28.80   24.60
   1  -8 -10   65.89   29.50
  -1  -8  10   13.10   20.80
   1  -8 -10    9.40   24.20
   2  -8  10   37.50   26.70
  -2  -8 -10   50.29   27.90
  -2  -8  10   11.60   19.10
   2  -8 -10    1.20   26.40
   2  -8 -10  -53.39   20.70
   3  -8  10    2.20   20.20
  -3  -8 -10  -20.00   28.20
   3  -8 -10    2.80   24.80
   3  -8 -10   32.30   30.90
  -4  -8 -10   14.60   41.90
   4  -8 -10  129.69   49.99
   0  -9 -10   49.40   26.40
   0  -9  10   16.10   20.90
   0  -9  10    2.30   19.90
   1  -9  10   20.90   27.90
  -1  -9 -10   70.49   36.50
   1  -9 -10  -30.50   18.90
   1  -9 -10   -0.20   34.00
  -1  -9  10   29.50   30.10
  -1  -9  10   43.80   30.80
   2  -9  10   32.90   27.90
  -2  -9 -10   40.80   31.80
   2  -9 -10   54.49   34.10
  -2  -9  10   -6.30   34.40
  -3  -9 -10    0.70   36.90
   3  -9 -10   29.90   32.10
   0   0 -11    3.40   10.80
   0   0 -11    2.10   10.00
   1   0 -11   13.10   12.70
  -1   0 -11   -2.30   12.50
   1   0 -11   10.20   13.70
   2   0 -11    6.10   14.30
   2   0 -11   -3.70   11.20
   3   0 -11    2.00   13.20
   3   0 -11   -8.60   17.10
   4   0 -11    3.30   15.50
   4   0 -11    1.10   11.90
   5   0 -11   13.70   19.30
   5   0 -11  -13.00   16.10
   6   0 -11   -6.80   23.50
   6   0 -11   -1.20   20.40
   7   0 -11   27.50   26.50
   0  -1 -11    3.30   12.10
   0   1 -11   -4.30   10.70
   0  -1 -11    2.20   14.60
  -1  -1 -11  129.99   39.50
   1   1 -11   78.99   30.60
   1   1 -11   68.09   25.80
   1  -1 -11   43.50   20.10
   1  -1 -11   87.69   29.00
   2   1 -11  307.47   52.69
   2   1 -11  246.48   54.79
  -2  -1 -11  312.57   61.99
   2  -1 -11  372.96   60.79
   2  -1 -11  257.57   56.79
   3   1 -11  173.38   37.90
   3   1 -11  147.09   41.80
   3  -1 -11  159.18   41.40
   3  -1 -11  175.38   41.60
   4   1 -11   16.60   21.50
   4   1 -11   43.20   14.20
   4  -1 -11   -3.70   18.40
   4  -1 -11   17.10   15.40
   5   1 -11   72.09   25.00
   5   1 -11   41.90   28.80
   5  -1 -11   -6.90   22.10
   6   1 -11  -13.20   27.40
   6   1 -11   53.69   24.90
   6  -1 -11   40.10   24.60
   6  -1 -11   40.20   30.80
   7   1 -11   38.80   42.70
   7  -1 -11   34.70   32.70
   7  -1 -11  210.58   53.59
   0  -2 -11  424.16   53.39
   0  -2 -11  373.46   64.69
  -1  -2 -11   -5.20   11.00
   1   2 -11   13.20   15.50
   1  -2 -11   10.10   16.20
   1  -2 -11    2.00   15.00
   2   2 -11   25.20   20.20
  -2  -2 -11   -3.90   15.10
   2   2 -11   16.90   13.00
   2  -2 -11   -0.60   14.90
   2  -2 -11   -9.10   13.20
   3   2 -11   12.40   15.00
   3   2 -11  -14.40   13.60
  -3  -2 -11    8.40   17.50
   3  -2 -11   -2.60   15.50
   3  -2 -11   18.50   16.90
   4   2 -11  344.57   45.10
   4   2 -11  290.67   60.59
   4  -2 -11  344.87   70.29
   4  -2 -11  266.07   49.99
   5   2 -11   10.30   22.70
   5   2 -11   -3.90   15.80
   5  -2 -11  -26.80   16.80
   5  -2 -11   -3.90   15.90
   6   2 -11  -15.60   23.30
   6  -2 -11    3.20   24.00
   6  -2 -11   24.90   27.80
   7   2 -11   25.90   36.00
   7  -2 -11   45.90   27.60
   0  -3 -11    4.30   15.00
   0  -3 -11    5.30   16.10
  -1  -3 -11  425.76   71.89
   1  -3 -11  459.85   57.99
   1  -3 -11  367.46   64.49
   2   3 -11   30.30   23.10
   2  -3 -11   53.09   21.30
   2  -3 -11   47.70   22.80
  -3  -3 -11  116.49   36.60
   3   3 -11  145.19   39.80
   3  -3 -11  108.49   34.20
   3  -3 -11  147.19   43.50
  -4  -3 -11  -46.80   18.70
   4   3 -11   -1.90   22.60
   4  -3 -11   52.89   25.80
   4  -3 -11   10.80   21.90
   5   3 -11   62.89   31.00
   5  -3 -11   88.09   39.80
   5  -3 -11   38.80   28.50
   6   3 -11  -34.40   21.00
   6  -3 -11    2.90   21.30
   6  -3 -11    2.10   21.90
   7  -3  11  -14.90   23.20
   7   3 -11  -21.20   27.10
   7  -3 -11   15.00   34.70
   0  -4 -11   98.29   30.10
   0  -4 -11  137.19   42.70
  -1  -4 -11  396.56   69.99
   1  -4 -11  515.45   62.69
   1  -4 -11  449.36   76.29
   2   4 -11   -6.90   13.90
  -2  -4 -11  -22.70    8.90
   2  -4 -11   11.20   16.30
   2  -4 -11   15.90   14.20
  -3  -4 -11  182.08   45.50
   3   4 -11  203.78   50.59
   3  -4 -11  382.76   67.89
   3  -4 -11  289.17   55.69
  -4  -4 -11   72.99   36.00
   4   4 -11   72.89   31.00
   4  -4 -11   31.00   19.20
   4  -4 -11   -9.60   19.20
   5   4 -11  166.78   48.90
   5  -4 -11  219.28   63.39
   5  -4 -11  169.68   45.10
   6   4 -11   36.90   35.10
   6  -4  11    6.40   21.20
   6  -4 -11   46.20   28.70
   6  -4 -11   11.10   28.80
   0  -5 -11   14.40   17.70
   0  -5 -11   -8.10   18.30
  -1  -5 -11  152.08   45.80
   1  -5 -11  145.79   46.20
   1  -5 -11  193.68   45.90
  -2  -5 -11   42.40   31.60
   2  -5 -11   70.79   32.70
   2  -5 -11   13.70   24.40
  -3  -5 -11  152.28   48.10
   3   5 -11   48.70   26.90
   3  -5 -11   50.29   26.00
   3  -5 -11  148.49   47.40
   4   5 -11   -3.80   17.40
  -4  -5 -11   -1.20   21.70
   4  -5 -11  -39.50   18.60
   4  -5 -11    6.10   20.20
   5   5 -11   96.19   35.30
   5  -5  11  160.48   41.00
   5  -5 -11  130.69   46.30
   6   5 -11    4.60   25.20
   6  -5 -11   35.70   33.20
   0  -6 -11  868.71   72.59
   0  -6 -11 1058.79  104.39
  -1  -6 -11   46.50   23.60
   1  -6 -11  -33.00   13.90
   1  -6 -11  -14.20   17.30
  -2  -6 -11   31.50   23.30
   2  -6 -11  -21.70   18.80
   2  -6 -11   32.50   26.10
  -3  -6 -11   54.29   33.30
   3  -6 -11    5.80   24.10
   3  -6 -11   41.10   31.10
   4  -6  11  326.17   59.49
  -4  -6 -11  400.36   74.99
   4   6 -11  328.47   68.99
   4  -6 -11  301.57   69.19
  -4  -6  11  367.86   46.00
   4  -6 -11  316.57  106.49
   5   6 -11   30.30   27.90
   5  -6  11  -14.00   19.80
  -5  -6 -11  -47.00   30.60
   5  -6 -11   40.80   33.30
   5  -6 -11   18.40   37.10
   0  -7 -11   23.90   19.50
   0  -7  11    7.20   23.00
   0  -7 -11   -1.20   21.40
  -1  -7 -11   28.90   24.10
   1  -7  11   14.10   19.60
  -1  -7  11    3.00   16.90
   1  -7 -11    5.80   39.40
   1  -7 -11   14.90   25.00
  -2  -7 -11  481.15   87.69
   2  -7  11  497.15   65.29
   2  -7 -11  431.36   76.19
  -2  -7  11  519.45   56.99
  -3  -7 -11   35.90   32.80
   3  -7  11   21.30   20.70
   3  -7 -11   54.49   27.30
   3  -7 -11  -10.40   24.90
  -3  -7  11   20.80   20.50
  -4  -7 -11  -14.60   26.40
   4  -7  11   24.40   22.70
   4  -7 -11    9.30   33.70
   4  -7 -11  -21.60   24.80
   0  -8 -11  171.08   42.50
   0  -8  11  127.39   38.60
   0  -8 -11  154.38   50.29
   1  -8  11   21.90   25.80
   1  -8 -11  -36.40   24.40
  -1  -8  11   13.70   24.70
   1  -8 -11   26.60   29.90
   2  -8  11   14.50   23.40
   2  -8 -11    3.90   24.60
   2  -8 -11  -22.20   26.70
  -2  -8  11  -28.40   21.80
   3  -8 -11  136.39   86.19
   0  -9  11   54.59   27.70
   0  -9 -11  -11.90   45.00
   1  -9  11   68.09   36.90
  -1  -9 -11  143.49   52.89
  -1  -9  11  128.99   41.90
  -1  -9  11   71.79   32.50
  -2  -9 -11   29.50   38.00
   2  -9 -11   -4.30   39.20
   0   0 -12 1548.15  115.19
   0   0 -12 1497.75  110.99
   1   0 -12    1.30   12.40
   1   0 -12   11.40   15.80
  -1   0 -12  -13.40   14.70
   2   0 -12   -2.40   13.20
   2   0 -12  -10.40   12.10
   3   0 -12    7.60   17.90
   3   0 -12   24.70   21.80
   4   0 -12  576.54   67.89
   4   0 -12  430.36   78.89
   5   0 -12  -21.60   21.30
   5   0 -12   -2.40   19.80
   6   0 -12  -34.00   23.00
   0  -1 -12  -14.00   11.90
   0   1 -12   39.90   17.20
   0  -1 -12   11.00   12.30
   1   1 -12   87.09   31.70
   1  -1 -12   -1.80   18.50
   1  -1 -12   35.40   25.30
   2   1 -12  551.84   69.39
   2   1 -12  390.66   64.59
  -2  -1 -12  322.17   62.49
   2  -1 -12  599.44   74.19
   2  -1 -12  421.66   56.39
   3   1 -12    4.30   14.30
   3   1 -12   42.60   30.20
   3  -1 -12  -19.50   11.80
   3  -1 -12    5.20   15.40
   4   1 -12  -14.90   19.00
   4   1 -12  -15.50   18.80
   4  -1 -12   -3.10   20.50
   4  -1 -12   32.30   26.50
   5   1 -12   57.19   30.60
   5   1 -12   88.69   29.90
   5  -1 -12    3.90   22.00
   5  -1 -12   55.69   29.70
   6   1 -12  124.79   41.80
   6   1 -12  182.38   36.70
   6  -1 -12  134.99   51.49
   6  -1 -12  142.39   39.80
   0  -2 -12   86.19   28.40
   0  -2 -12  152.18   49.60
   1   2 -12  352.16   66.49
  -1  -2 -12  424.46   73.09
   1  -2 -12  324.47   63.19
   1  -2 -12  576.14  127.29
  -2  -2 -12  -10.20   12.60
   2   2 -12   27.20   18.00
   2  -2 -12    3.20   12.90
   3   2 -12  372.86   67.39
  -3  -2 -12  444.46   79.89
   3   2 -12  456.35   56.69
   3  -2 -12  381.66   68.69
   3  -2 -12  357.36   62.99
   4   2 -12   19.90   19.50
   4   2 -12   45.80   21.80
   4  -2 -12   25.60   23.50
   4  -2 -12   43.70   23.00
   5   2 -12  257.17   64.19
   5  -2 -12  197.58   54.49
   5  -2 -12  209.78   51.09
   6   2 -12  -34.50   20.10
   6  -2 -12    8.40   23.60
   6  -2 -12  -20.40   26.20
   0  -3 -12    5.90   13.90
   0  -3 -12   14.90   19.90
  -1  -3 -12  263.37   58.59
   1  -3 -12  305.57   55.39
   1  -3 -12  335.67   64.19
   2   3 -12   93.59   37.90
  -2  -3 -12   45.50   32.70
   2  -3 -12  142.09   38.40
   2  -3 -12   24.40   24.50
  -3  -3 -12   79.89   31.80
   3   3 -12  128.49   42.00
   3  -3 -12   85.39   39.60
   3  -3 -12   93.79   36.10
   4   3 -12   13.20   22.50
  -4  -3 -12    8.10   24.30
   4  -3 -12   15.90   20.50
   4  -3 -12   -9.90   19.80
   5   3 -12   96.09   47.00
   5  -3 -12  177.78   50.19
   5  -3 -12  195.98   49.99
   6   3 -12   37.40   27.40
   6  -3 -12   57.59   31.20
   0  -4 -12  147.49   42.10
   0  -4 -12  197.48   42.90
  -1  -4 -12   32.20   21.20
   1  -4 -12   44.10   23.30
  -2  -4 -12    0.10   23.00
   2   4 -12  -26.30   12.20
   2  -4 -12  -29.90   13.60
   2  -4 -12   30.80   22.70
   3   4 -12   78.19   32.00
  -3  -4 -12   38.00   25.90
   3  -4 -12   39.10   27.70
   3  -4 -12   10.30   21.90
  -4  -4 -12    6.40   30.40
   4   4 -12   12.90   22.50
   4  -4 -12   49.80   26.80
   4  -4 -12   52.39   33.40
   5   4 -12   -9.20   23.80
   5  -4 -12   54.09   30.60
   5  -4 -12   20.30   26.20
   6   4 -12  -33.00   24.50
   6  -4 -12   39.90   37.90
   0  -5 -12  -35.40   15.90
   0  -5 -12  -26.40   12.80
  -1  -5 -12   -2.60   20.20
   1  -5 -12  -16.80   19.30
   1  -5 -12  -36.30   16.30
  -2  -5 -12  357.06   70.29
   2  -5 -12  264.57   60.89
   2  -5 -12  295.77   64.49
  -3  -5 -12   51.99   31.70
   3   5 -12   34.80   24.20
   3  -5 -12    6.80   26.60
   3  -5 -12   48.10   29.80
  -4  -5 -12   14.70   26.50
   4   5 -12  -10.00   25.40
   4  -5 -12  -36.00   24.90
   4  -5 -12  -23.20   36.60
   5   5 -12  -14.70   25.60
   5  -5 -12   29.20   31.70
   0  -6 -12  155.28   47.30
   0  -6 -12  158.28   39.80
  -1  -6 -12   73.99   35.90
   1  -6 -12    8.50   20.00
   1  -6 -12   59.29   31.40
  -2  -6 -12  -12.90   20.80
   2  -6 -12  -23.70   23.20
   2  -6 -12  -42.30   20.60
  -3  -6 -12   -7.70   26.50
   3  -6 -12   42.00   30.50
  -4  -6 -12   44.60   41.70
   4  -6  12   10.40   21.80
   4  -6 -12   49.50   39.60
   4  -6 -12  106.79   38.80
   5   6 -12  -21.40   21.40
  -5  -6 -12   11.40   39.80
   0  -7 -12   43.00   41.90
   0  -7 -12  -29.30   21.20
  -1  -7 -12   10.30   25.60
   1  -7 -12  -16.40   23.00
   1  -7 -12  -23.80   26.70
  -2  -7 -12   35.80   34.00
   2  -7  12   65.79   23.90
   2  -7 -12   -6.40   24.20
   2  -7 -12   52.59   34.00
  -2  -7  12   58.19   29.40
   3  -7  12  -35.90   18.00
  -3  -7 -12  -56.79   32.30
   3  -7 -12  -32.20   29.50
   3  -7 -12   34.20   32.00
  -3  -7  12  -31.10   17.80
  -4  -7 -12  -20.20   33.80
   4  -7 -12  -54.59   35.90
   0  -8 -12   72.49   37.70
   0  -8  12  165.98   52.89
  -1  -8 -12    0.70   31.00
   1  -8  12   38.00   32.60
   1  -8 -12   72.39   45.90
  -1  -8  12   25.50   26.30
   1  -8 -12   15.20   32.50
  -2  -8 -12  -22.30   31.80
   2  -8  12   62.49   32.50
   2  -8 -12  -14.30   32.40
  -2  -8  12  -32.90   22.30
   0   0 -13    7.70   19.20
  -1   0 -13  -33.90   13.70
   1   0 -13   -6.00   11.40
   1   0 -13  -31.00   11.10
   2   0 -13   -5.00   19.30
   2   0 -13  -25.60   14.70
   3   0 -13   22.80   19.00
   3   0 -13  -34.50   12.90
   4   0 -13  -10.00   21.00
   4   0 -13   -5.30   21.10
   5   0 -13  -38.40   22.20
   5   0 -13   38.60   22.30
   6   0 -13   -1.00   27.80
   0   1 -13   10.90   17.80
   0  -1 -13    6.90   16.50
   0  -1 -13  -22.90   14.60
   1   1 -13   97.19   48.00
   1   1 -13  152.98   43.60
  -1  -1 -13   96.19   38.30
   1  -1 -13  177.38   46.10
   1  -1 -13  102.79   32.90
   2   1 -13  182.28   43.00
   2   1 -13  291.37   64.29
  -2  -1 -13  295.87   67.49
   2  -1 -13  182.88   50.19
   2  -1 -13  163.78   44.30
   3   1 -13  122.09   33.50
   3   1 -13  103.79   40.40
   3  -1 -13  108.19   44.60
   3  -1 -13  123.29   35.10
   4   1 -13  -45.40   20.30
   4   1 -13    4.60   16.40
   4  -1 -13   -9.60   19.90
   4  -1 -13   59.19   31.50
   5   1 -13    1.10   30.10
   5   1 -13  133.39   39.70
   5  -1 -13   15.90   23.30
   5  -1 -13  -17.70   26.80
   6   1 -13   72.49   45.10
   6  -1 -13  152.38   41.20
   0  -2 -13  635.94   69.99
   0  -2 -13  742.13   84.89
   1   2 -13  -15.80   13.60
  -1  -2 -13   -1.30   16.90
   1  -2 -13   47.40   21.50
   1  -2 -13   43.20   24.50
  -2  -2 -13   33.50   25.00
   2   2 -13    1.30   15.20
   2  -2 -13   13.60   20.50
   2  -2 -13  -18.10   14.30
  -3  -2 -13  -19.70   19.70
   3   2 -13   15.80   18.40
   3  -2 -13   -3.40   21.80
   3  -2 -13   22.00   24.00
   4   2 -13  157.58   49.20
   4  -2 -13  255.87   58.09
   4  -2 -13  270.77   64.59
   5   2 -13   14.30   29.90
   5  -2 -13   97.09   43.00
   5  -2 -13   75.89   34.40
   6   2 -13  -37.00   61.49
   6  -2 -13  -42.40   21.80
   0  -3 -13   -8.60   11.10
   0  -3 -13   12.70   17.60
  -1  -3 -13   24.60   26.70
   1  -3 -13   33.90   25.20
   1  -3 -13   40.80   26.80
  -2  -3 -13  -15.30   18.70
   2  -3 -13   41.20   22.80
   2  -3 -13   14.80   18.50
   3   3 -13   29.10   22.90
  -3  -3 -13   20.60   31.10
   3  -3 -13   29.40   24.10
   3  -3 -13   20.60   24.30
   4   3 -13   60.29   25.40
   4  -3 -13  -12.50   24.00
   4  -3 -13   10.50   22.00
   5   3 -13   46.10   33.00
   5  -3 -13   30.10   30.90
   5  -3 -13   91.89   38.80
   0  -4 -13   43.90   23.00
   0  -4 -13  -16.30   13.00
  -1  -4 -13  162.58   54.19
   1  -4 -13  238.08   51.29
   1  -4 -13  158.98   46.90
  -2  -4 -13   25.70   25.20
   2  -4 -13    6.60   19.30
   2  -4 -13  -17.10   18.20
   3   4 -13  201.58   57.39
  -3  -4 -13  167.78   53.09
   3  -4 -13  154.88   49.80
   3  -4 -13  246.68   58.99
   4   4 -13   38.40   43.20
  -4  -4 -13  -31.90   25.20
   4  -4 -13   56.19   34.80
   4  -4 -13   20.10   29.70
   5   4 -13   37.50   31.50
   5  -4 -13   61.89   33.60
   0  -5 -13   30.50   22.80
   0  -5 -13   22.10   23.50
  -1  -5 -13  154.98   55.29
   1  -5 -13  159.38   44.00
   1  -5 -13   60.29   34.20
  -2  -5 -13  -12.30   22.10
   2  -5 -13  -15.80   22.50
   2  -5 -13   49.10   34.50
  -3  -5 -13  142.39   51.79
   3  -5 -13   54.99   36.40
   3  -5 -13  113.99   71.39
   4   5 -13   26.20   26.30
   4  -5 -13   -5.80   28.00
   4  -5 -13  -19.40   22.60
   5   5 -13   92.49   41.90
   5  -5 -13   15.30   26.50
   0  -6 -13  229.18   46.80
   0  -6 -13  286.77   87.09
  -1  -6 -13  -36.60   20.50
   1  -6 -13   35.50   29.40
   1  -6 -13   -0.30   22.40
   2  -6 -13  -18.80   27.10
   2  -6 -13  -29.70   23.70
  -3  -6 -13    1.60   33.70
   3  -6 -13    3.50   29.60
   3  -6 -13  -21.60   23.40
  -4  -6 -13  192.18   57.49
   4  -6 -13  215.68   99.19
   0  -7 -13  -22.90   25.20
   0  -7 -13   24.90   31.20
  -1  -7 -13  -55.39   29.80
   1  -7 -13   29.70   34.60
  -2  -7 -13  181.28   55.29
   2  -7 -13  254.27   55.59
  -3  -7 -13  -27.50   29.80
  -3  -7  13   28.90   29.30
   3  -7 -13  -12.90   32.50
   0  -8  13   16.00   31.00
  -1  -8  13   20.50   25.90
   1  -8 -13   -0.20   42.70
   0   0 -14  484.95   84.09
   1   0 -14   -6.60   14.60
  -1   0 -14    2.30   16.40
   2   0 -14  -20.40   13.50
   2   0 -14   -2.50   18.50
   3   0 -14   -4.80   16.70
   3   0 -14    7.50   21.80
   4   0 -14  429.76   89.39
   4   0 -14  393.06   67.99
   5   0 -14    3.80   25.70
   5   0 -14  -54.89   21.80
   0  -1 -14   -4.30   15.40
   1   1 -14   84.69   32.00
  -1  -1 -14   40.70   26.50
   1   1 -14   43.20   30.40
   1  -1 -14   50.29   31.10
   1  -1 -14   93.39   38.00
  -2  -1 -14  315.57   69.99
   2   1 -14  320.07   60.99
   2   1 -14  258.17   58.49
   2  -1 -14  420.16   77.89
   2  -1 -14  321.27   65.29
   3   1 -14   19.30   25.00
   3   1 -14   29.50   22.60
   3  -1 -14   30.00   25.20
   3  -1 -14   42.20   24.10
   4   1 -14   16.60   26.10
   4   1 -14   10.40   18.80
   4  -1 -14  -23.30   23.20
   4  -1 -14   47.30   28.30
   5   1 -14   10.80   25.30
   5   1 -14    9.00   27.50
   5  -1 -14   24.40   32.20
   5  -1 -14   38.00   28.70
   0  -2 -14   14.40   19.80
   0  -2 -14   -1.80   17.50
  -1  -2 -14  198.58   52.49
   1  -2 -14  180.18   45.20
   1  -2 -14  171.78   50.39
  -2  -2 -14  -11.70   20.20
   2   2 -14   14.80   23.50
   2  -2 -14    9.60   21.90
   2  -2 -14   31.30   21.50
   3   2 -14  105.49   40.10
  -3  -2 -14  137.79   52.79
   3  -2 -14  145.99   49.20
   3  -2 -14  149.69   45.30
   4   2 -14   -8.70   23.50
   4  -2 -14   10.80   30.70
   4  -2 -14   21.80   27.30
   5   2 -14  -19.90   25.30
   5  -2 -14   28.40   32.10
   0  -3 -14  -14.60   17.90
   0  -3 -14    7.90   19.40
  -1  -3 -14  202.68   58.89
   1  -3 -14  236.88   54.29
   1  -3 -14  174.08   48.50
   2   3 -14  -25.40   15.70
  -2  -3 -14    3.70   23.60
   2  -3 -14  -12.90   19.70
   2  -3 -14    0.70   20.10
   3   3 -14  114.39   43.40
  -3  -3 -14  150.08   47.40
   3  -3 -14   65.19   37.20
   3  -3 -14  224.98   53.79
   4   3 -14    7.10   21.10
   4  -3 -14  -24.60   27.50
   4  -3 -14  -13.00   22.40
   5  -3 -14   93.09   40.50
   0  -4 -14   31.10   30.30
   0  -4 -14   36.70   25.30
  -1  -4 -14    6.20   22.80
   1  -4 -14   19.70   23.50
   1  -4 -14   57.09   26.10
  -2  -4 -14  -14.60   18.10
   2  -4 -14   -2.40   24.70
   2  -4 -14   46.90   33.10
   3   4 -14   41.70   29.10
   4   4 -14   51.19   35.40
  -4  -4 -14   76.49   38.20
   4  -4 -14   24.00   31.80
   4  -4 -14   61.29   40.90
   0  -5 -14   -1.70   21.40
   0  -5 -14    2.30   35.90
  -1  -5 -14   54.39   39.00
   1  -5 -14   56.79   33.40
   1  -5 -14   24.50   33.80
  -2  -5 -14  289.67   69.19
   2  -5 -14  123.89   47.70
   2  -5 -14  159.48   56.59
  -3  -5 -14  -15.80   27.00
   3  -5 -14   58.99   37.60
   3  -5 -14   39.40   36.30
  -4  -5 -14   -4.50   28.80
   0  -6 -14   17.80   35.70
  -1  -6 -14   40.30   34.20
   1  -6 -14  -19.70   32.50
   1  -6 -14  -23.30   28.70
  -2  -6 -14  -20.60   29.00
   2  -6 -14  -17.50   28.40
   2  -6 -14    2.10   28.20
  -3  -6 -14  -12.50   28.90
   3  -6 -14  -24.70   35.70
   1  -7 -14   12.40   32.40
   0   0 -15   -9.40   18.90
   1   0 -15  -10.90   20.30
   1   0 -15    3.60   20.80
   2   0 -15    8.10   21.40
   2   0 -15    9.70   24.90
   3   0 -15    9.90   27.90
   3   0 -15  -22.40   16.70
   4   0 -15    6.80   27.60
   5   0 -15   56.59   33.90
   0  -1 -15  -12.30   15.70
  -1  -1 -15  -12.50   14.00
   1   1 -15   -0.30   22.30
   1   1 -15  -13.00   20.80
   1  -1 -15   30.20   26.00
   1  -1 -15   -8.80   24.80
   2   1 -15   92.29   36.10
   2   1 -15  130.69   46.00
   2  -1 -15  163.68   48.40
   2  -1 -15  277.47   57.79
   3   1 -15   17.60   25.70
   3   1 -15   11.10   22.20
   3  -1 -15   16.90   27.90
   3  -1 -15   31.30   31.80
   4   1 -15   -8.90   28.60
   4   1 -15  -45.60   19.80
   4  -1 -15    6.40   25.40
   4  -1 -15   38.80   27.80
   5   1 -15   30.20   30.40
   0  -2 -15  144.29   45.70
  -1  -2 -15  -17.20   18.70
   1  -2 -15  -12.40   18.30
   1  -2 -15  -14.20   20.80
  -2  -2 -15   -7.30   29.00
   2   2 -15    5.50   36.10
   2  -2 -15  -24.30   17.20
   2  -2 -15    0.60   23.60
   3   2 -15   16.90   20.50
   3  -2 -15   -3.20   24.80
   3  -2 -15   62.59   30.00
   4   2 -15   -6.30   40.10
   4  -2 -15  -39.90   35.00
   4  -2 -15   -7.20   27.60
   0  -3 -15   15.20   27.30
  -1  -3 -15   68.89   40.10
   1  -3 -15   48.30   28.90
   1  -3 -15   99.59   41.00
  -2  -3 -15   -5.00   32.10
   2  -3 -15   43.50   33.80
   2  -3 -15   -6.00   18.80
   3   3 -15   36.70   33.20
  -3  -3 -15    7.60   29.00
   3  -3 -15   36.80   33.20
   3  -3 -15   71.89   35.00
   4  -3 -15  -19.50   28.00
   0  -4 -15  -37.00   20.80
   0  -4 -15  -16.00   19.50
  -1  -4 -15  230.08   70.49
   1  -4 -15  128.59   46.80
   1  -4 -15  149.09   46.30
  -2  -4 -15   16.00   29.70
   2  -4 -15   -5.90   20.80
   2  -4 -15  -12.20   26.80
   3   4 -15   77.79   55.49
  -3  -4 -15  184.88   52.09
   3  -4 -15   76.79   41.30
   3  -4 -15   90.49   40.20
   0  -5 -15  -11.50   24.00
  -1  -5 -15   22.30   35.70
   1  -5 -15   11.70   29.80
   1  -5 -15   32.00   31.60
  -2  -5 -15   24.20   47.20
   2  -5 -15  -13.40   52.69
   2  -5 -15    8.00   34.10
   3  -5 -15    3.70   34.40
   1  -6 -15  -50.29   31.60
   0   0 -16  816.62  100.89
   1   0 -16  -29.10   20.30
   1   0 -16   -3.40   23.00
   2   0 -16   -0.80   20.30
   2   0 -16  -25.80   23.60
   3   0 -16   29.80   29.60
   3   0 -16  -62.79   27.50
   4   0 -16  231.18   58.69
   0  -1 -16   37.50   46.40
  -1  -1 -16  -35.50   21.40
   1  -1 -16   15.10   29.20
   1  -1 -16   -5.10   27.80
   2   1 -16   79.79   39.90
   2   1 -16   77.39   42.20
   2  -1 -16  104.69   39.70
   2  -1 -16   40.00   39.20
   3   1 -16  -33.50   25.30
   3  -1 -16   28.10   39.20
   3  -1 -16   -2.00   24.80
   4   1 -16  -29.00   29.90
   4  -1 -16  -47.80   26.70
   0  -2 -16  -34.40   21.60
  -1  -2 -16  -11.50   30.00
   1  -2 -16    1.80   28.30
   1  -2 -16   34.50   29.00
   2   2 -16   17.00   25.10
  -2  -2 -16   -1.00   23.60
   2  -2 -16  -10.60   21.30
   2  -2 -16  -29.10   22.40
   3  -2 -16  101.39   42.90
   3  -2 -16  113.49   60.99
   0  -3 -16  -26.10   21.80
  -1  -3 -16  143.99   51.19
   1  -3 -16  115.99   44.70
   1  -3 -16   99.69   40.20
  -2  -3 -16  -16.20   27.80
   2  -3 -16   -0.70   28.30
   2  -3 -16  -42.30   24.00
   3  -3 -16  113.09   41.10
   1  -4 -16   39.40   33.80
   2  -4 -16  -18.20   28.70
   1  -5 -16   59.09   41.40
   1   0 -17  -10.60   29.00
   2   0 -17    6.10   29.80
   0  -1 -17   -3.50   29.70
   1  -1 -17   16.80   26.50
   2  -1 -17   69.19   42.40
   1  -2 -17   15.50   26.80
   1  -3 -17    0.60   27.00
   0   0   0    0.00    0.00

_computing_structure_solution     'SHELXT 2014/5 (Sheldrick, 2014)'
;
_shelx_hkl_checksum              80045
_olex2_submission_special_instructions 'No special instructions were received'
loop_
_space_group_symop_operation_xyz
'x, y, z'
'-x, -y, z+1/2'
'-x, y+1/2, -z+1/2'
'x, -y+1/2, -z'
'-x, -y, -z'
'x, y, -z-1/2'
'x, -y-1/2, z-1/2'
'-x, y-1/2, z'
loop_
_atom_site_label
_atom_site_type_symbol
_atom_site_fract_x
_atom_site_fract_y
_atom_site_fract_z
_atom_site_U_iso_or_equiv
_atom_site_adp_type
_atom_site_occupancy
_atom_site_site_symmetry_order
_atom_site_calc_flag
_atom_site_refinement_flags_posn
_atom_site_refinement_flags_adp
_atom_site_refinement_flags_occupancy
_atom_site_disorder_assembly
_atom_site_disorder_group
Br1 Br 1.37811(11) 0.43655(7) 0.250000 0.0293(2) Uani 1 2 d S T P . .
Rb1 Rb 0.86527(10) 0.28746(7) 0.250000 0.0312(2) Uani 1 2 d S T P . .
O1 O 0.8871(5) 0.5596(4) 0.3789(3) 0.0351(10) Uani 1 1 d . . . . .
O2 O 0.3075(7) 0.750000 0.500000 0.0412(16) Uani 1 2 d S T P . .
N1 N 0.8882(8) 0.750000 0.500000 0.0229(14) Uani 1 2 d S T P . .
H1 H 1.014854 0.750001 0.500000 0.027 Uiso 1 2 calc RS T P . .
N2 N 0.5955(6) 0.6482(5) 0.4424(4) 0.0265(12) Uani 1 1 d . . . . .
C1 C 0.7961(7) 0.6460(6) 0.4360(4) 0.0234(13) Uani 1 1 d . . . . .
C2 C 0.4893(10) 0.750000 0.500000 0.0248(18) Uani 1 2 d S T P . .
H2 H 0.544(7) 0.602(5) 0.407(4) 0.010(16) Uiso 1 1 d . . . . .
loop_
_atom_site_aniso_label
_atom_site_aniso_U_11
_atom_site_aniso_U_22
_atom_site_aniso_U_33
_atom_site_aniso_U_23
_atom_site_aniso_U_13
_atom_site_aniso_U_12
Br1 0.0273(4) 0.0269(4) 0.0336(6) 0.000 0.000 -0.0015(3)
Rb1 0.0314(4) 0.0244(4) 0.0380(6) 0.000 0.000 0.0026(4)
O1 0.0282(19) 0.041(2) 0.036(3) -0.0151(19) 0.0043(19) 0.0040(19)
O2 0.012(2) 0.046(4) 0.065(5) -0.007(3) 0.000 0.000
N1 0.009(3) 0.030(3) 0.030(4) -0.007(3) 0.000 0.000
N2 0.016(2) 0.027(2) 0.037(4) -0.008(2) -0.001(2) -0.004(2)
C1 0.022(3) 0.030(3) 0.019(3) 0.003(3) 0.001(2) -0.001(2)
C2 0.021(4) 0.028(4) 0.026(5) -0.001(4) 0.000 0.000
loop_
_atom_type_symbol
_atom_type_description
_atom_type_scat_dispersion_real
_atom_type_scat_dispersion_imag
_atom_type_scat_source
C C 0.0033 0.0016 'International Tables Vol C Tables 4.2.6.8 and 6.1.1.4'
H H 0.0000 0.0000 'International Tables Vol C Tables 4.2.6.8 and 6.1.1.4'
Br Br -0.2901 2.4595 'International Tables Vol C Tables 4.2.6.8 and 6.1.1.4'
N N 0.0061 0.0033 'International Tables Vol C Tables 4.2.6.8 and 6.1.1.4'
O O 0.0106 0.0060 'International Tables Vol C Tables 4.2.6.8 and 6.1.1.4'
Rb Rb -0.9393 2.9676 'International Tables Vol C Tables 4.2.6.8 and 6.1.1.4'
loop_
_geom_angle_atom_site_label_1
_geom_angle_atom_site_label_2
_geom_angle_atom_site_label_3
_geom_angle
_geom_angle_site_symmetry_1
_geom_angle_site_symmetry_3
_geom_angle_publ_flag
Rb1 Br1 Rb1 139.90(3) 3_755 1_655 ?
Rb1 Br1 Rb1 81.429(18) 3_755 . ?
Rb1 Br1 Rb1 138.67(3) 1_655 . ?
Br1 Rb1 Br1 82.400(19) 3_745 1_455 ?
Br1 Rb1 O2 75.74(3) 3_745 2_664 ?
Br1 Rb1 O2 75.74(3) 3_745 5_666 ?
Br1 Rb1 N1 98.27(4) 3_745 2_764 ?
Br1 Rb1 N1 117.45(7) 1_455 5_766 ?
Br1 Rb1 N1 98.27(4) 3_745 5_766 ?
Br1 Rb1 N1 117.45(7) 1_455 2_764 ?
Br1 Rb1 C1 90.67(8) 3_745 8_755 ?
Br1 Rb1 C1 90.67(8) 3_745 3_745 ?
O1 Rb1 Br1 72.81(6) 3_745 3_745 ?
O1 Rb1 Br1 137.65(7) 6_556 3_745 ?
O1 Rb1 Br1 72.81(6) 8_755 3_745 ?
O1 Rb1 Br1 75.77(7) 6_556 1_455 ?
O1 Rb1 Br1 137.65(7) . 3_745 ?
O1 Rb1 Br1 75.77(7) . 1_455 ?
O1 Rb1 Br1 137.88(7) 3_745 1_455 ?
O1 Rb1 Br1 137.88(7) 8_755 1_455 ?
O1 Rb1 O1 65.43(13) 3_745 8_755 ?
O1 Rb1 O1 100.33(10) . 8_755 ?
O1 Rb1 O1 143.48(5) . 3_745 ?
O1 Rb1 O1 70.57(14) 6_556 . ?
O1 Rb1 O1 100.32(10) 6_556 3_745 ?
O1 Rb1 O1 143.48(5) 6_556 8_755 ?
O1 Rb1 O2 129.36(7) 6_556 5_666 ?
O1 Rb1 O2 129.27(7) 8_755 2_664 ?
O1 Rb1 O2 67.80(9) 8_755 5_666 ?
O1 Rb1 O2 63.49(7) . 5_666 ?
O1 Rb1 O2 129.27(7) 3_745 5_666 ?
O1 Rb1 O2 129.35(7) . 2_664 ?
O1 Rb1 O2 67.80(9) 3_745 2_664 ?
O1 Rb1 O2 63.49(7) 6_556 2_664 ?
O1 Rb1 N1 123.96(8) 6_556 5_766 ?
O1 Rb1 N1 123.96(8) . 2_764 ?
O1 Rb1 N1 99.71(9) 8_755 2_764 ?
O1 Rb1 N1 62.48(7) . 5_766 ?
O1 Rb1 N1 38.17(7) 3_745 2_764 ?
O1 Rb1 N1 99.71(9) 3_745 5_766 ?
O1 Rb1 N1 62.48(7) 6_556 2_764 ?
O1 Rb1 N1 38.17(7) 8_755 5_766 ?
O1 Rb1 C1 77.84(11) 8_755 3_745 ?
O1 Rb1 C1 81.69(11) 6_556 3_745 ?
O1 Rb1 C1 19.58(9) 8_755 8_755 ?
O1 Rb1 C1 129.61(10) 6_556 8_755 ?
O1 Rb1 C1 129.60(10) . 3_745 ?
O1 Rb1 C1 19.58(9) 3_745 3_745 ?
O1 Rb1 C1 81.69(11) . 8_755 ?
O1 Rb1 C1 77.84(11) 3_745 8_755 ?
O2 Rb1 Br1 73.46(7) 2_664 1_455 ?
O2 Rb1 Br1 73.46(7) 5_666 1_455 ?
O2 Rb1 O2 138.54(14) 2_664 5_666 ?
O2 Rb1 N1 167.17(6) 2_664 5_766 ?
O2 Rb1 N1 47.36(11) 2_664 2_764 ?
O2 Rb1 N1 47.36(11) 5_666 5_766 ?
O2 Rb1 N1 167.17(6) 5_666 2_764 ?
O2 Rb1 C1 145.39(10) 2_664 8_755 ?
O2 Rb1 C1 145.39(10) 5_666 3_745 ?
O2 Rb1 C1 63.71(10) 2_664 3_745 ?
O2 Rb1 C1 63.71(10) 5_666 8_755 ?
N1 Rb1 N1 124.12(15) 5_766 2_764 ?
C1 Rb1 Br1 136.98(8) 3_745 1_455 ?
C1 Rb1 Br1 136.98(8) 8_755 1_455 ?
C1 Rb1 N1 105.55(11) 3_745 5_766 ?
C1 Rb1 N1 21.90(9) 3_745 2_764 ?
C1 Rb1 N1 21.90(9) 8_755 5_766 ?
C1 Rb1 N1 105.55(11) 8_755 2_764 ?
C1 Rb1 C1 85.19(17) 8_755 3_745 ?
Rb1 O1 Rb1 103.64(11) . 3_755 ?
C1 O1 Rb1 102.5(3) . 3_755 ?
C1 O1 Rb1 145.2(3) . . ?
Rb1 O2 Rb1 140.07(14) 3_655 5_666 ?
C2 O2 Rb1 109.96(7) . 3_655 ?
C2 O2 Rb1 109.96(7) . 5_666 ?
Rb1 N1 Rb1 125.21(15) 5_766 3_755 ?
C1 N1 Rb1 74.7(2) 4_566 5_766 ?
C1 N1 Rb1 133.2(2) 4_566 3_755 ?
C1 N1 Rb1 133.2(2) . 5_766 ?
C1 N1 Rb1 74.7(2) . 3_755 ?
C1 N1 C1 125.5(6) 4_566 . ?
C2 N2 C1 125.0(5) . . ?
O1 C1 Rb1 57.9(3) . 3_755 ?
O1 C1 N1 122.1(4) . . ?
O1 C1 N2 123.6(5) . . ?
N1 C1 Rb1 83.4(2) . 3_755 ?
N2 C1 Rb1 133.3(4) . 3_755 ?
N2 C1 N1 114.3(5) . . ?
O2 C2 N2 122.2(3) . 4_566 ?
O2 C2 N2 122.2(3) . . ?
N2 C2 N2 115.7(6) . 4_566 ?
loop_
_geom_bond_atom_site_label_1
_geom_bond_atom_site_label_2
_geom_bond_distance
_geom_bond_site_symmetry_2
_geom_bond_publ_flag
Br1 Rb1 3.4368(10) 3_755 ?
Br1 Rb1 3.7110(10) . ?
Br1 Rb1 3.5479(10) 1_655 ?
Rb1 Br1 3.4368(10) 3_745 ?
Rb1 Br1 3.5479(10) 1_455 ?
Rb1 O1 3.066(4) 8_755 ?
Rb1 O1 2.869(3) . ?
Rb1 O1 2.869(3) 6_556 ?
Rb1 O1 3.066(4) 3_745 ?
Rb1 O2 3.4371(16) 5_666 ?
Rb1 O2 3.4371(16) 2_664 ?
Rb1 N1 3.639(2) 2_764 ?
Rb1 N1 3.639(2) 5_766 ?
Rb1 C1 3.533(5) 3_745 ?
Rb1 C1 3.533(5) 8_755 ?
O1 Rb1 3.066(4) 3_755 ?
O1 C1 1.213(6) . ?
O2 Rb1 3.4371(16) 5_666 ?
O2 Rb1 3.4371(16) 3_655 ?
O2 C2 1.235(8) . ?
N1 Rb1 3.639(2) 5_766 ?
N1 Rb1 3.639(2) 3_755 ?
N1 C1 1.366(5) . ?
N1 C1 1.366(5) 4_566 ?
N2 C1 1.365(6) . ?
N2 C2 1.354(5) . ?
C1 Rb1 3.533(5) 3_755 ?
C2 N2 1.354(5) 4_566 ?
