#------------------------------------------------------------------------------
#$Date: 2021-06-05 21:35:52 +0300 (Sat, 05 Jun 2021) $
#$Revision: 266021 $
#$URL: file:///home/coder/svn-repositories/cod/cif/7/70/70/7707084.cif $
#------------------------------------------------------------------------------
#
# This file is available in the Crystallography Open Database (COD),
# http://www.crystallography.net/
#
# All data on this site have been placed in the public domain by the
# contributors.
#
data_7707084
loop_
_publ_author_name
'Akopov, Georgiy'
'Mark, Justin'
'Viswanathan, Gayatri'
'Lee, Shannon J.'
'McBride, Brennan C.'
'Won, Juyeon'
'Perras, Fr\'ed\'eric A'
'Paterson, Alexander L.'
'Yuan, Bing'
'Sen, Sabyasachi'
'Adeyemi, Adedoyin N.'
'Zhang, Feng'
'Wang, Cai-Zhuang'
'Ho, Kai-Ming'
'Miller, Gordon J.'
'Kovnir, Kirill'
_publ_section_title
;
 Third time's the charm: intricate non-centrosymmetric polymorphism in
 <i>Ln</i>SiP<sub>3</sub> (<i>Ln</i> = La and Ce) induced by distortions
 of phosphorus square layers.
;
_journal_issue                   19
_journal_name_full
'Dalton transactions (Cambridge, England : 2003)'
_journal_page_first              6463
_journal_page_last               6476
_journal_paper_doi               10.1039/d1dt00845e
_journal_volume                  50
_journal_year                    2021
_chemical_formula_sum            'La P3 Si'
_chemical_formula_weight         259.91
_space_group_crystal_system      orthorhombic
_space_group_IT_number           33
_space_group_name_Hall           'P 2c -2n'
_space_group_name_H-M_alt        'P n a 21'
_audit_creation_method           SHELXL-2014/7
_audit_update_record
;
2021-03-28 deposited with the CCDC.	2021-04-09 downloaded from the CCDC.
;
_cell_angle_alpha                90
_cell_angle_beta                 90
_cell_angle_gamma                90
_cell_formula_units_Z            8
_cell_length_a                   5.9078(3)
_cell_length_b                   25.4382(10)
_cell_length_c                   5.7398(2)
_cell_measurement_reflns_used    8022
_cell_measurement_temperature    99(2)
_cell_measurement_theta_max      27.72
_cell_measurement_theta_min      3.20
_cell_volume                     862.60(6)
_computing_structure_refinement  'SHELXL-2014/7 (Sheldrick, 2014)'
_diffrn_ambient_temperature      99(2)
_diffrn_measured_fraction_theta_full 0.999
_diffrn_measured_fraction_theta_max 0.996
_diffrn_measurement_device_type  'Bruker Venture area-detector'
_diffrn_measurement_method       'profile data from \w scans'
_diffrn_radiation_type           MoK\a
_diffrn_radiation_wavelength     0.71073
_diffrn_reflns_av_R_equivalents  0.0274
_diffrn_reflns_av_unetI/netI     0.0248
_diffrn_reflns_Laue_measured_fraction_full 0.999
_diffrn_reflns_Laue_measured_fraction_max 0.996
_diffrn_reflns_limit_h_max       5
_diffrn_reflns_limit_h_min       -7
_diffrn_reflns_limit_k_max       32
_diffrn_reflns_limit_k_min       -33
_diffrn_reflns_limit_l_max       6
_diffrn_reflns_limit_l_min       -7
_diffrn_reflns_number            8022
_diffrn_reflns_point_group_measured_fraction_full 0.999
_diffrn_reflns_point_group_measured_fraction_max 0.997
_diffrn_reflns_theta_full        25.242
_diffrn_reflns_theta_max         27.717
_diffrn_reflns_theta_min         3.203
_diffrn_source                   'fine-focus sealed tube'
_exptl_absorpt_coefficient_mu    11.074
_exptl_absorpt_correction_T_max  1.00
_exptl_absorpt_correction_T_min  0.39
_exptl_absorpt_correction_type   numerical
_exptl_absorpt_process_details   SADABS
_exptl_crystal_colour            black
_exptl_crystal_density_diffrn    4.003
_exptl_crystal_description       plate
_exptl_crystal_F_000             928
_exptl_crystal_size_max          0.332
_exptl_crystal_size_mid          0.096
_exptl_crystal_size_min          0.070
_refine_diff_density_max         0.749
_refine_diff_density_min         -1.222
_refine_diff_density_rms         0.174
_refine_ls_abs_structure_details
;
 Refined as an inversion twin.
;
_refine_ls_abs_structure_Flack   0.33(2)
_refine_ls_extinction_coef       0.00114(11)
_refine_ls_extinction_expression Fc^*^=kFc[1+0.001xFc^2^\l^3^/sin(2\q)]^-1/4^
_refine_ls_extinction_method     'SHELXL-2014/7 (Sheldrick 2014'
_refine_ls_goodness_of_fit_ref   1.208
_refine_ls_hydrogen_treatment    undef
_refine_ls_matrix_type           full
_refine_ls_number_parameters     93
_refine_ls_number_reflns         1904
_refine_ls_number_restraints     1
_refine_ls_restrained_S_all      1.208
_refine_ls_R_factor_all          0.0175
_refine_ls_R_factor_gt           0.0167
_refine_ls_shift/su_max          0.002
_refine_ls_shift/su_mean         0.000
_refine_ls_structure_factor_coef Fsqd
_refine_ls_weighting_details
'w=1/[\s^2^(Fo^2^)+(0.0045P)^2^+2.0021P] where P=(Fo^2^+2Fc^2^)/3'
_refine_ls_weighting_scheme      calc
_refine_ls_wR_factor_gt          0.0391
_refine_ls_wR_factor_ref         0.0395
_reflns_Friedel_coverage         0.821
_reflns_Friedel_fraction_full    1.000
_reflns_Friedel_fraction_max     0.998
_reflns_number_gt                1868
_reflns_number_total             1904
_reflns_threshold_expression     'I > 2\s(I)'
_cod_data_source_file            d1dt00845e2.cif
_cod_data_source_block           LaSiP3_Pna21
_cod_depositor_comments
'Adding full bibliography for 7707082--7707086.cif.'
_cod_database_code               7707084
_shelx_shelxl_version_number     2014/7
_shelx_space_group_comment
;
The symmetry employed for this shelxl refinement is uniquely defined
by the following loop, which should always be used as a source of
symmetry information in preference to the above space-group names.
They are only intended as comments.
;
_shelx_estimated_absorpt_t_min   0.120
_shelx_estimated_absorpt_t_max   0.511
_shelx_res_file
;

    shape.res created by SHELXL-2014/7


TITL Pna21 in Pna2(1)
CELL 0.71073   5.90780  25.43820   5.73980  90.0000  90.0000  90.0000
ZERR    8.00   0.00030   0.00100   0.00020   0.0000   0.0000   0.0000
LATT -1
SYMM -X, -Y, 0.5+Z
SYMM 0.5+X, 0.5-Y, Z
SYMM 0.5-X, 0.5+Y, 0.5+Z
SFAC SI P LA
UNIT 8 24 8
TEMP -174.160

L.S. 8
list 4
BOND
acta
twin
size .070 .096 .332
FMAP 2
PLAN -20
WGHT    0.004500    2.002100
EXTI    0.001137
BASF   0.32838
FVAR       0.06610
LA1   3    0.529139    0.401371    0.937318    11.00000    0.00153    0.00438 =
         0.00383    0.00022    0.00045    0.00021
LA2   3    1.027573    0.410708    0.436306    11.00000    0.00181    0.00510 =
         0.00400   -0.00066    0.00059   -0.00023
P1    2    0.982706    0.288490    0.464640    11.00000    0.00303    0.00534 =
         0.00475   -0.00065    0.00010    0.00050
P2    2    0.521863    0.371770    1.439417    11.00000    0.00303    0.00569 =
         0.00429    0.00047    0.00118    0.00045
P3    2    0.315242    0.497713    0.733602    11.00000    0.00366    0.00430 =
         0.00519   -0.00008    0.00130   -0.00124
P4    2    0.032952    0.375817    0.938534    11.00000    0.00286    0.00510 =
         0.00476   -0.00108    0.00069   -0.00033
P5    2    0.591412    0.283426    0.967136    11.00000    0.00254    0.00569 =
         0.00476   -0.00043   -0.00067   -0.00023
SI1   1    0.620301    0.290712    0.357974    11.00000    0.00373    0.00484 =
         0.00608    0.00010    0.00000   -0.00027
SI2   1    0.949899    0.294130    0.854642    11.00000    0.00309    0.00498 =
         0.00449    0.00014   -0.00009   -0.00007
P6    2    0.685109    0.502114    0.633841    11.00000    0.00378    0.00743 =
         0.00672    0.00039   -0.00196    0.00070
HKLF 4

REM  Pna21 in Pna2(1)
REM R1 =  0.0167 for    1868 Fo > 4sig(Fo)  and  0.0175 for all    1904 data
REM     93 parameters refined using      1 restraints

END

WGHT      0.0000      2.0615

REM Highest difference peak  0.749,  deepest hole -1.222,  1-sigma level  0.174
Q1    1   0.5166  0.3708  0.9414  11.00000  0.05    0.75
Q2    1   0.8506  0.4993  1.2227  11.00000  0.05    0.73
Q3    1   0.5347  0.4322  0.9398  11.00000  0.05    0.69
Q4    1   1.0272  0.4412  0.4292  11.00000  0.05    0.60
Q5    1   1.1384  0.4969  0.1471  11.00000  0.05    0.55
Q6    1   0.7239  0.5011  0.7989  11.00000  0.05    0.54
Q7    1   0.5762  0.2870  1.1481  11.00000  0.05    0.53
Q8    1   1.0282  0.3822  0.4852  11.00000  0.05    0.50
Q9    1   1.0192  0.3828  0.4269  11.00000  0.05    0.49
Q10   1   0.2951  0.4622  0.6959  11.00000  0.05    0.48
Q11   1   0.4415  0.4061  0.5448  11.00000  0.05    0.47
Q12   1   0.9343  0.2816  0.0299  11.00000  0.05    0.46
Q13   1   0.9703  0.2889  0.6849  11.00000  0.05    0.45
Q14   1   0.7981  0.2919  0.3572  11.00000  0.05    0.44
Q15   1   0.3985  0.4020  0.8488  11.00000  0.05    0.42
Q16   1   0.9521  0.2880  0.3439  11.00000  0.05    0.42
Q17   1   0.3362  0.3907  0.6962  11.00000  0.05    0.42
Q18   1   0.2975  0.4671  1.1704  11.00000  0.05    0.42
Q19   1   0.6898  0.2600  0.6863  11.00000  0.05    0.41
Q20   1   1.0626  0.4434  0.5879  11.00000  0.05    0.40
;
_shelx_res_checksum              97437
_shelx_hkl_file
;
   0   0   1   -1.17    0.02
   0   0  -1   -1.16    0.02
   0   0  -1   -1.19    0.03
   0   0  -1   -1.14    0.02
   0   0   1   -1.18    0.02
   0   0   1   -1.11    0.03
   0   0   2  809.51   27.84
   0   0   2  758.03   27.86
   0   0  -3   -0.37    0.06
   0   0  -3   -0.37    0.08
   0   0  -3   -0.42    0.06
   0   0  -4  567.94   20.11
   0   0  -4  582.75   20.10
   0   0  -4  546.49   20.14
   0   0  -5    0.32    0.13
   0   0  -5    0.03    0.16
   0   0  -5    0.19    0.11
   0   0  -6  272.97    9.49
   0   0  -6  254.61    9.46
   0   0  -7    0.21    0.24
   0   0  -7   -0.07    0.32
  -1   0   0    0.02    0.03
   1   0   0    0.01    0.02
  -1   0   0    0.01    0.03
   1   0   0   -0.02    0.02
  -1   0  -1    0.09    0.05
  -1   0   1    0.06    0.05
  -1   0  -1    0.11    0.03
   1   0  -1    0.09    0.04
   1   0  -1    0.04    0.03
   1   0   1   -0.02    0.04
  -1   0  -1   -0.01    0.04
  -1   0   1    0.14    0.05
   1   0   1    0.10    0.05
   1   0   1    0.06    0.03
   1   0   2   -0.60    0.05
  -1   0  -2   -0.56    0.06
   1   0  -2   -0.56    0.05
   1   0   2   -0.69    0.04
  -1   0  -2   -0.60    0.05
   1   0  -2   -0.41    0.07
  -1   0   2   -0.58    0.07
  -1   0  -2   -0.54    0.05
   1   0   3    0.35    0.13
   1   0  -3    0.40    0.12
  -1   0  -3    0.81    0.13
  -1   0  -4   -0.03    0.11
  -1   0  -4    0.04    0.09
  -1   0  -4    0.09    0.08
   1   0  -4    0.15    0.12
  -1   0  -5    0.07    0.11
   1   0  -5    0.07    0.13
   1   0  -5    0.68    0.19
  -1   0  -5    0.13    0.16
  -1   0  -6    0.22    0.20
  -1   0  -6    0.20    0.16
   1   0  -6   -0.32    0.21
  -1   0  -6    0.31    0.18
   1   0  -6    0.19    0.17
  -1   0  -7    0.30    0.22
   1   0  -7    1.82    0.37
  -1   0  -7    0.68    0.30
  -2   0   0  930.80   33.91
  -2   0   0  896.80   33.35
  -2   0  -1    7.88    0.34
  -2   0  -1    7.98    0.33
  -2   0  -1    8.07    0.35
  -2   0   1    8.11    0.33
   2   0  -1    7.87    0.33
  -2   0  -2  899.43   34.41
  -2   0   2  984.47   34.29
  -2   0   2  968.93   34.33
  -2   0   2  937.71   33.95
  -2   0  -2  875.74   34.09
  -2   0  -2  853.81   33.99
  -2   0   2  961.40   33.94
  -2   0  -2  912.77   34.95
  -2   0   2  953.80   34.05
  -2   0   2  969.33   34.02
  -2   0   2 1000.00   34.77
  -2   0   2  989.16   34.83
  -2   0  -3   42.82    1.52
  -2   0  -3   40.92    1.58
  -2   0  -3   40.91    1.55
   2   0  -3   42.71    1.56
  -2   0   3   42.26    1.53
  -2   0   4  433.98   14.84
  -2   0  -4  399.72   14.91
   2   0  -4  419.31   14.88
   2   0  -5   11.83    0.51
  -2   0  -5   11.53    0.56
  -2   0  -5   12.29    0.52
   2   0  -5   10.83    0.57
  -2   0  -6  215.37    8.07
  -2   0  -6  231.42    8.03
  -2   0  -7   13.35    0.72
  -2   0  -7   14.19    0.68
  -3   0   0   -0.13    0.07
  -3   0   0   -0.10    0.06
  -3   0   1   -0.14    0.07
  -3   0  -1   -0.17    0.06
  -3   0  -1    0.06    0.08
  -3   0  -2   -0.12    0.06
  -3   0  -2   -0.01    0.09
  -3   0   2   -0.11    0.07
  -3   0  -2   -0.02    0.10
  -3   0  -3   -0.14    0.07
  -3   0   3   -0.12    0.08
  -3   0  -4    0.18    0.13
  -3   0  -4    0.16    0.15
  -3   0  -5    0.53    0.21
  -3   0  -5    0.33    0.15
  -3   0  -6    0.33    0.22
  -3   0  -6    0.05    0.23
  -4   0   0  282.29   10.14
  -4   0   0  285.60   10.12
  -4   0  -1    8.89    0.39
  -4   0   1    8.98    0.40
  -4   0  -1    8.71    0.40
  -4   0  -2  282.15   10.11
  -4   0  -2  280.09   10.10
  -4   0   2  286.69   10.10
  -4   0  -2  282.30   10.13
  -4   0   3   10.57    0.47
  -4   0  -3   10.75    0.51
  -4   0  -3   11.26    0.47
  -4   0  -3   10.66    0.49
  -4   0  -3   10.78    0.46
  -4   0  -4  224.51    8.40
  -4   0  -4  229.49    8.37
  -4   0   4  237.94    8.33
  -4   0  -4  239.68    8.32
  -4   0  -5   37.53    1.52
  -4   0   5   38.46    1.42
  -4   0  -5   37.17    1.47
  -4   0  -6  155.92    5.61
  -4   0  -6  151.25    5.65
  -5   0   0   -0.11    0.12
  -5   0   0    0.22    0.12
  -5   0  -1   -0.15    0.13
  -5   0  -1    0.02    0.11
  -5   0   1   -0.09    0.11
  -5   0  -2    0.07    0.15
  -5   0  -2    0.08    0.11
  -5   0   2   -0.06    0.11
  -5   0  -2    0.09    0.14
  -5   0  -3    0.42    0.18
  -5   0  -3    0.16    0.14
  -5   0  -3    0.17    0.17
  -5   0  -3    0.30    0.17
  -5   0   3   -0.03    0.14
  -5   0  -4    0.16    0.18
  -5   0  -4   -0.35    0.19
  -5   0   4    0.26    0.16
  -5   0  -4   -0.11    0.13
  -5   0  -5    0.60    0.24
  -5   0  -5    0.47    0.26
  -5   0   5    0.42    0.21
  -6   0   0  116.45    4.30
  -6   0   0  119.47    4.27
  -6   0  -1    0.31    0.17
  -6   0  -1    0.31    0.14
  -6   0  -1    0.33    0.18
  -6   0   1    0.62    0.15
  -6   0   2   37.04    1.44
  -6   0  -2   37.03    1.47
  -6   0  -2   38.09    1.45
  -6   0  -2   36.70    1.44
  -6   0   3    6.50    0.40
  -6   0  -3    6.92    0.45
  -6   0  -3    6.60    0.40
  -6   0  -3    6.44    0.39
  -6   0  -3    7.35    0.44
  -6   0  -4   75.30    2.71
  -6   0   4   74.59    2.73
  -6   0  -4   70.84    2.80
  -6   0  -4   72.46    2.77
  -7   0   0    0.21    0.19
  -7   0   0    0.17    0.20
  -7   0  -1    0.07    0.24
  -7   0  -1    0.15    0.21
  -7   0   1    0.23    0.19
  -7   0  -1    0.01    0.18
  -7   0  -2    0.15    0.24
  -7   0   2   -0.04    0.21
  -7   0  -2    0.17    0.27
  -7   0  -2    0.17    0.19
  -7   0  -3    0.10    0.22
  -7   0  -3   -0.12    0.26
  -7   0  -3    0.65    0.28
  -7   0   3    0.20    0.24
  -7   0  -3    0.40    0.29
   0  -1   1    0.43    0.04
   0  -1  -1    0.38    0.04
   0   1  -1    0.33    0.04
   0   1   1    0.33    0.05
   0  -1   1    0.43    0.03
   0  -1  -1    0.44    0.05
   0   1  -1    0.43    0.05
   0   1  -1    0.35    0.04
   0  -1  -1    0.33    0.04
   0  -1   1    0.35    0.04
   0   1   1    0.39    0.04
   0   1   1    0.36    0.04
   0  -1  -2   -0.10    0.04
   0   1   2   -0.05    0.05
   0  -1   2   -0.07    0.05
   0   1  -2    0.01    0.04
   0  -1   2   -0.06    0.05
   0   1  -2   -0.03    0.04
   0   1   2   -0.05    0.05
   0  -1  -2    0.03    0.05
   0  -1  -2   -0.02    0.06
   0  -1   2   -0.07    0.06
   0   1  -2    0.07    0.06
   0   1  -3    0.08    0.06
   0   1  -3    0.12    0.09
   0  -1  -3    0.06    0.09
   0  -1  -3    0.24    0.08
   0   1  -3    0.08    0.06
   0  -1  -3    0.03    0.06
   0  -1  -4    0.10    0.09
   0  -1  -4    0.32    0.10
   0   1  -4   -0.14    0.09
   0   1  -5    0.14    0.11
   0   1  -5    0.10    0.17
   0  -1  -5    0.22    0.11
   0  -1  -5    0.00    0.12
   0  -1  -5    0.28    0.15
   0  -1  -6    1.94    0.24
   0  -1  -7    0.17    0.28
   0   1  -7    0.33    0.32
   0  -1  -7    0.06    0.23
  -1   1   0    4.03    0.16
   1  -1   0    3.92    0.16
  -1  -1   0    4.16    0.16
   1  -1   0    4.07    0.16
  -1  -1   0    4.03    0.16
  -1   1   0    4.17    0.16
  -1   1   0    4.06    0.16
   1   1   0    3.97    0.16
   1   1   0    4.06    0.16
  -1  -1  -1    1.80    0.09
   1  -1   1    1.39    0.10
  -1   1   1    1.70    0.11
  -1   1   1    1.55    0.09
   1   1  -1    1.62    0.08
  -1  -1  -1    1.65    0.09
  -1  -1  -1    1.61    0.08
   1  -1   1    1.66    0.09
  -1  -1  -1    1.64    0.10
   1   1   1    1.56    0.10
   1   1   1    1.71    0.10
  -1  -1   1    1.69    0.09
   1   1   1    1.53    0.08
  -1   1  -1    1.55    0.08
  -1   1  -1    1.48    0.09
  -1   1  -1    1.48    0.10
  -1  -1   1    1.81    0.10
   1  -1  -1    1.64    0.09
   1   1  -2    5.96    0.25
  -1  -1  -2    6.17    0.27
  -1  -1  -2    6.32    0.25
   1   1  -2    6.03    0.26
  -1  -1  -2    6.02    0.26
   1  -1   2    6.13    0.24
  -1  -1   2    6.00    0.26
   1  -1  -2    6.28    0.26
   1  -1  -2    6.22    0.27
  -1   1  -2    5.82    0.26
   1   1   2    6.12    0.23
  -1   1  -2    5.69    0.25
  -1  -1  -3   35.40    1.30
  -1  -1  -3   36.31    1.29
   1   1  -3   36.20    1.30
  -1  -1  -3   35.65    1.32
   1   1  -3   35.91    1.28
   1  -1   3   33.40    1.27
   1  -1  -3   35.39    1.30
   1   1   3   33.12    1.26
  -1   1  -3   34.25    1.30
  -1   1  -3   34.81    1.28
  -1  -1  -4    0.12    0.12
  -1  -1  -4    0.27    0.09
   1   1  -4    0.20    0.14
   1   1  -4    0.14    0.09
  -1  -1  -4    0.13    0.09
  -1   1  -4    0.13    0.08
  -1   1  -4    0.09    0.09
   1  -1  -4    0.19    0.10
  -1   1  -4    0.13    0.12
   1  -1  -4    0.31    0.13
   1   1  -5    1.89    0.29
   1   1  -5    1.46    0.18
  -1   1  -5    1.61    0.16
  -1   1  -5    1.74    0.22
  -1  -1  -6    0.53    0.21
   1   1  -6    0.03    0.16
  -1  -1  -6    0.19    0.16
   1   1  -6   -0.09    0.22
  -1  -1  -6    0.26    0.18
   1  -1  -6    0.06    0.21
   1  -1  -6   -0.05    0.17
  -1   1  -6    0.41    0.20
  -1   1  -6    0.28    0.17
  -1  -1  -7   17.94    0.82
   1   1  -7   11.45    0.68
  -1  -1  -7   14.72    0.74
  -1   1  -7   11.76    0.65
  -1   1  -7   11.81    0.58
   1  -1  -7   17.53    0.84
   1  -1  -7   16.72    0.74
   2   1   0   88.74    3.17
  -2  -1   0   88.48    3.19
   2  -1   0   89.89    3.18
  -2   1   0   88.69    3.18
  -2   1   0   87.89    3.17
  -2  -1   0   88.39    3.18
  -2   1   0   89.11    3.17
  -2  -1  -1    1.67    0.11
   2   1  -1    1.31    0.10
  -2   1   1    1.39    0.10
  -2  -1  -1    1.49    0.11
  -2  -1  -1    1.53    0.10
  -2   1  -1    1.61    0.11
   2  -1  -1    1.37    0.11
  -2  -1   1    1.44    0.10
  -2   1  -1    1.41    0.10
  -2  -1  -2   57.80    2.12
  -2   1   2   59.23    2.09
  -2  -1  -2   58.32    2.11
  -2  -1  -2   57.72    2.13
  -2  -1  -2   59.16    2.10
  -2  -1   2   57.44    2.10
   2  -1  -2   59.64    2.12
  -2   1  -2   57.44    2.12
  -2   1  -2   58.18    2.09
  -2   1  -2   56.94    2.10
  -2  -1  -3    4.90    0.26
  -2   1   3    3.89    0.20
   2   1  -3    4.36    0.22
  -2  -1  -3    5.12    0.23
  -2  -1  -3    4.95    0.20
  -2  -1  -3    4.73    0.25
  -2   1  -3    4.23    0.20
  -2   1  -3    4.50    0.19
   2  -1  -3    4.49    0.24
  -2   1  -3    4.58    0.23
  -2   1  -3    4.78    0.25
  -2  -1   3    4.20    0.21
  -2  -1  -4   24.95    0.95
  -2   1   4   24.89    0.92
  -2  -1  -4   25.91    1.02
   2   1  -4   25.26    0.97
   2  -1  -4   25.81    0.99
  -2   1  -4   24.08    1.00
  -2  -1   4   25.68    0.94
  -2   1  -4   26.18    1.00
  -2  -1  -5    4.36    0.32
   2   1  -5    3.77    0.35
  -2  -1  -5    4.41    0.29
   2  -1  -5    4.36    0.28
   2  -1  -5    4.72    0.35
  -2   1  -5    4.50    0.29
  -2   1  -5    4.41    0.32
  -2  -1  -6   12.50    0.58
  -2  -1  -6   12.48    0.62
  -2   1  -6   18.53    0.83
   2  -1  -6   12.27    0.57
   2  -1  -6   11.22    0.65
  -2  -1  -7    0.43    0.30
  -2  -1  -7    0.51    0.25
  -2   1  -7    1.41    0.28
  -2   1  -7    1.35    0.31
  -3  -1   0   41.39    1.51
  -3   1   0   41.43    1.50
  -3   1   0   40.22    1.49
  -3  -1   0   41.43    1.52
  -3  -1  -1   69.49    2.56
  -3   1   1   69.69    2.52
  -3  -1  -1   70.74    2.55
  -3  -1   1   71.67    2.56
  -3   1  -1   69.39    2.52
  -3   1  -1   69.75    2.52
  -3  -1  -2    4.90    0.25
  -3  -1  -2    4.86    0.23
  -3   1   2    4.91    0.23
  -3  -1  -2    4.89    0.26
  -3   1  -2    4.89    0.23
  -3   1  -2    4.60    0.25
  -3  -1   2    5.06    0.24
  -3   1  -2    4.87    0.26
  -3  -1  -3   29.55    1.14
  -3  -1  -3   30.81    1.12
  -3   1   3   30.59    1.14
  -3   1  -3   30.84    1.14
  -3  -1   3   29.96    1.12
  -3  -1  -4    1.97    0.18
  -3   1   4    1.98    0.17
  -3  -1  -4    2.55    0.24
  -3  -1  -4    1.90    0.21
  -3  -1   4    2.04    0.17
  -3   1  -4    1.98    0.22
  -3   1  -4    2.04    0.23
  -3  -1  -5   39.14    1.55
  -3  -1  -5   39.06    1.51
  -3   1   5   39.83    1.45
  -3   1  -5   39.06    1.55
  -3   1  -5   38.79    1.51
  -3  -1   5   40.18    1.46
  -3  -1  -6    0.65    0.22
  -3  -1  -6    0.82    0.26
  -3   1  -6    0.81    0.22
  -3   1  -6    0.10    0.24
  -4  -1   0   67.31    2.44
  -4  -1   0   66.29    2.42
  -4   1   0   67.94    2.47
  -4   1   0   67.47    2.45
  -4  -1  -1    3.98    0.23
  -4   1   1    4.15    0.23
  -4  -1  -1    3.94    0.23
  -4   1  -1    3.71    0.23
  -4   1  -1    4.46    0.24
  -4  -1   1    4.26    0.23
  -4   1   2   70.10    2.55
  -4  -1  -2   71.87    2.60
  -4  -1  -2   69.29    2.57
  -4  -1  -2   69.55    2.56
  -4   1  -2   70.13    2.58
  -4   1  -2   69.88    2.55
  -4   1  -2   69.73    2.56
  -4  -1   2   70.36    2.56
  -4   1   3   17.78    0.72
  -4  -1  -3   18.37    0.78
  -4  -1  -3   18.49    0.76
  -4  -1  -3   19.01    0.74
  -4  -1  -3   18.29    0.73
  -4   1  -3   18.43    0.72
  -4   1  -3   18.53    0.74
  -4   1  -3   17.61    0.71
  -4  -1   3   18.01    0.73
  -4   1  -3   17.90    0.76
  -4  -1  -4   68.25    2.60
  -4  -1  -4   71.66    2.55
  -4   1   4   70.22    2.54
  -4  -1  -4   67.49    2.57
  -4  -1  -4   69.75    2.52
  -4  -1   4   69.54    2.53
  -4   1  -4   68.76    2.61
  -4   1  -4   70.92    2.53
  -4   1  -4   68.38    2.58
  -4  -1  -5   15.85    0.77
  -4  -1  -5   16.30    0.73
  -4   1   5   16.09    0.68
  -4   1  -5   16.15    0.72
  -4  -1   5   16.91    0.68
  -4   1  -5   16.56    0.77
  -4  -1  -6   47.71    1.91
  -4  -1  -6   47.61    1.87
  -4   1  -6   50.07    1.92
  -4   1  -6   49.51    1.98
  -5  -1   0    4.42    0.27
  -5  -1   0    4.53    0.27
  -5   1   0    4.26    0.27
  -5   1   0    4.51    0.27
  -5  -1  -1  104.57    3.79
  -5  -1  -1  105.11    3.78
  -5   1   1  102.45    3.69
  -5  -1  -1  103.79    3.77
  -5   1   1  100.90    3.72
  -5  -1   1  102.73    3.78
  -5   1  -1  103.99    3.73
  -5   1  -1  102.58    3.72
  -5  -1  -2   12.77    0.58
  -5   1   2   12.11    0.55
  -5  -1  -2   12.79    0.56
  -5  -1  -2   12.30    0.54
  -5   1  -2   12.64    0.56
  -5   1  -2   12.69    0.55
  -5   1  -2   12.63    0.58
  -5  -1   2   12.16    0.54
  -5   1   3   48.22    1.81
  -5  -1  -3   49.72    1.85
  -5  -1  -3   48.76    1.82
  -5  -1  -3   49.58    1.82
  -5  -1  -3   48.59    1.88
  -5   1  -3   47.49    1.80
  -5   1  -3   47.63    1.85
  -5   1  -3   48.95    1.79
  -5  -1   3   47.50    1.83
  -5   1  -3   48.28    1.82
  -5  -1  -4    0.20    0.14
  -5  -1  -4    0.14    0.17
  -5   1   4   -0.01    0.16
  -5  -1  -4    0.60    0.21
  -5  -1  -4    0.33    0.28
  -5   1  -4    0.21    0.15
  -5  -1   4    0.22    0.17
  -5   1  -4    0.42    0.22
  -5   1  -4    0.02    0.18
  -5  -1  -5   59.07    2.27
  -5   1   5   59.58    2.21
  -5  -1  -5   59.76    2.32
  -5  -1   5   59.92    2.22
  -5   1  -5   59.09    2.31
  -5   1  -5   59.44    2.27
  -6  -1   0   26.28    1.01
  -6   1   0   25.33    1.05
  -6  -1   0   24.80    1.03
  -6   1   0   26.87    1.03
  -6  -1  -1   11.78    0.57
  -6  -1  -1   11.97    0.55
  -6   1   1   11.71    0.56
  -6  -1  -1   12.02    0.55
  -6  -1   1   12.12    0.55
  -6   1  -1   12.14    0.57
  -6   1  -1   12.54    0.56
  -6   1   2   43.85    1.65
  -6  -1  -2   42.85    1.66
  -6  -1  -2   43.50    1.70
  -6  -1  -2   44.39    1.67
  -6   1  -2   43.57    1.68
  -6  -1   2   43.24    1.67
  -6   1  -2   43.22    1.66
  -6   1  -2   41.59    1.64
  -6  -1  -3    7.79    0.49
  -6  -1  -3    8.26    0.47
  -6   1   3    8.21    0.46
  -6  -1  -3    8.03    0.44
  -6  -1  -3    8.25    0.43
  -6   1  -3    7.99    0.50
  -6  -1   3    7.88    0.45
  -6   1  -3    8.94    0.49
  -6   1  -3    7.85    0.44
  -6   1  -3    8.56    0.47
  -6  -1  -4   67.89    2.52
  -6  -1  -4   67.96    2.58
  -6   1   4   69.24    2.54
  -6  -1  -4   66.47    2.62
  -6   1  -4   68.31    2.51
  -6   1  -4   65.81    2.61
  -6   1  -4   67.97    2.57
  -6  -1   4   70.20    2.55
  -7  -1   0    1.10    0.22
  -7   1   0    0.66    0.20
  -7  -1   0    1.10    0.22
  -7   1   0    1.01    0.23
  -7  -1  -1   68.72    2.51
  -7   1   1   63.83    2.48
  -7  -1  -1   66.68    2.53
  -7  -1  -1   66.16    2.55
  -7   1  -1   68.72    2.47
  -7   1  -1   66.07    2.48
  -7   1  -1   64.44    2.50
  -7  -1   1   67.27    2.54
  -7  -1  -2    0.24    0.20
  -7   1   2    0.52    0.23
  -7  -1  -2    0.39    0.23
  -7  -1  -2    0.51    0.26
  -7   1  -2    0.30    0.20
  -7   1  -2    0.78    0.26
  -7  -1   2    0.63    0.23
  -7   1  -2    0.46    0.27
  -7   1   3   97.22    3.60
  -7  -1  -3   99.36    3.77
  -7  -1  -3  102.68    3.73
  -7  -1  -3   99.70    3.69
  -7  -1  -3   99.81    3.69
  -7   1  -3  101.48    3.62
  -7  -1   3   99.96    3.71
  -7   1  -3   93.49    3.63
  -7   1  -3   97.80    3.59
  -7   1  -3   96.27    3.65
   0  -2   1   -0.66    0.02
   0  -2  -1   -0.61    0.03
   0  -2  -1   -0.65    0.02
   0   2  -1   -0.65    0.03
   0   2   1   -0.66    0.03
   0   2   1   -0.63    0.03
   0   2  -1   -0.68    0.02
   0   2   1   -0.67    0.04
   0  -2   1   -0.64    0.03
   0  -2   1   -0.69    0.02
   0  -2   1   -0.70    0.03
   0  -2  -1   -0.69    0.03
   0   2   2   12.52    0.48
   0  -2  -2   12.07    0.48
   0  -2   2   12.97    0.48
   0   2   2   13.33    0.48
   0  -2   2   13.49    0.48
   0   2  -2   11.47    0.47
   0   2  -2   12.25    0.47
   0  -2   2   12.52    0.49
   0  -2  -2   11.99    0.49
   0  -2  -2   12.02    0.50
   0   2  -2   12.00    0.48
   0  -2  -3   -0.34    0.06
   0   2  -3   -0.30    0.05
   0  -2   3   -0.28    0.08
   0   2  -3   -0.20    0.08
   0  -2  -3   -0.12    0.08
   0  -2  -3   -0.11    0.06
   0  -2  -4   45.36    1.78
   0  -2  -4   48.86    1.75
   0   2  -4   46.70    1.71
   0   2  -4   47.52    1.75
   0  -2  -4   48.85    1.74
   0   2  -5   -0.02    0.11
   0  -2  -5    0.04    0.11
   0   2  -5    0.16    0.16
   0  -2  -5    0.07    0.15
   0  -2  -5    0.11    0.12
   0  -2  -6   61.57    2.31
   0   2  -6   63.68    2.31
   0  -2  -6   63.11    2.38
   0  -2  -6   64.08    2.32
   0   2  -6   62.85    2.38
   0  -2  -7   -0.21    0.27
   0   2  -7   -0.69    0.30
   0  -2  -7    0.10    0.22
  -1  -2   0    5.40    0.23
   1   2   0    5.19    0.23
   1  -2   0    5.59    0.23
  -1   2   0    5.12    0.23
  -1  -2   0    5.43    0.23
   1  -2   0    5.50    0.23
  -1   2   0    5.22    0.23
   1   2   0    5.15    0.22
  -1   2   0    5.37    0.23
   1  -2   0    5.15    0.23
   1  -2   1  291.87   10.53
  -1   2   1  292.20   10.49
  -1   2   1  293.78   10.50
   1   2  -1  308.21   10.48
  -1  -2  -1  285.26   10.53
  -1   2  -1  293.28   10.49
   1   2   1  297.32   10.49
  -1   2  -1  286.48   10.49
  -1  -2   1  311.04   10.53
  -1   2  -1  293.41   10.48
   1   2   1  303.21   10.48
   1   2   1  285.71   10.49
   1   2  -2    2.35    0.14
  -1  -2  -2    2.62    0.15
   1   2  -2    2.46    0.15
   1  -2   2    2.35    0.13
  -1  -2  -2    2.70    0.15
  -1  -2  -2    2.56    0.16
  -1  -2   2    2.50    0.15
   1   2   2    2.29    0.13
   1  -2  -2    2.39    0.14
  -1   2  -2    2.26    0.15
  -1   2  -2    2.34    0.14
  -1  -2   2    2.53    0.12
   1  -2  -2    2.60    0.16
   1   2   2    2.61    0.15
  -1  -2  -3  245.71    8.77
   1  -2   3  252.57    8.75
   1   2  -3  243.01    8.64
   1   2  -3  234.51    8.65
  -1  -2  -3  242.87    8.79
   1   2   3  252.77    8.62
  -1   2  -3  242.57    8.66
   1  -2  -3  244.07    8.79
  -1   2  -3  238.16    8.64
   1  -2  -3  243.87    8.78
   1   2  -4    0.36    0.12
   1   2  -4    0.43    0.10
  -1  -2  -4    0.39    0.10
  -1  -2  -4    0.27    0.10
  -1  -2  -4    0.44    0.12
  -1   2  -4    0.31    0.13
  -1   2  -4    0.21    0.09
   1  -2  -4    0.31    0.11
   1  -2  -4    0.42    0.14
  -1  -2  -5  172.36    6.20
  -1  -2  -5  174.17    6.26
   1   2  -5  148.48    5.95
   1   2  -5  173.37    5.88
  -1  -2  -5  179.00    6.22
  -1   2  -5  170.75    5.92
   1  -2  -5  167.61    6.25
  -1   2  -5  162.54    5.91
  -1  -2  -6    0.55    0.22
  -1  -2  -6    0.79    0.18
  -1  -2  -6    0.38    0.17
   1   2  -6    0.18    0.23
  -1   2  -6    0.58    0.18
   1  -2  -6    0.49    0.24
   1  -2  -6    0.30    0.18
  -1   2  -6    0.40    0.22
  -1  -2  -7   96.06    3.57
  -1  -2  -7   97.31    3.50
  -1  -2  -7   94.81    3.53
  -1   2  -7   97.25    3.56
   1  -2  -7   98.71    3.51
  -1   2  -7   97.05    3.63
   1  -2  -7   90.51    3.57
  -2  -2   0    1.20    0.10
  -2   2   0    1.14    0.10
  -2   2   0    0.98    0.10
  -2  -2   0    1.16    0.10
   2   2   0    1.05    0.10
  -2   2   0    1.06    0.10
   2  -2   0    1.02    0.11
  -2  -2  -1    5.88    0.26
  -2   2   1    5.88    0.25
  -2  -2  -1    5.91    0.26
   2   2  -1    5.59    0.25
  -2  -2  -1    6.08    0.27
  -2   2  -1    6.07    0.26
  -2   2  -1    5.71    0.25
   2  -2  -1    5.96    0.26
  -2  -2   1    5.95    0.26
   2  -2  -1    5.80    0.26
  -2   2   2   46.61    1.66
  -2  -2  -2   46.26    1.71
  -2  -2  -2   47.00    1.69
  -2  -2  -2   45.12    1.72
   2   2  -2   48.00    1.65
  -2  -2  -2   46.30    1.70
  -2  -2   2   47.87    1.69
  -2   2  -2   44.75    1.66
  -2   2  -2   44.29    1.69
  -2   2  -2   44.84    1.67
   2  -2  -2   46.91    1.71
  -2  -2  -3   16.66    0.61
  -2   2   3   16.03    0.61
  -2  -2  -3   16.14    0.67
  -2  -2  -3   15.76    0.65
  -2  -2  -3   16.82    0.64
  -2   2  -3   15.80    0.64
   2  -2  -3   16.55    0.65
  -2   2  -3   15.87    0.66
  -2   2  -3   16.80    0.60
  -2   2  -3   15.88    0.60
  -2  -2   3   16.30    0.62
  -2  -2  -4   15.59    0.78
  -2  -2  -4   17.94    0.73
  -2  -2  -4   17.62    0.66
   2  -2  -4   17.05    0.70
  -2   2  -4   16.13    0.70
  -2   2  -4   17.18    0.73
  -2  -2   4   17.27    0.64
  -2  -2  -5   33.82    1.34
  -2  -2  -5   34.79    1.31
  -2  -2  -5   33.14    1.27
  -2   2  -5   35.53    1.34
  -2   2  -5   34.82    1.38
   2  -2  -5   35.32    1.31
   2  -2  -5   33.33    1.35
  -2  -2  -6   22.76    0.93
  -2  -2  -6   22.86    0.97
  -2  -2  -6   22.60    0.89
   2  -2  -6   22.45    0.93
   2  -2  -6   22.01    0.99
  -2   2  -6   21.97    0.97
  -2   2  -6   22.97    0.93
  -2  -2  -7    0.81    0.27
  -2  -2  -7    1.50    0.33
  -2   2  -7    1.08    0.34
  -2   2  -7    1.05    0.29
  -3  -2   0   11.13    0.44
  -3   2   0   11.24    0.45
  -3  -2   0   11.26    0.45
  -3   2   0   10.93    0.44
  -3  -2  -1  193.10    6.84
  -3  -2  -1  190.43    6.82
  -3   2   1  188.05    6.83
  -3  -2  -1  189.79    6.83
  -3   2  -1  194.52    6.83
  -3  -2   1  190.51    6.82
  -3   2  -1  190.68    6.83
  -3   2   2    4.81    0.24
  -3  -2  -2    4.75    0.25
  -3  -2  -2    5.28    0.27
  -3  -2  -2    4.90    0.24
  -3   2  -2    4.74    0.24
  -3   2  -2    5.14    0.27
  -3   2  -2    4.88    0.26
  -3  -2   2    4.90    0.24
  -3   2   3  147.72    5.25
  -3  -2  -3  132.93    5.08
  -3  -2  -3  148.29    5.06
  -3   2  -3  145.63    5.25
  -3  -2   3  142.77    5.06
  -3  -2  -4    0.32    0.14
  -3  -2  -4    0.33    0.14
  -3  -2  -4    0.41    0.18
  -3   2   4    0.23    0.11
   3  -2  -4    0.27    0.14
  -3  -2   4    0.40    0.11
  -3   2  -4    0.30    0.14
  -3   2  -4    0.27    0.16
  -3   2   5   90.55    3.14
  -3  -2  -5   85.41    3.20
  -3  -2  -5   85.48    3.15
  -3  -2  -5   85.48    3.24
   3  -2  -5   88.88    3.20
  -3  -2   5   90.63    3.15
  -3   2  -5   85.27    3.23
  -3   2  -5   85.04    3.19
  -3  -2  -6    1.11    0.22
  -3  -2  -6    1.15    0.28
  -3   2  -6    1.06    0.29
  -3   2  -6    1.30    0.23
  -4  -2   0   36.13    1.35
  -4  -2   0   37.24    1.37
  -4   2   0   37.19    1.38
  -4   2   0   36.36    1.36
  -4   2   1    1.61    0.16
  -4  -2  -1    1.51    0.17
  -4  -2  -1    1.85    0.17
  -4   2   1    1.65    0.16
  -4  -2  -1    1.60    0.15
  -4   2  -1    1.81    0.16
  -4   2  -1    2.12    0.18
  -4  -2   1    1.81    0.16
  -4   2   2   31.09    1.21
  -4  -2  -2   32.80    1.23
  -4  -2  -2   33.30    1.26
  -4  -2  -2   33.13    1.25
  -4   2  -2   32.07    1.22
  -4   2  -2   31.87    1.24
  -4   2  -2   32.99    1.21
  -4  -2   2   31.52    1.23
  -4  -2  -3   31.98    1.18
  -4  -2  -3   31.10    1.17
  -4   2   3   29.57    1.13
  -4  -2  -3   30.13    1.22
  -4  -2  -3   30.99    1.19
  -4   2  -3   30.64    1.13
  -4  -2   3   30.42    1.17
  -4   2  -3   29.84    1.18
  -4   2  -3   29.35    1.16
  -4   2  -3   29.94    1.13
  -4  -2  -4   15.03    0.69
  -4   2   4   13.21    0.61
  -4  -2  -4   15.73    0.61
  -4  -2  -4   16.53    0.67
  -4  -2  -4   15.53    0.68
  -4   2  -4   14.73    0.64
  -4   2  -4   15.23    0.59
  -4   2  -4   15.26    0.68
  -4  -2   4   14.34    0.63
  -4  -2  -5    5.44    0.37
  -4   2   5    4.86    0.33
  -4  -2  -5    6.01    0.43
  -4  -2   5    5.28    0.33
  -4   2  -5    4.87    0.35
  -4   2  -5    4.87    0.39
  -4  -2  -6   10.03    0.61
  -4  -2  -6    9.46    0.55
  -4   2  -6    7.86    0.55
  -4   2  -6    8.41    0.50
  -5   2   0    1.91    0.19
  -5   2   0    1.24    0.19
  -5  -2   0    1.45    0.18
  -5  -2   0    1.50    0.19
  -5  -2  -1   66.41    2.47
  -5  -2  -1   67.99    2.46
  -5   2   1   64.71    2.41
  -5  -2  -1   66.53    2.44
  -5   2  -1   65.40    2.41
  -5   2  -1   66.06    2.41
  -5  -2   1   65.61    2.46
  -5   2   2    0.81    0.15
  -5  -2  -2    0.87    0.17
  -5  -2  -2    0.78    0.15
  -5  -2  -2    1.02    0.21
  -5   2  -2    0.81    0.18
  -5   2  -2    0.65    0.16
  -5   2  -2    0.75    0.15
  -5  -2   2    0.78    0.15
  -5  -2  -3   47.01    1.78
  -5   2   3   46.65    1.76
  -5  -2  -3   46.51    1.81
  -5  -2  -3   47.44    1.75
  -5  -2  -3   47.63    1.75
  -5   2  -3   46.49    1.75
  -5   2  -3   47.43    1.74
  -5   2  -3   47.51    1.78
  -5  -2   3   45.87    1.76
  -5   2  -3   45.33    1.80
  -5   2   4    0.02    0.17
  -5  -2  -4    0.17    0.21
  -5  -2  -4    0.44    0.18
  -5  -2  -4    0.29    0.15
  -5  -2  -4    0.32    0.30
  -5   2  -4    0.57    0.24
  -5   2  -4    0.38    0.19
  -5   2  -4    0.13    0.15
  -5  -2   4    0.15    0.16
  -5  -2  -5   30.44    1.25
  -5   2   5   30.44    1.22
  -5  -2  -5   29.75    1.30
  -5   2  -5   32.46    1.42
  -5   2  -5   30.84    1.28
  -5  -2   5   31.42    1.21
  -6   2   0   40.64    1.52
  -6  -2   0   41.26    1.55
  -6   2   0   38.95    1.53
  -6  -2   0   40.97    1.58
  -6  -2  -1    2.85    0.28
  -6  -2  -1    2.80    0.24
  -6  -2  -1    3.01    0.28
  -6   2   1    2.65    0.25
  -6  -2   1    2.80    0.25
  -6   2  -1    2.80    0.28
  -6   2  -1    2.77    0.25
  -6  -2  -2    1.64    0.27
  -6  -2  -2    1.92    0.27
  -6   2   2    1.92    0.25
  -6  -2  -2    1.39    0.24
  -6   2  -2    1.74    0.25
  -6   2  -2    1.92    0.29
  -6  -2   2    2.13    0.25
  -6   2  -2    2.11    0.28
  -6   2   3    0.41    0.19
  -6  -2  -3    0.76    0.23
  -6  -2  -3    0.42    0.18
  -6  -2  -3    0.56    0.21
  -6  -2  -3    0.59    0.23
  -6   2  -3    0.32    0.19
  -6   2  -3    0.42    0.23
  -6   2  -3    1.11    0.26
  -6  -2   3    0.41    0.19
  -6   2  -3    0.38    0.21
  -6  -2  -4    8.84    0.64
  -6   2   4    8.95    0.51
  -6  -2  -4    8.67    0.54
  -6  -2  -4    8.88    0.47
  -6  -2  -4    9.80    0.58
  -6   2  -4    9.37    0.54
  -6  -2   4    9.34    0.50
  -6   2  -4    8.47    0.48
  -6   2  -4    9.25    0.57
  -7   2   0    0.06    0.18
  -7  -2   0    0.36    0.19
  -7  -2   0    0.08    0.20
  -7   2   0   -0.52    0.21
  -7   2   1    9.81    0.53
  -7  -2  -1    9.93    0.56
  -7  -2  -1   10.02    0.53
  -7  -2  -1   10.73    0.54
  -7   2  -1    9.90    0.55
  -7   2  -1   10.00    0.54
  -7  -2   1    9.50    0.54
  -7   2  -1    9.02    0.51
  -7   2   2    0.06    0.22
  -7  -2  -2   -0.10    0.22
  -7  -2  -2   -0.06    0.25
  -7  -2  -2    0.16    0.20
  -7   2  -2    0.08    0.25
  -7  -2   2    0.06    0.21
  -7   2  -2    0.48    0.24
  -7   2  -2   -0.24    0.18
  -7   2   3    8.32    0.53
  -7  -2  -3    8.79    0.50
  -7  -2  -3    8.90    0.55
  -7  -2  -3    8.65    0.54
  -7  -2  -3    8.62    0.57
  -7   2  -3    8.23    0.56
  -7  -2   3    7.66    0.51
  -7   2  -3    8.24    0.55
  -7   2  -3    8.54    0.49
   0   3   0   -0.48    0.02
   0   3   0   -0.44    0.02
   0  -3   0   -0.44    0.02
   0   3   0   -0.47    0.02
   0   3  -1   -0.84    0.03
   0  -3   1   -0.82    0.02
   0   3  -1   -0.82    0.02
   0   3   1   -0.76    0.04
   0  -3  -1   -0.84    0.03
   0   3   1   -0.78    0.05
   0   3   1   -0.77    0.03
   0   3  -1   -0.82    0.03
   0   3   1   -0.81    0.03
   0  -3   1   -0.83    0.03
   0  -3  -1   -0.79    0.04
   0  -3   1   -0.81    0.03
   0  -3  -1   -0.86    0.04
   0  -3  -2   -0.16    0.07
   0   3  -2   -0.22    0.06
   0   3   2   -0.35    0.07
   0  -3  -2   -0.19    0.04
   0   3  -2   -0.39    0.05
   0  -3   2   -0.29    0.05
   0  -3   2   -0.31    0.06
   0   3   2   -0.19    0.06
   0   3  -2   -0.20    0.04
   0  -3  -2   -0.22    0.06
   0   3  -3   -0.01    0.08
   0   3  -3    0.00    0.06
   0  -3  -3    0.08    0.09
   0  -3  -3   -0.03    0.06
   0  -3   3   -0.02    0.08
   0  -3  -3   -0.05    0.07
   0   3  -4    0.17    0.12
   0  -3  -4    0.19    0.11
   0   3  -4    0.13    0.08
   0  -3  -5    0.04    0.13
   0  -3  -5    0.19    0.11
   0  -3  -5    0.11    0.15
   0   3  -5   -0.15    0.11
   0  -3  -6    9.15    0.50
   0  -3  -7   -0.18    0.22
   0   3  -7   -0.12    0.32
   0  -3  -7    0.31    0.28
  -1  -3   0    1.69    0.11
   1   3   0    1.62    0.11
  -1   3   0    1.66    0.11
   1  -3   0    1.65    0.11
  -1  -3   0    1.58    0.11
  -1   3   0    1.58    0.11
  -1  -3   0    1.58    0.10
   1   3   0    1.56    0.10
  -1   3   0    1.51    0.10
   1  -3   0    1.49    0.11
   1  -3   1    4.09    0.19
  -1  -3  -1    4.38    0.20
  -1  -3  -1    4.25    0.18
  -1  -3  -1    4.62    0.19
  -1   3   1    4.04    0.20
  -1   3   1    3.96    0.19
   1   3  -1    4.03    0.18
  -1  -3  -1    4.01    0.19
   1  -3   1    3.87    0.20
  -1   3  -1    4.02    0.18
   1  -3  -1    4.17    0.19
   1   3   1    4.17    0.19
  -1   3  -1    4.00    0.19
   1   3   1    4.02    0.18
   1   3   1    3.92    0.19
  -1  -3   1    4.16    0.18
  -1  -3  -2   10.29    0.42
  -1  -3  -2   11.00    0.40
   1  -3   2   10.18    0.41
   1   3  -2   10.02    0.41
  -1  -3  -2    9.92    0.43
  -1  -3  -2   10.59    0.42
  -1   3  -2    9.91    0.41
  -1   3  -2   10.99    0.40
  -1   3  -2    9.84    0.42
   1  -3  -2   10.37    0.42
  -1  -3   2   10.47    0.40
  -1  -3   2   10.25    0.41
   1   3   2   10.43    0.40
   1   3   2    9.84    0.42
  -1   3  -2   10.13    0.39
   1  -3  -2   10.57    0.44
   1   3  -3    8.91    0.36
  -1  -3  -3    8.07    0.38
  -1  -3  -3    8.17    0.36
  -1  -3  -3    8.70    0.36
  -1   3  -3    7.82    0.36
   1  -3  -3    8.35    0.37
  -1   3  -3    8.26    0.38
   1  -3  -3    9.26    0.39
   1   3  -4    1.30    0.16
  -1  -3  -4    1.50    0.15
  -1  -3  -4    1.43    0.17
  -1  -3  -4    1.29    0.14
  -1   3  -4    1.27    0.18
  -1   3  -4    1.13    0.17
   1  -3  -4    1.47    0.19
   1  -3  -4    1.44    0.15
  -1  -3  -5   15.40    0.64
  -1  -3  -5   16.62    0.70
  -1  -3  -5   15.48    0.66
   1   3  -5   17.47    0.72
   1  -3  -5   16.78    0.70
  -1   3  -5   16.29    0.69
   1  -3  -5   16.21    0.67
  -1   3  -5   16.78    0.72
  -1  -3  -6    1.38    0.24
   1   3  -6    1.30    0.28
  -1  -3  -6    1.12    0.25
  -1   3  -6    1.25    0.26
   1  -3  -6    1.31    0.28
  -1   3  -6    1.57    0.25
   1  -3  -6    1.19    0.20
  -1  -3  -7    4.32    0.38
  -1  -3  -7    5.52    0.44
   1   3  -7    7.75    0.55
  -1  -3  -7    4.51    0.36
   1  -3  -7    5.88    0.49
  -1   3  -7    7.00    0.53
   1  -3  -7    4.27    0.37
   2   3   0   48.06    1.77
  -2   3   0   49.74    1.79
  -2   3   0   48.99    1.78
  -2  -3   0   50.55    1.82
  -2  -3   0   50.00    1.81
   2  -3   0   49.58    1.81
  -2   3   0   49.75    1.78
   2   3  -1    0.88    0.11
  -2  -3  -1    0.76    0.09
  -2   3   1    0.94    0.08
  -2  -3  -1    0.79    0.08
  -2  -3  -1    0.91    0.10
  -2   3   1    0.69    0.09
  -2  -3   1    0.77    0.09
  -2   3  -1    0.72    0.09
  -2   3  -1    0.71    0.08
   2  -3  -1    0.97    0.09
  -2   3  -1    0.73    0.10
  -2   3   2   47.78    1.73
  -2  -3  -2   49.48    1.81
  -2  -3  -2   48.96    1.82
  -2  -3  -2   48.67    1.83
  -2  -3  -2   50.29    1.80
   2   3  -2   50.29    1.72
  -2   3  -2   47.31    1.73
   2  -3  -2   50.71    1.82
  -2   3  -2   46.74    1.76
  -2  -3   2   48.49    1.80
  -2  -3   2   51.49    1.81
  -2   3  -2   46.73    1.75
  -2   3   3    2.40    0.15
  -2  -3  -3    2.84    0.14
  -2  -3  -3    2.80    0.20
  -2  -3  -3    2.74    0.19
  -2  -3  -3    3.21    0.19
  -2   3  -3    2.57    0.19
  -2  -3   3    2.64    0.15
  -2   3  -3    2.75    0.16
  -2   3  -3    2.72    0.20
  -2   3  -3    2.77    0.14
   2  -3  -3    2.67    0.19
  -2  -3  -4   39.56    1.52
  -2  -3  -4   40.25    1.50
  -2   3   4   38.98    1.31
  -2  -3  -4   40.49    1.47
  -2   3  -4   33.16    1.37
  -2  -3   4   38.98    1.45
  -2   3  -4   34.99    1.50
  -2  -3  -5    2.38    0.26
  -2  -3  -5    2.59    0.20
  -2  -3  -5    2.25    0.22
  -2   3  -5    2.73    0.25
   2  -3  -5    1.95    0.30
  -2   3  -5    2.52    0.27
   2  -3  -5    2.14    0.22
  -2  -3  -6   33.61    1.36
  -2  -3  -6   34.95    1.41
  -2  -3  -6   33.50    1.32
   2  -3  -6   36.68    1.37
  -2   3  -6   30.19    1.24
   2  -3  -6   36.17    1.43
  -2   3  -6   29.71    1.18
  -2  -3  -7    0.40    0.29
  -2  -3  -7    0.81    0.26
  -2   3  -7    0.77    0.27
  -2   3  -7    0.82    0.33
   2  -3  -7    0.74    0.29
  -3   3   0    7.18    0.32
  -3  -3   0    7.46    0.31
  -3   3   0    7.24    0.31
  -3  -3   0    7.32    0.32
  -3  -3  -1    0.90    0.11
  -3   3   1    0.60    0.11
  -3   3   1    0.92    0.11
  -3  -3  -1    1.06    0.12
  -3  -3  -1    1.02    0.13
  -3   3  -1    1.06    0.13
  -3   3  -1    0.83    0.11
  -3  -3   1    0.81    0.11
  -3  -3  -2   17.31    0.69
  -3  -3  -2   19.23    0.71
  -3   3   2   17.94    0.66
  -3  -3  -2   17.30    0.70
  -3  -3  -2   17.51    0.72
  -3  -3   2   17.93    0.69
  -3   3  -2   16.97    0.66
   3  -3  -2   18.04    0.71
  -3   3  -2   16.81    0.68
  -3   3  -2   16.65    0.69
  -3  -3  -3    4.87    0.26
  -3  -3  -3    4.24    0.28
  -3  -3  -3    4.30    0.21
  -3   3   3    3.86    0.22
  -3  -3  -3    3.93    0.29
  -3   3  -3    3.57    0.20
  -3  -3   3    4.05    0.22
  -3  -3  -4    5.01    0.32
  -3  -3  -4    4.82    0.29
  -3   3   4    4.60    0.25
  -3  -3  -4    4.65    0.28
  -3   3  -4    4.42    0.30
  -3  -3   4    4.95    0.25
  -3   3  -4    4.49    0.29
   3  -3  -4    4.94    0.29
  -3  -3  -5    1.76    0.21
  -3  -3  -5    2.35    0.28
   3  -3  -5    1.73    0.23
  -3   3  -5    0.76    0.18
  -3   3  -5    1.65    0.26
  -3  -3   5    1.26    0.19
  -3  -3  -6    7.29    0.49
  -3  -3  -6    7.84    0.46
  -3   3  -6    7.63    0.50
  -3   3  -6    7.24    0.45
  -4  -3   0  218.89    7.80
  -4   3   0  218.22    7.86
  -4   3   0  221.01    7.84
  -4  -3   0  218.36    7.82
  -4  -3  -1    1.77    0.15
  -4  -3  -1    1.84    0.18
  -4   3   1    2.00    0.16
  -4   3   1    1.64    0.16
  -4  -3  -1    2.01    0.17
  -4  -3   1    1.88    0.17
  -4   3  -1    1.92    0.17
  -4   3  -1    2.16    0.18
  -4  -3  -2  174.65    6.28
  -4  -3  -2  176.14    6.31
  -4   3   2  168.45    6.16
  -4  -3  -2  177.31    6.29
  -4  -3   2  172.62    6.28
  -4   3  -2  173.19    6.19
  -4   3  -2  173.18    6.17
  -4   3  -2  172.43    6.16
  -4  -3  -3    9.51    0.44
  -4  -3  -3    9.57    0.45
  -4  -3  -3    9.39    0.47
  -4   3   3    9.08    0.42
  -4  -3  -3    9.81    0.42
  -4   3  -3    9.48    0.46
  -4   3  -3    9.40    0.44
  -4   3  -3    9.04    0.41
  -4  -3   3    9.19    0.42
  -4  -3  -4  110.66    4.11
  -4  -3  -4  112.48    4.16
  -4   3   4  114.31    4.07
  -4  -3  -4  116.89    4.07
  -4  -3  -4  113.79    4.13
  -4  -3   4  112.36    4.09
  -4   3  -4  114.59    4.05
  -4   3  -4  111.72    4.10
  -4   3  -4  109.97    4.14
  -4  -3  -5    8.48    0.48
  -4  -3  -5    8.58    0.44
  -4  -3  -5    8.73    0.52
  -4   3   5    7.78    0.43
  -4   3  -5    8.67    0.50
  -4  -3   5    8.54    0.43
  -4   3  -5    8.45    0.47
  -4  -3  -6   71.33    2.67
  -4  -3  -6   70.38    2.72
  -4   3  -6   70.20    2.69
  -4   3  -6   69.68    2.64
  -5  -3   0   27.65    1.06
  -5   3   0   26.52    1.03
  -5   3   0   27.07    1.05
  -5  -3   0   27.93    1.08
  -5  -3  -1    3.11    0.24
  -5  -3  -1    3.42    0.25
  -5  -3  -1    3.33    0.26
  -5   3   1    3.42    0.24
  -5   3   1    2.75    0.23
  -5   3  -1    3.04    0.24
  -5   3  -1    2.99    0.25
  -5  -3   1    3.43    0.23
  -5  -3  -2    1.75    0.23
  -5  -3  -2    1.85    0.19
  -5  -3  -2    2.21    0.23
  -5   3   2    1.83    0.21
  -5   3  -2    1.85    0.24
  -5  -3   2    1.74    0.20
  -5   3  -2    1.84    0.20
  -5   3  -2    2.16    0.23
  -5   3   3    6.05    0.38
  -5  -3  -3    7.74    0.42
  -5  -3  -3    7.21    0.37
  -5  -3  -3    7.40    0.40
  -5   3  -3    6.69    0.36
  -5   3  -3    7.06    0.40
  -5   3  -3    7.21    0.37
  -5  -3   3    6.37    0.37
  -5   3  -3    7.00    0.41
  -5  -3  -4    0.72    0.19
  -5  -3  -4    1.29    0.26
  -5  -3  -4    0.46    0.14
  -5   3   4    0.69    0.18
  -5   3  -4    0.67    0.16
  -5   3  -4    0.74    0.25
  -5   3  -4    0.83    0.21
  -5  -3   4    0.74    0.18
  -5  -3  -5    6.25    0.44
  -5   3   5    4.98    0.40
  -5  -3  -5    6.26    0.48
  -5   3  -5    6.31    0.71
  -5   3  -5    5.50    0.47
  -5  -3   5    5.28    0.39
  -6  -3   0  328.83   11.92
  -6   3   0  330.06   11.63
  -6   3   0  320.56   11.65
  -6  -3   0  336.86   11.88
  -6  -3  -1    2.83    0.24
  -6  -3  -1    2.58    0.27
  -6   3   1    2.10    0.24
  -6  -3  -1    2.88    0.27
  -6   3   1    1.91    0.27
  -6   3  -1    2.20    0.28
  -6   3  -1    2.73    0.25
  -6  -3   1    2.62    0.25
  -6   3   2  268.47    9.79
  -6  -3  -2  280.29   10.07
  -6  -3  -2  284.36   10.10
  -6  -3  -2  282.71   10.07
  -6   3  -2  276.53    9.80
  -6   3  -2  270.26    9.83
  -6  -3   2  275.24   10.07
  -6   3  -2  276.38    9.79
  -6  -3  -3    1.38    0.31
  -6  -3  -3    2.00    0.27
  -6  -3  -3    2.09    0.28
  -6   3   3    1.73    0.29
  -6  -3  -3    1.69    0.30
  -6   3  -3    1.75    0.32
  -6   3  -3    1.67    0.26
  -6   3  -3    1.88    0.31
  -6  -3   3    1.82    0.27
  -6   3   4  162.17    5.77
  -6  -3  -4  166.78    5.83
  -6  -3  -4  160.63    5.87
  -6  -3  -4  166.89    5.77
  -6  -3  -4  141.21    5.82
  -6   3  -4  152.61    5.83
  -6   3  -4  158.91    5.80
  -6   3  -4  162.12    5.74
  -6  -3   4  163.52    5.79
  -7  -3   0    1.88    0.33
  -7  -3   0    2.33    0.30
  -7   3   0    2.18    0.30
  -7   3   0    1.17    0.25
  -7  -3   0    2.19    0.29
  -7  -3  -1    3.75    0.33
  -7   3   1    3.38    0.34
  -7   3   1    3.46    0.35
  -7  -3  -1    3.69    0.36
  -7  -3  -1    3.81    0.35
  -7  -3   1    3.05    0.33
  -7   3  -1    3.58    0.38
  -7   3  -1    3.69    0.33
  -7  -3  -2    1.62    0.34
  -7  -3  -2    1.72    0.28
  -7  -3  -2    2.09    0.30
  -7   3   2    1.92    0.33
  -7   3  -2    1.80    0.29
  -7  -3   2    1.79    0.31
  -7   3  -2    2.45    0.36
  -7   3  -2    1.36    0.30
  -7  -3  -3    9.27    0.51
  -7  -3  -3    8.48    0.58
  -7   3   3    8.28    0.54
  -7  -3  -3    9.00    0.55
  -7  -3  -3    9.59    0.56
  -7   3  -3    9.17    0.51
  -7  -3   3    8.41    0.52
  -7   3  -3    8.48    0.58
  -7   3  -3    9.13    0.57
   0  -4   0  134.66    4.79
   0   4   1    0.02    0.05
   0  -4  -1    0.00    0.04
   0  -4  -1    0.06    0.03
   0  -4  -1    0.09    0.05
   0  -4   1    0.01    0.04
   0   4  -1    0.03    0.03
   0   4  -1    0.01    0.03
   0   4   1    0.08    0.05
   0   4   1    0.01    0.03
   0   4   1    0.04    0.03
   0  -4   1   -0.01    0.03
   0  -4   2  453.27   16.12
   0  -4  -2  454.38   16.12
   0   4  -2  472.72   16.63
   0   4  -2  438.18   16.64
   0   4   2  494.06   16.65
   0  -4  -3    0.02    0.06
   0  -4   3    0.16    0.08
   0   4  -3    0.01    0.08
   0  -4  -3   -0.04    0.08
   0  -4  -3    0.09    0.08
   0   4  -4  213.51    7.65
   0  -4  -4  206.84    7.52
   0  -4  -4  212.46    7.48
   0  -4  -5    0.19    0.14
   0   4  -5   -0.09    0.18
   0  -4  -5    0.35    0.16
   0  -4  -5   -0.18    0.11
   0  -4  -6  163.61    5.79
   0   4  -6  160.26    5.81
   0  -4  -6  159.78    5.85
   0  -4  -6  158.78    5.78
   0  -4  -7   -0.02    0.28
   0   4  -7    0.34    0.33
   0  -4  -7    0.00    0.24
  -1  -4   0   27.43    0.96
  -1  -4   0   26.30    0.96
   1   4   0   26.10    0.94
  -1   4   0   26.11    0.94
   1  -4   0   25.65    0.96
   1   4   0   26.54    0.93
  -1  -4   0   27.07    0.97
  -1   4   0   25.31    0.93
  -1   4   0   25.30    0.94
   1  -4   1  267.58    9.78
   1  -4   1  272.28    9.78
   1   4  -1  289.13    9.85
  -1   4   1  265.89    9.87
  -1   4  -1  283.39    9.85
   1   4   1  274.34    9.86
  -1  -4   1  285.25    9.77
  -1   4  -1  274.43    9.86
  -1   4  -1  275.07    9.85
   1   4   1  278.54    9.86
  -1   4   2    7.25    0.29
  -1  -4  -2    7.70    0.32
  -1  -4  -2    7.38    0.31
  -1  -4  -2    8.06    0.29
   1  -4   2    7.38    0.31
   1   4  -2    7.46    0.30
  -1  -4  -2    7.74    0.33
   1   4   2    7.57    0.29
  -1   4  -2    7.21    0.31
   1  -4  -2    7.78    0.32
   1  -4  -2    7.65    0.33
  -1  -4   2    7.49    0.30
  -1  -4   2    7.98    0.30
  -1   4  -2    7.72    0.29
  -1   4  -2    7.55    0.29
  -1   4  -2    7.45    0.31
   1   4  -3  153.10    5.51
  -1  -4  -3  160.46    5.65
  -1  -4  -3  158.97    5.65
  -1  -4  -3  153.66    5.67
  -1   4  -3  151.72    5.52
  -1  -4   3  160.12    5.62
   1  -4  -3  158.89    5.66
   1  -4  -3  155.63    5.67
  -1   4  -3  156.88    5.50
   1   4  -4    0.85    0.15
  -1  -4  -4    0.85    0.14
  -1  -4  -4    0.79    0.19
  -1  -4  -4    0.88    0.13
   1  -4  -4    0.83    0.14
  -1   4  -4    0.82    0.15
   1  -4  -4    0.94    0.17
  -1  -4  -5   70.39    2.63
  -1  -4  -5   71.49    2.58
   1   4  -5   68.11    2.55
  -1  -4  -5   69.85    2.58
   1  -4  -5   69.12    2.62
   1  -4  -5   72.39    2.60
  -1   4  -5   68.80    2.56
  -1   4  -5   70.51    2.53
   1   4  -6    0.89    0.25
  -1  -4  -6    0.79    0.18
  -1  -4  -6    0.72    0.24
  -1  -4  -6    0.60    0.20
  -1   4  -6    0.75    0.24
  -1   4  -6    0.64    0.19
   1  -4  -6    1.10    0.23
   1  -4  -6    1.10    0.24
  -1  -4  -7   42.66    1.61
   1   4  -7   38.43    1.65
  -1  -4  -7   41.44    1.63
  -1  -4  -7   42.41    1.70
  -1   4  -7   43.73    1.68
  -1   4  -7   42.23    1.60
   1  -4  -7   41.55    1.71
   1  -4  -7   42.99    1.63
  -2   4   0  444.99   15.88
   2   4   0  448.83   15.87
  -2   4   1    6.55    0.26
  -2   4   1    6.31    0.27
  -2  -4  -1    6.55    0.27
  -2  -4  -1    6.43    0.28
  -2  -4  -1    6.75    0.29
  -2   4  -1    6.50    0.27
  -2   4  -1    6.37    0.27
   2  -4  -1    6.67    0.28
  -2  -4   1    6.82    0.28
  -2  -4  -2  191.24    6.77
  -2  -4  -2  182.19    6.78
   2   4  -2  199.54    6.79
  -2  -4  -2  186.86    6.78
  -2   4   2  189.67    6.80
  -2  -4  -2  190.21    6.80
  -2  -4   2  198.31    6.77
  -2   4  -2  187.71    6.81
  -2   4  -2  192.23    6.80
   2  -4  -2  190.33    6.79
  -2   4  -2  185.12    6.83
  -2  -4  -3   11.76    0.50
  -2   4   3   11.98    0.46
  -2  -4  -3   11.81    0.52
  -2  -4  -3   12.09    0.50
  -2  -4  -3   12.17    0.46
  -2   4  -3   12.07    0.46
  -2   4  -3   11.88    0.51
  -2   4  -3   12.14    0.47
   2  -4  -3   12.39    0.50
  -2  -4   3   12.02    0.47
  -2   4  -3   11.79    0.49
  -2  -4  -4  220.38    8.12
  -2  -4  -4  226.05    8.09
  -2  -4  -4  226.81    8.08
  -2   4   4  231.48    8.24
   2  -4  -4  220.82    8.10
  -2  -4   4  236.07    8.05
  -2  -4  -5    5.66    0.33
  -2  -4  -5    6.02    0.36
  -2  -4  -5    5.28    0.30
  -2   4  -5    5.56    0.33
  -2  -4   5    5.38    0.26
   2  -4  -5    5.77    0.39
  -2   4  -5    5.37    0.36
   2  -4  -5    5.93    0.33
  -2  -4  -6  156.10    5.55
  -2  -4  -6  149.97    5.60
  -2   4  -6  159.40    5.62
   2  -4  -6  157.72    5.56
  -2   4  -6  151.22    5.66
   2  -4  -6  150.06    5.61
  -2  -4  -7    3.33    0.41
  -2  -4  -7    3.56    0.38
   2  -4  -7    3.80    0.39
  -2   4  -7    3.34    0.46
  -2   4  -7    4.76    0.44
  -3   4   0   39.70    1.45
  -3  -4   0   41.43    1.50
  -3  -4   0   40.78    1.51
  -3   4   0   39.68    1.46
  -3  -4  -1  129.01    4.61
  -3  -4  -1  126.32    4.60
  -3   4   1  123.39    4.49
  -3   4   1  126.51    4.51
  -3  -4  -1  129.07    4.60
   3  -4  -1  129.07    4.61
  -3   4  -1  126.70    4.51
  -3   4  -1  126.24    4.51
  -3  -4   1  128.13    4.60
  -3  -4  -2   22.28    0.84
  -3  -4  -2   22.99    0.84
  -3   4   2   21.59    0.80
  -3  -4  -2   21.38    0.85
  -3  -4  -2   22.19    0.87
  -3   4  -2   20.94    0.81
  -3   4  -2   20.71    0.80
  -3  -4   2   22.28    0.84
   3  -4  -2   21.85    0.86
  -3   4  -2   20.39    0.82
  -3  -4  -3   99.88    3.68
  -3  -4  -3   98.97    3.70
  -3  -4  -3  105.33    3.65
  -3   4   3  104.67    3.63
  -3  -4  -3   99.02    3.68
   3  -4  -3  101.93    3.69
  -3  -4   3  104.06    3.65
  -3   4  -3   94.95    3.68
  -3   4  -3  103.13    3.63
  -3   4   4    1.71    0.17
  -3  -4  -4    1.84    0.22
  -3  -4  -4    1.71    0.22
  -3  -4  -4    1.36    0.20
  -3   4  -4    1.61    0.21
  -3   4  -4    1.71    0.23
   3  -4  -4    1.39    0.19
  -3  -4   4    1.69    0.16
  -3   4   5   67.63    2.38
  -3  -4  -5   66.60    2.48
  -3  -4  -5   67.59    2.55
  -3  -4  -5   67.60    2.51
  -3  -4   5   69.11    2.46
   3  -4  -5   67.58    2.52
  -3   4  -5   65.68    2.43
  -3   4  -5   62.89    2.47
  -3  -4  -6    1.69    0.29
  -3  -4  -6    1.48    0.24
  -3  -4  -6    1.57    0.30
  -3   4  -6    2.00    0.36
  -3   4  -6    1.74    0.31
   3  -4  -6    1.52    0.26
  -4   4   0  200.74    7.23
  -4  -4   0  209.56    7.39
  -4  -4   0  202.99    7.36
  -4   4   0  202.86    7.21
  -4  -4  -1    0.66    0.15
  -4  -4  -1    0.80    0.12
  -4   4   1    0.47    0.11
  -4  -4  -1    0.60    0.12
  -4   4   1    0.75    0.12
  -4   4  -1    0.51    0.11
  -4   4  -1    0.96    0.16
  -4  -4   1    0.70    0.12
  -4  -4  -2  161.45    5.84
  -4   4   2  160.03    5.70
  -4  -4  -2  160.60    5.87
  -4  -4  -2  164.18    5.85
  -4  -4   2  164.72    5.84
  -4   4  -2  158.79    5.73
  -4   4  -2  158.39    5.71
  -4   4  -2  157.63    5.70
  -4   4   3   13.26    0.56
  -4  -4  -3   13.65    0.59
  -4  -4  -3   13.91    0.59
  -4  -4  -3   13.96    0.56
  -4  -4  -3   13.61    0.61
  -4  -4   3   13.11    0.56
  -4   4  -3   13.16    0.55
  -4   4  -3   13.11    0.58
  -4   4  -3   13.27    0.60
  -4  -4  -4  105.01    4.01
  -4  -4  -4  110.13    4.01
  -4  -4  -4  109.60    4.05
  -4  -4  -4  113.34    3.96
  -4   4   4  112.94    3.98
  -4   4  -4  104.77    4.04
  -4   4  -4  113.21    3.96
  -4  -4   4  111.85    3.98
  -4   4  -4  108.82    4.01
  -4  -4  -5    9.34    0.48
  -4  -4  -5    8.74    0.52
  -4   4   5    8.76    0.46
  -4  -4  -5    8.69    0.48
  -4   4  -5    9.47    0.50
  -4  -4   5    9.18    0.44
  -4   4  -5    9.15    0.52
  -4  -4  -6   66.16    2.60
  -4  -4  -6   68.52    2.55
  -4   4  -6   66.01    2.52
  -4   4  -6   67.35    2.58
  -5  -4   0    7.80    0.39
  -5   4   0    7.58    0.38
  -5  -4   0    8.15    0.37
  -5   4   1   41.89    1.57
  -5   4   1   41.34    1.55
  -5  -4  -1   42.24    1.62
  -5  -4  -1   43.23    1.61
  -5  -4  -1   43.53    1.63
  -5   4  -1   41.97    1.57
  -5  -4   1   42.87    1.62
  -5   4  -1   41.48    1.57
  -5  -4  -2    5.98    0.32
  -5  -4  -2    5.95    0.34
  -5   4   2    5.92    0.33
  -5  -4  -2    5.61    0.35
  -5   4  -2    5.94    0.35
  -5   4  -2    5.87    0.32
  -5  -4   2    5.60    0.32
  -5   4  -2    5.23    0.34
  -5  -4  -3   46.09    1.73
  -5  -4  -3   44.76    1.71
  -5  -4  -3   45.54    1.72
  -5  -4  -3   46.00    1.77
  -5   4   3   44.74    1.68
  -5   4  -3   45.39    1.68
  -5   4  -3   44.88    1.71
  -5   4  -3   43.33    1.73
  -5  -4   3   45.82    1.72
  -5  -4  -4    1.88    0.28
  -5   4   4    1.53    0.26
  -5  -4  -4    1.71    0.29
  -5  -4  -4    1.03    0.21
  -5  -4  -4    1.98    0.37
  -5   4  -4    1.62    0.22
  -5   4  -4    1.42    0.27
  -5  -4   4    1.49    0.24
  -5   4  -4    1.37    0.28
  -5  -4  -5   44.64    1.77
  -5  -4  -5   43.33    1.72
  -5   4   5   44.10    1.62
  -5   4  -5   40.68    1.69
  -5  -4   5   43.78    1.67
  -5   4  -5   41.30    1.70
  -6   4   0   23.86    0.97
  -6  -4   0   24.90    1.00
  -6  -4   0   24.71    0.97
  -6   4   0   24.05    0.96
  -6  -4  -1    3.60    0.31
  -6   4   1    3.42    0.30
  -6   4   1    3.36    0.28
  -6  -4  -1    3.96    0.30
  -6  -4  -1    3.59    0.28
  -6   4  -1    3.62    0.31
  -6  -4   1    4.09    0.28
  -6   4  -1    3.71    0.27
  -6  -4  -2   81.49    3.04
  -6  -4  -2   82.32    3.01
  -6   4   2   79.59    2.92
  -6  -4  -2   81.77    3.01
  -6   4  -2   76.05    2.94
  -6   4  -2   80.60    2.92
  -6   4  -2   78.76    2.91
  -6  -4   2   80.99    3.02
  -6  -4  -3    0.20    0.20
  -6   4   3    0.54    0.21
  -6  -4  -3    0.34    0.24
  -6  -4  -3    0.26    0.20
  -6  -4  -3   -0.05    0.15
  -6   4  -3    0.11    0.16
  -6   4  -3    0.24    0.21
  -6   4  -3    0.40    0.23
  -6  -4   3    0.14    0.18
  -6  -4  -4   24.94    1.16
  -6  -4  -4   28.20    1.13
  -6   4   4   26.37    1.08
  -6  -4  -4   26.74    1.16
  -6  -4  -4   26.20    1.06
  -6   4  -4   25.28    1.14
  -6  -4   4   26.21    1.08
  -6   4  -4   25.84    1.05
  -6   4  -4   26.14    1.11
  -7   4   0    1.33    0.28
  -7   4   0    1.20    0.25
  -7  -4   0    1.78    0.30
  -7  -4   0    1.68    0.28
  -7  -4   0    1.47    0.28
  -7   4   1    8.62    0.48
  -7  -4  -1    8.14    0.47
  -7  -4  -1    7.88    0.50
  -7  -4  -1    8.19    0.47
  -7   4   1    8.46    0.48
  -7  -4   1    7.75    0.47
  -7   4  -1    7.06    0.45
  -7   4  -1    7.59    0.49
  -7  -4  -2    1.07    0.29
  -7  -4  -2    0.71    0.21
  -7  -4  -2    0.76    0.25
  -7   4   2    0.87    0.24
  -7   4  -2    0.90    0.28
  -7   4  -2    1.01    0.26
  -7  -4   2    0.87    0.23
  -7   4  -2    0.79    0.21
  -7  -4  -3    8.89    0.53
  -7   4   3    7.83    0.51
  -7  -4  -3    8.85    0.56
  -7  -4  -3    8.44    0.58
  -7  -4  -3    7.80    0.48
  -7   4  -3    6.88    0.57
  -7  -4   3    8.32    0.51
  -7   4  -3    7.52    0.47
  -7   4  -3    7.83    0.54
   0   5   0   -1.28    0.04
   0   5   0   -1.32    0.03
   0  -5   0   -1.32    0.03
   0   5   0   -1.30    0.04
   0  -5   0   -1.22    0.04
   0   5  -1    9.31    0.36
   0   5   1    9.28    0.37
   0  -5  -1    9.70    0.39
   0   5   1    9.14    0.36
   0   5   1    8.33    0.37
   0  -5  -1    9.91    0.38
   0   5   1    9.28    0.37
   0  -5  -1    8.99    0.39
   0  -5   1    9.85    0.38
   0  -5  -2   -0.45    0.06
   0   5  -2   -0.47    0.06
   0  -5  -2   -0.40    0.05
   0  -5   2   -0.41    0.06
   0  -5   2   -0.37    0.04
   0  -5   2   -0.47    0.06
   0   5   2   -0.38    0.04
   0  -5  -2   -0.46    0.06
   0   5  -3    8.08    0.35
   0  -5  -3    8.41    0.36
   0  -5  -3    8.49    0.35
   0  -5   3    7.86    0.34
   0  -5  -3    8.05    0.37
   0  -5   3    8.58    0.33
   0  -5   4    0.45    0.42
   0   5  -4   -0.01    0.26
   0  -5   4    0.00    0.49
   0   5  -4    0.62    0.49
   0  -5   4    0.47    0.31
   0   5  -4    0.09    0.55
   0   5  -4    0.31    0.32
   0  -5  -5    3.10    0.22
   0   5  -5    2.94    0.26
   0  -5  -5    2.95    0.28
   0  -5  -5    2.80    0.26
   0  -5  -6    4.08    0.30
   0  -5  -7    2.60    0.39
   0  -5  -7    2.96    0.33
   0   5  -7    2.83    0.43
   1   5   0    0.34    0.07
   1  -5   0    0.35    0.06
  -1   5   0    0.21    0.06
  -1   5   0    0.18    0.07
  -1  -5   0    0.25    0.06
  -1  -5   0    0.20    0.06
  -1  -5   0    0.41    0.06
   1   5   0    0.22    0.06
   1   5   0    0.31    0.06
   1   5  -1   25.42    0.92
   1  -5   1   25.53    0.97
  -1  -5  -1   26.70    0.97
  -1  -5  -1   26.14    0.98
  -1   5   1   23.16    0.94
  -1  -5  -1   25.47    0.97
  -1  -5  -1   26.33    0.98
   1  -5  -1   26.10    0.98
  -1   5  -1   25.42    0.93
   1   5   1   24.31    0.93
  -1   5  -1   23.92    0.92
   1   5   1   25.52    0.93
  -1   5  -1   24.29    0.92
   1   5   1   25.23    0.93
  -1  -5   1   25.54    0.97
  -1  -5  -2    7.57    0.33
  -1  -5  -2    8.25    0.32
  -1   5   2    7.71    0.32
  -1  -5  -2    8.02    0.35
  -1  -5  -2    8.10    0.35
  -1   5  -2    7.71    0.33
  -1   5  -2    7.62    0.33
   1  -5  -2    7.95    0.34
  -1   5  -2    7.81    0.31
  -1   5  -2    7.88    0.32
  -1  -5   2    8.07    0.32
   1  -5  -2    8.43    0.36
  -1  -5  -3    2.46    0.16
  -1  -5  -3    2.48    0.18
  -1  -5  -3    2.57    0.16
   1   5  -3    2.77    0.16
  -1  -5   3    1.94    0.12
  -1   5  -3    2.10    0.17
  -1   5  -3    2.69    0.18
   1  -5  -3    2.22    0.16
  -1  -5  -4    0.02    0.11
  -1  -5  -4    0.18    0.10
   1   5  -4   -0.04    0.12
  -1  -5  -4    0.15    0.15
  -1   5  -4    0.13    0.12
  -1   5  -4   -0.04    0.11
   1  -5  -4    0.16    0.11
   1  -5  -4   -0.02    0.12
  -1  -5  -5   23.50    0.91
   1   5  -5   22.93    0.90
  -1  -5  -5   22.62    0.90
  -1  -5  -5   23.71    0.95
   1  -5  -5   23.06    0.92
   1  -5  -5   22.83    0.95
  -1   5  -5   22.63    0.91
  -1   5  -5   21.23    0.90
  -1  -5  -6    0.69    0.19
   1   5  -6    0.38    0.24
  -1  -5  -6    0.93    0.24
  -1  -5  -6    0.48    0.17
  -1   5  -6    0.37    0.18
   1  -5  -6    0.84    0.24
  -1   5  -6    0.58    0.24
   1  -5  -6    0.67    0.21
   1   5  -7    2.70    0.45
  -1  -5  -7    0.97    0.25
  -1  -5  -7    0.49    0.23
  -1  -5  -7    0.36    0.26
   1  -5  -7    0.68    0.27
  -1   5  -7    1.94    0.43
   1  -5  -7    1.26    0.34
   2  -5   0    1.92    0.11
  -2   5   0    1.84    0.12
  -2   5   0    1.60    0.12
   2   5   0    1.43    0.12
  -2  -5   0    1.79    0.11
  -2   5   0    1.68    0.12
  -2  -5   0    1.67    0.11
  -2  -5   0    1.77    0.12
  -2  -5  -1    9.13    0.38
  -2  -5  -1    9.01    0.37
  -2  -5  -1    9.04    0.37
  -2   5   1    8.87    0.35
  -2   5   1    9.14    0.36
  -2  -5   1    9.17    0.37
  -2   5  -1    8.58    0.36
   2  -5  -1    9.14    0.38
  -2   5  -1    8.75    0.34
  -2   5  -1    8.70    0.36
  -2  -5  -2    1.92    0.16
  -2  -5  -2    1.98    0.13
  -2  -5  -2    2.24    0.15
   2   5  -2    2.01    0.13
  -2  -5  -2    1.89    0.15
  -2   5   2    1.82    0.13
  -2  -5   2    2.07    0.13
  -2   5  -2    1.84    0.13
  -2   5  -2    1.66    0.15
   2  -5  -2    2.03    0.15
  -2   5  -2    1.69    0.16
  -2  -5  -3    6.12    0.32
  -2  -5  -3    6.44    0.26
  -2  -5  -3    5.93    0.30
  -2   5  -3    6.14    0.26
  -2   5  -3    5.96    0.30
  -2  -5   3    6.77    0.27
  -2   5  -3    6.24    0.31
   2  -5  -3    6.38    0.31
  -2   5  -3    5.98    0.28
  -2  -5  -4    1.33    1.39
  -2  -5  -4    1.22    0.88
   2  -5   4    0.01    0.95
   2  -5   4    0.52    0.55
  -2  -5  -4    0.24    0.96
   2  -5   4    0.40    0.62
  -2   5   4    0.06    0.73
  -2  -5  -4    0.79    0.70
  -2  -5  -4   -0.03    0.69
   2  -5   4    0.82    0.63
  -2  -5  -4    0.99    0.59
  -2   5   4    0.60    0.51
  -2   5  -4   -0.18    0.98
  -2   5  -4    0.07    0.45
  -2  -5   4    0.66    0.41
  -2  -5   4    1.43    1.29
  -2  -5   4    0.66    0.47
  -2  -5   4    1.33    0.95
  -2   5  -4    0.49    0.73
  -2   5  -4   -0.01    0.50
  -2  -5   4    0.40    0.47
  -2  -5  -5    5.85    0.33
  -2  -5  -5    6.11    0.37
  -2  -5  -5    6.00    0.33
   2  -5  -5    6.15    0.40
  -2   5  -5    6.05    0.37
  -2   5  -5    5.42    0.34
  -2  -5   5    6.17    0.28
   2  -5  -5    6.27    0.34
  -2  -5  -6    6.73    0.42
  -2  -5  -6    4.25    0.35
   2  -5  -6    5.65    0.38
  -2  -5  -7    2.33    0.35
  -2  -5  -7    2.52    0.40
   2  -5  -7    3.16    0.37
  -2   5  -7    2.47    0.42
  -2   5  -7    2.90    0.46
  -3  -5   0   97.61    3.54
  -3  -5   0   99.71    3.56
  -3   5   0   97.53    3.47
  -3   5   0   95.59    3.48
  -3   5   1   47.58    1.78
  -3  -5  -1   51.50    1.86
  -3  -5  -1   49.95    1.85
  -3   5   1   49.48    1.80
  -3  -5  -1   50.48    1.85
  -3   5  -1   50.57    1.80
  -3  -5   1   50.73    1.85
  -3   5  -1   48.74    1.80
   3  -5  -1   50.83    1.86
  -3  -5  -2    1.45    0.14
  -3  -5  -2    1.44    0.13
  -3  -5  -2    1.54    0.15
  -3   5   2    1.35    0.14
  -3  -5  -2    1.63    0.17
   3  -5  -2    1.58    0.15
  -3  -5   2    1.40    0.13
  -3   5  -2    1.50    0.16
  -3   5  -2    1.44    0.13
  -3   5  -2    1.54    0.16
  -3   5   3   62.29    2.26
  -3  -5  -3   61.84    2.30
  -3  -5  -3   62.34    2.33
  -3  -5  -3   64.58    2.28
   3   5  -3   64.58    2.24
  -3  -5  -3   62.75    2.31
   3  -5  -3   62.73    2.31
  -3   5  -3   59.80    2.29
  -3  -5   3   62.53    2.28
  -3   5  -3   62.67    2.26
  -3  -5  -4    3.51    0.25
  -3  -5  -4    3.42    0.28
  -3   5   4    3.41    0.23
  -3  -5  -4    3.80    0.28
  -3  -5   4    3.71    0.21
  -3   5  -4    3.49    0.29
  -3   5  -4    3.84    0.19
  -3   5  -4    3.39    0.26
   3  -5  -4    4.02    0.26
  -3  -5  -5   24.45    1.01
  -3   5   5   24.76    0.94
  -3  -5  -5   26.09    0.99
  -3  -5  -5   23.58    1.04
  -3   5  -5   23.74    1.03
  -3   5  -5   25.02    0.99
  -3  -5   5   25.09    0.95
   3  -5  -5   25.64    1.01
  -3  -5  -6    1.68    0.33
  -3  -5  -6    1.48    0.30
  -3  -5  -6    1.49    0.29
  -3   5  -6    1.16    0.25
   3  -5  -6    1.62    0.29
  -3   5  -6    1.42    0.31
  -4  -5   0    0.77    0.13
  -4  -5   0    0.62    0.13
  -4   5   0    0.76    0.13
  -4   5   0    0.71    0.14
  -4  -5  -1    6.09    0.30
  -4   5   1    6.11    0.29
  -4   5   1    5.97    0.30
  -4  -5  -1    6.14    0.30
  -4  -5  -1    6.54    0.32
  -4   5  -1    5.90    0.31
  -4  -5   1    6.32    0.31
  -4   5  -1    6.04    0.30
  -4   5   2    0.16    0.11
  -4  -5  -2    0.27    0.10
  -4  -5  -2    0.46    0.14
  -4  -5  -2    0.26    0.12
  -4  -5   2    0.39    0.12
  -4   5  -2    0.04    0.10
  -4   5  -2    0.12    0.13
  -4  -5  -3    7.62    0.35
  -4   5   3    7.41    0.35
  -4  -5  -3    7.69    0.38
  -4  -5  -3    7.38    0.37
  -4  -5  -3    6.89    0.39
  -4   5  -3    6.80    0.37
  -4   5  -3    6.80    0.34
   4  -5  -3    7.14    0.37
  -4   5  -3    7.43    0.39
  -4  -5   3    7.06    0.35
  -4  -5  -4    1.26    0.19
  -4   5   4    0.52    0.17
  -4  -5  -4    0.84    0.13
  -4  -5  -4    1.33    0.24
  -4   5  -4    1.41    0.25
   4  -5  -4    1.55    0.21
  -4   5  -4    0.86    0.18
  -4  -5   4    0.75    0.16
  -4   5  -4    0.80    0.14
  -4  -5  -5    6.55    0.50
  -4  -5  -5    6.60    0.39
  -4   5   5    5.69    0.36
  -4  -5  -5    5.73    0.44
  -4  -5   5    5.81    0.36
  -4   5  -5    6.28    0.40
  -4   5  -5    6.11    0.43
  -4  -5  -6    2.24    0.35
  -4  -5  -6    3.24    0.41
  -4   5  -6    2.60    0.40
  -5  -5   0    1.76    0.19
  -5  -5   0    1.84    0.19
  -5   5   0    1.66    0.20
  -5   5   0    1.79    0.21
  -5  -5  -1   71.15    2.64
  -5   5   1   70.12    2.57
  -5   5   1   71.60    2.55
  -5  -5  -1   71.14    2.63
  -5  -5  -1   72.41    2.65
  -5  -5   1   72.97    2.65
  -5   5  -1   69.15    2.58
  -5   5  -1   68.90    2.57
  -5   5   2   36.29    1.39
  -5  -5  -2   38.40    1.45
  -5  -5  -2   37.31    1.44
  -5  -5  -2   38.42    1.48
  -5   5  -2   35.77    1.42
  -5   5  -2   37.32    1.39
  -5   5  -2   36.14    1.40
  -5  -5   2   38.30    1.45
  -5  -5  -3  134.50    4.82
  -5   5   3  132.28    4.73
  -5  -5  -3  134.71    4.84
  -5  -5  -3  130.88    4.83
  -5  -5  -3  133.45    4.87
  -5   5  -3  132.03    4.75
  -5  -5   3  133.32    4.82
  -5   5  -3  132.02    4.73
  -5   5  -3  126.50    4.78
  -5  -5  -4    1.02    0.20
  -5  -5  -4    1.61    0.29
  -5  -5  -4    1.53    0.29
  -5  -5  -4    2.08    0.35
  -5   5   4    1.36    0.26
  -5   5  -4    1.50    0.29
  -5   5  -4    1.77    0.30
  -5   5  -4    1.76    0.23
  -5  -5   4    1.26    0.23
  -5  -5  -5   79.84    3.16
  -5   5   5   84.09    3.02
  -5  -5  -5   83.68    3.11
  -5  -5  -5   85.12    3.10
  -5   5  -5   81.09    3.11
  -5   5  -5   80.93    3.07
  -5  -5   5   84.28    3.06
  -6   5   0    0.85    0.17
  -6   5   0    1.05    0.21
  -6  -5   0    1.26    0.24
  -6  -5   0    1.70    0.21
  -6  -5   0    1.11    0.18
  -6   5   1    3.26    0.28
  -6  -5  -1    2.88    0.27
  -6   5   1    3.22    0.28
  -6  -5  -1    3.20    0.25
  -6  -5  -1    3.60    0.29
  -6   5  -1    3.45    0.30
  -6  -5   1    2.54    0.25
  -6   5  -1    3.66    0.27
  -6  -5  -2    0.25    0.18
  -6   5   2    0.39    0.18
  -6  -5  -2    0.31    0.15
  -6  -5  -2    0.69    0.23
  -6   5  -2    0.43    0.21
  -6  -5   2    0.26    0.16
  -6   5  -2    0.17    0.16
  -6   5  -2    0.42    0.22
  -6  -5  -3    3.19    0.32
  -6   5   3    3.06    0.32
  -6  -5  -3    2.73    0.33
  -6  -5  -3    2.80    0.34
  -6  -5  -3    2.81    0.28
  -6   5  -3    2.83    0.34
  -6   5  -3    2.54    0.35
  -6   5  -3    3.54    0.30
  -6  -5   3    2.95    0.29
  -6  -5  -4    0.13    0.19
  -6  -5  -4    0.45    0.25
  -6  -5  -4    0.96    0.36
  -6  -5  -4    0.28    0.26
  -6   5   4   -0.08    0.24
  -6   5  -4    0.47    0.27
  -6  -5   4   -0.09    0.19
  -6   5  -4   -0.29    0.20
  -6   5  -4    0.50    0.27
  -7   5   0    1.05    0.26
  -7  -5   0    1.75    0.32
  -7  -5   0    1.58    0.27
  -7   5   0    1.59    0.29
  -7  -5   0    1.64    0.30
  -7  -5  -1  140.28    5.11
  -7   5   1  132.48    4.77
  -7  -5  -1  142.10    5.07
  -7  -5  -1  137.35    5.09
  -7   5   1  127.94    4.81
  -7  -5   1  138.49    5.10
  -7   5  -1  125.14    4.81
  -7   5  -1  141.10    4.82
  -7  -5  -2    3.46    0.39
  -7   5   2    3.71    0.36
  -7  -5  -2    3.67    0.34
  -7  -5  -2    3.74    0.40
  -7   5  -2    3.11    0.33
  -7   5  -2    3.90    0.40
  -7  -5   2    3.53    0.35
  -7   5  -2    3.32    0.40
   0   6   0  306.83   10.90
   0   6   0  306.85   10.90
   0   6   1    0.06    0.06
   0   6   1   -0.02    0.06
   0   6   1    0.06    0.04
   0   6  -1   -0.03    0.04
   0   6  -1   -0.01    0.04
   0  -6  -1    0.05    0.04
   0   6   1    0.06    0.05
   0  -6   1    0.02    0.04
   0  -6  -1    0.06    0.05
   0  -6  -1    0.05    0.05
   0   6  -2  626.16   21.22
   0  -6   2  609.75   21.47
   0   6  -2  581.56   21.22
   0  -6   2  599.72   21.47
   0   6   2  582.07   21.22
   0   6  -2  600.57   21.21
   0  -6  -3   -0.02    0.06
   0  -6  -3    0.00    0.09
   0  -6  -3   -0.02    0.08
   0  -6   3   -0.14    0.05
   0   6   3   -0.13    0.06
   0  -6   4  238.76    8.40
   0  -6  -4  236.51    8.43
   0  -6  -4  232.52    8.53
   0   6  -4  240.66    8.60
   0   6  -5   -0.13    0.17
   0  -6  -5    0.07    0.16
   0  -6  -5    0.24    0.16
   0  -6  -6  143.82    5.26
   0  -6  -6  144.07    5.21
   0   6  -6  141.51    5.14
   0   6  -7   -0.20    0.34
   0  -6  -7    0.69    0.30
   0  -6  -7   -0.03    0.26
  -1  -6   0   15.93    0.57
  -1   6   0   14.15    0.54
  -1  -6   0   15.59    0.58
   1  -6   0   15.38    0.58
   1   6   0   14.76    0.53
   1   6   0   15.21    0.54
  -1   6   0   13.80    0.54
  -1  -6  -1   16.23    0.60
   1   6  -1   15.01    0.55
  -1  -6  -1   17.08    0.61
  -1  -6  -1   16.32    0.59
  -1  -6  -1   15.69    0.59
  -1  -6   1   13.96    0.59
   1   6   1   13.45    0.56
  -1   6  -1   15.18    0.56
  -1   6  -1   14.84    0.56
  -1   6  -1   15.03    0.55
   1  -6  -1   15.79    0.60
  -1  -6  -2    8.63    0.36
   1   6  -2    8.45    0.32
  -1  -6  -2    8.89    0.37
  -1  -6  -2    8.88    0.37
  -1  -6  -2    9.00    0.35
   1  -6  -2    8.95    0.38
  -1   6  -2    8.25    0.32
  -1   6  -2    8.22    0.35
   1  -6  -2    8.66    0.37
  -1  -6   2    8.78    0.34
  -1   6  -2    8.39    0.34
  -1   6  -2    8.31    0.34
  -1  -6  -3   32.37    1.22
  -1  -6  -3   34.13    1.21
  -1  -6  -3   32.92    1.20
   1  -6  -3   32.81    1.22
  -1   6  -3   32.14    1.18
  -1   6  -3   31.50    1.19
  -1  -6   3   29.42    1.19
  -1  -6   3   30.37    1.17
   1  -6  -3   33.23    1.21
  -1  -6  -4    0.88    0.15
   1   6  -4    0.78    0.16
  -1  -6  -4    0.82    0.14
  -1  -6  -4    1.10    0.17
  -1  -6   4    1.02    0.10
  -1   6  -4    0.93    0.20
   1  -6  -4    0.98    0.15
  -1   6  -4    0.68    0.12
  -1  -6  -5   22.12    0.90
  -1  -6  -5   22.55    0.86
   1   6  -5   19.95    0.81
  -1  -6  -5   20.70    0.86
  -1   6  -5   17.28    0.82
   1  -6  -5   21.70    0.87
  -1   6  -5   21.40    0.83
   1  -6  -5   21.56    0.90
  -1  -6  -6    2.70    0.28
  -1  -6  -6    3.04    0.31
   1   6  -6    1.75    0.31
  -1  -6  -6    2.75    0.28
  -1   6  -6    2.73    0.28
  -1   6  -6    2.56    0.32
   1  -6  -6    2.55    0.28
   1  -6  -6    2.18    0.31
   1   6  -7    3.30    0.47
  -1  -6  -7    3.61    0.41
  -1  -6  -7    3.55    0.34
  -1  -6  -7    3.46    0.37
   1  -6  -7    3.19    0.45
   1  -6  -7    3.66    0.36
  -1   6  -7    3.45    0.46
  -2   6   0  525.23   18.72
  -2   6   0  516.31   18.71
   2   6   0  538.93   18.71
  -2   6   1    3.01    0.16
  -2  -6  -1    3.13    0.17
  -2  -6  -1    3.09    0.16
  -2  -6  -1    3.23    0.16
  -2   6   1    2.92    0.16
  -2   6  -1    2.99    0.16
  -2  -6   1    3.27    0.16
  -2   6  -1    2.88    0.16
   2  -6  -1    3.27    0.17
  -2  -6  -2  240.99    8.55
  -2  -6  -2  237.75    8.57
  -2  -6  -2  232.64    8.56
   2   6  -2  247.77    8.56
  -2  -6  -2  238.82    8.57
  -2   6  -2  240.18    8.58
   2  -6  -2  243.27    8.57
  -2  -6   2  246.11    8.55
  -2   6  -2  234.20    8.57
  -2   6  -2  239.80    8.59
  -2  -6  -3    4.60    0.26
  -2  -6  -3    4.59    0.21
  -2  -6  -3    4.57    0.26
  -2  -6  -3    4.49    0.24
   2  -6  -3    4.78    0.25
  -2   6  -3    4.29    0.25
  -2   6  -3    4.52    0.25
  -2   6  -3    4.27    0.24
  -2   6  -3    4.56    0.20
  -2  -6   3    4.60    0.21
  -2  -6  -4  243.39    8.72
  -2  -6  -4  242.14    8.72
  -2  -6  -4  234.12    8.75
   2  -6  -4  245.66    8.73
  -2  -6   4  253.21    8.68
  -2   6  -4  208.24    7.51
  -2   6   5    5.64    0.29
  -2  -6  -5    6.23    0.38
  -2  -6  -5    6.33    0.35
  -2  -6  -5    6.35    0.34
  -2  -6   5    6.34    0.29
  -2   6  -5    5.99    0.35
   2  -6  -5    6.13    0.35
  -2   6  -5    6.07    0.37
  -2  -6  -6  148.95    5.51
  -2  -6  -6  146.06    5.43
  -2  -6  -6  154.97    5.46
  -2   6  -6  147.97    5.31
  -2   6  -6  145.11    5.35
   2  -6  -6  153.09    5.47
  -2  -6  -7    2.67    0.37
  -2  -6  -7    2.51    0.40
  -2   6  -7    2.87    0.41
   2  -6  -7    2.41    0.36
  -2   6  -7    2.26    0.44
  -3   6   0   25.59    0.97
  -3  -6   0   27.42    1.02
  -3  -6   0   26.52    1.00
  -3  -6   0   27.14    1.01
  -3   6   0   25.91    0.96
  -3  -6  -1    1.69    0.14
  -3   6   1    1.22    0.13
  -3  -6  -1    1.37    0.13
  -3   6   1    1.48    0.13
  -3  -6  -1    1.45    0.14
   3  -6  -1    1.68    0.13
  -3   6  -1    1.70    0.14
  -3  -6   1    1.60    0.13
  -3   6  -1    1.31    0.15
  -3   6   2   10.72    0.43
  -3  -6  -2   10.52    0.44
  -3  -6  -2   10.49    0.45
  -3  -6  -2   10.85    0.44
  -3  -6  -2   10.18    0.46
   3  -6  -2   10.58    0.45
  -3   6  -2   10.17    0.43
  -3   6  -2   10.09    0.45
  -3  -6   2   10.87    0.44
  -3  -6  -3    1.96    0.15
  -3  -6  -3    1.92    0.22
  -3  -6  -3    2.27    0.21
  -3   6   3    1.29    0.16
   3   6  -3    1.67    0.17
  -3  -6  -3    1.79    0.19
  -3   6  -3    1.78    0.15
  -3   6  -3    1.43    0.20
   3  -6  -3    1.55    0.18
  -3   6  -3    1.72    0.30
  -3   6   4    1.32    0.17
  -3  -6  -4    1.09    0.24
  -3  -6  -4    0.97    0.20
  -3  -6  -4    0.99    0.18
  -3   6  -4    1.10    0.23
   3  -6  -4    1.07    0.18
  -3   6  -4    1.02    0.17
  -3   6  -4    1.18    0.13
  -3  -6   4    1.27    0.15
  -3  -6  -5    3.86    0.30
  -3   6   5    2.87    0.25
  -3  -6  -5    4.14    0.33
   3  -6  -5    3.79    0.29
  -3   6  -5    3.31    0.29
  -3   6  -5    3.50    0.32
  -3  -6   5    3.25    0.24
  -3  -6  -6    6.37    0.46
  -3  -6  -6    6.55    0.41
  -3  -6  -6    5.89    0.40
  -3   6  -6    6.16    0.43
  -3   6  -6    5.86    0.48
   3  -6  -6    6.30    0.42
  -4   6   0  157.63    5.63
  -4   6   0  155.50    5.61
  -4  -6   0  164.11    5.89
  -4  -6   0  164.63    5.88
  -4  -6   0  163.14    5.86
  -4   6   1    0.68    0.14
  -4  -6  -1    1.01    0.15
  -4  -6  -1    0.75    0.15
  -4  -6  -1    0.65    0.12
  -4   6   1    1.06    0.16
  -4   6  -1    0.96    0.14
  -4   6  -1    0.90    0.16
  -4  -6   1    0.89    0.13
  -4  -6  -2  134.46    4.81
  -4   6   2  129.88    4.64
  -4  -6  -2  128.09    4.81
  -4  -6  -2  134.57    4.79
  -4  -6   2  134.43    4.79
   4  -6  -2  132.84    4.80
  -4   6  -2  127.87    4.65
  -4  -6  -3    8.86    0.43
  -4  -6  -3    8.78    0.39
  -4   6   3    8.57    0.40
  -4  -6  -3    8.73    0.45
  -4  -6  -3    8.29    0.42
  -4  -6   3    8.64    0.40
   4  -6  -3    8.72    0.42
  -4   6  -3    7.94    0.40
  -4   6  -3    8.69    0.42
  -4   6  -3    8.53    0.44
  -4  -6  -4  107.43    3.93
  -4   6   4  106.05    3.81
  -4  -6  -4  110.05    3.88
  -4  -6  -4  105.27    3.97
  -4  -6   4  106.83    3.90
  -4   6  -4  105.77    3.85
   4  -6  -4  109.45    3.94
  -4   6  -4  100.56    3.87
  -4   6  -4  108.83    3.80
  -4  -6  -5   10.21    0.53
  -4   6   5    8.97    0.46
  -4  -6  -5    8.83    0.50
  -4  -6  -5    9.36    0.55
  -4   6  -5    9.05    0.53
  -4  -6   5    9.92    0.47
   4  -6  -5    9.59    0.50
  -4   6  -5    8.94    0.50
  -4  -6  -6   74.34    2.75
  -4  -6  -6   71.42    2.80
  -4   6  -6   69.92    2.72
  -4   6  -6   71.23    2.67
  -5  -6   0    0.41    0.12
  -5  -6   0    0.60    0.13
  -5   6   0    0.34    0.16
  -5   6   0    0.70    0.14
  -5  -6  -1    1.22    0.19
  -5   6   1    0.96    0.17
  -5   6   1    0.64    0.16
  -5  -6  -1    0.57    0.14
  -5  -6  -1    0.97    0.15
  -5   6  -1    0.80    0.15
  -5  -6   1    0.88    0.15
  -5   6  -1    0.32    0.15
  -5  -6  -2    0.20    0.15
  -5   6   2   -0.08    0.13
  -5  -6  -2    0.26    0.14
  -5  -6  -2    0.16    0.12
  -5   6  -2    0.00    0.16
  -5  -6   2    0.07    0.12
  -5   6  -2    0.08    0.12
  -5  -6  -3    4.64    0.31
  -5   6   3    4.34    0.32
  -5  -6  -3    4.29    0.32
  -5  -6  -3    4.23    0.32
  -5  -6  -3    4.18    0.28
  -5   6  -3    4.18    0.32
  -5  -6   3    4.41    0.29
  -5   6  -3    4.23    0.33
  -5   6  -3    4.26    0.29
  -5  -6  -4    1.51    0.26
  -5  -6  -4    1.56    0.21
  -5  -6  -4    1.19    0.32
  -5  -6  -4    1.39    0.27
  -5   6   4    0.75    0.20
  -5   6  -4    0.96    0.22
  -5   6  -4    0.87    0.18
  -5  -6   4    1.08    0.19
  -5   6  -4    1.10    0.26
  -5  -6  -5    4.64    0.38
  -5   6   5    3.83    0.38
  -5  -6  -5    5.40    0.50
  -5  -6  -5    4.22    0.44
  -5  -6   5    4.61    0.36
  -5   6  -5    3.77    0.42
  -5   6  -5    4.53    0.41
  -6  -6   0   13.94    0.63
  -6  -6   0   14.00    0.62
  -6   6   0   12.70    0.60
  -6  -6   0   13.93    0.60
  -6   6   0   13.87    0.60
  -6  -6  -1    0.24    0.14
  -6  -6  -1   -0.02    0.17
  -6  -6  -1   -0.06    0.16
  -6   6   1   -0.01    0.18
  -6   6   1    0.19    0.15
  -6   6  -1    0.01    0.14
  -6   6  -1    0.28    0.18
  -6  -6   1    0.21    0.14
  -6  -6  -2   64.02    2.40
  -6  -6  -2   64.13    2.37
  -6  -6  -2   64.31    2.37
  -6   6   2   59.49    2.23
  -6  -6   2   61.33    2.37
  -6   6  -2   59.73    2.23
  -6   6  -2   58.28    2.26
  -6   6  -2   59.52    2.23
  -6  -6  -3    3.45    0.35
  -6  -6  -3    3.33    0.35
  -6   6   3    3.27    0.34
  -6  -6  -3    3.65    0.35
  -6  -6  -3    3.42    0.30
  -6   6  -3    3.09    0.36
  -6  -6   3    3.00    0.31
  -6   6  -3    3.43    0.30
  -6   6  -3    3.06    0.35
  -6  -6  -4   23.31    1.05
  -6  -6  -4   23.92    1.05
  -6  -6  -4   22.49    0.95
  -6  -6  -4   24.38    1.02
  -6   6   4   21.90    0.94
  -6   6  -4   21.94    0.90
  -6  -6   4   22.09    0.97
  -6   6  -4   21.83    0.97
  -6   6  -4   20.68    0.99
  -7   6   0    4.39    0.37
  -7  -6   0    5.04    0.39
  -7  -6   0    5.86    0.37
  -7   6   0    4.65    0.40
  -7  -6   0    4.90    0.39
  -7   6   1    0.35    0.24
  -7  -6  -1    0.30    0.18
  -7  -6  -1    0.77    0.23
  -7  -6  -1    0.30    0.26
  -7   6   1    0.28    0.20
  -7  -6   1    0.47    0.20
  -7   6  -1    0.17    0.25
  -7  -6   1    0.47    0.26
  -7   6  -1    0.34    0.20
  -7  -6  -2    2.85    0.36
  -7   6   2    3.03    0.36
  -7  -6  -2    3.45    0.33
  -7  -6  -2    3.23    0.39
  -7   6  -2    2.99    0.40
  -7  -6   2    2.87    0.34
  -7   6  -2    3.28    0.39
  -7   6  -2    3.25    0.33
   0   7   0    0.38    0.07
   0   7   0    0.12    0.05
   0  -7   0    0.04    0.05
   0  -7   0   -0.01    0.04
   0   7   0    0.00    0.05
   0  -7  -1   11.32    0.45
   0   7   1   10.16    0.40
   0   7   1   10.07    0.41
   0  -7   1   11.67    0.44
   0  -7  -1   11.12    0.43
   0  -7  -1   11.12    0.44
   0   7  -1   10.55    0.39
   0   7  -2    0.02    0.06
   0   7  -2    0.06    0.06
   0  -7  -2    0.10    0.07
   0   7  -2    0.09    0.04
   0  -7   2    0.09    0.08
   0   7  -2    0.19    0.05
   0  -7   2    0.07    0.05
   0  -7  -2    0.08    0.07
   0  -7   3   11.98    0.46
   0  -7  -3   11.26    0.49
   0   7  -3   11.88    0.48
   0  -7  -3   11.93    0.49
   0   7  -4    0.91    0.16
   0  -7  -4    0.30    0.12
   0  -7  -5    4.69    0.29
   0  -7   5    4.99    0.26
   0   7  -5    4.69    0.32
   0  -7  -5    4.80    0.32
   0  -7  -6    2.39    0.30
   0  -7  -7    3.47    0.42
   0   7  -7    4.18    0.48
   0  -7  -7    4.00    0.37
   1   7   0   61.07    2.18
  -1  -7   0   66.11    2.31
  -1   7   0   59.51    2.18
  -1  -7   0   63.09    2.32
   1   7   0   62.02    2.18
   1  -7   0   64.25    2.31
  -1  -7  -1   24.72    0.92
  -1  -7  -1   24.05    0.91
  -1  -7  -1   24.82    0.91
   1   7  -1   23.48    0.85
  -1  -7  -1   25.05    0.92
  -1  -7   1   24.99    0.91
  -1   7  -1   23.43    0.85
   1   7   1   23.18    0.86
   1  -7  -1   25.11    0.92
  -1   7  -1   22.06    0.85
   1   7  -2    9.38    0.34
  -1  -7  -2    8.99    0.39
  -1  -7  -2    9.38    0.36
  -1  -7  -2    8.85    0.37
  -1  -7  -2    9.35    0.39
   1  -7  -2    9.12    0.38
  -1   7  -2    8.44    0.36
  -1  -7   2    9.13    0.36
   1  -7  -2    8.82    0.39
  -1   7  -2    8.69    0.34
  -1   7  -2    8.53    0.36
  -1   7  -2    8.79    0.36
  -1  -7  -3    3.33    0.19
  -1  -7  -3    3.05    0.21
  -1   7  -3    3.01    0.18
   1  -7  -3    3.01    0.19
  -1   7  -3    2.16    0.18
  -1  -7   3    3.19    0.16
  -1  -7  -4   13.79    0.58
  -1  -7  -4   13.64    0.60
  -1  -7  -4   13.75    0.57
   1   7  -4   13.33    0.56
  -1  -7   4   14.40    0.53
   1  -7  -4   13.80    0.60
   1  -7  -4   14.19    0.58
  -1   7  -4   13.80    0.58
  -1   7  -4   14.17    0.56
  -1  -7  -5   45.20    1.59
  -1  -7  -5   40.25    1.54
   1   7  -5   32.86    1.30
  -1  -7  -5   40.61    1.56
  -1   7  -5   35.31    1.33
  -1  -7   5   37.40    1.49
   1  -7  -5   41.44    1.55
  -1  -7  -6    8.11    0.42
  -1  -7  -6    7.71    0.42
  -1  -7  -6    7.54    0.47
   1   7  -6    7.68    0.46
   1  -7  -6    7.51    0.48
  -1   7  -6    7.61    0.46
   1  -7  -6    8.45    0.44
  -1   7  -6    7.48    0.42
   1   7  -7    1.44    0.36
  -1  -7  -7   15.28    0.77
  -1   7  -7    1.13    0.37
  -1   7  -7    0.76    0.27
  -2  -7   0   75.74    2.66
  -2  -7   0   72.58    2.67
  -2  -7   0   74.38    2.66
  -2   7   0   70.28    2.52
  -2   7   0   69.90    2.53
   2  -7   0   73.49    2.66
  -2  -7  -1    6.30    0.28
  -2   7   1    6.13    0.26
  -2  -7  -1    6.13    0.27
  -2  -7  -1    6.43    0.27
  -2   7   1    6.06    0.26
  -2  -7  -1    6.37    0.27
  -2   7  -1    6.15    0.26
  -2   7  -1    5.70    0.27
  -2  -7   1    6.02    0.27
   2  -7  -1    6.52    0.28
  -2  -7  -2   48.25    1.81
  -2  -7  -2   51.11    1.82
  -2  -7  -2   49.11    1.82
  -2  -7  -2   49.91    1.80
   2   7  -2   47.73    1.73
  -2   7  -2   47.14    1.72
  -2   7  -2   47.15    1.73
   2  -7  -2   49.13    1.82
  -2  -7   2   49.51    1.80
  -2  -7  -3    5.34    0.29
  -2  -7  -3    5.29    0.29
  -2  -7  -3    5.38    0.27
  -2  -7  -3    5.52    0.24
   2  -7  -3    5.56    0.28
  -2   7  -3    5.50    0.29
  -2  -7   3    5.64    0.25
  -2   7  -3    5.01    0.29
  -2   7  -3    5.66    0.28
  -2   7  -3    5.38    0.24
  -2  -7  -4   34.13    1.33
  -2  -7  -4   34.18    1.37
  -2  -7  -4   35.85    1.35
  -2  -7   4   37.01    1.30
  -2   7  -4   34.32    1.30
   2  -7  -4   35.46    1.35
  -2  -7  -5    6.82    0.36
  -2  -7  -5    6.23    0.39
  -2  -7  -5    6.38    0.40
  -2   7  -5    6.35    0.40
   2  -7  -5    6.52    0.37
  -2   7  -5    6.57    0.37
  -2  -7   5    6.88    0.31
  -2  -7  -6   23.07    0.97
  -2  -7  -6   22.43    0.92
  -2  -7  -6   20.83    0.90
   2  -7  -6   22.82    0.94
  -2   7  -6   23.82    1.00
  -2   7  -6   21.95    0.94
  -2  -7  -7    2.25    0.37
  -2  -7  -7    2.51    0.41
  -2  -7  -7    3.31    0.36
  -2   7  -7    2.27    0.40
   2  -7  -7    2.59    0.36
  -2   7  -7    2.55    0.47
  -3  -7   0   19.82    0.76
  -3   7   0   18.49    0.71
  -3  -7   0   19.46    0.74
   3  -7   0   19.99    0.75
  -3   7   0   18.43    0.72
  -3  -7   0   19.83    0.75
  -3   7   1   62.93    2.32
  -3  -7  -1   67.58    2.45
  -3   7   1   64.95    2.31
  -3  -7  -1   65.12    2.43
  -3  -7  -1   67.01    2.44
  -3   7  -1   62.78    2.32
  -3   7  -1   64.27    2.32
   3  -7  -1   68.28    2.45
  -3  -7   1   68.31    2.44
  -3  -7  -2   99.60    3.67
  -3  -7  -2   97.41    3.65
  -3   7   2   97.96    3.48
  -3   7   2   97.54    3.49
  -3  -7  -2  101.52    3.65
  -3  -7  -2  102.74    3.64
   3  -7  -2  102.11    3.66
  -3   7  -2   95.44    3.50
  -3  -7   2  103.66    3.65
  -3   7  -2   96.60    3.49
  -3  -7  -3   68.76    2.48
   3   7  -3   66.81    2.39
  -3  -7  -3   70.16    2.52
  -3  -7  -3   66.24    2.50
  -3   7   3   67.10    2.41
  -3  -7  -3   67.58    2.53
  -3  -7   3   69.40    2.49
  -3   7  -3   65.63    2.40
   3  -7  -3   68.74    2.52
  -3   7  -3   65.41    2.46
  -3   7  -3   66.52    2.43
  -3   7   4    5.89    0.30
  -3  -7  -4    6.01    0.37
  -3  -7  -4    5.85    0.33
  -3  -7  -4    5.66    0.36
  -3  -7  -4    5.93    0.27
  -3   7  -4    5.85    0.36
  -3  -7   4    6.46    0.30
  -3   7  -4    5.85    0.27
  -3   7  -4    5.79    0.34
   3  -7  -4    6.00    0.33
  -3  -7  -5   28.05    1.04
  -3  -7  -5   24.27    1.03
  -3  -7  -5   26.98    1.08
  -3   7   5   23.03    0.86
  -3   7  -5   21.61    0.94
  -3  -7   5   23.99    0.98
   3  -7  -5   24.94    1.04
  -3   7  -5   21.34    0.91
  -3  -7  -6    1.77    0.35
  -3  -7  -6    1.72    0.29
  -3  -7  -6    2.48    0.31
   3  -7  -6    2.05    0.29
  -3   7  -6    1.78    0.34
  -3   7  -6    1.92    0.39
  -4  -7   0  152.57    5.41
  -4  -7   0  147.73    5.38
  -4  -7   0  150.89    5.40
  -4   7   0  144.07    5.18
  -4   7   0  144.68    5.20
  -4  -7  -1    0.97    0.17
  -4   7   1    1.03    0.14
  -4   7   1    0.84    0.16
  -4  -7  -1    1.07    0.16
  -4  -7  -1    0.89    0.16
  -4   7  -1    0.83    0.22
  -4  -7   1    1.08    0.14
  -4  -7  -2  144.00    5.18
  -4  -7  -2  145.06    5.18
  -4   7   2  137.87    4.76
  -4  -7  -2  143.70    5.20
  -4  -7   2  144.90    5.18
   4  -7  -2  142.01    5.19
  -4   7  -2  123.13    4.77
  -4   7  -2  134.56    4.76
  -4  -7  -3    1.94    0.21
  -4   7   3    2.15    0.21
  -4  -7  -3    2.17    0.23
   4  -7  -3    2.16    0.21
  -4   7  -3    2.15    0.23
  -4   7  -3    1.92    0.23
  -4  -7   3    1.66    0.19
  -4  -7  -4   80.56    3.17
  -4  -7  -4   88.00    3.10
  -4  -7  -4   84.12    3.19
  -4  -7  -4   89.51    3.16
  -4   7   4   85.10    3.13
  -4  -7   4   86.45    3.12
  -4   7  -4   85.42    3.17
  -4   7  -4   85.49    3.20
   4  -7  -4   85.74    3.16
  -4   7  -4   87.85    3.11
  -4  -7  -5    2.27    0.33
  -4  -7  -5    2.10    0.29
  -4   7   5    2.31    0.29
  -4   7  -5    2.25    0.34
  -4  -7   5    1.76    0.30
   4  -7  -5    2.94    0.30
  -4   7  -5    1.92    0.31
  -4  -7  -6   52.33    2.12
  -4  -7  -6   54.22    2.05
  -4   7  -6   52.56    2.05
   4  -7  -6   53.19    2.06
  -4   7  -6   50.34    2.00
  -5   7   0  102.45    3.75
  -5   7   0  103.58    3.73
  -5  -7   0  111.03    3.95
  -5  -7   0  108.09    3.91
  -5  -7   0  106.67    3.94
  -5  -7  -1  108.51    3.89
  -5   7   1   99.71    3.61
  -5  -7  -1  107.60    3.87
  -5   7   1   96.50    3.59
  -5  -7  -1  105.43    3.88
  -5   7  -1  100.77    3.61
  -5  -7   1  105.74    3.89
  -5   7  -1   99.73    3.61
  -5  -7  -2   12.94    0.56
  -5  -7  -2   12.49    0.57
  -5  -7  -2   12.66    0.59
  -5   7   2   11.73    0.54
  -5  -7   2   13.27    0.57
  -5   7  -2   11.94    0.55
  -5   7  -2   12.00    0.53
  -5  -7  -3   89.59    3.22
  -5  -7  -3   87.94    3.27
  -5  -7  -3   87.26    3.23
  -5   7   3   85.17    3.09
  -5  -7  -3   89.40    3.24
  -5   7  -3   85.60    3.08
  -5  -7   3   86.10    3.22
  -5   7  -3   83.62    3.10
  -5   7  -3   81.84    3.13
  -5   7   4   20.34    0.83
  -5  -7  -4   20.34    0.81
  -5  -7  -4   19.53    0.90
  -5  -7  -4   19.32    0.90
  -5  -7  -4   20.91    0.86
  -5   7  -4   20.17    0.81
  -5  -7   4   19.65    0.82
  -5   7  -4   18.24    0.88
  -5   7  -4   20.25    0.87
  -5  -7  -5   17.60    0.84
  -5  -7  -5   15.64    0.77
  -5  -7  -5   16.06    0.83
  -5   7   5   14.14    0.69
  -5  -7   5   16.47    0.73
  -5   7  -5   15.39    0.73
  -5   7  -5   15.22    0.77
  -6   7   0  183.81    6.56
  -6  -7   0  200.78    7.01
  -6   7   0  180.40    6.58
  -6  -7   0  192.67    7.01
  -6  -7   0  189.46    6.96
  -6  -7  -1    0.31    0.14
  -6   7   1    0.08    0.16
  -6  -7  -1    0.13    0.19
  -6  -7  -1    0.23    0.15
  -6   7   1   -0.05    0.18
  -6   7  -1    0.15    0.14
  -6  -7   1    0.25    0.14
  -6   7  -1    0.27    0.19
  -6   7   2  149.17    5.36
  -6  -7  -2  160.30    5.76
  -6  -7  -2  158.98    5.76
  -6  -7  -2  160.77    5.80
  -6  -7   2  156.89    5.77
  -6   7  -2  149.57    5.36
  -6   7  -2  142.50    5.39
  -6   7  -2  149.60    5.36
  -6  -7  -3    0.23    0.23
  -6   7   3    0.27    0.21
  -6  -7  -3    0.76    0.24
  -6  -7  -3    0.23    0.21
  -6  -7  -3    0.00    0.16
  -6  -7   3    0.38    0.19
  -6   7  -3    0.08    0.18
  -6   7  -3   -0.11    0.23
  -6   7  -3    0.25    0.24
  -6   7   4  111.19    3.99
  -6  -7  -4  113.74    4.05
  -6  -7  -4  112.43    4.10
  -6  -7  -4  108.79    4.11
  -6  -7  -4  110.09    4.14
  -6   7  -4  105.91    4.02
  -6  -7   4  110.22    4.06
  -6   7  -4  104.10    4.05
  -6   7  -4  113.19    3.97
  -7  -7   0    1.95    0.32
  -7   7   0    1.49    0.25
  -7  -7   0    1.56    0.29
  -7  -7   0    1.90    0.25
  -7   7   0    1.81    0.35
  -7   7   1   78.59    3.04
  -7  -7  -1   88.95    3.33
  -7  -7  -1   90.99    3.35
  -7  -7  -1   92.69    3.31
  -7   7   1   83.93    3.01
  -7   7  -1   82.65    3.03
  -7   7  -1   80.37    3.04
  -7  -7   1   85.85    3.33
  -7  -7   1   91.01    3.33
  -7   7   2   11.85    0.62
  -7  -7  -2   12.75    0.61
  -7  -7  -2   12.29    0.63
  -7  -7  -2   12.80    0.67
  -7   7  -2   11.32    0.67
  -7  -7   2   11.94    0.62
  -7   7  -2   11.70    0.63
  -7   7  -2   11.63    0.59
   0  -8   0   63.94    2.25
   0   8   0   62.92    2.21
   0  -8   0   60.48    2.25
   0   8   0   59.45    2.21
   0  -8  -1   -0.58    0.04
   0   8  -1   -0.51    0.06
   0  -8   1   -0.55    0.04
   0  -8   1   -0.50    0.04
   0  -8  -1   -0.45    0.06
   0   8  -1   -0.55    0.05
   0  -8  -1   -0.45    0.07
   0  -8  -2    5.24    0.26
   0  -8   2    5.63    0.24
   0  -8  -2    5.52    0.26
   0   8  -2    4.76    0.23
   0   8  -2    5.04    0.23
   0   8  -2    5.09    0.22
   0   8  -3   -0.09    0.08
   0   8  -3   -0.10    0.07
   0  -8   3   -0.05    0.06
   0  -8  -3   -0.01    0.09
   0  -8  -3    0.00    0.09
   0   8  -4   30.81    1.17
   0  -8   4   31.75    1.17
   0  -8  -4   31.59    1.23
   0  -8  -4   31.63    1.21
   0  -8  -5    0.19    0.14
   0  -8   5    0.14    0.12
   0   8  -5    0.10    0.17
   0  -8  -5    0.41    0.17
   0  -8  -6   27.23    1.07
   0  -8  -6   25.84    1.10
   0   8  -6   25.26    1.04
   0   8  -7    0.41    0.34
   0  -8  -7    0.33    0.26
   0  -8  -7    0.22    0.31
   1   8   0   22.10    0.80
  -1  -8   0   23.30    0.84
  -1   8   0   21.18    0.81
  -1  -8   0   21.51    0.86
   1   8   0   21.22    0.80
   1  -8   0   23.45    0.86
  -1  -8   0   22.92    0.86
  -1   8  -1  523.53   18.60
  -1  -8  -2    5.25    0.27
  -1  -8  -2    5.30    0.25
  -1  -8  -2    5.45    0.24
   1   8  -2    5.07    0.23
   1  -8   2    5.54    0.25
  -1  -8  -2    5.47    0.27
   1  -8  -2    5.57    0.26
  -1  -8   2    5.32    0.24
   1  -8  -2    5.17    0.27
  -1   8  -2    4.94    0.24
  -1   8  -2    4.93    0.24
  -1   8  -2    5.18    0.23
  -1   8  -2    5.33    0.24
  -1  -8  -3  476.10   17.11
  -1  -8  -3  482.18   17.10
  -1  -8  -3  464.45   17.12
  -1   8  -3  483.73   16.78
  -1   8  -3  459.81   16.80
   1  -8  -3  488.16   17.11
   1  -8  -3  469.56   17.12
  -1  -8   3  502.82   17.08
   1   8  -4    0.44    0.13
  -1  -8  -4    0.66    0.16
   1  -8  -4    1.00    0.19
  -1  -8   4    0.78    0.11
  -1   8  -4    0.48    0.12
   1  -8  -4    0.69    0.24
  -1   8  -4    0.85    0.18
  -1  -8  -5  352.65   12.49
   1   8  -5  329.25   12.26
  -1  -8  -5  337.86   12.54
  -1  -8  -5  351.32   12.50
  -1  -8   5  368.49   12.45
  -1   8  -5  350.10   12.29
  -1   8  -5  351.18   12.30
   1  -8  -5  342.21   12.54
   1  -8  -5  347.36   12.51
  -1  -8  -6    1.69    0.29
   1   8  -6    0.81    0.28
  -1  -8  -6    1.28    0.25
  -1  -8  -6    1.64    0.25
   1  -8  -6    1.48    0.31
  -1   8  -6    1.20    0.28
   1  -8  -6    1.45    0.25
  -1   8  -6    0.82    0.20
  -1  -8  -7  188.12    6.90
  -1  -8  -7  192.53    6.82
   1  -8  -7  190.93    6.84
  -1   8  -7  184.84    6.86
   1  -8  -7  183.98    6.89
  -1   8  -7  192.36    6.80
  -2   8   0    0.45    0.10
  -2  -8   0    0.38    0.08
   2  -8   0    0.63    0.08
  -2   8   0    0.76    0.10
  -2  -8   0    0.70    0.08
  -2  -8   0    0.62    0.08
  -2  -8  -1    5.88    0.27
  -2  -8  -1    6.02    0.26
  -2  -8  -1    5.99    0.26
  -2  -8  -1    6.00    0.27
   2  -8   1    5.98    0.24
  -2   8  -1    5.67    0.25
  -2  -8   1    5.77    0.26
   2  -8  -1    6.03    0.27
  -2   8  -1    5.50    0.26
  -2  -8  -2   31.29    1.14
  -2  -8  -2   29.93    1.14
  -2  -8  -2   31.65    1.16
  -2  -8  -2   30.75    1.16
  -2   8  -2   29.55    1.10
  -2   8  -2   29.15    1.09
  -2  -8   2   30.38    1.14
   2  -8  -2   30.16    1.16
  -2  -8  -3   19.10    0.73
  -2  -8  -3   18.68    0.76
  -2  -8  -3   19.11    0.71
  -2  -8  -3   18.13    0.76
  -2   8  -3   18.73    0.70
   2  -8  -3   18.69    0.74
  -2   8  -3   18.39    0.74
  -2  -8   3   18.74    0.71
  -2   8  -3   18.04    0.73
  -2  -8  -4    8.30    0.41
  -2  -8  -4    7.76    0.38
  -2  -8  -4    8.29    0.42
   2  -8  -4    8.22    0.40
  -2  -8   4    8.41    0.35
  -2   8  -4    7.53    0.38
  -2  -8  -5    4.53    0.33
  -2  -8  -5    5.39    0.32
  -2  -8  -5    5.73    0.36
  -2  -8   5    5.01    0.27
  -2   8  -5    4.73    0.32
  -2   8  -5    4.88    0.36
   2  -8  -5    5.39    0.33
  -2  -8  -6    6.59    0.41
  -2  -8  -6    7.65    0.42
  -2  -8  -6    7.13    0.47
  -2   8  -6    6.93    0.45
  -2   8  -6    7.40    0.49
   2  -8  -6    7.55    0.43
  -2  -8  -7    3.44    0.40
  -2  -8  -7    2.90    0.39
  -2  -8  -7    2.78    0.38
   2  -8  -7    3.01    0.38
  -2   8  -7    2.21    0.48
  -2   8  -7    2.85    0.42
  -3   8   0   30.54    1.14
  -3   8   0   30.25    1.13
  -3  -8   0   32.62    1.20
  -3  -8   0   33.35    1.21
  -3  -8   0   32.11    1.22
   3  -8   0   32.42    1.21
  -3  -8  -1  346.68   12.49
  -3  -8  -1  349.42   12.48
  -3  -8  -1  352.88   12.50
  -3   8   1  339.90   12.08
  -3   8   1  339.72   12.07
   3  -8  -1  353.45   12.49
  -3   8  -1  339.60   12.08
  -3  -8   1  350.53   12.49
  -3   8  -1  336.93   12.08
  -3   8   2   17.10    0.65
  -3  -8  -2   18.44    0.70
  -3  -8  -2   17.88    0.71
  -3  -8  -2   18.09    0.71
  -3   8   2   16.74    0.66
  -3  -8  -2   17.44    0.72
  -3   8  -2   16.72    0.67
  -3  -8   2   18.04    0.70
  -3   8  -2   16.41    0.66
   3  -8  -2   17.94    0.72
  -3  -8  -3  245.70    9.08
  -3   8   3  252.03    8.79
  -3  -8  -3  255.16    9.07
  -3  -8  -3  251.06    9.05
  -3  -8  -3  255.45    9.03
  -3   8  -3  241.94    8.83
   3  -8  -3  252.43    9.07
  -3   8  -3  249.45    8.79
  -3   8  -3  241.38    8.81
  -3  -8   3  259.26    9.04
  -3  -8  -4    0.84    0.19
  -3  -8  -4    0.71    0.13
  -3  -8  -4    0.71    0.14
  -3   8   4    1.04    0.18
  -3  -8   4    0.58    0.12
  -3   8  -4    0.63    0.16
  -3   8  -4    0.58    0.19
  -3   8  -4    0.58    0.10
   3  -8  -4    0.98    0.18
  -3   8   5  175.93    6.21
  -3  -8  -5  173.59    6.52
  -3  -8  -5  176.71    6.47
  -3  -8  -5  180.76    6.48
  -3  -8   5  186.96    6.43
   3  -8  -5  178.77    6.49
  -3   8  -5  172.96    6.26
  -3   8  -5  170.71    6.29
  -3  -8  -6    3.54    0.39
  -3  -8  -6    3.95    0.36
  -3  -8  -6    3.46    0.33
  -3   8  -6    2.81    0.37
  -3   8  -6    2.76    0.42
   3  -8  -6    2.72    0.32
  -4   8   0    7.66    0.46
  -4  -8   0    8.39    0.37
  -4   8   0    8.25    0.38
  -4  -8   0    8.84    0.38
  -4   8   1   24.30    0.89
  -4  -8  -1   26.08    0.99
  -4  -8  -1   24.10    1.01
  -4  -8  -1   25.04    0.97
  -4   8   1   23.93    0.91
   4  -8  -1   25.31    0.98
  -4   8  -1   21.40    0.93
  -4   8  -1   23.14    0.92
  -4  -8   1   26.31    0.98
  -4  -8  -2    8.79    0.44
  -4  -8  -2    9.25    0.42
  -4  -8  -2    9.60    0.42
  -4   8   2    9.13    0.40
  -4   8   2    9.19    0.42
  -4   8  -2    9.12    0.44
  -4  -8   2    9.52    0.42
   4  -8  -2    9.12    0.43
  -4   8  -2    8.97    0.42
  -4  -8  -3    1.50    0.25
  -4   8   3    1.13    0.20
  -4  -8  -3    1.45    0.23
  -4  -8  -3    1.49    0.19
  -4  -8  -3    1.54    0.20
  -4  -8   3    1.36    0.17
  -4   8  -3    1.32    0.22
   4  -8  -3    1.43    0.19
  -4   8  -3    1.45    0.21
  -4   8  -3    1.43    0.19
  -4  -8  -4    4.50    0.33
  -4  -8  -4    4.60    0.35
  -4   8   4    4.01    0.30
  -4  -8  -4    5.18    0.39
  -4  -8  -4    4.33    0.27
  -4   8  -4    4.03    0.26
   4  -8  -4    5.18    0.32
  -4   8  -4    4.67    0.35
  -4   8  -4    4.33    0.33
  -4  -8   4    4.82    0.32
  -4   8   5   15.89    0.78
  -4  -8  -5   19.56    0.89
  -4  -8  -5   19.56    0.87
  -4  -8  -5   19.77    0.84
   4  -8  -5   19.39    0.85
  -4   8  -5   18.30    0.79
  -4  -8   5   19.00    0.85
  -4   8  -5   18.68    0.83
  -4  -8  -6    4.13    0.44
  -4  -8  -6    3.88    0.41
  -4  -8  -6    3.07    0.37
  -4   8  -6    2.62    0.39
  -4   8  -6    2.98    0.45
   4  -8  -6    3.06    0.36
  -5   8   0    2.68    0.23
  -5  -8   0    2.98    0.22
  -5  -8   0    2.91    0.23
  -5  -8   0    2.59    0.22
  -5   8   0    2.83    0.25
  -5   8   1  107.68    4.06
  -5  -8  -1  121.96    4.37
  -5  -8  -1  121.02    4.36
  -5   8   1  113.15    4.08
  -5  -8  -1  118.26    4.34
  -5   8  -1  113.58    4.08
  -5   8  -1  114.90    4.08
  -5  -8   1  119.59    4.36
  -5   8   2    2.42    0.24
  -5   8   2    2.38    0.25
  -5  -8  -2    2.65    0.23
  -5  -8  -2    2.48    0.21
  -5  -8  -2    2.34    0.25
  -5  -8  -2    2.72    0.23
  -5   8  -2    2.17    0.25
  -5  -8   2    2.20    0.22
  -5   8  -2    2.15    0.22
  -5  -8  -3   91.33    3.36
  -5   8   3   89.16    3.22
  -5  -8  -3   91.89    3.40
  -5  -8  -3   92.78    3.37
  -5  -8  -3   92.63    3.34
  -5   8  -3   85.18    3.26
  -5   8  -3   88.94    3.21
  -5  -8   3   89.87    3.35
  -5   8  -3   87.96    3.23
  -5  -8  -4    0.65    0.21
  -5   8   4    0.85    0.20
  -5  -8  -4    0.57    0.16
  -5  -8  -4    0.73    0.30
  -5  -8  -4    0.76    0.26
  -5  -8   4    0.93    0.19
  -5   8  -4    0.51    0.21
  -5   8  -4    0.75    0.18
  -5   8  -4    0.57    0.25
  -5  -8  -5   49.28    1.93
  -5  -8  -5   46.06    1.91
  -5   8   5   45.32    1.75
  -5  -8  -5   48.66    1.88
  -5   8  -5   45.72    1.84
  -5  -8   5   49.27    1.83
  -5   8  -5   46.41    1.80
  -6  -8   0   18.37    0.78
  -6  -8   0   18.34    0.78
  -6  -8   0   18.04    0.74
  -6   8   0   15.91    0.72
  -6   8   0   16.80    0.72
  -6   8   1    6.72    0.40
  -6  -8  -1    7.33    0.39
  -6   8   1    6.83    0.39
  -6  -8  -1    6.82    0.38
  -6  -8  -1    6.73    0.41
  -6   8  -1    7.02    0.41
  -6   8  -1    6.23    0.38
  -6  -8   1    6.80    0.39
  -6  -8   1    6.74    0.39
  -6  -8  -2    0.42    0.22
  -6   8   2    0.04    0.17
  -6  -8  -2    0.27    0.15
  -6  -8  -2    0.53    0.19
  -6   8  -2    0.53    0.18
  -6  -8   2    0.49    0.17
  -6   8  -2    0.26    0.21
  -6  -8  -3   18.55    0.81
  -6  -8  -3   18.50    0.78
  -6  -8  -3   19.05    0.85
  -6  -8  -3   17.49    0.80
  -6   8   3   16.82    0.77
  -6   8  -3   17.70    0.75
  -6   8  -3   17.18    0.82
  -6   8  -3   17.11    0.79
  -6  -8   3   17.46    0.79
  -6  -8  -4    3.67    0.48
  -6  -8  -4    3.50    0.43
  -6  -8  -4    3.17    0.40
  -6  -8  -4    3.16    0.33
  -6   8   4    2.66    0.38
  -6   8  -4    3.18    0.34
  -6   8  -4    2.56    0.40
  -6  -8   4    4.17    0.36
  -6   8  -4    2.54    0.42
  -7  -8   0    0.16    0.18
  -7  -8   0    0.05    0.24
  -7   8   0   -0.13    0.24
  -7  -8   0    0.46    0.20
  -7   8   0    0.02    0.19
  -7  -8  -1   19.17    0.88
  -7   8   1   16.27    0.78
  -7  -8  -1   18.92    0.85
  -7   8   1   16.32    0.79
  -7  -8  -1   19.57    0.84
  -7  -8   1   19.86    0.85
  -7  -8   1   18.96    0.86
  -7   8  -1   18.61    0.89
  -7   8  -1   17.90    0.80
  -7   8   2    0.26    0.24
  -7  -8  -2    0.59    0.20
  -7  -8  -2    0.44    0.31
  -7  -8  -2    0.86    0.25
  -7  -8   2    0.58    0.22
  -7   8  -2    0.11    0.21
  -7   8  -2    0.27    0.30
  -7   8  -2    0.40    0.26
   0   9   0    0.17    0.07
   0  -9   0    0.16    0.05
   0   9   0    0.33    0.08
   0  -9   1   13.48    0.52
   0  -9  -1   13.63    0.52
   0  -9  -1   13.54    0.53
   0  -9   1   13.64    0.51
   0  -9  -1   13.04    0.52
   0   9  -2    0.01    0.06
   0  -9   2    0.11    0.06
   0   9  -2    0.01    0.07
   0  -9  -3    7.76    0.35
   0   9  -3    7.63    0.32
   0  -9   3    7.42    0.32
   0  -9  -3    7.15    0.35
   0   9  -3    7.40    0.32
   0  -9   4    0.14    0.08
   0   9  -4    0.34    0.13
   0  -9  -5    9.09    0.44
   0  -9  -5    8.68    0.45
   0  -9   5    8.60    0.39
   0   9  -5    8.28    0.43
   0  -9  -6    4.03    0.33
   0   9  -6    0.56    0.24
   0  -9  -7    2.74    0.36
   0   9  -7    2.90    0.46
   0  -9  -7    2.72    0.41
  -1  -9   0   42.53    1.58
   1  -9   0   43.90    1.58
  -1  -9   0   43.67    1.59
  -1   9   0   40.13    1.50
  -1  -9   0   44.21    1.57
   1   9   0   42.67    1.50
  -1  -9  -1    0.78    0.09
  -1  -9  -1    0.66    0.08
   1  -9   1    0.84    0.07
  -1  -9  -1    0.88    0.10
  -1   9  -1    0.90    0.09
   1  -9  -1    0.82    0.10
  -1  -9   1    0.92    0.08
  -1   9  -1    0.66    0.10
  -1  -9  -2    6.76    0.31
   1   9  -2    6.38    0.27
   1  -9   2    6.88    0.29
  -1  -9  -2    6.59    0.32
  -1  -9  -2    7.01    0.29
  -1  -9  -2    6.75    0.29
  -1   9  -2    6.11    0.28
  -1  -9   2    6.85    0.29
  -1   9  -2    6.52    0.28
   1  -9  -2    7.04    0.31
  -1   9  -2    6.41    0.27
   1  -9  -2    6.82    0.32
  -1  -9  -3   26.71    1.05
   1  -9   3   26.73    1.01
  -1  -9  -3   27.43    1.04
  -1  -9  -3   26.74    1.02
   1  -9  -3   27.12    1.05
  -1   9  -3   26.07    0.99
  -1   9  -3   26.03    1.00
  -1  -9   3   28.15    1.00
  -1   9  -3   26.41    0.97
   1  -9  -3   26.74    1.04
  -1   9  -3   26.72    0.96
  -1  -9  -4   14.61    0.59
  -1  -9  -4   13.96    0.62
  -1  -9  -4   14.72    0.61
   1  -9  -4   14.17    0.63
   1  -9  -4   14.58    0.61
  -1   9  -4   13.63    0.59
  -1  -9   4   14.65    0.56
  -1   9  -4   14.18    0.58
  -1  -9  -5    4.21    0.29
  -1  -9  -5    4.71    0.32
  -1  -9  -5    3.78    0.27
  -1   9  -5    3.41    0.28
  -1   9  -5    3.01    0.31
   1  -9  -5    3.66    0.28
  -1  -9  -6    7.77    0.44
  -1  -9  -6    9.00    0.46
   1   9  -6    7.69    0.49
  -1  -9  -6    8.34    0.50
   1  -9  -6    8.53    0.51
  -1   9  -6    8.65    0.50
   1  -9  -6    8.24    0.46
  -1   9  -6    8.59    0.46
  -1  -9  -7   12.44    0.70
  -1  -9  -7   11.73    0.63
  -1   9  -7   15.60    0.81
   1  -9  -7   10.95    0.63
   1  -9  -7   12.96    0.70
  -2   9   0   36.28    1.34
  -2   9   0   36.50    1.34
   2  -9   0   39.43    1.43
  -2  -9   0   38.36    1.43
  -2  -9   0   39.41    1.42
  -2  -9  -1    6.03    0.27
  -2  -9  -1    5.86    0.26
  -2  -9  -1    6.06    0.27
  -2  -9  -1    5.98    0.27
   2  -9   1    6.26    0.25
  -2   9  -1    5.47    0.23
  -2  -9   1    6.21    0.27
  -2   9  -1    5.73    0.26
   2  -9  -1    5.84    0.27
  -2   9  -1    5.32    0.25
  -2  -9  -2   22.15    0.87
  -2  -9  -2   23.21    0.89
  -2  -9  -2   23.70    0.89
  -2  -9  -2   23.20    0.86
  -2   9  -2   21.36    0.81
   2  -9  -2   22.77    0.88
  -2   9  -2   21.29    0.82
  -2  -9   2   22.07    0.86
  -2  -9  -3   12.29    0.54
  -2  -9  -3   12.14    0.54
  -2  -9  -3   12.77    0.49
  -2  -9  -3   11.99    0.52
   2   9  -3   12.93    0.47
  -2   9  -3   11.89    0.51
  -2  -9   3   13.16    0.50
  -2   9  -3   11.88    0.48
   2  -9  -3   12.40    0.53
  -2   9  -3   11.87    0.52
  -2  -9  -4   16.21    0.69
  -2  -9  -4   16.49    0.67
  -2  -9  -4   16.57    0.70
   2  -9  -4   16.26    0.68
  -2   9  -4   14.39    0.62
  -2  -9   4   15.63    0.63
  -2  -9  -5    8.15    0.42
  -2  -9  -5    8.45    0.44
  -2  -9  -5    8.08    0.45
  -2   9  -5    7.99    0.45
   2  -9  -5    8.70    0.44
  -2   9  -5    7.61    0.41
  -2  -9   5    8.97    0.38
  -2  -9  -6   12.59    0.62
  -2  -9  -6   10.84    0.56
  -2  -9  -6   11.63    0.57
  -2   9  -6    8.61    0.53
   2  -9  -6   10.93    0.57
  -2   9  -6    8.11    0.49
  -3   9   0   19.19    0.73
  -3  -9   0   20.75    0.80
  -3   9   0   18.76    0.74
  -3  -9   0   20.87    0.78
   3  -9   0   20.29    0.79
  -3  -9   0   20.86    0.78
  -3   9   1   33.61    1.22
  -3  -9  -1   35.15    1.30
  -3  -9  -1   35.24    1.30
  -3   9   1   32.48    1.23
  -3  -9  -1   33.98    1.29
  -3   9  -1   32.64    1.23
  -3  -9   1   34.41    1.30
  -3   9  -1   32.46    1.23
   3  -9  -1   35.06    1.30
  -3  -9  -2   13.75    0.59
  -3   9   2   13.70    0.54
  -3  -9  -2   14.63    0.57
  -3  -9  -2   13.93    0.58
  -3   9   2   13.49    0.55
  -3  -9  -2   14.44    0.57
  -3  -9   2   14.13    0.57
  -3   9  -2   13.35    0.55
   3  -9  -2   13.86    0.58
  -3   9  -2   13.33    0.56
  -3   9   3   13.65    0.55
  -3  -9  -3   13.89    0.61
  -3  -9  -3   13.85    0.55
  -3  -9  -3   13.43    0.58
  -3   9  -3   12.91    0.59
   3  -9  -3   13.49    0.59
  -3  -9   3   14.35    0.56
  -3   9  -3   13.12    0.57
  -3   9  -3   13.31    0.54
  -3  -9  -4    1.53    0.16
  -3   9   4    1.88    0.20
  -3  -9  -4    1.26    0.20
  -3  -9  -4    1.63    0.23
  -3  -9  -4    1.73    0.28
  -3   9  -4    1.60    0.24
  -3   9  -4    1.67    0.23
   3  -9  -4    1.53    0.21
  -3  -9   4    1.70    0.18
  -3   9  -4    1.22    0.16
  -3  -9  -5   22.04    0.95
  -3  -9  -5   22.67    0.99
  -3  -9  -5   23.82    0.97
  -3   9   5   21.59    0.85
  -3   9  -5   21.68    0.93
   3  -9  -5   23.41    0.97
  -3   9  -5   21.56    0.90
  -3  -9   5   24.90    0.92
  -3  -9  -6    5.16    0.42
  -3  -9  -6    4.64    0.37
  -3  -9  -6    4.56    0.39
  -3   9  -6    3.44    0.39
  -3   9  -6    4.55    0.45
   3  -9  -6    4.60    0.38
  -4  -9   0   33.27    1.30
  -4   9   0   30.79    1.10
  -4  -9   0   34.18    1.26
  -4   9   0   26.97    1.13
  -4  -9   0   34.83    1.28
  -4   9   1    3.39    0.24
  -4  -9  -1    3.54    0.22
  -4  -9  -1    3.49    0.24
  -4  -9  -1    3.31    0.22
  -4   9  -1    3.34    0.25
   4  -9  -1    3.32    0.22
  -4  -9   1    3.70    0.20
  -4   9  -1    3.15    0.22
  -4   9   2   42.83    1.68
  -4  -9  -2   48.67    1.80
  -4  -9  -2   48.89    1.81
  -4  -9  -2   48.80    1.80
  -4  -9  -2   49.06    1.83
  -4   9   2   46.69    1.66
  -4   9  -2   44.66    1.68
   4  -9  -2   47.16    1.81
  -4   9  -2   45.70    1.69
  -4  -9  -3   10.17    0.48
  -4  -9  -3   10.86    0.50
  -4   9   3    9.49    0.45
  -4  -9  -3   10.55    0.51
  -4  -9  -3    9.97    0.46
  -4   9  -3    9.46    0.48
  -4   9  -3    9.54    0.47
   4  -9  -3    9.99    0.48
  -4   9  -3    9.77    0.44
  -4  -9  -4   43.37    1.72
  -4  -9  -4   45.08    1.68
  -4  -9  -4   44.39    1.72
  -4   9   4   36.84    1.61
  -4  -9  -4   44.55    1.64
  -4   9  -4   41.92    1.54
   4  -9  -4   43.77    1.70
  -4  -9   4   43.98    1.69
  -4   9  -4   40.06    1.56
  -4   9   5    8.75    0.56
  -4  -9  -5   10.64    0.59
  -4  -9  -5   10.33    0.60
  -4  -9  -5   10.95    0.55
   4  -9  -5   10.64    0.56
  -4  -9   5   10.72    0.52
  -4   9  -5    9.75    0.52
  -4   9  -5    9.24    0.56
  -4  -9  -6   38.62    1.48
  -4  -9  -6   36.11    1.48
  -4  -9  -6   35.80    1.53
   4  -9  -6   36.19    1.49
  -4   9  -6   32.69    1.42
  -4   9  -6   33.31    1.36
  -5   9   0    1.80    0.24
  -5  -9   0    2.33    0.20
  -5  -9   0    1.99    0.20
  -5   9   0    1.67    0.20
  -5  -9   0    2.26    0.22
  -5  -9  -1   49.76    1.85
  -5  -9  -1   49.46    1.87
  -5   9   1   45.07    1.73
  -5   9   1   45.35    1.71
  -5  -9  -1   50.37    1.88
  -5   9  -1   46.22    1.73
  -5  -9   1   51.24    1.85
  -5  -9   1   48.67    1.87
  -5   9  -1   47.21    1.73
  -5  -9  -2   11.97    0.56
  -5   9   2    9.95    0.53
  -5  -9  -2   11.64    0.53
  -5  -9  -2   12.76    0.54
  -5  -9  -2   12.02    0.54
  -5   9   2   11.08    0.51
  -5   9  -2   11.24    0.51
  -5  -9   2   11.74    0.54
  -5   9  -2   11.67    0.52
  -5  -9  -3   14.88    0.67
  -5   9   3   12.73    0.61
  -5  -9  -3   15.41    0.64
  -5  -9  -3   15.20    0.67
  -5  -9  -3   15.05    0.69
  -5  -9   3   14.17    0.65
  -5   9  -3   14.38    0.64
  -5   9  -3   13.81    0.66
  -5   9  -3   14.46    0.61
  -5  -9  -4    2.39    0.33
  -5  -9  -4    2.49    0.30
  -5  -9  -4    2.33    0.38
  -5   9   4    2.47    0.30
  -5  -9  -4    1.93    0.24
  -5  -9   4    2.24    0.27
  -5   9  -4    2.19    0.26
  -5   9  -4    2.10    0.31
  -5   9  -4    1.55    0.33
  -5  -9  -5   18.38    0.89
  -5  -9  -5   17.05    0.93
  -5   9   5   17.67    0.78
  -5  -9  -5   18.84    0.84
  -5   9  -5   17.05    0.86
  -5   9  -5   17.14    0.82
  -5  -9   5   18.39    0.80
  -6  -9   0   33.56    1.33
  -6   9   0   30.47    1.23
  -6  -9   0   34.69    1.30
  -6   9   0   31.33    1.22
  -6  -9   0   33.75    1.32
  -6  -9  -1    5.44    0.34
  -6  -9  -1    5.00    0.37
  -6   9   1    4.50    0.33
  -6  -9  -1    5.70    0.34
  -6   9   1    4.60    0.35
  -6   9  -1    5.15    0.36
  -6  -9   1    5.28    0.34
  -6   9  -1    5.21    0.34
  -6  -9   1    4.81    0.33
  -6  -9  -2   39.67    1.54
  -6   9   2   37.43    1.38
  -6  -9  -2   39.91    1.57
  -6   9   2   36.28    1.42
  -6  -9  -2   39.47    1.54
  -6  -9  -2   40.80    1.55
  -6   9  -2   35.42    1.42
  -6   9  -2   35.21    1.41
  -6  -9   2   39.88    1.55
  -6  -9  -3    2.14    0.33
  -6  -9  -3    2.37    0.34
  -6  -9  -3    2.35    0.32
  -6   9   3    1.57    0.31
  -6  -9  -3    2.35    0.27
  -6   9  -3    1.90    0.28
  -6   9  -3    2.18    0.34
  -6   9  -3    1.61    0.35
  -6  -9   3    2.21    0.29
  -6   9   4   55.74    2.07
  -6  -9  -4   56.02    2.24
  -6  -9  -4   57.68    2.15
  -6  -9  -4   57.21    2.23
  -6  -9  -4   58.84    2.21
  -6   9  -4   55.41    2.04
  -6   9  -4   52.66    2.11
  -6  -9   4   57.11    2.17
  -6   9  -4   52.47    2.14
  -7  -9   0    0.34    0.20
  -7   9   0    0.17    0.20
  -7  -9   0    0.15    0.21
  -7  -9   0    0.44    0.25
  -7   9   0    0.50    0.27
  -7   9   1   14.36    0.70
  -7   9   1   13.74    0.70
  -7  -9  -1   15.98    0.74
  -7  -9  -1   16.53    0.73
  -7  -9  -1   17.02    0.78
  -7  -9   1   15.83    0.74
  -7   9  -1   14.66    0.75
  -7   9  -1   15.75    0.73
  -7  -9   1   14.89    0.74
  -7  -9  -2    2.00    0.38
  -7   9   2    1.77    0.30
  -7  -9  -2    2.30    0.29
  -7  -9  -2    2.73    0.34
  -7  -9  -2    3.00    0.35
  -7  -9   2    2.44    0.33
  -7  -9   2    2.18    0.36
  -7   9  -2    2.11    0.41
  -7   9  -2    1.92    0.31
  -7   9  -2    1.86    0.31
   0  10   0  921.06   32.70
   0 -10   1    0.00    0.05
   0 -10  -1    0.12    0.07
   0 -10   1   -0.01    0.05
   0 -10  -1    0.02    0.06
   0 -10  -1    0.00    0.08
   0 -10   2  369.21   13.05
   0 -10  -2  364.37   13.06
   0 -10  -2  366.33   13.07
   0  10  -2  367.46   13.07
   0 -10  -3   -0.04    0.10
   0  10  -3    0.05    0.09
   0 -10   3    0.00    0.07
   0 -10  -3    0.10    0.10
   0  10  -3   -0.06    0.09
   0  10  -4  264.78    9.45
   0 -10  -4  270.95    9.57
   0 -10  -4  262.92    9.57
   0 -10  -5    0.21    0.16
   0  10  -5    0.03    0.18
   0 -10   5    0.24    0.13
   0  10  -6  111.13    4.06
   0 -10  -6  122.29    4.53
   0 -10  -6  123.83    4.49
   0 -10  -7    0.64    0.31
   0  10  -7    0.39    0.35
   0 -10  -7   -0.02    0.26
  -1 -10   0    8.21    0.34
  -1 -10   0    8.37    0.34
  -1 -10   0    8.81    0.33
   1 -10   0    8.32    0.34
  -1 -10  -1  117.95    4.26
   1 -10   1  119.57    4.24
   1 -10   1  116.57    4.26
  -1 -10  -1  118.18    4.27
  -1 -10  -1  117.64    4.26
  -1  10  -1  110.90    4.10
  -1 -10   1  118.76    4.25
  -1  10  -1  117.70    4.08
   1 -10  -1  122.22    4.27
  -1 -10  -2    8.97    0.39
  -1 -10  -2    9.00    0.37
   1 -10   2    8.93    0.38
  -1 -10  -2    9.02    0.40
   1 -10  -2    9.22    0.41
   1 -10  -2    9.26    0.40
  -1  10  -2    8.41    0.35
  -1 -10   2    9.14    0.37
  -1  10  -2    8.87    0.37
  -1 -10  -3   78.15    2.83
   1 -10   3   76.79    2.85
  -1 -10  -3   79.40    2.89
  -1 -10  -3   76.33    2.88
  -1 -10  -3   79.17    2.86
  -1  10  -3   77.16    2.80
  -1 -10   3   81.82    2.85
  -1  10  -3   78.83    2.82
  -1  10  -3   79.28    2.80
   1 -10  -3   81.32    2.88
  -1  10  -3   77.09    2.83
   1 -10  -3   78.72    2.89
  -1 -10  -4    0.84    0.14
  -1 -10  -4    0.94    0.18
  -1  10  -4    0.79    0.15
  -1 -10   4    0.82    0.12
  -1  10  -4    0.90    0.17
   1 -10  -4    0.70    0.15
   1 -10  -4    1.09    0.19
  -1 -10  -5   41.96    1.57
   1  10  -5   39.44    1.52
  -1 -10  -5   40.10    1.59
  -1 -10  -5   41.69    1.54
   1 -10  -5   41.57    1.57
  -1  10  -5   42.25    1.54
  -1  10  -5   39.76    1.59
  -1 -10   5   40.29    1.51
   1 -10  -5   39.90    1.59
  -1 -10  -6    0.24    0.23
  -1 -10  -6    0.49    0.23
   1  10  -6    0.63    0.31
  -1  10  -6    0.37    0.27
   1 -10  -6    0.45    0.25
   1 -10  -6    0.51    0.21
  -1  10  -6    0.49    0.21
  -1 -10  -7   32.19    1.35
  -1 -10  -7   31.80    1.29
  -1  10  -7   29.15    1.26
   1 -10  -7   29.93    1.35
   1 -10  -7   32.01    1.30
  -2 -10   0  332.52   11.84
  -2  10   0  322.93   11.39
  -2  10   0  316.60   11.39
  -2 -10  -1    4.48    0.21
   2 -10   1    4.53    0.19
  -2 -10  -1    4.38    0.22
  -2 -10  -1    4.40    0.21
  -2 -10  -1    4.52    0.22
   2 -10  -1    4.37    0.23
  -2  10  -1    4.09    0.21
  -2  10  -1    4.14    0.19
  -2  10  -1    4.08    0.22
  -2 -10   1    4.35    0.21
  -2 -10  -2  435.97   15.28
  -2 -10  -2  427.20   15.27
  -2 -10  -2  423.62   15.26
  -2  10  -2  425.81   14.97
  -2 -10   2  434.19   15.26
   2 -10  -2  422.87   15.27
  -2  10  -2  415.30   14.96
  -2 -10  -3   25.34    1.00
  -2 -10  -3   23.57    1.05
  -2 -10  -3   26.27    1.00
   2  10  -3   26.21    0.94
  -2 -10  -3   27.17    0.95
  -2  10  -3   24.98    0.98
  -2  10  -3   25.32    0.95
  -2 -10   3   26.78    0.95
   2 -10  -3   22.39    1.03
  -2  10  -3   25.73    1.00
  -2 -10  -4  161.78    6.31
  -2 -10  -4  174.29    6.32
  -2 -10  -4  177.45    6.29
  -2  10  -4  176.89    6.35
   2 -10  -4  176.39    6.31
  -2 -10   4  185.10    6.26
  -2 -10  -5    5.20    0.32
  -2 -10  -5    5.23    0.36
  -2 -10  -5    5.36    0.35
  -2  10  -5    5.50    0.38
  -2  10  -5    5.40    0.35
   2 -10  -5    5.32    0.34
  -2 -10   5    5.64    0.29
  -2 -10  -6   92.01    3.58
  -2 -10  -6   98.57    3.53
  -2 -10  -6   98.52    3.55
   2 -10  -6   95.38    3.55
  -2  10  -6   96.09    3.56
  -2  10  -6   95.54    3.52
  -3  10   0   35.53    1.33
  -3 -10   0   38.74    1.41
  -3 -10   0   39.07    1.42
  -3  10   0   35.67    1.33
   3 -10   0   38.57    1.42
  -3 -10   0   38.13    1.44
  -3 -10  -1   71.86    2.64
   3 -10   1   73.06    2.61
  -3 -10  -1   73.15    2.64
  -3  10   1   69.06    2.51
  -3  10   1   69.72    2.50
  -3 -10  -1   71.32    2.63
  -3  10  -1   68.39    2.51
   3 -10  -1   72.74    2.64
  -3  10  -1   68.17    2.51
  -3 -10   1   73.85    2.64
  -3 -10  -2   21.27    0.84
  -3 -10  -2   20.82    0.83
  -3 -10  -2   20.79    0.84
  -3  10   2   21.07    0.79
  -3  10   2   19.83    0.78
  -3 -10  -2   21.80    0.82
  -3  10  -2   19.80    0.79
  -3 -10   2   21.49    0.82
   3 -10  -2   21.31    0.84
  -3 -10  -3   52.65    1.96
  -3 -10  -3   53.29    1.99
  -3  10   3   51.01    1.85
  -3 -10  -3   53.84    1.94
   3 -10  -3   51.56    1.98
  -3  10  -3   50.43    1.84
  -3 -10   3   53.28    1.95
  -3  10  -3   50.09    1.89
  -3  10  -3   49.21    1.87
  -3 -10  -4    6.89    0.39
  -3 -10  -4    6.63    0.31
  -3 -10  -4    6.24    0.42
  -3  10   4    6.74    0.34
  -3 -10  -4    6.29    0.35
  -3  10  -4    6.43    0.31
   3 -10  -4    6.99    0.37
  -3  10  -4    6.62    0.39
  -3 -10   4    6.56    0.32
  -3  10  -4    6.56    0.37
  -3  10   5   48.66    1.82
  -3 -10  -5   50.74    1.96
  -3 -10  -5   50.68    1.93
  -3 -10  -5   49.46    1.91
  -3  10  -5   49.10    1.87
   3 -10  -5   51.28    1.93
  -3  10  -5   49.46    1.90
  -3 -10   5   50.52    1.87
  -3 -10  -6    3.10    0.37
  -3 -10  -6    2.23    0.36
  -3 -10  -6    2.67    0.31
  -3  10  -6    2.53    0.37
  -3  10  -6    3.21    0.44
   3 -10  -6    2.75    0.33
  -4 -10   0  126.36    4.57
  -4 -10   0  126.39    4.53
  -4  10   0  113.91    4.12
  -4 -10   0  126.43    4.55
  -4 -10  -1    8.29    0.40
  -4 -10  -1    8.20    0.37
  -4 -10  -1    8.58    0.39
  -4  10   1    7.67    0.37
  -4  10   1    7.66    0.37
  -4 -10   1    8.71    0.36
  -4  10  -1    7.66    0.37
  -4  10  -1    7.70    0.38
  -4 -10   1    8.21    0.39
  -4  10   2  127.57    4.41
  -4 -10  -2  129.21    4.73
  -4 -10  -2  132.01    4.71
  -4  10   2  117.72    4.48
  -4 -10  -2  129.11    4.72
  -4 -10  -2  131.02    4.71
  -4  10  -2  121.12    4.42
  -4  10  -2  123.06    4.43
  -4 -10   2  132.03    4.72
   4 -10  -2  130.53    4.73
  -4  10   3    5.18    0.39
  -4 -10  -3    5.56    0.31
  -4 -10  -3    6.38    0.34
  -4 -10  -3    6.25    0.37
  -4 -10  -3    5.84    0.35
  -4 -10   3    6.11    0.33
  -4  10  -3    5.89    0.32
   4 -10  -3    5.91    0.34
  -4  10  -3    5.57    0.36
  -4  10  -3    5.51    0.34
  -4 -10  -4  106.30    3.92
  -4 -10  -4  109.09    3.95
  -4 -10  -4  106.61    3.96
  -4 -10  -4  105.28    3.89
  -4  10   4  100.64    3.67
  -4  10  -4  101.47    3.73
  -4 -10   4  111.82    3.89
  -4  10  -4   99.42    3.66
   4 -10  -4  104.24    3.93
  -4  10  -4  101.82    3.70
  -4  10   5   33.98    1.30
  -4 -10  -5   34.12    1.42
  -4 -10  -5   35.40    1.38
  -4 -10  -5   33.67    1.41
  -4  10  -5   33.59    1.39
  -4 -10   5   34.26    1.32
  -4  10  -5   32.72    1.34
   4 -10  -5   34.95    1.39
  -4 -10  -6   73.15    2.95
  -4 -10  -6   76.00    2.81
  -4  10  -6   73.05    2.77
  -4  10  -6   73.31    2.83
  -5  10   0   15.81    0.68
  -5  10   0   16.01    0.67
  -5 -10   0   18.09    0.71
  -5 -10   0   17.82    0.73
  -5 -10   0   17.30    0.74
  -5  10   1   28.61    1.11
  -5 -10  -1   32.08    1.24
  -5 -10  -1   31.71    1.24
  -5  10   1   29.38    1.13
  -5 -10  -1   30.59    1.21
  -5  10  -1   28.93    1.13
  -5 -10   1   31.75    1.24
  -5  10  -1   27.76    1.12
  -5 -10   1   33.19    1.21
  -5  10   2   11.00    0.50
  -5 -10  -2   11.79    0.56
  -5  10   2   11.24    0.51
  -5 -10  -2   12.02    0.54
  -5 -10  -2   12.24    0.54
  -5 -10  -2   11.62    0.54
  -5 -10   2   12.21    0.55
  -5  10  -2   10.73    0.52
  -5  10  -2   11.04    0.51
  -5 -10  -3   36.70    1.37
  -5 -10  -3   35.04    1.39
  -5 -10  -3   35.45    1.38
  -5  10   3   34.11    1.31
  -5 -10  -3   35.18    1.42
  -5 -10   3   35.92    1.37
  -5  10  -3   34.01    1.33
  -5  10  -3   33.31    1.30
   5 -10  -3   35.68    1.40
  -5  10  -3   33.79    1.37
  -5 -10  -4    9.28    0.55
  -5 -10  -4    9.69    0.51
  -5  10   4    8.96    0.47
  -5 -10  -4    9.17    0.54
  -5 -10  -4    9.22    0.44
  -5  10  -4    9.01    0.45
   5 -10  -4    8.69    0.50
  -5  10  -4    8.11    0.52
  -5  10  -4    8.25    0.50
  -5 -10   4    8.94    0.47
  -5 -10  -5   26.54    1.13
  -5 -10  -5   24.76    1.08
  -5  10   5   22.85    0.96
  -5 -10  -5   24.60    1.18
   5 -10  -5   25.44    1.08
  -5  10  -5   22.97    1.05
  -5  10  -5   21.60    0.99
  -5 -10   5   24.83    1.04
  -6 -10   0   65.11    2.39
  -6 -10   0   64.69    2.42
  -6 -10   0   65.02    2.43
  -6  10   0   57.70    2.18
  -6  10   0   58.16    2.17
  -6 -10  -1    3.32    0.31
  -6  10   1    2.49    0.27
  -6  10   1    2.34    0.30
  -6 -10  -1    2.64    0.26
  -6 -10  -1    2.98    0.27
  -6 -10   1    2.88    0.28
  -6 -10   1    2.78    0.27
  -6  10  -1    2.22    0.31
  -6  10  -1    2.09    0.26
  -6 -10  -2   14.24    0.66
  -6 -10  -2   14.49    0.66
  -6  10   2   13.26    0.63
  -6 -10  -2   14.36    0.69
  -6 -10  -2   15.19    0.66
  -6  10  -2   13.52    0.62
  -6  10  -2   12.93    0.64
  -6 -10   2   14.36    0.66
  -6 -10   2   14.65    0.66
  -6 -10  -3   14.05    0.65
  -6 -10  -3   13.38    0.61
  -6 -10  -3   12.32    0.65
  -6 -10  -3   12.79    0.67
  -6  10   3   12.54    0.62
  -6  10  -3   11.73    0.66
  -6  10  -3   12.17    0.59
  -6  10  -3   12.21    0.63
  -6 -10   3   13.50    0.63
  -6  10   4   36.78    1.44
  -6 -10  -4   38.29    1.59
  -6 -10  -4   38.98    1.61
  -6 -10  -4   39.41    1.55
  -6 -10  -4   38.25    1.50
  -6  10  -4   36.14    1.40
  -6  10  -4   34.26    1.50
  -6 -10   4   38.88    1.52
  -6  10  -4   35.49    1.47
  -7 -10   0    4.85    0.40
  -7  10   0    4.42    0.38
  -7  10   0    5.43    0.44
  -7 -10   0    4.40    0.38
  -7 -10   0    4.73    0.36
  -7  10   1    6.81    0.46
  -7 -10  -1    8.88    0.53
  -7 -10  -1    7.77    0.47
  -7  10   1    6.44    0.47
  -7 -10  -1    7.13    0.47
  -7 -10   1    7.92    0.48
  -7  10  -1    6.93    0.49
  -7  10  -1    6.19    0.44
  -7 -10   1    8.11    0.50
  -7 -10  -2    7.65    0.49
  -7 -10  -2    7.74    0.53
  -7 -10  -2    7.31    0.47
  -7  10   2    7.00    0.49
  -7 -10  -2    8.00    0.48
  -7  10  -2    7.12    0.45
  -7  10  -2    6.61    0.53
  -7 -10   2    8.24    0.49
  -7  10  -2    7.66    0.53
  -7 -10   2    8.30    0.49
   0  11   0   -0.03    0.10
   0 -11   0    0.40    0.09
   0 -11  -1   50.83    1.90
   0 -11   1   52.40    1.87
   0 -11  -1   51.71    1.89
   0 -11   1   52.10    1.89
   0 -11  -1   51.74    1.89
   0 -11   2   -0.05    0.06
   0 -11   2   -0.16    0.06
   0 -11  -2   -0.14    0.09
   0  11  -2   -0.11    0.08
   0  11  -3   28.07    1.01
   0 -11   3   27.74    1.01
   0  11  -3   27.57    1.02
   0 -11  -3   26.75    1.04
   0 -11  -3   26.30    1.04
   0  11  -3   26.85    1.00
   0  11  -4    0.25    0.13
   0 -11   4    0.14    0.10
   0 -11  -5   24.08    1.02
   0  11  -5   24.14    0.96
   0 -11  -5   25.40    1.00
   0 -11   5   25.00    0.96
   0  11  -6    1.96    0.34
   0 -11  -7   10.79    0.67
   0  11  -7   10.14    0.63
   0 -11  -7   12.26    0.63
   1 -11   0    0.57    0.09
  -1 -11   0    0.38    0.07
  -1 -11   0    0.42    0.08
   1  11   0    0.55    0.10
  -1 -11   0    0.61    0.09
  -1 -11  -1    6.21    0.28
   1 -11   1    5.93    0.25
  -1 -11  -1    5.64    0.26
  -1 -11  -1    5.52    0.26
   1 -11   1    5.62    0.27
  -1  11  -1    5.55    0.25
   1 -11  -1    5.94    0.28
  -1 -11   1    5.62    0.26
  -1  11  -1    5.50    0.27
  -1 -11  -2   13.00    0.54
  -1 -11  -2   13.36    0.52
  -1 -11  -2   13.20    0.55
   1 -11   2   12.96    0.53
  -1  11  -2   12.28    0.50
   1 -11  -2   13.18    0.55
  -1  11  -2   12.28    0.49
  -1 -11   2   13.30    0.52
   1 -11   3   34.93    1.32
  -1 -11  -3   34.49    1.35
  -1 -11  -3   35.07    1.35
   1  11  -3   36.41    1.27
  -1 -11  -3   36.03    1.30
   1 -11  -3   36.16    1.36
   1 -11  -3   36.22    1.35
  -1  11  -3   34.65    1.30
  -1  11  -3   34.20    1.30
  -1  11  -3   34.52    1.28
  -1 -11   3   36.48    1.32
  -1 -11  -4    0.98    0.20
  -1 -11  -4    1.30    0.20
   1 -11  -4    1.45    0.18
  -1 -11   4    1.37    0.14
   1 -11  -4    1.33    0.21
  -1  11  -4    1.13    0.20
  -1  11  -4    1.06    0.16
  -1  11  -5    0.69    0.19
   1 -11  -5    2.33    0.25
   1  11  -6    0.34    0.26
  -1 -11  -6    0.39    0.23
  -1 -11  -6    0.82    0.23
  -1  11  -6    0.35    0.27
   1 -11  -6    0.80    0.24
   1 -11  -6    0.90    0.28
  -1  11  -6    0.32    0.21
  -1 -11  -7   17.23    0.79
  -1 -11  -7   15.57    0.83
   1 -11  -7   15.12    0.78
  -1  11  -7   12.61    0.74
   1 -11  -7   17.83    0.87
  -2 -11   0   14.20    0.54
   2 -11   0   13.95    0.55
  -2  11   0   12.95    0.52
   2  11   0   12.85    0.50
  -2 -11   0   13.93    0.56
  -2 -11  -1   40.98    1.53
  -2 -11  -1   41.92    1.54
   2 -11   1   41.53    1.52
  -2 -11  -1   42.29    1.54
  -2 -11  -1   41.66    1.55
  -2 -11   1   41.53    1.54
  -2  11  -1   38.40    1.44
  -2  11  -1   40.18    1.44
  -2  11  -1   38.42    1.42
   2 -11  -1   42.43    1.55
  -2 -11  -2   16.11    0.61
  -2 -11  -2   16.11    0.64
  -2 -11  -2   15.04    0.62
  -2 -11  -2   15.23    0.63
   2 -11  -2   15.28    0.63
  -2 -11   2   15.65    0.61
  -2  11  -2   14.06    0.59
  -2  11  -2   14.95    0.58
  -2 -11  -3   28.24    1.05
  -2 -11  -3   27.64    1.10
   2  11  -3   27.36    1.01
  -2 -11  -3   27.27    1.06
  -2 -11   3   28.05    1.05
   2 -11  -3   28.62    1.09
  -2  11  -3   27.44    1.11
  -2  11  -3   27.23    1.02
  -2  11  -3   26.75    1.04
  -2 -11  -4    4.64    0.32
  -2 -11  -4    5.20    0.29
  -2 -11  -4    5.24    0.34
  -2  11  -4    4.64    0.29
   2 -11  -4    4.91    0.31
  -2 -11   4    5.31    0.26
  -2 -11  -5    9.57    0.50
  -2 -11  -5    9.84    0.51
  -2 -11  -5   10.01    0.46
  -2  11  -5    9.01    0.50
  -2  11  -5    8.45    0.46
   2 -11  -5    9.97    0.49
  -2 -11   5    8.60    0.42
  -2 -11  -6    3.87    0.37
  -2 -11  -6    2.62    0.31
  -2 -11  -6    3.78    0.37
  -2  11  -6    2.96    0.41
  -2  11  -6    2.23    0.33
   2 -11  -6    2.88    0.33
  -3 -11   0   16.03    0.62
   3 -11   0   15.92    0.63
  -3  11   0   14.63    0.60
  -3 -11   0   15.92    0.61
  -3  11   0   15.01    0.60
  -3 -11   0   15.96    0.64
  -3 -11  -1  102.50    3.67
  -3 -11  -1  101.57    3.67
  -3  11   1   93.91    3.38
  -3 -11  -1  101.08    3.66
  -3  11   1   94.84    3.39
  -3 -11  -1  101.54    3.67
   3 -11   1  101.55    3.64
  -3  11  -1   93.17    3.39
  -3  11  -1   92.94    3.39
  -3 -11   1  101.72    3.67
   3 -11  -1  100.96    3.67
  -3 -11  -2    6.22    0.42
  -3  11   2    6.81    0.32
  -3 -11  -2    7.13    0.32
  -3  11   2    6.38    0.33
  -3 -11  -2    6.81    0.35
  -3 -11  -2    7.39    0.36
  -3 -11   2    7.28    0.33
  -3  11  -2    6.35    0.31
  -3  11  -2    7.00    0.34
  -3 -11  -3   55.66    2.12
  -3 -11  -3   57.31    2.07
  -3  11   3   53.90    1.98
  -3 -11  -3   56.36    2.09
  -3 -11  -3   57.64    2.12
  -3  11  -3   53.66    1.97
  -3 -11   3   56.08    2.08
  -3  11  -3   54.01    2.00
   3 -11  -3   57.26    2.12
  -3  11  -3   53.41    2.02
  -3 -11  -4    3.13    0.22
  -3 -11  -4    3.30    0.25
  -3  11   4    3.06    0.25
  -3 -11  -4    3.50    0.29
  -3 -11  -4    2.97    0.32
  -3  11  -4    3.19    0.21
  -3 -11   4    3.55    0.24
  -3  11  -4    3.28    0.30
  -3  11  -4    3.08    0.28
   3 -11  -4    3.22    0.27
  -3 -11  -5   62.64    2.45
  -3  11   5   61.45    2.29
  -3 -11  -5   65.74    2.47
  -3 -11  -5   65.53    2.43
  -3  11  -5   63.73    2.38
  -3  11  -5   61.89    2.34
  -3 -11   5   65.32    2.38
   3 -11  -5   65.36    2.45
  -3 -11  -6    4.16    0.42
  -3 -11  -6    3.76    0.36
  -3 -11  -6    4.57    0.42
  -3  11  -6    4.37    0.48
   3 -11  -6    4.30    0.37
  -3  11  -6    3.67    0.40
  -4  11   0    9.86    0.45
  -4 -11   0   10.77    0.48
  -4  11   0    9.70    0.45
   4 -11   0   10.87    0.47
  -4 -11   0   10.69    0.45
  -4 -11   0   11.61    0.47
  -4  11   1   15.50    0.65
  -4 -11  -1   16.90    0.67
  -4 -11  -1   16.68    0.67
  -4  11   1   15.75    0.63
  -4  11  -1   15.22    0.64
   4 -11  -1   15.44    0.70
  -4  11  -1   15.41    0.64
  -4 -11   1   16.45    0.67
  -4 -11  -2    9.28    0.47
  -4 -11  -2    9.61    0.45
  -4 -11  -2    9.82    0.44
  -4  11   2    9.92    0.44
  -4  11   2    9.17    0.45
  -4 -11  -2    9.72    0.45
  -4  11  -2    9.53    0.46
  -4 -11   2   10.11    0.45
   4 -11  -2    9.86    0.46
  -4  11  -2    9.61    0.44
  -4 -11  -3   14.89    0.61
  -4  11   3   12.45    0.58
  -4 -11  -3   14.51    0.65
  -4 -11  -3   14.78    0.63
  -4 -11  -3   14.69    0.65
   4 -11  -3   14.57    0.64
  -4  11  -3   13.81    0.57
  -4  11  -3   13.31    0.60
  -4  11  -3   13.78    0.63
  -4 -11   3   13.51    0.61
  -4 -11  -4   19.01    0.84
  -4  11   4   17.59    0.76
  -4 -11  -4   17.41    0.84
  -4 -11  -4   18.57    0.80
  -4 -11  -4   19.41    0.83
  -4  11  -4   17.87    0.79
   4 -11  -4   18.34    0.81
  -4 -11   4   19.76    0.77
  -4  11  -4   18.46    0.74
  -4  11  -4   18.37    0.82
  -4 -11  -5    6.92    0.48
  -4 -11  -5    7.11    0.43
  -4  11   5    5.11    0.39
  -4 -11  -5    5.82    0.52
  -4 -11   5    6.25    0.39
  -4  11  -5    5.57    0.47
   4 -11  -5    6.57    0.43
  -4  11  -5    5.99    0.42
  -5 -11   0   15.64    0.65
  -5  11   0   14.73    0.62
  -5  11   0   13.89    0.62
  -5 -11   0   13.70    0.66
  -5 -11   0   16.15    0.65
  -5 -11  -1  184.58    6.73
  -5  11   1  164.65    6.01
  -5  11   1  167.22    5.99
  -5 -11  -1  185.99    6.71
  -5 -11  -1  189.01    6.73
  -5  11  -1  168.88    6.01
  -5 -11   1  186.83    6.73
  -5  11  -1  165.51    6.01
  -5 -11   1  187.72    6.70
  -5  11   2    3.11    0.27
  -5  11   2    2.66    0.28
  -5 -11  -2    3.66    0.28
  -5 -11  -2    3.98    0.29
  -5 -11  -2    3.39    0.27
  -5 -11  -2    3.59    0.26
  -5  11  -2    3.38    0.29
   5 -11  -2    3.34    0.27
  -5 -11   2    3.56    0.27
  -5  11  -2    3.19    0.26
  -5  11   3  117.23    4.19
  -5 -11  -3  122.61    4.51
  -5 -11  -3  119.30    4.48
  -5 -11  -3  124.23    4.47
  -5 -11  -3  125.41    4.46
  -5 -11   3  124.85    4.47
  -5  11  -3  115.17    4.24
   5 -11  -3  121.42    4.49
  -5  11  -3  112.24    4.20
  -5  11  -3  115.46    4.18
  -5 -11  -4    1.39    0.33
  -5 -11  -4    0.88    0.28
  -5 -11  -4    1.22    0.23
  -5 -11  -4    1.11    0.19
  -5  11   4    0.82    0.22
  -5  11  -4    0.87    0.24
  -5  11  -4    1.00    0.20
  -5  11  -4    1.25    0.30
   5 -11  -4    0.83    0.25
  -5 -11   4    0.89    0.19
  -5  11   5  133.21    4.81
  -5 -11  -5  141.13    4.95
  -5 -11  -5  125.52    4.99
  -5 -11  -5  134.24    4.98
  -5  11  -5  133.83    4.91
  -5  11  -5  129.14    4.85
   5 -11  -5  136.21    4.96
  -5 -11   5  136.38    4.90
  -6 -11   0    0.38    0.20
  -6  11   0    0.13    0.16
  -6  11   0    0.06    0.19
  -6 -11   0    0.16    0.15
  -6 -11   0    0.33    0.16
  -6  11   1    0.00    0.20
  -6 -11  -1    0.12    0.15
  -6 -11  -1    0.12    0.16
  -6 -11  -1    0.57    0.22
  -6  11   1    0.33    0.18
  -6 -11   1    0.13    0.16
  -6  11  -1    0.50    0.22
  -6 -11   1    0.33    0.20
  -6  11  -1    0.05    0.17
  -6 -11  -2    6.65    0.41
  -6 -11  -2    7.15    0.42
  -6  11   2    6.28    0.41
  -6 -11  -2    7.47    0.47
  -6  11   2    6.54    0.42
  -6 -11  -2    7.57    0.43
  -6  11  -2    6.70    0.40
  -6  11  -2    6.06    0.44
  -6 -11   2    7.38    0.43
  -6 -11   2    7.51    0.46
  -6  11   3    0.75    0.25
  -6 -11  -3    1.10    0.23
  -6 -11  -3    0.90    0.30
  -6 -11  -3    0.71    0.28
  -6 -11  -3    1.10    0.20
  -6 -11   3    0.60    0.22
  -6  11  -3    0.76    0.27
  -6  11  -3    0.40    0.28
  -6  11  -3    0.51    0.21
  -6 -11  -4   16.72    0.86
  -6 -11  -4   16.73    0.76
  -6  11   4   15.83    0.77
  -6 -11  -4   16.84    0.86
  -6 -11  -4   17.14    0.81
  -6 -11   4   17.67    0.78
  -6  11  -4   15.21    0.83
  -6  11  -4   16.57    0.73
  -6  11  -4   14.53    0.90
  -7 -11   0    1.14    0.23
  -7  11   0    1.14    0.25
  -7 -11   0    1.70    0.31
  -7  11   0    1.19    0.28
  -7 -11   0    1.15    0.24
  -7 -11  -1  177.90    6.60
  -7 -11  -1  188.49    6.62
  -7  11   1  157.60    5.75
  -7 -11  -1  181.82    6.56
  -7  11  -1  152.63    5.74
  -7  11  -1  162.81    5.74
  -7 -11   1  176.84    6.60
  -7 -11   1  183.96    6.58
   0 -12   0   28.23    1.05
   0 -12   0   27.68    1.05
   0  12   0   23.11    0.87
   0 -12   1   -0.05    0.05
   0 -12  -1    0.07    0.06
   0 -12  -1    0.07    0.09
   0 -12  -1    0.01    0.08
   0 -12   1    0.13    0.07
   0 -12   2    6.07    0.26
   0 -12   2    6.29    0.28
   0  12  -2    3.63    0.20
   0  12  -3   -0.01    0.07
   0 -12  -3    0.13    0.11
   0  12  -3    0.18    0.10
   0  12  -3    0.10    0.10
   0 -12   3   -0.03    0.08
   0 -12  -3   -0.03    0.11
   0 -12  -4   54.23    2.07
   0 -12  -4   53.57    2.06
   0 -12   4   57.65    2.03
   0  12  -5    0.00    0.19
   0 -12  -5    0.37    0.19
   0 -12   5    0.07    0.14
   0 -12  -5    0.32    0.18
   0 -12  -6   71.59    2.65
   0 -12  -6   69.97    2.69
   0  12  -6   67.65    2.53
  -1 -12   0    0.54    0.09
  -1 -12   0    0.44    0.08
   1 -12   0    0.63    0.09
   1  12   0    0.60    0.11
  -1 -12   0    0.44    0.09
  -1 -12  -1  158.35    5.69
  -1 -12  -1  155.99    5.68
   1 -12   1  156.06    5.68
  -1 -12  -1  161.16    5.67
   1 -12   1  161.66    5.66
   1 -12  -1  158.30    5.69
  -1  12  -1  149.18    5.38
  -1  12  -1  152.33    5.40
  -1 -12   1  158.65    5.68
   1 -12   2    0.57    0.11
  -1 -12  -2    0.68    0.13
  -1 -12  -2    0.69    0.11
  -1 -12  -2    0.62    0.11
  -1 -12   2    0.44    0.08
  -1  12  -2    0.43    0.11
  -1  12  -2    0.48    0.08
   1 -12  -2    0.70    0.13
   1  12  -3  119.14    4.26
  -1 -12  -3  118.81    4.40
  -1 -12  -3  120.05    4.40
   1 -12   3  122.55    4.37
  -1 -12  -3  123.34    4.35
  -1  12  -3  120.27    4.27
  -1  12  -3  118.28    4.29
  -1 -12   3  127.56    4.37
  -1  12  -3  118.94    4.29
   1 -12  -3  116.73    4.44
  -1 -12  -4    0.29    0.14
  -1 -12  -4    0.63    0.17
  -1  12  -4    0.32    0.16
  -1  12  -4    0.45    0.15
   1 -12  -4    0.49    0.16
   1 -12  -4    0.23    0.15
  -1 -12   4    0.12    0.10
  -1 -12  -5   97.89    3.53
  -1 -12  -5   94.57    3.54
  -1 -12   5   96.76    3.47
  -1  12  -5   93.22    3.59
   1 -12  -5   93.10    3.54
  -1  12  -5   94.44    3.42
   1 -12  -5   97.04    3.53
  -1 -12  -6    1.02    0.27
  -1 -12  -6    0.54    0.25
   1 -12  -6    1.68    0.33
  -1  12  -6    0.45    0.28
   1 -12  -6    0.39    0.23
   2 -12   0    0.89    0.11
  -2  12   0    0.78    0.14
  -2 -12   0    1.19    0.10
   2  12   0    0.97    0.13
  -2 -12   0    1.06    0.11
   2 -12   1    7.80    0.32
  -2 -12  -1    7.55    0.33
  -2 -12  -1    7.68    0.33
  -2 -12  -1    7.58    0.34
  -2  12  -1    6.98    0.33
  -2  12  -1    7.38    0.33
   2 -12  -1    7.76    0.34
  -2  12  -1    7.47    0.34
  -2 -12   1    7.64    0.33
  -2 -12  -2   45.58    1.68
  -2 -12  -2   44.70    1.67
  -2 -12  -2   45.78    1.65
  -2 -12  -2   43.77    1.65
  -2 -12   2   45.28    1.66
   2 -12  -2   44.93    1.68
  -2  12  -2   42.44    1.56
  -2  12  -2   41.73    1.55
  -2 -12  -3   14.86    0.62
  -2 -12  -3   15.46    0.61
  -2 -12  -3   15.19    0.65
  -2 -12   3   16.19    0.61
  -2  12  -3   14.42    0.61
  -2  12  -3   14.33    0.57
   2 -12  -3   15.45    0.65
  -2 -12  -4   23.86    0.93
  -2 -12  -4   23.83    0.97
  -2 -12  -4   22.48    0.96
  -2 -12   4   23.83    0.91
  -2  12  -4   22.99    0.92
   2 -12  -4   24.52    0.96
  -2  12  -4   23.25    0.86
  -2 -12  -5   43.53    1.68
  -2 -12  -5   43.20    1.65
  -2 -12  -5   43.69    1.70
  -2  12  -5   43.60    1.67
  -2 -12   5   44.06    1.61
   2 -12  -5   42.46    1.67
  -2  12  -5   42.66    1.64
  -2 -12  -6   28.82    1.24
  -2 -12  -6   28.96    1.19
  -2 -12  -6   31.03    1.23
  -2  12  -6   28.51    1.22
   2 -12  -6   29.98    1.22
  -2  12  -6   28.98    1.17
  -3 -12   0    1.42    0.14
   3 -12   0    1.49    0.15
  -3 -12   0    1.70    0.14
  -3  12   0    1.44    0.16
  -3  12   0    1.70    0.17
  -3 -12  -1  110.13    3.95
  -3 -12  -1  105.55    3.94
   3 -12   1  110.87    3.93
  -3 -12  -1  108.30    3.96
  -3  12   1  104.59    3.72
  -3  12   1  102.57    3.71
  -3 -12  -1  111.11    3.96
  -3 -12   1  109.59    3.96
  -3  12  -1  101.17    3.71
  -3  12  -1  102.29    3.71
   3 -12  -1  111.80    3.96
  -3 -12  -2    1.14    0.20
  -3 -12  -2    1.13    0.17
  -3 -12  -2    1.13    0.14
  -3  12   2    0.77    0.15
  -3  12   2    1.03    0.17
  -3 -12  -2    1.06    0.16
  -3  12  -2    1.19    0.20
   3 -12  -2    1.21    0.18
  -3  12  -2    1.08    0.16
  -3 -12   2    1.05    0.14
  -3 -12  -3  102.60    3.73
  -3 -12  -3  100.06    3.77
  -3 -12  -3  104.24    3.77
  -3 -12  -3  103.51    3.75
  -3  12   3  102.19    3.61
  -3  12  -3   98.01    3.62
   3 -12  -3  104.21    3.77
  -3  12  -3   99.37    3.64
  -3 -12   3  104.70    3.73
  -3  12  -3   98.66    3.60
  -3 -12  -4    1.82    0.21
  -3 -12  -4    1.53    0.18
  -3 -12  -4    1.55    0.30
  -3  12   4    1.55    0.24
  -3 -12  -4    1.98    0.24
  -3  12  -4    2.02    0.19
  -3  12  -4    1.38    0.28
   3 -12  -4    1.90    0.23
  -3 -12   4    1.77    0.20
  -3  12  -4    1.52    0.21
  -3 -12  -5   62.94    2.30
  -3 -12  -5   57.71    2.33
  -3  12   5   59.43    2.23
  -3 -12  -5   61.36    2.34
  -3 -12   5   60.82    2.26
  -3  12  -5   61.47    2.28
  -3  12  -5   60.71    2.31
   3 -12  -5   63.32    2.33
  -3 -12  -6    2.55    0.41
  -3 -12  -6    2.49    0.39
  -3 -12  -6    2.26    0.31
  -3  12  -6    1.77    0.41
   3 -12  -6    2.25    0.34
  -3  12  -6    1.31    0.29
  -4 -12   0   37.37    1.42
  -4  12   0   34.94    1.33
  -4  12   0   34.74    1.32
  -4 -12   0   37.29    1.39
  -4 -12   0   39.06    1.40
   4 -12   0   36.53    1.40
  -4 -12  -1    5.93    0.31
  -4  12   1    5.57    0.32
  -4  12   1    5.78    0.31
  -4 -12  -1    6.24    0.32
  -4 -12  -1    6.00    0.31
  -4 -12   1    6.07    0.31
   4 -12  -1    6.12    0.32
  -4  12  -1    5.55    0.33
  -4  12  -1    5.37    0.30
  -4 -12  -2   35.66    1.35
  -4  12   2   32.52    1.25
  -4 -12  -2   35.17    1.34
  -4 -12  -2   35.76    1.36
  -4 -12  -2   35.20    1.34
  -4  12  -2   32.58    1.25
  -4  12  -2   32.01    1.24
   4 -12  -2   34.78    1.35
  -4 -12   2   34.69    1.34
  -4 -12  -3   50.69    1.96
  -4 -12  -3   51.38    1.96
  -4 -12  -3   53.09    1.92
  -4  12   3   49.73    1.81
  -4 -12  -3   51.76    1.94
   4 -12  -3   51.27    1.96
  -4 -12   3   52.51    1.93
  -4  12  -3   49.21    1.80
  -4  12  -3   47.21    1.85
  -4  12  -3   46.99    1.82
  -4 -12  -4   17.85    0.74
  -4 -12  -4   18.03    0.81
  -4 -12  -4   18.54    0.78
  -4  12   4   15.88    0.72
  -4 -12  -4   19.33    0.83
  -4  12  -4   17.29    0.79
  -4  12  -4   17.07    0.75
   4 -12  -4   18.57    0.80
  -4 -12   4   17.56    0.75
  -4  12  -4   17.69    0.70
  -4 -12  -5    6.87    0.48
  -4 -12  -5    6.59    0.43
  -4  12   5    6.46    0.42
  -4 -12  -5    6.65    0.56
   4 -12  -5    6.97    0.45
  -4  12  -5    5.88    0.44
  -4  12  -5    6.13    0.51
  -4 -12   5    7.33    0.40
  -5  12   0    8.26    0.42
  -5  12   0    8.19    0.43
  -5 -12   0    8.54    0.41
  -5 -12   0    7.94    0.41
  -5 -12   0    8.40    0.41
  -5  12   1   52.21    1.92
  -5 -12  -1   55.86    2.09
  -5 -12  -1   57.56    2.12
  -5  12   1   51.36    1.91
  -5 -12  -1   56.59    2.12
  -5  12  -1   49.42    1.92
  -5 -12   1   56.91    2.08
  -5  12  -1   51.23    1.92
  -5 -12   1   56.34    2.12
  -5 -12  -2    5.62    0.33
  -5  12   2    4.50    0.34
  -5  12   2    4.90    0.33
  -5 -12  -2    5.41    0.33
  -5 -12  -2    5.60    0.36
  -5 -12  -2    4.93    0.31
  -5 -12   2    5.00    0.32
  -5  12  -2    4.97    0.35
   5 -12  -2    5.37    0.34
  -5  12  -2    5.14    0.32
  -5 -12  -3   42.38    1.57
  -5 -12  -3   39.89    1.59
  -5  12   3   37.80    1.46
  -5 -12  -3   39.18    1.58
  -5 -12  -3   40.19    1.54
  -5  12  -3   37.71    1.52
   5 -12  -3   40.49    1.58
  -5  12  -3   38.29    1.45
  -5  12  -3   37.19    1.47
  -5 -12   3   40.55    1.55
  -5 -12  -4    4.53    0.32
  -5 -12  -4    4.68    0.38
  -5  12   4    3.50    0.34
  -5 -12  -4    5.11    0.44
  -5 -12  -4    4.45    0.41
  -5  12  -4    4.95    0.43
  -5  12  -4    4.65    0.40
  -5  12  -4    4.07    0.32
   5 -12  -4    4.49    0.38
  -5 -12   4    4.13    0.33
  -5  12   5   34.47    1.35
  -5 -12  -5   35.45    1.59
  -5 -12  -5   42.31    1.62
  -5 -12  -5   34.95    1.54
   5 -12  -5   36.55    1.54
  -5  12  -5   33.43    1.46
  -5 -12   5   36.86    1.46
  -5  12  -5   33.23    1.40
  -6 -12   0   39.17    1.49
  -6  12   0   33.97    1.33
  -6 -12   0   37.10    1.50
  -6 -12   0   38.98    1.45
  -6  12   0   33.72    1.34
  -6  12   1   17.07    0.78
  -6 -12  -1   20.63    0.86
  -6  12   1   17.93    0.78
  -6 -12  -1   19.89    0.83
  -6 -12  -1   20.25    0.86
  -6 -12   1   19.82    0.86
  -6  12  -1   18.65    0.79
  -6  12  -1   18.35    0.80
  -6 -12   1   19.95    0.84
  -6 -12  -2    2.98    0.30
  -6  12   2    2.27    0.32
  -6 -12  -2    3.35    0.31
  -6 -12  -2    2.96    0.29
  -6  12   2    2.53    0.35
  -6 -12  -2    3.39    0.35
  -6  12  -2    2.89    0.34
  -6 -12   2    2.28    0.30
  -6  12  -2    2.35    0.29
  -6 -12  -3    4.40    0.41
  -6 -12  -3    4.67    0.34
  -6  12   3    4.22    0.39
  -6 -12  -3    4.60    0.38
  -6 -12  -3    4.54    0.43
  -6  12  -3    4.64    0.46
  -6 -12   3    4.54    0.36
  -6  12  -3    3.99    0.42
  -6  12  -3    4.40    0.36
  -7 -12   0    8.93    0.54
  -7  12   0    7.52    0.51
  -7  12   0    7.59    0.49
  -7 -12   0    8.71    0.51
  -7 -12   0    9.29    0.50
  -7 -12  -1    9.98    0.57
  -7  12   1    9.08    0.59
  -7 -12  -1   10.31    0.55
  -7 -12  -1   10.10    0.60
  -7  12   1    9.84    0.56
  -7  12  -1    9.62    0.59
  -7 -12   1   11.21    0.58
  -7  12  -1    9.87    0.56
  -7 -12   1   10.51    0.58
   0 -13   0    0.12    0.09
   0 -13   1    6.53    0.29
   0 -13   1    5.88    0.29
   0 -13  -1    6.40    0.31
   0 -13  -1    5.91    0.30
   0 -13  -1    5.90    0.29
   0 -13   2    0.19    0.07
   0  13  -2    0.06    0.09
   0 -13   2    0.03    0.07
   0 -13  -2   -0.02    0.10
   0 -13  -2    0.17    0.11
   0 -13  -3    2.11    0.22
   0 -13   3    2.07    0.16
   0 -13  -3    2.16    0.22
   0  13  -3    1.72    0.14
   0  13  -3    1.86    0.17
   0 -13   4   -0.02    0.11
   0 -13  -4    0.10    0.16
   0 -13  -4    0.24    0.16
   0 -13   5    4.42    0.29
   0 -13  -5    4.12    0.34
   0  13  -5    3.53    0.30
   0 -13  -5    4.67    0.33
   0 -13  -6    0.66    0.25
   0 -13   6    0.34    0.21
   0  13  -6    0.24    0.30
   0 -13  -6    0.18    0.24
   1 -13   0   14.56    0.58
  -1 -13   0   14.21    0.58
  -1 -13   0   14.46    0.56
  -1 -13   0   14.52    0.58
   1  13   0   12.90    0.51
  -1 -13  -1   -0.02    0.07
  -1 -13  -1   -0.11    0.08
  -1 -13  -1    0.07    0.10
  -1  13  -1   -0.02    0.09
   1 -13  -1    0.13    0.09
  -1 -13   1   -0.14    0.07
  -1 -13   1    0.05    0.07
   1 -13   2   46.77    1.74
  -1 -13  -2   46.12    1.74
  -1 -13  -2   46.12    1.75
  -1 -13  -2   47.02    1.73
  -1  13  -2   44.98    1.66
  -1  13  -2   45.08    1.66
   1 -13  -2   47.35    1.75
  -1 -13   2   48.25    1.73
  -1 -13  -3   17.52    0.68
   1 -13   3   17.34    0.70
   1 -13  -3   18.02    0.73
  -1  13  -3   15.59    0.60
  -1  13  -3   15.35    0.63
  -1  13  -3   15.89    0.63
  -1 -13   3   17.05    0.69
   1 -13  -3   17.89    0.74
  -1 -13  -4   22.23    0.94
  -1 -13  -4   22.71    0.94
   1 -13   4   22.61    0.89
  -1  13  -4   22.33    0.87
  -1 -13   4   23.17    0.88
  -1  13  -4   21.69    0.87
   1 -13  -4   23.00    0.94
   1 -13  -4   23.63    0.94
  -1  13  -5    3.06    0.29
  -1 -13   5    3.68    0.26
  -1  13  -5    3.75    0.41
  -1 -13  -6   18.46    0.82
  -1 -13  -6   17.63    0.84
   1 -13  -6   18.06    0.81
  -1  13  -6   17.57    0.76
   1 -13  -6   17.37    0.85
  -1  13  -6   17.31    0.80
  -2 -13   0    6.06    0.28
   2 -13   0    6.12    0.28
  -2 -13   0    6.00    0.28
  -2  13   0    5.50    0.28
  -2 -13  -1    3.59    0.20
  -2 -13  -1    3.49    0.22
   2 -13   1    3.75    0.19
  -2 -13  -1    3.38    0.20
  -2 -13   1    3.73    0.20
  -2  13  -1    3.21    0.22
  -2  13  -1    3.65    0.21
   2 -13  -1    3.74    0.22
  -2 -13  -2   13.84    0.58
  -2 -13  -2   13.36    0.55
  -2 -13  -2   13.05    0.56
  -2 -13   2   13.43    0.55
  -2  13  -2   13.23    0.55
   2 -13  -2   13.99    0.57
  -2  13  -2   13.34    0.54
  -2 -13  -3   11.67    0.49
  -2 -13  -3   11.54    0.54
  -2 -13  -3   11.85    0.53
  -2 -13  -3   11.57    0.48
  -2  13  -3   11.15    0.46
  -2  13  -3   10.98    0.50
  -2 -13   3   11.69    0.48
   2 -13  -3   11.54    0.52
  -2  13  -3   11.17    0.50
  -2 -13  -4   12.18    0.57
  -2 -13  -4   12.27    0.54
  -2 -13  -4   11.79    0.58
  -2  13  -4   11.94    0.49
   2 -13  -4   12.42    0.57
  -2  13  -4   12.49    0.56
  -2 -13   4   12.73    0.52
  -2 -13  -5    7.74    0.41
  -2 -13  -5    7.30    0.46
  -2 -13  -5    8.11    0.47
  -2  13  -5    7.61    0.47
  -2  13  -5    7.46    0.45
   2 -13  -5    7.89    0.44
  -2 -13   5    7.87    0.39
  -2 -13  -6   13.00    0.69
  -2 -13  -6   14.03    0.70
  -2  13  -6   12.79    0.71
   2 -13  -6   13.15    0.66
  -2  13  -6   13.15    0.65
  -3 -13   0   77.83    2.79
  -3 -13   0   77.25    2.82
  -3  13   0   71.56    2.62
  -3  13   0   72.03    2.62
   3 -13   0   76.87    2.80
  -3 -13  -1   12.22    0.49
  -3 -13  -1   12.85    0.51
  -3  13   1   11.61    0.50
  -3 -13  -1    9.91    0.58
   3 -13   1   12.70    0.48
  -3  13   1   11.51    0.50
  -3 -13  -1   11.92    0.50
  -3  13  -1   11.33    0.51
   3 -13  -1   12.06    0.51
  -3 -13   1   12.00    0.50
  -3  13  -1   11.39    0.49
  -3 -13  -2    4.84    0.26
  -3  13   2    4.84    0.28
  -3 -13  -2    5.32    0.29
  -3  13   2    4.99    0.28
  -3 -13  -2    4.72    0.27
  -3 -13  -2    4.82    0.30
  -3 -13   2    5.22    0.27
   3 -13  -2    5.04    0.29
  -3  13  -2    4.57    0.28
  -3  13  -2    3.92    0.27
  -3 -13  -3    5.01    0.33
  -3 -13  -3    5.61    0.30
  -3 -13  -3    5.23    0.33
  -3 -13  -3    4.94    0.28
  -3  13  -3    4.17    0.31
  -3 -13   3    5.43    0.28
  -3  13  -3    4.88    0.33
   3 -13  -3    5.35    0.31
  -3  13  -3    4.58    0.27
  -3 -13  -4   32.09    1.29
  -3 -13  -4   32.91    1.22
  -3 -13  -4   32.38    1.26
  -3 -13  -4   31.24    1.30
  -3  13   4   32.46    1.25
  -3  13  -4   31.92    1.27
  -3  13  -4   32.72    1.30
   3 -13  -4   33.00    1.29
  -3  13  -4   32.92    1.22
  -3 -13   4   33.65    1.24
  -3 -13  -5   15.17    0.73
  -3 -13  -5   14.69    0.74
  -3  13   5   12.90    0.59
  -3 -13  -5   15.63    0.68
   3 -13  -5   14.94    0.71
  -3  13  -5   12.81    0.67
  -3  13  -5   12.21    0.62
  -3 -13  -6   24.52    1.01
  -3 -13  -6   23.88    1.08
  -3 -13  -6   23.76    1.07
  -3  13  -6   24.28    1.04
   3 -13  -6   22.76    1.03
  -3  13  -6   23.26    1.10
  -4  13   0   91.24    3.30
  -4 -13   0   97.47    3.63
   4 -13   0  100.29    3.62
  -4 -13   0  101.83    3.61
  -4 -13   0  100.30    3.60
  -4  13   0   90.41    3.31
  -4 -13  -1    6.78    0.35
  -4 -13  -1    6.90    0.35
  -4  13   1    6.36    0.36
  -4  13   1    6.64    0.34
  -4 -13  -1    6.58    0.34
  -4 -13  -1    6.70    0.34
  -4  13  -1    6.14    0.33
  -4  13  -1    6.20    0.35
  -4 -13   1    6.94    0.34
   4 -13  -1    6.58    0.35
  -4 -13  -2   62.82    2.32
  -4 -13  -2   62.82    2.30
  -4 -13  -2   61.79    2.32
  -4 -13  -2   62.85    2.30
  -4  13   2   57.04    2.09
  -4  13   2   56.92    2.10
  -4 -13   2   61.83    2.31
  -4  13  -2   56.01    2.10
  -4  13  -2   56.51    2.11
   4 -13  -2   62.81    2.33
  -4 -13  -3   21.19    0.87
  -4 -13  -3   21.56    0.90
  -4  13   3   20.89    0.82
  -4  13   3   19.03    0.81
  -4 -13  -3   20.81    0.89
  -4 -13  -3   21.31    0.85
  -4  13  -3   19.48    0.83
  -4 -13   3   21.35    0.86
  -4  13  -3   19.69    0.81
  -4  13  -3   20.45    0.87
   4 -13  -3   21.59    0.89
  -4 -13  -4   44.46    1.70
  -4 -13  -4   42.92    1.69
  -4  13   4   40.78    1.58
  -4 -13  -4   43.96    1.66
  -4 -13  -4   42.63    1.62
  -4 -13   4   42.59    1.64
   4 -13  -4   43.18    1.68
  -4  13  -4   41.17    1.65
  -4  13  -4   42.18    1.55
  -4  13  -4   41.40    1.60
  -4 -13  -5   18.60    0.88
  -4 -13  -5   19.18    0.83
  -4  13   5   18.00    0.79
  -4 -13  -5   17.65    0.92
  -4 -13   5   19.54    0.80
  -4  13  -5   17.40    0.83
   4 -13  -5   19.03    0.86
  -4  13  -5   19.44    0.91
  -5 -13   0    1.35    0.19
  -5 -13   0    1.44    0.22
  -5  13   0    1.01    0.17
  -5  13   0    1.08    0.20
  -5 -13   0    1.23    0.20
  -5 -13  -1   11.17    0.52
  -5 -13  -1   11.05    0.52
  -5 -13  -1   11.26    0.51
  -5  13   1   10.55    0.50
  -5  13   1    9.69    0.49
  -5 -13   1   11.30    0.52
  -5  13  -1   10.20    0.49
   5 -13  -1   11.15    0.52
  -5 -13   1   11.76    0.50
  -5  13  -1   10.37    0.50
  -5 -13  -2   39.55    1.51
  -5  13   2   35.43    1.36
  -5  13   2   36.14    1.38
  -5 -13  -2   38.60    1.49
  -5 -13  -2   38.20    1.48
  -5 -13  -2   38.25    1.48
   5 -13  -2   38.88    1.50
  -5  13  -2   35.23    1.37
  -5  13  -2   35.32    1.39
  -5 -13   2   39.22    1.50
  -5 -13  -3    5.70    0.41
  -5  13   3    5.27    0.39
  -5  13   3    5.49    0.38
  -5 -13  -3    6.07    0.42
  -5 -13  -3    5.83    0.37
  -5 -13  -3    5.35    0.35
  -5  13  -3    4.93    0.39
  -5  13  -3    5.68    0.36
  -5 -13   3    5.88    0.36
   5 -13  -3    6.01    0.39
  -5  13  -3    5.54    0.44
  -5  13   4    6.97    0.45
  -5 -13  -4    8.23    0.44
  -5 -13  -4    8.10    0.53
  -5 -13  -4    8.24    0.55
  -5 -13  -4    8.58    0.48
  -5 -13   4    9.32    0.47
   5 -13  -4    8.11    0.50
  -5  13  -4    8.03    0.54
  -5  13  -4    7.62    0.43
  -5  13  -4    7.77    0.50
  -6 -13   0  176.58    6.36
  -6  13   0  151.36    5.57
  -6 -13   0  181.29    6.34
  -6 -13   0  171.05    6.38
  -6  13   0  155.44    5.56
  -6  13   1   10.36    0.55
  -6  13   1   10.59    0.56
  -6 -13  -1   12.64    0.58
  -6 -13  -1   12.12    0.60
  -6 -13  -1   13.15    0.62
  -6 -13   1   12.83    0.59
  -6 -13   1   12.85    0.61
  -6  13  -1   11.33    0.57
  -6  13  -1   11.61    0.55
  -6 -13  -2  149.22    5.31
  -6 -13  -2  141.39    5.28
  -6 -13  -2  146.54    5.27
  -6 -13  -2  144.46    5.28
  -6  13   2  126.77    4.72
  -6  13  -2  130.44    4.73
  -6  13  -2  130.64    4.72
  -6 -13   2  144.50    5.29
  -6  13   3    5.82    0.45
  -6 -13  -3    6.55    0.48
  -6 -13  -3    6.71    0.44
  -6 -13  -3    7.13    0.50
  -6 -13  -3    6.50    0.41
  -6 -13   3    6.83    0.43
  -6  13  -3    6.58    0.42
  -6  13  -3    5.47    0.50
  -6  13  -3    6.19    0.47
  -7 -13   0   10.41    0.58
  -7 -13   0   10.94    0.61
  -7 -13   0   11.06    0.55
  -7  13   0    8.44    0.56
  -7  13   0    8.91    0.54
  -7 -13  -1    2.86    0.36
  -7  13   1    2.84    0.43
  -7 -13  -1    3.78    0.42
  -7 -13  -1    2.96    0.35
  -7  13   1    2.33    0.38
  -7  13  -1    2.32    0.36
  -7 -13   1    2.90    0.35
  -7  13  -1    2.24    0.41
  -7 -13   1    3.30    0.39
   0 -14   0   29.25    1.10
   0 -14   0   29.29    1.10
   0 -14  -1    0.10    0.09
   0 -14  -1   -0.04    0.09
   0 -14   1    0.01    0.07
   0 -14   1   -0.09    0.07
   0 -14  -1   -0.08    0.07
   0  14  -2   19.52    0.75
   0 -14  -2   19.69    0.79
   0 -14   2   20.05    0.78
   0 -14   2   20.63    0.76
   0 -14  -2   19.72    0.80
   0  14  -3   -0.25    0.11
   0 -14  -3    0.21    0.14
   0 -14   3    0.08    0.10
   0  14  -3    0.17    0.09
   0 -14  -3    0.19    0.13
   0 -14   4    9.92    0.44
   0 -14  -4    9.52    0.48
   0 -14  -4   10.13    0.49
   0 -14  -5    0.34    0.20
   0 -14  -5    0.33    0.19
   0 -14   5    0.16    0.16
   0 -14   6   21.14    0.93
   0 -14  -6   23.52    1.02
   0 -14  -6   24.47    1.00
   1 -14   0    3.66    0.21
  -1 -14   0    3.85    0.21
  -1 -14   0    3.69    0.21
  -1 -14   0    3.89    0.19
  -1 -14  -1  474.63   16.79
  -1 -14  -1  468.75   16.77
   1 -14   1  460.77   16.78
  -1 -14  -1  465.05   16.78
   1 -14   1  473.28   16.76
   1 -14  -1  475.48   16.79
  -1 -14   1  477.18   16.77
  -1 -14   1  476.90   16.78
  -1  14  -1  448.36   15.96
  -1 -14  -2    0.83    0.13
  -1 -14  -2    1.11    0.16
  -1 -14  -2    0.85    0.14
   1  14  -2    0.98    0.16
   1 -14   2    0.94    0.13
   1 -14  -2    1.07    0.15
  -1 -14   2    0.76    0.12
  -1  14  -2    0.89    0.14
  -1  14  -2    0.83    0.13
  -1 -14  -3  321.27   11.23
  -1 -14  -3  309.86   11.27
  -1 -14  -3  308.52   11.28
   1 -14   3  312.08   11.25
   1 -14  -3  317.63   11.28
  -1 -14   3  324.60   11.24
   1 -14  -3  312.00   11.28
  -1  14  -3  311.33   11.19
  -1  14  -3  310.37   11.17
  -1  14  -3  319.21   11.19
  -1 -14  -4    0.93    0.20
   1 -14   4    1.08    0.19
  -1 -14  -4    0.94    0.19
  -1  14  -4    0.72    0.19
  -1 -14   4    0.84    0.17
   1 -14  -4    1.05    0.20
  -1  14  -4    0.76    0.18
   1 -14  -4    1.08    0.22
  -1 -14  -5  195.39    6.98
  -1 -14  -5  189.68    6.96
   1 -14  -5  192.40    6.96
  -1 -14   5  194.45    6.91
  -1  14  -5  192.95    6.67
  -1  14  -5  178.00    6.70
   1 -14  -5  190.58    6.98
  -1 -14  -6   -0.01    0.27
  -1 -14  -6    0.56    0.26
  -1  14  -6    0.15    0.30
   1 -14  -6    0.17    0.24
   1 -14  -6    0.08    0.26
   2 -14   0   24.48    0.92
  -2 -14   0   23.91    0.93
  -2 -14   0   24.35    0.93
  -2  14   0   22.29    0.87
  -2 -14  -1   16.25    0.67
  -2 -14  -1   17.15    0.65
   2 -14   1   16.26    0.63
  -2 -14  -1   16.92    0.66
  -2 -14   1   16.37    0.66
  -2  14  -1   16.01    0.64
  -2  14  -1   15.88    0.64
   2 -14  -1   16.72    0.67
  -2 -14  -2    0.66    0.13
  -2 -14  -2    0.99    0.24
  -2 -14  -2    0.63    0.13
  -2  14  -2    0.56    0.12
   2 -14  -2    1.01    0.19
  -2  14  -2    0.59    0.13
  -2 -14   2    0.58    0.11
  -2 -14  -3   12.97    0.56
  -2 -14  -3   12.21    0.55
  -2 -14  -3   12.46    0.51
  -2  14  -3   12.53    0.54
  -2  14  -3   11.88    0.54
  -2  14  -3   12.00    0.50
   2 -14  -3   12.63    0.56
  -2 -14   3   11.92    0.52
  -2 -14  -4   19.23    0.84
  -2 -14  -4   18.72    0.82
  -2  14  -4   17.94    0.85
  -2  14  -4   19.48    0.78
  -2  14  -4   19.04    0.72
  -2 -14   4   19.81    0.77
   2 -14  -4   20.15    0.83
  -2 -14  -5   10.35    0.54
  -2 -14  -5   10.06    0.54
   2 -14  -5   10.02    0.52
  -2  14  -5    9.59    0.50
  -2  14  -5    8.74    0.51
  -2 -14   5    8.86    0.45
  -2 -14  -6   22.40    1.03
  -2 -14  -6   24.06    1.05
  -2  14  -6   22.62    1.06
   2 -14  -6   22.88    1.00
  -2  14  -6   24.69    1.02
   3 -14   0    4.06    0.23
  -3 -14   0    4.28    0.22
  -3 -14  -1  236.91    8.35
  -3  14   1  228.21    7.96
   3 -14   1  250.23    8.32
  -3 -14  -1  201.54    8.42
  -3 -14  -1  241.57    8.34
  -3  14   1  219.06    7.95
   3 -14  -1  242.60    8.35
  -3 -14   1  225.76    8.38
  -3  14  -1  229.15    7.95
  -3  14  -1  211.15    7.97
  -3  14   2    4.34    0.34
  -3  14   2    4.91    0.28
  -3 -14  -2    4.19    0.27
  -3 -14  -2    4.32    0.28
  -3 -14  -2    4.83    0.28
  -3 -14  -2    4.47    0.25
  -3 -14   2    4.03    0.27
  -3  14  -2    4.68    0.29
   3 -14  -2    4.65    0.28
  -3  14  -2    4.52    0.27
  -3 -14  -3  208.58    7.43
  -3 -14  -3  210.14    7.43
  -3 -14  -3  190.21    7.41
  -3 -14  -3  209.48    7.40
  -3  14  -3  212.62    7.47
  -3  14  -3  201.79    7.42
  -3  14  -3  207.19    7.44
   3 -14  -3  213.20    7.43
  -3 -14  -4    1.95    0.22
  -3 -14  -4    1.86    0.26
  -3 -14  -4    1.84    0.22
  -3 -14  -4    1.68    0.30
   3 -14  -4    1.63    0.24
  -3  14  -4    2.22    0.32
  -3  14  -4    1.89    0.22
  -3  14  -4    2.19    0.29
  -3 -14   4    1.81    0.22
  -3  14   5  114.18    4.48
  -3 -14  -5  127.19    4.63
  -3 -14  -5  127.74    4.58
  -3 -14  -5  119.29    4.63
  -3  14  -5  121.84    4.42
   3 -14  -5  126.80    4.62
  -3 -14   5  127.37    4.55
  -3  14  -5  126.73    4.46
  -3 -14  -6    0.39    0.22
  -3 -14  -6    0.61    0.30
  -3 -14  -6    0.99    0.40
  -3  14  -6    0.48    0.29
  -3  14  -6   -0.07    0.41
   3 -14  -6    0.68    0.30
  -4 -14   0   28.13    1.05
  -4 -14   0   26.92    1.07
  -4  14   0   24.93    1.00
  -4  14   0   25.51    0.99
   4 -14   0   27.39    1.05
  -4  14   1    6.61    0.36
  -4 -14  -1    7.36    0.35
  -4 -14  -1    6.90    0.35
  -4 -14  -1    7.29    0.36
  -4 -14  -1    7.54    0.37
  -4  14   1    6.34    0.36
   4 -14  -1    7.12    0.36
  -4 -14   1    6.51    0.35
  -4  14  -1    6.69    0.35
  -4  14  -1    6.73    0.36
  -4  14   2   16.42    0.68
  -4 -14  -2   17.35    0.74
  -4 -14  -2   17.35    0.72
  -4 -14  -2   17.93    0.74
  -4 -14  -2   18.33    0.72
  -4  14   2   15.50    0.69
  -4  14  -2   16.27    0.68
  -4 -14   2   17.16    0.72
   4 -14  -2   17.22    0.74
  -4  14  -2   16.63    0.70
  -4  14   3   27.25    1.10
  -4 -14  -3   29.93    1.18
  -4 -14  -3   30.87    1.16
  -4 -14  -3   29.38    1.20
  -4 -14  -3   30.02    1.21
  -4  14   3   27.44    1.10
  -4  14  -3   28.51    1.09
  -4  14  -3   28.57    1.16
  -4 -14   3   29.61    1.17
   4 -14  -3   30.76    1.20
  -4  14  -3   28.11    1.12
  -4 -14  -4   10.26    0.56
  -4  14   4    8.45    0.47
  -4 -14  -4    9.60    0.45
  -4 -14  -4    9.90    0.53
  -4 -14  -4    9.70    0.49
  -4 -14   4    8.99    0.46
  -4  14  -4    9.07    0.50
  -4  14  -4    9.59    0.55
  -4  14  -4    8.85    0.44
   4 -14  -4    9.43    0.52
  -4 -14  -5    4.69    0.43
  -4 -14  -5    4.86    0.52
  -4  14   5    3.14    0.39
  -4 -14  -5    4.02    0.37
  -4  14  -5    3.48    0.40
  -4 -14   5    3.15    0.34
  -4  14  -5    4.09    0.49
   4 -14  -5    4.22    0.38
  -5 -14   0    3.10    0.24
  -5  14   0    2.85    0.29
  -5 -14   0    2.91    0.26
  -5 -14   0    3.11    0.25
  -5  14   0    2.44    0.25
  -5  14   1   77.36    2.78
  -5 -14  -1   82.09    3.11
  -5 -14  -1   86.50    3.11
  -5  14   1   76.55    2.80
  -5 -14  -1   86.82    3.09
   5 -14  -1   82.59    3.10
  -5  14  -1   73.21    2.79
  -5 -14   1   84.59    3.11
  -5  14  -1   75.00    2.79
  -5 -14  -2    3.55    0.28
  -5 -14  -2    4.08    0.33
  -5 -14  -2    3.42    0.26
  -5  14   2    2.89    0.30
  -5  14   2    3.13    0.33
  -5 -14  -2    3.80    0.30
   5 -14  -2    3.07    0.30
  -5  14  -2    3.46    0.29
  -5 -14   2    3.68    0.28
  -5  14  -2    3.84    0.33
  -5 -14  -3   70.95    2.60
  -5 -14  -3   70.51    2.63
  -5 -14  -3   68.64    2.62
  -5  14   3   64.93    2.39
  -5 -14  -3   69.48    2.58
  -5  14   3   64.45    2.42
  -5  14  -3   64.39    2.40
  -5 -14   3   70.19    2.59
  -5  14  -3   62.96    2.43
   5 -14  -3   68.56    2.62
  -5  14  -3   66.06    2.48
  -5 -14  -4    0.78    0.22
  -5 -14  -4    1.41    0.33
  -5  14   4    0.91    0.25
  -5 -14  -4    1.06    0.21
  -5 -14  -4    1.06    0.30
   5 -14  -4    1.25    0.28
  -5  14  -4    0.83    0.26
  -5 -14   4    1.01    0.22
  -5  14  -4    1.53    0.36
  -5  14  -4    1.08    0.22
  -6 -14   0    0.63    0.19
  -6 -14   0    0.72    0.19
  -6  14   0    0.26    0.19
  -6 -14   0    0.73    0.22
  -6  14   0    0.31    0.24
  -6 -14  -1   23.95    0.99
  -6 -14  -1   23.55    0.98
  -6  14   1   19.72    0.88
  -6  14   1   20.67    0.87
  -6 -14  -1   23.74    0.96
  -6 -14   1   23.37    0.99
  -6  14  -1   20.68    0.89
  -6  14  -1   20.04    0.87
  -6 -14  -2   17.49    0.82
  -6 -14  -2   18.14    0.78
  -6  14   2   15.05    0.73
  -6  14   2   15.94    0.74
  -6 -14  -2   18.39    0.78
  -6 -14  -2   17.68    0.79
  -6 -14   2   17.52    0.79
  -6  14  -2   15.77    0.75
  -6  14  -2   16.19    0.72
  -6 -14  -3    7.59    0.52
  -6 -14  -3    8.47    0.48
  -6 -14  -3    8.20    0.46
  -6  14   3    7.81    0.50
  -6 -14  -3    7.92    0.54
  -6 -14   3    7.95    0.48
  -6  14  -3    7.24    0.45
  -6  14  -3    7.71    0.52
  -6  14  -3    6.49    0.55
  -7 -14   0    6.91    0.49
  -7  14   0    6.34    0.47
  -7 -14   0    6.77    0.46
  -7  14   0    6.45    0.51
  -7 -14   0    6.97    0.44
   0 -15   0    0.10    0.08
   0 -15   0    0.07    0.09
   0 -15   1   58.79    2.13
   0 -15   1   58.55    2.15
   0 -15  -1   57.63    2.14
   0 -15  -1   59.34    2.16
   0 -15   2    0.05    0.08
   0  15  -2    0.22    0.11
   0 -15   2    0.14    0.09
   0  15  -3   54.42    1.95
   0 -15   3   54.53    1.97
   0 -15  -3   52.39    2.00
   0 -15  -3   53.20    2.00
   0  15  -3   51.90    1.94
   0 -15   4   -0.03    0.12
   0  15  -4    0.03    0.15
   0 -15  -5   20.87    0.92
   0 -15  -5   21.60    0.92
   0 -15   5   21.94    0.87
   0 -15   6    0.05    0.20
  -1 -15   0   16.23    0.64
  -1 -15   0   15.48    0.64
  -1 -15   0   16.32    0.61
   1  15   0   14.21    0.56
   1 -15   0   15.96    0.63
  -1 -15  -1   22.07    0.88
   1 -15   1   22.86    0.88
  -1 -15  -1   22.46    0.87
   1 -15   1   23.19    0.86
  -1 -15  -1   22.97    0.87
  -1 -15   1   22.88    0.87
   1 -15  -1   22.26    0.88
  -1 -15   1   22.30    0.86
  -1  15  -1   21.96    0.85
  -1 -15  -2   37.80    1.44
  -1 -15  -2   37.90    1.42
   1  15  -2   34.22    1.32
  -1 -15  -2   37.72    1.43
   1 -15   2   38.58    1.43
   1 -15  -2   38.38    1.45
  -1 -15   2   38.14    1.42
  -1  15  -2   36.90    1.34
  -1 -15  -3    0.36    0.16
   1 -15   3    0.73    0.15
  -1  15  -3    0.42    0.14
  -1  15  -3    0.61    0.11
   1 -15  -3    0.44    0.16
  -1  15  -3   -0.01    0.14
  -1 -15   3    0.24    0.10
   1 -15  -3    1.05    0.20
   1 -15   4    9.26    0.43
  -1 -15  -4    8.59    0.46
  -1 -15  -4    8.95    0.47
  -1 -15   4    9.29    0.42
   1 -15  -4    8.91    0.48
  -1  15  -4    9.21    0.44
   1 -15  -4    9.16    0.46
  -1  15  -4    8.83    0.45
  -1 -15  -5   22.38    0.98
  -1 -15  -5   23.77    0.99
   1 -15  -5   23.47    0.98
   1 -15  -5   22.92    1.00
  -1  15  -5   22.54    0.95
  -1  15  -5   22.59    0.92
  -1 -15   5   23.16    0.92
  -1 -15  -6    4.78    0.43
  -1 -15  -6    5.15    0.43
   1 -15  -6    4.09    0.45
  -1  15  -6    5.01    0.45
   1 -15  -6    4.66    0.41
  -1  15  -6    5.04    0.40
  -2  15   0   15.40    0.63
  -2 -15   0   15.66    0.64
  -2 -15   0   15.89    0.64
   2 -15   0   16.24    0.63
   2 -15   1   53.88    1.90
  -2 -15  -1   51.58    1.94
  -2 -15  -1   51.95    1.91
  -2 -15  -1   52.51    1.93
   2 -15  -1   52.56    1.93
  -2  15  -1   49.12    1.81
  -2  15  -1   48.98    1.81
  -2 -15   1   51.28    1.92
  -2 -15  -2   18.47    0.74
  -2 -15  -2   18.27    0.76
  -2 -15  -2   18.51    0.75
  -2 -15   2   18.76    0.74
  -2  15  -2   18.00    0.73
   2 -15  -2   19.37    0.77
  -2  15  -2   17.60    0.71
  -2 -15  -3   40.60    1.58
  -2 -15  -3   41.70    1.53
  -2 -15  -3   40.66    1.57
  -2  15  -3   39.59    1.51
  -2  15  -3   40.24    1.49
  -2  15  -3   39.99    1.52
  -2 -15   3   41.84    1.54
   2 -15  -3   41.29    1.58
  -2 -15  -4    5.24    0.29
  -2 -15  -4    6.19    0.39
  -2 -15  -4    5.75    0.36
   2 -15  -4    5.74    0.36
  -2  15  -4    4.49    0.33
  -2  15  -4    4.81    0.26
  -2  15  -4    4.92    0.36
  -2 -15   4    5.72    0.31
  -2 -15  -5   38.61    1.58
  -2 -15  -5   40.08    1.58
   2 -15  -5   40.60    1.57
  -2  15  -5   38.30    1.49
  -2 -15   5   39.38    1.51
  -2  15  -5   38.98    1.53
  -2 -15  -6    4.68    0.48
  -2 -15  -6    4.75    0.43
  -2  15  -6    1.89    0.42
   2 -15  -6    4.05    0.39
  -2  15  -6    2.72    0.40
  -3  15   0   75.81    2.79
   3 -15   0   81.03    2.94
  -3  15   0   76.74    2.79
  -3 -15   0   80.88    2.95
  -3 -15  -1   61.38    2.24
  -3  15   1   56.67    2.09
  -3 -15  -1   61.23    2.23
  -3 -15  -1   60.25    2.25
  -3  15   1   55.12    2.07
   3 -15   1   62.67    2.22
   3 -15  -1   60.76    2.25
  -3  15  -1   57.08    2.08
  -3  15  -1   55.77    2.08
  -3 -15   1   59.44    2.24
  -3  15   2    3.08    0.28
  -3 -15  -2    4.10    0.27
  -3 -15  -2    3.92    0.25
  -3 -15  -2    4.16    0.24
  -3 -15  -2    3.85    0.24
  -3  15  -2    3.58    0.27
  -3  15  -2    3.63    0.25
  -3 -15   2    3.61    0.24
   3 -15  -2    4.21    0.26
  -3 -15  -3   73.96    2.71
  -3 -15  -3   72.01    2.66
  -3 -15  -3   72.41    2.70
  -3 -15  -3   72.88    2.67
  -3  15  -3   70.22    2.58
   3 -15  -3   72.94    2.70
  -3  15  -3   68.78    2.59
  -3 -15   3   72.27    2.66
  -3  15  -3   72.20    2.63
  -3 -15  -4   10.27    0.56
  -3 -15  -4   11.07    0.55
  -3 -15  -4   10.99    0.51
  -3 -15  -4   10.61    0.48
  -3  15  -4   11.08    0.60
   3 -15  -4   10.88    0.54
  -3  15  -4   10.38    0.54
  -3 -15   4   10.90    0.49
  -3  15  -4   11.49    0.59
  -3 -15  -5   30.88    1.35
  -3  15   5   32.15    1.25
  -3 -15  -5   32.76    1.34
  -3 -15  -5   32.70    1.29
  -3  15  -5   31.47    1.28
  -3 -15   5   33.21    1.26
  -3  15  -5   31.70    1.32
   3 -15  -5   32.73    1.33
  -3 -15  -6    4.40    0.52
  -3 -15  -6    4.18    0.45
  -3  15  -6    3.52    0.57
   3 -15  -6    3.95    0.41
  -3  15  -6    3.60    0.44
  -4 -15   0   19.44    0.76
  -4  15   0   16.84    0.71
  -4  15   0   17.31    0.72
  -4 -15   0   19.15    0.78
   4 -15   0   19.14    0.77
   4 -15   1   37.27    1.37
  -4 -15  -1   36.93    1.38
  -4 -15  -1   36.16    1.40
  -4  15   1   35.28    1.33
  -4 -15  -1   37.11    1.39
  -4 -15  -1   36.25    1.40
  -4  15   1   34.66    1.34
   4 -15  -1   36.88    1.40
  -4  15  -1   34.46    1.34
  -4  15  -1   34.35    1.33
  -4 -15   1   36.05    1.40
  -4 -15  -2   10.54    0.48
  -4  15   2   10.11    0.49
  -4 -15  -2   10.77    0.50
  -4 -15  -2   10.51    0.50
  -4  15   2   10.59    0.49
  -4 -15  -2   10.07    0.47
   4 -15  -2   10.35    0.50
  -4 -15   2   10.94    0.49
  -4  15  -2   10.26    0.50
  -4  15  -2   10.15    0.48
  -4 -15  -3   43.49    1.71
  -4 -15  -3   43.98    1.70
  -4 -15  -3   45.14    1.68
  -4 -15  -3   44.35    1.66
  -4  15   3   40.92    1.59
  -4  15   3   43.56    1.60
  -4  15  -3   41.30    1.61
  -4 -15   3   44.38    1.67
  -4  15  -3   41.21    1.58
   4 -15  -3   43.33    1.70
  -4  15  -3   42.66    1.66
  -4 -15  -4   16.42    0.77
  -4  15   4   14.72    0.68
  -4 -15  -4   17.32    0.79
  -4 -15  -4   15.73    0.69
  -4  15   4   15.54    0.68
  -4 -15  -4   16.82    0.73
  -4 -15   4   16.83    0.71
  -4  15  -4   15.93    0.65
  -4  15  -4   13.81    0.69
   4 -15  -4   16.21    0.76
  -4  15  -4   15.32    0.77
  -4 -15  -5   36.90    1.52
  -4  15   5   37.17    1.42
  -4 -15  -5   36.30    1.47
  -4 -15  -5   37.61    1.55
  -4  15  -5   35.59    1.53
  -4  15  -5   35.05    1.44
  -4 -15   5   37.39    1.44
  -5  15   0   -0.01    0.15
  -5 -15   0    0.12    0.17
  -5 -15   0    0.01    0.12
  -5  15   0    0.12    0.18
  -5  15   1   77.35    2.79
  -5 -15  -1   81.32    3.04
  -5  15   1   75.51    2.81
  -5 -15  -1   82.71    3.02
  -5 -15  -1   83.17    3.04
  -5 -15  -1   81.65    3.05
   5 -15  -1   82.75    3.04
  -5 -15   1   84.16    3.05
  -5  15  -1   75.03    2.80
  -5  15  -1   74.36    2.79
  -5 -15  -2   21.16    0.89
  -5  15   2   18.69    0.81
  -5  15   2   18.46    0.80
  -5 -15  -2   20.90    0.86
  -5 -15  -2   21.81    0.87
  -5 -15  -2   20.67    0.89
  -5  15  -2   18.77    0.82
  -5 -15   2   20.72    0.87
   5 -15  -2   20.74    0.89
  -5  15  -2   19.57    0.81
  -5 -15  -3  123.45    4.62
  -5  15   3  118.04    4.27
  -5 -15  -3  126.07    4.58
  -5 -15  -3  128.01    4.60
  -5  15   3  113.92    4.24
  -5 -15  -3  125.59    4.62
   5 -15  -3  126.44    4.62
  -5  15  -3  116.48    4.25
  -5 -15   3  127.48    4.60
  -5  15  -3  116.72    4.28
  -5  15  -3  118.53    4.33
  -5 -15  -4    1.15    0.30
  -5 -15  -4    0.84    0.24
  -5  15   4    1.06    0.25
  -5 -15  -4    1.14    0.33
  -5 -15  -4    0.72    0.21
  -5  15  -4    0.51    0.26
  -5  15  -4    0.43    0.22
  -5  15  -4    0.34    0.36
  -5 -15   4    0.56    0.20
   5 -15  -4    0.98    0.29
  -6  15   0    0.92    0.22
  -6 -15   0    1.22    0.21
  -6 -15   0    1.25    0.28
  -6  15   0    1.13    0.26
  -6 -15  -1   22.21    0.95
  -6 -15  -1   23.07    0.93
  -6 -15  -1   22.19    0.95
  -6  15   1   20.07    0.87
  -6  15   1   19.30    0.86
  -6 -15  -1   23.36    0.97
  -6  15  -1   19.58    0.86
  -6 -15   1   22.82    0.96
  -6  15  -1   19.87    0.88
  -6 -15  -2    6.51    0.42
  -6  15   2    6.57    0.46
  -6 -15  -2    6.61    0.44
  -6  15   2    6.39    0.44
  -6 -15  -2    7.52    0.48
  -6 -15  -2    6.24    0.40
  -6  15  -2    5.70    0.47
  -6  15  -2    5.98    0.42
  -6 -15   2    7.00    0.43
  -6 -15  -3   20.74    0.89
  -6 -15  -3   19.35    0.92
  -6 -15  -3   20.77    0.94
  -6 -15  -3   20.66    0.88
  -6  15   3   18.24    0.84
  -6 -15   3   20.40    0.90
  -6  15  -3   18.54    0.87
  -6  15  -3   18.09    0.92
  -6  15  -3   18.21    0.82
   0 -16   0  204.10    7.46
   0 -16   0  212.69    7.46
   0 -16   1   -0.17    0.09
   0 -16  -1    0.02    0.08
   0 -16   1    0.04    0.09
   0 -16  -1   -0.02    0.11
   0 -16  -2  363.94   12.98
   0  16  -2  378.34   13.48
   0 -16   2  367.36   12.98
   0 -16   2  370.86   12.95
   0 -16  -2  352.92   13.05
   0 -16  -3    0.25    0.14
   0 -16   3    0.03    0.11
   0 -16  -3    0.52    0.15
   0  16  -3    0.16    0.13
   0 -16  -4  118.84    4.40
   0 -16  -4  117.90    4.40
   0 -16   4  124.19    4.35
   0 -16  -5    0.37    0.21
   0 -16  -5    0.07    0.22
   0 -16   5   -0.16    0.17
   0 -16  -6   58.72    2.36
   0 -16  -6   62.77    2.35
   0 -16   6   61.60    2.28
  -1 -16   0    0.01    0.09
   1 -16   0    0.09    0.10
  -1 -16   0    0.06    0.08
  -1 -16  -1    5.03    0.26
   1 -16   1    5.64    0.28
  -1 -16  -1    5.23    0.28
   1 -16   1    5.61    0.26
  -1 -16  -1    5.35    0.27
  -1  16  -1    5.00    0.29
  -1 -16   1    5.36    0.27
  -1 -16   1    5.30    0.26
   1 -16  -1    5.44    0.29
  -1 -16  -2    1.75    0.17
  -1 -16  -2    1.76    0.18
   1 -16   2    1.92    0.17
  -1 -16  -2    1.86    0.22
   1  16  -2    1.90    0.20
  -1 -16   2    2.07    0.15
  -1 -16   2    1.74    0.17
  -1  16  -2    1.78    0.20
  -1 -16  -3   10.79    0.45
  -1 -16  -3   10.53    0.49
  -1 -16  -3   11.58    0.51
   1 -16   3   10.44    0.47
  -1  16  -3   10.22    0.46
  -1 -16   3   10.18    0.46
   1 -16  -3   10.52    0.51
  -1  16  -3   10.32    0.44
  -1 -16  -4    4.14    0.30
  -1 -16  -4    3.36    0.30
   1 -16   4    3.87    0.28
   1 -16  -4    3.66    0.30
   1 -16  -4    4.07    0.32
  -1  16  -4    3.38    0.30
  -1  16  -4    3.52    0.28
  -1 -16   4    4.16    0.27
  -1  16  -4    3.65    0.21
  -1 -16  -5    9.47    0.52
  -1 -16  -5    9.25    0.51
  -1  16  -5    8.87    0.46
  -1 -16   5    9.14    0.46
   1 -16  -5    9.14    0.50
   1 -16  -5    8.57    0.52
  -1  16  -5    7.91    0.49
  -1 -16  -6    4.44    0.44
  -1 -16  -6    4.87    0.43
   1 -16  -6    3.56    0.42
   1 -16  -6    4.48    0.40
  -1  16  -6    3.61    0.44
  -1 -16   6    3.04    0.45
  -2 -16   0  283.15   10.11
   2 -16   0  283.36   10.10
  -2 -16   0  282.59   10.11
  -2  16   0  265.95    9.51
  -2 -16  -1    2.98    0.28
  -2 -16  -1    3.32    0.20
  -2 -16  -1    3.26    0.20
   2 -16   1    3.06    0.19
   2 -16  -1    3.22    0.22
  -2  16  -1    3.32    0.22
  -2 -16   1    3.50    0.21
  -2 -16  -2  121.28    4.51
  -2 -16  -2  124.99    4.49
  -2 -16  -2  124.00    4.50
  -2  16  -2  117.37    4.27
  -2 -16   2  125.57    4.49
  -2  16  -2  119.09    4.27
   2 -16  -2  126.48    4.52
  -2 -16  -3    6.05    0.32
  -2 -16  -3    6.11    0.35
  -2 -16  -3    5.83    0.36
   2 -16  -3    6.42    0.35
  -2  16  -3    5.68    0.31
  -2  16  -3    6.05    0.35
  -2 -16   3    6.47    0.32
  -2  16  -3    5.85    0.36
  -2 -16  -4  123.95    4.52
  -2 -16  -4  124.91    4.51
  -2 -16  -4  129.89    4.44
  -2 -16   4  110.89    4.51
   2 -16  -4  127.87    4.53
  -2  16  -4  123.64    4.55
  -2  16  -4  127.37    4.57
  -2  16  -4  125.10    4.50
  -2 -16  -5   15.93    0.74
  -2 -16  -5   15.02    0.75
  -2  16  -5   15.10    0.73
  -2  16  -5   15.18    0.70
  -2 -16   5   15.69    0.68
   2 -16  -5   16.03    0.74
  -2 -16  -6   76.18    2.89
  -2 -16  -6   76.00    2.90
  -2  16  -6   80.84    2.87
   2 -16  -6   75.01    2.87
  -2  16  -6   71.85    2.89
  -3 -16   0    0.44    0.11
  -3 -16   0    0.12    0.10
  -3  16   0    0.29    0.14
  -3  16   0    0.11    0.12
   3 -16   0    0.03    0.13
  -3 -16  -1    0.45    0.13
  -3 -16  -1    0.23    0.10
  -3  16   1    0.36    0.15
  -3  16   1    0.16    0.14
  -3 -16  -1    0.15    0.12
   3 -16   1   -0.02    0.11
  -3  16  -1    0.25    0.15
  -3  16  -1    0.10    0.11
  -3 -16   1    0.12    0.10
  -3 -16  -2    5.22    0.29
  -3 -16  -2    5.44    0.33
  -3  16   2    5.66    0.33
  -3  16  -2    4.78    0.30
  -3 -16   2    5.95    0.31
   3 -16  -2    5.86    0.33
  -3  16  -2    5.29    0.33
  -3 -16  -3    1.26    0.22
  -3 -16  -3    1.08    0.19
  -3 -16  -3    1.13    0.21
  -3  16  -3    1.17    0.20
  -3 -16   3    1.09    0.18
  -3  16  -3    1.05    0.20
   3 -16  -3    1.05    0.21
  -3  16  -3    1.10    0.25
  -3 -16  -4   12.76    0.65
  -3 -16  -4   12.68    0.56
  -3 -16  -4   12.95    0.62
  -3 -16  -4   13.29    0.59
  -3  16  -4   11.86    0.54
  -3 -16   4   13.77    0.58
  -3  16  -4   11.97    0.59
   3 -16  -4   12.73    0.62
  -3  16  -4   13.16    0.64
  -3 -16  -5    0.49    0.31
  -3 -16  -5    0.57    0.26
  -3  16  -5    0.94    0.27
   3 -16  -5    0.71    0.25
  -3 -16   5    0.43    0.18
  -3  16  -5    1.11    0.33
  -4 -16   0   58.16    2.18
   4 -16   0   58.31    2.18
  -4 -16   0   59.85    2.15
  -4  16   0   53.81    2.00
  -4  16   0   53.43    2.01
   4 -16   1    0.46    0.15
  -4  16   1    0.44    0.17
  -4 -16  -1    0.50    0.13
  -4 -16  -1    0.64    0.16
  -4 -16  -1    0.61    0.17
  -4  16   1    0.34    0.15
  -4 -16   1    0.50    0.13
  -4  16  -1    0.33    0.17
  -4  16  -1    0.38    0.14
   4 -16  -1    0.32    0.17
  -4  16   2   48.11    1.84
  -4 -16  -2   51.94    1.98
  -4 -16  -2   52.95    1.99
  -4 -16  -2   52.62    1.96
  -4  16   2   50.76    1.85
  -4 -16  -2   52.93    1.97
  -4 -16   2   53.04    1.97
   4 -16  -2   52.71    1.99
  -4  16  -2   48.96    1.84
  -4  16  -2   47.77    1.85
  -4  16   3   14.27    0.63
  -4 -16  -3   13.66    0.65
  -4 -16  -3   14.44    0.61
  -4  16   3   13.05    0.63
  -4 -16  -3   14.20    0.66
  -4 -16  -3   13.69    0.62
   4 -16  -3   14.20    0.66
  -4  16  -3   13.15    0.68
  -4 -16   3   14.17    0.62
  -4  16  -3   13.51    0.60
  -4  16  -3   13.78    0.63
  -4  16   4   52.63    1.95
  -4 -16  -4   55.06    2.08
  -4 -16  -4   53.07    2.04
  -4  16   4   48.99    1.94
  -4 -16  -4   53.14    2.01
  -4 -16  -4   54.76    2.09
   4 -16  -4   53.92    2.08
  -4  16  -4   50.51    1.97
  -4  16  -4   51.61    1.92
  -4 -16   4   53.63    2.02
  -4  16  -4   53.46    2.03
  -4 -16  -5    5.23    0.54
  -4  16   5    4.89    0.44
  -4 -16  -5    5.40    0.46
  -4 -16  -5    4.57    0.40
  -4 -16   5    4.97    0.37
  -4  16  -5    5.05    0.45
  -4  16  -5    4.77    0.57
   4 -16  -5    5.12    0.44
  -5  16   0    8.33    0.45
  -5  16   0    8.93    0.47
  -5 -16   0    9.47    0.45
  -5 -16   0    9.05    0.46
  -5  16   1    1.65    0.25
  -5 -16  -1    2.13    0.26
  -5 -16  -1    1.60    0.21
  -5  16   1    1.32    0.26
  -5 -16  -1    1.72    0.23
  -5 -16  -1    2.01    0.25
   5 -16  -1    1.56    0.27
  -5  16  -1    1.47    0.25
  -5 -16   1    1.96    0.22
  -5  16  -1    1.99    0.29
  -5  16   2   14.04    0.66
  -5  16   2   14.48    0.66
  -5 -16  -2   15.42    0.67
  -5 -16  -2   15.07    0.70
  -5 -16  -2   15.81    0.71
  -5 -16  -2   15.62    0.68
   5 -16  -2   15.53    0.70
  -5  16  -2   14.33    0.65
  -5 -16   2   14.97    0.68
  -5  16  -2   13.76    0.67
  -5 -16  -3    1.47    0.30
  -5 -16  -3    0.67    0.19
  -5 -16  -3    0.99    0.28
  -5  16   3    0.81    0.24
  -5 -16  -3    1.03    0.21
  -5  16   3    0.72    0.24
  -5 -16   3    0.72    0.19
  -5  16  -3    1.45    0.28
  -5  16  -3    1.31    0.35
  -5  16  -3    0.62    0.25
   5 -16  -3    0.65    0.25
  -5 -16  -4   15.34    0.78
  -5 -16  -4   16.05    0.73
  -5 -16  -4   13.85    0.76
  -5 -16  -4   15.09    0.68
  -5  16   4   14.43    0.70
   5 -16  -4   15.54    0.76
  -5  16  -4   13.98    0.72
  -5  16  -4   14.03    0.66
  -5  16  -4   14.38    0.82
  -5 -16   4   15.20    0.71
  -6 -16   0    2.39    0.29
  -6  16   0    2.11    0.32
  -6 -16   0    2.76    0.33
  -6  16   0    2.05    0.37
  -6 -16  -1    1.01    0.24
  -6  16   1    0.61    0.27
  -6 -16  -1    1.53    0.32
  -6 -16  -1    1.17    0.22
  -6  16   1    0.61    0.23
  -6 -16  -1    0.98    0.21
  -6 -16   1    0.62    0.20
  -6  16  -1    0.78    0.23
  -6  16  -1    0.80    0.28
  -6  16   2   25.79    1.07
  -6 -16  -2   27.40    1.14
  -6 -16  -2   28.46    1.18
  -6 -16  -2   27.95    1.17
  -6 -16  -2   28.84    1.14
  -6  16  -2   25.44    1.06
  -6 -16   2   28.61    1.16
  -6  16  -2   24.42    1.08
  -6  16   3    1.07    0.32
  -6  16   3    1.47    0.29
  -6 -16  -3    1.66    0.28
  -6 -16  -3    2.30    0.39
  -6 -16  -3    1.67    0.31
  -6 -16  -3    1.92    0.37
  -6  16  -3    1.83    0.42
  -6  16  -3    1.88    0.34
  -6  16  -3    1.71    0.40
  -6 -16   3    1.53    0.31
   0 -17   0    0.25    0.11
   0 -17   0    0.28    0.09
   0 -17   1   59.68    2.17
   0 -17   1   58.71    2.18
   0 -17  -1   59.26    2.19
   0 -17  -1   59.59    2.18
   0 -17  -2   -0.06    0.13
   0  17  -2    0.26    0.17
   0 -17   2    0.05    0.10
   0 -17   2    0.18    0.11
   0 -17  -3   64.43    2.48
   0 -17  -3   66.44    2.50
   0  17  -3   65.17    2.38
   0 -17   3   68.83    2.42
   0 -17   3   67.63    2.46
   0  17  -4    0.12    0.18
   0 -17  -4    0.31    0.17
   0 -17  -4    0.31    0.19
   0 -17   4    0.12    0.14
   0 -17  -5   32.99    1.33
   0 -17  -5   33.07    1.33
   0 -17   5   31.86    1.28
   0 -17  -6    0.39    0.30
   0 -17   6    0.21    0.22
   0 -17  -6    0.52    0.29
   1 -17   0   56.12    2.01
  -1 -17   0   53.28    2.01
  -1 -17   0   53.86    2.01
  -1 -17  -1   12.49    0.54
   1 -17   1   13.44    0.53
  -1 -17  -1   12.91    0.55
  -1 -17  -1   13.15    0.53
   1 -17   1   13.33    0.55
  -1  17  -1   12.14    0.53
   1 -17  -1   13.07    0.55
  -1 -17   1   12.43    0.53
  -1 -17   1   12.72    0.54
  -1 -17  -2   15.59    0.64
  -1 -17  -2   15.96    0.67
   1  17  -2   14.73    0.61
  -1 -17  -2   16.36    0.66
   1 -17   2   15.60    0.65
  -1  17  -2   14.78    0.62
  -1 -17   2   15.67    0.62
   1 -17  -2   15.91    0.68
  -1 -17   2   15.61    0.64
  -1 -17  -3    3.60    0.27
  -1 -17  -3    2.86    0.25
  -1  17  -3    0.98    0.21
  -1  17  -3    1.14    0.19
   1 -17  -3    3.03    0.26
  -1  17  -3    1.32    0.25
  -1 -17  -4   17.38    0.77
  -1 -17  -4   16.97    0.75
   1 -17   4   17.54    0.74
   1 -17  -4   16.89    0.76
  -1 -17   4   17.11    0.72
  -1  17  -4   17.61    0.68
  -1  17  -4   17.09    0.73
   1 -17  -4   18.18    0.78
  -1  17  -4   17.41    0.73
  -1 -17  -5   28.31    1.18
  -1 -17  -5   30.26    1.19
  -1 -17   5   25.00    1.11
  -1  17  -5   23.76    0.94
   1 -17  -5   30.14    1.21
  -1  17  -5   22.07    0.96
   1 -17  -5   28.52    1.18
  -1 -17  -6   10.06    0.62
  -1 -17  -6    9.80    0.62
   1 -17  -6   10.72    0.59
  -1 -17   6   10.03    0.54
   1 -17  -6    9.61    0.63
  -2  17   0   23.06    0.91
   2 -17   0   24.76    0.96
  -2 -17  -1   45.58    1.74
  -2 -17  -1   46.85    1.71
   2 -17   1   46.61    1.70
   2 -17  -1   47.06    1.73
  -2  17  -1   42.91    1.61
  -2 -17   1   45.42    1.72
  -2 -17  -2    9.43    0.44
  -2 -17  -2    9.74    0.46
  -2  17  -2    9.44    0.44
   2 -17  -2   10.17    0.46
  -2  17  -2    9.51    0.45
  -2 -17  -3   31.57    1.20
  -2 -17  -3   32.19    1.25
  -2 -17  -3   30.81    1.23
   2 -17  -3   31.15    1.24
  -2  17  -3   30.26    1.18
  -2  17  -3   29.47    1.16
  -2 -17   3   31.78    1.23
  -2 -17  -4    7.00    0.35
  -2 -17  -4    6.93    0.41
  -2 -17  -4    7.82    0.44
  -2  17  -4    6.61    0.44
   2 -17  -4    7.11    0.42
  -2 -17   4    7.02    0.38
  -2  17  -4    6.53    0.41
  -2  17  -4    6.73    0.34
  -2 -17  -5   30.01    1.28
  -2 -17  -5   30.01    1.26
  -2  17  -5   29.68    1.18
  -2 -17   5   30.65    1.20
   2 -17  -5   31.84    1.27
  -2  17  -5   28.76    1.21
  -2 -17  -6    3.34    0.43
  -2 -17  -6    3.78    0.48
  -2  17  -6    3.85    0.54
   2 -17  -6    2.63    0.38
  -2  17  -6    3.39    0.46
   3 -17   0   15.20    0.62
  -3 -17   0   14.89    0.63
  -3 -17   0   14.92    0.63
  -3  17   0   14.03    0.61
  -3  17   0   13.84    0.60
  -3 -17  -1   51.83    1.93
  -3  17   1   47.66    1.80
  -3  17   1   47.56    1.79
   3 -17   1   52.70    1.92
  -3 -17  -1   52.89    1.95
  -3 -17  -1   51.04    1.96
  -3  17  -1   48.32    1.80
   3 -17  -1   52.31    1.96
  -3 -17   1   53.59    1.95
  -3  17  -1   48.28    1.80
  -3  17   2   67.67    2.52
  -3 -17  -2   71.80    2.69
  -3 -17  -2   74.46    2.71
  -3 -17  -2   73.84    2.68
  -3  17  -2   68.12    2.51
  -3  17  -2   69.08    2.52
   3 -17  -2   73.10    2.71
  -3 -17   2   72.19    2.68
  -3 -17  -3   55.73    2.12
  -3 -17  -3   55.89    2.09
  -3 -17  -3   56.96    2.14
  -3  17  -3   52.02    1.96
   3 -17  -3   56.65    2.13
  -3 -17   3   56.64    2.10
  -3  17  -3   53.52    2.02
  -3  17  -3   52.83    1.98
  -3 -17  -4    6.68    0.42
  -3 -17  -4    7.08    0.44
  -3 -17  -4    6.61    0.44
  -3  17  -4    6.23    0.35
   3 -17  -4    6.58    0.41
  -3  17  -4    6.51    0.42
  -3 -17   4    5.91    0.36
  -3  17  -4    6.33    0.47
  -3 -17  -5   23.33    1.01
  -3 -17  -5   22.79    1.04
  -3  17  -5   19.94    0.91
  -3 -17   5   22.11    0.93
  -3  17  -5   21.51    0.99
   3 -17  -5   22.95    1.01
  -4 -17   0   13.49    0.57
   4 -17   0   12.33    0.60
  -4  17   0   12.84    0.58
  -4  17   0   12.42    0.58
  -4 -17  -1   15.09    0.63
  -4  17   1   12.72    0.59
  -4 -17  -1   14.59    0.64
  -4  17   1   13.29    0.60
   4 -17   1   14.40    0.61
  -4 -17  -1   14.76    0.63
  -4  17  -1   13.97    0.60
  -4  17  -1   12.65    0.59
  -4 -17   1   14.26    0.63
   4 -17  -1   15.43    0.65
  -4 -17  -2   23.20    0.95
  -4 -17  -2   23.59    0.93
  -4  17   2   21.56    0.89
  -4  17   2   21.54    0.89
  -4 -17  -2   22.76    0.96
  -4 -17   2   22.68    0.93
  -4  17  -2   21.55    0.88
  -4  17  -2   21.17    0.89
   4 -17  -2   23.62    0.96
  -4  17   3   10.34    0.56
  -4 -17  -3   12.43    0.57
  -4 -17  -3   12.58    0.56
  -4 -17  -3   12.17    0.60
  -4  17   3   11.09    0.56
  -4 -17  -3   12.40    0.61
   4 -17  -3   12.91    0.61
  -4  17  -3   12.49    0.65
  -4  17  -3   11.67    0.54
  -4 -17   3   11.93    0.56
  -4  17  -3   11.87    0.57
  -4 -17  -4   11.66    0.63
  -4 -17  -4   10.98    0.54
  -4 -17  -4   11.35    0.61
  -4  17   4   10.15    0.56
  -4  17   4   10.44    0.58
  -4 -17  -4   12.04    0.57
  -4  17  -4   10.84    0.52
  -4 -17   4   11.66    0.55
  -4  17  -4   11.47    0.68
   4 -17  -4   11.49    0.61
  -4  17  -4   10.97    0.59
  -4 -17  -5   10.74    0.57
  -4 -17  -5   11.08    0.63
  -4  17   5    9.53    0.56
  -4 -17  -5   11.23    0.70
  -4  17  -5    9.49    0.72
   4 -17  -5   10.30    0.62
  -4  17  -5    9.17    0.59
  -4 -17   5    9.68    0.55
  -5  17   0   60.17    2.28
   5 -17   0   62.23    2.40
  -5 -17   0   65.08    2.42
  -5  17   0   61.01    2.28
  -5 -17   0   67.28    2.39
  -5 -17  -1  110.51    4.13
  -5 -17  -1  113.18    4.14
  -5  17   1   99.95    3.68
  -5  17   1  101.24    3.70
  -5 -17  -1  115.18    4.12
  -5 -17   1  113.54    4.14
  -5  17  -1  101.25    3.69
  -5  17  -1   99.60    3.69
   5 -17  -1  113.14    4.13
  -5 -17  -2    6.18    0.41
  -5  17   2    6.12    0.43
  -5 -17  -2    5.73    0.38
  -5 -17  -2    6.34    0.37
  -5  17   2    5.57    0.40
  -5 -17  -2    6.71    0.42
  -5  17  -2    5.34    0.37
  -5 -17   2    6.26    0.38
   5 -17  -2    7.04    0.42
  -5  17  -2    5.51    0.41
  -5  17   3   81.31    3.12
  -5 -17  -3   96.43    3.52
  -5 -17  -3   96.07    3.48
  -5  17   3   85.68    3.14
  -5 -17  -3   95.91    3.49
  -5 -17  -3   95.06    3.53
  -5  17  -3   84.35    3.22
  -5  17  -3   87.05    3.13
  -5 -17   3   92.18    3.49
   5 -17  -3   92.61    3.52
  -5  17  -3   84.75    3.15
  -5 -17  -4   12.58    0.69
  -5  17   4   11.83    0.65
  -5 -17  -4   12.40    0.70
  -5 -17  -4   12.66    0.64
  -5 -17  -4   12.84    0.61
  -5 -17   4   13.17    0.63
  -5  17  -4   12.07    0.59
  -5  17  -4   11.89    0.79
  -5  17  -4   11.29    0.66
   5 -17  -4   12.40    0.68
  -6  17   0    9.48    0.57
  -6  17   0    9.69    0.54
  -6 -17   0   10.60    0.54
  -6 -17   0   10.36    0.54
  -6 -17  -1    1.08    0.22
  -6 -17  -1    1.65    0.30
  -6  17   1    0.90    0.29
  -6 -17  -1    1.59    0.30
  -6  17   1    0.97    0.24
  -6  17  -1    0.90    0.28
  -6 -17   1    1.73    0.28
  -6  17  -1    1.03    0.24
  -6 -17  -2    7.17    0.44
  -6  17   2    6.51    0.52
  -6 -17  -2    7.64    0.48
  -6 -17  -2    8.24    0.52
  -6 -17  -2    7.61    0.46
  -6  17   2    7.19    0.49
  -6 -17   2    7.75    0.46
  -6  17  -2    6.79    0.51
  -6  17  -2    7.21    0.46
   0 -18   0    0.12    0.09
   0 -18   1   -0.10    0.10
   0 -18   1    0.16    0.10
   0 -18  -1    0.15    0.11
   0 -18  -1    0.12    0.09
   0 -18   2   47.44    1.82
   0 -18  -2   49.31    1.85
   0 -18   2   50.24    1.80
   0 -18  -2   48.86    1.83
   0 -18  -3    0.27    0.16
   0 -18  -3    0.21    0.16
   0 -18   3    0.01    0.12
   0 -18   3    0.24    0.13
   0  18  -3   -0.02    0.16
   0  18  -4    8.88    0.39
   0 -18  -4    9.10    0.47
   0 -18   4    8.22    0.43
   0 -18  -4    8.65    0.47
   0 -18  -5    0.25    0.24
   0 -18  -5    0.28    0.24
   0 -18   5    0.00    0.18
   0 -18  -6    8.14    0.57
   0 -18  -6    7.69    0.54
   0 -18   6    7.97    0.48
  -1 -18   0   19.81    0.79
   1 -18   0   20.16    0.79
  -1 -18   0   19.72    0.79
  -1 -18  -1  303.91   11.06
  -1 -18  -1  279.66   11.10
   1 -18   1  324.80   11.04
   1 -18   1  308.01   11.06
  -1 -18  -1  313.08   11.04
  -1 -18   1  316.19   11.05
  -1  18  -1  246.64    8.93
  -1 -18   1  318.25   11.07
   1 -18  -1  312.48   11.07
   1  18  -2    4.46    0.29
   1 -18   2    4.15    0.23
  -1 -18  -2    4.73    0.26
  -1 -18  -2    4.55    0.28
  -1 -18  -2    4.74    0.29
  -1  18  -2    4.12    0.30
  -1 -18   2    4.48    0.25
   1 -18  -2    4.76    0.29
  -1 -18   2    4.14    0.26
  -1 -18  -3  349.68   12.44
  -1 -18  -3  343.36   12.49
   1 -18   3  353.12   12.46
  -1 -18  -3  345.73   12.48
  -1 -18   3  359.34   12.43
  -1  18  -3  335.55   12.26
  -1  18  -3  347.00   12.26
   1 -18  -3  341.96   12.50
  -1  18  -3  348.71   12.27
  -1 -18  -4    2.21    0.27
  -1 -18  -4    1.32    0.25
   1  18  -4    1.20    0.19
   1 -18   4    1.50    0.23
   1 -18  -4    1.64    0.25
  -1  18  -4    1.33    0.22
  -1  18  -4    1.69    0.20
  -1  18  -4    1.08    0.23
  -1 -18   4    1.36    0.22
  -1 -18  -5  268.36    9.63
  -1 -18  -5  254.76    9.62
   1 -18  -5  269.55    9.63
  -1  18  -5  242.21    8.99
  -1  18  -5  259.28    9.00
   1 -18  -5  270.84    9.64
  -1 -18   5  269.54    9.56
  -1 -18  -6    0.36    0.31
  -1 -18  -6    0.16    0.33
   1 -18  -6    0.24    0.31
  -1 -18   6    0.55    0.25
  -1  18  -6   -0.08    0.29
   1 -18  -6    0.66    0.35
  -2  18   0   47.21    1.77
  -2 -18   0   52.81    1.94
  -2 -18   0   52.20    1.94
   2 -18   0   51.65    1.93
  -2 -18  -1   13.25    0.58
  -2 -18  -1   13.81    0.60
  -2 -18  -1   14.12    0.56
   2 -18   1   14.06    0.56
  -2 -18   1   14.07    0.59
  -2 -18   1   13.48    0.58
  -2  18  -1   12.95    0.57
  -2 -18  -2    6.27    0.36
  -2 -18  -2    6.45    0.34
  -2 -18  -2    6.95    0.34
  -2  18  -2    6.16    0.34
   2 -18  -2    6.57    0.36
  -2  18  -2    6.39    0.36
  -2 -18   2    6.48    0.33
  -2 -18  -3   33.57    1.31
  -2 -18  -3   32.68    1.32
  -2 -18  -3   33.66    1.30
   2 -18  -3   32.34    1.31
  -2  18  -3   31.57    1.23
  -2  18  -3   31.00    1.21
  -2  18  -3   32.53    1.25
  -2 -18   3   33.58    1.27
  -2 -18  -4   19.57    0.86
  -2 -18  -4   19.91    0.77
  -2 -18  -4   19.02    0.84
  -2 -18   4   19.39    0.80
  -2  18  -4   19.55    0.81
  -2  18  -4   18.17    0.75
   2 -18  -4   19.51    0.85
  -2  18  -4   19.01    0.84
  -2 -18  -5    2.17    0.37
  -2 -18  -5    2.19    0.33
  -2 -18   5    1.96    0.29
  -2  18  -5    1.72    0.29
   2 -18  -5    2.31    0.34
  -2  18  -5    1.78    0.39
  -2  18  -6   14.73    0.77
  -3 -18   0   36.26    1.38
   3 -18   0   36.72    1.38
  -3 -18   0   36.14    1.38
  -3  18   0   33.06    1.28
  -3  18   0   33.04    1.28
  -3 -18  -1  257.56    9.16
  -3  18   1  230.22    8.49
   3 -18   1  257.64    9.13
  -3 -18  -1  258.39    9.14
  -3 -18  -1  248.52    9.17
  -3  18  -1  244.11    8.50
  -3  18  -1  236.55    8.50
  -3 -18   1  251.97    9.16
   3 -18  -1  260.41    9.17
  -3  18   2   24.17    0.99
  -3 -18  -2   27.47    1.05
  -3 -18  -2   26.53    1.05
  -3 -18  -2   26.42    1.07
   3 -18  -2   26.84    1.08
  -3  18  -2   25.51    1.00
  -3 -18   2   26.43    1.05
  -3  18  -2   24.74    0.98
  -3 -18  -3  183.80    6.64
  -3 -18  -3  184.95    6.62
  -3 -18  -3  181.91    6.59
  -3  18  -3  173.01    6.30
  -3  18  -3  178.32    6.36
  -3  18  -3  173.90    6.32
  -3 -18   3  184.21    6.60
   3 -18  -3  181.84    6.64
  -3 -18  -4    3.63    0.30
  -3 -18  -4    4.05    0.37
  -3 -18  -4    3.93    0.34
  -3  18  -4    3.92    0.28
   3 -18  -4    3.68    0.35
  -3 -18   4    4.42    0.29
  -3  18  -4    3.45    0.43
  -3  18  -4    3.54    0.36
  -3 -18  -5  147.39    5.38
  -3 -18  -5  147.78    5.40
  -3  18  -5  143.39    5.20
   3 -18  -5  141.73    5.38
  -3  18  -5  141.74    5.25
  -3 -18   5  149.70    5.32
  -4 -18   0   24.82    0.98
  -4  18   0   23.26    0.94
  -4 -18   0   23.68    0.98
  -4  18   0   22.65    0.94
   4 -18   0   25.40    0.98
  -4 -18  -1   56.81    2.08
  -4  18   1   51.20    1.93
  -4  18   1   49.31    1.92
   4 -18   1   57.10    2.07
  -4 -18  -1   55.56    2.10
  -4 -18  -1   55.67    2.11
  -4  18  -1   51.92    1.93
   4 -18  -1   56.53    2.11
  -4  18  -1   51.23    1.92
  -4 -18   1   55.57    2.10
  -4 -18  -2   17.99    0.78
  -4  18   2   16.34    0.71
  -4  18   2   15.45    0.71
  -4 -18  -2   18.03    0.76
  -4 -18  -2   17.93    0.75
   4 -18  -2   18.32    0.78
  -4  18  -2   15.60    0.69
  -4 -18   2   17.16    0.75
  -4  18  -2   16.29    0.72
  -4  18   3    9.87    0.54
  -4 -18  -3   10.51    0.55
  -4 -18  -3   10.85    0.54
  -4 -18  -3   10.54    0.50
  -4  18   3   10.03    0.52
  -4  18  -3    9.71    0.53
   4 -18  -3    9.98    0.55
  -4  18  -3    9.64    0.49
  -4 -18   3    9.99    0.50
  -4  18   4   12.60    0.63
  -4 -18  -4   13.48    0.60
  -4 -18  -4   13.22    0.67
  -4 -18  -4   13.28    0.68
  -4  18   4   12.55    0.65
  -4  18  -4   12.83    0.60
   4 -18  -4   13.05    0.68
  -4  18  -4   13.18    0.78
  -4 -18   4   12.90    0.61
  -4  18  -4   12.81    0.66
  -5  18   0   12.66    0.62
   5 -18   0   14.08    0.63
  -5  18   0   12.86    0.62
  -5 -18   0   14.25    0.64
  -5 -18  -1  101.28    3.71
  -5 -18  -1   99.49    3.72
  -5 -18  -1  102.50    3.70
  -5  18   1   93.67    3.42
  -5  18   1   91.57    3.43
  -5 -18   1  100.82    3.72
   5 -18  -1  102.11    3.72
  -5  18  -1   92.55    3.43
  -5  18  -1   94.25    3.43
  -5 -18  -2   15.83    0.72
  -5 -18  -2   15.03    0.68
  -5  18   2   13.74    0.69
  -5  18   2   14.28    0.68
  -5 -18  -2   15.54    0.72
  -5  18  -2   13.85    0.66
  -5  18  -2   14.80    0.69
   5 -18  -2   16.51    0.73
  -5 -18   2   15.32    0.70
  -5 -18  -3   84.81    3.14
  -5 -18  -3   83.99    3.11
  -5 -18  -3   82.20    3.15
  -5 -18  -3   84.47    3.10
  -5  18   3   74.36    2.81
  -5  18   3   75.36    2.83
  -5  18  -3   75.81    2.84
   5 -18  -3   84.63    3.15
  -5 -18   3   83.60    3.11
  -5  18  -3   74.51    2.91
  -5  18  -3   77.91    2.81
  -5  18   4    6.20    0.49
  -5 -18  -4    6.86    0.45
  -5 -18  -4    6.35    0.50
  -5 -18  -4    6.33    0.52
  -5 -18  -4    7.22    0.46
  -5  18   4    5.01    0.51
  -5  18  -4    5.70    0.51
   5 -18  -4    6.22    0.49
  -5 -18   4    6.18    0.43
  -5  18  -4    6.42    0.44
  -5  18  -4    5.36    0.64
  -6  18   0    0.50    0.23
  -6 -18   0    1.27    0.27
  -6 -18   0    1.39    0.31
  -6  18   0    0.94    0.29
  -6  18   1   26.93    1.15
  -6 -18  -1   32.11    1.26
  -6 -18  -1   30.74    1.27
  -6 -18  -1   30.33    1.25
  -6  18   1   26.95    1.14
  -6 -18   1   31.00    1.27
  -6  18  -1   27.05    1.15
  -6  18  -1   27.35    1.16
  -6 -18  -2   19.31    0.85
  -6 -18  -2   20.19    0.89
  -6 -18  -2   19.59    0.89
  -6  18   2   17.98    0.83
  -6  18   2   17.31    0.83
  -6 -18  -2   18.99    0.85
  -6  18  -2   17.30    0.80
  -6  18  -2   17.01    0.84
  -6 -18   2   19.34    0.87
   0 -19   0    0.35    0.13
   0 -19  -1   11.52    0.53
   0 -19   1   12.24    0.49
   0 -19  -1   10.46    0.62
   0 -19   2    0.14    0.12
   0 -19   2    0.29    0.12
   0 -19  -2    0.42    0.14
   0  19  -2    0.19    0.20
   0 -19  -3    7.73    0.42
   0 -19  -3    7.25    0.42
   0 -19   3    8.34    0.36
   0 -19   3    7.66    0.40
   0 -19  -4    0.29    0.18
   0 -19   4    0.24    0.16
   0  19  -4   -0.02    0.21
   0 -19  -4    0.46    0.21
   0  19  -4    0.14    0.15
   0 -19   5   14.36    0.63
   0 -19  -5   12.91    0.69
   0 -19  -5   13.46    0.69
   0 -19   6    0.17    0.24
   0 -19  -6    0.86    0.32
   0 -19  -6   -0.27    0.30
  -1 -19   0   77.71    2.91
   1 -19   0   80.71    2.90
  -1 -19   0   79.61    2.91
  -1 -19  -1    0.24    0.11
  -1 -19  -1    0.35    0.14
  -1 -19  -1    0.95    0.17
  -1 -19   1    0.49    0.14
  -1 -19   1    0.43    0.13
  -1 -19  -2   36.69    1.42
  -1 -19  -2   37.86    1.44
   1  19  -2   35.12    1.34
   1 -19   2   37.60    1.42
  -1 -19   2   37.89    1.40
   1 -19  -2   36.72    1.44
  -1  19  -2   35.33    1.35
  -1 -19   2   37.18    1.42
  -1 -19  -3   16.57    0.70
  -1 -19  -3   16.15    0.64
   1 -19   3   15.54    0.66
  -1 -19  -3   15.66    0.69
  -1  19  -3   14.23    0.63
  -1 -19   3   14.78    0.63
  -1  19  -3   15.23    0.65
  -1 -19   3   15.26    0.67
   1 -19  -3   15.45    0.69
   1 -19   4   48.99    1.81
   1  19  -4   47.49    1.74
  -1 -19  -4   46.59    1.86
  -1 -19  -4   48.69    1.85
  -1 -19   4   48.70    1.81
  -1 -19   4   46.58    1.77
  -1  19  -4   47.03    1.79
   1 -19  -4   48.25    1.86
  -1  19  -4   47.68    1.75
  -1 -19  -5    3.38    0.37
  -1 -19  -5    2.50    0.35
   1 -19  -5    2.64    0.35
  -1 -19   5    2.96    0.31
  -1  19  -5    2.86    0.39
  -1 -19  -6   32.06    1.38
  -1 -19  -6   32.23    1.38
  -1 -19   6   32.29    1.30
   1 -19  -6   33.53    1.39
  -2 -19   0   11.57    0.51
   2 -19   0   11.55    0.51
  -2 -19   0   11.46    0.51
  -2  19   0   10.34    0.49
  -2 -19  -1    3.91    0.24
   2 -19   1    3.63    0.23
  -2 -19  -1    3.71    0.24
  -2 -19  -1    3.71    0.26
  -2 -19   1    4.00    0.25
  -2  19  -1    3.20    0.28
  -2 -19   1    3.94    0.25
   2 -19  -1    3.94    0.28
  -2 -19  -2    4.95    0.29
  -2 -19  -2    4.75    0.32
   2 -19  -2    5.44    0.33
  -2 -19   2    5.32    0.29
  -2  19  -2    4.71    0.30
  -2 -19   2    5.18    0.29
  -2  19  -2    4.45    0.33
  -2 -19  -3    8.50    0.44
  -2 -19  -3    8.22    0.46
  -2 -19  -3    8.54    0.42
  -2  19  -3    8.55    0.45
   2 -19  -3    8.67    0.46
  -2 -19   3    8.46    0.41
  -2  19  -3    8.24    0.48
  -2  19  -3    8.29    0.41
  -2 -19  -4    9.72    0.52
  -2 -19  -4    9.92    0.53
  -2 -19  -4   10.01    0.45
  -2  19  -4    9.56    0.55
   2 -19  -4    9.76    0.54
  -2  19  -4    9.89    0.51
  -2 -19   4    9.74    0.48
  -2  19  -4    8.99    0.46
  -2 -19  -5    3.26    0.39
  -2 -19  -5    3.85    0.40
   2 -19  -5    4.06    0.39
  -2 -19   5    3.67    0.32
  -2  19  -5    3.97    0.41
  -2  19  -5    4.01    0.46
  -3  19   0    0.68    0.16
  -3  19   0    0.87    0.18
  -3 -19   0    0.97    0.17
  -3 -19   0    0.56    0.12
   3 -19   0    0.74    0.17
  -3 -19  -1   15.32    0.64
   3 -19   1   14.62    0.61
  -3  19   1   14.19    0.62
  -3 -19  -1   14.80    0.65
  -3 -19  -1   14.76    0.62
  -3  19  -1   14.01    0.62
  -3 -19   1   15.13    0.63
  -3 -19   1   14.73    0.64
   3 -19  -1   15.53    0.65
  -3  19  -1   13.74    0.63
  -3  19   2   35.40    1.36
  -3 -19  -2   36.91    1.46
  -3 -19  -2   37.96    1.44
  -3 -19  -2   37.96    1.44
  -3  19  -2   34.87    1.36
  -3  19  -2   35.46    1.37
  -3 -19   2   37.20    1.44
   3 -19  -2   38.25    1.47
  -3 -19  -3    5.66    0.38
  -3 -19  -3    5.54    0.34
  -3 -19  -3    5.57    0.37
  -3  19  -3    5.54    0.35
  -3 -19   3    5.92    0.34
  -3  19  -3    6.25    0.47
  -3  19  -3    5.16    0.39
   3 -19  -3    5.81    0.39
  -3 -19  -4   18.28    0.83
  -3 -19  -4   18.03    0.81
  -3 -19  -4   17.96    0.74
   3 -19  -4   17.93    0.82
  -3  19  -4   16.97    0.85
  -3  19  -4   17.00    0.78
  -3 -19   4   17.98    0.77
  -3  19  -4   17.35    0.72
  -3 -19  -5   12.66    0.66
  -3 -19  -5   12.12    0.69
  -3  19  -5   12.06    0.64
  -3  19  -5   10.51    0.73
  -3 -19   5   11.59    0.59
   3 -19  -5   12.26    0.67
  -4 -19   0   20.50    0.84
  -4  19   0   19.11    0.81
   4 -19   0   20.59    0.84
  -4  19   0   18.44    0.80
  -4 -19   0   20.05    0.84
  -4 -19  -1    0.43    0.19
  -4  19   1    0.18    0.19
   4 -19   1    0.40    0.17
  -4  19   1    0.24    0.16
  -4 -19  -1    0.44    0.14
  -4 -19  -1    0.44    0.17
  -4  19  -1    0.20    0.19
  -4  19  -1    0.29    0.17
   4 -19  -1    0.67    0.21
  -4 -19   1    0.50    0.14
  -4 -19  -2   38.47    1.48
  -4 -19  -2   38.62    1.51
  -4 -19  -2   38.80    1.48
  -4  19   2   35.63    1.40
  -4  19   2   35.87    1.41
  -4  19  -2   35.68    1.41
   4 -19  -2   38.01    1.50
  -4  19  -2   36.01    1.40
  -4 -19   2   38.47    1.48
  -4 -19  -3    1.20    0.20
  -4  19   3    0.77    0.25
  -4  19   3    1.08    0.23
  -4 -19  -3    1.22    0.26
  -4 -19  -3    1.49    0.26
  -4  19  -3    0.99    0.24
  -4  19  -3    0.77    0.21
   4 -19  -3    0.90    0.26
  -4 -19   3    1.02    0.19
  -4  19   4   28.48    1.16
  -4 -19  -4   30.76    1.28
  -4 -19  -4   31.11    1.20
  -4 -19  -4   30.29    1.27
  -4  19   4   27.13    1.16
  -4  19  -4   27.93    1.18
  -4 -19   4   30.62    1.22
   4 -19  -4   29.01    1.27
  -4  19  -4   28.28    1.12
  -4  19  -4   28.81    1.30
   5 -19   0    9.59    0.49
  -5  19   0    7.82    0.49
  -5 -19   0    9.37    0.48
  -5 -19   0    9.20    0.48
  -5  19   0    8.02    0.47
  -5 -19  -1   31.71    1.24
  -5 -19  -1   32.06    1.26
  -5  19   1   28.13    1.16
  -5  19   1   28.79    1.16
  -5 -19  -1   31.74    1.25
  -5  19  -1   27.83    1.16
  -5 -19   1   31.11    1.25
  -5  19  -1   28.18    1.15
   5 -19  -1   30.57    1.25
  -5  19   2    1.03    0.28
  -5  19   2    0.66    0.24
  -5 -19  -2    0.94    0.20
  -5 -19  -2    1.42    0.29
  -5 -19  -2    1.25    0.26
  -5  19  -2    0.91    0.22
  -5 -19   2    0.87    0.20
   5 -19  -2    1.42    0.28
  -5  19  -2    0.58    0.26
  -5  19   3    6.80    0.49
  -5 -19  -3    8.74    0.47
  -5  19   3    6.40    0.51
  -5 -19  -3    8.13    0.52
  -5 -19  -3    7.50    0.51
  -5 -19   3    7.98    0.46
  -5  19  -3    8.10    0.52
   5 -19  -3    7.85    0.52
  -5  19  -3    7.56    0.47
  -5  19  -3    7.70    0.64
  -6 -19   0   61.72    2.34
  -6 -19   0   61.51    2.34
  -6 -19  -1    0.52    0.23
  -6  19   1    0.13    0.25
  -6  19   1   -0.14    0.28
  -6 -19  -1    0.29    0.20
  -6 -19  -1    1.00    0.30
  -6  19  -1    0.12    0.29
  -6  19  -1    0.29    0.23
  -6 -19   1    0.33    0.21
  -6  19   2   48.61    1.87
  -6 -19  -2   51.39    1.97
  -6 -19   2   51.19    1.99
  -6  19  -2   45.90    1.84
   0 -20   0  139.64    5.09
   0 -20   0  142.43    5.09
   0 -20   1    0.09    0.11
   0 -20  -1    0.21    0.10
   0 -20  -1    0.26    0.16
   0 -20   1    0.25    0.13
   0 -20  -2   22.06    0.86
   0 -20   2   18.84    0.83
   0  20  -2   19.75    0.83
   0 -20   2   20.78    0.80
   0 -20   3    0.13    0.13
   0  20  -3   -0.04    0.20
   0 -20  -3    0.14    0.17
   0 -20  -3    0.10    0.16
   0 -20   3   -0.03    0.14
   0 -20  -4   34.40    1.35
   0 -20   4   33.02    1.30
   0 -20  -4   33.15    1.36
   0  20  -4   33.61    1.27
   0  20  -4   33.73    1.30
   0 -20   5    0.39    0.19
   0 -20  -5    0.63    0.27
   0 -20  -5    0.59    0.28
   1 -20   0    7.48    0.36
  -1 -20   0    7.09    0.36
  -1 -20   0    7.25    0.37
   1 -20   1   62.29    2.31
  -1 -20  -1   63.18    2.31
   1 -20   1   62.73    2.28
  -1 -20  -1   61.22    2.31
  -1 -20  -1   63.50    2.29
   1 -20  -1   63.09    2.32
  -1  20  -1   59.38    2.20
  -1 -20   1   62.07    2.31
  -1 -20   1   61.07    2.30
  -1 -20  -2   12.25    0.57
  -1 -20  -2   12.17    0.54
   1 -20   2   12.58    0.55
   1  20  -2   11.37    0.53
   1 -20   2   12.29    0.51
   1 -20  -2   12.34    0.57
  -1  20  -2   11.26    0.53
  -1 -20   2   12.71    0.53
  -1 -20   2   12.73    0.55
  -1 -20  -3   52.02    1.89
  -1 -20  -3   49.42    1.87
   1 -20   3   48.82    1.85
  -1 -20  -3   49.79    1.87
  -1 -20   3   48.16    1.82
  -1  20  -3   49.62    1.85
  -1  20  -3   48.82    1.84
   1 -20  -3   49.04    1.89
  -1 -20   3   47.50    1.85
   1  20  -4    1.09    0.20
  -1 -20  -4    1.32    0.25
  -1 -20  -4    1.03    0.23
  -1 -20   4    1.04    0.19
  -1 -20   4    0.67    0.17
  -1  20  -4    0.74    0.22
   1 -20  -4    0.98    0.25
  -1  20  -4    0.72    0.18
  -1 -20  -5   22.79    1.01
  -1 -20  -5   23.15    1.00
  -1  20  -5   23.88    1.01
   1 -20  -5   22.22    1.00
  -1 -20   5   21.96    0.94
   2 -20   0   21.96    0.88
  -2 -20   0   22.22    0.88
  -2  20   0   19.26    0.80
  -2 -20   0   21.52    0.88
  -2 -20  -1    0.90    0.18
  -2 -20  -1    0.87    0.17
  -2 -20  -1    0.91    0.15
   2 -20   1    1.11    0.18
  -2  20  -1    1.02    0.18
  -2 -20   1    0.88    0.17
  -2 -20   1    1.08    0.17
   2 -20  -1    1.55    0.22
  -2 -20  -2   65.15    2.39
  -2 -20  -2   64.63    2.42
  -2 -20  -2   65.66    2.40
  -2  20  -2   60.26    2.28
  -2 -20   2   65.27    2.38
   2 -20  -2   64.08    2.42
  -2 -20   2   63.82    2.40
  -2  20  -2   62.89    2.30
  -2 -20  -3    9.81    0.48
  -2 -20  -3    9.29    0.50
  -2 -20  -3    8.93    0.44
  -2  20  -3    8.48    0.52
   2 -20  -3    8.87    0.49
  -2  20  -3    9.03    0.45
  -2  20  -3    9.29    0.48
  -2 -20   3    9.39    0.45
  -2 -20  -4   18.13    0.79
  -2 -20  -4   17.71    0.80
  -2  20  -4   17.81    0.78
  -2 -20   4   16.71    0.75
  -2  20  -4   17.49    0.71
   2 -20  -4   17.50    0.81
  -2  20  -4   16.63    0.80
  -2 -20  -5    0.74    0.28
  -2 -20  -5    0.56    0.29
   2 -20  -5    0.52    0.29
  -2  20  -5   -0.27    0.32
  -2 -20   5    0.40    0.21
  -2  20  -5    0.26    0.30
  -3  20   0   46.32    1.75
  -3 -20   0   48.36    1.85
  -3 -20   0   50.14    1.86
  -3  20   0   45.79    1.75
  -3 -20  -1   32.75    1.31
  -3  20   1   30.76    1.20
  -3 -20  -1   33.37    1.26
   3 -20   1   33.27    1.26
  -3 -20  -1   34.10    1.29
  -3 -20   1   32.66    1.28
  -3  20  -1   29.77    1.20
   3 -20  -1   33.60    1.30
  -3 -20   1   33.55    1.29
  -3  20  -1   30.83    1.20
  -3 -20  -2   27.69    1.09
  -3 -20  -2   27.31    1.12
  -3 -20  -2   27.16    1.08
  -3  20   2   26.56    1.07
  -3 -20   2   28.03    1.09
  -3  20  -2   25.94    1.08
  -3  20  -2   27.40    1.07
   3 -20  -2   27.67    1.12
  -3 -20  -3   23.56    0.94
  -3 -20  -3   23.84    0.99
  -3 -20  -3   22.96    0.96
  -3  20  -3   22.35    0.90
  -3 -20   3   23.58    0.95
  -3  20  -3   21.03    0.92
   3 -20  -3   22.75    0.99
  -3 -20  -4    8.47    0.50
  -3 -20  -4    7.98    0.51
  -3 -20  -4    8.51    0.43
  -3 -20   4    8.61    0.45
  -3  20  -4    7.69    0.61
  -3  20  -4    8.75    0.44
   3 -20  -4    7.74    0.51
  -3  20  -4    7.70    0.51
  -3 -20  -5   36.22    1.43
  -3 -20  -5   33.86    1.42
   3 -20  -5   32.27    1.41
  -3  20  -5   30.12    1.37
  -3  20  -5   31.58    1.28
  -3 -20   5   33.49    1.34
  -4 -20   0   20.33    0.83
  -4  20   0   18.40    0.80
  -4 -20   0   19.96    0.84
   4 -20   0   19.79    0.82
  -4  20   0   18.41    0.80
  -4 -20  -1    7.92    0.44
  -4 -20  -1    7.63    0.41
   4 -20   1    8.22    0.41
  -4  20   1    7.24    0.43
  -4  20   1    7.11    0.44
  -4 -20  -1    8.38    0.42
   4 -20  -1    7.96    0.45
  -4 -20   1    7.79    0.42
  -4  20  -1    7.32    0.45
  -4  20  -1    7.33    0.42
  -4 -20  -2   22.78    0.95
  -4  20   2   21.63    0.92
  -4  20   2   21.74    0.92
  -4 -20  -2   22.89    0.99
  -4 -20  -2   23.66    0.95
   4 -20  -2   23.18    0.98
  -4 -20   2   23.87    0.96
  -4  20  -2   21.31    0.92
  -4  20  -2   21.36    0.90
  -4  20   3    1.63    0.32
  -4 -20  -3    1.15    0.25
  -4 -20  -3    0.97    0.26
  -4 -20  -3    0.97    0.21
  -4  20   3    1.92    0.37
  -4  20  -3    0.70    0.21
  -4 -20   3    1.44    0.24
   4 -20  -3    0.75    0.27
  -4  20  -3    0.80    0.25
  -4  20   4   16.16    0.79
  -4  20   4   16.88    0.78
  -4 -20  -4   17.52    0.83
  -4 -20  -4   17.67    0.76
  -4 -20  -4   17.87    0.82
  -4 -20   4   17.61    0.78
  -4  20  -4   15.97    0.78
   4 -20  -4   16.13    0.83
  -4  20  -4   16.19    0.73
  -4  20  -4   16.18    0.95
  -5  20   0   25.21    1.07
  -5 -20   0   26.83    1.11
  -5 -20   0   27.77    1.11
   5 -20   0   27.25    1.10
  -5  20   0   25.03    1.06
  -5  20   1   11.20    0.59
  -5 -20  -1   11.60    0.58
  -5 -20  -1   12.93    0.62
  -5 -20  -1   12.33    0.58
  -5  20   1   11.61    0.60
  -5  20  -1   10.80    0.57
  -5 -20   1   12.16    0.59
  -5  20  -1   10.72    0.61
   5 -20  -1   12.24    0.60
  -5  20   2   16.54    0.78
  -5 -20  -2   17.47    0.82
  -5 -20  -2   18.05    0.78
  -5 -20  -2   17.47    0.79
  -5  20   2   16.71    0.76
  -5  20  -2   15.42    0.74
  -5 -20   2   18.42    0.79
   5 -20  -2   17.62    0.82
  -5  20  -2   15.71    0.78
  -5 -20  -3   21.62    0.93
  -5 -20  -3   22.56    0.98
  -5  20   3   20.21    0.90
  -5 -20  -3   20.61    0.97
  -5  20   3   19.91    0.90
   5 -20  -3   22.10    0.99
  -5  20  -3   17.40    1.01
  -5 -20   3   22.25    0.94
  -5  20  -3   20.19    0.87
  -5  20  -3   19.48    0.92
  -6 -20   0   21.40    0.91
  -6  20   0   18.73    0.88
  -6 -20   0   19.83    0.90
  -6  20   0   18.93    0.90
  -6  20   1   10.20    0.61
  -6 -20  -1   12.12    0.63
  -6 -20  -1   11.97    0.60
  -6 -20  -1   11.06    0.61
  -6  20   1   10.79    0.64
  -6  20  -1   10.40    0.66
  -6  20  -1   10.05    0.59
  -6 -20   1   11.41    0.61
   0 -21   0    0.85    0.16
   0 -21   1   91.43    3.30
   0 -21   1   89.57    3.32
   0 -21  -1   92.69    3.32
   0 -21  -1   89.57    3.31
   0 -21  -2    0.57    0.16
   0  21  -2    0.46    0.20
   0 -21   2    0.35    0.13
   0 -21   2    0.17    0.15
   0  21  -3   52.01    1.95
   0 -21  -3   54.30    2.05
   0 -21   3   54.11    2.02
   0 -21  -3   52.75    2.05
   0 -21   3   54.55    1.98
   0 -21  -4    1.33    0.29
   0 -21  -4    0.82    0.24
   0  21  -4    0.35    0.19
   0  21  -4    0.16    0.22
   0 -21   5   57.49    2.14
   0 -21  -5   57.41    2.21
   0 -21  -5   55.14    2.21
   1 -21   0   14.70    0.61
  -1 -21   0   14.10    0.61
  -1 -21   0   13.91    0.61
   1 -21   1    3.32    0.24
  -1 -21  -1    3.04    0.25
   1 -21   1    3.45    0.23
  -1 -21  -1    3.27    0.23
  -1 -21   1    3.09    0.23
   1 -21  -1    3.27    0.25
  -1  21  -1    3.32    0.30
  -1 -21   1    3.01    0.25
   1 -21   2    1.58    0.19
   1 -21   2    1.80    0.21
  -1 -21  -2    1.61    0.21
  -1 -21  -2    2.10    0.24
  -1 -21  -2    1.74    0.19
   1 -21  -2    1.42    0.22
  -1  21  -2    1.73    0.28
  -1 -21   2    1.71    0.21
  -1 -21   2    1.71    0.22
  -1 -21  -3   19.00    0.77
  -1 -21  -3   18.79    0.81
   1 -21   3   18.91    0.80
  -1 -21  -3   19.89    0.83
   1 -21  -3   19.86    0.84
  -1  21  -3   17.89    0.75
  -1 -21   3   19.22    0.77
  -1  21  -3   18.43    0.78
  -1 -21   3   18.92    0.80
  -1 -21  -4    7.43    0.44
  -1 -21  -4    6.73    0.42
   1  21  -4    6.03    0.38
  -1  21  -4    5.90    0.37
   1 -21  -4    6.96    0.46
  -1 -21   4    6.58    0.39
  -1 -21   4    6.45    0.37
  -1  21  -4    6.22    0.44
  -1 -21  -5    1.74    0.34
  -1 -21  -5    2.11    0.37
  -1  21  -5    1.36    0.30
  -1 -21   5    1.51    0.31
   1 -21  -5    1.05    0.32
  -2  21   0    6.85    0.39
   2 -21   0    6.47    0.39
  -2 -21   0    7.53    0.37
  -2 -21   0    7.07    0.37
  -2 -21  -1   81.89    3.00
  -2 -21  -1   82.05    3.01
  -2 -21  -1   80.94    2.96
   2 -21   1   80.12    2.96
   2 -21  -1   82.10    3.00
  -2 -21   1   82.52    3.00
  -2 -21   1   80.72    2.98
  -2  21  -1   75.74    2.80
  -2 -21  -2    2.15    0.23
  -2 -21  -2    2.20    0.25
  -2 -21  -2    2.21    0.21
   2 -21  -2    2.23    0.25
  -2  21  -2    1.82    0.29
  -2 -21   2    1.75    0.21
  -2 -21   2    2.08    0.22
  -2  21  -2    1.83    0.25
  -2 -21  -3   68.71    2.51
  -2 -21  -3   68.91    2.54
  -2 -21  -3   69.64    2.56
  -2 -21   3   68.81    2.53
   2 -21  -3   66.66    2.57
  -2 -21   3   65.43    2.49
  -2  21  -3   65.51    2.47
  -2  21  -3   67.03    2.46
  -2 -21  -4    4.48    0.36
  -2 -21  -4    4.14    0.37
   2 -21  -4    3.77    0.37
  -2  21  -4    3.57    0.43
  -2  21  -4    3.65    0.31
  -2 -21   4    3.69    0.31
  -2  21  -4    4.48    0.40
  -2 -21  -5   30.14    1.27
  -2 -21  -5   30.34    1.29
   2 -21  -5   29.93    1.29
  -2  21  -5   27.07    1.20
  -2  21  -5   29.33    1.20
  -2 -21   5   29.79    1.21
   3 -21   0    3.03    0.27
  -3 -21   0    2.75    0.25
  -3  21   0    2.58    0.29
  -3 -21   0    2.88    0.23
  -3  21   0    2.74    0.28
  -3 -21  -1   46.53    1.71
   3 -21   1   45.27    1.71
  -3  21   1   41.86    1.59
  -3 -21  -1   46.42    1.74
  -3 -21  -1   45.34    1.76
  -3  21  -1   40.88    1.60
  -3 -21   1   45.18    1.73
  -3 -21   1   45.43    1.74
  -3  21  -1   41.70    1.59
   3 -21  -1   46.98    1.75
  -3  21   2   35.57    1.39
  -3 -21  -2   38.10    1.47
  -3 -21  -2   38.05    1.49
  -3 -21  -2   38.86    1.46
  -3  21  -2   36.83    1.40
  -3 -21   2   37.35    1.46
  -3  21  -2   35.18    1.41
   3 -21  -2   37.94    1.49
  -3 -21  -3   27.45    1.12
  -3 -21  -3   27.08    1.07
  -3 -21  -3   26.59    1.09
   3 -21  -3   26.69    1.12
  -3 -21   3   25.96    1.07
  -3  21  -3   25.81    1.04
  -3  21  -3   25.34    1.06
  -3 -21  -4    1.91    0.28
  -3 -21  -4    1.99    0.33
  -3 -21  -4    1.83    0.34
  -3  21  -4    1.96    0.43
  -3  21  -4    2.15    0.39
  -3  21  -4    2.23    0.31
  -3 -21   4    1.97    0.28
   3 -21  -4    1.68    0.34
  -3 -21  -5   33.65    1.42
  -3 -21  -5   33.96    1.42
   3 -21  -5   34.40    1.50
  -3  21  -5   29.83    1.38
  -3 -21   5   32.95    1.35
  -3  21  -5   31.69    1.29
   4 -21   0   11.69    0.55
  -4  21   0   10.82    0.54
  -4  21   0   10.10    0.55
  -4 -21   0   11.47    0.55
  -4 -21   0   11.79    0.55
  -4 -21  -1   58.65    2.17
   4 -21   1   58.26    2.14
  -4 -21  -1   58.19    2.19
  -4  21   1   52.25    1.99
  -4 -21  -1   56.89    2.15
  -4  21   1   52.63    2.00
  -4 -21   1   56.99    2.17
  -4 -21   1   57.69    2.17
  -4  21  -1   52.12    1.99
   4 -21  -1   58.14    2.18
  -4  21  -1   52.54    2.00
  -4 -21  -2   18.72    0.83
  -4  21   2   16.33    0.77
  -4  21   2   17.71    0.78
  -4 -21  -2   18.13    0.78
  -4 -21  -2   18.50    0.79
  -4 -21   2   18.45    0.79
   4 -21  -2   18.25    0.82
  -4  21  -2   17.05    0.77
  -4  21  -2   17.47    0.79
  -4 -21  -3   38.95    1.59
  -4  21   3   36.16    1.46
  -4 -21  -3   40.02    1.57
  -4 -21  -3   41.48    1.55
  -4  21   3   36.78    1.47
  -4  21  -3   38.13    1.45
  -4  21  -3   36.85    1.49
  -4 -21   3   38.90    1.54
   4 -21  -3   39.54    1.59
  -4  21   4    3.91    0.44
  -4  21   4    3.33    0.48
  -4 -21  -4    4.15    0.37
  -4 -21  -4    3.52    0.42
  -4 -21  -4    4.01    0.42
  -4 -21   4    4.32    0.36
  -4  21  -4    3.67    0.39
  -4  21  -4    3.84    0.45
   4 -21  -4    3.32    0.44
  -4  21  -4    3.35    0.67
  -5 -21   0   43.51    1.68
  -5  21   0   37.64    1.52
  -5 -21   0   42.44    1.67
  -5  21   0   38.63    1.53
   5 -21   0   43.09    1.66
  -5 -21  -1   85.08    3.18
  -5  21   1   75.75    2.86
  -5 -21  -1   83.65    3.16
  -5 -21  -1   86.94    3.14
  -5  21   1   75.79    2.85
   5 -21  -1   84.09    3.17
  -5  21  -1   77.05    2.86
  -5 -21   1   87.03    3.18
  -5 -21  -2    2.32    0.28
  -5  21   2    3.46    0.40
  -5 -21  -2    2.44    0.34
  -5  21   2    2.25    0.42
  -5 -21  -2    2.18    0.35
   5 -21  -2    2.89    0.37
  -5  21  -2    2.75    0.35
  -5 -21   2    2.71    0.30
  -5  21  -2    2.15    0.33
  -5 -21  -3   70.00    2.60
  -5  21   3   61.44    2.37
  -5 -21  -3   66.78    2.65
  -5 -21  -3   70.41    2.63
  -5  21  -3   60.77    2.37
  -5  21  -3   62.55    2.34
  -5 -21   3   69.85    2.61
  -6  21   0   23.25    1.04
   0 -22   0  147.69    5.21
   0 -22   0  140.58    5.21
   0 -22  -1    0.37    0.12
   0 -22  -1    0.51    0.17
   0 -22   1    0.07    0.12
   0 -22   1    0.21    0.14
   0  22  -2   46.99    1.78
   0 -22   2   54.32    1.99
   0 -22   2   54.85    1.96
   0 -22  -2   50.02    2.00
   0 -22  -3    0.24    0.19
   0 -22   3   -0.22    0.16
   0  22  -3    0.00    0.22
   0 -22  -3    0.37    0.21
   0 -22   3    0.08    0.15
   0 -22  -4  135.14    5.10
   0  22  -4  124.18    4.75
   0 -22  -4  139.85    5.10
   0  22  -4  138.60    4.77
   0 -22   4  142.50    5.06
   0 -22   5   -0.08    0.20
   0 -22  -5    0.34    0.30
   0 -22  -5    0.20    0.30
   1 -22   0    1.64    0.21
  -1 -22   0    1.54    0.20
  -1 -22   0    1.46    0.20
  -1 -22  -1   43.64    1.68
  -1 -22  -1   44.15    1.67
   1 -22   1   44.57    1.67
   1 -22   1   44.11    1.65
  -1 -22   1   43.52    1.68
  -1 -22   1   44.44    1.67
  -1  22  -1   45.39    1.72
   1 -22  -1   45.42    1.69
   1 -22   2    1.25    0.20
  -1 -22  -2    1.53    0.24
  -1 -22  -2    1.28    0.19
   1  22  -2    1.32    0.24
   1 -22   2    0.85    0.18
  -1 -22  -2    1.49    0.21
  -1 -22   2    1.07    0.20
  -1  22  -2    0.83    0.21
   1 -22  -2    1.25    0.22
  -1 -22   2    1.36    0.21
  -1 -22  -3   32.61    1.21
   1  22  -3   28.91    1.19
  -1 -22  -3   31.92    1.26
  -1 -22  -3   30.98    1.26
   1 -22   3   31.06    1.23
  -1  22  -3   29.15    1.16
   1 -22  -3   31.40    1.27
  -1 -22   3   31.31    1.24
  -1  22  -3   30.78    1.19
  -1 -22  -4    1.29    0.27
  -1 -22  -4    1.56    0.29
  -1 -22   4    0.89    0.21
  -1  22  -4    0.52    0.26
  -1  22  -4    0.62    0.19
   1 -22  -4    0.87    0.26
  -1 -22  -5   27.14    1.15
  -1 -22  -5   26.05    1.15
   1 -22  -5   25.78    1.16
  -1  22  -5   27.57    1.15
  -1 -22   5   26.24    1.09
  -2 -22   0   44.85    1.70
  -2 -22   0   44.86    1.70
   2 -22   0   44.28    1.69
  -2  22   0   41.87    1.60
  -2 -22  -1    1.46    0.19
  -2 -22  -1    1.13    0.21
  -2 -22  -1    1.14    0.21
   2 -22   1    1.55    0.22
  -2 -22   1    1.29    0.21
   2 -22  -1    1.55    0.24
  -2  22  -1    1.36    0.26
  -2 -22   1    1.32    0.19
  -2 -22  -2  120.61    4.33
  -2 -22  -2  115.03    4.36
  -2 -22  -2  119.27    4.34
  -2  22  -2  108.82    3.96
  -2 -22   2  119.06    4.35
   2 -22  -2  119.29    4.37
  -2  22  -2  108.37    3.97
  -2 -22   2  122.97    4.33
  -2 -22  -3    4.16    0.33
  -2 -22  -3    4.14    0.34
  -2 -22  -3    4.12    0.30
  -2  22  -3    3.89    0.33
  -2  22  -3    2.93    0.43
   2 -22  -3    4.13    0.35
  -2 -22   3    3.87    0.28
  -2 -22   3    4.36    0.30
  -2  22  -3    4.08    0.36
  -2 -22  -4   78.70    2.89
  -2 -22  -4   74.83    2.89
   2 -22  -4   73.90    2.90
  -2 -22   4   77.66    2.85
  -2 -22   4   78.50    2.81
  -2  22  -4   77.46    2.72
  -2  22  -4   75.44    2.77
  -2  22  -4   69.07    2.77
  -2 -22  -5   17.29    0.86
  -2 -22  -5   17.57    0.86
   2 -22  -5   16.94    0.87
  -2  22  -5   16.86    0.83
  -2 -22   5   18.37    0.80
  -3  22   0    3.72    0.31
  -3 -22   0    3.87    0.29
   3 -22   0    3.78    0.30
  -3  22   0    3.36    0.32
  -3 -22   0    3.54    0.27
  -3 -22  -1   25.80    1.06
  -3 -22  -1   25.76    1.04
   3 -22   1   25.74    1.01
  -3 -22  -1   25.96    1.01
  -3  22   1   23.83    0.97
  -3  22  -1   23.25    0.97
  -3 -22   1   25.86    1.03
   3 -22  -1   25.40    1.05
  -3  22  -1   23.34    0.98
  -3 -22   1   26.18    1.04
  -3  22   2    3.29    0.33
  -3 -22  -2    3.91    0.32
  -3 -22  -2    3.57    0.30
  -3 -22  -2    3.48    0.29
  -3  22  -2    3.26    0.36
  -3  22  -2    3.59    0.32
  -3 -22   2    3.68    0.28
   3 -22  -2    3.26    0.32
  -3 -22   2    3.69    0.27
  -3 -22  -3   35.79    1.45
  -3 -22  -3   36.09    1.42
  -3 -22  -3   37.74    1.41
  -3 -22   3   35.80    1.41
   3 -22  -3   34.68    1.45
  -3  22  -3   34.55    1.33
  -3  22  -3   33.00    1.36
  -3 -22  -4   10.15    0.56
  -3 -22  -4    9.69    0.57
  -3 -22  -4    9.45    0.49
   3 -22  -4    9.66    0.59
  -3 -22   4    9.38    0.51
  -3  22  -4    8.85    0.56
  -3  22  -4    9.20    0.48
  -3  22  -4    7.46    0.69
  -4 -22   0   60.13    2.28
  -4  22   0   52.89    2.04
  -4 -22   0   59.89    2.28
   4 -22   0   61.79    2.27
  -4  22   0   54.40    2.05
  -4  22   1    0.83    0.22
  -4 -22  -1    0.87    0.18
  -4  22   1    0.91    0.25
  -4 -22  -1    1.00    0.23
  -4  22  -1    0.53    0.21
   4 -22  -1    1.14    0.24
  -4  22  -1    0.72    0.25
  -4 -22   1    1.00    0.22
  -4 -22   1    1.00    0.18
  -4 -22  -2   58.80    2.21
  -4 -22  -2   60.95    2.23
  -4 -22  -2   59.16    2.26
  -4  22   2   53.23    2.01
  -4  22   2   51.18    2.02
  -4 -22   2   56.89    2.22
  -4  22  -2   52.52    2.02
  -4  22  -2   53.07    2.01
   4 -22  -2   59.06    2.25
  -4 -22  -3   22.20    0.96
  -4 -22  -3   22.36    0.98
  -4  22   3   20.04    0.91
  -4 -22  -3   21.88    0.94
  -4  22  -3   20.83    0.89
  -4 -22   3   22.24    0.93
  -4  22  -3   20.16    0.92
   4 -22  -3   21.72    0.98
  -4 -22  -4   39.40    1.51
  -4 -22  -4   38.97    1.56
  -4  22   4   35.40    1.43
  -4  22   4   34.96    1.43
  -4 -22  -4   39.66    1.59
  -4  22  -4   30.82    1.60
  -4  22  -4   35.31    1.45
  -4 -22   4   37.94    1.52
  -4  22  -4   38.23    1.40
   4 -22  -4   36.70    1.58
  -5  22   0   28.13    1.18
  -5 -22   0   32.44    1.27
  -5 -22   0   31.16    1.27
   5 -22   0   31.03    1.26
  -5  22   0   28.42    1.20
  -5 -22  -1   18.32    0.77
  -5 -22  -1   17.60    0.78
  -5  22   1   16.17    0.77
  -5 -22  -1   17.25    0.81
  -5  22   1   15.87    0.80
  -5  22  -1   16.04    0.76
  -5 -22   1   18.03    0.79
   5 -22  -1   17.40    0.81
  -5  22  -1   15.72    0.79
  -5 -22   1   17.57    0.79
  -5 -22  -2   21.75    0.95
  -5 -22  -2   24.28    0.98
  -5 -22  -2   21.99    1.00
  -5  22   2   20.13    0.94
  -5  22   2   22.02    0.96
  -5  22  -2   20.94    0.93
  -5 -22   2   22.98    0.97
   5 -22  -2   21.68    0.99
  -5  22  -2   20.69    0.97
   0 -23   0    1.07    0.20
   0 -23   1   34.11    1.28
   0 -23   1   32.67    1.28
   0 -23  -1   32.11    1.27
   0 -23  -1   33.30    1.29
   0  23  -2    0.20    0.22
   0 -23   2    0.11    0.14
   0 -23  -2    0.27    0.16
   0 -23   2    0.54    0.17
   0 -23   3   18.29    0.78
   0 -23  -3   18.44    0.81
   0 -23   3   18.21    0.74
   0  23  -3   16.74    0.77
   0 -23  -4    0.48    0.24
   0  23  -4    0.42    0.21
   0 -23  -4   -0.04    0.24
   0 -23   4   -0.11    0.18
   0  23  -4    0.48    0.26
   0 -23   5   25.60    1.03
   0 -23  -5   24.50    1.11
   0 -23  -5   23.30    1.10
  -1 -23   0   29.42    1.14
   1 -23   0   28.90    1.13
  -1 -23   0   28.47    1.14
  -1 -23  -1    0.47    0.17
   1 -23   1    0.35    0.16
  -1 -23  -1    0.35    0.13
  -1  23  -1    0.57    0.20
  -1 -23   1    0.32    0.13
  -1 -23   1    0.38    0.15
  -1 -23  -2   58.17    2.19
   1 -23   2   59.47    2.15
   1 -23   2   58.91    2.19
  -1 -23  -2   57.02    2.20
   1  23  -2   59.61    2.16
  -1 -23  -2   58.55    2.18
  -1 -23   2   59.34    2.18
   1 -23  -2   59.18    2.22
  -1 -23   2   57.87    2.20
  -1  23  -2   56.30    2.18
   1 -23   3   11.80    0.55
   1  23  -3   11.42    0.58
  -1 -23  -3   11.46    0.57
  -1 -23  -3   12.01    0.57
   1 -23  -3   11.86    0.58
  -1  23  -3   10.58    0.58
  -1 -23   3   11.33    0.54
  -1  23  -3   10.83    0.53
  -1 -23   3   11.00    0.55
  -1 -23  -4   37.12    1.49
  -1 -23  -4   37.02    1.50
   1 -23  -4   36.27    1.51
  -1 -23   4   38.98    1.46
  -1  23  -4   35.97    1.38
  -1 -23   4   36.70    1.42
  -1  23  -4   36.06    1.44
  -1 -23  -5    2.56    0.40
  -1 -23  -5    2.59    0.39
   1 -23  -5    2.61    0.41
  -1 -23   5    1.72    0.29
  -1  23  -5    1.99    0.36
  -2  23   0    3.19    0.31
  -2 -23   0    2.88    0.27
  -2 -23   0    2.92    0.25
   2 -23   0    2.93    0.27
   2 -23   1   15.56    0.66
  -2 -23  -1   15.26    0.69
  -2 -23  -1   15.40    0.66
  -2 -23  -1   15.27    0.67
  -2 -23   1   16.00    0.68
   2 -23  -1   15.69    0.69
  -2 -23   1   15.93    0.67
  -2  23  -1   14.19    0.65
  -2 -23  -2    9.51    0.49
  -2 -23  -2   10.03    0.52
   2 -23   2   10.79    0.47
  -2 -23  -2   10.41    0.50
  -2  23  -2    9.64    0.49
  -2 -23   2   10.31    0.49
   2 -23  -2   10.73    0.53
  -2  23  -2    9.28    0.52
  -2 -23   2   10.33    0.50
  -2 -23  -3   27.71    1.08
  -2 -23  -3   26.40    1.13
  -2 -23  -3   27.72    1.12
  -2  23  -3   26.54    1.07
  -2  23  -3   22.83    1.09
  -2 -23   3   27.59    1.11
  -2 -23   3   27.79    1.08
   2 -23  -3   26.85    1.15
  -2  23  -3   26.73    1.04
  -2 -23  -4    6.13    0.45
  -2 -23  -4    5.66    0.43
  -2 -23   4    5.88    0.37
  -2  23  -4    5.76    0.51
  -2  23  -4    6.00    0.40
   2 -23  -4    6.48    0.46
  -2 -23   4    6.25    0.41
  -2  23  -4    6.52    0.50
  -2 -23  -5   16.00    0.84
  -2 -23  -5   16.55    0.84
  -2 -23   5   16.55    0.78
  -2  23  -5   17.17    0.86
   2 -23  -5   16.05    0.88
  -2 -23   5   17.72    0.73
  -3  23   0   99.22    3.61
   3 -23   0  104.94    3.89
  -3  23   0   96.45    3.60
  -3 -23   0  106.95    3.91
  -3 -23   0  108.66    3.91
  -3 -23  -1    7.94    0.45
  -3 -23  -1    7.99    0.42
  -3 -23  -1    8.38    0.42
   3 -23   1    7.90    0.42
  -3  23   1    8.22    0.44
  -3 -23   1    7.54    0.41
  -3 -23   1    7.59    0.42
  -3  23  -1    6.86    0.45
   3 -23  -1    7.66    0.45
  -3  23  -1    6.44    0.42
  -3 -23  -2   22.71    1.00
  -3  23   2   22.64    0.94
  -3 -23  -2   24.06    0.98
  -3 -23  -2   23.59    0.97
  -3  23  -2   22.61    0.96
  -3 -23   2   24.13    0.98
   3 -23  -2   23.93    1.01
  -3 -23   2   24.26    0.97
  -3  23  -2   21.41    0.93
  -3 -23  -3    4.08    0.37
  -3 -23  -3    3.87    0.34
  -3 -23  -3    4.74    0.38
  -3 -23   3    4.50    0.33
  -3  23  -3    4.63    0.38
  -3  23  -3    4.27    0.42
  -3 -23   3    4.30    0.33
   3 -23  -3    4.52    0.40
  -3 -23  -4   43.91    1.71
  -3 -23  -4   43.40    1.72
  -3 -23  -4   43.66    1.64
  -3  23  -4   41.28    1.62
  -3  23  -4   37.24    1.69
   3 -23  -4   41.12    1.73
  -3  23  -4   42.40    1.57
  -3 -23   4   43.10    1.67
  -4  23   0   48.46    1.86
   4 -23   0   52.99    2.00
  -4 -23   0   52.74    2.01
  -4 -23   0   52.65    2.01
  -4  23   0   47.40    1.85
  -4 -23  -1    7.23    0.46
   4 -23   1    7.15    0.44
  -4  23   1    6.91    0.49
  -4 -23  -1    7.36    0.43
  -4  23   1    7.34    0.46
   4 -23  -1    7.42    0.46
  -4  23  -1    7.12    0.49
  -4 -23   1    7.95    0.44
  -4 -23   1    8.18    0.43
  -4  23  -1    6.58    0.45
  -4 -23  -2   25.04    1.02
  -4 -23  -2   24.25    1.01
  -4  23   2   21.85    0.97
  -4 -23  -2   24.82    1.06
  -4  23   2   21.73    0.97
  -4 -23   2   24.03    1.01
  -4 -23   2   24.85    1.02
   4 -23  -2   24.94    1.06
  -4  23  -2   23.39    0.97
  -4  23  -2   21.86    0.98
  -4 -23  -3   16.10    0.79
  -4 -23  -3   17.13    0.77
  -4  23   3   14.60    0.74
  -4 -23  -3   15.90    0.75
   4 -23  -3   15.81    0.80
  -4  23  -3   14.61    0.75
  -4  23  -3   14.98    0.71
  -4 -23   3   16.59    0.74
  -5 -23   0   16.02    0.73
  -5 -23   0   15.34    0.72
  -5  23   0   13.40    0.73
   5 -23   0   15.66    0.73
  -5  23   0   14.16    0.71
  -5 -23  -1    8.04    0.46
  -5  23   1    6.98    0.50
  -5 -23  -1    7.90    0.50
  -5  23   1    6.85    0.55
  -5 -23  -1    8.43    0.47
  -5  23  -1    7.11    0.54
   5 -23  -1    7.34    0.52
  -5 -23   1    7.89    0.48
  -5 -23   1    7.91    0.46
  -5  23  -1    7.33    0.50
  -5 -23  -2   55.02    2.12
  -5  23   2   50.29    1.94
  -5 -23  -2   55.15    2.07
  -5  23   2   49.36    1.95
  -5 -23  -2   54.85    2.07
  -5 -23   2   53.83    2.08
   5 -23  -2   51.55    2.10
  -5  23  -2   48.81    1.92
   0 -24   0  127.15    4.55
   0 -24   0  123.42    4.55
   0 -24  -1    0.11    0.12
   0 -24  -1    0.11    0.16
   0 -24   1   -0.01    0.19
   0 -24   1   -0.07    0.13
   0 -24   2   14.88    0.65
   0  24  -2   15.80    0.72
   0 -24  -2   14.61    0.67
   0 -24   3    0.25    0.16
   0 -24   3    0.10    0.20
   0  24  -3    0.20    0.25
   0 -24  -3    0.38    0.21
   0 -24   4   12.69    0.60
   0  24  -4   12.78    0.65
   0  24  -4   11.09    0.57
   0 -24  -4   12.18    0.65
   0 -24   5   -0.17    0.22
   0 -24  -5    0.32    0.35
   0 -24  -5    0.34    0.32
  -1 -24   0    0.45    0.17
  -1 -24   0    0.11    0.13
   1 -24   0    0.31    0.16
  -1 -24  -1  169.67    6.04
   1 -24   1  140.74    6.10
  -1 -24  -1  169.67    6.03
   1 -24  -1  172.04    6.04
  -1 -24   1  175.46    6.03
  -1  24  -1  182.31    6.58
  -1 -24   1  174.12    6.05
   1 -24   2    3.81    0.27
  -1 -24  -2    4.20    0.32
  -1 -24  -2    3.95    0.28
   1 -24   2    3.66    0.28
   1  24  -2    4.40    0.37
  -1 -24  -2    4.20    0.31
  -1 -24   2    3.91    0.29
  -1 -24   2    3.04    0.28
   1 -24  -2    4.01    0.31
  -1  24  -2    4.23    0.39
   1 -24   3  127.36    4.58
   1  24  -3  111.54    4.10
  -1 -24  -3  129.07    4.62
  -1 -24  -3  125.15    4.60
  -1  24  -3  109.68    4.11
   1 -24  -3  118.93    4.62
  -1 -24   3  128.21    4.60
  -1  24  -3  115.78    4.10
  -1 -24   3  126.23    4.56
  -1 -24  -4    0.70    0.26
  -1 -24  -4    0.94    0.28
  -1 -24   4    0.67    0.25
  -1 -24   4    0.49    0.20
   1 -24  -4    0.95    0.30
  -1  24  -4    0.37    0.22
  -1  24  -4    0.73    0.30
  -1 -24  -5   87.35    3.35
  -1 -24  -5   89.28    3.35
  -1 -24   5   91.95    3.30
   1 -24  -5   85.75    3.36
  -1  24  -5   90.63    3.38
  -2 -24   0   10.89    0.52
   2 -24   0   10.26    0.52
  -2  24   0   11.23    0.56
  -2 -24   0   11.21    0.52
  -2 -24  -1   26.01    1.05
   2 -24   1   23.80    1.02
  -2 -24  -1   25.47    1.01
  -2 -24  -1   26.46    1.04
  -2 -24   1   25.58    1.05
   2 -24  -1   27.07    1.06
  -2 -24   1   26.14    1.04
  -2  24  -1   24.01    1.00
  -2 -24  -2   36.80    1.42
  -2 -24  -2   35.97    1.45
  -2 -24  -2   37.05    1.42
  -2  24  -2   33.82    1.35
   2 -24  -2   36.14    1.46
  -2  24  -2   33.73    1.33
  -2 -24   2   37.42    1.44
  -2 -24   2   36.96    1.42
  -2 -24  -3    6.95    0.38
  -2 -24  -3    6.56    0.41
  -2 -24  -3    6.17    0.41
   2 -24  -3    6.52    0.45
  -2 -24   3    5.46    0.38
  -2  24  -3    5.10    0.53
  -2  24  -3    5.93    0.48
  -2 -24   3    5.34    0.37
  -2  24  -3    5.97    0.41
  -2 -24  -4    4.53    0.41
  -2 -24  -4    4.38    0.40
  -2  24  -4    4.45    0.49
  -2  24  -4    4.30    0.38
   2 -24  -4    4.80    0.43
  -2 -24   4    4.44    0.37
  -2 -24   4    4.23    0.35
  -2  24  -4    3.81    0.48
  -3  24   0    4.73    0.37
  -3 -24   0    5.10    0.34
  -3  24   0    4.82    0.39
   3 -24   0    4.99    0.36
  -3 -24   0    4.85    0.35
  -3 -24  -1   83.48    3.07
  -3  24   1   80.78    2.90
  -3 -24  -1   85.68    3.12
  -3 -24  -1   84.85    3.14
  -3  24  -1   76.61    2.91
  -3  24  -1   77.02    2.92
  -3 -24   1   83.64    3.11
  -3 -24   1   83.30    3.11
   3 -24  -1   84.38    3.12
  -3 -24  -2    2.44    0.31
  -3 -24  -2    3.35    0.29
  -3  24   2    2.61    0.35
  -3 -24  -2    2.78    0.31
  -3  24  -2    3.41    0.40
  -3 -24   2    3.02    0.28
  -3  24  -2    3.03    0.34
   3 -24  -2    2.97    0.34
  -3 -24   2    3.19    0.29
  -3 -24  -3   79.53    3.09
  -3 -24  -3   83.32    3.07
  -3 -24  -3   85.18    3.05
  -3  24  -3   76.76    2.82
  -3 -24   3   81.11    3.06
   3 -24  -3   81.21    3.10
  -3 -24   3   83.88    3.04
  -3  24  -3   74.44    2.84
  -3 -24  -4    4.21    0.35
  -3 -24  -4    4.08    0.43
  -3 -24  -4    4.34    0.43
  -3  24  -4    3.94    0.41
   3 -24  -4    4.23    0.46
  -3 -24   4    3.31    0.38
  -3  24  -4    3.49    0.63
  -3  24  -4    3.55    0.46
  -3 -24   4    3.32    0.35
  -4  24   0    2.52    0.38
  -4 -24   0    2.90    0.32
  -4  24   0    1.94    0.33
  -4 -24   0    2.47    0.28
   4 -24   0    3.51    0.34
  -4 -24  -1   23.18    0.93
  -4  24   1   19.71    0.90
  -4 -24  -1   22.37    0.96
   4 -24   1   22.26    0.91
  -4 -24  -1   19.22    0.95
  -4  24   1   18.97    0.88
  -4 -24   1   22.24    0.93
   4 -24  -1   22.40    0.95
  -4  24  -1   20.10    0.91
  -4  24  -1   20.51    0.89
  -4 -24   1   22.08    0.93
  -4  24   2    5.90    0.47
  -4  24   2    5.84    0.45
  -4 -24  -2    5.96    0.44
  -4 -24  -2    5.47    0.42
  -4 -24  -2    5.68    0.39
   4 -24  -2    5.88    0.45
  -4 -24   2    5.18    0.38
  -4  24  -2    6.05    0.43
  -4 -24   2    5.06    0.39
  -4  24  -2    4.83    0.48
  -4  24   3   37.74    1.51
  -4 -24  -3   41.31    1.58
  -4 -24  -3   39.59    1.63
  -4 -24  -3   42.47    1.61
  -4 -24   3   39.26    1.58
  -4  24  -3   38.47    1.50
   4 -24  -3   38.85    1.63
  -4  24  -3   36.69    1.54
  -5 -24   0    1.00    0.22
  -5 -24   0    1.40    0.30
  -5  24   0    0.53    0.27
  -5  24   0    1.26    0.34
   5 -24   0    1.14    0.30
  -5  24   1   22.64    1.05
  -5  24   1   23.30    1.05
  -5 -24  -1   25.66    1.11
  -5 -24  -1   25.62    1.07
  -5  24  -1   23.50    1.04
   5 -24  -1   25.82    1.10
  -5 -24   1   25.49    1.09
  -5  24  -1   23.77    1.07
  -5 -24   1   25.66    1.09
   0 -25   0    1.10    0.23
   0 -25   0    1.12    0.20
   0 -25  -1   48.51    1.85
   0 -25   1   48.72    1.86
   0 -25  -1   50.11    1.87
   0 -25   1   49.52    1.85
   0 -25   2    0.60    0.20
   0 -25   2    0.11    0.16
   0  25  -2    0.53    0.24
   0 -25   3   53.52    1.94
   0  25  -3   46.87    1.82
   0 -25   3   51.38    1.98
   0 -25  -3   51.40    2.01
   0 -25  -4    0.91    0.27
   0  25  -4   -0.07    0.23
   0 -25   4    0.11    0.19
   0  25  -4    0.86    0.32
  -1 -25   0   81.12    3.04
  -1 -25   0   81.31    3.04
   1 -25   0   84.98    3.04
  -1 -25  -1    8.38    0.46
   1 -25   1    9.02    0.44
  -1 -25  -1    8.71    0.44
   1 -25  -1    8.69    0.45
  -1  25  -1    9.21    0.50
  -1 -25   1    8.75    0.46
  -1 -25   1    8.99    0.45
   1  25  -2  112.24    3.96
  -1 -25  -2  108.61    4.00
   1 -25   2  111.21    3.94
  -1 -25  -2  107.87    3.96
  -1  25  -2  105.39    3.99
  -1 -25   2  109.38    3.96
   1 -25  -2  108.07    4.00
  -1 -25   2  107.41    3.99
  -1 -25  -3    0.51    0.23
   1  25  -3    0.64    0.30
  -1 -25  -3    0.17    0.24
   1 -25  -3    0.71    0.24
  -1 -25   3    1.05    0.23
  -1 -25   3    0.70    0.20
  -1  25  -3    0.50    0.29
  -1  25  -3    0.63    0.23
  -1 -25  -4   55.15    2.11
  -1 -25  -4   53.32    2.10
  -1  25  -4   50.92    1.99
  -1 -25   4   54.82    2.06
   1 -25  -4   53.44    2.12
  -1  25  -4   51.19    1.93
  -1 -25   4   53.06    2.02
  -2  25   0   19.40    0.84
  -2 -25   0   17.26    0.76
  -2 -25   0   17.65    0.77
   2 -25   0   17.65    0.76
  -2 -25  -1   40.33    1.57
   2 -25   1   40.62    1.55
  -2 -25  -1   40.53    1.58
   2 -25  -1   40.72    1.58
  -2  25  -1   37.28    1.47
  -2 -25   1   40.98    1.58
  -2 -25   1   40.11    1.57
   2 -25   2   24.21    0.97
  -2 -25  -2   24.24    1.03
  -2 -25  -2   24.94    1.00
  -2 -25  -2   24.18    1.00
  -2  25  -2   22.99    0.99
  -2 -25   2   24.63    1.00
   2 -25  -2   25.91    1.05
  -2  25  -2   23.13    0.97
  -2 -25   2   24.62    1.02
  -2 -25  -3   34.44    1.35
  -2 -25  -3   33.78    1.37
  -2 -25  -3   33.73    1.31
   2 -25  -3   32.59    1.38
  -2 -25   3   34.23    1.31
  -2 -25   3   33.01    1.34
  -2  25  -3   30.35    1.27
  -2  25  -3   29.86    1.28
  -2  25  -3   31.10    1.23
  -2 -25  -4    9.80    0.57
  -2 -25  -4    9.24    0.56
  -2 -25   4    9.54    0.50
  -2  25  -4    9.38    0.61
   2 -25  -4    9.37    0.59
  -2  25  -4    8.61    0.53
  -2 -25   4    9.53    0.54
   3 -25   0   93.23    3.41
  -3  25   0   87.48    3.26
  -3 -25   0   92.13    3.42
  -3 -25   0   92.99    3.44
  -3  25   0   87.83    3.25
  -3  25   1   18.46    0.80
   3 -25   1   19.25    0.82
  -3 -25  -1   19.33    0.83
  -3 -25  -1   19.50    0.80
  -3 -25  -1   18.88    0.85
  -3 -25   1   20.00    0.84
   3 -25  -1   18.24    0.84
  -3  25  -1   16.63    0.81
  -3  25  -1   17.52    0.80
  -3 -25   1   19.26    0.83
  -3  25   2   19.24    0.86
  -3 -25  -2   21.79    0.95
  -3 -25  -2   22.18    0.90
  -3 -25  -2   21.67    0.91
  -3 -25   2   21.15    0.90
   3 -25  -2   20.69    0.94
  -3 -25   2   20.94    0.91
  -3  25  -2   19.24    0.86
  -3  25  -2   19.74    0.89
  -3 -25  -3   27.52    1.20
  -3 -25  -3   28.94    1.14
  -3 -25  -3   28.48    1.17
  -3  25  -3   26.83    1.09
  -3  25  -3   24.69    1.12
  -3 -25   3   27.84    1.14
   3 -25  -3   27.21    1.20
  -3 -25   3   28.34    1.16
  -3 -25  -4   38.96    1.50
  -3  25  -4   37.20    1.48
  -4  25   0   37.02    1.49
  -4  25   0   36.64    1.48
  -4 -25   0   41.28    1.60
  -4 -25   0   40.47    1.62
   4 -25   0   41.11    1.59
  -4 -25  -1   23.39    0.96
  -4 -25  -1   23.56    0.99
  -4 -25  -1   23.09    1.02
  -4  25   1   22.19    0.97
   4 -25   1   22.56    0.96
  -4  25   1   22.10    0.98
  -4  25  -1   20.56    0.97
  -4 -25   1   24.05    1.00
  -4 -25   1   23.81    0.99
   4 -25  -1   23.83    1.01
  -4  25  -1   21.47    0.96
  -4 -25  -2   24.87    1.04
  -4 -25  -2   25.05    1.05
  -4 -25  -2   23.60    1.08
  -4  25   2   23.69    1.02
   4 -25  -2   24.52    1.08
  -4  25  -2   22.25    0.99
  -4 -25   2   25.55    1.05
  -4 -25   2   26.18    1.05
  -4  25  -2   22.82    1.03
  -4 -25  -3   33.79    1.31
  -4 -25  -3   32.47    1.33
  -4  25   3   29.63    1.25
  -4  25   3   31.08    1.27
  -4 -25  -3   31.99    1.36
  -4  25  -3   28.56    1.29
  -4  25  -3   30.04    1.25
  -4 -25   3   32.30    1.30
   4 -25  -3   31.00    1.36
  -4 -25   3   31.84    1.31
  -5 -25   0    1.44    0.31
  -5  25   0    0.69    0.29
  -5  25   0    1.64    0.37
   5 -25   0    1.41    0.32
  -5 -25   0    1.12    0.23
  -5 -25  -1   19.69    0.87
  -5 -25   1   19.04    0.88
   0 -26   0  150.76    5.65
   0 -26   0  161.57    5.66
   0 -26  -1    0.49    0.18
   0 -26  -1    0.46    0.15
   0 -26   1    0.42    0.15
   0 -26   1    0.35    0.19
   0 -26  -2  244.54    9.13
   0 -26   2  256.23    9.12
   0  26  -2  262.75    9.44
   0 -26   2  260.14    9.09
   0 -26   3    0.14    0.18
   0 -26  -3    0.43    0.23
   0  26  -3    0.15    0.30
   0 -26   3    0.49    0.43
   0  26  -4   78.50    2.94
   0 -26   4   79.91    2.96
   0  26  -4   77.89    2.89
   0 -26  -4   78.59    3.00
  -1 -26   0    7.66    0.42
  -1 -26   0    7.15    0.40
   1 -26   0    7.23    0.41
  -1 -26  -1    2.49    0.29
   1 -26   1    2.51    0.26
  -1 -26  -1    2.27    0.25
  -1  26  -1    2.50    0.34
   1 -26  -1    2.96    0.28
  -1 -26   1    2.82    0.29
  -1 -26   1    3.31    0.28
  -1 -26  -2    2.55    0.25
   1  26  -2    2.27    0.36
   1 -26   2    2.41    0.31
  -1 -26  -2    2.35    0.29
  -1 -26   2    2.40    0.27
  -1 -26   2    1.99    0.28
  -1  26  -2    1.97    0.37
   1 -26  -2    2.34    0.30
   1  26  -3    0.68    0.33
  -1 -26  -3    0.94    0.27
  -1 -26  -3    0.67    0.24
  -1 -26   3    0.90    0.22
  -1  26  -3    0.28    0.30
   1 -26  -3    0.82    0.26
  -1  26  -3    0.45    0.25
  -1 -26   3    1.63    0.29
  -1 -26  -4    6.68    0.50
  -1 -26  -4    6.34    0.47
   1 -26  -4    5.63    0.50
  -1  26  -4    6.38    0.47
  -1 -26   4    6.61    0.45
  -1 -26   4    6.10    0.43
  -1  26  -4    5.76    0.59
  -2  26   0  205.03    7.40
   2 -26   0  196.00    7.11
  -2 -26   0  198.71    7.13
  -2 -26   0  196.97    7.13
  -2 -26  -1    3.10    0.30
   2 -26   1    3.21    0.30
  -2 -26  -1    2.12    0.27
  -2  26  -1    2.79    0.35
   2 -26  -1    3.58    0.32
  -2 -26   1    3.01    0.29
  -2 -26   1    2.75    0.30
  -2 -26  -2   95.86    3.45
  -2 -26  -2   92.94    3.48
  -2 -26  -2   94.27    3.45
   2 -26   2   92.41    3.41
  -2 -26   2   94.41    3.48
   2 -26  -2   91.50    3.49
  -2  26  -2   81.64    3.15
  -2 -26   2   95.80    3.46
  -2  26  -2   87.56    3.15
  -2 -26  -3    5.16    0.37
  -2 -26  -3    5.16    0.43
  -2 -26  -3    5.53    0.42
   2 -26  -3    5.72    0.46
  -2  26  -3    4.66    0.51
  -2  26  -3    4.60    0.50
  -2 -26   3    5.32    0.38
  -2 -26   3    5.32    0.39
  -2  26  -3    5.24    0.43
  -2 -26  -4   86.93    3.28
  -2 -26  -4   85.14    3.29
  -2  26  -4   90.00    3.32
   2 -26  -4   84.81    3.31
  -2 -26   4   89.90    3.22
  -2 -26   4   89.52    3.26
  -3  26   0   16.40    0.77
   3 -26   0   18.10    0.78
  -3 -26   0   17.24    0.79
  -3  26   0   16.14    0.76
  -3 -26   0   16.86    0.77
  -3 -26  -1    0.36    0.18
  -3 -26  -1    0.53    0.24
   3 -26   1    0.11    0.23
  -3  26   1    0.30    0.25
  -3 -26  -1    0.02    0.25
  -3 -26   1   -0.11    0.17
  -3  26  -1    0.34    0.22
   3 -26  -1    0.51    0.25
  -3  26  -1    0.03    0.25
  -3 -26   1   -0.06    0.22
  -3 -26  -2   27.21    1.12
  -3  26   2   25.82    1.06
  -3 -26  -2   27.42    1.11
  -3 -26  -2   27.18    1.16
  -3 -26   2   28.11    1.13
   3 -26  -2   26.12    1.16
  -3  26  -2   24.73    1.10
  -3 -26   2   28.48    1.12
  -3  26  -2   24.87    1.06
  -3 -26  -3    2.29    0.38
  -3 -26  -3    2.47    0.38
  -3 -26  -3    2.22    0.35
  -3  26  -3    2.36    0.40
  -3  26  -3    2.00    0.38
  -3 -26   3    2.45    0.32
   3 -26  -3    2.03    0.37
  -3 -26   3    1.87    0.31
  -4  26   0   41.97    1.66
  -4 -26   0   46.66    1.79
  -4  26   0   40.97    1.66
   4 -26   0   45.64    1.76
  -4 -26   0   44.16    1.77
  -4 -26  -1    2.56    0.31
  -4  26   1    2.21    0.39
   4 -26   1    3.19    0.36
  -4  26   1    2.92    0.44
  -4 -26  -1    2.22    0.36
   4 -26  -1    2.39    0.38
  -4 -26   1    2.77    0.33
  -4 -26   1    2.39    0.32
  -4  26  -1    2.67    0.45
  -4  26  -1    2.14    0.38
  -4 -26  -2   43.47    1.71
  -4  26   2   40.22    1.58
  -4 -26  -2   42.72    1.74
  -4 -26  -2   43.29    1.68
  -4 -26   2   43.51    1.69
  -4 -26   2   43.76    1.71
   4 -26  -2   43.91    1.73
  -4  26  -2   37.79    1.60
  -4  26  -2   39.71    1.58
   0 -27   0    1.27    0.21
   0 -27   1   61.47    2.26
   0 -27  -1   59.85    2.28
   0 -27  -1   59.64    2.26
   0 -27   1   60.64    2.27
   0 -27   2    0.27    0.18
   0 -27   2    0.29    0.22
   0  27  -2    0.33    0.27
   0 -27   3   77.59    2.85
   0 -27  -3   72.75    2.87
   0  27  -3   69.43    2.63
   0 -27   3   78.48    2.81
   0 -27   4    0.01    0.21
   0 -27  -4    0.36    0.29
   0  27  -4    0.39    0.28
   0  27  -4    0.62    0.40
  -1 -27   0   20.57    0.87
  -1 -27   0   20.27    0.88
   1 -27   0   21.33    0.87
  -1 -27  -1    2.00    0.29
   1 -27   1    2.18    0.26
  -1 -27  -1    2.28    0.26
  -1 -27   1    2.53    0.28
  -1  27  -1    2.56    0.35
  -1 -27   1    2.38    0.28
   1 -27  -1    1.78    0.27
   1 -27   2    3.90    0.33
  -1 -27  -2    4.22    0.31
   1  27  -2    4.40    0.41
  -1 -27  -2    4.07    0.36
  -1 -27   2    3.79    0.34
  -1  27  -2    3.19    0.42
   1 -27  -2    4.04    0.36
  -1 -27   2    4.14    0.34
  -1 -27  -3    1.58    0.30
   1  27  -3    1.27    0.35
  -1 -27   3    1.17    0.24
  -1 -27   3    1.64    0.30
  -1  27  -3    1.31    0.29
   1 -27  -3    1.74    0.34
  -1  27  -3    1.06    0.33
  -1 -27  -4    4.53    0.42
  -1 -27  -4    3.81    0.45
  -1  27  -4    5.03    0.47
   1 -27  -4    4.34    0.46
  -1 -27   4    2.90    0.47
  -1  27  -4    4.63    0.58
  -1 -27   4    4.34    0.40
   2 -27   0    8.60    0.46
  -2 -27   0    7.47    0.45
  -2  27   0    9.85    0.55
  -2 -27   0    7.78    0.45
   2 -27   1   58.36    2.21
  -2 -27  -1   59.78    2.25
  -2 -27  -1   58.13    2.26
   2 -27  -1   61.23    2.26
  -2 -27   1   59.51    2.25
  -2 -27   1   59.26    2.26
  -2  27  -1   56.13    2.14
  -2 -27  -2    1.02    0.27
  -2 -27  -2    0.90    0.21
   2 -27   2    1.14    0.25
  -2 -27  -2    0.99    0.27
  -2 -27   2    1.00    0.22
   2 -27  -2    1.27    0.29
  -2  27  -2    0.77    0.28
  -2  27  -2    0.60    0.25
  -2 -27   2    0.90    0.25
  -2 -27  -3   41.16    1.59
  -2 -27  -3   38.63    1.60
  -2 -27  -3   40.83    1.55
  -2  27  -3   35.68    1.53
  -2  27  -3   36.44    1.48
   2 -27  -3   40.03    1.63
  -2  27  -3   39.30    1.50
  -2 -27   3   39.06    1.58
  -2 -27   3   39.92    1.56
  -3 -27   0    0.18    0.18
  -3  27   0    0.17    0.26
  -3  27   0    0.28    0.23
  -3 -27   0    0.22    0.24
   3 -27   0    0.35    0.27
  -3 -27  -1    7.17    0.48
  -3  27   1    7.75    0.49
  -3 -27  -1    7.35    0.43
   3 -27   1    7.11    0.45
  -3 -27   1    6.93    0.46
  -3  27  -1    6.37    0.47
  -3  27  -1    6.86    0.52
   3 -27  -1    7.65    0.48
  -3 -27   1    6.35    0.44
  -3 -27  -2   15.75    0.77
  -3 -27  -2   17.06    0.76
  -3 -27  -2   16.11    0.74
  -3  27   2   14.95    0.73
  -3 -27   2   15.84    0.74
  -3  27  -2   14.85    0.73
  -3  27  -2   15.17    0.78
  -3 -27   2   15.23    0.74
   3 -27  -2   16.21    0.79
  -3 -27  -3   11.57    0.61
  -3 -27  -3   10.88    0.64
  -3 -27  -3   11.43    0.58
  -3  27  -3   10.33    0.63
   3 -27  -3   10.07    0.65
  -3 -27   3   10.24    0.59
  -3  27  -3    9.30    0.67
  -3  27  -3   11.37    0.74
  -3 -27   3    9.97    0.57
  -4 -27   0    0.07    0.26
  -4 -27   0    0.27    0.21
  -4  27   0    0.14    0.26
  -4  27   0    0.16    0.31
   4 -27   0    0.54    0.29
  -4 -27  -1   27.44    1.13
  -4  27   1   24.76    1.10
  -4  27   1   25.50    1.11
   4 -27   1   25.98    1.10
  -4 -27  -1   27.61    1.17
  -4 -27   1   26.17    1.13
  -4  27  -1   24.72    1.09
   4 -27  -1   27.94    1.15
  -4 -27   1   26.61    1.14
  -4  27  -1   24.94    1.13
  -4  27   2    1.61    0.35
  -4 -27  -2    2.68    0.46
  -4 -27  -2    1.78    0.33
  -4  27   2    2.17    0.43
  -4 -27   2    2.34    0.35
  -4  27  -2    1.94    0.41
  -4  27  -2    1.40    0.42
  -4 -27   2    2.54    0.36
   0 -28   0    7.13    0.42
   0 -28   0    6.75    0.40
   0 -28  -1    0.42    0.16
   0 -28   1   -0.03    0.15
   0 -28   1    0.30    0.22
   0 -28  -1   -0.18    0.19
   0 -28   2   60.84    2.31
   0 -28  -2   59.47    2.32
   0  28  -2   66.77    2.52
   0 -28   2   62.48    2.28
   0 -28  -3    0.14    0.24
   0 -28   3    0.30    0.20
   0  28  -3    0.17    0.34
   0 -28   3   -0.10    0.24
   0  28  -4   29.81    1.35
   0  28  -4   30.52    1.25
   0 -28  -4   33.02    1.45
   0 -28   4   32.40    1.33
  -1 -28   0   11.21    0.56
  -1 -28   0   11.65    0.57
   1 -28   0   11.45    0.56
  -1 -28  -1   19.74    0.88
   1 -28   1   20.91    0.85
  -1 -28  -1   19.63    0.86
  -1 -28   1   19.80    0.87
  -1 -28   1   21.97    0.89
   1 -28  -1   20.29    0.88
  -1  28  -1   20.77    0.90
   1  28  -2    2.76    0.42
   1 -28   2    1.89    0.29
  -1 -28  -2    2.76    0.32
  -1 -28  -2    2.40    0.28
  -1  28  -2    2.56    0.43
  -1 -28   2    2.62    0.31
  -1 -28   2    1.83    0.30
   1 -28  -2    2.12    0.32
  -1 -28  -3   37.37    1.61
   1  28  -3   39.13    1.52
  -1  28  -3   34.48    1.52
   1 -28  -3   39.58    1.63
  -1 -28   3   41.35    1.61
  -1 -28   3   43.76    1.60
  -1  28  -3   38.09    1.49
   2 -28   0   65.31    2.43
  -2 -28   0   65.24    2.45
  -2 -28   0   63.84    2.45
  -2  28   0   66.59    2.51
   2 -28   1    5.51    0.39
  -2 -28  -1    5.63    0.39
  -2 -28  -1    5.37    0.41
   2 -28  -1    5.49    0.42
  -2 -28   1    5.97    0.39
  -2  28  -1    5.66    0.45
  -2 -28   1    5.28    0.40
  -2 -28  -2   22.43    0.96
   2 -28   2   20.21    1.00
  -2 -28  -2   22.86    1.00
  -2 -28   2   23.63    0.98
  -2  28  -2   23.12    1.01
  -2  28  -2   21.93    0.98
   2 -28  -2   23.14    1.00
  -2 -28   2   23.82    0.99
  -2 -28  -3   21.68    0.98
  -2 -28  -3   22.61    0.92
  -2 -28  -3   21.79    0.97
  -2  28  -3   17.95    0.94
  -2 -28   3   21.37    0.95
  -2  28  -3   20.66    0.90
  -2 -28   3   21.98    0.94
   2 -28  -3   20.70    1.00
  -3  28   0   20.97    0.94
  -3  28   0   20.91    0.94
  -3 -28   0   22.04    0.96
  -3 -28   0   22.42    0.98
   3 -28   0   22.43    0.96
  -3 -28  -1   33.68    1.36
  -3 -28  -1   33.52    1.33
   3 -28   1   31.95    1.30
  -3  28   1   32.44    1.28
   3 -28  -1   32.17    1.34
  -3 -28   1   33.28    1.34
  -3  28  -1   30.58    1.31
  -3  28  -1   30.33    1.29
  -3 -28   1   32.60    1.34
  -3  28   2   20.01    0.89
  -3 -28  -2   21.89    0.95
  -3 -28  -2   21.99    0.99
  -3 -28  -2   22.78    0.96
  -3 -28   2   20.78    0.96
  -3 -28   2   21.83    0.95
  -3  28  -2   19.63    0.94
   3 -28  -2   22.48    1.00
  -3  28  -2   18.76    0.89
  -4 -28   0   41.17    1.67
   4 -28   0   42.54    1.66
  -4  28   0   39.06    1.59
  -4  28   0   38.77    1.59
  -4 -28   0   42.77    1.69
  -4 -28  -1   29.56    1.24
  -4 -28  -1   29.30    1.30
  -4  28   1   27.07    1.20
  -4 -28   1   30.55    1.24
   4 -28  -1   29.02    1.24
  -4  28  -1   28.18    1.20
  -4  28  -1   27.82    1.33
  -4 -28   1   29.93    1.24
   0 -29   0    0.36    0.22
   0 -29   0    0.35    0.17
   0 -29   1    1.57    0.27
   0 -29   1    0.96    0.19
   0  29  -1    1.36    0.27
   0 -29  -1    1.35    0.26
   0 -29   2   -0.01    0.17
   0  29  -2    0.01    0.30
   0 -29  -2    0.31    0.25
   0 -29   2    0.31    0.24
   0 -29  -3    3.94    0.39
   0  29  -3    2.85    0.53
   0 -29   3    3.47    0.37
   0 -29   3    3.82    0.36
   1 -29   0  103.27    3.73
  -1 -29   0   99.63    3.74
  -1 -29   0  101.84    3.75
   1 -29   1    2.05    0.29
  -1 -29  -1    1.66    0.30
  -1 -29  -1    1.40    0.26
  -1  29  -1    1.81    0.29
  -1 -29   1    1.46    0.28
  -1 -29   1    1.81    0.31
   1 -29  -1    1.86    0.30
   1 -29   2   65.06    2.42
  -1 -29  -2   65.26    2.45
   1  29  -2   72.73    2.66
  -1 -29  -2   64.99    2.49
  -1  29  -2   69.20    2.68
  -1 -29   2   66.28    2.48
  -1 -29   2   65.77    2.45
   1 -29  -2   65.20    2.49
  -1 -29  -3    2.83    0.37
   1  29  -3    2.83    0.43
   1 -29  -3    3.18    0.41
  -1  29  -3    2.88    0.54
  -1  29  -3    2.74    0.43
  -1 -29   3    2.88    0.36
  -1 -29   3    3.23    0.38
  -2 -29   0    7.35    0.48
  -2 -29   0    7.89    0.47
  -2  29   0    8.60    0.53
   2 -29   0    8.32    0.48
  -2 -29  -1    3.18    0.37
  -2  29   1    3.35    0.39
  -2 -29  -1    3.56    0.34
   2 -29   1    2.94    0.34
  -2 -29   1    3.40    0.37
  -2 -29   1    3.43    0.37
  -2  29  -1    2.87    0.40
   2 -29  -1    3.54    0.39
  -2 -29  -2    2.69    0.37
   2  29  -2    3.32    0.44
  -2 -29  -2    3.51    0.33
   2 -29  -2    3.15    0.39
  -2 -29   2    2.72    0.33
  -2  29  -2    3.54    0.45
  -2 -29   2    3.21    0.38
  -2  29  -2    2.23    0.39
  -2 -29  -3    0.63    0.31
  -2 -29  -3    0.62    0.34
  -2 -29  -3    0.46    0.23
   2 -29  -3    0.72    0.34
  -2 -29   3    1.09    0.28
  -2  29  -3    0.99    0.32
  -2  29  -3    0.85    0.38
  -2 -29   3    0.93    0.32
   3 -29   0   17.62    0.80
  -3 -29   0   16.21    0.78
  -3  29   0   16.53    0.82
  -3 -29   0   17.17    0.81
  -3  29   0   16.92    0.80
  -3 -29  -1   -0.24    0.27
  -3  29   1    0.59    0.32
  -3 -29  -1    0.27    0.21
   3 -29   1   -0.16    0.29
  -3 -29   1    0.29    0.21
   3 -29  -1    0.04    0.30
  -3  29  -1    0.58    0.26
  -3 -29   1    0.34    0.27
  -3  29  -1   -0.36    0.30
  -3 -29  -2   74.82    2.75
  -3  29   2   68.57    2.56
  -3 -29  -2   72.21    2.80
  -3 -29  -2   74.45    2.76
   3 -29  -2   71.45    2.79
  -3 -29   2   75.27    2.77
  -3  29  -2   66.38    2.60
  -3 -29   2   71.24    2.78
   0 -30   0   23.38    0.99
   0 -30   0   23.28    0.98
   0 -30   1    0.03    0.26
   0  30  -1    0.34    0.25
   0 -30   1    0.45    0.20
   0 -30  -1    0.34    0.22
   0 -30  -2    1.63    0.32
   0 -30   2    0.66    0.22
   0 -30   2    0.93    0.28
   0  30  -2    1.51    0.33
   0  30  -3    0.38    0.37
   0 -30   3    0.22    0.21
   0 -30  -3    0.36    0.29
  -1  30   0    2.05    0.37
  -1 -30   0    2.19    0.30
   1 -30   0    1.82    0.31
  -1 -30   0    2.20    0.34
  -1 -30  -1   28.68    1.16
  -1 -30  -1   28.97    1.19
   1 -30   1   29.04    1.15
  -1 -30   1   28.28    1.19
  -1 -30   1   28.47    1.17
   1 -30  -1   28.27    1.18
  -1  30  -1   30.65    1.26
  -1 -30  -2    6.77    0.41
  -1 -30  -2    6.24    0.45
   1  30  -2    6.92    0.56
   1 -30   2    5.98    0.41
  -1 -30   2    6.09    0.45
  -1 -30   2    6.21    0.45
  -1  30  -2    7.03    0.56
   1 -30  -2    7.16    0.48
  -1 -30  -3   20.73    0.97
   1  30  -3   24.44    1.10
  -1 -30   3   21.10    0.94
  -1  30  -3   22.54    1.09
  -1  30  -3   22.82    1.03
  -1 -30   3   20.63    0.91
   1 -30  -3   21.59    0.98
  -2 -30   0    1.81    0.30
  -2  30   0    2.00    0.38
   2 -30   0    1.91    0.34
  -2 -30   0    1.73    0.35
  -2  30   1    0.91    0.27
  -2 -30  -1    0.88    0.28
  -2 -30  -1    0.80    0.23
   2 -30   1    1.00    0.29
  -2 -30   1    0.35    0.27
  -2 -30   1    1.05    0.25
  -2  30  -1    0.99    0.29
   2 -30  -1    1.00    0.31
  -2 -30  -2   16.20    0.74
  -2 -30  -2   15.48    0.78
   2  30  -2   16.04    0.78
  -2  30  -2   15.12    0.76
  -2  30  -2   16.15    0.81
  -2 -30   2   15.31    0.76
   2 -30  -2   15.93    0.78
  -2 -30   2   15.96    0.76
  -3  30   0   19.47    0.91
  -3  30   0   18.80    0.90
  -3 -30   0   19.76    0.92
   3 -30   0   21.36    0.93
  -3 -30   0   20.99    0.95
  -3 -30  -1   10.32    0.60
  -3  30   1   11.02    0.65
   3 -30   1    9.61    0.58
  -3 -30  -1   10.03    0.57
  -3 -30   1    9.75    0.57
   3 -30  -1   10.49    0.61
  -3  30  -1    9.93    0.62
  -3 -30   1    9.74    0.59
  -3  30  -1    9.94    0.66
   0 -31   0    1.63    0.32
   0 -31   0    1.73    0.29
   0 -31  -1   57.87    2.22
   0  31  -1   59.54    2.26
   0 -31   1   58.02    2.19
   0 -31   1   58.04    2.21
   0  31  -2    0.61    0.33
   0 -31   2    0.80    0.29
   0 -31   2    0.15    0.20
   0 -31  -2    0.47    0.26
  -1  31   0   57.00    2.18
   1 -31   0   58.97    2.20
  -1 -31   0   56.67    2.21
  -1 -31   0   57.89    2.21
  -1 -31  -1    0.58    0.28
   1 -31   1    0.63    0.26
  -1 -31  -1    0.59    0.19
  -1 -31   1    0.68    0.28
  -1 -31   1    0.65    0.22
   1 -31  -1    0.40    0.26
  -1  31  -1    0.46    0.28
   1 -31   2   30.86    1.22
   1  31  -2   34.13    1.38
  -1 -31  -2   30.26    1.24
  -1 -31  -2   28.47    1.28
   1 -31  -2   30.31    1.28
  -1  31  -2   33.21    1.40
  -1 -31   2   32.04    1.28
  -1 -31   2   31.93    1.26
   2 -31   0   15.83    0.76
  -2 -31   0   16.15    0.76
  -2  31   0   16.13    0.79
  -2 -31   0   15.97    0.78
   2 -31   1   50.15    1.92
  -2 -31  -1   50.69    1.98
  -2 -31  -1   49.69    1.95
  -2  31   1   46.59    1.87
   2 -31  -1   51.46    1.96
  -2 -31   1   49.46    1.97
  -2  31  -1   49.40    1.90
  -2 -31   1   50.84    1.97
   0  32  -1    0.60    0.29
   0 -32   1    0.55    0.28
   0 -32  -1    0.70    0.29
   0 -32   1    0.20    0.20
   0 -32   2   63.03    2.34
   0  32  -2   68.95    2.62
   0 -32  -2   58.73    2.34
  -1  32   0    0.63    0.28
   1 -32   0    0.59    0.28
  -1 -32   0    0.89    0.30
  -1 -32   0    0.98    0.24
   1 -32   1    2.35    0.35
  -1 -32  -1    1.80    0.34
  -1 -32  -1    1.74    0.30
   1 -32  -1    1.84    0.34
  -1 -32   1    1.14    0.27
  -1 -32   1    1.30    0.33
  -1  32  -1    1.47    0.32
  -2  32   0   46.95    1.87
  -2 -32   0   48.01    1.89
  -2 -32   0   46.94    1.87
   2 -32   0   48.45    1.86
   0 -33   0    1.15    0.31
   0   0   0    0.00    0.00
;
_shelx_hkl_checksum              64145
loop_
_space_group_symop_operation_xyz
'x, y, z'
'-x, -y, z+1/2'
'x+1/2, -y+1/2, z'
'-x+1/2, y+1/2, z+1/2'
loop_
_atom_site_label
_atom_site_type_symbol
_atom_site_fract_x
_atom_site_fract_y
_atom_site_fract_z
_atom_site_U_iso_or_equiv
_atom_site_adp_type
_atom_site_occupancy
_atom_site_site_symmetry_order
_atom_site_calc_flag
_atom_site_refinement_flags_posn
_atom_site_refinement_flags_adp
_atom_site_refinement_flags_occupancy
_atom_site_disorder_assembly
_atom_site_disorder_group
La1 La 0.52914(4) 0.40137(2) 0.93732(9) 0.00325(9) Uani 1 1 d . . . . .
La2 La 1.02757(4) 0.41071(2) 0.43631(10) 0.00363(9) Uani 1 1 d . . . . .
P1 P 0.9827(2) 0.28849(5) 0.4646(4) 0.0044(3) Uani 1 1 d . . . . .
P2 P 0.52186(18) 0.37177(4) 1.4394(5) 0.0043(2) Uani 1 1 d . . . . .
P3 P 0.3152(4) 0.49771(9) 0.7336(3) 0.0044(4) Uani 1 1 d . . . . .
P4 P 0.03295(18) 0.37582(4) 0.9385(5) 0.0042(2) Uani 1 1 d . . . . .
P5 P 0.5914(2) 0.28343(5) 0.9671(3) 0.0043(3) Uani 1 1 d . . . . .
Si1 Si 0.6203(3) 0.29071(6) 0.3580(3) 0.0049(3) Uani 1 1 d . . . . .
Si2 Si 0.9499(3) 0.29413(6) 0.8546(3) 0.0042(3) Uani 1 1 d . . . . .
P6 P 0.6851(4) 0.50211(9) 0.6338(3) 0.0060(4) Uani 1 1 d . . . . .
loop_
_atom_site_aniso_label
_atom_site_aniso_U_11
_atom_site_aniso_U_22
_atom_site_aniso_U_33
_atom_site_aniso_U_23
_atom_site_aniso_U_13
_atom_site_aniso_U_12
La1 0.00153(13) 0.00438(13) 0.00383(15) 0.0002(3) 0.0004(3) 0.00021(7)
La2 0.00181(13) 0.00510(13) 0.00400(15) -0.0007(3) 0.0006(3) -0.00023(8)
P1 0.0030(5) 0.0053(5) 0.0048(10) -0.0007(6) 0.0001(7) 0.0005(4)
P2 0.0030(5) 0.0057(5) 0.0043(6) 0.0005(11) 0.0012(11) 0.0005(4)
P3 0.0037(9) 0.0043(9) 0.0052(11) -0.0001(8) 0.0013(7) -0.0012(7)
P4 0.0029(5) 0.0051(5) 0.0048(6) -0.0011(11) 0.0007(11) -0.0003(3)
P5 0.0025(5) 0.0057(5) 0.0048(9) -0.0004(6) -0.0007(6) -0.0002(4)
Si1 0.0037(7) 0.0048(6) 0.0061(8) 0.0001(5) 0.0000(5) -0.0003(5)
Si2 0.0031(7) 0.0050(7) 0.0045(7) 0.0001(5) -0.0001(5) -0.0001(5)
P6 0.0038(8) 0.0074(9) 0.0067(12) 0.0004(9) -0.0020(8) 0.0007(7)
loop_
_atom_type_symbol
_atom_type_description
_atom_type_scat_dispersion_real
_atom_type_scat_dispersion_imag
_atom_type_scat_source
Si Si 0.0817 0.0704 'International Tables Vol C Tables 4.2.6.8 and 6.1.1.4'
P P 0.1023 0.0942 'International Tables Vol C Tables 4.2.6.8 and 6.1.1.4'
La La -0.2871 2.4523 'International Tables Vol C Tables 4.2.6.8 and 6.1.1.4'
loop_
_geom_angle_atom_site_label_1
_geom_angle_atom_site_label_2
_geom_angle_atom_site_label_3
_geom_angle
_geom_angle_site_symmetry_1
_geom_angle_site_symmetry_3
_geom_angle_publ_flag
P2 La1 P2 150.55(4) 1_554 . ?
P2 La1 P6 124.68(5) 1_554 2_665 ?
P2 La1 P6 80.57(5) . 2_665 ?
P2 La1 P3 79.91(5) 1_554 . ?
P2 La1 P3 125.34(5) . . ?
P6 La1 P3 45.19(3) 2_665 . ?
P2 La1 P4 86.15(6) 1_554 . ?
P2 La1 P4 85.93(6) . . ?
P6 La1 P4 76.30(5) 2_665 . ?
P3 La1 P4 76.48(5) . . ?
P2 La1 P5 78.70(5) 1_554 . ?
P2 La1 P5 72.34(5) . . ?
P6 La1 P5 147.74(6) 2_665 . ?
P3 La1 P5 152.16(6) . . ?
P4 La1 P5 84.49(3) . . ?
P2 La1 P4 87.83(6) 1_554 1_655 ?
P2 La1 P4 87.59(6) . 1_655 ?
P6 La1 P4 126.10(6) 2_665 1_655 ?
P3 La1 P4 125.99(6) . 1_655 ?
P4 La1 P4 155.17(4) . 1_655 ?
P5 La1 P4 70.71(3) . 1_655 ?
P2 La1 P3 136.00(5) 1_554 2_665 ?
P2 La1 P3 72.19(5) . 2_665 ?
P6 La1 P3 42.61(4) 2_665 2_665 ?
P3 La1 P3 70.95(5) . 2_665 ?
P4 La1 P3 116.81(6) . 2_665 ?
P5 La1 P3 136.63(6) . 2_665 ?
P4 La1 P3 83.67(6) 1_655 2_665 ?
P2 La1 P6 71.64(5) 1_554 . ?
P2 La1 P6 136.53(5) . . ?
P6 La1 P6 70.87(5) 2_665 . ?
P3 La1 P6 42.37(4) . . ?
P4 La1 P6 116.82(6) . . ?
P5 La1 P6 141.39(6) . . ?
P4 La1 P6 83.80(6) 1_655 . ?
P3 La1 P6 64.55(3) 2_665 . ?
P2 La1 La2 134.28(2) 1_554 1_556 ?
P2 La1 La2 49.57(2) . 1_556 ?
P6 La1 La2 89.60(4) 2_665 1_556 ?
P3 La1 La2 121.77(5) . 1_556 ?
P4 La1 La2 135.20(6) . 1_556 ?
P5 La1 La2 86.04(3) . 1_556 ?
P4 La1 La2 46.49(5) 1_655 1_556 ?
P3 La1 La2 51.74(4) 2_665 1_556 ?
P6 La1 La2 97.20(4) . 1_556 ?
P2 La1 La2 49.51(2) 1_554 . ?
P2 La1 La2 134.40(2) . . ?
P6 La1 La2 121.29(5) 2_665 . ?
P3 La1 La2 88.96(4) . . ?
P4 La1 La2 135.35(6) . . ?
P5 La1 La2 90.56(3) . . ?
P4 La1 La2 46.85(5) 1_655 . ?
P3 La1 La2 96.82(4) 2_665 . ?
P6 La1 La2 51.31(4) . . ?
La2 La1 La2 88.341(7) 1_556 . ?
P2 La1 La2 132.46(2) 1_554 1_456 ?
P2 La1 La2 48.16(2) . 1_456 ?
P6 La1 La2 52.11(5) 2_665 1_456 ?
P3 La1 La2 85.47(4) . 1_456 ?
P4 La1 La2 46.37(5) . 1_456 ?
P5 La1 La2 96.03(3) . 1_456 ?
P4 La1 La2 135.40(6) 1_655 1_456 ?
P3 La1 La2 78.01(4) 2_665 1_456 ?
P6 La1 La2 122.20(4) . 1_456 ?
La2 La1 La2 91.572(14) 1_556 1_456 ?
La2 La1 La2 173.393(9) . 1_456 ?
P4 La2 P4 145.61(4) 1_654 1_655 ?
P4 La2 P2 84.27(6) 1_654 1_654 ?
P4 La2 P2 83.68(6) 1_655 1_654 ?
P4 La2 P1 75.84(5) 1_654 . ?
P4 La2 P1 70.02(5) 1_655 . ?
P2 La2 P1 76.14(3) 1_654 . ?
P4 La2 P2 85.53(6) 1_654 1_554 ?
P4 La2 P2 84.95(6) 1_655 1_554 ?
P2 La2 P2 142.92(4) 1_654 1_554 ?
P1 La2 P2 66.80(3) . 1_554 ?
P4 La2 P3 133.90(4) 1_654 1_655 ?
P4 La2 P3 72.24(4) 1_655 1_655 ?
P2 La2 P3 73.88(6) 1_654 1_655 ?
P1 La2 P3 133.65(5) . 1_655 ?
P2 La2 P3 134.68(6) 1_554 1_655 ?
P4 La2 P6 123.11(5) 1_654 . ?
P4 La2 P6 83.39(4) 1_655 . ?
P2 La2 P6 143.98(6) 1_654 . ?
P1 La2 P6 129.37(5) . . ?
P2 La2 P6 68.66(5) 1_554 . ?
P3 La2 P6 70.18(5) 1_655 . ?
P4 La2 P6 71.97(4) 1_654 2_764 ?
P4 La2 P6 134.23(4) 1_655 2_764 ?
P2 La2 P6 74.39(5) 1_654 2_764 ?
P1 La2 P6 137.93(5) . 2_764 ?
P2 La2 P6 134.84(6) 1_554 2_764 ?
P3 La2 P6 63.31(3) 1_655 2_764 ?
P6 La2 P6 91.31(5) . 2_764 ?
P4 La2 P3 83.06(4) 1_654 2_664 ?
P4 La2 P3 123.46(4) 1_655 2_664 ?
P2 La2 P3 144.12(6) 1_654 2_664 ?
P1 La2 P3 131.99(5) . 2_664 ?
P2 La2 P3 68.99(5) 1_554 2_664 ?
P3 La2 P3 91.44(5) 1_655 2_664 ?
P6 La2 P3 40.85(3) . 2_664 ?
P6 La2 P3 69.78(5) 2_764 2_664 ?
P4 La2 La1 47.61(2) 1_654 1_554 ?
P4 La2 La1 130.98(2) 1_655 1_554 ?
P2 La2 La1 131.54(6) 1_654 1_554 ?
P1 La2 La1 85.30(3) . 1_554 ?
P2 La2 La1 46.09(5) 1_554 1_554 ?
P3 La2 La1 140.72(4) 1_655 1_554 ?
P6 La2 La1 80.81(4) . 1_554 ?
P6 La2 La1 92.34(4) 2_764 1_554 ?
P3 La2 La1 49.90(4) 2_664 1_554 ?
P4 La2 La1 131.04(2) 1_654 . ?
P4 La2 La1 47.47(2) 1_655 . ?
P2 La2 La1 130.83(6) 1_654 . ?
P1 La2 La1 81.13(3) . . ?
P2 La2 La1 45.57(5) 1_554 . ?
P3 La2 La1 92.65(4) 1_655 . ?
P6 La2 La1 50.21(4) . . ?
P6 La2 La1 140.88(4) 2_764 . ?
P3 La2 La1 81.27(4) 2_664 . ?
La1 La2 La1 88.341(7) 1_554 . ?
P4 La2 La1 46.59(2) 1_654 1_654 ?
P4 La2 La1 129.69(2) 1_655 1_654 ?
P2 La2 La1 46.03(6) 1_654 1_654 ?
P1 La2 La1 92.28(3) . 1_654 ?
P2 La2 La1 131.85(6) 1_554 1_654 ?
P3 La2 La1 91.60(4) 1_655 1_654 ?
P6 La2 La1 136.26(4) . 1_654 ?
P6 La2 La1 45.73(4) 2_764 1_654 ?
P3 La2 La1 103.69(4) 2_664 1_654 ?
La1 La2 La1 91.572(14) 1_554 1_654 ?
La1 La2 La1 173.391(9) . 1_654 ?
Si1 P1 Si2 100.89(9) . . ?
Si1 P1 Si1 107.11(8) . 3 ?
Si2 P1 Si1 110.95(10) . 3 ?
Si1 P1 La2 92.41(6) . . ?
Si2 P1 La2 89.75(7) . . ?
Si1 P1 La2 147.51(8) 3 . ?
Si1 P2 La1 116.22(11) 1_556 1_556 ?
Si1 P2 La1 91.58(10) 1_556 . ?
La1 P2 La1 150.55(4) 1_556 . ?
Si1 P2 La2 123.50(6) 1_556 1_456 ?
La1 P2 La2 86.42(6) 1_556 1_456 ?
La1 P2 La2 85.81(6) . 1_456 ?
Si1 P2 La2 92.46(5) 1_556 1_556 ?
La1 P2 La2 84.92(5) 1_556 1_556 ?
La1 P2 La2 84.33(5) . 1_556 ?
La2 P2 La2 142.92(4) 1_456 1_556 ?
P6 P3 P6 104.71(12) . 2_665 ?
P6 P3 La1 74.44(5) . . ?
P6 P3 La1 67.14(10) 2_665 . ?
P6 P3 La1 63.26(5) . 2_664 ?
P6 P3 La1 121.86(14) 2_665 2_664 ?
La1 P3 La1 137.69(8) . 2_664 ?
P6 P3 La2 113.79(6) . 1_455 ?
P6 P3 La2 121.50(13) 2_665 1_455 ?
La1 P3 La2 82.48(6) . 1_455 ?
La1 P3 La2 114.40(6) 2_664 1_455 ?
P6 P3 La2 130.35(6) . 2_665 ?
P6 P3 La2 69.23(11) 2_665 2_665 ?
La1 P3 La2 134.36(7) . 2_665 ?
La1 P3 La2 78.35(5) 2_664 2_665 ?
La2 P3 La2 110.05(7) 1_455 2_665 ?
Si2 P4 La2 119.30(11) 1_455 1_456 ?
Si2 P4 La1 115.08(6) 1_455 . ?
La2 P4 La1 87.04(5) 1_456 . ?
Si2 P4 La2 93.83(10) 1_455 1_455 ?
La2 P4 La2 145.61(4) 1_456 1_455 ?
La1 P4 La2 86.81(5) . 1_455 ?
Si2 P4 La1 89.03(5) 1_455 1_455 ?
La2 P4 La1 85.90(5) 1_456 1_455 ?
La1 P4 La1 155.18(4) . 1_455 ?
La2 P4 La1 85.68(5) 1_455 1_455 ?
Si2 P5 Si2 112.26(8) . 3_455 ?
Si2 P5 Si1 101.88(8) . 1_556 ?
Si2 P5 Si1 112.79(9) 3_455 1_556 ?
Si2 P5 La1 88.74(6) . . ?
Si2 P5 La1 144.28(8) 3_455 . ?
Si1 P5 La1 89.08(6) 1_556 . ?
P2 Si1 P1 102.72(8) 1_554 . ?
P2 Si1 P1 133.32(10) 1_554 3_455 ?
P1 Si1 P1 104.42(8) . 3_455 ?
P2 Si1 P5 105.61(11) 1_554 1_554 ?
P1 Si1 P5 110.10(9) . 1_554 ?
P1 Si1 P5 99.73(9) 3_455 1_554 ?
P4 Si2 P5 105.37(8) 1_655 . ?
P4 Si2 P5 133.61(10) 1_655 3 ?
P5 Si2 P5 99.41(8) . 3 ?
P4 Si2 P1 105.07(11) 1_655 . ?
P5 Si2 P1 111.21(9) . . ?
P5 Si2 P1 101.45(9) 3 . ?
P3 P6 P3 104.62(12) . 2_664 ?
P3 P6 La1 74.13(6) . 2_664 ?
P3 P6 La1 67.66(10) 2_664 2_664 ?
P3 P6 La1 63.19(5) . . ?
P3 P6 La1 122.69(14) 2_664 . ?
La1 P6 La1 137.32(8) 2_664 . ?
P3 P6 La2 130.36(6) . . ?
P3 P6 La2 69.92(11) 2_664 . ?
La1 P6 La2 135.51(7) 2_664 . ?
La1 P6 La2 78.48(5) . . ?
P3 P6 La2 113.48(6) . 2_765 ?
P3 P6 La2 121.81(13) 2_664 2_765 ?
La1 P6 La2 82.16(6) 2_664 2_765 ?
La1 P6 La2 113.41(6) . 2_765 ?
La2 P6 La2 109.98(7) . 2_765 ?
loop_
_geom_bond_atom_site_label_1
_geom_bond_atom_site_label_2
_geom_bond_distance
_geom_bond_site_symmetry_2
_geom_bond_publ_flag
La1 P2 2.956(3) 1_554 ?
La1 P2 2.979(3) . ?
La1 P6 2.984(2) 2_665 ?
La1 P3 2.995(2) . ?
La1 P4 3.0026(11) . ?
La1 P5 3.0276(13) . ?
La1 P4 3.0466(11) 1_655 ?
La1 P3 3.214(2) 2_665 ?
La1 P6 3.233(2) . ?
La1 La2 4.1147(6) 1_556 ?
La1 La2 4.1227(5) . ?
La1 La2 4.1279(5) 1_456 ?
La2 P4 2.992(3) 1_654 ?
La2 P4 3.016(3) 1_655 ?
La2 P2 3.0836(11) 1_654 ?
La2 P1 3.1245(14) . ?
La2 P2 3.1476(11) 1_554 ?
La2 P3 3.271(2) 1_655 ?
La2 P6 3.284(2) . ?
La2 P6 3.288(2) 2_764 ?
La2 P3 3.299(2) 2_664 ?
La2 La1 4.1147(6) 1_554 ?
La2 La1 4.1279(5) 1_654 ?
P1 Si1 2.228(2) . ?
P1 Si2 2.251(3) . ?
P1 Si1 2.257(2) 3 ?
P2 Si1 2.1928(19) 1_556 ?
P2 La1 2.956(3) 1_556 ?
P2 La2 3.0836(11) 1_456 ?
P2 La2 3.1476(11) 1_556 ?
P3 P6 2.2617(15) . ?
P3 P6 2.2973(16) 2_665 ?
P3 La1 3.214(2) 2_664 ?
P3 La2 3.271(2) 1_455 ?
P3 La2 3.299(2) 2_665 ?
P4 Si2 2.1888(19) 1_455 ?
P4 La2 2.992(3) 1_456 ?
P4 La2 3.016(3) 1_455 ?
P4 La1 3.0466(11) 1_455 ?
P5 Si2 2.231(2) . ?
P5 Si2 2.238(2) 3_455 ?
P5 Si1 2.257(2) 1_556 ?
Si1 P2 2.1929(19) 1_554 ?
Si1 P1 2.257(2) 3_455 ?
Si1 P5 2.257(2) 1_554 ?
Si2 P4 2.1887(19) 1_655 ?
Si2 P5 2.238(2) 3 ?
P6 P3 2.2973(16) 2_664 ?
P6 La1 2.984(2) 2_664 ?
P6 La2 3.288(2) 2_765 ?
