#------------------------------------------------------------------------------
#$Date: 2021-09-06 14:07:32 +0300 (Mon, 06 Sep 2021) $
#$Revision: 268748 $
#$URL: file:///home/coder/svn-repositories/cod/cif/7/70/78/7707867.cif $
#------------------------------------------------------------------------------
#
# This file is available in the Crystallography Open Database (COD),
# http://www.crystallography.net/
#
# All data on this site have been placed in the public domain by the
# contributors.
#
data_7707867
loop_
_publ_author_name
'Wang, Dandan'
'Gong, Pifu'
'Zhang, Xinyuan'
'Lin, Zheshuai'
'Hu, Zhanggui'
'Wu, Yicheng'
_publ_section_title
;
 NaGaI<sub>3</sub>O<sub>9</sub>F: a new alkali metal gallium iodate
 combined with IO<sub>3</sub><sup>-</sup> and IO<sub>3</sub>F<sup>2-</sup>
 units.
;
_journal_issue                   33
_journal_name_full
'Dalton transactions (Cambridge, England : 2003)'
_journal_page_first              11562
_journal_page_last               11567
_journal_paper_doi               10.1039/d1dt02122b
_journal_volume                  50
_journal_year                    2021
_chemical_formula_moiety         'F Ga I3 Na O9'
_chemical_formula_sum            'F Ga I3 Na O9'
_chemical_formula_weight         636.41
_space_group_crystal_system      monoclinic
_space_group_IT_number           14
_space_group_name_Hall           '-P 2ybc'
_space_group_name_H-M_alt        'P 1 21/c 1'
_atom_sites_solution_primary     dual
_audit_creation_date             2020-09-23
_audit_creation_method
;
Olex2 1.2
(compiled 2017.08.10 svn.r3458 for OlexSys, GUI svn.r5381)
;
_audit_update_record
;
2021-06-21 deposited with the CCDC.	2021-07-21 downloaded from the CCDC.
;
_cell_angle_alpha                90
_cell_angle_beta                 112.968(4)
_cell_angle_gamma                90
_cell_formula_units_Z            4
_cell_length_a                   14.1200(19)
_cell_length_b                   4.9149(6)
_cell_length_c                   13.6307(19)
_cell_measurement_reflns_used    2538
_cell_measurement_temperature    299(2)
_cell_measurement_theta_max      29.52
_cell_measurement_theta_min      3.00
_cell_volume                     871.0(2)
_computing_cell_refinement       'SAINT V8.38A (?, 2016)'
_computing_data_reduction        'SAINT V8.38A (?, 2016)'
_computing_molecular_graphics    'Olex2 (Dolomanov et al., 2009)'
_computing_publication_material  'Olex2 (Dolomanov et al., 2009)'
_computing_structure_refinement  'ShelXL (Sheldrick, 2015)'
_computing_structure_solution    'ShelXT (Sheldrick, 2015)'
_diffrn_ambient_temperature      299.0
_diffrn_measured_fraction_theta_full 0.999
_diffrn_measured_fraction_theta_max 0.982
_diffrn_measurement_device_type  'CCD area detector'
_diffrn_measurement_method       'phi and omega scans'
_diffrn_radiation_monochromator  graphite
_diffrn_radiation_type           MoK\a
_diffrn_radiation_wavelength     0.71073
_diffrn_reflns_av_R_equivalents  0.0676
_diffrn_reflns_av_unetI/netI     0.0697
_diffrn_reflns_Laue_measured_fraction_full 0.999
_diffrn_reflns_Laue_measured_fraction_max 0.982
_diffrn_reflns_limit_h_max       19
_diffrn_reflns_limit_h_min       -18
_diffrn_reflns_limit_k_max       6
_diffrn_reflns_limit_k_min       -6
_diffrn_reflns_limit_l_max       16
_diffrn_reflns_limit_l_min       -19
_diffrn_reflns_number            9777
_diffrn_reflns_point_group_measured_fraction_full 0.999
_diffrn_reflns_point_group_measured_fraction_max 0.982
_diffrn_reflns_theta_full        25.242
_diffrn_reflns_theta_max         30.182
_diffrn_reflns_theta_min         3.004
_exptl_absorpt_coefficient_mu    13.893
_exptl_absorpt_correction_T_max  0.7676
_exptl_absorpt_correction_T_min  0.6482
_exptl_absorpt_correction_type   none
_exptl_absorpt_process_details
;
SADABS-2016/2 (Bruker,2016/2) was used for absorption correction.
wR2(int) was 0.0852 before and 0.0636 after correction.
The Ratio of minimum to maximum transmission is 0.8445.
The \l/2 correction factor is Not present.
;
_exptl_crystal_density_diffrn    4.853
_exptl_crystal_description       strip
_exptl_crystal_F_000             1128
_refine_diff_density_max         1.529
_refine_diff_density_min         -1.797
_refine_diff_density_rms         0.401
_refine_ls_extinction_method     none
_refine_ls_goodness_of_fit_ref   1.044
_refine_ls_hydrogen_treatment    undef
_refine_ls_matrix_type           full
_refine_ls_number_parameters     140
_refine_ls_number_reflns         2528
_refine_ls_number_restraints     6
_refine_ls_restrained_S_all      1.045
_refine_ls_R_factor_all          0.0731
_refine_ls_R_factor_gt           0.0412
_refine_ls_shift/su_max          0.001
_refine_ls_shift/su_mean         0.000
_refine_ls_structure_factor_coef Fsqd
_refine_ls_weighting_details
'w=1/[\s^2^(Fo^2^)+(0.0108P)^2^+6.6398P] where P=(Fo^2^+2Fc^2^)/3'
_refine_ls_weighting_scheme      calc
_refine_ls_wR_factor_gt          0.0618
_refine_ls_wR_factor_ref         0.0727
_reflns_Friedel_coverage         0.000
_reflns_number_gt                1842
_reflns_number_total             2528
_reflns_threshold_expression     'I > 2\s(I)'
_cod_data_source_file            d1dt02122b2.cif
_cod_data_source_block           a
_cod_depositor_comments          'Adding full bibliography for 7707867.cif.'
_cod_database_code               7707867
_shelx_shelxl_version_number     2016/4
_shelx_space_group_comment
;
The symmetry employed for this shelxl refinement is uniquely defined
by the following loop, which should always be used as a source of
symmetry information in preference to the above space-group names.
They are only intended as comments.
;
_olex2_refinement_description
;
1. Uiso/Uaniso restraints and constraints
Uanis(O6) \\sim Ueq: with sigma of 0.002 and sigma for terminal atoms of 0.001
Uanis(I3) = Uanis(I4)
2. Others
 Sof(I4)=1-FVAR(1)
 Sof(I3)=FVAR(1)
;
_shelx_res_file
;
TITL a_a.res in P2(1)/c
 a.res created by SHELXL-2016/4 at 11:01:22 on 23-Sep-2020
REM Old TITL a in P2(1)/c
REM SHELXT solution in P2(1)/c
REM R1 0.067, Rweak 0.002, Alpha 0.018, Orientation as input
REM Formula found by SHELXT: F9 Na2 Ga I3
CELL 0.71073 14.12 4.9149 13.6307 90 112.968 90
ZERR 4 0.0019 0.0006 0.0019 0 0.004 0
LATT 1
SYMM -X,0.5+Y,0.5-Z
SFAC F Ga I Na O
UNIT 4 4 12 4 36
ISOR 0.002 0.001 O6
EADP I3 I4

L.S. 4
PLAN  20
TEMP 25.85
list 4
fmap 2
ACTA
REM <olex2.extras>
REM <HklSrc "%.\\a.hkl">
REM </olex2.extras>

WGHT    0.010800    6.639800
FVAR       0.21080   0.92754
I2    3    0.157552   -0.002118    0.492174    11.00000    0.01013    0.01099 =
         0.01124   -0.00021    0.00366   -0.00063
I1    3    0.093966    0.574335    0.707807    11.00000    0.00965    0.01403 =
         0.01271    0.00013    0.00507    0.00023
PART 1
I3    3    0.489816    0.078483    0.624078    21.00000    0.01029    0.01206 =
         0.01224    0.00010    0.00477    0.00020
PART 0
GA1   2    0.309260    0.504620    0.661979    11.00000    0.00851    0.01099 =
         0.01200    0.00068    0.00327   -0.00009
NA1   4    0.698052    0.495296    0.612446    11.00000    0.02553    0.01940 =
         0.02951   -0.00419    0.01300   -0.00873
F1    1    0.358986    0.270210    0.782514    11.00000    0.02302    0.01769 =
         0.02538    0.00855    0.01033    0.00590
O6    5    0.188939    0.264563    0.593814    11.00000    0.01270    0.01646 =
         0.01745   -0.00271    0.00653   -0.00296
O8    5    0.571442    0.229406    0.753909    11.00000    0.01380    0.01183 =
         0.00914    0.00142    0.00019    0.00391
O7    5    0.386429    0.333852    0.586298    11.00000    0.01211    0.02066 =
         0.01583    0.00141    0.00597    0.00770
O5    5    0.271706   -0.224603    0.544650    11.00000    0.01392    0.01084 =
         0.01873    0.00613    0.00896    0.00475
O1    5    0.221955    0.700728    0.722369    11.00000    0.01111    0.01406 =
         0.02682   -0.00658    0.01091   -0.00310
O4    5    0.192425    0.165076    0.395061    11.00000    0.01883    0.02091 =
         0.01617    0.00123    0.00739   -0.00998
O3    5    0.079269    0.798696    0.805837    11.00000    0.01918    0.01963 =
         0.02577   -0.00474    0.01077    0.00432
O9    5    0.560704    0.213735    0.550611    11.00000    0.02217    0.02484 =
         0.01677   -0.00204    0.01187   -0.00872
O2    5    0.019163    0.757112    0.587707    11.00000    0.02430    0.03170 =
         0.02140    0.01163    0.00705    0.00960
PART 2
I4    3    0.513750    0.007650    0.633097   -21.00000    0.01029    0.01206 =
         0.01224    0.00010    0.00477    0.00020
HKLF 4




REM  a_a.res in P2(1)/c
REM R1 =  0.0412 for    1842 Fo > 4sig(Fo)  and  0.0731 for all    2528 data
REM    140 parameters refined using      6 restraints

END

WGHT      0.0108      6.6388

REM Highest difference peak  1.529,  deepest hole -1.797,  1-sigma level  0.401
Q1    1   0.3587  0.3635  0.7235  11.00000  0.05    1.53
Q2    1   0.2038 -0.2011  0.5520  11.00000  0.05    1.49
Q3    1   0.2088  0.2033  0.6313  11.00000  0.05    1.46
Q4    1  -0.0033  0.5209  0.6896  11.00000  0.05    1.44
Q5    1   0.0683  0.0699  0.4472  11.00000  0.05    1.40
Q6    1   0.1988  0.1863  0.3301  11.00000  0.05    1.39
Q7    1   0.1569  0.6946  0.8141  11.00000  0.05    1.39
Q8    1   0.4974  0.1673  0.7872  11.00000  0.05    1.38
Q9    1   0.1860  0.9193  0.6537  11.00000  0.05    1.35
Q10   1   0.0170  0.7296  0.7322  11.00000  0.05    1.34
Q11   1   0.0996  0.7567  0.8514  11.00000  0.05    1.31
Q12   1   0.2078  0.5719  0.5804  11.00000  0.05    1.31
Q13   1   0.0690  0.6098  0.5925  11.00000  0.05    1.28
Q14   1   0.1602  0.3298  0.2823  11.00000  0.05    1.27
Q15   1   0.6391  0.4088  0.8015  11.00000  0.05    1.26
Q16   1   0.5343  0.2600  0.6177  11.00000  0.05    1.26
Q17   1   0.5514  0.2966  0.5110  11.00000  0.05    1.26
Q18   1  -0.0386  0.7353  0.4809  11.00000  0.05    1.25
Q19   1   0.2301  0.3518  0.5976  11.00000  0.05    1.24
Q20   1   0.5792 -0.0322  0.7010  11.00000  0.05    1.23
;
_shelx_res_checksum              54828
_shelx_hkl_file
;
   0   0   2   56.09   10.50
   0   0  -2   51.69    9.80
   0   0   2   62.39    6.70
   0   0  -2   57.99    6.80
   0   0  -3    1.00    2.30
   0   0   3    0.10    1.90
   0   0   3    3.20    3.60
   0   0  -3    0.10    2.30
   0   0   4   -3.50    3.10
   0   0  -4   -2.20    2.10
   0   0  -4    5.90    3.60
   0   0   5    4.80    5.90
   0   0  -5    6.40    4.00
   0   0  -5    4.50    4.10
   0   0   5    5.30    3.80
   0   0   6  608.44   48.90
   0   0  -6  605.94   49.80
   0   0  -6  572.94   36.80
   0   0   6  633.54   40.20
   0   0  -7    7.70    6.20
   0   0   7    9.00    6.60
   0   0  -7    2.70    5.00
   0   0   7   -0.30    4.00
   0   0  -8 1141.09   80.39
   0   0  -8 1125.79   59.09
   0   0   8 1034.40   60.49
   0   0  -9    0.80    7.50
   0   0   9    2.00    6.50
   0   0  -9  -16.20    6.80
   0   0 -10 1316.47   70.29
   0   0 -10 1338.47   93.89
   0   0 -10 1174.98   91.69
   0   0 -11   10.70   12.70
   0   0 -11    8.50    9.30
   0   0 -12  133.89   37.40
   0   0 -12   80.39   28.20
   0   0 -13  -22.70   15.20
   0   0 -13    4.30   12.70
   0   0 -14  528.65   70.19
   0   0 -14  497.05   70.99
   0   0 -15   -3.30   15.60
   0   0 -15  -32.70   14.40
   0   0 -16   70.29   40.90
   0   0 -16   70.39   35.60
   0   1   0    5.40    3.90
   0   1   0    1.70    2.40
   0  -1   0    2.50    2.00
   0  -1   0    1.60    1.70
   0  -1   0    4.20    2.60
   0   1   1 1414.26   40.50
   0   1   1 1408.46   41.60
   0   1  -1 1381.06   49.90
   0   1  -1 1511.85   44.70
   0  -1  -1 1378.16   40.50
   0  -1  -1 1401.56   41.10
   0  -1   1 1419.06   49.20
   0  -1   1 1437.26   44.20
   0  -1  -1 1387.06   47.70
   0   1  -2   31.00    8.30
   0   1   2   40.70    5.20
   0   1  -2   58.49   12.40
   0   1  -2   41.20    9.10
   0  -1   2   51.69   10.60
   0  -1   2   45.50    9.40
   0  -1   2   46.10   11.90
   0  -1  -2   48.90    9.70
   0  -1  -2   41.40    4.80
   0   1  -3 3989.20  113.89
   0   1  -3 4233.18  112.39
   0   1  -3 3973.30  114.49
   0  -1   3 4079.59  110.29
   0  -1  -3 4061.29  108.29
   0  -1   3 4236.98  117.19
   0  -1   3 4180.58  118.49
   0   1  -4  376.36   32.00
   0   1  -4  356.16   30.00
   0   1  -4  333.77   29.10
   0  -1   4  311.07   30.00
   0  -1   4  383.36   31.90
   0   1  -5  443.66   35.80
   0   1  -5  411.66   35.90
   0   1  -5  384.96   36.40
   0  -1  -5  450.95   39.60
   0  -1   5  361.86   33.60
   0  -1   5  386.96   36.70
   0   1  -6  908.81   61.69
   0   1  -6 1112.79   65.79
   0  -1   6  916.91   61.39
   0  -1   6  939.81   59.99
   0  -1  -6  970.20   65.09
   0  -1  -6  875.11   35.80
   0   1  -7 3235.08  131.39
   0   1  -7 3696.03  142.89
   0   1  -7 3223.88  120.29
   0  -1  -7 3638.04  143.09
   0  -1  -7 3418.56   91.29
   0  -1   7 3485.55  131.09
   0   1  -8  176.78   39.70
   0   1  -8  113.59   26.10
   0   1  -8  182.18   35.40
   0  -1  -8  176.18   18.40
   0  -1  -8  143.59   30.60
   0  -1   8  142.99   29.80
   0   1  -9  944.21   78.49
   0   1  -9 1112.69   82.09
   0  -1   9 1117.09   75.79
   0  -1  -9 1118.79   84.49
   0  -1  -9 1124.69   50.69
   0   1 -10    6.10    9.40
   0   1 -10    8.90   12.10
   0  -1  10    5.10    9.30
   0  -1 -10   -9.40    7.10
   0  -1 -10    0.10    8.60
   0   1 -11   22.30   12.10
   0   1 -11   69.79   25.10
   0  -1  11   10.70   13.00
   0  -1 -11   19.90   15.40
   0  -1 -11   17.00   11.20
   0   1 -12   -7.90   11.20
   0  -1 -12   26.20   14.90
   0  -1  12  -14.70   11.80
   0   1 -13    3.20   17.80
   0   1 -13   30.40   16.60
   0  -1  13    9.00   15.50
   0  -1 -13   15.90   18.40
   0  -1 -13   23.10   13.10
   0  -1 -13  -12.80   12.20
   0   1 -14   13.70   19.40
   0  -1 -14   22.20   20.80
   0  -1 -14    3.70   24.50
   0   1 -15  272.47   61.29
   0   1 -15  367.16   74.89
   0  -1 -15  296.97   66.99
   0  -1 -15  250.07   54.79
   0   1 -16   78.79   33.20
   0   1 -16   22.20   24.90
   0  -1 -16  -15.20   23.90
   0   2   0 3340.07   93.79
   0   2   0 3638.04  111.39
   0   2   0 3809.22  108.69
   0  -2   0 3738.03  111.59
   0  -2   0 3570.04   93.59
   0  -2   0 3701.33  109.69
   0   2  -1 1693.43   70.39
   0   2  -1 1715.53   56.69
   0   2  -1 1575.84   67.89
   0   2   1 1675.83   61.39
   0   2   1 1608.94   54.69
   0   2   1 1621.14   68.39
   0  -2  -1 1633.64   62.09
   0  -2   1 1499.55   55.99
   0  -2  -1 1643.54   55.29
   0  -2   1 1634.14   71.59
   0  -2  -1 1637.64   68.09
   0  -2   1 1609.14   68.39
   0   2   2  121.49   14.00
   0   2   2  131.39   15.00
   0   2  -2  132.89   18.60
   0   2  -2  141.29   25.20
   0   2  -2  138.99   15.60
   0  -2  -2  123.99   14.20
   0  -2   2  136.59   23.60
   0  -2   2  114.79   14.90
   0  -2  -2  106.19   18.90
   0  -2  -2  132.29   14.90
   0  -2   2  105.99   20.50
   0   2  -3   67.49   14.90
   0   2  -3   59.59   15.80
   0   2   3   65.39   11.40
   0  -2   3   56.39   13.40
   0  -2  -3   96.69   13.40
   0  -2   3   34.40   10.80
   0  -2   3   72.59   18.70
   0  -2  -3   83.89   10.10
   0  -2  -3   80.39   16.40
   0   2  -4   -0.10    6.60
   0   2  -4   12.00    6.00
   0   2  -4    2.90    4.60
   0  -2  -4   17.80    7.90
   0  -2   4   -1.30    6.00
   0  -2  -4   -0.10    2.40
   0  -2   4    1.80    5.80
   0  -2   4    5.80    5.10
   0   2  -5   58.39   18.90
   0   2  -5   44.80   15.20
   0   2  -5  105.39   24.60
   0  -2   5   87.89   22.80
   0  -2  -5   61.99   15.60
   0  -2   5   57.49   16.90
   0   2  -6 2710.93  114.49
   0   2  -6 3015.50  126.09
   0  -2  -6 3025.70  114.59
   0  -2   6 2918.31  129.09
   0   2  -7   59.89   22.20
   0   2  -7   39.90   15.00
   0  -2   7   59.59   23.10
   0   2  -8  994.80   76.79
   0   2  -8  956.70   72.09
   0  -2  -8  849.12   72.49
   0  -2   8 1077.69   79.39
   0   2  -9    5.60    8.50
   0   2  -9  -15.20    9.20
   0  -2   9    9.50   13.70
   0  -2  -9   19.70   16.60
   0   2 -10  440.46   55.59
   0   2 -10  440.36   55.79
   0  -2  10  532.65   58.79
   0  -2 -10  505.25   58.89
   0   2 -11  356.26   60.19
   0   2 -11  486.95  102.79
   0  -2 -11  493.05   60.29
   0  -2  11  580.54   64.09
   0   2 -12    7.50   12.80
   0   2 -12   39.00   18.10
   0  -2  12   14.40   20.00
   0  -2 -12  -20.20   17.40
   0   2 -13  395.86   71.09
   0   2 -13  639.64   74.89
   0  -2 -13  464.35   82.89
   0  -2  13  352.26   63.29
   0   2 -14  350.86   70.99
   0   2 -14  329.67   69.39
   0  -2 -14  308.47   66.39
   0  -2  14  272.17   51.59
   0   2 -15   15.00   20.30
   0   2 -15    4.90   23.40
   0  -2  15   44.30   28.30
   0  -2 -15   22.10   30.80
   0  -2 -15   49.10   26.80
   0   2 -16   48.50   37.90
   0   2 -16   50.69   35.60
   0  -2 -16   94.19   38.70
   0  -2 -16  132.69   44.30
   0   3   0   -7.20    2.80
   0   3   0    0.50    6.70
   0   3   0   -1.30    5.60
   0  -3   0    5.60    7.20
   0  -3   0    0.20    4.20
   0  -3   0    8.50    5.30
   0   3  -1  239.28   29.70
   0   3  -1  233.68   29.20
   0   3   1  253.17   26.80
   0   3   1  282.47   32.20
   0   3  -1  228.48   22.10
   0   3   1  244.38   22.80
   0  -3  -1  265.37   28.90
   0  -3   1  293.37   26.10
   0  -3   1  335.87   53.89
   0  -3  -1  305.47   25.50
   0  -3   1  283.07   33.60
   0  -3  -1  254.87   31.50
   0   3   2  128.69   21.00
   0   3  -2  186.78   33.00
   0   3  -2  114.59   19.90
   0   3   2  162.38   20.40
   0  -3  -2  137.29   23.70
   0  -3   2  150.68   20.00
   0  -3  -2  143.39   18.70
   0  -3   2  136.19   29.90
   0   3  -3 1848.72   77.69
   0   3   3 1854.11   76.69
   0   3  -3 1768.82   89.59
   0   3   3 1771.12   69.29
   0  -3   3 1842.02   98.09
   0  -3  -3 1784.52   72.39
   0  -3   3 1864.21   77.89
   0  -3  -3 1730.53   72.19
   0   3  -4  522.25   47.40
   0   3   4  511.35   32.50
   0   3  -4  505.75   40.90
   0  -3  -4  472.55   32.70
   0  -3   4  468.75   48.90
   0  -3  -4  484.15   37.30
   0  -3   4  581.54   54.79
   0   3  -5  344.57   39.60
   0   3  -5  315.57   35.50
   0   3   5  339.67   23.90
   0  -3   5  358.06   36.60
   0  -3  -5  372.06   36.10
   0  -3   5  320.57   44.00
   0  -3  -5  390.06   26.00
   0   3  -6 1724.93   98.89
   0   3  -6 1710.03  113.49
   0  -3   6 1658.03  104.69
   0   3  -7  282.27   48.00
   0   3  -7  334.37   40.50
   0  -3   7  237.48   46.90
   0   3  -8  171.88   37.90
   0   3  -8  145.39   36.00
   0  -3   8  133.49   35.90
   0   3  -9  836.52   76.39
   0   3  -9  717.03   68.29
   0  -3   9  705.03   76.09
   0  -3  -9  710.93   72.29
   0   3 -10  201.88   45.10
   0   3 -10  180.68   41.90
   0  -3  10  212.78   46.20
   0   3 -11  180.18   53.39
   0   3 -11  180.28   43.00
   0  -3  11  134.09   36.60
   0  -3 -11  117.29   34.30
   0   3 -12   38.40   26.40
   0   3 -12  -25.90   17.20
   0  -3  12   -6.00   15.10
   0  -3 -12   15.30   24.10
   0   3 -13   92.79   34.50
   0   3 -13  103.99   36.30
   0  -3 -13   59.79   30.50
   0  -3  13   69.89   27.60
   0   3 -14    8.20   22.80
   0   3 -14   52.99   33.70
   0  -3 -14   41.60   20.90
   0  -3  14   -6.40   25.60
   0   3 -15  312.47   71.19
   0   3 -15  178.78   54.09
   0  -3 -15  117.39   40.80
   0  -3  15  217.68   57.79
   0   4   0 1262.47   82.39
   0   4   0 1393.56   62.59
   0  -4   0 1400.86   66.19
   0  -4   0 1256.47   81.59
   0   4  -1 1319.17   63.09
   0   4   1 1446.16   64.79
   0   4   1 1340.67   86.69
   0   4  -1 1351.56   85.49
   0  -4   1 1480.25   69.19
   0  -4  -1 1418.56   65.59
   0  -4   1 1481.35   92.19
   0  -4  -1 1382.66   94.59
   0   4   2  401.06   34.10
   0   4  -2  422.16   47.90
   0   4   2  400.36   40.00
   0   4  -2  428.16   35.60
   0  -4  -2  387.06   34.80
   0  -4   2  470.55   52.19
   0  -4  -2  422.46   42.40
   0   4  -3    7.20   10.30
   0   4   3   -2.70   11.60
   0   4  -3   22.00   15.00
   0  -4   3   22.70   11.20
   0  -4   3   -4.50    8.20
   0  -4  -3    4.30   11.10
   0  -4  -3   33.30   11.90
   0   4  -4  282.27   31.90
   0   4   4  278.57   32.00
   0   4  -4  295.67   40.30
   0  -4  -4  319.57   33.40
   0  -4   4  280.67   33.90
   0  -4  -4  314.87   33.30
   0  -4   4  211.88   42.50
   0   4   5  109.39   19.80
   0   4  -5  100.99   27.90
   0   4  -5  131.09   33.10
   0  -4  -5   85.39   17.10
   0  -4   5   79.09   28.30
   0   4  -6  804.62   71.79
   0   4  -6  760.32   60.89
   0  -4  -6  726.53   40.60
   0  -4   6  708.53   74.19
   0   4  -7    5.80   13.80
   0   4  -7   -5.00   11.30
   0  -4   7   32.00   22.60
   0   4  -8  131.19   31.20
   0   4  -8  156.58   39.70
   0  -4   8  164.38   44.10
   0   4  -9   43.00   19.10
   0   4  -9    4.30   14.70
   0  -4   9   38.90   26.60
   0   4 -10   16.70   21.60
   0  -4  10   24.40   15.80
   0  -4 -10   -8.00   10.40
   0   4 -11  521.65   65.79
   0   4 -11  428.06   72.49
   0  -4 -11  619.84   74.69
   0  -4  11  411.36   79.59
   0   4 -12  724.73  134.69
   0   4 -12  674.43   80.99
   0  -4 -12  804.42   91.39
   0   4 -13  256.37   62.09
   0   4 -13  276.97   62.09
   0  -4 -13  346.47   67.59
   0  -4  13  242.18   58.09
   0   4 -14    0.80   28.40
   0   5   0    0.60   14.70
   0   5   0  -10.30    8.90
   0  -5   0   -8.50   14.00
   0   5  -1   53.79   16.60
   0   5   1   63.79   17.50
   0   5  -1   37.90   21.80
   0  -5  -1   37.00   19.50
   0  -5   1   85.79   27.20
   0  -5   1   31.40   16.40
   0   5  -2  -32.30   16.50
   0   5   2  -18.20   10.80
   0   5  -2   27.90   14.70
   0  -5   2   34.80   17.70
   0  -5   2   25.50   17.30
   0  -5  -2   43.80   16.00
   0  -5  -2    0.40   16.10
   0   5  -3  951.80   60.29
   0   5  -3  932.61   80.19
   0  -5   3  996.50  139.69
   0  -5  -3  916.91   60.39
   0  -5  -3  909.01   69.89
   0   5  -4  129.19   28.40
   0   5  -4  191.68   42.20
   0  -5  -4  142.29   28.70
   0  -5   4  210.08   48.10
   0   5  -5 1168.28   93.59
   0   5  -5 1150.88   73.89
   0   5   5 1033.30   95.79
   0  -5   5 1088.39  100.69
   0  -5  -5 1123.69   69.69
   0   5  -6  516.15   53.29
   0   5  -6  747.63   77.09
   0  -5  -6  567.84   42.90
   0  -5   6  527.75   72.49
   0   5  -7   40.50   24.80
   0   5  -7   42.30   24.60
   0  -5   7   40.80   23.60
   0   5  -8   58.09   28.00
   0   5  -8  106.99   29.20
   0  -5   8   69.59   33.70
   0   5  -9  288.77   59.79
   0   5  -9  247.98   51.89
   0  -5   9  264.17   89.29
   0   5 -10   44.30   28.80
   0   5 -10  -26.30   23.50
   0  -5  10   16.10   28.90
   0   5 -11  124.29   38.00
   0   5 -11  153.48   45.00
   0  -5 -11   83.69   32.60
   0   5 -12   82.09   36.90
   0   6   0    5.20   17.20
   0  -6   0   11.70   19.40
   0   6  -1   67.29   27.80
   0   6  -1   60.99   23.20
   0  -6  -1   34.80   27.70
   0  -6   1   34.80   20.30
   0   6  -2  447.06   63.79
   0  -6  -2  502.75   61.29
   0  -6   2  538.55   70.29
   0   6  -3   45.50   20.90
   0   6  -3   -4.20   19.40
   0  -6   3  -14.90   18.80
   0  -6  -3  -20.50   17.10
   0   6  -4  161.48   34.90
   0   6  -4  152.78   41.70
   0  -6   4  165.38   48.60
   0  -6  -4  161.88   37.30
   0   6  -5   -9.40   25.50
   0   6  -5    9.60   19.10
   0  -6   5   -9.40   17.90
   0  -6  -5  -23.40   25.00
   0   6  -6  301.07   68.29
   0   6  -6  447.16   59.79
   0  -6   6  466.75   90.79
   0   6  -7  -11.40   21.60
   0  -6   7   29.60   29.10
   0   6  -8  -17.10   38.70
   1   0 -17    4.50   23.20
   1   0 -17    8.40   25.50
   1   0 -16  248.18   77.59
   1   0 -16  360.26  109.79
   1   0 -15  -24.20   13.60
   1   0 -15   -0.20   19.90
   1   0 -14  290.37   59.59
   1   0 -14  317.47   65.29
   1   0 -13   24.20   13.30
   1   0 -13   -2.50   13.00
   1   0 -12   56.89   28.90
   1   0 -12   17.50   11.10
   1   0 -11   -1.60    9.50
   1   0 -10  562.84   58.59
   1   0 -10  561.94   46.90
   1   0 -10  564.14   60.89
   1   0  -9    7.30    9.00
   1   0  -9   -4.90    6.50
   1   0  -9   -1.90    6.30
   1   0  -8 1068.29   80.69
   1   0  -8 1021.70   57.59
  -1   0   7   11.40    7.00
   1   0  -7    5.60    6.10
   1   0  -7    1.50    5.50
   1   0  -7   -3.70    5.50
  -1   0   6  842.32   47.60
   1   0  -6  800.32   53.49
  -1   0   6  695.83   49.70
   1   0  -6  810.32   55.39
   1   0  -6  903.71   47.20
  -1   0   5    4.60    4.90
   1   0  -5   -3.70    2.70
   1   0  -5    4.80    4.10
   1   0  -5   -2.10    2.70
  -1   0   5    9.00    5.40
  -1   0   4 1227.38   54.59
   1   0  -4 1167.68   53.59
   1   0  -4 1202.88   48.50
   1   0  -3   -0.20    1.60
  -1   0   3    1.10    2.40
   1   0  -3    2.30    1.80
   1   0  -3   -0.40    1.60
  -1   0   2  626.34   26.60
  -1   0   2  623.94   26.40
   1   0  -2  599.64   26.50
   1   0  -2  600.34   25.90
  -1   0  -1   -0.80    1.20
   1   0   1    0.00    1.20
  -1   0  -1   -1.90    0.90
  -1   0  -1    0.10    1.10
   1   0   2  890.81   39.40
   1   0   2  850.71   30.10
  -1   0  -2  878.01   39.50
  -1   0  -2  826.52   29.50
  -1   0  -3   -1.80    2.40
   1   0   3    1.20    2.60
   1   0   3    0.90    2.30
  -1   0  -3    2.00    1.80
  -1   0  -4 9409.26  192.08
   1   0   4 8926.01  217.98
   1   0   4 9090.09  193.98
  -1   0  -4 9159.28  221.98
   1   0   5    1.20    5.60
   1   0   5    2.60    4.20
  -1   0  -5   -6.60    3.60
  -1   0  -5    3.70    5.20
   1   0   6   30.00    8.70
   1   0   6    9.90    6.70
  -1   0  -6    7.40    6.30
  -1   0  -6    9.90    6.10
  -1   0  -7    4.70    6.40
  -1   0  -7   -3.60    6.90
   1   0   7   -6.50    3.60
   1   0   8  358.46   34.30
  -1   0  -8  318.37   42.90
  -1   0  -8  359.46   32.80
   1   0   9    0.80    7.50
  -1   0  -9   20.70    9.70
  -1   0 -10 2622.14  145.09
  -1   0 -10 2457.65  101.49
   1   0  10 2591.74  109.99
   1   0  11   -1.20    9.30
  -1   0 -11  -16.80    8.60
  -1   0 -12  614.24   68.59
  -1   0 -12  565.04   68.19
  -1   0 -13   27.70   19.00
  -1   0 -13  -10.40   10.20
  -1   0 -14  494.35   65.69
  -1   0 -14  464.25   86.59
  -1   0 -15  -19.20   19.30
  -1   0 -15   20.10   19.40
  -1   0 -16   -3.70   32.60
  -1   0 -16   21.90   27.20
   1   1 -17   46.50   37.80
   1   1 -17   -9.00   31.40
   1  -1 -17    3.10   26.70
   1  -1 -17   11.50   25.20
   1   1 -16   18.70   19.70
   1   1 -16   31.90   24.50
   1   1 -15 1257.17  112.99
   1   1 -15 1102.69  111.89
   1  -1 -15 1201.28  109.49
   1  -1 -15 1261.57  113.49
   1   1 -14  144.09   45.50
   1   1 -14  156.88   45.90
   1  -1 -14  100.39   39.20
   1  -1 -14  100.59   32.70
   1   1 -13  340.17   63.59
   1   1 -13  369.76   69.39
   1  -1 -13  298.57   33.80
   1  -1 -13  237.68   50.09
   1  -1 -13  304.87   57.19
   1   1 -12   85.09   27.10
   1   1 -12   52.19   21.90
   1  -1 -12    8.20   19.00
   1  -1 -12   35.80   14.80
   1  -1 -12   59.69   25.40
  -1  -1  12   31.00   17.30
   1   1 -11  462.85   59.09
   1   1 -11  460.95   58.19
  -1  -1  11  541.75   57.09
   1  -1 -11  576.14   41.40
   1  -1 -11  484.45   59.99
   1   1 -10  160.18   38.40
   1   1 -10  162.88   37.90
   1  -1 -10  190.58   22.70
  -1  -1  10  169.78   37.00
   1  -1 -10  154.08   39.00
   1   1  -9  409.16   47.90
   1   1  -9  373.06   47.40
  -1  -1   9  441.86   47.10
   1  -1  -9  423.36   50.29
   1  -1  -9  384.06   30.70
   1   1  -8   18.90   11.30
   1   1  -8    6.80    7.60
   1   1  -8    2.00    8.40
   1  -1  -8    7.40    8.90
   1  -1  -8   -1.50    5.80
   1   1  -7   14.60    9.40
   1   1  -7    9.30    7.50
   1   1  -7   19.70   10.30
   1  -1  -7   22.30   11.40
   1  -1  -7    3.80    6.10
  -1  -1   7   12.20   10.10
  -1  -1   7   19.00    9.60
   1   1  -6  137.59   25.80
   1   1  -6  184.08   30.90
   1   1  -6  146.69   28.50
   1  -1  -6  163.28   30.70
   1  -1  -6  156.98   15.90
  -1  -1   6   93.19   21.40
  -1  -1   6  179.58   24.50
   1   1  -5  197.38   23.90
   1   1  -5  196.48   23.40
   1   1  -5  177.38   23.30
  -1  -1   5  154.98   21.90
   1  -1  -5  107.09   20.10
  -1  -1   5  186.88   23.70
   1   1  -4  152.98   19.50
   1   1  -4  179.88   21.50
   1   1  -4  180.08   20.00
  -1  -1   4  164.38   19.80
  -1  -1   4  161.48   20.70
  -1  -1   4  192.98   22.70
   1  -1  -4  176.48   14.00
   1   1  -3 4274.97  114.49
   1   1  -3 4060.29  113.89
  -1  -1   3 4129.59  118.09
   1  -1  -3 4015.30   92.89
  -1  -1   3 4107.19  114.39
  -1  -1   3 4287.37  113.59
   1   1  -2 1611.24   60.09
   1   1  -2 1677.73   60.59
   1   1  -2 1650.13   58.59
  -1   1   2 1749.32   49.60
  -1  -1   2 1677.53   57.79
  -1  -1   2 1645.34   59.09
   1  -1  -2 1710.73   49.30
  -1  -1   2 1732.93   62.99
  -1   1   1 1720.33   50.39
   1   1  -1 1695.23   51.89
   1   1  -1 1724.63   55.89
   1   1  -1 1704.13   55.49
  -1   1   1 1541.05   60.09
  -1  -1   1 1615.54   55.39
   1  -1  -1 1688.93   51.39
  -1  -1   1 1599.74   51.59
   1  -1  -1 1651.43   37.60
  -1  -1   1 1767.62   56.39
   1   1   0  105.39   12.60
  -1   1   0  122.69   11.10
   1   1   0  121.09   11.40
   1   1   0  120.39   11.30
  -1   1   0  118.79   12.60
  -1  -1   0  119.09   13.00
  -1  -1   0  109.79   11.80
   1  -1   0   98.49   11.80
   1  -1   0  115.79    7.20
  -1  -1   0  135.89   12.00
  -1   1  -1 1175.18   44.10
   1   1   1 1205.38   43.70
   1   1   1 1162.28   33.10
  -1   1  -1 1200.98   47.90
  -1   1  -1 1192.98   37.80
   1  -1   1 1223.08   44.60
  -1  -1  -1 1160.98   33.70
  -1  -1  -1 1075.99   41.30
  -1  -1  -1 1244.18   47.80
   1  -1   1 1206.28   48.40
  -1   1  -2  321.27   24.00
   1   1   2  327.57   24.00
  -1   1  -2  351.06   24.00
  -1   1  -2  328.57   25.80
   1  -1   2  309.57   25.00
   1  -1   2  331.67   24.90
  -1  -1  -2  317.87   23.40
  -1   1  -3 1774.42   65.79
  -1   1  -3 1620.04   66.89
  -1   1  -3 1626.84   66.29
  -1  -1  -3 1677.53   65.49
   1  -1   3 1587.04   67.19
   1  -1   3 1710.03   68.79
  -1   1  -4  479.15   36.30
  -1   1  -4  444.36   36.50
  -1   1  -4  575.24   39.20
   1  -1   4  489.05   38.50
   1  -1   4  516.85   38.30
  -1  -1  -4  490.25   36.50
  -1   1  -5   44.00   13.50
  -1   1  -5   67.39   15.30
  -1   1  -5  112.89   21.20
   1  -1   5  111.09   21.90
  -1  -1  -5   65.39   16.40
  -1  -1  -5   73.89   19.80
  -1   1  -6   -3.80    5.70
  -1   1  -6    6.10    5.70
  -1   1  -6    0.10    5.50
  -1  -1  -6    6.20    5.40
  -1  -1  -6   -3.40    5.60
   1  -1   6    5.70    8.80
   1  -1   6    7.60    5.80
  -1   1  -7 2128.49  109.79
  -1   1  -7 2175.78   95.49
  -1  -1  -7 2337.97  115.69
  -1  -1  -7 2192.58   64.29
   1  -1   7 2204.58  101.19
  -1   1  -8  269.97   36.60
  -1   1  -8  155.58   36.80
   1  -1   8  195.78   35.80
  -1  -1  -8  192.88   40.70
  -1  -1  -8  207.48   18.60
  -1   1  -9  198.28   40.70
  -1   1  -9  171.28   36.40
  -1  -1  -9  286.27   23.80
   1  -1   9  245.28   43.00
  -1  -1  -9  194.58   39.30
  -1   1 -10   89.09   28.90
  -1   1 -10   85.09   26.20
  -1  -1 -10   98.99   16.20
   1  -1  10  144.69   34.10
  -1  -1 -10   94.49   28.80
  -1   1 -11 1022.40   87.69
  -1   1 -11 1070.49   95.49
  -1  -1 -11 1177.48   55.79
   1  -1  11 1049.79   79.89
  -1  -1 -11 1042.50   92.49
  -1   1 -12   14.20   17.30
  -1   1 -12   28.00   19.90
  -1  -1 -12   19.80   13.80
   1  -1  12   38.90   21.30
  -1  -1 -12   46.80   28.00
  -1   1 -13 1059.79   98.29
  -1   1 -13  964.90   97.19
  -1  -1 -13  943.11   97.29
   1  -1  13 1051.49   83.89
  -1   1 -14   38.40   25.50
  -1   1 -14   52.99   23.90
   1  -1  14   33.50   23.80
  -1  -1 -14   27.70   27.70
  -1  -1 -14   39.80   26.90
  -1   1 -15  -34.60   18.40
  -1  -1 -15    4.00   21.40
  -1  -1 -15   18.20   28.00
  -1   1 -16   -5.70   27.30
  -1   1 -16   30.00   30.30
  -1  -1 -16    4.70   23.40
  -1  -1 -16   53.89   32.40
   1   2 -16   13.30   26.50
   1   2 -16   83.79   37.20
   1  -2 -16    1.70   25.20
   1  -2 -16   -5.90   20.00
   1   2 -15  164.88   48.30
   1   2 -15  161.08   51.99
   1  -2 -15  114.19   34.80
   1  -2 -15  187.58   53.19
   1   2 -14   76.99   31.80
   1   2 -14  122.79   39.40
   1  -2 -14   40.60   24.40
  -1  -2  14   54.69   33.40
   1  -2 -14  137.99   38.90
   1   2 -13    4.20   11.80
   1   2 -13   -5.20   18.10
   1  -2 -13   -4.10   12.20
  -1  -2  13   -1.00   13.80
   1   2 -12   29.30   20.50
   1   2 -12   52.59   22.20
  -1  -2  12    9.00   23.70
   1  -2 -12   54.19   23.70
   1   2 -11   38.00   20.20
   1   2 -11   25.50   15.90
   1  -2 -11    1.80   12.00
  -1  -2  11   36.70   18.20
   1   2 -10   11.20   13.30
   1   2 -10   -9.30   11.00
   1  -2 -10   23.50   19.70
  -1  -2  10   15.20   14.50
   1   2  -9 1224.88   86.69
   1   2  -9 1144.19   84.99
  -1  -2   9 1103.69   85.89
   1  -2  -9 1139.99   86.29
   1   2  -8   25.00   13.60
   1   2  -8   16.90   14.00
  -1  -2   8   30.30   15.20
   1  -2  -8   18.90   12.20
   1   2  -7  881.51   66.09
  -1  -2   7  988.20   73.79
   1  -2  -7  929.71   59.79
   1  -2  -7  846.42   35.80
   1   2  -6   73.79   19.00
  -1  -2   6  139.79   27.90
  -1  -2   6   98.69   33.70
   1  -2  -6  104.89   11.20
   1  -2  -6   66.89   22.60
   1   2  -5   51.99   16.60
   1   2  -5   45.50   17.40
   1   2  -5   42.00   14.20
   1  -2  -5   44.80   13.30
  -1  -2   5   64.09   19.70
  -1  -2   5   45.50   16.40
  -1  -2   5   25.50   12.30
   1  -2  -5   44.60   13.60
  -1   2   4  428.76   26.30
   1   2  -4  427.26   38.20
   1   2  -4  413.56   34.90
   1   2  -4  363.26   35.80
   1  -2  -4  414.56   29.90
  -1  -2   4  397.96   36.60
   1  -2  -4  427.56   25.70
  -1  -2   4  425.76   41.20
  -1  -2   4  402.96   34.00
   1   2  -3  167.78   20.30
   1   2  -3  159.18   22.20
   1   2  -3  165.08   22.10
  -1   2   3  151.68   16.50
   1  -2  -3  207.18   22.90
   1  -2  -3  178.38   17.10
  -1  -2   3  208.38   25.30
   1  -2  -3  164.98   17.10
  -1  -2   3  196.68   25.90
  -1  -2   3  152.68   20.10
  -1   2   2  234.78   21.50
   1   2  -2  210.58   23.90
   1   2  -2  239.88   26.50
   1   2  -2  198.38   21.00
  -1   2   2  226.88   17.60
  -1  -2   2  206.48   21.20
   1  -2  -2  251.27   22.10
   1  -2  -2  244.78   23.80
  -1  -2   2  253.27   27.60
   1  -2  -2  253.57   17.40
  -1  -2   2  224.38   25.20
  -1   2   1    6.00    4.60
   1   2  -1   15.20    7.50
  -1   2   1    5.20    4.00
   1   2  -1    9.80    5.10
  -1   2   1    7.70    2.90
   1   2  -1   23.30    8.50
  -1  -2   1   14.30    6.90
   1  -2  -1    9.70    5.40
  -1  -2   1    1.10    3.90
   1  -2  -1    6.10    5.50
  -1  -2   1    0.80    5.10
   1  -2  -1    6.80    3.50
   1   2   0   62.59   12.10
  -1   2   0   60.79   15.30
  -1   2   0   59.69   13.20
   1   2   0   80.49   16.50
  -1   2   0   94.99    9.30
   1   2   0  100.29   20.00
   1  -2   0   72.19   11.00
  -1  -2   0   82.09   17.30
   1  -2   0   78.49   14.80
   1  -2   0   74.29   16.50
  -1  -2   0   62.79   13.10
  -1  -2   0   69.69   15.20
   1   2   1   20.00    7.40
   1   2   1   28.10    8.60
  -1   2  -1    6.70    7.50
   1   2   1   20.20    8.80
  -1   2  -1   23.30    9.30
  -1   2  -1    9.30    5.00
   1  -2   1   33.90    8.60
   1  -2   1   28.60    9.00
   1  -2   1   35.80   12.50
  -1  -2  -1   16.90    8.00
  -1  -2  -1   40.50   10.30
  -1  -2  -1   28.50    8.40
  -1   2  -2   36.10    9.60
   1   2   2   35.60   10.00
  -1   2  -2   48.70   16.00
  -1   2  -2   35.60   10.40
   1   2   2   37.20    7.60
  -1  -2  -2   28.10    7.40
  -1  -2  -2   39.30   13.10
   1  -2   2    9.20    6.90
  -1  -2  -2   51.89   12.20
   1  -2   2   16.50    7.80
   1  -2   2   27.50   12.10
  -1   2  -3 2325.37   92.29
   1   2   3 2518.05   89.89
  -1   2  -3 2438.36   84.19
  -1   2  -3 2394.76   98.29
   1  -2   3 2479.35   96.19
   1  -2   3 2298.77   99.79
  -1  -2  -3 2326.17   84.89
  -1  -2  -3 2366.06   61.89
  -1  -2  -3 2248.28   92.69
  -1   2  -4 7736.33  211.68
  -1   2  -4 7886.11  217.18
  -1   2  -4 8548.54  204.08
   1  -2   4 8323.07  217.68
  -1  -2  -4 7788.72  200.28
   1  -2   4 7710.73  220.68
  -1   2  -5 1097.39   67.89
  -1   2  -5 1155.28   65.29
  -1  -2  -5 1081.99   61.89
   1  -2   5 1046.00   70.39
   1  -2   5 1041.10   68.29
  -1   2  -6   26.90   11.40
  -1   2  -6    7.20   10.70
   1  -2   6    5.00    8.30
  -1   2  -7   85.29   23.70
  -1   2  -7   55.59   19.20
   1  -2   7   20.80   13.30
  -1   2  -8    5.30    9.70
  -1   2  -8   50.29   21.00
   1  -2   8   24.80   18.90
  -1  -2  -8    6.60   11.70
  -1   2  -9   91.69   28.40
  -1   2  -9  173.68   39.30
   1  -2   9  179.88   40.10
  -1  -2  -9  118.39   35.10
  -1   2 -10  752.12   73.69
  -1   2 -10  922.21   83.39
   1  -2  10  928.11   80.49
  -1  -2 -10  784.22   79.99
  -1   2 -11   19.80   17.90
  -1   2 -11   -2.60   13.60
  -1  -2 -11    7.70   10.30
   1  -2  11  -16.00   11.80
  -1   2 -12  232.88   50.19
  -1   2 -12  323.67   63.39
  -1  -2 -12  350.56   70.29
  -1   2 -13   15.00   21.30
  -1   2 -13   31.40   21.30
  -1  -2 -13   38.00   23.60
   1  -2  13    1.70   21.60
  -1   2 -14  330.57   61.99
  -1   2 -14  241.18   62.69
  -1  -2 -14  323.37   65.19
   1  -2  14  194.08   45.20
  -1   2 -15  244.48   56.49
  -1   2 -15  252.97   60.09
  -1  -2 -15  497.85   89.59
   1  -2  15  370.76   67.39
   1  -2  16  -17.00   28.20
   1  -3 -16  116.79   39.60
  -1  -3  16  264.37   62.29
   1   3 -15  109.59   51.49
   1   3 -15   75.89   36.90
   1  -3 -15  119.59   36.80
   1  -3 -15   53.69   31.50
   1   3 -14  724.33   88.39
  -1  -3  14  768.12   90.19
   1  -3 -14  642.34   76.89
   1   3 -13    5.30   20.70
   1   3 -13  -29.40   14.40
  -1  -3  13    1.70   16.50
   1  -3 -13   -7.50   17.80
   1   3 -12   93.89   33.40
   1   3 -12   25.20   23.80
   1  -3 -12    7.00   18.30
  -1  -3  12   12.80   23.00
   1   3 -11   57.29   43.00
   1   3 -11  141.69   40.10
   1  -3 -11  143.09   36.70
  -1  -3  11  110.89   37.70
   1   3 -10  205.48   45.80
   1   3 -10  283.17   54.29
   1  -3 -10  151.68   39.60
   1   3  -9  124.19   30.70
   1   3  -9   67.19   23.70
  -1  -3   9  118.19   37.10
   1  -3  -9   80.89   27.80
   1   3  -8  147.59   33.40
   1   3  -8  160.08   34.70
  -1  -3   8  110.09   31.40
   1   3  -7   98.99   27.60
   1   3  -7   69.79   24.20
  -1  -3   7  117.99   34.30
   1   3  -6   -2.80   11.50
   1  -3  -6   19.80    6.50
  -1  -3   6   50.29   21.30
   1  -3  -6   20.30    9.50
  -1   3   5  685.03   40.10
   1   3  -5  712.53   53.09
   1   3  -5  747.63   59.89
   1  -3  -5  643.34   44.10
  -1  -3   5  759.42   65.79
   1  -3  -5  657.63   39.30
  -1  -3   5  691.13   52.69
  -1   3   4  831.92   45.50
   1   3  -4  749.62   58.49
   1   3  -4  697.33   49.99
  -1  -3   4  686.33   50.29
   1  -3  -4  799.12   45.50
   1  -3  -4  736.63   42.90
  -1  -3   4  719.13   61.89
  -1   3   3  262.17   26.20
   1   3  -3  224.28   26.80
   1   3  -3  237.88   30.80
  -1  -3   3  218.88   27.20
   1  -3  -3  255.27   22.40
  -1  -3   3  275.77   71.59
   1  -3  -3  207.48   24.10
   1  -3  -3  178.08   30.10
   1   3  -2 2533.45   90.79
  -1   3   2 2405.46   92.79
  -1   3   2 2432.66   76.69
   1   3  -2 2463.35  105.39
   1  -3  -2 2339.37   74.89
  -1  -3   2 2356.16  107.69
  -1  -3   2 2389.56   91.29
   1  -3  -2 2276.67   98.09
   1  -3  -2 2375.56   94.09
  -1   3   1   49.00   16.10
   1   3  -1   69.09   18.20
   1   3  -1   52.59   14.60
  -1   3   1   69.89   12.80
  -1   3   1   66.09   17.70
   1   3  -1   89.99   21.60
   1  -3  -1   56.59   11.20
   1  -3  -1   67.39   18.50
  -1  -3   1   72.69   15.80
   1  -3  -1   59.99   16.50
  -1  -3   1   31.00   14.00
  -1   3   0  206.48   26.90
   1   3   0  186.78   36.50
  -1   3   0  190.78   31.00
   1   3   0  222.98   28.50
  -1   3   0  193.38   17.40
   1   3   0  200.68   21.90
   1  -3   0  194.78   26.60
   1  -3   0  192.18   18.70
  -1  -3   0  178.98   21.40
   1  -3   0  178.08   31.10
  -1  -3   0  204.48   27.10
  -1   3  -1  512.45   31.40
  -1   3  -1  525.35   45.90
   1   3   1  484.45   38.00
   1   3   1  593.54   39.50
   1   3   1  584.54   51.69
  -1   3  -1  587.84   46.20
  -1  -3  -1  508.35   37.00
   1  -3   1  588.34   34.40
   1  -3   1  568.94   46.50
   1  -3   1  634.34   51.79
  -1  -3  -1  563.34   42.30
  -1   3  -2  459.45   41.90
   1   3   2  458.95   33.80
   1   3   2  513.45   38.10
  -1   3  -2  499.65   32.70
  -1  -3  -2  507.65   36.70
   1  -3   2  515.55   34.80
  -1  -3  -2  452.15   35.60
   1   3   3  117.89   22.90
  -1   3  -3   81.19   22.60
  -1   3  -3  102.39   19.40
   1   3   3  118.19   16.50
  -1  -3  -3  126.99   36.30
  -1  -3  -3  129.19   20.70
   1  -3   3  119.29   27.60
   1  -3   3  138.89   22.90
  -1   3  -4  329.77   32.40
   1   3   4  325.27   22.30
  -1   3  -4  286.77   37.40
   1  -3   4  272.77   38.70
  -1  -3  -4  278.37   30.20
  -1  -3  -4  285.97   22.60
  -1   3  -5  119.59   24.00
  -1   3  -5  121.59   29.70
   1  -3   5   54.69   21.80
  -1   3  -6    1.40    7.60
  -1   3  -6   16.20    9.90
   1  -3   6    0.50    8.60
  -1   3  -7 1292.47   84.49
  -1   3  -7 1419.56   94.89
   1  -3   7 1429.56  100.49
  -1   3  -8  445.96   51.69
  -1   3  -8  470.45   55.29
   1  -3   8  495.15   59.99
  -1   3  -9  148.09   38.80
  -1   3  -9  116.79   31.20
   1  -3   9  184.98   44.60
  -1  -3  -9  138.69   36.50
  -1   3 -10 1376.06  106.49
  -1   3 -10 1273.07  103.99
  -1  -3 -10 1360.96  108.79
   1  -3  10 1453.45  112.59
  -1   3 -11  106.29   40.10
  -1   3 -11   31.60   26.80
   1  -3  11   25.60   17.80
  -1  -3 -11   79.59   28.40
  -1   3 -12   31.20   32.20
  -1   3 -12   36.70   24.30
   1  -3  12   24.10   17.20
  -1  -3 -12   17.30   20.90
  -1   3 -13  350.76   67.79
  -1   3 -13  312.17   64.09
  -1  -3 -13  147.19   54.49
   1  -3  13  249.68   62.49
  -1   3 -14   61.19   36.30
  -1   3 -14   67.09   32.60
   1  -3  14  110.59   46.40
  -1  -3 -14  190.98   46.70
  -1   3 -15  193.18   55.69
   1  -3  15  133.39   43.50
   1   4 -14   34.30   32.10
  -1  -4  14   -1.20   24.70
   1  -4 -14   99.09   33.30
   1   4 -13  -19.80   18.40
   1   4 -13   13.40   26.00
  -1  -4  13   36.30   27.50
   1   4 -12   18.00   23.70
   1   4 -12   43.30   26.50
  -1  -4  12   31.70   25.00
   1  -4 -12  -31.50   17.60
   1   4 -11   56.49   26.40
   1   4 -11    8.20   16.90
  -1  -4  11   20.50   23.50
   1  -4 -11   24.70   15.50
   1   4 -10   21.00   15.50
   1  -4 -10    7.70   12.60
  -1  -4  10   14.10   22.50
   1   4  -9  460.85   55.49
   1   4  -9  339.07   60.39
  -1  -4   9  513.35   67.99
   1   4  -8  577.14   58.79
   1   4  -8  585.94   63.59
  -1  -4   8  503.95   65.99
   1   4  -7  608.94   58.49
   1   4  -7  683.03   68.69
   1  -4  -7  618.14   39.20
   1   4  -6   33.40   16.60
  -1   4   6   17.90   10.60
   1   4  -6    7.80    9.30
   1  -4  -6   11.70    8.50
   1  -4  -6    4.90   13.10
  -1  -4   6   12.30   13.10
   1   4  -5  135.49   28.50
   1   4  -5   59.19   22.10
  -1  -4   5  140.59   38.30
   1  -4  -5  149.19   24.90
   1  -4  -5  128.69   24.90
  -1   4   4   38.30   16.20
   1   4  -4   23.90   11.10
   1   4  -4   -0.60   10.70
  -1  -4   4   10.30   13.30
   1  -4  -4   16.40   10.90
   1  -4  -4   13.60   11.40
  -1   4   3  268.77   32.80
   1   4  -3  306.67   32.80
   1   4  -3  286.47   39.40
  -1  -4   3  267.17   33.10
   1  -4  -3  326.57   38.40
  -1  -4   3  321.17   45.50
   1  -4  -3  268.97   27.20
   1   4  -2  743.53   50.19
   1   4  -2  728.63   63.39
  -1   4   2  734.03   42.30
  -1  -4   2  689.93   64.79
   1  -4  -2  699.03   42.00
  -1  -4   2  756.82   52.19
   1   4  -1    3.50    7.40
  -1   4   1   -3.10    9.30
  -1   4   1    6.60    5.50
   1   4  -1   16.10   11.10
  -1  -4   1    0.10    7.40
   1  -4  -1    1.60    9.60
  -1  -4   1    2.80   10.40
  -1   4   0   41.60   18.50
  -1   4   0   59.59   13.30
   1   4   0   35.00   15.20
   1   4   0   46.90   14.10
   1  -4   0   19.70   11.00
  -1  -4   0   77.09   23.20
  -1  -4   0   39.20   15.20
   1  -4   0   47.30   18.10
   1   4   1  106.59   20.80
  -1   4  -1  111.49   18.50
  -1   4  -1   92.29   24.60
   1   4   1  114.69   28.90
  -1  -4  -1   65.39   17.30
  -1  -4  -1  107.09   25.60
  -1   4  -2  254.87   44.40
   1   4   2  276.67   30.50
   1   4   2  297.77   31.90
  -1   4  -2  244.08   25.50
  -1  -4  -2  283.57   31.20
  -1  -4  -2  257.67   31.90
   1  -4   2  203.08   25.30
   1  -4   2  308.27   52.39
  -1   4  -3 1079.39   78.59
  -1   4  -3 1273.47   62.29
   1   4   3 1094.59   66.49
  -1  -4  -3 1079.79   64.29
   1  -4   3 1167.98   87.59
  -1  -4  -3 1068.39   62.39
   1  -4   3  895.61   86.69
   1   4   4  112.49   19.60
  -1   4  -4  158.48   27.40
  -1   4  -4  120.59   31.20
   1  -4   4  111.89   30.20
  -1  -4  -4  125.19   22.70
  -1   4  -5  492.55   54.59
   1   4   5  637.14   36.00
  -1   4  -5  484.85   45.50
  -1  -4  -5  517.55   35.00
   1  -4   5  556.04   63.39
  -1   4  -6  214.38   43.30
  -1   4  -6  179.48   33.80
   1  -4   6  219.18   48.70
  -1   4  -7   34.10   15.60
  -1   4  -7   94.39   38.60
   1  -4   7    3.00   20.30
  -1   4  -8   68.99   27.30
  -1   4  -8   60.49   23.50
   1  -4   8   30.90   24.80
  -1   4  -9  354.06   48.80
  -1   4  -9  191.68   42.60
   1  -4   9  166.48   46.30
  -1   4 -10  525.45   91.19
  -1   4 -10  574.54   68.09
   1  -4  10  368.76   69.59
  -1  -4 -10  501.65   70.29
  -1   4 -11    1.20   15.70
  -1   4 -11    5.50   19.30
   1  -4  11  -20.90   16.40
  -1  -4 -11  -10.20   13.90
  -1   4 -12  151.28   47.80
  -1   4 -12  156.38   45.60
  -1  -4 -12   95.99   53.09
   1  -4  12  233.58   58.69
  -1   4 -13    8.40   21.90
  -1   4 -13    2.20   27.70
  -1  -4 -13   27.20   25.70
   1  -4  13  -10.50   31.10
  -1   4 -14   -8.80   34.90
   1   5 -12   29.00   27.50
   1  -5 -12   22.90   26.50
   1   5 -11   82.19   28.80
   1   5 -11   22.80   23.80
   1  -5 -11   29.00   30.90
  -1  -5  11    7.10   29.10
   1   5 -10   37.60   24.40
   1   5 -10   49.10   28.10
  -1  -5  10   64.49   28.60
   1   5  -9   92.19   26.90
   1   5  -9   41.70   25.30
  -1  -5   9   97.89   48.20
   1   5  -8   52.19   22.90
   1   5  -8   18.40   20.00
  -1  -5   8   28.30   22.80
   1   5  -7   25.00   17.00
   1  -5  -7   15.10   13.50
  -1  -5   7   17.70   18.70
   1   5  -6    7.20   16.40
   1   5  -6  -17.40   10.70
   1  -5  -6    2.60   14.00
  -1  -5   6  -23.70   16.20
   1   5  -5  156.18   41.00
   1   5  -5  158.98   33.10
  -1  -5   5  238.98   54.09
   1  -5  -5  164.68   34.00
   1  -5  -5  196.18   34.60
   1   5  -4   90.39   27.50
   1   5  -4  112.49   27.50
   1  -5  -4   90.19   22.40
  -1  -5   4  139.99   38.50
   1   5  -3  174.78   31.60
   1   5  -3  213.18   42.10
   1  -5  -3  173.98   37.20
  -1  -5   3  179.78   44.10
   1  -5  -3  252.57   39.10
   1   5  -2  372.16   51.89
   1   5  -2  397.66   41.20
   1  -5  -2  336.07   34.10
  -1  -5   2  351.66   60.09
   1  -5  -2  375.16   47.00
   1   5  -1  359.06   50.59
  -1   5   1  351.46   31.00
   1   5  -1  390.96   65.09
   1  -5  -1  326.77   33.40
  -1  -5   1  372.16   48.40
   1  -5  -1  325.87   46.00
   1   5   0  157.48   40.00
  -1   5   0  109.79   30.90
  -1   5   0  122.09   21.40
   1   5   0  145.89   29.90
   1  -5   0  121.09   29.60
  -1  -5   0  147.89   34.40
   1  -5   0  109.29   21.90
  -1   5  -1  656.63   66.39
  -1   5  -1  704.43   44.40
   1   5   1  752.42   86.69
   1  -5   1  779.82   73.89
   1  -5   1  796.12   49.20
  -1  -5  -1  669.43   63.39
   1   5   2  130.99   26.80
  -1   5  -2   77.99   28.10
  -1   5  -2   83.39   18.90
   1  -5   2   85.09   28.90
   1  -5   2   69.29   23.00
  -1  -5  -2  112.09   29.20
  -1   5  -3   19.60   15.60
  -1   5  -3   31.10   12.90
  -1  -5  -3  -18.70   12.80
   1  -5   3    7.70   13.20
  -1   5  -4   24.00   20.70
   1   5   4   20.60   18.90
  -1   5  -4   23.90   13.40
  -1  -5  -4   27.80   15.40
   1  -5   4   32.90   22.40
  -1   5  -5    8.00   16.50
  -1   5  -5    4.40   13.80
   1  -5   5   11.50   21.10
  -1  -5  -5    1.30   11.70
  -1   5  -6   12.10   14.90
  -1   5  -6  -19.70   13.50
   1  -5   6   26.00   21.70
  -1   5  -7  253.47   52.49
  -1   5  -7  311.97   47.10
   1  -5   7  204.68   47.80
  -1   5  -8  122.59   35.70
  -1   5  -8   97.49   31.90
   1  -5   8   69.79   29.20
  -1   5  -9  890.11   92.09
  -1   5  -9  613.54  117.19
   1  -5   9  814.02  101.29
  -1   5 -10  154.28   40.10
  -1   5 -10  202.68   51.09
   1  -5  10   87.49   44.50
  -1   5 -11   11.50   26.30
  -1   5 -11  101.19   37.30
  -1  -5 -11    0.40   21.70
   1   6  -9   87.99   39.20
   1   6  -8  882.01   84.89
   1   6  -8  730.13  103.89
   1   6  -7   -2.60   23.70
   1   6  -7   66.79   32.00
  -1  -6   7   36.80   33.80
   1   6  -6   18.10   23.90
   1   6  -6   43.80   28.60
  -1  -6   6    8.90   25.90
   1   6  -5   -4.90   22.20
   1   6  -5   11.90   32.80
   1  -6  -5    2.60   21.20
  -1  -6   5  -10.90   22.30
   1   6  -4   79.49   25.90
   1   6  -4   64.49   32.00
   1  -6  -4    4.90   23.80
  -1  -6   4   81.49   35.80
   1   6  -3   19.00   18.40
   1   6  -3  -19.90   19.20
   1  -6  -3   22.40   24.80
  -1  -6   3   13.30   21.80
   1   6  -2  132.89   29.80
   1   6  -2  149.79   46.10
   1  -6  -2  220.38   55.59
  -1  -6   2  222.78   50.59
   1   6  -1   15.30   23.80
   1   6  -1  -28.20   16.30
  -1  -6   1   -1.20   16.70
   1  -6  -1   21.20   26.40
   1   6   0   40.20   22.40
   1  -6   0   84.49   31.70
  -1  -6   0   16.20   19.90
  -1   6  -1   11.50   17.70
   1   6   1  -42.20   18.20
  -1  -6  -1  -38.70   15.80
   1  -6   1   38.70   26.30
  -1   6  -2  275.47   56.59
   1  -6   2  422.06   74.19
  -1  -6  -2  436.66   55.49
  -1   6  -3  119.69   40.10
  -1  -6  -3   91.79   32.90
   1  -6   3   95.99   39.60
  -1   6  -4  -11.50   18.80
  -1  -6  -4   39.00   21.40
   1  -6   4  -21.10   17.30
  -1   6  -5   -3.20   23.10
   1  -6   5   27.50   27.40
  -1   6  -6  137.89   40.70
   1  -6   6  154.18   47.20
  -1   6  -7   35.40   23.00
   1  -6   7    8.50   41.50
   2   0 -17  -49.00   19.40
   2   0 -17    3.80   26.10
   2   0 -16  353.36   70.59
   2   0 -16  436.16   82.69
   2   0 -15  -12.30   13.30
   2   0 -15   -0.40   20.40
   2   0 -14  529.45   71.39
   2   0 -14  528.05   67.69
   2   0 -13   13.80   13.90
   2   0 -12 2429.76  140.69
   2   0 -12 2647.94  150.38
   2   0 -11   -6.60   10.60
   2   0 -11    9.80    9.40
   2   0 -10  168.28   39.70
   2   0 -10  138.09   27.80
   2   0 -10  154.78   36.80
   2   0  -9    6.80    9.30
   2   0  -9   -1.80    8.70
   2   0  -9   -3.50    8.00
   2   0  -8 1253.67   77.89
   2   0  -8 1291.27   79.59
  -2   0   8 1307.17   77.89
   2   0  -8 1297.07   68.29
   2   0  -7    4.50    5.90
  -2   0   7    6.10    7.20
   2   0  -7   -2.50    3.90
   2   0  -7   -4.10    5.00
  -2   0   6   34.10   12.00
   2   0  -6   28.70   10.80
   2   0  -6   28.10   10.70
   2   0  -6   29.10   11.30
   2   0  -5    6.20    3.30
  -2   0   5   -0.80    2.50
   2   0  -5    0.30    2.60
   2   0  -5    7.80    4.30
   2   0  -4 2846.82   86.49
   2   0  -4 2636.94   85.99
  -2   0   4 2722.23   84.89
   2   0  -4 2783.02   86.39
  -2   0   4 2811.72   87.29
   2   0  -3   -2.70    1.90
  -2   0   3   -0.10    2.60
  -2   0   3    4.70    2.80
   2   0  -3   -1.90    1.60
   2   0  -2  615.64   27.90
  -2   0   2  673.93   24.50
  -2   0   2  597.84   27.60
   2   0  -2  582.04   22.80
   2   0  -1    2.30    0.80
  -2   0   1   -1.30    1.30
  -2   0   1   -0.80    0.70
   2   0  -1    1.70    1.20
   2   0   0  134.89   10.80
   2   0   0  131.89   10.90
  -2   0   0  131.99   11.40
  -2   0   0  111.69    9.80
  -2   0  -1    0.10    1.80
   2   0   1   -1.00    1.10
  -2   0  -1    2.10    2.10
   2   0   1   -0.30    1.40
  -2   0  -2  392.06   27.30
   2   0   2  429.96   23.00
  -2   0  -2  386.16   27.90
  -2   0  -2  427.96   27.70
   2   0   3   -3.70    1.60
  -2   0  -3    1.30    3.70
  -2   0  -3   -3.30    3.10
   2   0   3   -6.30    3.10
  -2   0  -4    6.20    6.20
   2   0   4    5.60    4.30
  -2   0  -4    8.20    4.80
   2   0   4   15.30    7.90
   2   0   5   10.90    7.80
  -2   0  -5    5.30    5.20
  -2   0  -5   12.00    5.90
   2   0   5    7.70    3.80
   2   0   6 2355.46   85.59
  -2   0  -6 2364.06  111.09
  -2   0  -6 2363.56   82.69
   2   0   6 2341.47  106.99
   2   0   7   -0.50    5.20
  -2   0  -7    0.40    4.80
  -2   0  -7   -1.80    6.10
  -2   0  -8 2789.42  138.19
  -2   0  -8 2650.83   98.19
   2   0   8 2637.14  102.49
   2   0   9    9.50    9.20
  -2   0  -9   17.80    8.30
  -2   0  -9   -4.70    9.60
  -2   0 -10   29.50   12.20
   2   0  10   14.20   10.40
  -2   0 -10   17.80   13.40
   2   0  11   20.60   13.10
  -2   0 -11    0.00   10.20
  -2   0 -12  725.03   83.09
   2   0  12  720.23   61.09
  -2   0 -13  -11.20   15.30
  -2   0 -13   23.60   14.30
  -2   0 -14  411.16   79.49
  -2   0 -14  339.97   60.59
  -2   0 -15    1.70   18.00
  -2   0 -15   49.90   22.70
  -2   0 -16   17.30   39.10
  -2   0 -16   66.89   44.10
   2   1 -17   15.90   25.30
   2   1 -17   12.50   22.90
   2  -1 -17  -16.30   24.60
   2  -1 -17  -27.20   19.00
   2   1 -16   36.80   36.90
   2   1 -16  120.29   40.00
   2  -1 -16    0.10   23.70
   2  -1 -16   88.79   38.20
   2   1 -15  275.67   61.09
   2   1 -15  298.17   62.79
   2  -1 -15  230.28   54.49
   2  -1 -15  378.96   68.89
   2   1 -14   15.20   15.30
   2   1 -14   23.20   15.60
   2  -1 -14   23.70   14.70
   2  -1 -14   17.00   12.60
   2   1 -13   22.50   16.90
   2   1 -13  -14.00    8.80
   2  -1 -13   28.10   16.80
   2  -1 -13   -1.80   15.60
   2   1 -12   95.59   26.60
   2   1 -12  159.98   44.90
   2  -1 -12  133.79   35.40
   2  -1 -12  124.99   25.40
   2  -1 -12  136.49   37.70
   2   1 -11 3282.97  160.58
   2   1 -11 3331.27  163.98
   2  -1 -11 3196.28  153.48
   2  -1 -11 3457.25  118.69
   2  -1 -11 3356.06  162.88
  -2  -1  11 3289.37  151.68
   2   1 -10  712.73   66.79
   2   1 -10  668.33   65.69
  -2  -1  10  846.12   68.79
   2  -1 -10  710.83   64.79
   2  -1 -10  676.73   65.69
   2  -1 -10  702.33   46.90
   2   1  -9    9.50    8.20
   2   1  -9   -8.00    8.70
  -2  -1   9    2.20    7.00
   2  -1  -9   14.90   10.50
   2  -1  -9   22.90   12.50
   2  -1  -9    7.40    8.30
   2   1  -8   -8.00    7.10
   2   1  -8   11.70    7.80
   2   1  -8    3.40    7.90
   2  -1  -8    4.90    5.60
   2  -1  -8    7.20    9.50
  -2  -1   8   -3.20    6.30
   2   1  -7  578.24   47.40
   2   1  -7  610.94   50.39
   2   1  -7  675.83   53.19
   2  -1  -7  562.24   36.40
  -2  -1   7  603.84   49.50
  -2  -1   7  559.04   48.30
   2  -1  -7  511.25   46.80
   2   1  -6    2.70   10.20
   2   1  -6    9.20    6.50
   2   1  -6   13.80    9.20
  -2  -1   6   20.50   11.40
  -2  -1   6   18.10   10.20
   2  -1  -6   35.30   12.30
  -2  -1   6   33.80   11.70
   2   1  -5 4187.38  128.99
   2   1  -5 4070.59  128.69
   2   1  -5 4119.39  131.49
   2  -1  -5 4031.20  107.49
   2  -1  -5 3956.10  123.99
  -2  -1   5 4163.18  129.39
  -2  -1   5 3932.21  126.49
  -2  -1   5 4040.60  130.99
   2   1  -4  124.29   21.20
   2   1  -4  142.09   18.50
   2   1  -4  136.39   24.00
  -2  -1   4   86.99   18.90
   2  -1  -4  103.09   12.60
  -2  -1   4  103.29   17.80
  -2  -1   4  136.89   18.40
  -2   1   3 1286.47   47.80
   2   1  -3 1209.48   55.99
   2   1  -3 1263.57   53.79
   2   1  -3 1250.27   55.39
  -2  -1   3 1227.88   54.69
  -2  -1   3 1271.77   57.69
   2   1  -2   32.40    9.50
   2   1  -2   19.60    6.90
  -2   1   2   24.90    7.10
   2   1  -2   35.50    9.30
  -2  -1   2   27.20    7.70
   2  -1  -2   17.50    4.10
  -2  -1   2   19.70    6.90
   2  -1  -2   28.80    6.50
  -2  -1   2   32.70    9.70
  -2   1   1   38.60    6.80
  -2   1   1   35.40    8.80
   2   1  -1   38.50    9.30
   2   1  -1   24.10    7.20
   2   1  -1   20.90    6.00
  -2  -1   1   53.89   10.90
  -2  -1   1   26.50    8.10
  -2  -1   1   32.20    8.40
   2  -1  -1   29.80    7.50
   2  -1  -1   29.40    5.90
  -2   1   0  410.56   21.00
   2   1   0  432.36   23.10
  -2   1   0  413.16   27.20
   2   1   0  418.16   25.50
   2  -1   0  390.96   20.80
   2  -1   0  435.26   27.60
  -2  -1   0  405.06   26.00
  -2  -1   0  406.96   25.30
  -2   1  -1 1284.87   58.89
  -2   1  -1 1412.76   56.49
   2   1   1 1465.15   41.20
   2   1   1 1433.56   54.39
   2  -1   1 1305.47   49.00
  -2  -1  -1 1453.15   53.89
  -2  -1  -1 1469.35   56.59
  -2   1  -2 1488.95   58.89
   2   1   2 1516.55   61.49
  -2   1  -2 1449.55   60.69
  -2  -1  -2 1515.25   60.39
   2  -1   2 1536.75   62.99
   2  -1   2 1408.96   58.19
  -2   1  -3 2828.62   96.19
  -2   1  -3 3004.40   98.99
   2  -1   3 2849.42   97.59
  -2  -1  -3 2870.01   96.69
   2  -1   3 2939.91   98.09
  -2   1  -4   22.60    9.50
  -2   1  -4   13.80    9.40
   2  -1   4    8.90    8.20
  -2  -1  -4   11.20    8.30
   2  -1   4   28.80   10.10
  -2   1  -5  335.17   33.20
  -2   1  -5  361.06   37.50
   2  -1   5  329.77   34.70
   2  -1   5  374.46   35.50
  -2  -1  -5  299.57   35.90
  -2  -1  -5  291.17   32.40
  -2   1  -6   94.99   23.40
  -2   1  -6  188.88   23.70
  -2  -1  -6   99.89   24.20
   2  -1   6  106.99   27.20
   2  -1   6  127.79   27.20
  -2   1  -7  651.13   50.19
  -2   1  -7  657.73   59.49
  -2  -1  -7  592.64   58.69
  -2  -1  -7  586.34   28.50
   2  -1   7  583.24   49.60
  -2   1  -8  113.49   27.80
  -2  -1  -8  135.39   15.20
  -2  -1  -8  173.88   38.70
  -2   1  -9   99.29   28.20
  -2   1  -9   94.49   28.20
   2  -1   9  151.68   32.80
  -2  -1  -9  118.79   15.50
  -2  -1  -9  115.79   32.40
  -2   1 -10  -16.30    9.40
  -2   1 -10  -10.00   10.30
   2  -1  10    5.80   10.30
  -2  -1 -10   16.20   14.80
  -2  -1 -10   20.40    8.30
  -2   1 -11  333.87   60.19
  -2   1 -11  404.66   95.59
  -2  -1 -11  286.47   28.60
   2  -1  11  322.37   43.40
  -2   1 -12   54.69   23.50
  -2   1 -12   63.19   27.20
  -2  -1 -12   44.30   15.70
   2  -1  12   94.09   26.70
  -2  -1 -12   21.10   27.90
  -2   1 -13  318.27   65.29
  -2   1 -13  163.78   46.90
   2  -1  13  199.18   42.40
  -2  -1 -13  263.27   60.89
  -2   1 -14  263.07   59.99
  -2   1 -14  170.28   44.80
   2  -1  14  217.28   45.70
  -2  -1 -14  248.58   65.09
  -2   1 -15   36.50   31.80
  -2   1 -15   29.60   31.80
  -2  -1 -15   63.89   27.90
  -2  -1 -15    4.70   20.70
   2  -2 -17  151.58   58.79
   2  -2 -17  192.08   54.19
   2   2 -16   -3.30   28.80
   2   2 -16   31.50   24.90
   2  -2 -16   44.60   22.30
   2  -2 -16   53.89   35.00
   2   2 -15  127.89   41.00
   2   2 -15  183.68   47.90
   2  -2 -15  189.58   48.40
   2  -2 -15  225.48   50.39
   2   2 -14  340.57   63.39
   2   2 -14  473.95   66.79
   2  -2 -14  457.05   80.29
   2  -2 -14  330.97   61.79
   2   2 -13  159.78   42.60
   2   2 -13   99.09   31.90
   2  -2 -13  122.39   34.80
   2  -2 -13   71.29   26.50
   2  -2 -13   92.99   18.50
  -2  -2  13  131.99   39.80
   2   2 -12 1074.09   94.79
   2   2 -12 1030.10  126.69
  -2  -2  12 1133.49   94.59
   2  -2 -12 1077.69   53.49
   2  -2 -12 1199.88   94.69
   2  -2 -12 1105.59   95.49
   2   2 -11  205.08   45.40
   2   2 -11  296.87   53.29
   2  -2 -11  393.66   30.40
   2  -2 -11  268.07   50.89
   2  -2 -11  373.36   28.60
  -2  -2  11  409.56   51.59
   2   2 -10    5.40   12.30
   2   2 -10   20.00   16.60
   2  -2 -10    2.00    5.70
  -2  -2  10   25.30   15.70
   2  -2 -10   21.50    8.30
   2  -2 -10   -1.70    7.90
   2   2  -9    5.40   10.90
   2   2  -9   11.30   10.00
   2  -2  -9    4.80    5.70
   2  -2  -9   14.20    6.90
   2   2  -8  643.34   59.09
   2   2  -8  645.34   58.49
   2  -2  -8  606.04   35.40
  -2  -2   8  547.75   55.69
   2  -2  -8  655.73   58.39
   2   2  -7  116.89   39.00
   2   2  -7  103.19   27.20
   2  -2  -7   99.09   16.30
  -2  -2   7   87.19   23.50
   2  -2  -7  119.69   27.70
   2   2  -6  224.98   30.80
   2   2  -6  174.38   32.70
   2  -2  -6  172.18   23.60
  -2  -2   6  221.38   39.80
   2  -2  -6  222.38   20.30
  -2  -2   6  212.18   28.90
   2   2  -5  902.01   59.69
   2   2  -5  980.00   60.39
   2   2  -5  911.31   61.39
  -2  -2   5  961.50   65.89
  -2  -2   5 1011.70   60.39
   2  -2  -5  986.40   46.00
  -2  -2   5  862.31   58.89
   2  -2  -5  905.01   47.90
   2   2  -4  546.75   45.40
   2   2  -4  600.44   45.40
  -2   2   4  560.04   34.60
   2   2  -4  611.24   43.40
   2  -2  -4  591.54   40.00
  -2  -2   4  558.04   44.10
  -2  -2   4  526.15   41.40
   2  -2  -4  536.35   31.90
  -2  -2   4  601.14   48.70
   2  -2  -4  599.44   35.30
   2   2  -3 1110.79   60.29
  -2   2   3 1078.09   50.09
   2   2  -3 1075.09   60.79
   2   2  -3 1121.49   57.19
  -2  -2   3 1126.29   63.89
   2  -2  -3 1085.09   40.20
   2  -2  -3 1081.99   52.39
  -2  -2   3 1064.69   56.39
   2  -2  -3 1144.69   51.89
   2   2  -2  326.67   31.00
  -2   2   2  307.97   26.70
   2   2  -2  352.86   31.90
   2   2  -2  290.17   26.10
   2  -2  -2  342.77   27.90
   2  -2  -2  329.27   26.50
  -2  -2   2  286.57   29.50
  -2  -2   2  335.17   31.60
  -2  -2   2  274.27   26.60
  -2   2   1  287.47   26.90
   2   2  -1  287.57   26.40
  -2   2   1  282.47   24.50
   2   2  -1  295.57   29.30
   2   2  -1  293.27   25.10
   2  -2  -1  276.47   24.30
  -2  -2   1  267.77   28.00
  -2  -2   1  326.77   29.00
  -2  -2   1  282.27   25.70
   2  -2  -1  300.67   27.50
  -2   2   0    7.70    6.00
   2   2   0   33.40    9.80
   2   2   0   29.60    8.80
   2   2   0   27.90    9.30
   2  -2   0   27.10    8.50
  -2  -2   0   23.60    9.20
  -2  -2   0   13.20    6.30
  -2  -2   0   11.60    7.20
   2  -2   0   27.80   10.00
  -2   2  -1 1228.08   43.40
   2   2   1 1249.97   48.60
  -2   2  -1 1342.37   58.59
  -2   2  -1 1249.97   63.59
   2   2   1 1261.97   57.79
   2  -2   1 1349.77   60.29
   2  -2   1 1276.77   65.69
  -2  -2  -1 1297.77   64.09
  -2  -2  -1 1203.48   49.80
  -2  -2  -1 1252.37   56.89
  -2   2  -2   46.90   11.20
  -2   2  -2   59.59   14.50
   2   2   2   46.80   13.70
  -2   2  -2   44.70   12.60
   2   2   2   42.50   10.00
  -2  -2  -2   60.29    8.50
   2  -2   2   55.49   15.40
   2  -2   2   41.30   14.40
  -2  -2  -2   46.80   15.00
  -2  -2  -2   39.10   11.60
  -2   2  -3    3.20    5.20
  -2   2  -3   -3.40    6.70
   2   2   3    0.40    3.80
  -2   2  -3    4.50    4.20
   2  -2   3    5.60    7.50
  -2  -2  -3   -1.50    4.10
   2  -2   3    4.10    6.00
  -2  -2  -3    4.20    7.00
  -2   2  -4    7.40    9.10
  -2   2  -4   10.90    7.50
  -2   2  -4   16.70    7.60
   2  -2   4    4.10    8.40
   2  -2   4   15.70    9.20
  -2  -2  -4   -0.20    7.30
  -2   2  -5   67.59   18.10
  -2   2  -5   71.89   20.50
   2  -2   5   61.39   22.40
  -2  -2  -5   33.80   14.30
  -2   2  -6  651.03   53.59
  -2   2  -6  615.04   55.29
   2  -2   6  617.34   56.19
  -2   2  -7 1294.67   82.09
  -2   2  -7 1140.49   80.29
   2  -2   7 1223.98   84.39
  -2   2  -8  836.12   72.09
  -2   2  -8  881.21   72.59
  -2  -2  -8  911.91   79.29
   2  -2   8  854.61   71.79
  -2   2  -9  199.08   42.20
  -2   2  -9  262.67   51.09
  -2  -2  -9  157.68   37.50
   2  -2   9  231.78   45.80
  -2   2 -10  -15.90    7.00
  -2   2 -10    6.80   12.70
  -2  -2 -10    2.10   10.40
   2  -2  10    7.00   15.40
  -2   2 -11  201.78   49.60
  -2   2 -11  202.08   74.59
   2  -2  11  254.87   50.59
  -2  -2 -11  196.38   48.30
  -2   2 -12  567.34   72.99
  -2   2 -12  468.35   65.09
   2  -2  12  608.14   67.79
  -2  -2 -12  573.14   75.99
  -2   2 -13  229.38   48.40
  -2   2 -13  274.97   62.99
  -2  -2 -13  139.39   43.60
   2  -2  13  177.78   47.10
  -2   2 -14  170.88   48.90
  -2   2 -14  337.27   90.09
   2  -2  14  225.08   53.89
  -2   2 -15   18.90   33.90
  -2   2 -15   20.60   24.30
   2  -2  15   23.80   29.90
   2  -2  16  -61.49   44.40
   2   3 -16   74.39   37.80
   2  -3 -16   64.39   27.80
   2  -3 -16   24.20   28.50
   2   3 -15  237.38   76.79
   2   3 -15  237.28   55.79
   2  -3 -15  176.08   45.90
   2  -3 -15  312.77   89.29
   2   3 -14  -13.00   24.60
   2   3 -14   55.29   24.10
  -2  -3  14  -13.40   19.40
   2  -3 -14   -0.80   18.20
   2  -3 -14  -16.50   17.50
   2   3 -13   33.40   24.30
   2   3 -13   23.90   25.90
   2  -3 -13   36.90   24.80
  -2  -3  13   36.90   24.30
   2  -3 -13   14.00   20.10
   2   3 -12  190.08   43.50
   2   3 -12  101.39   30.80
   2  -3 -12  160.98   39.10
  -2  -3  12   75.59   31.80
   2   3 -11  539.45   74.29
   2   3 -11  640.34   71.19
   2  -3 -11  518.45   63.19
  -2  -3  11  523.55   67.19
   2   3 -10  545.35   62.49
   2  -3 -10  695.83   69.09
  -2  -3  10  651.93   80.29
   2   3  -9  202.58   42.50
   2   3  -9  209.78   44.70
   2  -3  -9  240.38   45.10
  -2  -3   9  170.68   42.70
   2   3  -8    4.70    6.70
   2   3  -8   30.40   14.00
   2  -3  -8   -0.20    6.30
  -2  -3   8   -4.30    7.60
   2   3  -7    5.10    7.90
   2   3  -7   21.90   12.70
  -2  -3   7   -3.50    8.50
   2  -3  -7    1.90    5.80
   2  -3  -7   11.30   11.10
   2   3  -6 1502.15   85.39
   2   3  -6 1534.25   92.69
  -2   3   6 1505.35   66.29
   2  -3  -6 1566.34   72.19
   2  -3  -6 1628.74   67.09
  -2  -3   6 1564.94  101.39
   2   3  -5  902.11   67.19
  -2   3   5 1051.49   55.29
   2   3  -5 1046.30   65.79
  -2  -3   5  959.00   74.69
   2  -3  -5 1034.50   51.69
   2  -3  -5  972.30   52.79
  -2   3   4  356.96   31.90
   2   3  -4  384.96   41.40
   2   3  -4  364.06   36.60
  -2  -3   4  446.06   41.00
   2  -3  -4  418.36   38.10
  -2  -3   4  332.77   41.80
   2  -3  -4  356.26   31.90
   2  -3  -4  393.46   27.30
   2   3  -3  803.42   59.99
   2   3  -3  767.62   50.99
  -2   3   3  803.22   50.99
   2  -3  -3  870.51   54.99
  -2  -3   3  788.12   62.79
   2  -3  -3  812.62   36.30
   2  -3  -3  778.42   51.19
  -2  -3   3  816.02   53.39
  -2   3   2   46.50   15.40
   2   3  -2   19.90   14.50
   2   3  -2   39.90   14.30
  -2   3   2   27.90   12.50
   2   3  -2   34.10   11.80
  -2  -3   2   27.70   17.50
  -2  -3   2   44.90   16.40
   2  -3  -2   53.59   16.40
   2  -3  -2   45.70   14.20
   2   3  -1   -0.60    7.90
  -2   3   1   -7.20    3.40
   2   3  -1    8.20    7.90
  -2  -3   1   -9.20    5.50
   2  -3  -1    7.50    8.00
  -2  -3   1   -0.20    5.60
   2  -3  -1    9.90    8.40
   2   3   0  786.92   48.40
   2   3   0  783.92   58.89
  -2   3   0  830.72   54.69
   2   3   0  781.12   49.99
  -2   3   0  869.61   58.79
  -2  -3   0  782.32   52.49
  -2  -3   0  761.62   48.80
   2  -3   0  762.82   52.59
   2  -3   0  835.22   58.69
   2   3   1    6.30    6.30
  -2   3  -1    2.90    6.20
  -2   3  -1    1.80    3.80
   2   3   1    8.60    6.60
  -2  -3  -1   17.10    8.50
   2  -3   1    8.00    8.90
   2  -3   1    8.80    5.90
  -2  -3  -1   -2.30   13.80
   2  -3   1   -2.10    7.70
  -2   3  -2 1267.57   53.89
   2   3   2 1255.57   66.39
  -2   3  -2 1271.07   70.89
   2   3   2 1236.38   54.59
   2  -3   2 1286.57   79.79
  -2  -3  -2 1231.78   65.19
   2  -3   2 1254.07   77.49
  -2  -3  -2 1178.18   57.19
  -2   3  -3  543.05   38.90
  -2   3  -3  518.35   63.39
   2   3   3  601.04   32.20
   2   3   3  572.14   45.70
  -2  -3  -3  598.14   45.80
  -2  -3  -3  544.75   33.40
   2  -3   3  543.15   52.59
   2   3   4   -2.30    6.10
  -2   3  -4    1.50    9.60
   2  -3   4   -6.60    8.40
  -2   3  -5   28.20   15.10
  -2   3  -5    3.90    7.30
   2  -3   5   17.00    9.70
  -2   3  -6  965.30   74.29
   2  -3   6 1054.29   82.79
  -2   3  -7    3.90   10.90
  -2   3  -7   29.00   15.90
   2  -3   7   -1.70    9.00
  -2   3  -8   63.19   23.10
   2  -3   8   35.20   18.70
  -2   3  -9   65.39   22.00
  -2   3  -9   76.59   35.10
  -2  -3  -9   69.69   25.50
   2  -3   9   71.39   39.10
  -2   3 -10   21.80   18.80
  -2   3 -10   43.70   20.10
  -2  -3 -10   27.10   17.80
   2  -3  10   18.70   21.70
  -2   3 -11  109.19   38.10
  -2   3 -11  166.98   45.70
  -2  -3 -11  111.59   37.60
   2  -3  11  123.69   38.50
  -2   3 -12  233.18   56.49
  -2   3 -12  182.88   49.99
   2  -3  12  194.38   48.30
  -2  -3 -12   82.09   34.20
  -2   3 -13  -20.00   23.50
  -2   3 -13   13.60   41.50
   2  -3  13  -15.70   24.10
  -2  -3 -13   57.89   30.20
  -2   3 -14   87.59   40.50
  -2   3 -14  155.38   61.19
   2  -3  14  312.17   71.99
  -2  -3 -14   97.59   47.50
  -2   3 -15    7.20   41.40
   2  -3  15    2.50   26.90
   2   4 -15  176.98   58.99
   2  -4 -15  140.99   58.79
   2   4 -14  257.07   70.59
   2   4 -14  182.28   50.99
  -2  -4  14  149.09   49.00
   2  -4 -14  108.29   42.20
   2  -4 -14  150.58   45.40
   2   4 -13   96.39   34.10
   2   4 -13   93.69   36.90
  -2  -4  13   98.49   36.00
   2  -4 -13   89.89   30.90
   2  -4 -13  105.29   38.40
   2   4 -12   -9.20   17.40
   2   4 -12   26.40   24.50
  -2  -4  12   97.09   37.50
   2  -4 -12   51.79   25.80
   2   4 -11  391.76   55.79
   2   4 -11  410.66   56.19
   2  -4 -11  397.96   56.49
  -2  -4  11  312.27   68.09
   2   4 -10   70.59   33.40
  -2  -4  10  100.39   38.40
   2  -4 -10   60.69   22.60
   2   4  -9  -15.30   16.40
  -2  -4   9   27.90   24.50
   2   4  -8  550.94   61.99
   2   4  -8  510.25   55.19
   2  -4  -8  515.05   36.70
  -2  -4   8  466.95   65.99
   2   4  -7   49.00   19.70
   2   4  -7   35.80   18.30
   2  -4  -7   33.00   18.10
   2  -4  -7   22.50   11.90
  -2  -4   7   36.40   18.60
  -2   4   6  692.83   49.90
   2   4  -6  892.61   75.09
   2   4  -6  775.12   62.19
  -2  -4   6  613.14   67.39
   2  -4  -6  736.63   48.50
   2  -4  -6  711.23   50.09
   2   4  -5  994.90   68.19
   2   4  -5  866.91   74.09
  -2   4   5  894.01   59.19
   2  -4  -5  979.60   61.09
   2  -4  -5  949.51   50.99
  -2  -4   5  969.60   82.69
  -2   4   4  104.19   31.50
   2   4  -4  231.88   31.60
   2   4  -4  193.18   38.50
   2  -4  -4  163.38   32.00
   2  -4  -4  197.38   21.60
  -2  -4   4  188.68   43.40
   2   4  -3  246.48   46.50
   2   4  -3  218.88   30.60
   2  -4  -3  275.27   38.30
   2  -4  -3  241.88   22.40
  -2  -4   3  208.88   41.60
   2   4  -2  134.69   27.60
   2  -4  -2   87.49   24.40
  -2  -4   2  153.38   35.20
   2   4  -1  470.55   40.60
   2   4  -1  421.96   47.40
  -2   4   1  540.65   51.19
  -2  -4   1  404.36   41.00
   2  -4  -1  524.85   51.89
  -2  -4   1  524.75   52.09
   2   4   0  938.11   58.29
  -2   4   0  897.21   39.20
   2   4   0  940.11   73.29
  -2   4   0  999.00   71.29
  -2  -4   0  890.51   59.19
   2  -4   0  810.72   67.29
   2   4   1  418.56   39.00
   2   4   1  382.86   37.60
  -2   4  -1  286.97   38.20
  -2   4  -1  389.96   26.40
  -2  -4  -1  300.67   37.90
   2  -4   1  352.06   45.90
  -2   4  -2   22.50    9.40
  -2   4  -2   21.60    8.60
   2   4   2    1.20    8.70
   2   4   2    3.30   10.90
   2  -4   2   13.30   10.80
  -2  -4  -2    0.00    8.10
  -2   4  -3   48.60   13.60
   2   4   3   28.90   13.40
  -2   4  -3   32.90   14.60
   2   4   3   29.70   15.80
   2  -4   3   32.80   16.90
  -2  -4  -3   39.20   12.30
   2   4   4   11.70    9.60
  -2   4  -4   35.50   12.60
  -2   4  -4  -15.50   10.90
   2  -4   4   27.20   16.50
  -2  -4  -4   20.80    9.90
  -2   4  -5   29.30   17.10
  -2   4  -5   29.10   13.50
   2  -4   5   42.60   20.70
  -2   4  -6   22.40   12.50
  -2   4  -6   31.60   14.60
   2  -4   6   23.10   18.40
  -2   4  -7  760.52   64.49
  -2   4  -7  611.14  120.99
   2  -4   7  772.82   82.19
  -2   4  -8   43.00   18.10
  -2   4  -8   14.80   18.00
   2  -4   8   13.90   14.10
  -2   4  -9  196.28   45.90
  -2   4  -9  161.38   34.90
   2  -4   9  266.87   61.59
  -2   4 -10   -1.70   13.80
  -2   4 -10   33.40   24.10
  -2  -4 -10   38.10   17.60
   2  -4  10   -4.50   19.60
  -2   4 -11  133.09   40.80
  -2   4 -11   98.09   41.70
   2  -4  11   61.09   35.50
  -2  -4 -11  102.79   39.60
  -2   4 -12    0.00   20.90
  -2   4 -12   15.90   28.40
  -2  -4 -12   -4.80   20.80
   2  -4  12   -2.80   25.00
  -2   4 -13  134.99   54.39
   2   5 -12   96.59   44.20
   2  -5 -12   49.20   32.60
   2  -5 -12   95.49   37.80
   2  -5 -11  -15.40   18.80
  -2  -5  11  -30.60   18.60
   2   5 -10  241.18   66.89
   2   5 -10  352.46   64.69
  -2  -5  10  232.78   64.49
   2   5  -9  659.83   76.19
   2   5  -9  627.74   67.99
  -2  -5   9  705.63   85.59
   2   5  -8   27.40   21.20
   2   5  -8   14.70   22.40
   2  -5  -8   15.40   12.90
  -2  -5   8  -10.60   13.80
   2   5  -7   53.19   23.40
   2   5  -7   69.69   30.00
  -2  -5   7   76.09   37.30
   2  -5  -7   99.99   24.60
   2   5  -6   70.39   27.30
   2  -5  -6  118.79   27.90
  -2  -5   6  133.89   41.00
   2   5  -5   -0.40   10.90
   2   5  -5  -27.00   10.90
   2  -5  -5  -17.90   10.80
  -2  -5   5   -3.50   11.60
   2  -5  -5    2.10   14.70
   2   5  -4   90.09   27.70
   2   5  -4   32.90   18.60
  -2  -5   4  100.49   30.50
   2  -5  -4   57.29   21.90
   2   5  -3  469.55   45.30
   2   5  -3  440.66   57.49
  -2  -5   3  462.65   58.39
   2  -5  -3  453.85   50.69
   2   5  -2    8.60   15.10
   2   5  -2   17.70   14.10
   2  -5  -2   -0.70   12.00
  -2  -5   2    5.90   15.30
   2   5  -1   64.79   21.30
   2   5  -1   74.79   26.80
  -2   5   1   57.19   23.20
  -2  -5   1   64.69   21.10
   2  -5  -1  101.49   32.40
   2   5   0   98.49   24.10
  -2   5   0  123.19   35.20
   2   5   0   99.09   31.00
  -2  -5   0  184.78   36.90
   2  -5   0  137.79   33.90
   2   5   1  730.43   57.19
  -2   5  -1  724.33   69.59
   2  -5   1  821.72   78.39
  -2  -5  -1  709.43   63.99
   2   5   2  316.07   39.20
  -2   5  -2  270.27   26.10
  -2   5  -2  302.67   51.99
  -2  -5  -2  362.46   42.50
   2  -5   2  255.27   49.70
  -2   5  -3   -0.50    9.50
  -2   5  -3    8.60   18.40
   2   5   3  -25.20   12.20
   2  -5   3   19.10   17.00
  -2  -5  -3    1.20   10.50
  -2   5  -4    5.60   13.60
  -2  -5  -4   37.10   15.00
   2  -5   4   -5.80   10.70
  -2   5  -5  185.08   32.40
  -2   5  -5  168.78   43.80
   2  -5   5  136.19   40.90
  -2   5  -6  139.79   31.00
  -2   5  -6  141.99   36.30
   2  -5   6  179.08   42.70
  -2   5  -7  184.58   35.40
  -2   5  -7  235.18   52.59
   2  -5   7  171.18   49.40
  -2   5  -8   93.29   32.40
  -2   5  -8   69.99   25.80
   2  -5   8  150.48   67.99
  -2   5  -9   13.70   20.10
   2  -5   9   10.60   21.60
  -2   5 -10   32.20   27.30
  -2   5 -10  -11.30   21.60
   2  -5  10  -10.80   28.90
  -2   5 -11   97.69   40.70
   2   6  -8  173.18   46.60
   2   6  -8  109.59   45.60
  -2  -6   8   84.49   32.70
   2   6  -7   20.00   23.10
   2   6  -7   53.59   30.00
  -2  -6   7    7.20   25.50
   2   6  -6  655.03   77.69
   2   6  -6  579.04   65.39
   2  -6  -6  553.04   61.09
   2   6  -5   40.10   23.20
   2   6  -5  -30.30   30.40
  -2  -6   5  -13.30   24.70
   2  -6  -5    4.40   20.20
   2   6  -4  432.36   52.69
   2   6  -4  376.56   68.69
  -2  -6   4  405.76   74.79
   2  -6  -4  343.87   54.69
   2   6  -3   47.00   27.10
   2   6  -3   38.30   22.20
  -2  -6   3  -12.90   19.00
   2   6  -2  121.59   39.00
   2   6  -2  174.48   36.40
  -2  -6   2  128.89   38.60
   2  -6  -2   98.19   30.20
   2   6  -1   39.20   18.70
  -2  -6   1  -18.30   25.70
   2  -6  -1   16.10   17.60
   2   6   0 1045.50   73.29
  -2   6   0 1029.90   91.89
  -2  -6   0  789.82  105.19
   2  -6   0  943.01   88.69
   2   6   1    3.50   18.90
  -2   6  -1   36.70   20.50
   2  -6   1   65.59   29.50
  -2  -6  -1    6.40   17.30
  -2   6  -2  130.49   39.50
   2   6   2  147.69   34.50
   2  -6   2   97.29   34.70
  -2  -6  -2  176.38   39.40
   2  -6   3    4.10   24.00
  -2  -6  -3  -33.60   20.50
  -2   6  -4    9.10   21.30
   2  -6   4   31.60   37.40
  -2   6  -5   -1.00   21.30
   2  -6   5  -19.50   21.10
  -2   6  -6   52.79   28.70
   2  -6   6   65.89   37.60
  -2   6  -7   22.60   24.20
   3   0 -18   43.30   65.49
   3   0 -17   -9.90   23.10
   3   0 -17   26.10   25.60
   3   0 -16  243.88   54.49
   3   0 -16  225.28   58.99
   3   0 -15  -37.90   14.10
   3   0 -15   -9.10   16.30
   3   0 -14 1013.40   95.39
   3   0 -14  932.91   91.49
   3   0 -13  -16.50   11.70
   3   0 -13   11.70   18.60
   3   0 -12  329.97   59.09
   3   0 -12  462.05   56.29
   3   0 -11   -7.50    5.70
   3   0 -11  -11.40    8.90
   3   0 -10  291.67   40.60
   3   0 -10  310.67   52.69
   3   0 -10  255.37   49.30
   3   0  -9    4.40    8.60
   3   0  -9   13.10    7.70
   3   0  -9    2.80    6.00
  -3   0   8 8811.22  236.88
   3   0  -8 8665.43  242.48
   3   0  -8 8208.98  257.77
   3   0  -8 8794.72  241.68
  -3   0   7    3.70    4.20
   3   0  -7    7.20    5.10
   3   0  -7    1.30    7.20
   3   0  -7   -6.00    6.10
   3   0  -6   79.19   18.80
   3   0  -6   72.69   16.80
   3   0  -6  101.09   20.40
  -3   0   6   92.39   19.60
   3   0  -5   -3.60    3.10
  -3   0   5   -6.40    2.50
  -3   0   5    6.90    5.40
   3   0  -5   -0.20    3.90
  -3   0   4 1196.48   53.29
   3   0  -4 1271.37   55.39
   3   0  -4 1225.78   49.40
  -3   0   4 1220.68   49.60
   3   0  -3   -3.00    1.70
  -3   0   3    3.90    3.00
  -3   0   3    1.40    2.70
   3   0  -3    0.60    2.70
   3   0  -2  714.83   32.90
   3   0  -2  710.93   24.50
  -3   0   2  728.63   24.80
  -3   0   2  820.82   34.30
   3   0  -1    1.40    2.30
  -3   0   1    3.20    3.00
  -3   0   1    2.50    1.60
   3   0  -1    0.10    2.00
   3   0   0 3181.08   82.19
   3   0   0 2901.71   82.89
  -3   0   0 3185.88   80.29
  -3   0   0 2941.11   81.39
  -3   0  -1   -2.80    1.80
   3   0   1   -2.50    1.40
   3   0   1    1.30    3.30
  -3   0  -1    0.20    3.10
  -3   0  -1   -1.50    2.40
  -3   0  -2 2712.13   77.99
  -3   0  -2 2703.13   87.89
  -3   0  -2 2749.62   90.79
   3   0   2 2824.82   78.99
  -3   0  -3    3.90    2.70
  -3   0  -3    1.80    3.60
  -3   0  -3    6.80    3.90
   3   0   3   -2.40    2.80
  -3   0  -4   -3.60    3.00
  -3   0  -4   10.10    5.00
  -3   0  -4    4.70    5.50
   3   0   4    2.20    3.60
   3   0   5    5.80    4.20
  -3   0  -5    4.40    5.20
  -3   0  -5   -2.50    3.90
  -3   0  -5    6.00    5.30
   3   0   6  475.65   36.10
  -3   0  -6  428.16   46.40
  -3   0  -6  424.86   33.30
  -3   0  -7   -3.50    8.20
   3   0   7   13.00    8.00
  -3   0  -7    4.60    7.20
   3   0   8  213.68   27.10
  -3   0  -8  165.48   36.20
  -3   0  -9  -15.70    9.10
  -3   0  -9   20.50    9.40
   3   0   9   -7.80    8.70
  -3   0 -10 1732.33  121.39
  -3   0 -10 1632.44   82.29
   3   0  10 1741.73   88.39
   3   0  11  -12.00   16.50
  -3   0 -11    5.40    9.00
   3   0  12   80.19   27.10
  -3   0 -12  213.68   52.09
  -3   0 -13   11.20   21.00
  -3   0 -14    1.60   18.00
  -3   0 -14  -16.90   18.50
  -3   0 -15    6.20   20.60
  -3   0 -15   34.40   28.30
   3   1 -17  496.95   88.59
   3   1 -17  392.66   77.29
   3  -1 -17  409.36   75.99
   3  -1 -17  466.35   84.29
   3   1 -16   13.60   22.40
   3   1 -16   -3.00   23.80
   3  -1 -16  -18.40   19.50
   3  -1 -16  -23.50   18.60
   3   1 -15  259.87   53.59
   3   1 -15  422.56   76.99
   3  -1 -15  368.76   66.09
   3  -1 -15  407.26   71.09
   3   1 -14   67.19   29.00
   3   1 -14  152.98   40.10
   3  -1 -14   76.29   30.30
   3  -1 -14   87.79   35.20
   3   1 -13    6.00   15.80
   3   1 -13   45.60   25.10
   3  -1 -13   20.90   18.50
   3  -1 -13    9.50   13.00
   3   1 -12   14.70   14.00
   3   1 -12   30.40   13.40
   3  -1 -12    6.70   16.60
   3  -1 -12   36.40   17.50
   3  -1 -12   48.70   22.70
   3   1 -11 1190.68   89.39
   3   1 -11 1192.68   91.29
   3  -1 -11 1076.29   83.69
   3  -1 -11 1205.68   90.99
   3  -1 -11 1169.38   67.29
   3   1 -10   -8.20    8.30
   3   1 -10    9.20    6.50
   3  -1 -10    0.20    6.30
   3   1  -9   79.39   24.80
   3   1  -9   68.89   20.90
   3  -1  -9   73.39   18.10
   3  -1  -9   60.79   18.40
   3  -1  -9   56.39   19.00
   3   1  -8   80.49   22.30
   3   1  -8   56.19   20.10
   3  -1  -8   49.00   16.90
   3  -1  -8   98.59   19.70
   3  -1  -8   49.90   15.40
   3   1  -7 4069.99  150.28
   3   1  -7 4538.55  152.08
   3   1  -7 4429.86  148.39
  -3  -1   7 4347.86  149.69
   3  -1  -7 4620.64  145.19
  -3  -1   7 4217.78  150.98
   3  -1  -7 4381.56  145.59
  -3  -1   7 4267.87  148.09
   3   1  -6   56.89   15.80
   3   1  -6  123.39   25.80
   3   1  -6   51.29   16.30
  -3  -1   6   68.09   20.50
   3  -1  -6   94.99   18.00
   3  -1  -6   79.59   17.80
   3  -1  -6   96.19   19.30
  -3  -1   6   90.49   26.90
  -3  -1   6  122.79   24.00
   3   1  -5  567.74   42.90
   3   1  -5  556.14   40.50
   3   1  -5  538.35   42.90
   3  -1  -5  624.74   37.80
  -3  -1   5  683.63   48.20
  -3  -1   5  611.84   44.70
   3  -1  -5  628.74   39.60
   3  -1  -5  588.14   37.10
  -3  -1   5  648.64   42.90
   3   1  -4    5.10    4.90
   3   1  -4    0.80    2.90
   3   1  -4   -5.80    4.40
   3  -1  -4   -2.00    2.70
  -3  -1   4    2.50    5.50
  -3  -1   4    4.20    4.70
   3  -1  -4   -2.00    2.20
   3  -1  -4    2.20    3.90
   3   1  -3  512.75   37.00
   3   1  -3  579.74   34.80
  -3   1   3  563.84   34.00
   3   1  -3  519.75   35.00
   3  -1  -3  553.64   26.70
  -3  -1   3  548.35   36.20
   3  -1  -3  565.44   34.00
  -3  -1   3  596.94   35.40
   3   1  -2 1466.55   57.29
   3   1  -2 1360.26   57.59
  -3   1   2 1334.87   54.89
  -3   1   2 1406.66   37.80
   3   1  -2 1412.26   54.99
  -3  -1   2 1409.46   54.89
   3  -1  -2 1411.26   56.39
   3  -1  -2 1338.17   36.60
   3  -1  -2 1389.36   38.50
  -3  -1   2 1490.45   58.99
   3   1  -1 9013.50  200.78
  -3   1   1 9586.04  174.78
  -3   1   1 9249.77  205.08
   3   1  -1 9048.29  202.18
   3   1  -1 9288.07  200.88
   3  -1  -1 9223.18  175.08
  -3  -1   1 9999.00  206.48
  -3  -1   1 9482.85  201.58
   3  -1  -1 9435.26  205.48
  -3   1   0  350.16   19.50
  -3   1   0  325.77   16.80
  -3   1   0  352.76   27.40
   3   1   0  338.77   25.60
  -3  -1   0  308.57   24.10
   3  -1   0  313.57   26.10
   3  -1   0  336.77   19.80
  -3  -1   0  363.06   26.50
  -3   1  -1 2510.65   86.99
  -3   1  -1 2802.02   79.19
  -3   1  -1 2709.73   73.89
   3   1   1 2684.63   87.69
   3  -1   1 2641.04   88.79
  -3  -1  -1 2601.04   85.89
   3  -1   1 2831.52   80.09
  -3   1  -2   19.90    8.10
   3   1   2   13.90    3.90
   3   1   2   12.10    6.70
  -3   1  -2    7.10    6.40
   3  -1   2   17.20    6.70
   3  -1   2   16.60    7.10
  -3  -1  -2    1.80    4.70
  -3   1  -3  174.08   22.00
  -3   1  -3  178.58   22.60
   3   1   3  161.18   22.20
   3  -1   3  203.28   23.10
  -3  -1  -3  169.98   27.20
   3  -1   3  166.68   21.30
  -3   1  -4  226.28   26.20
  -3   1  -4  198.78   27.70
   3  -1   4  251.87   27.80
   3  -1   4  246.98   28.50
  -3  -1  -4  209.88   26.30
  -3   1  -5  175.88   32.60
  -3   1  -5  245.78   27.80
   3  -1   5  227.88   28.60
  -3  -1  -5  183.38   32.40
   3  -1   5  215.08   29.30
  -3  -1  -5  229.78   32.10
  -3   1  -6   93.49   29.20
  -3   1  -6  114.09   24.30
   3  -1   6  130.09   28.90
  -3  -1  -6  105.29   25.40
  -3   1  -7 2586.34  128.79
   3  -1   7 2405.46  110.19
  -3  -1  -7 2466.75  129.09
  -3   1  -8   28.70   17.30
  -3  -1  -8   20.10   14.40
   3  -1   8   72.89   21.70
  -3   1  -9 1287.47   98.79
   3  -1   9 1390.16   86.59
  -3  -1  -9 1411.26  105.09
  -3  -1  -9 1325.97   53.19
  -3   1 -10  174.18   42.00
  -3  -1 -10  211.68   48.70
  -3  -1 -10  196.38   22.60
   3  -1  10  238.18   43.20
  -3   1 -11  124.19   33.20
  -3   1 -11   87.69   30.90
  -3  -1 -11   96.99   18.70
  -3  -1 -11  134.39   37.50
   3  -1  11  131.99   32.00
  -3   1 -12  -27.50   14.00
  -3   1 -12   22.70   17.60
  -3  -1 -12   -3.90   21.90
   3  -1  12  -15.70   13.80
  -3   1 -13  492.95   66.59
  -3   1 -13  358.76   72.29
  -3  -1 -13  533.65   73.39
   3  -1  13  471.55   58.29
  -3   1 -14    5.10   21.50
  -3   1 -14   -4.90   22.90
   3  -1  14  -36.40   28.30
  -3  -1 -14   59.09   36.50
  -3   1 -15    7.30   26.20
  -3   1 -15   25.70   29.90
   3  -1  15   14.90   27.90
  -3  -1 -15    4.20   27.00
   3   2 -17   42.30   30.20
   3   2 -17    3.60   33.70
   3  -2 -17  -41.50   19.50
   3  -2 -17  -43.40   24.20
   3   2 -16  289.47   66.99
   3   2 -16  185.38   50.59
   3  -2 -16  303.67   64.59
   3  -2 -16  299.77   63.59
   3   2 -15   10.20   20.70
   3   2 -15    0.80   23.90
   3  -2 -15   26.30   14.70
   3  -2 -15   42.20   21.30
   3   2 -14  973.00   98.89
   3   2 -14 1118.49  103.39
   3  -2 -14 1096.49   97.29
   3  -2 -14 1307.27  108.79
   3  -2 -14 1140.59   61.19
   3   2 -13  473.45   65.09
   3   2 -13  456.05   60.89
   3  -2 -13  490.85   61.39
   3  -2 -13  352.16   45.20
   3  -2 -13  419.86   36.10
   3  -2 -13  311.37   57.29
   3   2 -12   33.40   15.90
   3   2 -12   34.00   29.10
   3  -2 -12   36.50   17.90
  -3  -2  12   49.80   23.60
   3  -2 -12   24.30   13.20
   3  -2 -12   35.70   17.10
   3  -2 -12   40.40   17.60
   3   2 -11  103.19   29.50
   3   2 -11   88.09   28.80
   3  -2 -11   94.19   25.80
   3  -2 -11   63.69   15.20
   3  -2 -11   75.99   17.50
  -3  -2  11   75.29   26.30
   3  -2 -11   76.09   23.60
   3   2 -10  240.68   46.00
   3   2 -10  167.38   35.50
  -3  -2  10  114.49   30.70
   3  -2 -10  240.58   25.30
   3  -2 -10  222.58   42.10
   3  -2 -10  189.68   43.20
   3  -2 -10  233.58   25.20
   3   2  -9  543.05   55.69
   3   2  -9  614.04   59.39
  -3  -2   9  507.95   55.89
   3  -2  -9  551.44   51.69
   3  -2  -9  545.75   38.10
   3  -2  -9  534.25   53.09
   3   2  -8 2916.81  133.09
   3   2  -8 3308.27  139.89
   3  -2  -8 3010.40   99.99
  -3  -2   8 3077.99  140.49
   3  -2  -8 2820.62  133.39
   3   2  -7  902.11   65.19
   3   2  -7  801.02   61.69
  -3  -2   7  727.13   62.49
   3  -2  -7  891.51   48.20
   3  -2  -7  883.71   60.19
   3   2  -6   59.09   19.40
   3   2  -6   48.50   16.40
  -3  -2   6   95.99   23.00
   3  -2  -6   49.20   12.30
  -3  -2   6   61.99   21.90
   3   2  -5  221.48   28.10
   3   2  -5  212.28   36.00
   3   2  -5  196.68   26.30
  -3   2   5  212.38   23.00
  -3  -2   5  147.39   30.10
  -3  -2   5  140.49   25.10
  -3  -2   5  196.88   26.90
   3  -2  -5  201.58   22.00
   3   2  -4 1770.22   84.29
   3   2  -4 1804.02   81.59
   3   2  -4 1688.13   78.89
  -3   2   4 1622.84   69.49
  -3  -2   4 1692.33   81.39
   3  -2  -4 1729.83   67.79
   3  -2  -4 1656.93   55.79
  -3  -2   4 1739.33   86.89
   3  -2  -4 1693.63   70.29
  -3  -2   4 1852.21   99.59
   3   2  -3   79.69   17.40
   3   2  -3   93.89   21.50
   3   2  -3   68.49   17.20
  -3   2   3  106.79   20.30
  -3  -2   3  109.79   22.10
   3  -2  -3  116.99   21.40
  -3  -2   3   96.79   19.50
   3  -2  -3   78.39   14.40
  -3  -2   3   79.59   19.70
   3   2  -2  426.66   35.70
  -3   2   2  482.15   30.90
  -3   2   2  428.36   34.60
   3   2  -2  433.26   34.10
   3   2  -2  439.06   36.70
  -3  -2   2  531.45   49.00
  -3  -2   2  449.16   36.70
  -3  -2   2  493.95   37.40
   3  -2  -2  425.56   34.30
   3  -2  -2  447.96   29.30
  -3   2   1  789.82   49.20
   3   2  -1  855.21   47.80
  -3   2   1  824.82   41.30
   3   2  -1  831.42   51.79
   3   2  -1  841.32   48.10
  -3  -2   1  837.62   51.29
  -3  -2   1  804.62   47.70
  -3  -2   1  873.61   48.70
   3  -2  -1  876.71   51.29
   3  -2  -1  785.52   40.60
   3   2   0 1104.39   55.59
  -3   2   0 1031.40   48.00
  -3   2   0 1070.19   59.39
   3   2   0 1037.80   49.60
  -3  -2   0 1090.79   56.39
   3  -2   0 1052.99   59.39
   3  -2   0 1110.19   51.29
  -3  -2   0 1098.99   51.79
  -3   2  -1  303.97   26.70
  -3   2  -1  316.17   32.30
   3   2   1  295.47   22.90
  -3   2  -1  339.17   20.50
   3   2   1  274.37   27.90
  -3  -2  -1  337.37   30.50
  -3  -2  -1  313.97   30.70
   3  -2   1  305.67   32.30
   3  -2   1  308.27   27.70
  -3   2  -2 1935.11   78.99
   3   2   2 1853.81   81.59
  -3   2  -2 1901.91   88.29
   3   2   2 1755.82   74.79
  -3   2  -2 2046.20   68.79
   3  -2   2 1920.41   89.99
  -3  -2  -2 1953.70   87.09
   3  -2   2 2098.99   83.89
   3   2   3  870.41   56.09
  -3   2  -3  882.61   55.09
  -3   2  -3  780.12   55.89
  -3   2  -3  873.41   48.20
  -3  -2  -3  837.72   58.89
  -3  -2  -3  908.01   56.49
   3  -2   3  853.91   59.69
  -3   2  -4  380.96   37.20
  -3   2  -4  363.36   33.60
   3   2   4  304.47   35.40
  -3  -2  -4  276.87   33.20
   3  -2   4  309.97   72.89
   3  -2   4  281.67   33.60
  -3   2  -5  946.41   61.79
  -3   2  -5  931.11   68.89
   3  -2   5 1044.20   72.39
  -3   2  -6  975.10   69.79
  -3   2  -6  813.22   62.19
   3  -2   6  917.11   71.99
  -3   2  -7   12.10   12.10
  -3   2  -7   14.90   11.50
   3  -2   7   19.80   10.20
  -3  -2  -7   40.90   20.40
  -3   2  -8  131.29   31.20
  -3   2  -8  147.79   34.80
  -3  -2  -8  125.89   37.00
   3  -2   8   76.59   27.20
  -3   2  -9   10.30   16.50
  -3   2  -9   -8.70   12.20
   3  -2   9   41.30   17.40
  -3  -2  -9   -6.60   10.60
  -3   2 -10 1241.78   98.59
  -3  -2 -10 1266.27  106.19
   3  -2  10 1159.18   94.99
  -3   2 -11  273.17   54.99
  -3   2 -11  326.17   61.79
  -3  -2 -11  270.17   56.29
   3  -2  11  340.67   65.79
  -3   2 -12   25.10   21.60
  -3   2 -12    5.40   20.60
   3  -2  12   68.39   26.90
  -3   2 -13   -7.70   15.70
  -3   2 -13   46.10   26.50
  -3  -2 -13   30.10   16.40
   3  -2  13  -15.80   15.10
  -3   2 -14   54.09   28.80
  -3  -2 -14   48.50   27.60
  -3   2 -15  175.98   59.49
   3  -2  15  142.69   46.60
   3   3 -16   77.69   40.60
   3  -3 -16   50.59   35.70
   3  -3 -16    9.90   27.80
   3   3 -15   84.09   34.70
   3  -3 -15   87.79   33.80
   3   3 -14  522.05   91.19
   3   3 -14  700.33   84.89
   3  -3 -14  626.04   76.09
  -3  -3  14  603.04   78.19
   3  -3 -14  635.94   71.59
   3   3 -13  159.38   47.50
   3   3 -13  253.87   56.09
  -3  -3  13  196.78   50.29
   3  -3 -13   90.79   33.40
   3  -3 -13  135.09   37.60
   3   3 -12  256.17   56.49
   3   3 -12  258.37   55.39
   3  -3 -12  281.37   51.29
  -3  -3  12  266.27   57.59
   3  -3 -12  350.56   49.50
   3   3 -11  729.63   75.59
   3   3 -11  760.92   82.99
  -3  -3  11  777.12   79.59
   3  -3 -11  753.42   68.29
   3  -3 -11  657.43   68.49
   3   3 -10   -6.70    7.20
   3   3 -10   26.10   18.60
  -3  -3  10   -6.20   10.60
   3  -3 -10    3.50   13.00
   3   3  -9   40.30   20.90
   3   3  -9   69.59   24.10
   3  -3  -9   82.49   25.00
  -3  -3   9   81.99   29.20
   3  -3  -9   74.59   15.30
   3   3  -8  506.35   53.69
   3   3  -8  490.35   54.49
   3  -3  -8  570.84   38.90
  -3  -3   8  324.97   57.39
   3  -3  -8  502.05   43.60
   3   3  -7  783.72   67.19
   3   3  -7  921.11   69.19
   3  -3  -7  871.21   55.79
  -3  -3   7  789.62   73.09
   3  -3  -7  841.42   49.99
   3   3  -6  973.70   68.09
  -3   3   6  868.91   52.79
   3   3  -6  893.81   68.09
   3  -3  -6  862.11   48.20
  -3  -3   6 1005.40   78.99
   3  -3  -6  953.10   54.29
  -3   3   5  878.01   57.59
   3   3  -5  815.02   64.19
   3  -3  -5  887.51   53.89
  -3  -3   5  996.90   75.79
   3  -3  -5  927.51   59.19
   3  -3  -5  901.91   43.60
  -3   3   4  340.77   33.30
   3   3  -4  320.37   38.60
   3   3  -4  276.47   31.90
   3  -3  -4  289.57   32.10
  -3  -3   4  319.67   35.90
  -3  -3   4  320.37   40.10
   3  -3  -4  270.07   31.90
   3  -3  -4  345.57   21.50
  -3   3   3   32.00   10.90
   3   3  -3   13.20    8.90
   3   3  -3   -3.30    5.10
   3  -3  -3    4.20    8.20
   3  -3  -3   -0.10    5.00
  -3  -3   3    8.20    9.90
  -3  -3   3    6.40    8.30
  -3   3   2 1454.55   75.59
   3   3  -2 1488.25   73.19
   3   3  -2 1388.46   76.29
   3   3  -2 1346.07   79.49
  -3   3   2 1397.36   70.79
  -3  -3   2 1385.36   73.39
  -3  -3   2 1434.56   80.49
   3  -3  -2 1453.65   69.89
   3  -3  -2 1452.45   77.29
   3   3  -1 1524.15   85.59
  -3   3   1 1454.65   72.79
   3   3  -1 1593.24   75.29
   3   3  -1 1568.54   76.39
  -3   3   1 1516.85   87.49
  -3  -3   1 1603.54   81.29
   3  -3  -1 1598.94   74.39
  -3  -3   1 1588.44   78.29
   3  -3  -1 1543.55   82.39
   3   3   0  308.67   31.20
   3   3   0  308.97   36.80
   3   3   0  323.27   32.50
  -3   3   0  310.27   32.10
   3  -3   0  255.07   30.50
  -3  -3   0  353.06   34.20
  -3  -3   0  292.27   31.40
   3   3   1 1228.88   67.99
   3   3   1 1291.67   60.29
  -3   3  -1 1352.06   70.79
   3  -3   1 1281.77   79.59
   3  -3   1 1271.17   70.09
  -3  -3  -1 1176.28   67.59
  -3  -3  -1 1249.38   61.09
   3   3   2   17.90    8.90
  -3   3  -2    8.40    5.10
  -3   3  -2    0.70    5.10
   3   3   2   24.60   12.00
   3  -3   2    8.70    9.40
  -3  -3  -2   -2.60    8.30
   3  -3   2   19.30   10.70
   3   3   3  116.19   13.10
  -3   3  -3  133.09   22.60
  -3   3  -3  121.49   35.70
   3  -3   3  151.28   33.50
  -3   3  -4  310.17   36.90
  -3   3  -4  230.88   28.90
   3   3   4  303.37   38.00
   3  -3   4  295.07   41.70
  -3   3  -5  470.55   44.50
  -3   3  -5  444.06   46.80
   3  -3   5  404.06   51.19
  -3   3  -6  511.45   49.30
  -3   3  -6  528.95   53.89
   3  -3   6  387.76   52.09
  -3   3  -7 1067.49   76.99
  -3   3  -7 1052.09   82.39
   3  -3   7 1120.99   91.89
  -3   3  -8   64.49   25.40
  -3   3  -8    8.40   17.10
   3  -3   8   14.80   19.10
  -3   3  -9  181.08   43.10
  -3   3  -9  177.38   45.60
   3  -3   9  189.88   46.80
  -3  -3  -9  203.08   48.00
  -3   3 -10  730.03   75.69
  -3   3 -10  711.23   76.19
   3  -3  10  751.22   84.19
  -3  -3 -10  667.73   82.49
  -3   3 -11    1.70   16.30
  -3   3 -11  -16.70   11.70
  -3  -3 -11  -14.70   15.10
   3  -3  11  -35.40   18.80
  -3   3 -12  110.59   41.90
  -3   3 -12  154.48   40.50
   3  -3  12  135.99   44.20
  -3  -3 -12  198.78   52.09
  -3   3 -13  278.77   64.69
  -3   3 -13  237.48   53.99
  -3  -3 -13  308.77   62.79
   3  -3  13  130.09   48.50
  -3   3 -14   15.00   29.30
   3  -3  14   30.00   25.20
   3   4 -15   28.60   28.80
   3  -4 -15   -1.50   25.10
   3  -4 -15  -18.60   20.60
   3   4 -14   92.69   36.80
   3   4 -14  105.19   38.70
   3  -4 -14   92.49   35.70
  -3  -4  14  127.69   47.70
   3  -4 -14  123.79   40.60
   3   4 -13  143.99   44.10
   3   4 -13  197.08   49.50
   3  -4 -13  154.38   39.30
  -3  -4  13  132.99   46.80
   3  -4 -13  184.58   45.60
   3   4 -12  163.78   41.00
   3   4 -12  121.59   34.60
  -3  -4  12  127.89   40.20
   3  -4 -12  185.48   38.30
   3  -4 -12  154.78   44.10
   3   4 -11   51.09   25.30
   3   4 -11   46.90   23.60
  -3  -4  11   30.70   19.30
   3  -4 -11   97.19   32.30
   3  -4 -11   89.99   26.10
   3   4 -10  432.36   57.59
   3   4 -10  408.26   54.29
  -3  -4  10  337.27   66.79
   3  -4 -10  373.76   90.99
   3   4  -9  458.45   52.79
   3   4  -9  493.85   60.29
  -3  -4   9  476.85   65.19
   3  -4  -9  452.05   37.20
   3   4  -8  226.68   42.30
   3   4  -8  249.08   49.10
   3  -4  -8  251.17   28.80
  -3  -4   8  186.38   48.50
   3   4  -7  730.23   79.59
   3   4  -7  873.81   70.79
  -3   4   7  770.32   55.19
   3  -4  -7  831.92   51.99
   3  -4  -7  900.91   58.09
  -3  -4   7  903.81   87.29
   3   4  -6  301.97   40.20
  -3   4   6  344.27   39.70
   3   4  -6  319.87   55.79
  -3  -4   6  462.85   58.89
   3  -4  -6  371.36   31.20
   3  -4  -6  357.26   37.10
   3   4  -5   23.40   12.70
   3   4  -5   -0.40    8.20
  -3  -4   5    2.90    9.90
   3  -4  -5    7.10    7.90
   3  -4  -5  -10.40    8.40
   3   4  -4  730.83   66.49
   3   4  -4  719.93   57.69
   3  -4  -4  734.33   57.09
  -3  -4   4  616.44   63.29
   3   4  -3    4.30    9.30
   3   4  -3    7.20    7.30
  -3  -4   3    4.20    8.80
   3  -4  -3  -17.80    7.10
   3   4  -2 1798.82  105.49
   3   4  -2 1682.73   85.49
   3  -4  -2 1498.05   90.99
  -3  -4   2 1689.23  100.59
   3   4  -1  575.34   56.69
   3   4  -1  425.66   42.30
  -3   4   1  508.25   48.80
   3  -4  -1  500.25   51.59
  -3  -4   1  465.25   49.30
  -3   4   0   26.10   13.50
   3   4   0   -1.30    9.40
   3  -4   0    8.10    9.70
  -3  -4   0    3.80   10.20
   3   4   1   28.50   13.20
   3   4   1   40.80   15.80
  -3   4  -1   38.40   15.00
  -3  -4  -1   22.80   12.20
   3  -4   1   44.80   18.40
  -3   4  -2  273.67   35.70
  -3   4  -2  238.48   21.70
   3   4   2  243.68   33.80
   3  -4   2  208.38   42.90
  -3  -4  -2  271.37   30.10
  -3   4  -3  711.63   61.69
   3   4   3  670.83   56.99
  -3   4  -3  728.63   43.60
   3   4   3  664.13   41.50
   3  -4   3  745.63   72.29
   3   4   4 1667.93   95.59
  -3   4  -4 1593.34   98.39
  -3   4  -4 1513.25   74.09
   3  -4   4 1779.72  116.99
  -3   4  -5  579.04   48.00
  -3   4  -5  544.05   56.39
   3  -4   5  518.85  112.19
  -3   4  -6   12.60   15.30
  -3   4  -6   18.70   16.40
   3  -4   6    0.10   16.80
  -3   4  -7   14.90   19.10
  -3   4  -7    2.80   12.10
   3  -4   7   -3.10   14.50
  -3   4  -8  148.79   39.20
  -3   4  -8  132.69   31.70
   3  -4   8   98.29   34.70
  -3   4  -9   23.70   23.60
  -3   4  -9   22.30   21.70
   3  -4   9   77.19   27.30
  -3   4 -10  135.39   36.40
  -3   4 -10  220.28   52.99
  -3  -4 -10  132.29   37.80
   3  -4  10  143.99   47.30
  -3   4 -11  316.47   69.69
  -3   4 -11  323.87   65.49
  -3  -4 -11  245.98   65.89
   3  -4  11  322.37   70.59
  -3   4 -12   75.09   36.10
  -3   4 -12  179.78   50.59
  -3  -4 -12   44.90   32.30
   3  -4  12  204.28   52.69
  -3   4 -13  -15.50   28.80
   3  -5 -13  310.07   62.09
   3   5 -12   22.20   34.10
   3  -5 -12   20.80   26.70
   3   5 -11  214.58   46.30
   3   5 -11  246.98   49.90
  -3  -5  11  282.17   66.29
   3  -5 -11  211.68   42.10
   3  -5 -11  297.77   61.19
   3   5 -10    4.10   17.90
   3   5 -10   28.60   27.50
   3  -5 -10   -5.70   18.00
  -3  -5  10  -12.80   27.00
   3   5  -9  156.18   40.60
   3   5  -9   42.10   27.40
   3  -5  -9  134.89   26.90
  -3  -5   9   72.79   28.70
   3   5  -8  -24.00   13.40
  -3  -5   8   24.20   24.50
   3   5  -7   30.50   21.90
   3   5  -7   63.39   26.10
  -3  -5   7    5.30   26.90
   3  -5  -7   15.80   16.00
   3   5  -6   90.39   28.90
   3   5  -6   83.19   27.40
  -3  -5   6   72.19   28.60
   3  -5  -6   76.89   23.60
   3   5  -5  940.31   70.49
   3   5  -5  775.12   77.99
  -3  -5   5  852.51   86.59
   3  -5  -5  854.11   69.19
   3   5  -4   -1.40   12.10
   3   5  -4   23.20   14.90
   3  -5  -4    7.60   18.70
   3   5  -3  790.62   76.69
   3   5  -3  819.12   64.59
   3  -5  -3  697.83   66.69
  -3  -5   3  670.43   71.19
   3   5  -2  678.53   70.39
   3   5  -2  643.74   56.09
  -3  -5   2  628.44   65.49
   3  -5  -2  610.84   61.99
   3   5  -1   32.70   16.10
   3   5  -1   21.80   18.00
  -3   5   1   -3.20   12.80
  -3  -5   1   10.00   16.70
   3  -5  -1   42.90   17.30
  -3   5   0  103.39   30.40
   3   5   0  163.08   31.80
   3  -5   0   85.39   25.70
  -3  -5   0  143.49   32.70
   3   5   1  777.92   62.79
  -3   5  -1  774.92   71.99
   3  -5   1  868.01   82.39
  -3  -5  -1  844.72   66.99
  -3   5  -2   34.20   15.90
   3   5   2   -6.10   14.30
  -3  -5  -2    3.00   14.90
   3  -5   2   43.00   24.10
   3   5   3   -6.80   13.20
   3   5   3  -14.70   19.60
   3  -5   3  -32.20   14.00
  -3   5  -4   79.89   20.70
  -3   5  -4  120.19   30.30
   3  -5   4  148.49   42.10
  -3   5  -5  654.93   51.19
  -3   5  -5  507.25   60.99
   3  -5   5  587.44   77.19
  -3   5  -6  129.29   31.70
  -3   5  -6   91.69   27.90
   3  -5   6  122.29   40.50
  -3   5  -7  258.07   42.60
  -3   5  -7  323.97   58.29
   3  -5   7  267.77   60.19
  -3   5  -8  -14.60   19.60
  -3   5  -8   43.20   29.30
   3  -5   8   32.40   20.70
   3  -5   9  103.29   41.30
  -3   5 -10  136.69   37.10
  -3   5 -10  125.09   46.30
   3   6  -9   54.79   36.80
   3   6  -8  -26.70   37.80
   3   6  -8   19.40   28.20
  -3  -6   8   40.80   34.10
   3   6  -7   26.30   22.70
   3   6  -7    3.70   18.10
  -3  -6   7   93.59   35.70
   3   6  -6  264.07   46.60
   3   6  -6  332.47   64.69
  -3  -6   6  271.77   61.89
   3  -6  -6  180.18   44.10
   3   6  -5   15.60   23.40
   3  -6  -5   41.00   22.10
  -3  -6   5    3.10   22.60
   3   6  -4  259.57   44.70
   3   6  -4  374.36   85.89
   3  -6  -4  227.98   45.00
  -3  -6   4  196.18   46.40
   3   6  -3   39.30   19.60
   3   6  -3  -26.00   15.30
  -3  -6   3  -40.20   17.40
   3  -6  -3   -9.50   18.00
   3   6  -2  806.82   67.09
   3   6  -2  860.41   87.59
   3  -6  -2  704.33   75.29
  -3  -6   2  890.51   89.39
   3   6  -1   -3.90   18.80
  -3  -6   1   63.69   29.30
   3  -6  -1   34.30   21.10
   3   6   0   31.80   22.00
  -3   6   0   37.80   24.30
   3  -6   0   37.00   28.70
  -3  -6   0   77.29   31.60
   3   6   1   48.30   23.70
   3  -6   1  -11.40   21.80
  -3  -6  -1  -27.20   20.30
  -3   6  -2   19.70   24.60
   3   6   2   13.70   23.80
   3  -6   2    6.90   26.00
  -3   6  -3   11.00   18.90
   3  -6   3   32.50   25.60
  -3   6  -4 1821.02  128.99
   3  -6   4 1856.21  146.59
  -3   6  -5   11.80   24.50
   3  -6   5  -18.10   19.10
  -3   6  -6   28.90   24.20
  -3   6  -7  -21.00   29.00
   4   0 -18  100.19   42.30
   4   0 -18   55.59   41.60
   4   0 -17   -7.00   22.00
   4   0 -17   18.70   23.10
   4   0 -16  597.14   75.49
   4   0 -16  418.16   74.09
   4   0 -15   25.00   18.80
   4   0 -15  -12.90   16.70
   4   0 -14   54.99   25.70
   4   0 -14   57.99   20.40
   4   0 -13   -3.80   10.30
   4   0 -12  218.38   46.10
   4   0 -12  242.78   49.40
   4   0 -11   -2.40   11.10
   4   0 -11   -6.50    7.80
   4   0 -10 1169.78   82.49
   4   0 -10 1248.78   84.29
   4   0  -9   -8.90    5.70
   4   0  -9   -1.60    9.50
   4   0  -9   -5.60    6.80
   4   0  -8 1412.76   80.09
   4   0  -8 1476.55   76.39
   4   0  -8 1525.35   80.89
  -4   0   8 1371.96   76.19
  -4   0   7  -10.50    4.10
   4   0  -7   10.20    5.60
  -4   0   7    1.00    5.60
   4   0  -7  -10.90    4.20
   4   0  -7   -5.80    4.20
   4   0  -6  185.28   24.20
  -4   0   6  166.88   22.50
   4   0  -6  133.89   18.90
  -4   0   6  144.09   24.40
   4   0  -5   -4.10    3.60
   4   0  -5    5.50    4.50
  -4   0   5   -7.70    3.00
  -4   0   5   -2.10    3.70
  -4   0   4 8884.81  188.28
  -4   0   4 8945.10  205.08
   4   0  -4 8960.20  204.98
   4   0  -3    2.60    2.70
  -4   0   3    2.90    2.50
  -4   0   3   -5.40    2.90
   4   0  -3   -1.20    1.60
  -4   0   2  720.43   36.30
   4   0  -2  680.33   34.80
  -4   0   2  711.23   25.10
   4   0  -2  726.63   25.50
   4   0  -1   -1.40    2.00
   4   0  -1   -1.00    2.20
  -4   0   1    3.30    3.50
  -4   0   1   -1.00    2.00
  -4   0   1    3.80    1.90
  -4   0   0  134.69   15.00
   4   0   0  146.79   16.30
  -4   0   0  143.39   16.40
   4   0   0  156.68   16.60
   4   0   1    2.30    4.80
   4   0   1    0.60    2.70
  -4   0  -1   -4.10    2.90
  -4   0  -1    0.00    2.40
  -4   0  -2  239.68   24.40
  -4   0  -2  218.18   20.70
   4   0   2  204.88   23.50
  -4   0  -2  233.48   24.80
   4   0   2  254.07   22.20
  -4   0  -3   11.40    5.30
  -4   0  -3    2.70    4.70
   4   0   3   -6.80    3.10
  -4   0  -3    0.90    3.30
  -4   0  -4 1901.61   72.29
  -4   0  -4 1805.02   84.69
  -4   0  -4 1945.41   92.19
   4   0   4 1908.41   72.69
   4   0   5   -3.40    3.70
  -4   0  -5    7.80    7.10
  -4   0  -5   -3.80    4.80
   4   0   6 2051.49   83.69
  -4   0  -6 2140.69  111.89
  -4   0  -6 2215.18   85.29
  -4   0  -7   16.50    8.80
  -4   0  -7   16.30    9.40
  -4   0  -8   19.50   10.80
  -4   0  -8    1.80    9.60
   4   0   8   31.00   12.50
  -4   0  -9  -11.70   10.00
  -4   0  -9   16.10    8.00
   4   0   9   -9.00    8.20
   4   0  10  653.43   54.39
  -4   0 -10  730.93   78.19
  -4   0 -11   -0.30   14.90
   4   0  11  -10.60   10.20
  -4   0 -12  267.67   61.29
   4   0  12  316.57   42.00
   4   0  13   -2.90   16.10
  -4   0 -13  -27.30   20.00
  -4   0 -14  794.32   98.79
  -4   0 -15   75.59   41.30
  -4   0 -15    4.70   33.20
   4   1 -18   21.30   33.20
   4  -1 -18  -33.70   22.30
   4   1 -17   17.30   32.90
   4   1 -17   28.60   29.80
   4  -1 -17   63.69   26.30
   4  -1 -17   76.69   33.80
   4   1 -16   -3.60   27.80
   4  -1 -16    6.40   15.00
   4  -1 -16   14.90   22.70
   4   1 -15  105.99   38.00
   4   1 -15   56.19   31.50
   4  -1 -15   66.79   32.10
   4  -1 -15   23.40   22.90
   4   1 -14   33.10   27.90
   4   1 -14   63.29   27.30
   4  -1 -14   52.29   27.40
   4  -1 -14   62.19   30.20
   4   1 -13   35.80   19.60
   4   1 -13   58.99   23.70
   4  -1 -13  114.69   37.10
   4  -1 -13   76.59   23.40
   4   1 -12   59.29   27.10
   4   1 -12   65.19   21.80
   4  -1 -12   37.00   20.50
   4  -1 -12   46.40   16.20
   4   1 -11  385.26   51.79
   4   1 -11  431.56   51.39
   4  -1 -11  385.76   47.20
   4  -1 -11  398.16   38.30
   4  -1 -11  440.76   52.59
   4   1 -10 1009.20   80.79
   4   1 -10 1003.90   75.99
   4  -1 -10 1002.50   76.19
   4  -1 -10  974.40   74.19
   4  -1 -10 1085.19   64.09
   4   1  -9  517.05   53.89
   4   1  -9  496.05   49.20
   4  -1  -9  523.75   48.60
   4  -1  -9  476.25   42.10
   4   1  -8  135.49   30.20
   4   1  -8   80.09   20.10
   4  -1  -8  113.19   24.30
   4  -1  -8  118.29   23.90
   4   1  -7 1187.08   72.79
   4   1  -7 1236.28   74.19
   4   1  -7 1106.59   66.59
   4  -1  -7 1202.78   65.89
  -4  -1   7 1276.37   72.59
  -4  -1   7 1078.69   68.69
   4  -1  -7 1197.58   65.69
   4   1  -6   20.70   10.00
   4   1  -6   40.80   13.90
   4   1  -6   32.60   11.80
   4  -1  -6   24.00    8.50
   4  -1  -6   25.60   10.30
  -4  -1   6   12.10   10.00
   4  -1  -6   25.70    9.70
  -4  -1   6   39.10   12.90
   4   1  -5    8.90    7.40
   4   1  -5    6.90    6.30
   4   1  -5    1.40    2.20
  -4  -1   5   -8.00    4.30
   4  -1  -5    4.10    4.00
   4  -1  -5    9.40    5.40
  -4  -1   5   12.60    5.70
   4   1  -4 1239.68   62.09
   4   1  -4 1184.28   55.79
   4   1  -4 1153.68   61.89
  -4   1   4 1253.17   48.60
   4  -1  -4 1180.88   45.10
  -4  -1   4 1298.07   63.79
  -4  -1   4 1144.69   54.59
   4  -1  -4 1168.48   48.00
   4  -1  -4 1208.68   58.09
  -4   1   3 1300.87   58.99
   4   1  -3 1364.26   56.19
  -4   1   3 1139.29   51.49
   4   1  -3 1321.97   63.59
   4   1  -3 1275.67   59.69
   4  -1  -3 1266.97   43.30
  -4  -1   3 1352.66   56.29
   4  -1  -3 1242.08   57.79
   4   1  -2  116.69   16.20
  -4   1   2   95.19   18.00
   4   1  -2   77.19   14.70
  -4   1   2   79.89    8.80
   4  -1  -2   93.79   17.40
  -4  -1   2   88.39   17.40
  -4  -1   2   78.69   14.00
   4  -1  -2  104.09    9.30
  -4   1   1  921.81   31.60
  -4   1   1  796.32   46.00
   4   1  -1  817.82   42.40
   4  -1  -1  860.61   30.90
  -4  -1   1  911.31   44.20
  -4  -1   1  880.21   46.90
   4  -1  -1  867.11   47.40
  -4   1   0  428.96   33.20
  -4   1   0  419.96   22.50
  -4   1   0  375.26   21.80
   4   1   0  388.76   30.90
   4  -1   0  367.56   30.80
  -4  -1   0  408.26   31.60
  -4  -1   0  427.76   30.20
  -4   1  -1 1261.47   60.89
  -4   1  -1 1237.98   49.40
  -4   1  -1 1264.87   50.89
   4   1   1 1273.67   60.99
  -4  -1  -1 1276.77   59.99
   4  -1   1 1250.57   51.59
   4  -1   1 1286.37   61.59
  -4   1  -2  179.48   21.90
   4   1   2  133.99   12.80
  -4   1  -2  124.19   21.00
  -4   1  -2  118.89   16.60
   4   1   2  112.89   22.10
  -4  -1  -2  146.49   24.80
   4  -1   2  156.08   20.60
   4  -1   2  118.89   19.40
  -4   1  -3 4747.52  144.19
  -4   1  -3 4591.74  143.59
  -4   1  -3 4831.62  138.39
   4   1   3 4805.92  151.18
   4   1   3 4816.92  107.89
  -4  -1  -3 4863.91  149.09
   4  -1   3 4755.32  143.09
   4  -1   3 4864.31  146.69
   4   1   4    7.00    3.70
  -4   1  -4   12.80    9.40
  -4   1  -4   -3.90    5.70
  -4   1  -4    7.60    8.30
  -4  -1  -4   14.20    4.80
   4  -1   4   18.00    9.50
  -4  -1  -4   29.90   11.40
   4  -1   4   15.00    8.00
  -4   1  -5 1447.76   84.69
   4   1   5 1516.95   49.60
  -4   1  -5 1440.16   75.59
  -4  -1  -5 1605.24   51.79
   4  -1   5 1506.95   82.59
  -4  -1  -5 1275.47  113.29
   4  -1   5 1646.34   81.89
  -4   1  -6    5.90   10.60
   4  -1   6   28.20   13.00
  -4  -1  -6   30.50    7.10
  -4  -1  -6   27.90   11.50
  -4   1  -7   43.60   19.40
  -4  -1  -7   34.60   17.90
   4  -1   7   72.69   21.20
  -4   1  -8    7.60   13.90
  -4  -1  -8    6.50    8.10
   4  -1   8   18.40   10.70
  -4   1  -9  -12.90   11.00
   4  -1   9  -12.40    7.90
  -4  -1  -9    8.90    8.60
  -4  -1  -9   -0.80   10.80
  -4   1 -10  -22.30   10.70
  -4  -1 -10  -16.40   14.60
   4  -1  10   18.30   15.20
  -4   1 -11  831.22   89.29
   4  -1  11  713.33   66.69
  -4  -1 -11  784.82   89.59
  -4   1 -12    7.90   23.40
  -4   1 -12   17.70   26.30
  -4  -1 -12   28.40   20.90
   4  -1  12   31.40   20.40
  -4   1 -13  956.90   99.49
  -4   1 -13 1103.49  110.29
  -4  -1 -13 1170.28  117.49
   4  -1  13 1016.10   86.79
  -4   1 -14   89.89   37.20
  -4   1 -14  117.89   42.50
  -4  -1 -14   97.69   44.60
   4  -1  14   74.89   37.60
  -4   1 -15   35.50   34.90
   4  -1  15    4.70   33.30
   4   2 -17  347.57   73.09
   4   2 -17  257.07   65.09
   4  -2 -17  205.78   53.99
   4  -2 -17  301.97   64.79
   4  -2 -16  225.78   50.69
   4  -2 -16  214.48   42.90
   4  -2 -16  164.38   48.20
   4   2 -15  389.96   74.79
   4   2 -15  326.67   65.49
   4  -2 -15  211.58   45.20
   4  -2 -15  279.07   56.99
   4   2 -14   27.50   21.20
   4   2 -14   15.10   18.40
   4  -2 -14    5.70   15.70
   4  -2 -14    7.80   11.50
   4  -2 -14  -18.90   10.50
   4   2 -13  -26.60   12.50
   4   2 -13   -3.00   15.10
   4  -2 -13   18.80   16.10
   4  -2 -13    4.10   11.10
   4  -2 -13    4.50   14.90
   4  -2 -13  -10.90    9.90
   4   2 -12  105.89   37.10
   4   2 -12   90.19   36.70
   4  -2 -12   73.39   20.50
   4  -2 -12   49.90   23.10
   4  -2 -12  114.49   22.90
   4  -2 -12  105.69   27.90
   4   2 -11    6.50   12.30
   4   2 -11   22.50   10.70
   4  -2 -11   25.80   15.10
   4  -2 -11   -7.00   10.50
   4  -2 -11    7.90    8.90
   4  -2 -11    5.50   11.40
   4   2 -10  421.26   52.09
   4   2 -10  399.16   50.59
   4  -2 -10  460.35   51.99
  -4  -2  10  455.35   54.69
   4  -2 -10  418.16   46.60
   4  -2 -10  485.55   39.70
   4   2  -9  283.17   38.30
   4   2  -9  241.78   43.30
  -4  -2   9  249.58   48.40
   4  -2  -9  220.48   27.80
   4  -2  -9  236.68   32.30
   4  -2  -9  231.48   40.20
   4   2  -8  143.79   33.30
   4   2  -8  210.08   38.50
   4  -2  -8  215.58   29.20
   4  -2  -8  165.28   32.20
  -4  -2   8  170.28   36.20
   4  -2  -8  217.08   24.90
   4   2  -7   -3.90    5.40
   4   2  -7   -9.80    7.70
   4  -2  -7    5.70    6.60
   4  -2  -7   -4.70    5.70
   4  -2  -7   -0.90    6.30
   4   2  -6   30.70   15.50
   4   2  -6   26.20   13.40
   4  -2  -6    8.80    7.60
   4  -2  -6   38.50   13.10
  -4  -2   6   22.40   20.50
   4   2  -5 1711.73   88.99
   4   2  -5 1702.73   85.09
   4   2  -5 1728.03   83.59
  -4   2   5 1610.74   73.99
  -4  -2   5 1789.22   92.69
  -4  -2   5 1716.83   84.29
  -4  -2   5 1619.14   84.59
   4  -2  -5 1707.03   61.79
   4  -2  -5 1778.82   69.89
   4  -2  -5 1732.83   75.69
   4   2  -4 5681.43  167.98
  -4   2   4 5838.62  162.78
   4   2  -4 5490.45  174.08
   4   2  -4 6091.69  172.58
   4  -2  -4 5903.51  161.88
  -4  -2   4 5581.04  177.08
  -4  -2   4 6052.69  175.48
  -4  -2   4 5665.33  170.08
   4  -2  -4 5800.52  142.79
   4  -2  -4 5591.84  125.39
   4   2  -3 1287.17   66.19
   4   2  -3 1283.27   71.79
  -4   2   3 1257.07   64.89
   4   2  -3 1168.18   65.09
  -4  -2   3 1330.87   68.69
  -4  -2   3 1282.27   70.99
   4  -2  -3 1310.17   51.59
   4  -2  -3 1373.46   67.59
  -4  -2   3 1295.07   71.89
  -4   2   2    1.10    6.30
   4   2  -2    6.30    4.80
   4   2  -2   -4.70    2.60
   4   2  -2    1.90    6.60
  -4   2   2   -2.00    2.70
  -4  -2   2    6.00    5.10
  -4  -2   2    3.70    5.70
   4  -2  -2    3.20    3.50
   4  -2  -2    0.10    4.70
   4   2  -1    6.20    5.80
  -4   2   1    7.20    4.30
   4   2  -1    4.90    6.30
  -4   2   1    7.10    7.20
   4   2  -1    9.90    7.30
   4  -2  -1    4.50    7.70
  -4  -2   1    4.60    6.90
  -4  -2   1    7.80    5.40
   4  -2  -1    7.90    4.70
   4   2   0  246.08   24.20
  -4   2   0  259.47   29.20
  -4   2   0  232.18   21.30
   4   2   0  236.88   26.70
   4  -2   0  224.38   27.50
   4  -2   0  227.88   22.50
  -4  -2   0  220.28   26.80
  -4  -2   0  189.08   33.40
  -4   2  -1   35.00   12.20
  -4   2  -1   18.30    7.10
  -4   2  -1   30.90    9.20
  -4   2  -1   27.50    8.60
   4   2   1   22.70    7.50
   4   2   1   45.40   14.70
  -4  -2  -1   27.20   11.00
   4  -2   1   28.90   12.50
  -4  -2  -1   19.00    9.90
   4  -2   1   32.90   10.10
  -4   2  -2 1077.09   66.49
  -4   2  -2  975.20   48.10
  -4   2  -2 1034.20   55.99
   4   2   2 1045.20   62.69
   4   2   2 1034.90   41.30
  -4  -2  -2 1049.70   64.79
   4  -2   2 1034.50   66.89
   4  -2   2 1078.39   59.79
  -4  -2  -2 1070.59   62.99
  -4   2  -3  351.16   34.20
  -4   2  -3  376.46   32.50
   4   2   3  287.77   33.40
   4  -2   3  327.07   34.30
   4  -2   3  257.87   61.99
   4   2   4  175.58   34.10
  -4   2  -4  136.49   25.40
  -4   2  -4  159.38   30.70
   4  -2   4  167.78   31.90
   4  -2   4  139.39   29.20
  -4   2  -5   22.60    9.70
  -4   2  -5   30.10   14.80
   4  -2   5   -5.60    8.70
  -4   2  -6 1043.70   72.89
  -4   2  -6 1138.49   79.09
   4  -2   6 1132.39   80.29
  -4   2  -7 1110.09   78.79
  -4   2  -7  846.92   73.19
  -4  -2  -7  966.40   83.49
   4  -2   7 1061.29   80.79
  -4   2  -8   16.60   14.00
  -4   2  -8   31.10   18.70
   4  -2   8   22.90   11.70
  -4  -2  -8   37.30   20.60
  -4   2  -9  426.66   53.19
  -4   2  -9  311.97   56.99
   4  -2   9  297.57   52.29
  -4  -2  -9  277.67   78.89
  -4   2 -10  192.38   45.00
  -4   2 -10  245.88   52.89
  -4  -2 -10  208.18   49.70
   4  -2  10  306.07   58.19
  -4   2 -11   -0.60   17.90
  -4   2 -11  -17.90   15.60
   4  -2  11  -12.40   19.50
  -4  -2 -11    3.30   12.50
  -4   2 -12  119.49   42.60
  -4   2 -12  100.69   45.20
  -4  -2 -12  244.58   63.59
   4  -2  12  186.18   48.00
  -4   2 -13   50.29   28.90
  -4   2 -13    0.10   22.50
   4  -2  13   20.50   22.60
  -4  -2 -13   31.10   27.90
  -4   2 -14  418.16   77.29
  -4   2 -14  636.04  103.09
   4  -2  14  542.75   84.39
  -4  -2 -14  672.93   90.59
   4  -2  15   -5.50   32.60
   4  -3 -17   24.20   37.50
   4  -3 -17  141.99   42.00
   4   3 -16   25.50   28.80
   4   3 -16    2.00   26.30
   4  -3 -16   88.89   42.80
   4   3 -15   10.10   21.50
   4   3 -15  -17.20   19.80
   4  -3 -15   37.80   21.30
   4  -3 -15   -8.70   20.80
   4   3 -14  168.48   48.60
   4   3 -14  141.39   40.20
   4  -3 -14  127.79   40.90
   4  -3 -14  118.19   38.40
   4   3 -13   48.40   21.90
   4   3 -13  121.59   40.50
   4  -3 -13   56.69   21.90
   4  -3 -13   38.20   23.80
   4  -3 -13   45.20   15.50
   4   3 -12  210.58   48.10
   4   3 -12  192.48   45.70
  -4  -3  12  176.98   52.09
   4  -3 -12  166.38   40.50
   4  -3 -12  246.98   47.10
   4  -3 -12  245.78   28.80
   4   3 -11  -16.10    8.10
   4  -3 -11   -3.30    9.70
   4  -3 -11  -10.50    8.40
  -4  -3  11   -8.30   11.70
   4  -3 -11   -4.90   10.10
   4   3 -10  912.81   78.59
   4   3 -10 1009.80   83.39
   4  -3 -10  864.01   67.69
  -4  -3  10  755.52   78.49
   4  -3 -10  990.50   76.99
   4  -3 -10  930.71   55.29
   4   3  -9   -2.60   10.10
   4   3  -9  -12.80    9.30
   4  -3  -9   13.90   12.80
   4  -3  -9   -6.10    8.00
  -4  -3   9   27.20   13.30
   4   3  -8  192.78   39.50
   4   3  -8  245.98   45.50
   4  -3  -8  232.48   36.40
   4  -3  -8  238.48   34.80
   4  -3  -8  187.68   24.60
   4   3  -7  453.05   49.30
   4   3  -7  469.15   50.09
   4  -3  -7  413.06   38.50
   4  -3  -7  421.76   36.50
  -4  -3   7  454.55   53.49
   4  -3  -7  421.16   34.60
   4   3  -6   24.00   13.80
  -4   3   6   20.50   11.70
   4   3  -6   45.90   18.00
  -4  -3   6   13.20   12.10
   4  -3  -6   23.60    7.80
   4  -3  -6   51.69   15.20
   4  -3  -6   10.70    8.00
   4  -3  -6   29.30   12.20
  -4   3   5   10.40   10.80
   4   3  -5   -8.30    7.70
  -4  -3   5   14.30   13.00
   4  -3  -5   13.50    5.00
   4  -3  -5    6.50    3.60
   4  -3  -5    8.20    8.90
   4  -3  -5    3.50    5.20
  -4   3   4   15.10   12.40
   4   3  -4   25.80   15.20
   4   3  -4   29.80   20.80
   4  -3  -4   32.70   14.50
   4  -3  -4   22.00   10.70
  -4  -3   4   23.30   13.60
  -4   3   3  292.27   34.10
   4   3  -3  369.46   37.00
   4   3  -3  299.97   38.00
   4  -3  -3  315.07   38.60
   4  -3  -3  331.67   35.30
  -4  -3   3  366.16   40.80
  -4   3   2  178.88   23.60
   4   3  -2  154.48   28.70
   4   3  -2  246.58   33.10
   4   3  -2  228.58   28.60
  -4  -3   2  212.88   35.00
   4  -3  -2  199.08   27.80
   4  -3  -2  221.98   25.80
  -4  -3   2  168.48   39.30
   4   3  -1 1522.65   76.99
   4   3  -1 1626.84   80.89
   4   3  -1 1392.26   83.59
  -4   3   1 1597.94   72.39
  -4  -3   1 1476.55   78.49
   4  -3  -1 1520.45   85.59
  -4  -3   1 1524.85   99.99
   4   3   0  647.94   45.10
  -4   3   0  619.94   44.70
   4   3   0  668.23   50.89
   4   3   0  600.44   55.89
   4  -3   0  740.83   49.30
   4  -3   0  653.43   55.89
  -4   3  -1   -9.00    3.80
   4   3   1    6.50    6.00
   4   3   1   -7.10    7.90
   4  -3   1   -7.50    6.60
   4  -3   1  -10.60    4.50
   4   3   2 2918.01  119.59
  -4   3  -2 2807.22   86.99
   4   3   2 2759.02   85.99
  -4   3  -2 2822.62  111.09
   4  -3   2 2763.52  116.39
   4  -3   2 2758.82  129.09
  -4   3  -3  557.94   52.69
   4   3   3  579.24   52.39
  -4   3  -3  599.74   41.00
   4  -3   3  577.14   57.69
   4   3   4  219.08   39.30
  -4   3  -4  220.78   27.90
  -4   3  -4  231.18   32.00
   4  -3   4  287.97   40.70
  -4   3  -5  529.95   52.19
  -4   3  -5  406.46   41.60
   4  -3   5  519.45   57.59
  -4   3  -6   10.70   13.30
  -4   3  -6   12.40   13.60
   4  -3   6   16.30   16.20
  -4   3  -7  122.19   32.30
  -4   3  -7   42.00   21.60
   4  -3   7  101.89   31.40
  -4   3  -8   66.69   26.90
  -4   3  -8   64.69   26.70
   4  -3   8   87.89   29.80
  -4   3  -9  144.59   38.20
  -4   3  -9  161.48   38.40
   4  -3   9  140.09   38.40
  -4  -3  -9  175.08   49.10
  -4   3 -10  130.39   42.40
  -4   3 -10  187.18   45.10
   4  -3  10  173.68   45.70
  -4  -3 -10  166.98   45.90
  -4   3 -11  565.74   75.29
  -4   3 -11  706.63   79.89
  -4  -3 -11  746.03   91.69
   4  -3  11  617.84   79.89
  -4   3 -12  202.98   54.49
  -4   3 -12  178.18   48.60
   4  -3  12  196.38   50.99
  -4  -3 -12  111.59   48.90
  -4   3 -13  107.89   45.50
  -4   3 -13   60.49   34.70
   4  -3  13   89.19   35.10
  -4  -3 -13   62.59   32.00
  -4   3 -14  509.85   94.99
   4  -3  14  527.75   92.89
   4   4 -15  354.06   72.39
   4  -4 -15  250.57   51.89
   4  -4 -15  262.37   54.89
   4   4 -14   85.29   33.30
   4   4 -14    4.10   33.50
   4  -4 -14   77.49   34.30
   4  -4 -14   15.90   29.00
   4   4 -13  -10.30   23.50
   4   4 -13    0.80   20.70
   4  -4 -13    6.30   19.80
   4  -4 -13   33.50   43.90
  -4  -4  13   45.30   32.60
   4   4 -12  -21.50   16.10
   4   4 -12   22.50   19.20
  -4  -4  12    6.90   25.20
   4  -4 -12   22.80   19.40
   4  -4 -12    0.90   16.30
   4   4 -11   16.40   16.10
   4  -4 -11    3.30   15.80
   4  -4 -11   -4.30   11.00
  -4  -4  11   18.60   17.30
   4   4 -10  138.99   36.00
   4   4 -10  147.79   40.20
   4  -4 -10  112.19   35.60
   4  -4 -10  152.28   27.70
   4  -4 -10  131.09   25.00
  -4  -4  10   76.39   32.10
   4   4  -9  146.89   35.90
   4   4  -9  117.09   34.50
   4  -4  -9  198.38   36.80
  -4  -4   9   94.19   32.80
   4  -4  -9  108.49   23.20
   4   4  -8    2.90   11.90
   4   4  -8   17.60   16.50
  -4  -4   8   31.20   14.60
   4  -4  -8   -0.90   11.60
   4  -4  -8   28.40   11.70
   4  -4  -8   20.70   13.50
   4   4  -7   -0.20   11.60
   4  -4  -7    7.30    8.90
   4  -4  -7   -9.90    9.40
  -4  -4   7   22.40   17.30
   4   4  -6  147.89   33.60
   4   4  -6  124.49   32.10
  -4  -4   6  127.29   35.10
   4  -4  -6  179.18   20.30
   4  -4  -6  178.38   33.30
   4   4  -5 1064.19   74.89
   4   4  -5 1104.29   83.69
  -4  -4   5 1120.59   87.49
   4  -4  -5 1030.80   71.89
   4   4  -4   98.59   25.00
   4   4  -4  110.79   26.40
  -4  -4   4  157.28   35.30
   4  -4  -4  113.99   28.60
   4   4  -3 1006.40   78.49
   4   4  -3 1028.40   70.09
   4  -4  -3 1043.30   74.79
  -4  -4   3 1168.08   84.99
   4   4  -2   36.30   16.10
  -4   4   2   13.20   10.50
   4   4  -2   51.39   17.40
   4  -4  -2   11.70   13.10
  -4  -4   2   40.50   19.60
   4   4  -1   18.60   13.10
   4   4  -1   54.79   16.70
   4  -4  -1   48.20   16.90
  -4  -4   1   37.10   17.20
   4   4   0  173.58   33.00
  -4   4   0  172.48   33.20
  -4  -4   0  148.19   29.80
   4  -4   0  119.39   30.80
   4   4   1   17.80    8.80
  -4   4  -1    4.80   10.30
   4   4   1    6.40   10.80
   4  -4   1   18.00   10.40
  -4   4  -2  545.45   53.59
   4   4   2  529.25   39.70
   4   4   2  560.94   53.59
   4  -4   2  595.64   63.29
  -4   4  -3  198.38   38.30
  -4   4  -3  207.58   23.30
   4   4   3  262.77   45.00
   4   4   3  221.78   23.30
   4  -4   3  242.18   47.90
   4   4   4   31.00   14.60
  -4   4  -4   70.39   21.90
  -4   4  -4   16.90   15.00
  -4   4  -5   -3.50    9.30
  -4   4  -5   13.50   12.80
   4  -4   5  -32.40   13.30
  -4   4  -6   92.79   26.70
  -4   4  -6  145.29   32.00
   4  -4   6  127.59   40.00
  -4   4  -7  467.25   57.39
  -4   4  -7  535.85   58.89
   4  -4   7  480.15   80.29
  -4   4  -8 1389.66  105.09
  -4   4  -8 1399.86   97.39
   4  -4   8 1378.76  116.29
  -4   4  -9  560.24   65.89
  -4   4  -9  508.75   67.69
   4  -4   9  332.97   65.39
  -4   4 -10  -17.70   23.50
  -4   4 -10   50.59   25.00
  -4  -4 -10  -18.50   25.40
   4  -4  10   82.59   41.50
  -4   4 -11   18.70   28.50
  -4   4 -11   50.19   27.70
   4  -4  11   20.60   25.00
  -4  -4 -11   -5.60   18.80
  -4   4 -12   45.20   37.70
  -4   4 -12   58.59   38.20
   4   5 -13   55.39   34.10
   4  -5 -13   25.60   35.20
   4   5 -12   46.90   31.20
   4  -5 -12   51.89   31.00
   4   5 -11  456.65   80.59
   4   5 -11  353.66   63.09
   4  -5 -11  359.36   55.09
   4  -5 -11  336.97   63.69
  -4  -5  11  365.86   73.89
   4   5 -10  350.36   63.69
   4   5 -10  207.58   67.99
   4  -5 -10  283.07   44.00
   4   5  -9  547.15   63.19
   4   5  -9  481.85   64.69
  -4  -5   9  394.06   73.59
   4  -5  -9  564.94   51.19
   4  -5  -9  501.25   46.60
   4   5  -8   80.69   29.10
   4   5  -8   81.99   29.00
   4  -5  -8  157.18   34.10
  -4  -5   8  131.39   45.80
   4   5  -7  164.38   35.90
   4   5  -7  194.98   44.90
  -4  -5   7  130.19   37.70
   4  -5  -7  215.38   41.80
   4   5  -6   21.20   16.60
   4   5  -6   17.70   18.30
   4  -5  -6  -16.10   13.10
  -4  -5   6   12.00   19.30
   4   5  -5   11.70   13.60
   4   5  -5   -1.40   12.80
   4  -5  -5   18.40   10.40
  -4  -5   5  -18.10   17.40
   4   5  -4   99.99   33.80
   4   5  -4   90.39   24.20
  -4  -5   4  137.79   39.20
   4  -5  -4   78.99   26.40
   4   5  -3   33.60   16.70
   4   5  -3   24.80   13.50
  -4  -5   3   -7.40   16.50
   4  -5  -3   42.80   18.80
   4   5  -2   23.60   20.80
   4   5  -2   78.59   25.70
   4  -5  -2   38.40   23.60
  -4  -5   2   50.79   23.20
  -4   5   1  198.18   39.00
   4   5  -1  131.19   39.30
   4   5  -1  200.98   38.80
  -4  -5   1  185.58   39.20
   4  -5  -1  238.58   46.60
  -4   5   0   98.09   26.10
   4   5   0  118.69   30.10
   4  -5   0  106.29   29.20
  -4  -5   0   90.39   26.80
   4   5   1  790.82   67.39
  -4   5  -1  907.11   76.89
   4  -5   1 1032.80   93.19
   4   5   2  488.05   55.39
  -4   5  -2  535.65   57.69
   4  -5   2  328.47   64.09
   4   5   3    2.30   13.80
  -4   5  -3   66.59   28.00
   4  -5   3    5.80   18.80
  -4   5  -4   58.99   23.30
   4  -5   4   33.80   21.80
  -4   5  -5  517.05   45.60
  -4   5  -5  616.04   67.29
   4  -5   5  593.84   75.79
  -4   5  -6   -8.60   16.80
  -4   5  -6   16.60   21.50
   4  -5   6   40.90   23.60
  -4   5  -7   35.90   23.80
  -4   5  -7  -16.60   22.10
   4  -5   7   13.20   27.20
  -4   5  -8   41.70   28.10
  -4   5  -8   54.59   22.60
   4  -5   8   40.70   30.60
  -4   5  -9  297.57   59.39
  -4   5  -9  375.86   81.29
  -4   5 -10   77.79   48.90
  -4   5 -10   16.40   29.20
   4   6  -9   51.49   31.60
   4   6  -8   35.30   26.10
  -4  -6   8   49.40   31.80
   4   6  -7   18.60   23.60
   4   6  -7    0.50   19.60
   4  -6  -7  -47.40   19.90
  -4  -6   7  -26.50   25.60
   4   6  -6  295.57   51.29
   4   6  -6  146.59   44.50
   4  -6  -6  233.88   52.69
  -4  -6   6  306.27   61.99
   4   6  -5   76.99   32.80
   4   6  -5   66.59   27.40
   4  -6  -5   31.80   28.60
  -4  -6   5   75.19   30.60
   4   6  -4  126.29   42.80
   4   6  -4   69.09   32.80
   4  -6  -4   91.39   32.80
  -4  -6   4  122.29   39.10
   4   6  -3   25.10   22.60
   4  -6  -3   -6.10   22.60
  -4  -6   3   58.39   23.30
   4   6  -2  192.08   62.39
   4   6  -2  144.09   38.30
  -4  -6   2  127.79   40.70
   4  -6  -2  194.48   49.20
   4   6  -1   -7.00   20.40
   4  -6  -1   -6.30   18.30
  -4  -6   1   94.99   29.30
   4   6   0  166.58   38.40
  -4   6   0  152.08   39.00
   4  -6   0  121.99   40.10
   4   6   1   51.89   38.50
  -4   6  -1  -22.10   18.20
   4  -6   1  -17.40   22.70
  -4   6  -2  622.74   69.99
   4   6   2  649.83   65.69
   4  -6   2  554.74   74.29
   4  -6   3  -52.29   19.70
  -4   6  -4   16.00   24.30
   4  -6   4   -4.50   25.90
  -4   6  -5  -19.80   27.70
   4  -6   5   20.70   39.20
   5   0 -18   54.59   29.60
   5   0 -18   82.59   36.50
   5   0 -17  -22.70   36.40
   5   0 -16  131.79   41.20
   5   0 -16  118.99   37.80
   5   0 -15   12.20   15.60
   5   0 -15  -24.80   13.90
   5   0 -14   25.40   31.50
   5   0 -14  -22.70   15.40
   5   0 -13   41.10   16.30
   5   0 -13  -10.40   10.80
   5   0 -12 2732.63  140.29
   5   0 -12 2748.23  144.39
   5   0 -11   10.50   10.80
   5   0 -11   -1.30    8.20
   5   0 -10  577.44   54.29
   5   0 -10  616.94   59.29
   5   0  -9   -4.20    6.10
  -5   0   9   -5.80    8.40
   5   0  -9    2.70    9.70
  -5   0   8   34.70   13.00
  -5   0   8   34.80   13.70
   5   0  -8   20.30    9.80
   5   0  -8    6.50   11.50
   5   0  -8   48.90   16.40
   5   0  -7    1.10    5.00
   5   0  -7   -2.30    5.40
  -5   0   7    2.10    6.00
   5   0  -6  274.87   25.90
  -5   0   6  272.67   29.60
   5   0  -6  340.37   33.00
  -5   0   6  293.87   26.90
   5   0  -5    1.80    4.50
   5   0  -5    0.60    3.60
  -5   0   5    2.50    3.10
  -5   0   5    9.10    5.90
  -5   0   4 1349.86   60.69
   5   0  -4 1338.27   47.00
  -5   0   4 1368.66   48.90
   5   0  -4 1307.47   59.79
  -5   0   3    4.30    2.80
   5   0  -3    0.40    2.90
  -5   0   3   -1.50    2.80
  -5   0   2 3235.68   97.39
   5   0  -2 3352.26   97.99
  -5   0   2 3492.25   78.49
   5   0  -2 3533.85  107.89
  -5   0   1   -1.20    3.50
   5   0  -1   -0.40    3.00
  -5   0   1   -3.50    2.40
  -5   0   1   -1.70    2.30
   5   0  -1   -1.20    2.10
  -5   0   0 3975.20  117.19
   5   0   0 4150.08  116.59
  -5   0   0 4046.70  114.49
   5   0   0 4092.19  115.29
   5   0   1   -3.70    3.10
  -5   0  -1    5.20    3.50
  -5   0  -1   -0.80    3.60
   5   0   1    1.10    3.60
  -5   0  -1   10.30    5.30
   5   0   2  970.80   55.99
   5   0   2  998.30   50.09
  -5   0  -2 1029.40   51.99
  -5   0  -2  931.51   53.59
  -5   0  -2  930.91   54.39
  -5   0  -3    5.30    4.90
  -5   0  -3    1.00    5.20
   5   0   4  696.03   44.30
  -5   0  -4  780.52   55.29
  -5   0  -4  746.23   45.70
  -5   0  -4  723.63   56.59
  -5   0  -5    2.50    5.60
  -5   0  -5   17.70    8.70
   5   0   5   -0.80    6.30
  -5   0  -6  786.12   50.39
   5   0   6  723.03   48.40
  -5   0  -6  714.83   64.39
  -5   0  -7   12.30   11.50
   5   0   7   15.50   11.10
  -5   0  -7    1.40    7.20
  -5   0  -8   -1.20   10.40
  -5   0  -8    7.60   10.70
   5   0   8   15.60    9.70
   5   0   9   -5.50    9.50
  -5   0  -9   28.00   13.60
   5   0  10  593.04   53.49
  -5   0 -10  574.34   71.39
   5   0  11  -16.20   13.10
  -5   0 -11   -1.60   16.60
  -5   0 -12  442.26   79.19
   5   0  12  347.97   51.09
  -5   0 -13   -1.50   16.10
   5   0  13    1.20   21.10
  -5   0 -14   95.89   37.10
   5   1 -18   72.09   39.00
   5  -1 -18  115.89   43.00
   5  -1 -18  127.39   37.60
   5   1 -17   32.40   33.80
   5  -1 -17   63.49   37.00
   5  -1 -17   29.10   29.50
   5   1 -16   13.50   23.20
   5   1 -16   -8.90   24.80
   5  -1 -16   10.60   20.00
   5  -1 -16   -5.30   19.10
   5   1 -15    5.70   20.70
   5   1 -15    6.10   20.30
   5  -1 -15   27.10   19.70
   5  -1 -15   -2.80   17.70
   5   1 -14   -2.30   19.00
   5   1 -14    8.40   16.30
   5  -1 -14   27.70   18.40
   5  -1 -14   33.60   20.40
   5   1 -13  809.32   77.29
   5   1 -13  804.82   87.99
   5  -1 -13  774.32   75.09
   5  -1 -13  709.83   72.09
   5   1 -12    0.10   10.50
   5   1 -12   -4.50   11.30
   5  -1 -12    5.00   12.10
   5  -1 -12  -18.30    8.00
   5   1 -11  703.83   64.79
   5   1 -11  525.85   60.19
   5  -1 -11  671.43   62.69
   5  -1 -11  512.75   55.59
   5   1 -10   52.49   20.60
   5   1 -10   56.69   21.00
   5  -1 -10   57.89   19.00
   5  -1 -10    7.70   15.30
   5  -1 -10   64.59   19.90
   5   1  -9  242.58   33.30
   5   1  -9  177.78   34.80
   5  -1  -9  127.19   27.70
   5  -1  -9  164.18   32.80
   5   1  -8  141.09   30.10
   5   1  -8  169.38   32.40
   5  -1  -8  159.78   29.40
   5  -1  -8  140.29   27.50
  -5  -1   8  150.18   30.00
   5  -1  -8  176.08   30.90
   5   1  -7  213.28   28.40
   5   1  -7  243.68   33.50
   5   1  -7  184.18   34.00
   5  -1  -7  239.08   25.80
  -5  -1   7  196.68   46.00
  -5  -1   7  195.58   27.00
   5  -1  -7  261.47   28.70
   5  -1  -7  170.18   30.40
   5   1  -6  162.28   30.90
   5   1  -6  160.48   26.80
   5   1  -6  200.08   34.50
   5  -1  -6  194.38   25.40
  -5  -1   6  180.68   29.70
   5  -1  -6  192.88   21.10
  -5  -1   6  137.79   25.30
   5  -1  -6  180.38   21.40
   5   1  -5 2603.64  102.49
  -5   1   5 2586.04   84.39
   5   1  -5 2586.74   91.99
   5   1  -5 2496.55  103.99
   5  -1  -5 2269.37   94.59
  -5  -1   5 2280.77   97.19
   5  -1  -5 2529.05   84.59
   5  -1  -5 2542.95   97.19
  -5  -1   5 2535.15   91.79
   5   1  -4  110.49   21.10
  -5   1   4  130.99   15.10
   5   1  -4  128.59   17.00
   5  -1  -4  125.09   14.60
  -5  -1   4   88.69   16.40
   5  -1  -4  151.18   25.80
   5   1  -3    4.80    3.50
  -5   1   3   14.50    4.70
   5   1  -3    1.30    3.00
  -5   1   3    6.50    4.00
   5  -1  -3   -1.70    4.10
   5  -1  -3    6.60    3.30
  -5  -1   3    7.20    5.70
  -5   1   2  196.58   23.90
  -5   1   2  208.08   16.60
   5   1  -2  180.38   19.80
   5   1  -2  192.08   22.30
  -5  -1   2  208.08   21.00
   5  -1  -2  187.48   15.00
   5  -1  -2  219.68   24.50
  -5  -1   2  180.88   22.70
   5   1  -1  313.67   29.00
  -5   1   1  348.97   21.20
  -5   1   1  333.77   31.50
   5  -1  -1  320.07   30.40
  -5  -1   1  328.87   30.50
  -5  -1   1  306.37   26.20
  -5   1   0  645.64   31.00
  -5   1   0  677.03   33.80
  -5   1   0  648.54   44.80
   5   1   0  592.04   42.10
   5   1   0  649.74   37.80
   5  -1   0  642.44   31.80
   5  -1   0  693.03   35.80
  -5  -1   0  625.54   43.00
   5  -1   0  785.62   48.80
  -5  -1   0  673.23   41.10
  -5   1  -1   14.00    6.70
   5   1   1   18.00    9.70
   5   1   1   17.30    6.60
  -5   1  -1   20.30    8.00
  -5   1  -1    8.10    6.80
   5  -1   1   16.60    9.20
  -5  -1  -1   17.00   14.10
   5  -1   1   13.80    6.50
   5   1   2    7.00    4.80
  -5   1  -2    8.30    5.50
  -5   1  -2   -2.10    5.90
  -5   1  -2    0.10    5.30
   5   1   2    2.00    6.70
   5  -1   2   10.10    5.40
   5  -1   2   13.90    7.00
  -5  -1  -2   -3.70    6.60
  -5   1  -3  824.92   51.99
  -5   1  -3  874.01   56.39
   5   1   3  844.32   58.79
  -5   1  -3  840.62   54.69
   5   1   3  839.72   38.70
   5  -1   3  847.62   53.89
   5  -1   3  860.51   56.09
  -5  -1  -3  873.31   58.99
  -5   1  -4  170.38   31.90
  -5   1  -4  163.28   28.70
  -5   1  -4  172.98   30.00
   5   1   4  166.88   16.50
   5  -1   4  170.38   31.80
   5  -1   4  200.58   27.80
  -5   1  -5 2772.42  121.69
   5   1   5 2301.27   71.79
  -5  -1  -5 2212.08   73.49
  -5  -1  -5 2420.96  120.99
   5  -1   5 2424.66  106.29
  -5   1  -6  791.22   67.19
   5   1   6  671.83   36.10
  -5  -1  -6  725.73   37.50
   5  -1   6  740.43   58.09
  -5  -1  -6  669.13   64.99
  -5   1  -7  596.64   59.89
   5   1   7  506.55   31.70
  -5  -1  -7  531.05   33.10
  -5  -1  -7  472.35   56.09
   5  -1   7  443.46   48.00
  -5   1  -8   41.20   19.50
   5   1   8  -10.10    7.20
  -5  -1  -8   11.70   11.40
  -5  -1  -8   12.50    7.90
   5   1   9  255.77   25.70
  -5   1  -9  300.67   58.09
  -5  -1  -9  272.77   25.60
  -5  -1  -9  299.67   56.89
   5  -1   9  327.57   42.50
  -5   1 -10   -0.20   16.40
   5  -1  10   51.99   22.20
  -5  -1 -10   12.90   21.10
  -5   1 -11   26.30   19.00
   5  -1  11   36.20   22.60
  -5  -1 -11   15.50   22.10
  -5   1 -12   18.50   20.80
  -5   1 -12   -6.50   15.20
  -5  -1 -12   15.20   21.90
   5  -1  12   -4.90   15.60
  -5   1 -13   18.30   23.00
  -5   1 -13  -44.60   18.60
   5  -1  13   59.39   27.60
  -5   1 -14  -16.90   23.50
  -5   1 -14   60.99   28.40
  -5  -1 -14  -11.70   28.80
   5  -1  14  -36.20   25.00
   5  -1  15  102.49   46.10
   5  -2 -18    9.90   37.50
   5  -2 -18   39.80   39.30
   5   2 -17   43.80   31.70
   5   2 -17   11.80   30.80
   5  -2 -17   13.70   24.50
   5  -2 -17   -6.40   20.90
   5   2 -16  345.07   68.79
   5   2 -16  417.36  122.19
   5  -2 -16  338.57   67.09
   5  -2 -16  254.57   53.69
   5  -2 -16  316.67   42.00
   5   2 -15   10.70   20.60
   5   2 -15   -4.30   17.20
   5  -2 -15   28.00   18.60
   5  -2 -15   19.90   20.90
   5  -2 -15   88.39   29.60
   5   2 -14    1.60   13.30
   5   2 -14  -35.20   17.30
   5  -2 -14   26.40   14.70
   5  -2 -14  -17.60   13.00
   5  -2 -14   23.70   19.20
   5   2 -13  531.15   66.99
   5   2 -13  610.44   72.79
   5  -2 -13  508.05   59.69
   5  -2 -13  500.95   47.80
   5  -2 -13  529.45   60.29
   5   2 -12  764.32   75.29
   5   2 -12  740.13  122.69
   5  -2 -12  709.53   56.89
   5  -2 -12  833.22   73.99
   5  -2 -12  902.31   75.29
   5   2 -11  503.45   59.39
   5   2 -11  653.53   68.09
   5  -2 -11  589.94   60.89
   5  -2 -11  581.14   57.99
   5  -2 -11  649.74   48.90
   5   2 -10   86.19   25.60
   5   2 -10   96.49   24.70
   5  -2 -10  107.19   26.20
   5  -2 -10   99.59   22.00
   5  -2 -10  124.49   29.40
   5   2  -9   12.10   10.20
   5   2  -9    8.60    9.50
   5  -2  -9   19.80   12.70
   5  -2  -9   18.30   10.10
   5  -2  -9   31.30   15.30
   5   2  -8   -2.90    6.20
   5   2  -8    9.60   11.10
   5  -2  -8    8.80    8.50
   5  -2  -8   15.30   10.60
   5  -2  -8   20.90   10.20
   5   2  -7  131.29   29.40
   5   2  -7  147.09   31.20
   5  -2  -7  130.49   25.90
   5  -2  -7  153.18   27.80
   5  -2  -7  166.18   22.00
   5   2  -6   78.19   26.30
   5   2  -6   43.20   17.80
   5  -2  -6   67.09   16.10
   5  -2  -6   58.59   13.40
   5  -2  -6   77.39   18.70
  -5   2   5  108.79   21.50
   5   2  -5  115.39   26.60
   5   2  -5  138.29   26.60
   5  -2  -5  134.19   14.40
  -5  -2   5  106.49   25.40
   5  -2  -5  142.49   26.40
   5  -2  -5  110.79   17.30
   5   2  -4 1771.32   85.09
  -5   2   4 1729.43   82.59
   5   2  -4 1775.42   89.69
   5   2  -4 1895.01   86.99
   5  -2  -4 1771.62   83.09
   5  -2  -4 1739.63   60.39
  -5  -2   4 1803.92   84.99
  -5  -2   4 1687.23   86.69
   5   2  -3    0.00    3.90
   5   2  -3    7.90    5.80
   5   2  -3    3.00    7.90
   5  -2  -3   11.90    7.70
  -5  -2   3   12.10    7.80
  -5  -2   3   -3.40    6.80
   5  -2  -3    6.40    4.10
   5   2  -2 1183.78   65.39
   5   2  -2 1134.49   64.89
  -5   2   2 1104.79   43.80
   5   2  -2 1069.89   62.79
  -5   2   2 1098.49   64.99
  -5  -2   2 1160.08   66.09
   5  -2  -2 1173.58   66.79
  -5  -2   2 1127.79   63.49
   5  -2  -2 1103.79   44.70
   5   2  -1 2113.39   86.29
  -5   2   1 1938.71   90.39
  -5   2   1 2001.60   64.89
   5   2  -1 1887.21   86.29
   5   2  -1 2049.20   90.59
  -5  -2   1 1973.80   87.89
   5  -2  -1 2038.60   68.09
  -5  -2   1 2099.39   90.59
   5  -2  -1 2025.80   92.79
  -5   2   0 3441.36  128.19
   5   2   0 3515.25  124.99
  -5   2   0 3490.35   99.59
   5   2   0 3645.94  113.49
   5  -2   0 3695.13  106.59
  -5  -2   0 3449.65  124.79
  -5  -2   0 3609.24  126.19
   5  -2   0 3481.55  129.69
  -5   2  -1 1006.40   51.59
  -5   2  -1 1072.89   44.50
   5   2   1  981.80   49.50
   5   2   1 1037.60   63.69
  -5  -2  -1 1074.19   66.49
   5  -2   1 1075.39   55.19
  -5  -2  -1  951.60   61.19
   5  -2   1 1020.30   67.39
   5   2   2  634.34   35.00
   5   2   2  659.33   33.50
  -5   2  -2  649.64   39.00
  -5   2  -2  618.34   43.90
   5   2   2  574.44   54.59
   5  -2   2  621.44   53.59
   5  -2   2  615.54   45.00
  -5   2  -3  169.88   28.70
   5   2   3  165.48   30.60
  -5   2  -3  209.08   24.40
   5  -2   3  157.38   28.30
   5  -2   3  168.58   32.70
  -5   2  -4  351.86   35.10
  -5   2  -4  337.37   37.30
   5   2   4  362.86   42.40
   5  -2   4  373.36   41.90
   5  -2   4  325.37   40.90
  -5   2  -5   99.59   26.50
   5  -2   5  100.49   25.30
  -5   2  -6   10.20   12.10
   5  -2   6   12.70   12.80
  -5   2  -7  113.59   32.10
   5  -2   7   47.30   22.20
  -5  -2  -7   73.69   30.40
  -5   2  -8   52.79   22.00
  -5   2  -8   16.10   15.40
  -5  -2  -8    1.90   10.50
   5  -2   8   33.90   17.30
  -5   2  -9   84.49   27.40
  -5   2  -9   78.49   27.40
  -5  -2  -9   75.79   27.50
   5  -2   9   78.59   26.30
  -5   2 -10  150.98   41.90
  -5   2 -10  172.78   43.10
  -5  -2 -10  132.69   43.20
   5  -2  10  116.29   44.20
  -5   2 -11  491.45   64.99
  -5   2 -11  512.75   72.89
   5  -2  11  509.65   64.49
  -5  -2 -11  398.96   73.29
  -5   2 -12   25.70   26.80
  -5   2 -12    5.80   21.50
   5  -2  12   14.10   21.70
  -5  -2 -12  -16.00   18.40
  -5   2 -13  130.09   50.29
  -5   2 -13  173.88   56.79
  -5  -2 -13  144.49   52.39
   5  -2  13   80.09   36.50
   5  -2  14   24.20   33.70
   5  -3 -17   54.39   40.30
   5  -3 -17   54.79   33.80
   5   3 -16   42.50   28.60
   5   3 -16   -5.70   35.00
   5  -3 -16   55.29   32.60
   5  -3 -16   12.20   33.90
   5   3 -15   -8.90   26.60
   5   3 -15   -4.70   27.30
   5  -3 -15    9.70   21.10
   5  -3 -15   20.30   25.30
   5   3 -14   48.50   28.90
   5   3 -14   68.59   28.30
   5  -3 -14   72.49   23.60
   5  -3 -14   60.69   28.20
   5  -3 -14  186.18   41.80
   5   3 -13  582.44   70.59
   5   3 -13  396.96   68.89
   5  -3 -13  616.04   63.59
   5  -3 -13  482.75   42.90
   5  -3 -13  554.74   70.89
   5   3 -12   19.30   14.70
   5   3 -12   -7.30   13.30
   5  -3 -12    1.20   14.30
   5  -3 -12   23.90   13.70
   5  -3 -12   21.70   13.40
   5   3 -11  119.99   30.50
   5   3 -11  183.88   43.80
   5  -3 -11   59.09   24.70
   5  -3 -11  150.28   33.80
   5  -3 -11  147.19   27.50
   5   3 -10   39.70   19.10
   5   3 -10    6.00   13.90
   5  -3 -10   65.59   21.40
   5  -3 -10   15.30   17.10
   5  -3 -10   37.00   14.80
   5   3  -9   45.30   20.00
   5   3  -9  102.19   29.90
   5  -3  -9   68.29   20.00
   5  -3  -9   67.89   22.40
  -5  -3   9   64.39   28.20
   5  -3  -9  113.29   26.10
   5  -3  -9   69.69   18.10
   5   3  -8  716.83   65.79
   5   3  -8  695.73   64.19
   5  -3  -8  716.43   48.50
   5  -3  -8  716.23   57.79
   5  -3  -8  677.63   53.99
   5  -3  -8  654.63   51.59
  -5  -3   8  548.25   64.09
   5   3  -7  293.17   40.20
   5   3  -7  291.07   38.90
   5  -3  -7  313.27   33.00
   5  -3  -7  257.97   25.50
  -5  -3   7  322.07   55.99
   5  -3  -7  314.07   34.20
   5  -3  -7  286.87   27.60
   5   3  -6 2406.86  118.19
   5   3  -6 2421.56  116.09
   5  -3  -6 2390.56   73.79
   5  -3  -6 2284.27   74.59
   5  -3  -6 2349.17  104.79
  -5  -3   6 2441.86  129.19
   5  -3  -6 2321.67   93.99
   5   3  -5  217.18   40.30
   5   3  -5  222.78   37.20
  -5  -3   5  213.38   41.90
   5  -3  -5  235.28   32.40
   5  -3  -5  275.37   33.90
   5   3  -4  475.55   45.60
   5   3  -4  482.85   49.40
   5  -3  -4  469.65   36.60
  -5  -3   4  459.25   49.30
   5   3  -3   53.79   17.20
   5   3  -3   52.49   17.70
   5  -3  -3   73.19   20.30
   5  -3  -3   50.99   13.50
   5   3  -2  133.19   28.80
   5   3  -2  123.89   27.40
   5   3  -2   93.49   20.60
  -5   3   2  151.38   20.30
   5  -3  -2  141.39   19.40
   5  -3  -2  116.99   27.20
   5   3  -1  295.87   38.70
   5   3  -1  354.96   35.20
  -5   3   1  318.27   30.00
   5   3  -1  348.07   37.30
   5  -3  -1  337.77   40.50
   5  -3  -1  359.56   32.40
  -5   3   0  216.18   26.00
   5   3   0  276.97   34.10
   5   3   0  249.28   28.50
   5  -3   0  261.07   34.70
   5  -3   0  212.98   40.60
   5   3   1  136.99   28.40
  -5   3  -1  151.58   26.60
   5   3   1  154.08   21.30
   5  -3   1  149.09   27.40
   5  -3   1  135.29   31.80
  -5   3  -2   58.89   17.50
   5   3   2   64.79   19.30
  -5   3  -2   32.50   10.00
  -5   3  -2   32.10   10.30
   5   3   2   57.49   12.20
   5  -3   2   31.00   13.90
   5  -3   2   54.19   17.00
   5   3   3   74.49   21.40
  -5   3  -3  105.69   24.60
  -5   3  -3   87.89   17.20
   5  -3   3   93.29   25.80
  -5   3  -4  737.73   59.59
  -5   3  -4  736.43   51.39
   5   3   4  702.43   63.49
   5  -3   4  766.42   69.09
  -5   3  -5   71.39   24.10
  -5   3  -5   35.30   14.10
   5  -3   5   93.09   30.90
  -5   3  -6 1291.47   90.29
  -5   3  -6 1336.77   83.89
   5  -3   6 1261.37   99.09
  -5   3  -7   -5.20   12.10
  -5   3  -7   -7.70   12.90
   5  -3   7  -25.30   12.00
  -5   3  -8   47.50   23.00
  -5   3  -8   54.79   29.40
   5  -3   8   32.00   24.40
  -5   3  -9  171.58   44.50
  -5   3  -9  155.28   45.60
  -5  -3  -9  163.38   45.00
   5  -3   9  104.09   37.00
  -5   3 -10   71.39   35.70
  -5   3 -10   79.69   32.20
   5  -3  10   78.49   36.50
  -5  -3 -10   99.79   32.70
  -5   3 -11  -21.40   22.30
  -5   3 -11    3.20   24.30
  -5  -3 -11  -57.69   23.20
   5  -3  11   17.10   21.40
  -5   3 -12   47.10   26.40
  -5   3 -12   20.60   25.20
   5  -3  12   43.70   26.20
  -5  -3 -12   36.00   25.40
  -5   3 -13   39.10   22.90
  -5   3 -13   -7.60   29.50
   5  -3  13   73.29   37.30
   5   4 -15  -10.30   29.00
   5  -4 -15  -42.50   26.00
   5  -4 -15   -9.10   30.80
   5   4 -14  202.48   55.79
   5   4 -14  344.37   64.89
   5  -4 -14  183.98   48.10
   5  -4 -14  187.38   47.50
   5   4 -13  504.55   85.99
   5   4 -13  587.54  127.79
   5  -4 -13  663.13   70.09
   5  -4 -13  779.72   81.49
   5   4 -12  -12.40   21.10
   5   4 -12    5.50   16.40
   5  -4 -12   28.70   17.90
   5  -4 -12   21.00   15.60
   5  -4 -12   26.50   21.60
   5   4 -11  280.77   56.49
   5   4 -11  342.47   61.99
   5  -4 -11  306.57   52.49
   5  -4 -11  382.66   53.29
  -5  -4  11  373.66   73.29
   5  -4 -11  323.17   44.80
   5   4 -10  502.65   63.69
   5   4 -10  447.76   61.89
   5  -4 -10  543.15   49.10
   5  -4 -10  454.85   48.20
  -5  -4  10  544.95   75.69
   5  -4 -10  492.15   56.19
   5   4  -9   26.10   20.20
   5   4  -9   45.30   22.90
   5  -4  -9   -1.00   14.30
   5  -4  -9   24.80   15.80
   5  -4  -9   40.00   17.60
  -5  -4   9  -31.70   17.70
   5   4  -8  100.69   30.70
   5   4  -8  112.59   34.70
   5  -4  -8  155.08   23.70
   5  -4  -8  130.59   30.60
  -5  -4   8  147.99   37.70
   5  -4  -8  147.69   22.70
   5   4  -7   -3.30   10.50
   5   4  -7   14.80   11.00
   5  -4  -7   16.30   10.60
  -5  -4   7   -2.30    7.80
   5   4  -6    6.40   13.80
   5   4  -6   26.10   13.90
  -5  -4   6   17.10   14.20
   5   4  -5   49.60   19.00
   5   4  -5   33.60   16.50
   5  -4  -5   18.80   14.00
  -5  -4   5   67.19   24.90
   5   4  -4  407.66   49.70
   5   4  -4  354.66   42.30
   5  -4  -4  320.47   42.70
  -5  -4   4  423.76   51.89
   5   4  -3   75.19   23.40
   5   4  -3   51.99   24.40
  -5  -4   3   73.49   24.90
   5  -4  -3   75.19   24.50
  -5   4   2   -0.10   11.70
   5   4  -2   25.80   14.70
   5   4  -2   -9.50    8.70
   5  -4  -2    1.70    9.30
   5   4  -1 1660.33   94.29
  -5   4   1 1671.43   86.39
   5   4  -1 1601.84  104.89
   5  -4  -1 1560.54  101.29
   5   4   0   18.60   14.30
  -5   4   0   17.10   11.00
   5  -4   0   12.90   10.80
   5   4   1  611.94   56.99
  -5   4  -1  588.14   53.29
   5   4   1  643.84   47.20
   5  -4   1  598.84   64.89
   5   4   2   54.49   15.60
   5   4   2   52.69   22.20
  -5   4  -2   40.60   17.70
   5  -4   2   42.80   19.00
  -5   4  -3   -1.30    9.60
   5   4   3   33.80   16.90
  -5   4  -3  -11.70    7.00
  -5   4  -3    3.80   10.00
   5  -4   3  -19.00   15.70
  -5   4  -4   39.40   14.10
   5   4   4   21.20   17.80
  -5   4  -4   36.40   14.90
   5  -4   4   21.00   16.10
  -5   4  -5   19.90   15.00
  -5   4  -5   35.40   16.10
   5  -4   5   31.30   18.80
  -5   4  -6  220.68   39.40
  -5   4  -6  244.38   46.00
   5  -4   6  294.07   57.09
  -5   4  -7   30.30   23.30
  -5   4  -7    2.10   13.20
   5  -4   7   38.30   19.80
  -5   4  -8   23.40   16.40
  -5   4  -8   27.70   22.70
   5  -4   8    7.10   17.00
  -5   4  -9   25.50   26.40
  -5   4  -9    9.80   21.90
   5  -4   9   -4.70   18.10
  -5   4 -10   -8.30   31.50
  -5   4 -10   31.80   22.30
   5  -4  10   50.79   26.10
  -5  -4 -10   -9.70   25.40
  -5   4 -11  385.16   76.79
  -5   4 -11  395.76   71.29
   5  -4  11  401.76   88.39
   5   5 -13  105.29   44.60
   5  -5 -13   70.79   35.10
   5   5 -12  -34.90   30.40
   5  -5 -12  -10.10   22.20
   5   5 -11    8.90   27.70
   5   5 -11  103.49   35.90
  -5  -5  11   53.79   26.40
   5  -5 -11  -11.60   20.70
   5   5 -10   64.59   24.60
   5   5 -10   13.50   19.20
   5  -5 -10  -16.90   15.00
  -5  -5  10   23.30   31.80
   5   5  -9  -22.30   16.10
   5   5  -9  -16.80   15.30
   5  -5  -9  -34.10   14.10
  -5  -5   9  -12.30   21.80
   5   5  -8   84.99   27.90
   5   5  -8   68.29   30.50
   5  -5  -8  100.79   28.10
  -5  -5   8   90.99   38.30
   5   5  -7 1305.27   97.19
   5   5  -7 1415.76  111.69
  -5  -5   7 1404.56  117.69
   5  -5  -7 1363.36   90.09
   5   5  -6  236.88   50.09
   5   5  -6  256.37   46.00
  -5  -5   6  224.28   50.29
   5  -5  -6  351.76   44.30
   5   5  -5   34.70   21.40
   5   5  -5   67.39   22.80
   5  -5  -5   62.79   21.00
  -5  -5   5   52.99   25.60
   5   5  -4   41.80   18.20
   5   5  -4   29.30   18.60
   5  -5  -4   37.90   20.30
  -5  -5   4   57.59   25.70
   5   5  -3   40.90   22.70
   5   5  -3   54.19   21.50
   5  -5  -3   29.70   22.10
  -5  -5   3   77.99   28.40
   5   5  -2   30.60   21.10
   5   5  -2   71.99   23.00
   5  -5  -2   95.19   44.20
  -5   5   1  293.27   41.80
   5   5  -1  267.77   46.20
   5  -5  -1  300.87   53.49
   5   5   0    1.10   13.00
  -5   5   0   22.50   12.90
   5  -5   0   16.90   13.60
   5   5   1  119.29   30.30
  -5   5  -1  177.68   38.30
   5  -5   1  106.89   34.20
  -5   5  -2    6.70   13.90
   5   5   2   63.09   29.60
   5  -5   2   -1.80   14.10
   5   5   3   38.10   27.30
  -5   5  -3    9.00   20.90
   5  -5   3   59.99   26.70
  -5   5  -4  131.39   36.70
   5   5   4  146.49   35.40
   5  -5   4  117.99   38.40
  -5   5  -5  215.08   32.60
  -5   5  -5  186.68   44.70
   5  -5   5  160.28   44.40
  -5   5  -6  369.36   49.99
  -5   5  -6  412.16   66.89
  -5   5  -7  105.29   39.80
  -5   5  -7  158.38   41.90
   5  -5   7  217.58   55.89
  -5   5  -8   -2.10   23.20
   5  -5   8   18.80   26.90
  -5   5  -9  -40.30   21.60
   5   6  -9   50.59   31.30
   5   6  -8   73.69   38.80
  -5  -6   8  194.08   61.69
   5   6  -7   12.20   23.30
   5   6  -7   35.90   26.90
   5  -6  -7   15.70   23.20
  -5  -6   7  -33.90   21.60
   5   6  -6  -23.00   22.40
   5   6  -6  -31.60   22.00
  -5  -6   6    7.30   26.50
   5  -6  -6   60.59   29.20
   5   6  -5   45.50   25.60
   5   6  -5   26.10   21.00
   5  -6  -5   24.00   26.50
  -5  -6   5   51.79   30.10
   5   6  -4   45.10   25.60
   5   6  -4   65.59   27.40
   5  -6  -4   22.70   25.80
   5   6  -3   22.80   17.20
   5   6  -3  -15.70   21.00
   5  -6  -3   -4.80   20.00
   5   6  -2   57.19   30.60
   5  -6  -2   14.50   27.60
   5   6  -1    5.70   21.90
   5  -6  -1   48.70   26.80
   5   6   0  313.27   51.69
  -5   6   0  212.78   45.70
   5  -6   0  301.57   61.99
   5   6   1   21.30   28.20
  -5   6  -1  -13.20   21.50
   5  -6   1   81.59   38.60
  -5   6  -2   19.50   23.60
   5   6   2  -40.90   19.70
   5  -6   2  -28.20   23.50
  -5   6  -3   36.70   22.40
   5  -6   3   12.30   23.20
  -5   6  -4   -5.80   26.70
   5  -6   4   61.29   30.40
  -5   6  -5   64.19   42.00
   6   0 -18  363.46   74.59
   6   0 -18  265.57   64.29
   6   0 -17   26.60   25.80
   6   0 -17   20.90   19.20
   6   0 -16  806.92   86.59
   6   0 -16  591.74   79.59
   6   0 -15   47.20   19.90
   6   0 -15   29.50   21.30
   6   0 -14   27.50   25.50
   6   0 -14   68.09   23.70
   6   0 -13  -26.70   10.20
   6   0 -13   -2.90   12.30
   6   0 -12 1070.99   87.69
   6   0 -12 1093.29   84.39
   6   0 -11   -9.40    8.10
   6   0 -11   10.90    9.70
   6   0 -10   -7.70    8.20
   6   0 -10    3.50    9.90
   6   0  -9  -14.90    5.70
  -6   0   9   -3.20    7.50
   6   0  -9   -2.90    5.80
  -6   0   8 3314.47  125.79
   6   0  -8 3633.24  138.29
   6   0  -8 3455.05  120.99
  -6   0   7   -3.80    5.90
   6   0  -7   -7.40    3.90
  -6   0   7   -5.80    7.00
   6   0  -7   -4.60    7.00
   6   0  -6 1035.20   61.09
   6   0  -6 1014.00   48.60
  -6   0   6  982.30   93.89
  -6   0   6 1066.09   52.19
   6   0  -5   -0.60    3.40
  -6   0   5   -3.00    4.00
   6   0  -5    6.00    3.50
   6   0  -4    2.10    2.20
  -6   0   4    6.60    4.30
  -6   0   4    8.30    5.30
   6   0  -4    1.10    3.80
   6   0  -3    0.40    2.30
   6   0  -3   -4.10    3.50
  -6   0   3    4.90    6.00
   6   0  -3    1.80    2.40
   6   0  -2 1430.96   62.09
   6   0  -2 1635.34   72.79
  -6   0   2 1531.35   64.79
  -6   0   2 1453.15   54.19
  -6   0   1   -4.40    3.60
   6   0  -1    7.30    4.90
   6   0  -1    6.30    4.40
  -6   0   1    1.90    2.60
  -6   0   1    3.50    3.70
   6   0   0 1500.75   67.19
  -6   0   0 1384.46   66.99
   6   0   0 1505.05   67.09
  -6   0   0 1404.16   64.29
   6   0   1   -2.10    2.30
  -6   0  -1   -2.10    5.00
  -6   0  -1   -1.20    4.50
   6   0   1    6.90    4.10
   6   0   2 4950.20  140.29
   6   0   2 4683.53  149.49
  -6   0  -2 4884.01  149.79
  -6   0  -2 4494.05  138.49
  -6   0  -2 4812.62  148.39
  -6   0  -3   10.80    7.00
   6   0   3    0.80    4.90
  -6   0  -3   13.00    8.00
  -6   0  -3    7.40    7.00
   6   0   4 2729.13  102.39
  -6   0  -4 2966.30  106.69
  -6   0  -4 2914.41  124.79
  -6   0  -5    8.80    8.20
   6   0   5    4.60    6.60
  -6   0  -5   -0.30    9.20
  -6   0  -6  938.21   75.99
   6   0   6  855.71   55.19
  -6   0  -6  790.52   53.79
   6   0   7    6.10    8.60
  -6   0  -7   -6.90    9.40
  -6   0  -8 2507.05  144.89
   6   0   8 2533.45  108.19
   6   0   9   -2.10    9.40
  -6   0  -9    2.20   15.50
  -6   0 -10   10.80   15.80
   6   0  10  -11.10   11.90
  -6   0 -11    0.80   14.20
   6   0  11   -3.40   17.30
  -6   0 -12  111.19   46.10
   6   0  12  204.78   38.80
   6   0  13   -5.90   25.90
  -6   0 -13   37.80   27.70
   6   1 -18  -21.90   33.80
   6  -1 -18   14.70   27.80
   6  -1 -18   44.30   32.40
   6  -1 -18  -34.40   24.40
   6   1 -17   -9.80   23.70
   6  -1 -17   21.30   19.20
   6  -1 -17  -12.30   23.70
   6   1 -16   64.49   30.00
   6  -1 -16   98.29   35.70
   6  -1 -16  103.99   33.70
   6   1 -15 2490.45  151.88
   6   1 -15 2410.06  157.78
   6  -1 -15 2350.06  147.09
   6  -1 -15 2621.14  156.18
   6   1 -14  154.98   38.30
   6   1 -14   63.49   25.60
   6  -1 -14  134.29   35.80
   6  -1 -14  102.49   35.50
   6   1 -13   26.20   15.10
   6   1 -13   23.90   17.90
   6  -1 -13    1.80   10.90
   6  -1 -13   22.00   15.20
   6   1 -12  -15.60   10.00
   6   1 -12   -9.10    7.90
   6  -1 -12  -15.80    9.80
   6  -1 -12   -7.70    7.20
   6   1 -11    4.70   10.70
   6   1 -11   41.30   16.20
   6  -1 -11   32.30   17.00
   6  -1 -11   -2.70   11.50
   6   1 -10  168.48   38.00
   6   1 -10  208.28   39.60
   6  -1 -10  207.98   37.80
   6  -1 -10  180.38   34.60
   6   1  -9 3323.77  144.59
   6   1  -9 3247.48  131.59
   6  -1  -9 3244.58  131.99
   6  -1  -9 3183.48  124.09
   6  -1  -9 3232.68  131.99
   6   1  -8    5.00    7.50
   6   1  -8    2.10    8.20
   6  -1  -8   12.00    7.60
  -6  -1   8   -8.80    6.50
   6  -1  -8    2.70    7.20
   6   1  -7 1515.75   75.89
  -6   1   7 1447.96   71.59
   6   1  -7 1395.86   87.29
   6  -1  -7 1549.84   74.19
   6  -1  -7 1523.45   66.49
   6  -1  -7 1452.85   79.49
  -6  -1   7 1373.46   73.99
   6   1  -6   18.40    8.60
  -6   1   6   35.90   12.20
   6   1  -6   18.10    9.50
   6   1  -6   12.70   11.80
   6  -1  -6   36.40   11.70
   6  -1  -6   18.50   10.00
   6  -1  -6   30.30    9.30
  -6  -1   6   11.70    8.70
  -6  -1   6   29.90   11.60
   6   1  -5  998.50   62.39
  -6   1   5  987.80   50.09
   6   1  -5  948.31   51.79
   6  -1  -5  954.00   48.00
  -6  -1   5  913.11   60.19
   6  -1  -5  934.11   59.39
  -6  -1   5  947.21   53.09
   6   1  -4  304.07   27.10
   6   1  -4  220.38   26.80
  -6   1   4  241.38   22.20
   6  -1  -4  286.07   22.90
  -6  -1   4  215.78   27.10
  -6  -1   4  253.57   25.00
   6  -1  -4  270.97   30.30
  -6   1   3  221.78   41.10
  -6   1   3  252.07   21.20
   6   1  -3  238.08   27.30
   6   1  -3  257.97   23.90
  -6  -1   3  220.78   39.20
   6  -1  -3  234.78   28.00
   6  -1  -3  247.88   20.10
  -6  -1   3  216.08   22.40
  -6   1   2  153.78   16.00
   6   1  -2  168.68   19.50
  -6   1   2   85.89   25.60
   6   1  -2  158.38   27.50
   6  -1  -2  164.18   15.90
  -6  -1   2  123.99   41.00
   6  -1  -2  155.28   27.20
  -6  -1   2  143.59   18.50
  -6   1   1 3375.76   94.69
  -6   1   1 3726.83  125.19
   6   1  -1 3438.06  116.89
  -6  -1   1 3451.45  107.59
   6  -1  -1 3377.86  119.09
  -6  -1   1 3358.66  116.79
   6  -1  -1 3506.25   96.59
  -6   1   0  234.78   21.30
   6   1   0  205.98   25.40
  -6   1   0  205.98   22.70
  -6   1   0  186.98   25.00
   6   1   0  209.88   22.70
   6  -1   0  208.58   21.30
   6  -1   0  195.98   26.40
  -6  -1   0  178.58   24.20
  -6  -1   0  223.58   24.70
   6   1   1 1040.80   51.79
   6   1   1 1257.37   68.69
  -6   1  -1 1148.69   54.69
  -6   1  -1 1190.48   57.39
  -6   1  -1 1231.08   68.29
   6  -1   1 1274.47   56.49
   6  -1   1 1170.58   66.09
  -6  -1  -1 1188.38   66.59
  -6   1  -2  213.38   27.60
  -6   1  -2  200.38   24.00
   6   1   2  145.39   18.00
   6   1   2  209.58   28.90
  -6   1  -2  188.48   29.10
   6  -1   2  128.49   22.60
   6  -1   2  176.58   31.80
  -6   1  -3  314.47   34.90
   6   1   3  348.87   39.10
   6   1   3  323.97   25.70
  -6   1  -3  329.27   35.30
  -6   1  -3  327.87   33.90
   6  -1   3  422.96   40.80
   6  -1   3  235.58   54.39
   6   1   4   14.60    5.90
  -6   1  -4    7.80    8.80
   6  -1   4   20.60   10.40
  -6  -1  -4    2.40    5.50
   6  -1   4   16.60    8.10
  -6   1  -5  718.73   61.39
   6   1   5  802.12   41.50
   6  -1   5  772.62   59.19
  -6  -1  -5  805.52   43.90
  -6  -1  -5  785.02   67.89
   6   1   6   17.30    8.10
  -6   1  -6   25.30   16.60
   6  -1   6   -2.50    8.90
  -6  -1  -6   19.50    7.70
  -6  -1  -6    0.00    7.80
  -6   1  -7  124.69   33.90
   6   1   7  134.09   20.70
  -6  -1  -7  101.59   30.00
   6  -1   7  122.79   30.20
  -6  -1  -7  123.29   19.40
  -6   1  -8  112.09   33.50
   6   1   8  126.19   20.70
  -6  -1  -8  124.09   33.00
   6  -1   8  106.79   28.50
  -6  -1  -8  100.49   18.60
  -6   1  -9 2147.79  138.09
  -6  -1  -9 2055.49   76.99
   6  -1   9 2095.99  115.49
  -6  -1  -9 2221.28  142.89
  -6   1 -10  103.09   33.20
   6  -1  10  149.99   36.60
  -6  -1 -10  231.78   54.79
  -6   1 -11   70.49   30.20
   6  -1  11   -7.10   15.40
  -6   1 -12   16.70   21.90
  -6  -1 -12    2.00   16.60
   6  -1  12   19.10   22.20
  -6   1 -13   48.50   32.20
  -6   1 -13   67.29   35.30
   6  -1  13   86.89   30.50
  -6  -1 -13   -5.20   22.30
   6  -1  14   73.99   39.00
   6  -2 -18  213.68   57.09
   6  -2 -18  198.38   53.49
   6   2 -17   22.20   26.70
   6   2 -17   57.59   36.50
   6  -2 -17   57.29   32.40
   6  -2 -17   15.80   24.90
   6  -2 -17    8.00   21.40
   6   2 -16  565.84   76.49
   6   2 -16  566.44  111.69
   6  -2 -16  454.75   63.69
   6  -2 -16  441.86   50.49
   6  -2 -16  513.15   70.09
   6   2 -15   54.89   34.50
   6   2 -15   79.19   31.30
   6  -2 -15  122.99   32.30
   6  -2 -15   32.70   19.10
   6  -2 -15   39.70   24.30
   6   2 -14   -3.90   13.40
   6   2 -14   -8.50   13.60
   6  -2 -14   10.60   18.80
   6  -2 -14   -1.80   13.10
   6   2 -13  -14.10   12.20
   6   2 -13   28.10   18.30
   6  -2 -13   -0.60    9.60
   6  -2 -13    4.70   13.40
   6  -2 -13  -12.20   10.00
   6   2 -12  799.02  134.99
   6   2 -12  748.43   72.89
   6  -2 -12  777.32   58.59
   6  -2 -12  765.62   69.39
   6  -2 -12  759.12   69.29
   6   2 -11   66.49   25.10
   6   2 -11   82.89   29.80
   6  -2 -11   33.60   14.60
   6  -2 -11   55.29   18.00
   6  -2 -11   61.79   23.00
   6   2 -10   52.79   20.80
   6   2 -10   19.50   13.80
   6  -2 -10   47.50   16.50
   6  -2 -10   33.80   19.10
   6  -2 -10   46.20   19.00
   6   2  -9  887.81   70.19
   6   2  -9  889.81   72.99
   6  -2  -9  892.71   63.49
   6  -2  -9  932.81   63.39
   6  -2  -9 1007.30   64.89
   6   2  -8 1339.47   88.39
   6   2  -8 1423.56   85.99
   6  -2  -8 1447.06   74.79
   6  -2  -8 1374.36   77.39
   6  -2  -8 1313.57   70.99
   6   2  -7  253.47   33.00
   6   2  -7  200.38   38.60
   6  -2  -7  316.47   28.90
   6  -2  -7  279.57   33.50
   6  -2  -7  298.07   28.90
   6   2  -6 1134.29   90.29
   6   2  -6 1151.18   76.99
   6  -2  -6 1290.57   58.59
   6  -2  -6 1245.48   72.39
   6  -2  -6 1254.47   53.89
   6  -2  -6 1295.57   55.59
   6   2  -5  406.96   41.90
   6   2  -5  367.56   38.20
  -6   2   5  392.56   39.80
   6  -2  -5  426.76   25.90
   6  -2  -5  378.96   24.90
   6  -2  -5  413.16   40.40
   6   2  -4  287.57   35.70
   6   2  -4  281.27   33.50
   6   2  -4  280.87   32.20
  -6   2   4  294.17   34.20
   6  -2  -4  308.47   20.10
  -6  -2   4  278.67   33.00
   6  -2  -4  250.57   31.30
  -6   2   3  237.68   32.30
   6   2  -3  333.17   34.40
   6   2  -3  308.97   34.20
   6   2  -3  312.87   36.40
   6  -2  -3  313.07   35.40
  -6  -2   3  294.87   32.50
   6   2  -2  214.68   28.30
   6   2  -2  260.37   49.10
  -6   2   2  217.48   16.80
   6   2  -2  261.77   30.90
   6  -2  -2  219.88   29.70
  -6  -2   2  251.97   29.00
   6   2  -1   -6.70    4.60
  -6   2   1    2.40    3.90
   6   2  -1    2.30    6.70
   6  -2  -1   -3.80    3.40
  -6  -2   1   -2.10    6.40
   6  -2  -1   -2.70    3.50
  -6   2   0 1740.93   55.39
   6   2   0 1674.53  107.09
   6   2   0 1720.73   75.49
  -6   2   0 1755.02   64.29
   6  -2   0 1705.93   95.39
   6  -2   0 1653.13   65.89
   6   2   1  232.58   39.30
  -6   2  -1  175.08   18.80
  -6   2  -1  154.48   20.60
   6   2   1  193.58   22.20
   6  -2   1  140.09   19.50
   6  -2   1  186.68   34.10
   6   2   2 2312.17  107.99
   6   2   2 2183.28   77.29
  -6   2  -2 2247.68   82.89
   6   2   2 2187.78   73.59
  -6   2  -2 2284.67   89.99
   6  -2   2 2017.90   88.69
   6  -2   2 2279.97  110.09
   6   2   3 1426.86   86.49
   6   2   3 1357.56   49.20
   6   2   3 1296.27   51.79
  -6   2  -3 1277.37   80.39
  -6   2  -3 1462.95   75.79
   6  -2   3 1374.46   86.39
   6  -2   3 1312.47   73.79
  -6   2  -4  135.19   29.40
   6   2   4   69.89   22.20
  -6   2  -4  104.69   24.20
   6  -2   4  100.99   27.30
  -6   2  -5  258.97   36.60
   6  -2   5  347.27   43.70
  -6   2  -6  689.23   63.29
   6  -2   6  694.43   66.59
  -6   2  -7  178.58   40.40
  -6  -2  -7  121.29   36.80
   6  -2   7  129.19   32.20
  -6   2  -8  999.90   87.19
   6  -2   8 1001.90   86.09
  -6  -2  -8  973.80   95.09
  -6   2  -9   96.69   34.10
  -6   2  -9  107.09   33.70
   6  -2   9   65.39   31.40
  -6  -2  -9   33.40   20.10
  -6   2 -10   17.60   22.80
  -6   2 -10  -11.80   15.40
   6  -2  10   27.40   21.00
  -6  -2 -10   65.59   30.10
  -6   2 -11   28.30   18.80
  -6   2 -11    2.60   22.80
  -6  -2 -11  -19.20   16.50
   6  -2  11  -13.60   19.60
  -6   2 -12   89.99   30.50
  -6   2 -12   64.09   31.90
  -6  -2 -12   79.79   35.00
   6  -2  12   80.29   32.70
  -6   2 -13   -1.10   30.60
  -6   2 -13   11.10   25.80
   6  -2  13   33.80   29.40
   6  -3 -17   44.30   35.90
   6  -3 -17    8.80   26.60
   6   3 -16  179.28   55.49
   6   3 -16  292.37   70.39
   6  -3 -16  276.27   54.29
   6  -3 -16  325.27   64.39
   6   3 -15  957.90  167.38
   6   3 -15 1264.47  170.08
   6  -3 -15  688.33   76.89
   6  -3 -15  714.23   57.19
   6  -3 -15  775.32   84.09
   6   3 -14  653.23   77.79
   6   3 -14  661.63   79.59
   6  -3 -14  749.92   78.29
   6  -3 -14  723.43   55.59
   6   3 -13  152.88   39.20
   6   3 -13  154.38   44.00
   6  -3 -13  212.88   42.10
   6  -3 -13  136.49   30.30
   6  -3 -13  140.79   33.80
   6   3 -12  -15.90   11.40
   6   3 -12    2.00   15.10
   6  -3 -12   -7.20   10.30
   6  -3 -12   14.70   11.80
   6   3 -11   10.70   11.40
   6   3 -11   19.70   20.00
   6  -3 -11   -9.00   14.40
   6  -3 -11   28.40   14.10
   6  -3 -11   25.50   14.00
   6   3 -10  340.47   47.70
   6   3 -10  323.47   56.79
   6  -3 -10  319.87   59.09
   6  -3 -10  232.28   31.20
   6  -3 -10  247.58   42.50
   6   3  -9  641.14   64.89
   6   3  -9  628.34   64.89
   6  -3  -9  702.53   55.99
   6  -3  -9  683.23   57.59
   6  -3  -9  695.23   51.09
   6   3  -8   66.39   21.30
   6   3  -8   41.30   15.80
   6  -3  -8   54.39   14.50
   6  -3  -8   44.80   23.30
   6  -3  -8  107.79   19.60
   6  -3  -8   37.90   17.10
   6  -3  -8   51.39   19.50
   6   3  -7  645.94   58.99
   6   3  -7  801.62   67.09
   6  -3  -7  686.83   55.89
   6  -3  -7  693.83   39.60
   6  -3  -7  738.23   39.20
   6  -3  -7  670.53   47.50
   6   3  -6   -2.40    6.90
   6   3  -6   13.20    9.50
   6  -3  -6    7.00    7.90
   6   3  -5  221.38   39.30
   6   3  -5  178.78   36.30
   6  -3  -5  228.88   39.50
   6  -3  -5  247.58   24.80
   6   3  -4  958.60   70.59
   6   3  -4  941.11   67.49
   6  -3  -4  928.61   67.79
   6  -3  -4  878.51   48.00
   6   3  -3  950.90   70.29
   6   3  -3  995.40   68.49
   6  -3  -3 1019.10   51.39
   6  -3  -3  981.30   70.19
   6   3  -2 1810.52   93.79
   6   3  -2 1707.53   90.09
  -6   3   2 1802.32   72.29
   6   3  -2 1610.34   94.29
   6  -3  -2 1694.73   71.09
   6  -3  -2 1755.52   97.19
   6   3  -1 1077.49   71.49
   6   3  -1 1090.29   66.79
   6   3  -1 1110.69   77.59
  -6   3   1 1086.69   56.19
   6  -3  -1 1162.48   80.19
   6  -3  -1 1077.09   58.09
   6   3   0   20.60   10.80
   6   3   0   -0.30    6.60
   6  -3   0   27.60   11.30
   6  -3   0   12.00    9.90
   6   3   1   61.89   19.50
   6   3   1   48.40   13.90
  -6   3  -1   47.00   15.30
   6  -3   1   14.00   13.20
   6  -3   1   21.80   12.80
   6   3   2  468.55   33.40
  -6   3  -2  504.05   33.60
  -6   3  -2  464.35   42.00
  -6   3  -2  452.25   31.80
   6   3   2  404.66   47.40
   6  -3   2  417.66   50.69
   6  -3   2  465.65   45.20
  -6   3  -3  759.42   57.29
   6   3   3  744.03   66.39
  -6   3  -3  816.92   50.39
  -6   3  -3  802.62   49.80
   6  -3   3  832.22   72.59
  -6   3  -4   59.89   17.60
   6   3   4  100.19   30.10
  -6   3  -4   84.39   22.50
  -6   3  -4   51.29   19.40
   6  -3   4   54.49   20.10
  -6   3  -5  516.75   52.89
   6  -3   5  475.75   59.89
  -6   3  -6    7.80   10.80
  -6   3  -6   18.40   17.50
   6  -3   6   24.20   24.00
  -6   3  -7   24.90   13.30
  -6   3  -7   34.90   21.90
   6  -3   7   -2.40   15.20
  -6   3  -8  586.74   63.99
  -6   3  -8  433.56   56.29
   6  -3   8  656.83   76.19
  -6  -3  -8  550.54   70.49
  -6   3  -9  374.46   65.89
  -6  -3  -9  287.67   63.69
   6  -3   9  318.07   67.79
  -6   3 -10  589.34   72.19
  -6   3 -10  609.74   73.39
   6  -3  10  608.64   78.49
  -6  -3 -10  695.73   87.79
  -6   3 -11   25.90   35.50
  -6   3 -11   59.39   28.50
  -6  -3 -11   75.69   34.70
   6  -3  11   44.80   33.20
  -6   3 -12   -5.20   20.70
  -6   3 -12   55.79   38.10
   6  -3  12   -9.30   27.90
   6   4 -15  127.79   43.50
   6  -4 -15   93.39   33.10
   6   4 -14   36.50   32.90
   6   4 -14   34.30   29.40
   6  -4 -14   15.90   46.50
   6  -4 -14   -2.50   22.10
   6   4 -13   11.10   21.50
   6   4 -13   15.30   36.60
   6  -4 -13  -20.90   21.90
   6  -4 -13  -30.70   15.20
   6  -4 -13  -34.60   18.20
   6   4 -12  632.94   74.99
   6   4 -12  703.83   80.19
   6  -4 -12  573.94   60.39
   6  -4 -12  584.74   50.39
   6  -4 -12  653.53   85.79
   6   4 -11  165.48   45.10
   6   4 -11   76.19   32.30
   6  -4 -11  104.59   25.20
   6  -4 -11  146.79   32.20
   6  -4 -11  174.38   38.60
   6   4 -10  857.41   82.69
   6   4 -10  816.62   84.89
   6  -4 -10  812.82   57.49
   6  -4 -10  780.72   69.29
   6  -4 -10  801.72   62.19
   6   4  -9  994.50   88.09
   6   4  -9 1015.50   86.19
   6  -4  -9  849.72   51.89
   6  -4  -9  872.61   71.79
   6  -4  -9 1000.60   69.59
   6  -4  -9  921.11   56.09
   6   4  -8  -22.20   10.40
   6   4  -8    8.30   14.80
   6  -4  -8   29.20   10.90
   6   4  -7  335.27   53.99
   6   4  -7  535.15   61.39
   6  -4  -7  435.66   47.30
   6   4  -6  367.56   65.09
   6   4  -6  470.15   53.49
   6  -4  -6  451.75   49.99
   6   4  -5   64.79   24.70
   6   4  -5   79.69   21.40
   6  -4  -5   64.99   26.20
   6   4  -4  832.22   73.89
   6   4  -4  830.62   68.99
   6  -4  -4  841.62   68.79
   6   4  -3  170.08   35.20
   6   4  -3  152.98   37.10
   6  -4  -3  175.88   37.30
  -6   4   2  139.39   27.00
   6   4  -2  174.78   36.00
   6   4  -2  180.08   41.70
   6  -4  -2  158.78   34.00
  -6   4   1   20.70    9.60
   6   4  -1   22.00   11.80
   6  -4  -1   16.10   13.70
  -6   4   0  643.64   51.39
   6   4   0  687.33   62.29
   6  -4   0  637.84   67.99
  -6   4  -1  137.39   27.60
   6   4   1  107.29   24.70
   6   4   1  132.39   32.90
   6  -4   1  137.49   35.60
   6   4   2  127.19   32.00
  -6   4  -2  159.78   32.90
   6   4   2  107.59   19.60
   6  -4   2   91.29   32.50
   6   4   3 1090.49   84.59
  -6   4  -3 1007.40   73.49
   6  -4   3 1149.58   95.49
   6   4   4   36.20   21.90
  -6   4  -4   92.79   21.80
  -6   4  -4  102.39   28.80
   6  -4   4   65.79   26.90
  -6   4  -5  241.48   37.70
  -6   4  -5  194.28   40.50
   6  -4   5  279.17   56.69
  -6   4  -6  432.36   49.70
   6  -4   6  385.96   68.69
  -6   4  -7  158.38   39.90
  -6   4  -7  103.39   34.50
   6  -4   7  172.78   48.80
  -6   4  -8  114.79   38.00
  -6   4  -8  143.79   40.50
   6  -4   8  106.49   48.90
  -6   4  -9  158.88   47.10
  -6   4  -9  117.09   42.10
  -6  -4  -9   47.50   42.20
   6  -4   9  124.49   40.80
  -6   4 -10  -57.39   27.90
  -6   4 -10    8.40   32.90
  -6  -4 -10   -2.10   29.00
   6  -4  10   54.39   29.70
  -6   4 -11   60.99   37.30
  -6   4 -11  -58.29   30.00
   6   5 -13  261.97   60.39
   6  -5 -13  304.47   65.09
   6   5 -12  -30.40   23.00
   6  -5 -12  -17.00   24.60
   6   5 -11  130.39   44.30
   6   5 -11   75.89   35.90
   6  -5 -11  110.69   40.70
   6  -5 -11  133.79   40.00
   6   5 -10  159.98   40.30
   6   5 -10   77.09   39.50
   6  -5 -10  152.68   38.30
   6  -5 -10  156.18   36.70
   6   5  -9  202.88   54.39
   6   5  -9  206.58   43.10
   6  -5  -9  243.28   44.80
   6   5  -8   22.40   21.00
   6   5  -8   73.29   22.70
   6  -5  -8    6.00   15.70
   6   5  -7  371.46   49.80
   6   5  -7  224.38   47.30
   6  -5  -7  220.08   41.50
   6   5  -6   -4.00   10.90
   6   5  -6   38.20   16.30
   6  -5  -6   -9.60   12.00
   6   5  -5   10.10   18.80
   6   5  -5  -17.90   13.20
   6  -5  -5  -14.20   12.50
   6   5  -4  225.78   45.10
   6   5  -4  127.79   33.60
   6  -5  -4   60.49   35.20
   6   5  -3 1603.24  115.49
   6   5  -3 1593.04  102.39
   6  -5  -3 1625.84  110.29
   6   5  -2  367.06   47.90
   6   5  -2  283.17   55.09
   6  -5  -2  389.16   54.89
  -6   5   1   14.50   16.50
   6   5  -1   22.00   17.10
   6  -5  -1   28.20   17.90
  -6   5   0   -7.80   12.30
   6   5   0    4.30   12.90
   6  -5   0   -3.20   13.80
   6   5   1    0.70   12.10
  -6   5  -1  -25.20   11.40
  -6   5  -2  117.79   29.20
   6   5   2  133.99   33.30
   6  -5   2   97.39   36.10
  -6   5  -3  533.45   83.99
   6   5   3  676.43   67.09
   6  -5   3  450.95   79.99
   6   5   4  -27.40   14.50
  -6   5  -4  -17.80   15.00
   6  -5   4   13.50   19.10
  -6   5  -5  432.16   57.69
   6  -5   5  433.26  108.59
  -6   5  -6   -0.80   22.70
   6  -5   6    8.60   31.80
  -6   5  -7   37.00   27.00
   6  -5   7   63.99   28.80
  -6   5  -8  147.39   63.59
   6   6  -9    9.80   38.80
   6   6  -8  156.28   43.40
   6  -6  -8   52.29   31.20
   6   6  -7    9.00   27.30
   6  -6  -7   28.90   21.80
   6   6  -6  443.56   78.49
   6   6  -6  398.96   54.89
   6  -6  -6  448.66   56.79
   6   6  -5  -16.80   22.20
   6   6  -5   30.60   28.60
   6  -6  -5   33.40   26.30
   6   6  -4  738.53   84.99
   6   6  -4  751.32   76.09
   6  -6  -4  609.94   72.69
   6   6  -3   17.70   21.90
   6   6  -3  -15.40   22.70
   6  -6  -3  -26.40   17.10
   6   6  -2   20.10   23.00
   6  -6  -2    4.10   18.80
   6   6  -1    1.00   19.70
   6  -6  -1   30.70   24.90
  -6   6   0  293.27   51.59
   6   6   0  335.37   55.09
   6  -6   0  192.88   62.99
   6   6   1   14.10   24.50
  -6   6  -1   -9.10   20.30
   6  -6   1    9.10   26.40
   6   6   2   -0.20   18.60
  -6   6  -2    1.30   25.50
   6  -6   2   43.90   28.10
   6   6   3   47.10   27.20
  -6   6  -3   41.10   30.10
   6  -6   3   74.49   33.10
  -6   6  -4  450.05   70.59
   7   0 -19    7.10   26.60
   7   0 -18  214.48   76.49
   7   0 -18  221.18   57.29
   7   0 -17   11.90   22.00
   7   0 -17  -22.50   24.70
   7   0 -16  439.76   62.09
   7   0 -16  281.27   57.29
   7   0 -15   -8.50   15.00
   7   0 -15   11.70   17.20
   7   0 -14   13.40   15.10
   7   0 -14   14.60   20.10
   7   0 -13  -16.60    8.70
   7   0 -13   16.00   13.20
   7   0 -12 1784.92  113.49
   7   0 -12 1593.94   99.49
   7   0 -11    5.40   10.00
   7   0 -11   -6.50    9.00
   7   0 -10  795.42   67.29
   7   0 -10  897.71   63.29
   7   0  -9   -7.30    5.80
   7   0  -9   -8.40    6.90
  -7   0   9  -16.00    6.20
   7   0  -8  859.41   65.69
  -7   0   8  892.11   55.59
   7   0  -8  896.71   53.69
   7   0  -7   -7.60    4.10
  -7   0   7   -7.70    5.00
   7   0  -7    4.20    7.00
  -7   0   6  194.48   31.50
  -7   0   6  209.98   22.00
   7   0  -6  220.68   29.10
   7   0  -6  193.78   19.70
   7   0  -5    2.90    3.50
   7   0  -5   -1.90    4.60
  -7   0   5    3.10    4.10
  -7   0   5   16.90    9.10
  -7   0   4 1303.47   46.80
   7   0  -4 1308.57   73.89
   7   0  -4 1349.47   65.49
   7   0  -4 1338.57   45.90
  -7   0   4 1298.77   64.99
  -7   0   3    2.90    3.20
   7   0  -3    0.50    3.60
  -7   0   3    7.00    5.60
   7   0  -3    3.50    3.80
  -7   0   2 2628.54   72.99
  -7   0   2 2641.44   95.59
   7   0  -2 2803.42  106.69
   7   0  -2 2777.12   97.29
   7   0  -1    9.00    6.50
  -7   0   1    7.10    5.30
   7   0  -1    3.30    4.40
  -7   0   1    3.40    3.50
   7   0   0  120.69   22.60
   7   0   0   75.69   18.60
  -7   0   0   87.09   24.10
  -7   0   0  102.39   20.20
   7   0   1    4.60    5.50
  -7   0  -1    5.30    5.30
  -7   0  -1    8.40    6.60
   7   0   1    3.70    5.80
  -7   0  -2 1309.17   70.69
  -7   0  -2 1246.98   70.29
   7   0   2 1207.18   71.89
  -7   0  -2 1382.96   74.59
   7   0   2 1327.97   68.29
  -7   0  -3   -2.00    5.10
   7   0   3    3.20    5.50
  -7   0  -3    5.30    8.30
  -7   0  -4  806.32   54.79
   7   0   4  744.83   52.09
  -7   0  -5  -11.80    6.10
  -7   0  -5   17.90   11.90
   7   0   5   -5.50    6.80
   7   0   6 2814.42  112.99
  -7   0  -6 2872.31  143.99
  -7   0  -6 2972.30  117.19
   7   0   7  -12.00    6.60
  -7   0  -7   12.30    9.70
   7   0   8  233.48   38.10
  -7   0  -8  165.88   39.70
   7   0   9    3.20   13.90
  -7   0  -9    2.60   16.90
   7   0  10   80.69   24.50
  -7   0 -10   36.10   21.50
  -7   0 -11  -19.50   15.00
   7   0  11   -7.20   17.60
   7   0  12 1904.61  104.39
  -7   0 -12 1757.72  149.69
  -7   0 -13   32.80   24.40
   7  -1 -19   45.60   33.90
   7  -1 -19  -31.20   33.00
   7   1 -18   89.79   38.90
   7   1 -18   52.59   38.70
   7  -1 -18  134.09   46.60
   7  -1 -18   27.00   25.20
   7  -1 -18  137.79   40.90
   7   1 -17   53.99   31.80
   7   1 -17   96.89   36.30
   7  -1 -17  101.19   34.80
   7  -1 -17   56.19   29.30
   7  -1 -17   44.60   28.50
   7   1 -16  -18.90   15.00
   7   1 -16   -6.50   18.70
   7  -1 -16  -14.10   16.10
   7  -1 -16   -5.20   18.00
   7   1 -15   42.60   22.30
   7   1 -15   29.70   23.70
   7  -1 -15   24.60   23.90
   7  -1 -15   17.50   18.60
   7   1 -14    9.60   17.20
   7   1 -14    8.30   15.90
   7  -1 -14  -17.90   25.40
   7  -1 -14   10.70   16.20
   7   1 -13   91.79   31.70
   7   1 -13  152.48   42.10
   7  -1 -13   69.99   24.80
   7  -1 -13  144.69   34.00
   7   1 -12  122.09   33.00
   7   1 -12   77.49   23.10
   7  -1 -12  100.19   28.20
   7  -1 -12  129.29   31.30
   7   1 -11 2357.56  120.49
   7   1 -11 2341.47  130.09
   7  -1 -11 2397.06  123.99
   7  -1 -11 2411.06  116.59
   7  -1 -11 2567.14  125.49
   7   1 -10   89.19   25.30
   7   1 -10  108.99   28.60
   7  -1 -10  128.09   30.80
   7  -1 -10  107.69   24.80
   7  -1 -10   90.99   25.00
   7   1  -9    2.10    8.10
   7   1  -9   36.40   13.30
   7  -1  -9    9.80    8.40
   7  -1  -9   37.40   14.50
   7  -1  -9    6.00    7.90
  -7   1   8   43.60   16.10
   7   1  -8   67.49   19.70
   7   1  -8  107.59   28.80
  -7  -1   8   66.59   17.90
   7  -1  -8   74.49   16.40
   7  -1  -8   81.99   19.80
   7   1  -7 1307.47   79.79
  -7   1   7 1308.67   83.09
   7   1  -7 1291.77   68.99
   7  -1  -7 1288.27   68.09
  -7  -1   7 1223.58   68.89
   7  -1  -7 1289.87   77.59
   7  -1  -7 1244.58   54.69
  -7   1   6  446.46   36.00
   7   1  -6  432.16   43.00
   7   1  -6  430.96   36.20
   7  -1  -6  435.16   25.20
  -7  -1   6  396.96   35.70
   7  -1  -6  462.55   36.00
   7  -1  -6  459.05   43.50
   7   1  -5 4402.96  145.29
  -7   1   5 4042.60  122.39
   7   1  -5 4225.28  126.89
  -7  -1   5 4150.58  146.19
   7  -1  -5 4037.00  118.69
   7  -1  -5 4151.78  146.59
  -7  -1   5 4036.50  125.89
   7   1  -4  106.09   24.00
  -7   1   4  108.59   19.40
   7   1  -4  114.29   19.80
   7  -1  -4   99.29   16.80
  -7  -1   4  113.79   20.10
   7  -1  -4   89.99   22.10
  -7  -1   4   99.09   23.10
  -7   1   3 1002.30   64.39
  -7   1   3  954.90   47.10
   7   1  -3  956.20   50.59
   7   1  -3 1011.50   60.79
  -7  -1   3  987.80   62.09
   7  -1  -3  971.30   45.80
  -7  -1   3  979.00   50.89
   7  -1  -3  988.80   62.69
   7   1  -2    0.20    3.60
  -7   1   2   -0.10    6.40
  -7   1   2    1.10    5.80
   7  -1  -2    1.40    4.70
  -7  -1   2    1.20    6.80
  -7  -1   2   -1.20    4.80
  -7   1   1  363.56   38.30
  -7   1   1  378.46   29.40
   7   1  -1  442.46   37.40
   7   1  -1  382.56   36.50
   7  -1  -1  369.16   29.00
   7  -1  -1  404.66   39.00
  -7  -1   1  396.86   38.00
  -7  -1   1  386.66   32.60
  -7   1   0  346.67   29.40
  -7   1   0  313.87   24.70
   7   1   0  317.87   34.70
   7   1   0  306.57   29.30
  -7   1   0  268.77   33.40
  -7  -1   0  353.26   32.40
   7  -1   0  392.06   31.00
   7  -1   0  352.36   36.90
  -7  -1   0  377.46   38.00
  -7   1  -1  134.49   21.80
  -7   1  -1  123.89   22.40
   7   1   1  132.89   22.90
   7   1   1  178.68   40.00
   7  -1   1  130.59   27.60
  -7   1  -2  338.67   34.50
  -7   1  -2  335.97   33.90
   7   1   2  346.37   39.90
   7   1   2  345.57   30.20
   7  -1   2  382.96   38.80
   7   1   3 1992.50   77.29
  -7   1  -3 2043.60   94.19
  -7   1  -3 2134.89   97.89
   7   1   3 2105.49  107.29
   7  -1   3 1918.91   96.99
   7   1   4   53.19   14.00
  -7   1  -4   83.19   25.00
  -7  -1  -4   28.50   14.00
   7  -1   4   61.19   18.70
   7   1   5 1286.57   59.29
  -7   1  -5 1257.17   86.19
  -7  -1  -5 1501.15   97.99
   7  -1   5 1379.96   83.69
  -7   1  -6  264.37   47.30
   7   1   6  260.87   25.40
   7  -1   6  271.97   37.40
  -7  -1  -6  209.98   42.70
   7   1   7    1.00    9.30
  -7   1  -7   19.00   17.90
  -7  -1  -7   16.90   10.60
  -7  -1  -7    3.60   13.30
   7  -1   7   15.70   14.90
  -7   1  -8    5.80   15.00
   7   1   8   34.80   12.50
  -7  -1  -8   34.50   12.10
   7  -1   8    7.20   13.20
  -7   1  -9  646.14   73.19
   7  -1   9  602.14   61.79
  -7  -1  -9  677.53   76.49
  -7   1 -10  -15.00   13.80
  -7  -1 -10   17.10   17.20
   7  -1  10   26.00   19.00
  -7   1 -11   -0.40   17.50
   7  -1  11   23.10   18.90
  -7  -1 -11  -36.50   16.50
  -7   1 -12   91.79   39.10
   7  -1  12   25.10   33.10
  -7  -1 -12  154.88   50.99
  -7   1 -13  836.12   99.09
  -7   1 -13  947.21  107.99
  -7  -1 -13  925.71  165.28
   7  -1  13 1129.79   97.69
   7  -2 -18   68.89   48.50
   7  -2 -18   64.29   38.20
   7   2 -17  210.18   50.29
   7   2 -17  291.17   65.29
   7  -2 -17  341.07   46.70
   7  -2 -17  233.48   59.29
   7  -2 -17  246.18   61.59
   7   2 -16  361.06   66.09
   7   2 -16  596.34  121.59
   7  -2 -16  435.36   74.29
   7  -2 -16  422.96   50.69
   7  -2 -16  299.57   62.19
   7   2 -15   96.19   37.60
   7   2 -15   43.30   29.50
   7  -2 -15   73.69   27.90
   7  -2 -15   48.50   26.90
   7  -2 -15   66.69   23.10
   7   2 -14   18.20   24.80
   7   2 -14   57.09   25.50
   7  -2 -14   79.69   29.80
   7  -2 -14   64.49   26.20
   7  -2 -14   63.89   23.80
   7   2 -13  269.97   57.09
   7   2 -13  303.37   58.89
   7  -2 -13  353.16   58.29
   7  -2 -13  267.97   45.30
   7  -2 -13  336.37   56.69
   7   2 -12  409.56   51.49
   7   2 -12  385.26   52.79
   7  -2 -12  361.96   44.00
   7  -2 -12  375.46   47.60
   7  -2 -12  309.77   42.90
   7   2 -11  462.55   51.29
   7   2 -11  387.66   65.69
   7  -2 -11  332.07   43.40
   7  -2 -11  352.86   43.00
   7  -2 -11  391.66   46.80
   7   2 -10  -15.20    7.70
   7   2 -10   -9.10    5.70
   7  -2 -10    7.50   10.30
   7  -2 -10  -17.20    8.10
   7   2  -9   -5.80    9.90
   7   2  -9   -8.50    4.70
   7  -2  -9  -12.30    7.20
   7  -2  -9   17.50   11.00
   7  -2  -9   14.30   10.70
   7   2  -8  854.71   64.29
   7   2  -8  776.62   68.69
   7  -2  -8  848.92   52.79
   7  -2  -8  867.21   63.99
   7  -2  -8  852.71   54.39
   7   2  -7  136.29   29.40
   7   2  -7   59.59   20.40
   7  -2  -7  114.29   26.60
   7  -2  -7  126.79   18.00
   7  -2  -7  103.99   20.70
   7   2  -6   62.79   22.40
   7   2  -6   59.49   17.60
   7  -2  -6   76.89   12.90
   7  -2  -6   56.29   12.50
   7  -2  -6   69.49   20.10
   7  -2  -6   74.99   13.60
   7   2  -5 1372.66   77.49
   7   2  -5 1290.67   79.79
   7  -2  -5 1464.75   51.79
   7  -2  -5 1483.55   84.89
   7   2  -4  461.05   42.40
   7   2  -4  419.66   42.50
   7  -2  -4  337.07   39.50
   7   2  -3   92.79   22.90
   7   2  -3   81.39   20.00
   7   2  -3  133.29   29.80
   7  -2  -3   94.19   25.90
  -7  -2   3  106.59   30.00
   7   2  -2  570.24   48.70
   7   2  -2  550.54   47.90
   7   2  -2  584.04   49.99
   7  -2  -2  641.84   54.19
   7   2  -1  663.33   64.69
  -7   2   1  652.23   32.10
  -7   2   1  671.93   32.00
   7   2  -1  645.04   53.39
   7  -2  -1  694.73   57.79
  -7   2   0  104.89   16.40
   7   2   0  144.49   25.00
   7   2   0  107.29   27.50
  -7   2   0  139.59   16.50
   7  -2   0  156.38   18.90
   7  -2   0  142.69   32.50
  -7   2  -1  318.77   28.60
   7   2   1  328.87   39.40
   7   2   1  352.56   29.80
   7   2   1  298.27   31.10
  -7   2  -1  328.07   28.30
   7  -2   1  271.47   36.00
   7  -2   1  311.17   30.20
   7   2   2  189.98   37.00
  -7   2  -2  168.88   23.40
  -7   2  -2  177.68   26.80
   7   2   2  147.19   19.20
   7  -2   2  161.68   32.50
   7  -2   2  187.38   33.70
   7   2   3   12.50    6.00
   7   2   3   14.30   10.90
  -7   2  -3   -4.80    8.80
  -7   2  -3   15.20    7.30
   7  -2   3  -10.80    8.40
   7  -2   3  -18.70    7.70
  -7   2  -4  430.86   45.10
   7   2   4  405.26   47.80
   7  -2   4  383.96   47.30
  -7   2  -5  190.08   39.50
   7  -2   5  190.08   40.80
  -7   2  -6 1675.33  102.99
   7  -2   6 1370.26   97.19
  -7  -2  -6 1620.14  115.39
  -7   2  -7  519.05   59.09
   7  -2   7  486.65   58.79
  -7  -2  -7  633.74   72.59
  -7   2  -8   -9.10   11.60
  -7  -2  -8   82.09   26.70
   7  -2   8   19.30   16.60
  -7   2  -9   60.19   27.10
  -7  -2  -9   63.79   25.90
  -7   2 -10  330.37   64.59
  -7   2 -10  265.87   54.89
  -7  -2 -10  259.77   57.89
   7  -2  10  340.47   59.49
  -7   2 -11  122.29   41.40
  -7   2 -11   76.29   35.20
  -7  -2 -11  157.58   63.39
   7  -2  11  104.69   39.20
  -7   2 -12  845.82   98.19
   7  -2  12  783.22   88.99
  -7  -2 -12  786.12   98.09
  -7   2 -13   51.99   39.90
   7  -2  13   61.89   41.10
   7  -3 -17  -33.20   27.00
   7  -3 -17  -13.70   30.10
   7   3 -16  -12.30   21.30
   7   3 -16   62.19   35.00
   7  -3 -16   47.50   29.50
   7  -3 -16   44.30   30.00
   7   3 -15   16.60   24.60
   7  -3 -15  -13.10   15.60
   7  -3 -15   10.50   23.40
   7  -3 -15  -22.20   19.90
   7   3 -14    9.00   15.80
   7   3 -14   12.90   14.60
   7  -3 -14  -21.30   14.90
   7  -3 -14   27.10   33.70
   7   3 -13  -11.10   16.30
   7   3 -13  -10.20   14.00
   7  -3 -13   49.50   19.20
   7  -3 -13   30.40   15.10
   7  -3 -13   31.20   21.50
   7   3 -12  518.35   67.09
   7   3 -12  571.44   66.39
   7  -3 -12  555.24   57.59
   7  -3 -12  572.94   58.99
   7  -3 -12  605.84   53.79
   7   3 -11  532.85   63.39
   7   3 -11  416.66   54.39
   7  -3 -11  537.85   51.19
   7  -3 -11  469.05   52.79
   7  -3 -11  508.25   50.99
   7   3 -10  744.23   86.29
   7   3 -10  674.83   67.49
   7  -3 -10  647.34   58.99
   7  -3 -10  660.73   58.29
   7  -3 -10  776.82   57.69
   7   3  -9  178.68   41.00
   7   3  -9  134.69   33.40
   7  -3  -9   95.99   24.30
   7  -3  -9  100.79   21.20
   7  -3  -9  114.59   28.30
   7   3  -8   70.59   22.00
   7   3  -8   32.80   19.20
   7  -3  -8   58.99   18.80
   7  -3  -8   51.59   17.00
   7  -3  -8   43.00   14.20
   7  -3  -8   72.89   16.20
   7   3  -7   -3.10    7.60
   7   3  -7   12.30   11.80
   7  -3  -7   23.50    8.90
   7  -3  -7   20.10    7.30
   7  -3  -7   32.20   15.20
   7  -3  -7    9.70    9.00
   7   3  -6  954.30   73.09
   7   3  -6  962.50   74.59
   7  -3  -6  921.61   49.50
   7  -3  -6 1009.00   72.49
   7   3  -5  731.43   62.69
   7   3  -5  702.43   62.69
   7  -3  -5  640.74   58.89
   7  -3  -5  764.52   41.70
   7   3  -4   29.30   15.70
   7   3  -4   50.29   17.60
   7  -3  -4   52.19   12.20
   7  -3  -4   61.09   20.70
   7   3  -3  693.13   59.69
   7   3  -3  556.44   52.69
   7  -3  -3  575.84   57.29
   7  -3  -3  606.34   37.80
   7   3  -2   30.10   15.30
  -7   3   2   16.80    8.40
   7   3  -2    9.50    7.50
   7  -3  -2   41.20    9.80
   7  -3  -2   18.60   13.50
   7   3  -1   -3.30    7.40
   7   3  -1    0.20   12.10
  -7   3   1   -2.70    6.70
   7  -3  -1   27.50   15.30
   7  -3  -1   41.00   11.90
   7   3   0  617.44   49.40
   7   3   0  649.64   59.89
  -7   3   0  595.44   41.90
   7  -3   0  636.94   61.19
   7  -3   0  552.54   43.10
  -7   3  -1  204.88   26.40
   7   3   1  200.98   38.70
   7   3   1  213.98   29.30
   7  -3   1  248.48   46.00
   7  -3   1  241.08   30.20
   7   3   2  703.43   64.09
  -7   3  -2  661.93   42.50
  -7   3  -2  709.43   52.69
   7   3   2  678.73   41.20
  -7   3  -2  720.73   42.40
   7   3   2  792.32   45.80
   7  -3   2  658.43   66.19
   7  -3   2  709.73   69.29
  -7   3  -3  787.42   51.99
  -7   3  -3  660.53   58.69
  -7   3  -3  722.13   56.99
   7   3   3  729.03   68.59
   7  -3   3  629.34   65.69
   7   3   4   63.19   20.60
  -7   3  -4   22.50   17.00
  -7   3  -4   55.99   19.00
  -7   3  -4   40.40   16.60
   7  -3   4   41.70   19.10
  -7   3  -5  128.29   31.80
  -7   3  -5  115.89   28.80
   7  -3   5  144.09   36.90
  -7   3  -6  379.16   50.09
  -7   3  -6  425.16   52.29
   7  -3   6  528.35   63.79
  -7   3  -7  232.78   49.30
  -7   3  -7  273.87   53.09
   7  -3   7  329.07   64.29
  -7   3  -8   70.89   27.60
  -7   3  -8   13.00   25.50
  -7  -3  -8   51.79   26.50
   7  -3   8   74.99   28.60
  -7   3  -9  432.06   69.49
  -7   3  -9  341.37   62.39
  -7  -3  -9  475.75   65.39
   7  -3   9  389.96   70.69
  -7   3 -10    3.20   22.70
  -7   3 -10  -17.90   18.10
   7  -3  10   36.30   24.90
  -7  -3 -10   -0.70   23.10
  -7   3 -11   33.80   28.10
  -7   3 -11   59.89   37.20
   7  -3  11   38.80   32.70
  -7  -3 -11   31.30   32.70
  -7   3 -12  126.39   49.50
  -7   3 -12  184.38   59.09
   7  -3  12  219.18   60.89
   7   4 -15   89.09   41.50
   7  -4 -15   47.10   36.70
   7  -4 -15   60.49   36.90
   7   4 -14   36.10   31.50
   7   4 -14   35.50   29.60
   7  -4 -14  103.89   37.00
   7  -4 -14   98.19   43.20
   7   4 -13  216.78   68.69
   7   4 -13  102.49   37.20
   7  -4 -13  203.88   40.90
   7  -4 -13  250.67   45.90
   7  -4 -13  164.78   44.40
   7   4 -12   10.60   22.00
   7   4 -12    5.80   19.80
   7  -4 -12   10.30   18.70
   7  -4 -12   17.80   17.10
   7   4 -11  181.48   46.40
   7   4 -11  177.28   42.40
   7  -4 -11  264.47   46.10
   7  -4 -11  278.57   46.60
   7  -4 -11  243.98   43.60
   7   4 -10   18.40   19.10
   7   4 -10   -7.30   10.40
   7  -4 -10    6.00   18.20
   7  -4 -10   -3.60   12.10
   7  -4 -10    3.20   14.30
   7   4  -9   14.10   19.50
   7   4  -9   17.10   18.20
   7  -4  -9   22.40   16.70
   7  -4  -9   22.70   17.90
   7   4  -8  240.18   50.69
   7   4  -8  262.17   50.59
   7  -4  -8  198.38   39.70
   7   4  -7   94.59   27.30
   7   4  -7   79.19   30.60
   7  -4  -7   54.89   20.30
   7   4  -6  281.67   53.59
   7   4  -6  371.66   47.10
   7  -4  -6  369.56   45.30
   7   4  -5  659.03   62.59
   7   4  -5  694.33   98.79
   7  -4  -5  619.64   61.29
   7  -4  -5  630.64   48.30
   7   4  -4    5.10   13.00
   7   4  -4   50.69   21.10
   7  -4  -4   76.39   18.90
   7  -4  -4   42.50   18.20
   7   4  -3   34.10   18.00
   7   4  -3  150.68   35.90
   7  -4  -3   41.20   20.80
   7  -4  -3   62.09   17.90
   7   4  -2  414.06   49.00
   7   4  -2  380.36   51.69
  -7   4   2  410.16   39.20
   7  -4  -2  387.16   39.20
   7  -4  -2  372.46   48.50
  -7   4   1  481.15   42.40
   7   4  -1  476.85   53.79
   7  -4  -1  437.16   57.09
  -7   4   0 1065.49   67.49
   7   4   0 1159.28   85.39
   7  -4   0 1076.09   95.29
  -7   4  -1  500.65   47.20
   7   4   1  408.06   49.99
   7   4   1  367.66   38.40
   7  -4   1  540.35   63.19
   7   4   2   71.19   16.50
  -7   4  -2   25.10   16.50
   7   4   2   33.20   23.40
   7  -4   2   34.40   21.10
  -7   4  -3   -2.00   13.40
   7   4   3   12.60   14.00
   7  -4   3   14.30   17.20
  -7   4  -4  263.37   32.60
   7   4   4  256.27   49.70
  -7   4  -4  300.57   41.20
  -7   4  -4  272.77   53.59
   7  -4   4  338.07   65.69
  -7   4  -5   73.19   25.90
   7  -4   5  140.39   41.70
  -7   4  -6  104.89   32.80
  -7   4  -6  123.69   31.50
   7  -4   6   62.19   32.50
  -7   4  -7  454.15   58.49
  -7   4  -7  391.06   63.99
   7  -4   7  401.36   72.39
  -7   4  -8  265.17   52.79
  -7   4  -8  138.09   47.10
   7  -4   8  251.97   59.39
  -7   4  -9  -15.90   25.60
  -7   4  -9   42.40   34.90
  -7  -4  -9    4.50   26.40
   7  -4   9   41.90   23.40
  -7   4 -10  298.07   67.29
  -7   4 -10  281.87   61.99
   7   5 -13   23.50   31.40
   7  -5 -13   31.30   28.90
   7   5 -12   31.00   36.40
   7  -5 -12   91.99   39.30
   7   5 -11   17.20   27.20
   7   5 -11   35.40   29.00
   7  -5 -11    6.10   19.80
   7  -5 -11    5.90   23.70
   7   5 -10  186.18   46.80
   7   5 -10  181.48   45.90
   7  -5 -10   46.10   28.00
   7  -5 -10   71.59   28.60
   7   5  -9  124.89   38.50
   7   5  -9  121.19   47.30
   7  -5  -9  126.59   32.50
   7   5  -8    6.30   15.30
   7   5  -8   39.60   21.90
   7  -5  -8   23.40   16.10
   7   5  -7  120.39   32.80
   7   5  -7   82.29   32.10
   7  -5  -7  106.79   37.40
   7   5  -6  250.67   52.29
   7   5  -6  305.67   53.79
   7  -5  -6  297.17   54.89
   7   5  -5   59.19   25.30
   7   5  -5   63.89   26.00
   7  -5  -5   84.49   22.30
   7   5  -4   47.20   19.90
   7   5  -4   69.79   23.30
   7  -5  -4   25.80   23.30
   7   5  -3  197.68   44.30
   7   5  -3  284.67   50.99
   7  -5  -3  198.88   40.80
   7   5  -2    6.90   14.00
   7  -5  -2    2.40   17.80
   7   5  -1   21.60   17.80
  -7   5   1   27.60   19.70
   7  -5  -1   -2.60   15.30
   7   5   0   71.19   29.40
  -7   5   0  149.19   30.10
   7  -5   0  121.79   38.60
  -7   5  -1 1188.78   83.59
   7   5   1 1176.18   94.59
   7  -5   1 1177.08  105.89
   7   5   2  137.79   37.50
  -7   5  -2  203.08   38.20
   7  -5   2  122.19   35.80
   7   5   3  115.89   38.70
  -7   5  -3  164.28   43.80
   7  -5   3  241.68   49.90
   7   5   4  -17.10   17.00
  -7   5  -4   52.79   22.30
  -7   5  -5   49.00   22.60
   7  -5   5   21.20   25.50
  -7   5  -6   80.49   32.20
   7  -5   6  176.18   49.90
  -7   5  -7  528.55   68.29
  -7   5  -8    9.40   30.20
   7   6  -9   48.50   30.30
   7   6  -8   31.90   37.20
   7  -6  -8   87.19   32.80
   7   6  -7   58.79   28.80
   7  -6  -7  -16.80   22.80
   7   6  -6  814.62   83.59
   7  -6  -6  673.13   75.99
   7   6  -5   22.00   27.90
   7   6  -5  -13.60   15.70
   7  -6  -5    6.60   23.70
   7   6  -4  220.68   51.39
   7   6  -4  281.87   60.49
   7  -6  -4  191.28   50.09
   7  -6  -3   21.40   24.90
   7   6  -2  -11.30   27.80
   7  -6  -2    7.00   24.80
   7   6  -1  -38.40   19.30
   7  -6  -1  -39.20   19.00
   7   6   0  903.71   86.59
  -7   6   0  718.23   72.99
   7  -6   0  811.12   96.59
  -7   6  -1    8.30   24.60
   7   6   1    1.30   26.90
   7  -6   1  -30.90   26.00
  -7   6  -2    1.80   27.00
   7   6   2  -18.60   19.80
   7   6   3   28.70   29.50
  -7   6  -3   32.80   30.10
   8   0 -19  -18.00   27.10
   8   0 -18   86.89   41.90
   8   0 -18   85.59   40.30
   8   0 -17   22.90   20.70
   8   0 -17   37.80   23.20
   8   0 -16   33.50   28.40
   8   0 -16   28.50   22.50
   8   0 -15    5.30   17.20
   8   0 -15    6.30   19.60
   8   0 -14  116.69   37.40
   8   0 -14  157.78   39.10
   8   0 -13   -7.30    9.90
   8   0 -13   16.90   12.50
   8   0 -12 1866.71  114.69
   8   0 -12 1819.32  102.29
   8   0 -11   10.80   11.10
   8   0 -10  874.01   59.49
   8   0 -10  842.92   69.89
  -8   0  10  723.33   57.19
   8   0  -9   -5.50    6.80
   8   0  -9   11.20   10.10
  -8   0   9   -9.70    8.30
   8   0  -8 1292.17   63.59
  -8   0   8 1276.27   65.59
   8   0  -8 1300.47   79.29
   8   0  -7   11.40    8.50
  -8   0   7  -10.80    5.90
   8   0  -7    0.00    4.40
  -8   0   6 1150.38   67.59
   8   0  -6 1139.49   48.80
  -8   0   6 1077.99   50.59
   8   0  -6 1182.58   67.59
  -8   0   5   -2.90    4.10
   8   0  -5   -4.90    5.00
   8   0  -5   -5.60    4.90
  -8   0   5   -7.10    7.30
   8   0  -5    8.10    3.90
  -8   0   4   96.29   21.60
  -8   0   4  102.09   12.40
   8   0  -4  133.39   24.60
   8   0  -4   89.59   20.70
   8   0  -3    5.70    4.30
  -8   0   3   -0.20    3.30
   8   0  -3   -0.40    6.50
  -8   0   3   -5.70    5.60
  -8   0   2  336.27   33.00
  -8   0   2  226.48   19.50
   8   0  -2  273.97   29.70
   8   0  -2  263.67   31.40
  -8   0   1   -8.20    4.00
   8   0  -1    5.20    5.90
   8   0  -1   -4.50    4.60
  -8   0   0   11.10    9.90
   8   0   0    0.60    4.70
   8   0   0   19.80    9.80
  -8   0   0   13.20    7.20
  -8   0   0    3.80   10.70
   8   0   1   -3.70    5.50
  -8   0  -1   -6.30    5.80
  -8   0  -1   10.50    9.20
  -8   0  -2  682.73   51.69
  -8   0  -2  631.94   50.19
   8   0   2  620.54   48.30
   8   0   2  606.94   51.99
  -8   0  -3    9.50   10.00
  -8   0  -3   -4.50    8.50
   8   0   3   -6.20    7.20
   8   0   4  663.63   50.99
  -8   0  -4  657.23   59.39
   8   0   5   -2.30    7.10
  -8   0  -5   -4.00    8.10
  -8   0  -6   19.20   17.40
   8   0   6    7.70   13.00
   8   0   7    4.80   10.90
  -8   0  -7    8.00   14.60
   8   0   8   20.30   17.40
   8   0   9   10.20   16.10
  -8   0  -9   -8.30   17.20
  -8   0 -10  814.52   93.49
   8   0  10  819.32   66.19
   8   0  11   22.00   22.10
  -8   0 -11  -11.80   24.00
  -8   0 -12  125.59   46.90
   8  -1 -19  240.78   52.99
   8  -1 -19  243.68   57.09
   8   1 -18   63.49   32.40
   8   1 -18   36.10   38.10
   8  -1 -18   89.79   37.50
   8  -1 -18    4.30   26.80
   8  -1 -18   25.90   29.70
   8   1 -17   76.29   34.40
   8   1 -17   73.89   33.30
   8  -1 -17   50.69   24.30
   8  -1 -17   53.59   29.50
   8  -1 -17   33.60   25.10
   8   1 -16   21.80   21.40
   8   1 -16   33.00   20.90
   8  -1 -16   -7.80   17.20
   8  -1 -16   28.70   23.60
   8  -1 -16    8.10   21.20
   8   1 -15   -1.00   18.50
   8   1 -15   30.60   20.50
   8  -1 -15    9.80   16.60
   8  -1 -15  -19.30   16.10
   8  -1 -15   -2.30   18.90
   8   1 -14  166.78   39.90
   8   1 -14  244.78   54.99
   8  -1 -14  137.49   38.80
   8  -1 -14  230.08   74.29
   8  -1 -14  125.59   35.50
   8   1 -13  827.62   74.59
   8   1 -13  924.71   84.79
   8  -1 -13  869.01   76.99
   8  -1 -13  869.11   77.09
   8  -1 -13  896.21   74.49
   8   1 -12   59.29   24.00
   8   1 -12   77.49   25.40
   8  -1 -12   60.99   19.70
   8  -1 -12   79.79   25.00
   8  -1 -12   42.50   18.70
   8   1 -11   41.00   18.50
   8   1 -11   30.80   19.70
   8  -1 -11   36.00   19.30
   8  -1 -11   32.70   16.00
   8  -1 -11   37.60   20.30
   8   1 -10    2.00   11.50
   8   1 -10   19.30   11.40
   8  -1 -10    9.20    9.80
   8  -1 -10    0.90    8.90
   8  -1 -10    6.60    8.90
   8   1  -9  753.42   79.79
   8   1  -9  966.70   75.09
   8  -1  -9  755.42   96.49
   8  -1  -9  946.11   72.39
   8  -1  -9  906.91   54.79
  -8   1   8  162.98   29.40
   8   1  -8  172.98   30.30
   8   1  -8  169.18   36.30
   8  -1  -8  135.69   29.70
   8  -1  -8  151.58   28.50
  -8  -1   8  198.98   28.40
   8  -1  -8  143.09   18.80
   8   1  -7  609.94   46.10
  -8   1   7  695.33   48.70
   8   1  -7  610.84   54.89
   8  -1  -7  580.94   54.49
  -8  -1   7  584.74   47.30
   8  -1  -7  718.93   49.60
   8   1  -6  535.25   40.40
  -8   1   6  506.05   40.30
   8   1  -6  401.86   41.90
   8  -1  -6  449.66   36.70
  -8  -1   6  476.15   41.80
   8  -1  -6  423.16   44.80
   8   1  -5   31.70   10.40
  -8   1   5   12.80    9.60
  -8  -1   5    7.30    8.90
   8  -1  -5    7.60    7.20
   8  -1  -5   26.00    9.30
   8   1  -4  168.88   21.30
   8   1  -4  163.48   31.50
  -8   1   4  172.28   22.00
  -8  -1   4  137.09   19.60
   8  -1  -4  184.88   21.00
   8  -1  -4  151.78   41.30
   8   1  -3 4098.59  142.99
   8   1  -3 4160.38  125.69
  -8   1   3 4167.18  122.49
   8  -1  -3 4074.29  117.39
  -8  -1   3 4124.99  124.19
   8  -1  -3 3885.61  160.18
   8   1  -2  532.65   46.00
   8   1  -2  513.65   44.60
  -8   1   2  480.45   35.00
  -8  -1   2  492.95   37.00
   8  -1  -2  456.75   34.00
   8  -1  -2  408.96   49.60
  -8   1   1 1452.85   65.19
   8   1  -1 1383.16  108.39
   8   1  -1 1476.25   74.69
  -8  -1   1 1469.85   74.39
   8  -1  -1 1431.66   66.09
  -8   1   0    6.60    7.50
   8   1   0   10.40    9.10
   8   1   0   12.00    9.20
  -8   1   0   17.20    8.00
   8  -1   0    1.40    6.50
  -8  -1   0    0.10    8.20
   8  -1   0    7.10    5.70
  -8   1  -1   66.89   16.20
   8   1   1   57.19   16.40
  -8   1  -1   52.29   16.80
   8   1   1   60.79   20.40
  -8  -1  -1   53.09   17.60
   8  -1   1   55.79   17.90
   8   1   2   38.20   18.10
   8   1   2   41.40   12.50
  -8   1  -2   34.90   13.80
  -8   1  -2   45.50   16.20
   8  -1   2   46.30   16.30
   8   1   3   40.00   16.80
  -8   1  -3   32.80   14.80
   8   1   3   27.90   12.00
   8  -1   3   66.59   21.70
  -8   1  -4  147.19   32.70
   8   1   4   94.79   19.90
   8  -1   4   74.69   23.30
  -8  -1  -4   56.09   22.10
  -8   1  -5  168.48   37.70
   8   1   5  263.07   27.90
   8  -1   5  258.67   36.60
  -8   1  -6   79.49   28.90
   8   1   6  123.39   22.60
  -8  -1  -6   95.49   28.40
   8  -1   6  108.69   29.30
   8   1   7  230.28   27.40
  -8   1  -7  289.67   56.49
  -8  -1  -7  214.38   46.10
   8  -1   7  326.07   53.39
   8   1   8   79.89   17.90
  -8   1  -8   60.79   25.20
   8  -1   8   77.09   25.80
  -8  -1  -8   53.59   23.30
  -8   1  -9  388.86   71.89
   8   1   9  542.95   42.90
  -8  -1  -9  565.74   73.39
   8  -1   9  410.86   52.39
  -8   1 -10  100.19   42.00
   8  -1  10  124.49   33.40
  -8  -1 -10  171.18   44.60
  -8   1 -11  154.98   46.70
  -8  -1 -11   65.49   44.80
   8  -1  11   52.59   25.60
  -8   1 -12   25.80   26.10
  -8  -1 -12  -32.60   20.00
   8  -1  12  -19.00   28.20
   8  -1  13  132.99   57.99
   8   2 -18  134.79   44.80
   8  -2 -18  250.97   74.99
   8  -2 -18   87.79   41.40
   8  -2 -18  114.99   37.70
   8   2 -17  -12.10   22.60
   8   2 -17  -16.60   23.30
   8  -2 -17    9.20   27.50
   8  -2 -17   12.00   24.90
   8  -2 -17   19.80   44.70
   8   2 -16   37.90   21.40
   8  -2 -16   76.19   22.70
   8  -2 -16    8.00   16.20
   8  -2 -16   -3.00   19.70
   8   2 -15   31.20   19.40
   8   2 -15   59.69   27.40
   8  -2 -15   17.60   15.80
   8  -2 -15   12.50   16.80
   8  -2 -15   15.70   19.30
   8   2 -14   -1.80   18.50
   8   2 -14   15.80   17.70
   8  -2 -14   26.50   17.80
   8  -2 -14   23.50   19.10
   8  -2 -14   10.60   18.80
   8   2 -13  197.68   45.00
   8   2 -13  307.97   55.79
   8  -2 -13  321.87   45.70
   8  -2 -13  296.37   52.49
   8  -2 -13  287.87   40.70
   8   2 -12 1062.39   90.89
   8   2 -12  993.90   83.19
   8  -2 -12 1108.59   77.49
   8  -2 -12 1058.49   79.89
   8  -2 -12 1026.10   78.59
   8   2 -11   19.90   14.20
   8   2 -11   15.90   14.10
   8  -2 -11   50.59   20.40
   8  -2 -11   38.10   17.80
   8  -2 -11   19.60   13.90
   8   2 -10  274.47   53.09
   8   2 -10  208.88   39.80
   8  -2 -10  243.58   44.00
   8  -2 -10  256.07   49.40
   8  -2 -10  321.07   35.30
   8   2  -9  880.91   75.59
   8   2  -9  890.11   67.59
   8  -2  -9  928.91   69.79
   8  -2  -9  902.11   55.49
   8  -2  -9  844.62   57.49
   8   2  -8  396.76   43.10
   8   2  -8  347.67   44.80
   8  -2  -8  438.26   47.60
   8  -2  -8  436.66   37.00
   8  -2  -8  383.26   31.60
   8   2  -7  784.32   60.79
   8   2  -7  867.11   69.79
   8  -2  -7  879.51   48.50
   8  -2  -7  822.22   65.69
   8   2  -6 1271.67   75.89
   8   2  -6 1226.78   81.59
   8  -2  -6 1167.68   52.49
   8  -2  -6 1286.37   81.79
   8   2  -5    3.60   10.00
   8   2  -5   -8.50    6.20
  -8   2   5   -2.90    5.40
   8  -2  -5    5.20    4.80
   8  -2  -5   15.10    8.40
  -8   2   4    4.30    5.10
   8   2  -4    4.50    7.40
   8  -2  -4   -2.80    3.80
   8  -2  -4   -2.90    5.60
  -8   2   3  107.89   15.70
   8   2  -3   88.29   23.80
   8   2  -3   40.50   24.50
   8  -2  -3   87.89   23.20
  -8   2   2  217.98   20.50
   8   2  -2  214.88   35.20
   8   2  -2  265.27   35.70
   8  -2  -2  291.47   39.00
   8   2  -1  661.73   56.79
  -8   2   1  762.02   38.90
   8  -2  -1  764.02   63.29
   8   2   0   11.30    9.40
  -8   2   0   20.60    8.30
   8   2   0    9.90    7.60
  -8   2   0   16.00    7.70
   8  -2   0   23.60    9.10
   8  -2   0   10.60   10.10
   8   2   1   14.10    7.30
   8   2   1    7.80    7.00
  -8   2  -1   13.80   10.50
  -8   2  -1   17.40    8.20
   8  -2   1    2.90    8.20
   8  -2   1   14.10   10.50
   8   2   2  428.16   49.50
  -8   2  -2  505.35   40.60
   8   2   2  403.36   33.10
  -8   2  -2  486.55   40.40
   8  -2   2  426.26   39.80
   8  -2   2  404.36   47.60
   8   2   3  836.62   71.99
  -8   2  -3  853.61   67.09
  -8   2  -3  828.22   58.99
   8   2   3  870.21   45.90
   8  -2   3  857.81   61.99
   8  -2   3  798.12   69.19
  -8   2  -4    6.80   11.70
   8   2   4   27.40    8.60
   8  -2   4   40.90   17.80
  -8   2  -5  460.55   50.69
   8  -2   5  550.64   59.99
  -8   2  -6   -9.00   12.70
   8  -2   6    8.70   13.00
  -8   2  -7   13.50   14.20
  -8  -2  -7   33.70   17.70
   8  -2   7    6.60   17.20
  -8   2  -8   46.10   26.80
  -8  -2  -8   32.40   19.60
   8  -2   8   12.40   17.00
  -8   2  -9   65.29   24.20
  -8  -2  -9   70.69   33.30
   8  -2   9   72.39   30.60
  -8   2 -10  246.28   52.79
  -8   2 -10  408.66   73.69
  -8  -2 -10  405.96   80.09
   8  -2  10  334.27   60.99
  -8   2 -11  192.58   57.29
  -8   2 -11  134.39   44.90
  -8  -2 -11  131.79   43.00
   8  -2  11   83.49   37.50
  -8   2 -12   26.50   30.30
  -8   2 -12   58.99   33.90
   8  -2  12   24.70   32.00
   8  -3 -17  -30.60   28.50
   8  -3 -17   -1.70   27.80
   8   3 -16  104.09   39.10
   8   3 -16  110.09   40.20
   8  -3 -16  123.69   41.40
   8  -3 -16  114.49   41.10
   8  -3 -16   91.19   26.80
   8   3 -15  263.47   67.69
   8   3 -15  234.68   55.89
   8  -3 -15  190.48   45.00
   8  -3 -15  292.07   55.49
   8  -3 -15  220.38   42.20
   8   3 -14  640.64   74.79
   8   3 -14  554.14   71.69
   8  -3 -14  496.55   53.89
   8  -3 -14  498.65   59.09
   8  -3 -14  466.35   63.49
   8   3 -13   88.89   28.60
   8   3 -13   44.30   25.10
   8  -3 -13   64.19   26.90
   8  -3 -13   -5.20   17.30
   8  -3 -13   99.99   31.10
   8   3 -12  148.59   39.40
   8   3 -12  121.69   34.70
   8  -3 -12   98.49   27.90
   8  -3 -12  130.19   29.90
   8  -3 -12  121.49   30.00
   8   3 -11   30.00   19.80
   8   3 -11   23.10   13.60
   8  -3 -11   45.40   18.30
   8  -3 -11   22.30   15.30
   8  -3 -11   20.80   14.70
   8   3 -10   25.50   14.80
   8   3 -10   -0.80   11.70
   8  -3 -10   16.90   11.90
   8  -3 -10   -7.00    9.80
   8  -3 -10   -7.10    8.30
   8   3  -9  305.07   55.39
   8   3  -9  372.66   47.30
   8  -3  -9  444.26   48.80
   8  -3  -9  462.05   36.80
   8  -3  -9  379.76   39.90
   8  -3  -9  334.97   35.90
   8   3  -8  314.07   43.20
   8   3  -8  326.47   43.80
   8  -3  -8  355.16   35.00
   8  -3  -8  332.67   27.40
   8  -3  -8  370.66   33.40
   8  -3  -8  341.17   42.60
   8   3  -7   21.40   13.00
   8   3  -7  -10.90    5.60
   8  -3  -7  -11.30   11.60
   8  -3  -7   -9.00    7.20
   8   3  -6  152.38   35.20
   8   3  -6  149.88   36.40
   8  -3  -6  111.59   30.40
   8   3  -5   95.69   24.20
   8   3  -5   95.59   25.00
   8  -3  -5   82.39   24.70
   8   3  -4  363.96   44.40
   8   3  -4  343.07   43.60
   8  -3  -4  312.77   41.90
   8   3  -3  418.16   47.70
   8   3  -3  485.55   50.09
   8  -3  -3  389.86   47.10
   8  -3  -3  442.76   30.30
  -8   3   2 1748.03   64.99
   8   3  -2 1580.54   96.59
   8  -3  -2 1756.32  105.69
   8  -3  -2 1837.92   70.79
   8   3  -1  169.18   36.00
   8   3  -1  176.48   46.80
  -8   3   1  192.18   21.20
   8  -3  -1  167.08   36.10
   8  -3  -1  162.78   22.70
  -8   3   0  157.98   24.80
   8   3   0  134.49   32.30
   8   3   0  171.48   32.90
   8  -3   0  191.18   29.30
   8  -3   0  122.09   31.20
   8   3   1  109.79   22.80
  -8   3  -1   75.89   18.60
  -8   3  -1  122.19   19.70
   8   3   1  101.79   30.80
   8   3   1  147.09   32.20
   8  -3   1  120.59   25.40
   8  -3   1   72.99   25.30
  -8   3  -2   18.70   12.90
   8   3   2   56.19   21.70
   8   3   2   16.80   13.00
  -8   3  -2   17.60   10.80
   8   3   2   15.30   10.00
  -8   3  -2   31.80   12.80
   8  -3   2   16.40   12.00
  -8   3  -3   97.69   20.90
  -8   3  -3   93.69   24.40
  -8   3  -3   96.29   25.70
   8   3   3  125.89   32.40
   8  -3   3  103.89   31.70
  -8   3  -4  289.97   40.10
   8   3   4  401.96   53.09
  -8   3  -4  441.26   81.29
   8  -3   4  244.08   49.40
  -8   3  -5  -16.90   11.00
  -8   3  -5  -11.30   13.30
   8  -3   5   -9.90   11.50
  -8   3  -6  181.48   41.10
  -8   3  -6  249.08   49.20
   8  -3   6  232.18   48.20
  -8   3  -7  132.89   37.50
  -8   3  -7  155.78   62.39
   8  -3   7  195.88   46.70
  -8   3  -8  202.28   79.59
  -8   3  -8  187.48   46.90
   8  -3   8  281.37   61.49
  -8  -3  -8  230.78   57.39
  -8   3  -9   17.50   24.00
  -8   3  -9    7.20   26.30
   8  -3   9   10.10   29.10
  -8  -3  -9  -28.10   18.00
  -8   3 -10  295.07   60.99
  -8   3 -10  263.17   55.89
  -8  -3 -10  231.38   61.19
   8  -3  10  416.16   76.49
  -8   3 -11   23.20   29.40
  -8   3 -11   -1.60   35.90
   8  -3  11  -37.90   29.30
   8  -4 -15   91.49   32.10
   8   4 -14  143.09   45.20
   8   4 -14   38.10   27.70
   8  -4 -14   93.99   34.00
   8  -4 -14   37.70   25.50
   8  -4 -14   61.49   26.90
   8   4 -13  227.88   67.29
   8   4 -13  269.77   58.99
   8  -4 -13  158.08   37.50
   8  -4 -13  331.57   55.99
   8  -4 -13  307.57   49.50
   8   4 -12  198.48   45.50
   8   4 -12  186.08   48.70
   8  -4 -12  250.07   45.50
   8  -4 -12  186.18   34.40
   8  -4 -12  214.78   41.80
   8   4 -11   -2.50   14.20
   8   4 -11  -22.40   16.30
   8  -4 -11   -6.20   13.70
   8  -4 -11   18.60   18.30
   8  -4 -11   20.40   16.80
   8   4 -10   28.90   16.60
   8   4 -10   16.40   19.10
   8  -4 -10  -11.90   14.10
   8  -4 -10   24.20   14.70
   8   4  -9  586.24   71.39
   8   4  -9  587.94   65.79
   8  -4  -9  565.54   59.39
   8  -4  -9  576.04   54.79
   8   4  -8  208.88   46.60
   8   4  -8  141.79   33.90
   8  -4  -8  121.39   32.10
   8   4  -7  379.26   50.49
   8   4  -7  405.16   49.10
   8  -4  -7  299.87   41.70
   8  -4  -7  245.68   32.00
   8   4  -6   80.79   25.80
   8   4  -6  119.89   39.60
   8  -4  -6   44.20   17.60
   8  -4  -6  141.59   35.30
   8   4  -5   17.60   17.00
   8   4  -5    0.60   14.30
   8  -4  -5   57.99   16.30
   8  -4  -5    0.00   14.40
   8   4  -4   11.90   13.50
   8   4  -4   17.90   12.40
   8  -4  -4   -6.70   14.10
   8  -4  -4    6.10   11.00
   8   4  -3   38.00   18.90
   8   4  -3    2.60   10.10
   8  -4  -3   14.80   14.20
   8  -4  -3   34.40   17.20
   8   4  -2  111.69   31.60
   8  -4  -2   96.79   35.50
   8  -4  -2   82.19   20.80
   8   4  -1  290.57   48.60
  -8   4   1  341.07   35.70
   8  -4  -1  240.88   37.40
   8  -4  -1  292.77   53.19
   8   4   0  357.96   62.49
   8  -4   0  442.36   55.89
   8   4   1    4.30   13.60
   8   4   1  -20.70   16.90
  -8   4  -1   14.80   13.30
   8  -4   1   16.60   19.70
   8   4   2   24.20   11.90
   8   4   2   35.80   16.20
   8   4   2   -0.40   13.00
  -8   4  -2   -1.20   12.90
   8  -4   2  -18.60   15.20
  -8   4  -3  419.26   49.60
   8   4   3  450.55   56.49
   8  -4   3  534.15   69.39
  -8   4  -4  322.57   37.50
  -8   4  -4  284.87   40.50
   8   4   4  278.17   53.79
   8  -4   4  352.26   64.79
  -8   4  -5  203.68   37.10
  -8   4  -5  206.68   43.90
   8  -4   5  199.18   48.80
  -8   4  -6   56.69   19.90
  -8   4  -6   56.89   27.80
   8  -4   6   28.80   20.40
  -8   4  -7  -15.90   23.20
  -8   4  -7   10.80   25.40
   8  -4   7   10.10   19.80
  -8   4  -8   18.80   27.30
  -8   4  -8    0.80   46.60
   8  -4   8   15.50   19.80
  -8   4  -9    5.60   37.50
  -8   4  -9   57.39   35.50
   8  -5 -13   25.10   35.10
   8   5 -12   -1.20   27.10
   8  -5 -12   12.30   28.30
   8   5 -11  -18.20   19.90
   8   5 -11    7.30   20.80
   8  -5 -11   30.50   25.70
   8  -5 -11   15.70   21.60
   8   5 -10   23.70   23.30
   8   5 -10    9.10   19.00
   8  -5 -10  -26.80   18.90
   8  -5 -10   33.10   24.30
   8   5  -9   27.60   26.60
   8   5  -9   78.29   42.20
   8  -5  -9   48.40   24.20
   8  -5  -9  -15.80   21.70
   8   5  -8  178.38   42.70
   8   5  -8  234.98   53.69
   8  -5  -8  166.88   36.40
   8   5  -7  210.28   43.30
   8   5  -7  179.68   45.80
   8  -5  -7  186.78   43.10
   8   5  -6   87.69   28.30
   8   5  -6   50.39   29.30
   8  -5  -6   48.70   24.30
   8   5  -5   -2.20   17.40
   8   5  -5  -22.30   12.20
   8  -5  -5   26.50   17.50
   8   5  -4  166.48   43.70
   8   5  -4  115.69   33.20
   8  -5  -4  144.39   34.20
   8   5  -3  -34.20   14.30
   8  -5  -3   22.90   17.90
   8   5  -2  242.98   51.19
   8  -5  -2  256.17   50.89
  -8   5   1   66.99   23.50
   8   5  -1   79.09   24.70
   8  -5  -1   29.80   22.70
   8   5   0   -5.00   14.80
  -8   5   0  -22.60   13.60
   8  -5   0    0.90   15.00
  -8   5  -1   15.80   20.70
   8   5   1   29.80   16.40
   8  -5   1   23.40   24.70
  -8   5  -2   16.60   19.20
   8   5   2   -7.50   20.20
   8  -5   2    0.30   23.20
   8   5   3  161.48   47.00
  -8   5  -3  140.39   39.60
   8  -5   3  139.29   47.20
   8   5   4    2.50   23.30
  -8   5  -4    2.10   23.80
   8  -5   4   -1.40   21.50
  -8   5  -5  231.98   47.40
   8  -5   5  223.08   59.59
  -8   5  -6   74.79   33.60
  -8   5  -7   83.79   37.60
   8   6  -8  409.36   65.09
   8  -6  -8  261.97   53.49
   8   6  -7   33.90   34.70
   8  -6  -7   43.50   27.70
   8   6  -6   43.30   26.60
   8  -6  -6   38.00   27.80
   8   6  -5    9.30   27.80
   8  -6  -5   40.70   26.70
   8   6  -4   32.60   23.00
   8  -6  -4   22.40   26.10
   8   6  -3   27.00   22.50
   8  -6  -3   47.50   29.40
   8   6  -2  175.18   43.70
   8  -6  -2   56.69   38.50
   8   6  -1   56.29   30.80
   8  -6  -1    4.20   25.60
   8   6   0  377.76   64.79
   8  -6   0  241.18   59.69
  -8   6  -1  -44.60   25.50
   8   6   2  129.69   43.10
  -8   6  -2   74.49   36.60
   9   0 -19   28.40   29.40
   9   0 -18  124.29   42.30
   9   0 -18   48.10   29.80
   9   0 -17  -10.80   21.60
   9   0 -17   -5.10   18.90
   9   0 -16 1780.12  121.49
   9   0 -16 1739.63  131.69
   9   0 -15   11.10   15.00
   9   0 -15  -21.80   14.40
   9   0 -14  494.45   64.69
   9   0 -14  354.26   57.29
   9   0 -13   20.50   12.00
   9   0 -13  -24.00   10.10
   9   0 -12    3.90   11.10
   9   0 -12   -5.80    9.50
   9   0 -11   11.70   12.00
   9   0 -11    3.20    8.60
   9   0 -10   27.40   12.70
  -9   0  10   36.20   15.20
   9   0 -10   27.20   15.10
   9   0  -9    0.50    5.90
   9   0  -9   -1.10    8.20
  -9   0   8 2439.26   93.49
   9   0  -8 2554.34   90.79
   9   0  -8 2455.35  115.29
   9   0  -7   -7.20    4.70
   9   0  -7    8.40    4.30
  -9   0   7  -15.50    6.40
   9   0  -7   12.30    7.20
   9   0  -6 3416.06  128.49
   9   0  -6 3648.83  150.28
   9   0  -6 3541.15   96.99
  -9   0   6 3565.04  102.59
  -9   0   5   -1.10    7.40
   9   0  -5   10.30    8.20
  -9   0   5   10.60    6.80
   9   0  -5    2.20    4.10
   9   0  -5    3.30    7.20
   9   0  -4 2295.57   97.39
   9   0  -4 2189.78  107.69
  -9   0   4 2300.97   68.89
  -9   0   4 2214.28   97.89
   9   0  -3   -8.30    4.30
  -9   0   3   -2.40    3.80
  -9   0   3  -11.40    5.70
   9   0  -3   -0.90    3.40
   9   0  -2 2215.48  141.89
  -9   0   2 2631.44  105.99
  -9   0   2 2590.74   79.49
   9   0  -2 2505.65  103.89
   9   0  -1    1.60    5.30
  -9   0   1    6.70    5.80
   9   0  -1    9.10    8.00
  -9   0   0  664.03   45.80
   9   0   0  658.83   53.79
   9   0   0  668.53   57.09
   9   0   1    7.10    6.30
   9   0   1    7.80    7.10
  -9   0  -1    2.20    6.30
   9   0   2  865.31   80.29
   9   0   2 1105.49   74.99
  -9   0  -2  972.20   66.89
   9   0   3    7.30    7.00
  -9   0  -3   -3.10    8.80
  -9   0  -4  341.37   44.70
   9   0   4  400.86   41.50
  -9   0  -5    8.80   11.10
   9   0   5   -4.60    9.20
  -9   0  -6  159.98   39.20
   9   0   6  235.18   38.50
  -9   0  -7    9.40   13.60
   9   0   7    1.70   13.90
   9   0   8  904.51   67.79
  -9   0  -8  809.22   85.99
   9   0   9    0.90   19.50
  -9   0  -9  -36.10   20.60
  -9   0 -10   63.49   32.90
   9   0  10   90.99   30.60
  -9   0 -11    2.70   30.10
   9   0  11  -10.20   31.40
  -9   0 -12   -2.00   34.00
   9   1 -19   -2.20   33.70
   9  -1 -19  118.99   37.30
   9  -1 -19   54.09   30.40
   9   1 -18  -32.30   36.60
   9   1 -18  -23.80   29.40
   9  -1 -18   19.00   27.50
   9  -1 -18   37.30   28.50
   9  -1 -18   21.20   26.20
   9   1 -17  392.16   68.49
   9   1 -17  303.97   59.99
   9  -1 -17  365.96   65.09
   9  -1 -17  383.56   66.89
   9  -1 -17  537.55   73.39
   9   1 -16   47.30   30.10
   9   1 -16   43.40   29.60
   9  -1 -16   88.59   35.30
   9  -1 -16   18.90   23.30
   9  -1 -16   93.99   30.20
   9   1 -15  477.15   83.49
   9   1 -15  464.45   62.79
   9  -1 -15  319.87   76.39
   9  -1 -15  451.75   60.69
   9  -1 -15  546.55   59.29
   9   1 -14   18.80   15.50
   9   1 -14   -7.50   14.80
   9  -1 -14    0.40   12.30
   9  -1 -14   20.80   13.20
   9   1 -13  295.27   58.29
   9   1 -13  390.06   46.80
   9  -1 -13  402.66   50.99
   9  -1 -13  395.36   46.40
   9  -1 -13  343.57   57.99
   9   1 -12  180.78   35.90
   9   1 -12  117.19   37.00
   9  -1 -12  160.08   37.10
   9  -1 -12  175.58   41.10
   9  -1 -12  133.29   27.50
   9   1 -11   14.40   12.90
   9   1 -11    5.00    8.40
   9  -1 -11    6.40    7.40
   9  -1 -11   13.10   13.10
   9  -1 -11    3.90    9.70
   9   1 -10  205.18   35.30
   9   1 -10  153.08   33.60
   9  -1 -10  194.48   36.20
   9  -1 -10  180.98   40.00
   9  -1 -10  210.88   27.70
   9   1  -9 1934.31  111.39
   9  -1  -9 1909.71  109.69
   9  -1  -9 2066.09   99.39
   9  -1  -9 1846.92   74.99
   9   1  -8  199.48   40.60
  -9   1   8  213.78   29.60
   9   1  -8  203.38   26.60
   9  -1  -8  124.59   30.00
  -9  -1   8  243.78   30.30
   9  -1  -8  182.28   33.00
  -9   1   7  314.87   33.30
   9   1  -7  268.27   36.10
   9   1  -7  328.27   33.00
   9  -1  -7  240.88   28.50
  -9  -1   7  225.08   30.20
   9  -1  -7  240.58   44.40
   9   1  -6   15.90    5.60
   9   1  -6  -12.40    4.90
  -9   1   6   18.90    9.50
  -9  -1   6   -2.30   10.10
   9  -1  -6   -8.20    3.90
   9  -1  -6   -7.20    4.80
   9   1  -5 1860.51   95.59
  -9   1   5 1747.63   79.99
   9   1  -5 1843.32   77.89
  -9  -1   5 1831.52   79.19
   9  -1  -5 1889.31   78.69
   9  -1  -5 1889.61  101.79
   9   1  -4   -4.00    5.60
  -9   1   4   12.30    9.40
   9   1  -4    2.00    4.80
  -9  -1   4   17.40    7.40
   9  -1  -4    8.70    5.60
   9  -1  -4   15.90    9.10
  -9   1   3   28.20   10.80
   9   1  -3   18.20   10.20
   9   1  -3   14.90   13.10
  -9  -1   3    7.80    8.10
   9  -1  -3   43.90   12.70
   9  -1  -3   14.20    8.90
   9   1  -2   13.70    9.10
   9   1  -2   -8.40    4.90
  -9   1   2    5.00    8.20
   9  -1  -2    5.60    6.70
  -9  -1   2   16.40   12.70
   9  -1  -2   14.90    8.00
  -9   1   1    9.50    9.30
   9   1  -1   10.70   10.00
   9   1  -1    3.70    6.90
  -9  -1   1   20.70    9.90
   9  -1  -1   -1.00    9.90
   9  -1  -1   -1.50    7.90
  -9   1   0  244.48   25.30
   9   1   0  258.57   33.80
   9   1   0  306.97   33.60
  -9   1   0  211.78   28.20
   9  -1   0  246.08   30.60
   9  -1   0  275.97   45.60
  -9  -1   0  290.27   34.40
   9   1   1 5033.30  157.18
  -9   1  -1 5242.88  153.18
   9   1   1 5464.55  186.58
  -9   1  -1 4337.17  202.98
   9  -1   1 5213.48  179.08
  -9   1  -2  840.42   58.79
   9   1   2  955.70   73.99
   9   1   2  830.02   54.29
   9  -1   2  827.52   65.59
  -9   1  -3   75.49   22.10
   9   1   3   94.19   27.10
   9   1   3   80.99   21.10
   9  -1   3   69.69   21.30
  -9  -1  -3  124.09   30.20
  -9   1  -4  163.98   36.20
   9   1   4  161.28   27.60
  -9  -1  -4  144.49   37.80
   9  -1   4  120.39   30.30
   9   1   5    8.00   10.60
  -9   1  -5   32.30   15.90
   9  -1   5   22.90   12.50
  -9  -1  -5    8.20   15.80
   9   1   6   14.10   12.80
  -9   1  -6    4.30   16.70
   9  -1   6   28.10   16.30
  -9  -1  -6   35.60   16.80
  -9   1  -7  385.46   54.29
   9   1   7  356.76   36.30
  -9  -1  -7  301.97   61.69
   9  -1   7  505.75   54.79
   9   1   8   94.79   23.20
  -9   1  -8    2.00   20.30
   9  -1   8   44.40   22.30
  -9  -1  -8  108.09   35.70
   9   1   9  347.57   39.60
  -9   1  -9  277.87   59.39
   9  -1   9  269.27   52.69
  -9  -1  -9  389.66   75.09
  -9   1 -10   -5.00   23.70
   9  -1  10    8.90   21.20
  -9  -1 -10  -15.00   25.60
  -9  -1 -11    9.70   27.00
   9  -1  11   53.39   29.10
  -9   1 -12   43.20   35.00
   9  -1  12   74.79   47.20
   9   2 -18    9.50   25.80
   9  -2 -18  -31.10   27.30
   9  -2 -18   18.30   29.50
   9   2 -17  269.57   61.79
   9   2 -17  322.17   73.39
   9  -2 -17  341.57   68.09
   9  -2 -17  355.86   67.59
   9  -2 -17  431.36   55.29
   9   2 -16 1050.49  118.49
   9   2 -16  848.32   84.49
   9  -2 -16  721.33   80.59
   9  -2 -16  861.81   79.59
   9  -2 -16  782.72   81.29
   9   2 -15  240.28   58.89
   9   2 -15  215.78   45.80
   9  -2 -15  235.18   47.00
   9  -2 -15  235.88   50.79
   9  -2 -15  198.98   39.80
   9   2 -14  385.36   70.09
   9   2 -14  384.76   65.29
   9  -2 -14  480.65   55.89
   9  -2 -14  339.47   48.00
   9  -2 -14  307.27   53.39
   9   2 -13    0.10   10.70
   9   2 -13  -14.80   11.40
   9  -2 -13   12.40   17.70
   9  -2 -13   10.20   13.80
   9  -2 -13   10.90   14.00
   9   2 -12   71.29   22.80
   9   2 -12   54.49   24.20
   9  -2 -12   79.49   27.90
   9  -2 -12   85.59   25.20
   9  -2 -12   88.29   25.40
   9   2 -11   -1.60   11.80
   9  -2 -11   25.60   14.00
   9  -2 -11   28.60   15.60
   9  -2 -11   10.20   11.10
   9   2 -10   44.20   18.40
   9   2 -10    0.80    9.10
   9  -2 -10    7.10   12.70
   9  -2 -10  -15.20    8.50
   9  -2 -10   -9.20   10.40
   9   2  -9  162.58   34.80
   9   2  -9  188.48   40.70
   9  -2  -9  182.28   22.40
   9  -2  -9  190.18   39.60
   9  -2  -9  183.38   31.50
   9   2  -8 2211.28  121.69
   9   2  -8 2233.98  111.09
   9  -2  -8 2219.88   90.69
   9  -2  -8 2158.28  116.39
   9   2  -7   64.89   23.30
   9   2  -7   92.59   24.30
   9  -2  -7   67.79   23.30
   9  -2  -7   81.19   16.00
   9   2  -6 1284.37   78.89
   9   2  -6 1282.97   86.59
  -9   2   6 1201.78   57.39
   9  -2  -6 1257.57   55.59
   9  -2  -6 1300.57   86.49
   9   2  -5 1533.65   83.79
   9   2  -5 1344.37   87.49
  -9   2   5 1511.65   61.49
   9  -2  -5 1479.55   92.59
   9  -2  -5 1477.45   57.89
   9   2  -4  107.99   29.20
   9   2  -4  104.09   25.00
  -9   2   4   71.69   14.10
   9  -2  -4   89.49   15.60
   9  -2  -4   69.89   20.00
  -9   2   3  625.14   37.00
   9   2  -3  604.04   55.89
   9  -2  -3  585.74   34.70
   9  -2  -3  616.34   58.99
   9   2  -2 1432.26   89.39
  -9   2   2 1403.56   59.39
   9  -2  -2 1431.56   92.49
   9  -2  -2 1453.75   61.19
   9   2  -1    5.10    7.80
  -9   2   1   25.50    8.50
   9   2  -1    7.00    7.50
   9  -2  -1   13.10   10.60
   9   2   0  635.84   59.09
   9   2   0  529.95   44.00
  -9   2   0  539.85   39.00
  -9   2   0  518.05   33.50
   9  -2   0  542.55   55.39
  -9   2  -1   10.20    8.70
  -9   2  -1  -11.80   10.00
   9   2   1    7.20    8.20
   9   2   1    7.30   10.70
   9  -2   1   -2.90    8.70
  -9   2  -2  146.59   28.80
   9   2   2  173.98   40.50
  -9   2  -2  180.18   30.10
   9   2   2  170.48   23.50
   9  -2   2  109.89   23.00
   9  -2   2  231.48   46.60
  -9   2  -3   75.89   20.40
   9   2   3   70.89   27.40
   9   2   3   66.79   17.10
   9  -2   3   91.69   30.10
   9   2   4  530.65   35.60
  -9   2  -4  460.25   51.49
   9   2   4  540.95   66.99
   9  -2   4  581.84   60.19
  -9   2  -5   30.60   17.30
  -9  -2  -5   15.70   15.40
   9  -2   5   49.00   16.20
  -9   2  -6   11.10   16.70
   9  -2   6    5.90   17.60
  -9  -2  -6  -23.50   11.70
  -9   2  -7  712.33   71.89
   9  -2   7  573.64   66.59
  -9  -2  -7  602.64   73.09
  -9   2  -8  313.87   60.79
  -9  -2  -8  191.18   46.50
   9  -2   8  306.97   55.59
  -9   2  -9  167.78   47.90
   9  -2   9  189.58   49.00
  -9  -2  -9  210.68   56.89
  -9   2 -10  113.99   41.80
   9  -2  10   48.80   32.90
  -9  -2 -10  125.69   39.80
  -9   2 -11   40.10   31.30
  -9   2 -11   42.80   36.60
   9  -2  11    9.30   33.10
   9  -3 -17  174.78   48.70
   9  -3 -17  180.48   46.70
   9   3 -16    1.30   22.20
   9   3 -16    6.50   25.60
   9  -3 -16  -11.60   27.30
   9  -3 -16   10.10   25.50
   9  -3 -16   -6.40   22.80
   9   3 -15  149.19   41.00
   9   3 -15   82.19   38.20
   9  -3 -15  -14.80   29.30
   9  -3 -15  100.59   41.10
   9   3 -14   93.89   35.90
   9   3 -14  116.49   36.60
   9  -3 -14   60.79   26.60
   9  -3 -14  114.59   30.20
   9  -3 -14  100.29   33.20
   9   3 -13  165.18   43.20
   9   3 -13  177.98   49.30
   9  -3 -13  194.58   37.20
   9  -3 -13  171.78   37.10
   9  -3 -13  118.89   31.00
   9   3 -12  418.46   74.59
   9   3 -12  344.57   60.69
   9  -3 -12  299.47   41.40
   9  -3 -12  326.57   48.40
   9  -3 -12  380.46   47.00
   9   3 -11  580.94   69.89
   9   3 -11  778.02   74.89
   9   3 -10 1163.98   95.69
   9  -3 -10 1098.69   63.39
   9  -3 -10 1062.39   62.49
   9  -3 -10 1193.58   85.79
   9  -3 -10 1046.10   67.09
   9   3  -9  406.56   54.19
   9   3  -9  316.07   56.19
   9  -3  -9  453.45   38.60
   9  -3  -9  391.16   46.40
   9  -3  -9  368.56   33.50
   9  -3  -9  316.87   30.30
   9   3  -8   45.80   19.90
   9   3  -8   -0.10    8.40
   9  -3  -8   22.10   10.20
   9  -3  -8    7.30   13.70
   9   3  -7   40.40   18.70
   9   3  -7   46.10   24.60
   9  -3  -7   67.09   23.30
   9   3  -6   23.10   15.20
   9   3  -6   24.10   14.00
   9  -3  -6   16.10   14.60
   9   3  -5  819.52   70.49
   9   3  -5  861.01   72.09
   9  -3  -5  854.01   73.19
   9   3  -4  298.27   37.80
   9   3  -4  166.78   34.90
   9  -3  -4  182.98   40.50
   9   3  -3  492.75   54.29
   9   3  -3  507.65   54.39
   9  -3  -3  509.75   56.09
   9   3  -2  201.08   38.20
   9  -3  -2  130.89   34.10
   9   3  -1  128.79   32.00
   9  -3  -1  161.08   24.90
   9  -3  -1  109.89   32.90
   9   3   0  820.92   72.69
  -9   3   0  674.53   44.00
   9   3   0  660.23   57.69
   9  -3   0  742.73   49.50
   9  -3   0  727.63   71.89
   9   3   1  979.00   81.59
  -9   3  -1 1095.49   59.89
  -9   3  -1 1039.50   53.99
   9   3   1 1018.20   65.19
   9   3   1 1069.69   61.19
  -9   3  -1  967.90   48.50
   9  -3   1 1099.89   87.89
   9  -3   1  962.30   62.19
  -9   3  -2  957.70   62.69
  -9   3  -2  962.00   58.79
   9   3   2 1078.79   57.89
   9   3   2  844.72   55.29
   9  -3   2 1091.79   91.29
  -9   3  -3    3.10   13.80
   9   3   3   24.70   15.00
  -9   3  -3   30.00   16.90
  -9   3  -3   -0.20   16.30
   9   3   3   24.50   10.90
   9  -3   3   21.00   13.70
  -9   3  -4  -12.90   11.70
  -9   3  -4   -4.10   12.70
   9  -3   4    6.60   13.60
  -9   3  -5   24.80   18.50
  -9   3  -5   18.00   18.30
   9  -3   5   24.00   17.80
  -9   3  -6   -1.70   18.80
  -9   3  -6    2.10   19.70
   9  -3   6  -29.20   15.60
  -9   3  -7  453.75   63.49
  -9   3  -7  348.27   61.29
   9  -3   7  417.06   73.49
  -9  -3  -7  414.36   77.19
  -9   3  -8   84.19   30.70
  -9   3  -8   -0.50   25.20
   9  -3   8    2.50   26.70
  -9   3  -9   47.70   32.10
  -9   3  -9   91.49   40.00
  -9  -3  -9   15.20   23.00
   9  -3   9   23.90   40.00
  -9   3 -10  -22.10   32.70
  -9   3 -10   10.20   33.50
   9  -3  10   30.40   29.50
   9  -4 -15  131.59   39.50
   9   4 -14  343.67   62.09
   9   4 -14  348.77   69.39
   9   4 -13   27.00   29.50
   9   4 -13    7.50   24.80
   9  -4 -13   11.30   26.90
   9  -4 -13    7.50   26.80
   9   4 -12   69.49   29.30
   9   4 -12   70.09   25.50
   9  -4 -12   57.29   27.00
   9  -4 -12   43.10   25.60
   9  -4 -12  122.19   28.70
   9   4 -11   13.60   13.80
   9   4 -11   13.60   16.00
   9  -4 -11   47.60   22.00
   9  -4 -11    9.20   16.00
   9   4 -10  239.38   50.59
   9   4 -10  204.68   46.30
   9  -4 -10  191.08   35.80
   9  -4 -10  260.87   42.90
   9   4  -9  175.48   43.70
   9   4  -9  147.19   35.50
   9  -4  -9  174.98   33.70
   9  -4  -9  186.48   35.60
   9   4  -8  516.35   62.39
   9   4  -8  469.85   62.59
   9  -4  -8  439.06   40.10
   9  -4  -8  505.35   57.59
   9  -4  -8  440.76   43.40
   9   4  -7   11.00   16.00
   9   4  -7   35.70   15.80
   9  -4  -7    6.00   15.60
   9  -4  -7   35.80   18.10
   9   4  -6   98.59   32.10
   9   4  -6   51.89   18.50
   9  -4  -6  132.89   36.70
   9  -4  -6   80.89   24.10
   9   4  -5  649.24   68.79
   9   4  -5  757.22   71.09
   9   4  -4  319.07   55.49
   9   4  -4  290.77   54.29
   9  -4  -4  363.96   48.80
   9   4  -3  438.56   54.19
   9  -4  -3  409.66   38.30
   9  -4  -3  477.35   59.29
   9   4  -2  828.72   74.59
   9  -4  -2  695.83   71.79
   9  -4  -2  650.83   50.19
  -9   4   1   25.90   10.90
   9   4  -1   42.40   16.80
   9  -4  -1   30.10   14.50
   9  -4  -1   33.60   17.80
   9   4   0  104.99   30.60
  -9   4   0  116.39   23.40
   9  -4   0  127.69   41.60
  -9   4  -1   -0.80   10.90
   9   4   1  -30.30   24.70
   9   4   1   22.90   17.80
   9   4   1  -10.70   11.20
   9  -4   1   21.70   16.20
  -9   4  -2   -4.80   13.30
   9   4   2   32.30   12.90
   9   4   2   -5.80   13.50
   9   4   3   88.89   29.90
  -9   4  -3   97.99   27.30
   9  -4   3  154.18   43.40
  -9   4  -4  430.86   52.69
   9   4   4  479.45   62.69
  -9   4  -4  441.66   48.20
   9  -4   4  536.25   70.19
  -9   4  -5   93.89   31.10
  -9   4  -5  157.48   36.80
   9  -4   5  109.29   36.50
  -9   4  -6  247.98   51.39
  -9   4  -6  314.87   54.69
   9  -4   6  222.18   51.09
  -9   4  -7  577.84   67.39
  -9   4  -7  501.25   68.59
   9  -4   7  629.14   79.79
  -9   4  -8  -20.10   25.20
   9   5 -12    2.80   29.80
   9  -5 -12   26.70   31.20
   9   5 -11 1457.65  126.59
   9   5 -11 1278.77  112.19
   9  -5 -11 1380.96   99.79
   9   5 -10  219.38   48.30
   9  -5 -10  218.68   43.70
   9  -5 -10  216.78   48.90
   9   5  -9   20.40   19.80
   9   5  -9  -29.00   18.80
   9  -5  -9  -13.50   19.30
   9  -5  -9   26.10   20.10
   9   5  -8   21.30   24.40
   9   5  -8  -11.70   20.70
   9  -5  -8   44.60   25.40
   9   5  -7   66.59   28.70
   9   5  -7   35.30   29.40
   9  -5  -7   21.50   19.30
   9   5  -6    2.10   14.90
   9   5  -6   28.80   22.90
   9  -5  -6   -9.20   15.60
   9   5  -5  420.36   56.49
   9   5  -5  494.45   68.09
   9  -5  -5  504.05   59.89
   9   5  -4   76.69   31.50
   9   5  -4   32.90   24.80
   9  -5  -4   47.10   28.70
   9   5  -3  401.66   64.59
   9  -5  -3  452.05   61.09
   9   5  -2  -26.10   13.20
   9  -5  -2   -9.10   18.10
   9   5  -1  219.08   46.80
   9  -5  -1  125.89   44.00
   9   5   0  166.98   42.70
  -9   5   0  177.98   33.40
   9  -5   0  191.38   50.49
  -9   5  -1   56.79   23.50
   9   5   1   -6.00   22.00
   9  -5   1   48.80   32.10
   9   5   2  311.87   61.49
  -9   5  -2  302.27   48.70
   9  -5   2  260.77   60.69
  -9   5  -3  312.07   80.39
   9   5   3  296.47   60.39
   9  -5   3  418.96   79.29
  -9   5  -4   43.50   28.70
   9   5   4  -10.30   22.70
   9  -5   4   -1.50   30.30
  -9   5  -5  109.39   41.10
  -9   5  -6  -25.40   30.90
   9   6  -7   40.00   27.80
   9   6  -6  -27.50   31.70
   9  -6  -6   38.70   39.70
   9   6  -5   84.09   33.20
   9  -6  -5  123.49   39.60
   9   6  -4  759.92   85.99
   9  -6  -4  778.52   88.59
   9   6  -3   86.19   34.20
   9  -6  -3   86.29   36.70
   9   6  -2   75.59   35.30
   9  -6  -2   96.49   40.90
   9   6  -1   -6.80   26.40
   9   6   0   79.29   40.30
  10   0 -19  -55.89   21.60
  10   0 -18   21.00   26.30
  10   0 -18    3.20   23.40
  10   0 -17   47.10   20.60
  10   0 -17   48.60   29.60
  10   0 -16  125.99   43.60
  10   0 -16   88.09   29.60
  10   0 -15  -22.30   14.20
  10   0 -15   12.00   17.70
  10   0 -14  513.65   64.29
  10   0 -14  483.25   54.99
  10   0 -13   11.30   16.40
  10   0 -12 1277.17   93.99
  10   0 -12 1396.86   82.29
  10   0 -11    1.70    6.70
  10   0 -11   -9.40   10.80
  10   0 -10  103.19   21.80
  10   0 -10   75.39   25.30
 -10   0  10   86.79   21.50
  10   0  -9   -9.20    8.10
 -10   0   9    5.90   10.20
  10   0  -8   -2.00    4.90
  10   0  -8   26.90   12.40
 -10   0   8   -1.40    7.90
  10   0  -8    1.80   10.60
  10   0  -7    7.60   12.40
  10   0  -7   -4.60    5.60
 -10   0   7   -7.00    6.30
  10   0  -6   46.80   10.60
 -10   0   6   66.59   13.60
  10   0  -6   57.19   17.60
  10   0  -6   23.40   15.40
  10   0  -5   -5.30    7.50
  10   0  -5   -2.00    6.60
 -10   0   4 3059.49   86.09
  10   0  -4 3174.78  138.29
  10   0  -3   -0.60    6.40
  10   0  -3  -14.20    7.00
 -10   0   3   -4.70    4.90
  10   0  -2 2884.21  119.59
  10   0  -2 3018.30  128.29
 -10   0   2 3032.50   92.39
  10   0  -1   -8.60    6.50
 -10   0   1    2.20    4.90
 -10   0   1    6.00    6.70
  10   0  -1   -1.30    7.10
 -10   0   0 1385.76   73.29
  10   0   0 1415.66   84.09
  10   0   0 1461.55   83.99
 -10   0  -1    2.50    7.70
  10   0   1    2.50    9.00
  10   0   1   -8.00    5.90
  10   0   2 1027.60   77.29
  10   0   2 1257.37   77.09
 -10   0  -2  981.30   71.39
 -10   0  -3   19.50   11.30
  10   0   3   -5.60    9.20
  10   0   4 1210.68   77.59
 -10   0  -4 1105.69   82.99
 -10   0  -5  -24.50   11.20
  10   0   6  144.99   33.10
 -10   0  -6  155.58   40.20
  10   0   7   -1.40   15.60
 -10   0  -7  -23.80   17.20
 -10   0  -8  409.56   72.99
  10   0   8  423.46   46.60
  10   0   9  -30.80   22.50
 -10   0  -9    8.40   21.60
 -10   0 -10    4.40   21.60
  10   0  10   51.99   30.40
 -10   0 -11  -13.00   24.10
  10   1 -18   22.90   41.60
  10   1 -18  177.58   65.59
  10  -1 -18   97.29   33.20
  10  -1 -18   89.19   40.60
  10  -1 -18   93.99   37.60
  10   1 -17  212.58   50.99
  10   1 -17  162.38   43.20
  10  -1 -17  155.68   41.70
  10  -1 -17  150.88   42.20
  10  -1 -17  135.39   41.60
  10   1 -16   31.00   26.90
  10   1 -16  -37.20   15.60
  10  -1 -16   31.00   19.00
  10  -1 -16  -10.70   20.70
  10   1 -15   47.80   25.00
  10   1 -15   74.99   27.00
  10  -1 -15   63.29   19.60
  10  -1 -15   83.89   23.70
  10  -1 -15   26.50   21.60
  10   1 -14    7.40   17.20
  10   1 -14    3.60   13.70
  10  -1 -14  -15.90   13.00
  10  -1 -14   14.80   16.80
  10  -1 -14   -7.80   10.50
  10   1 -13  461.55   51.79
  10   1 -13  504.55   61.99
  10  -1 -13  445.06   53.09
  10  -1 -13  398.16   67.99
  10  -1 -13  456.65   47.50
  10   1 -12    6.40   11.70
  10  -1 -12  -19.60    9.30
  10  -1 -12   37.10   15.80
  10  -1 -12   22.30   14.90
  10   1 -11  145.69   33.80
  10   1 -11  119.79   30.50
  10  -1 -11  163.58   35.50
  10  -1 -11  197.08   27.10
  10  -1 -11  192.68   42.90
  10   1 -10   17.30   11.20
  10   1 -10    4.90   11.70
  10  -1 -10   33.60   14.10
  10  -1 -10   38.30   12.50
  10  -1 -10    4.40    6.60
  10   1  -9  365.06   46.80
  10   1  -9  434.36   78.89
  10  -1  -9  475.35   31.20
  10  -1  -9  498.35   55.79
  10  -1  -9  475.55   46.20
  10   1  -8  220.48   41.20
  10   1  -8  212.58   28.20
  10  -1  -8  193.38   38.90
  10  -1  -8  273.97   35.70
 -10  -1   8  222.28   35.10
  10   1  -7  104.89   21.10
 -10   1   7  114.19   22.70
  10   1  -7   65.49   21.40
  10  -1  -7   86.09   27.30
 -10  -1   7   93.39   23.70
  10  -1  -7  100.59   23.00
  10   1  -6  799.62   50.49
  10   1  -6  850.41   66.19
 -10   1   6  819.62   55.39
  10  -1  -6  785.42   67.89
 -10  -1   6  831.32   52.59
  10  -1  -6  824.62   53.59
  10   1  -5 1358.56   83.79
 -10   1   5 1397.16   73.89
  10   1  -5 1328.27   66.59
 -10  -1   5 1295.97   78.49
  10  -1  -5 1479.95   71.19
  10  -1  -5 1343.17   88.19
  10   1  -4    6.60    9.00
 -10   1   4    0.30    7.40
  10   1  -4   -7.90    5.20
  10  -1  -4   -2.80    5.10
  10  -1  -4    5.60    6.60
  10   1  -3  201.68   35.10
 -10   1   3  271.27   31.30
  10   1  -3  284.67   35.70
  10  -1  -3  228.18   41.20
 -10  -1   3  220.48   26.50
  10  -1  -3  236.18   27.10
  10   1  -2   29.40   13.80
 -10   1   2   29.10   12.60
  10   1  -2   50.29   16.20
 -10  -1   2   28.90   12.30
  10  -1  -2   32.90   11.00
  10  -1  -2   33.10   14.00
  10   1  -1  932.81   65.69
 -10   1   1  931.81   59.39
  10   1  -1  956.80   71.59
 -10  -1   1  924.21   59.09
  10  -1  -1  990.10   72.59
  10  -1  -1  901.91   60.09
  10   1   0  143.39   38.80
 -10   1   0  112.99   20.30
  10   1   0   99.39   25.10
  10  -1   0  118.69   28.00
  10  -1   0  127.49   26.80
  10   1   1  304.97   37.70
  10   1   1  234.38   45.50
 -10   1  -1  285.07   32.00
  10  -1   1  285.17   38.90
  10   1   2   13.10    9.10
  10   1   2   14.80   11.50
 -10   1  -2   11.90    8.80
  10  -1   2   14.00   12.60
  10   1   3   21.10   15.00
  10   1   3   28.90   13.20
 -10   1  -3   -8.80   12.70
 -10  -1  -3   52.79   20.90
  10  -1   3    7.70    9.60
  10   1   4  165.88   29.20
 -10   1  -4  177.48   36.30
  10  -1   4  149.69   34.70
 -10  -1  -4  189.18   41.00
  10   1   5 3285.47  121.69
 -10   1  -5 3098.49  152.28
 -10  -1  -5 3325.27  165.88
  10  -1   5 3156.38  148.49
 -10   1  -6   35.90   22.30
  10   1   6   30.90   14.50
 -10  -1  -6   31.50   18.00
  10  -1   6   45.60   20.40
 -10   1  -7   44.40   32.50
  10   1   7   25.30   14.60
  10  -1   7   15.90   17.90
 -10  -1  -7    5.20   16.40
  10   1   8    1.20   17.20
 -10   1  -8   31.60   23.50
  10  -1   8  -33.00   15.80
 -10  -1  -8  -26.70   15.10
 -10   1  -9    7.50   22.00
 -10  -1  -9  -52.59   20.10
  10  -1   9   11.60   19.90
 -10   1 -10   43.80   31.70
  10  -1  10  -10.60   25.00
 -10  -1 -10   17.50   26.30
 -10   1 -11  408.06   77.49
  10  -1  11  349.47   64.69
 -10  -1 -11  372.16  101.89
  10   2 -18  -29.90   22.20
  10  -2 -18  -44.60   31.80
  10  -2 -18   10.90   32.90
  10  -2 -18   72.19   28.70
  10   2 -17   38.30   41.50
  10  -2 -17  -12.70   26.80
  10  -2 -17   22.00   27.90
  10  -2 -17   32.90   23.30
  10   2 -16  119.49   44.30
  10   2 -16  115.39   29.90
  10  -2 -16  103.19   38.80
  10  -2 -16  115.49   35.00
  10  -2 -16   43.30   55.09
  10   2 -15   79.29   27.70
  10   2 -15   50.49   25.60
  10  -2 -15  180.08   41.00
  10  -2 -15  100.49   30.10
  10  -2 -15   76.09   27.90
  10   2 -14   42.60   27.00
  10   2 -14   57.09   22.10
  10  -2 -14   26.30   19.20
  10  -2 -14  116.99   31.50
  10  -2 -14   29.70   28.90
  10   2 -13  914.41   89.79
  10   2 -13  992.70   80.69
  10  -2 -13  872.01   71.99
  10  -2 -13  968.60   83.89
  10  -2 -13 1074.59   74.09
  10   2 -12  656.53   64.09
  10   2 -12  763.72   77.39
  10  -2 -12  753.42   73.69
  10  -2 -12  640.14   58.69
  10  -2 -12  635.54   53.19
  10   2 -11  253.67   50.09
  10   2 -11  219.48   39.50
  10  -2 -11  244.08   46.00
  10  -2 -11  280.97   30.40
  10  -2 -11  230.88   38.30
  10   2 -10  577.64   65.09
  10   2 -10  528.15   54.69
  10  -2 -10  484.15   37.00
  10  -2 -10  604.44   62.89
  10  -2 -10  590.94   49.40
  10   2  -9   97.19   27.70
  10   2  -9   63.29   24.20
  10  -2  -9   95.49   21.50
  10  -2  -9  115.69   30.60
  10   2  -8   12.80   10.90
  10   2  -8   31.80   16.40
  10  -2  -8   18.40   13.00
  10  -2  -8   32.50   14.10
  10   2  -7   18.60   10.70
  10   2  -7   32.50   14.60
 -10   2   7    9.30   11.30
  10  -2  -7   -1.00    6.40
 -10   2   6   34.20   12.80
  10   2  -6   25.80   13.40
  10   2  -6   41.40   19.90
  10  -2  -6   29.40   11.70
  10  -2  -6   33.20   17.00
  10   2  -5   68.19   20.40
 -10   2   5   54.89   14.80
  10   2  -5   60.39   18.90
  10  -2  -5   55.09   21.40
  10  -2  -5   71.59   14.60
  10   2  -4  576.24   56.29
 -10   2   4  534.85   37.20
  10   2  -4  505.35   48.20
  10  -2  -4  536.45   34.80
  10  -2  -4  607.24   58.69
 -10   2   3  297.27   28.00
  10   2  -3  360.26   44.20
  10  -2  -3  355.76   29.00
  10  -2  -3  261.47   48.30
  10   2  -2 1598.44   98.79
  10   2  -2 1545.65   89.29
 -10   2   2 1521.35   66.99
  10  -2  -2 1508.85   68.09
  10  -2  -2 1422.96   95.39
 -10   2   1 1149.89   58.49
  10   2  -1 1073.69   70.29
  10   2  -1 1187.78   85.79
  10  -2  -1 1028.20   80.19
 -10   2   0  271.47   30.90
 -10   2   0  248.98   23.30
  10   2   0  292.17   35.70
  10   2   0  189.18   38.30
  10  -2   0  250.27   47.00
 -10   2  -1  280.27   29.30
 -10   2  -1  260.57   32.60
  10   2   1  238.18   43.90
  10   2   1  257.27   31.70
  10  -2   1  254.47   49.40
  10   2   2  879.01   81.19
 -10   2  -2  900.41   59.19
  10   2   2  990.00   59.99
  10  -2   2  983.10   81.29
  10   2   3   51.29   24.40
  10   2   3   79.09   19.80
 -10   2  -3   65.69   19.20
  10  -2   3   70.59   24.10
  10   2   4  741.73   77.79
  10   2   4  821.62   49.40
 -10   2  -4  812.72   66.59
  10  -2   4  830.52  157.98
 -10   2  -5    9.30   18.50
  10  -2   5   34.00   19.00
 -10  -2  -5   29.30   23.20
 -10   2  -6   58.79   28.70
 -10  -2  -6   50.29   25.20
  10  -2   6   59.19   31.70
 -10  -2  -7    7.80   20.50
  10  -2   7   21.10   20.10
 -10   2  -8  436.76   72.79
 -10  -2  -8  415.36   81.19
  10  -2   8  548.85   67.19
 -10   2  -9   57.79   33.40
  10  -2   9  100.59   33.40
 -10  -2  -9    8.50   28.50
 -10   2 -10   51.99   37.80
  10  -2  10   10.90   27.70
 -10  -2 -10   -3.10   34.30
  10  -3 -17   72.49   29.90
  10  -3 -17  -68.99   34.30
  10   3 -16  -29.30   23.50
  10  -3 -16    2.10   22.20
  10  -3 -16  -20.70   26.20
  10  -3 -16  -18.80   22.90
  10   3 -15   47.30   19.80
  10   3 -15   -6.90   22.80
  10  -3 -15  292.27   71.29
  10  -3 -15   15.00   22.50
  10  -3 -15   35.10   20.20
  10   3 -14   69.09   33.10
  10   3 -14  134.59   36.30
  10  -3 -14  135.49   35.10
  10  -3 -14   64.29   32.60
  10  -3 -14  173.78   41.90
  10   3 -13  227.78   52.69
  10   3 -13  321.07   57.59
  10  -3 -13  256.07   44.00
  10  -3 -13  248.88   49.50
  10  -3 -13  253.37   42.70
  10   3 -12   79.59   30.40
  10   3 -12   29.40   21.10
  10  -3 -12   41.00   20.40
  10  -3 -12  -10.80   25.50
  10  -3 -12   15.80   19.20
  10   3 -11   12.90   17.00
  10   3 -11   36.20   22.70
  10  -3 -11   45.60   19.70
  10  -3 -11   39.30   17.80
  10  -3 -11   29.00   16.10
  10  -3 -11   19.50   21.40
  10   3 -10   20.50   13.50
  10   3 -10    1.10   12.70
  10  -3 -10   18.50   11.50
  10  -3 -10   13.70   13.00
  10   3  -9   28.40   21.30
  10   3  -9   70.19   25.40
  10  -3  -9   26.50   21.30
  10  -3  -9   28.10   10.70
  10   3  -8  738.33   71.39
  10   3  -8  626.44   68.09
  10  -3  -8  700.63   69.79
  10   3  -7  390.56   49.40
  10   3  -7  534.25  103.69
  10  -3  -7  406.46   51.19
  10   3  -6  776.42   70.49
  10   3  -6  886.01   76.39
  10  -3  -6  882.01   75.89
  10   3  -5  130.99   32.00
  10   3  -5  177.08   40.30
  10  -3  -5   97.19   33.00
  10   3  -4  -11.50    9.30
  10   3  -4   11.00    9.00
  10  -3  -4   20.20   14.00
  10   3  -3   68.69   21.00
  10  -3  -3  104.39   29.10
  10   3  -2  151.68   35.10
  10  -3  -2  112.79   30.70
  10   3  -1  610.94   65.99
  10  -3  -1  558.74   72.19
 -10   3   0    9.40    8.50
  10   3   0   20.60   16.20
  10   3   0   10.60   12.80
  10  -3   0   18.40   11.30
  10  -3   0   -7.90   10.20
 -10   3  -1  363.86   34.10
  10   3   1  423.46   40.90
 -10   3  -1  353.36   34.80
  10   3   1  413.26   54.59
  10   3   1  428.96   46.20
  10  -3   1  374.46   38.40
  10  -3   1  403.66   55.79
 -10   3  -2   30.40   15.50
  10   3   2   30.80   13.90
 -10   3  -2  -38.50   15.50
  10   3   2  -19.10    9.80
  10   3   2    8.80   20.10
  10  -3   2   21.90   14.50
  10   3   3   21.00   20.90
 -10   3  -3   11.20   12.80
  10  -3   3   -4.80   12.10
 -10   3  -4  781.82   65.99
  10  -3   4  722.13   77.79
 -10   3  -5  647.04   63.39
 -10   3  -5  723.53   68.39
  10  -3   5  713.23   77.29
 -10   3  -6  756.82   73.89
 -10   3  -6  657.73   69.29
  10  -3   6  786.92   86.59
 -10   3  -7  230.38   51.09
 -10   3  -7  243.88   50.49
 -10  -3  -7  228.28   65.39
  10  -3   7  152.18   47.80
 -10   3  -8  -18.00   24.90
 -10   3  -8  -10.30   28.20
 -10  -3  -8   39.00   29.30
  10  -3   8  -58.49   25.20
 -10   3  -9   69.39   37.60
 -10   3  -9   60.19   34.90
  10  -3   9   54.79   33.70
  10  -4 -15    2.40   25.60
  10   4 -14   89.59   37.90
  10  -4 -14   48.20   22.50
  10   4 -13  350.46   66.99
  10   4 -13  279.87   59.19
  10  -4 -13  427.46   58.59
  10  -4 -13  408.26   54.39
  10   4 -12   25.50   29.90
  10   4 -12   31.80   17.60
  10  -4 -12   26.60   23.50
  10  -4 -12   55.29   28.00
  10   4 -11   83.59   33.60
  10   4 -11  104.19   37.20
  10  -4 -11  126.49   29.40
  10  -4 -11   86.79   30.10
  10   4 -10  249.18   48.20
  10   4 -10  250.47   49.90
  10   4  -9   40.30   20.30
  10   4  -9   18.90   18.60
  10  -4  -9   18.70   19.30
  10   4  -8  115.89   36.50
  10   4  -8  147.39   41.80
  10  -4  -8  119.89   33.00
  10   4  -7   42.40   16.40
  10   4  -7   37.40   22.30
  10  -4  -7   38.10   22.40
  10   4  -6   56.89   23.70
  10   4  -6   64.59   26.30
  10  -4  -6   37.40   19.80
  10   4  -5   37.20   19.20
  10   4  -5   33.80   20.00
  10  -4  -5   27.60   18.10
  10   4  -4  831.92   76.39
  10   4  -4  725.23   74.79
  10  -4  -4  714.03   72.29
  10   4  -3   72.19   24.40
  10  -4  -3  106.59   29.50
  10   4  -2   24.80   16.50
  10  -4  -2  -10.50   13.30
 -10   4   1  963.30   55.49
  10   4  -1  986.20   87.29
  10  -4  -1 1013.50   85.89
  10  -4  -1  997.10   92.79
 -10   4   0  284.97   33.20
  10   4   0  258.77   52.69
  10  -4   0  229.88   53.09
  10   4   1  181.88   43.70
 -10   4  -1  218.18   34.40
  10   4   1  228.28   35.80
  10  -4   1  234.68   54.69
  10   4   2  559.84   44.70
 -10   4  -2  529.15   50.89
  10   4   2  420.96   58.39
  10  -4   2  536.75   71.89
  10   4   3   97.79   33.40
 -10   4  -3   80.29   23.80
  10  -4   3   45.10   29.00
 -10   4  -4  154.38   31.90
  10   4   4  208.68   49.80
  10  -4   4  101.19   42.00
 -10   4  -5   12.10   42.50
  10  -4   5  -24.60   15.90
 -10   4  -6   52.79   24.60
  10  -4   6   -2.90   25.70
 -10   4  -7   18.50   29.60
  10  -5 -12    3.10   27.10
  10   5 -11    3.50   27.30
  10  -5 -11  -12.70   22.50
  10   5 -10  -13.40   24.50
  10   5 -10  -15.30   20.40
  10  -5 -10  -42.60   18.50
  10   5  -9  -24.20   26.50
  10   5  -9  -12.90   14.40
  10  -5  -9  -36.80   19.20
  10   5  -8  144.19   46.70
  10   5  -8  132.09   34.90
  10  -5  -8   37.50   28.50
  10   5  -7 1444.16  112.09
  10  -5  -7 1350.66  109.99
  10   5  -6  309.27   62.89
  10   5  -6  262.97   54.79
  10  -5  -6  330.77   64.59
  10   5  -5   14.90   20.90
  10   5  -5   54.59   29.90
  10  -5  -5    6.90   15.90
  10   5  -4   20.00   21.30
  10  -5  -4   -2.80   18.00
  10   5  -3   31.50   22.60
  10  -5  -3   55.69   26.90
  10   5  -2   28.90   24.70
  10  -5  -2   32.80   29.10
  10   5  -1  675.63   77.69
  10  -5  -1  441.46   90.09
  10   5   0   -1.70   27.50
 -10   5   0   42.00   23.90
  10  -5   0   48.60   25.30
  10   5   1  149.49   44.70
  10  -5   1  240.88   58.29
 -10   5  -2   52.99   27.40
  10   5   2   -9.40   18.60
  10  -5   2  -28.80   23.40
 -10   5  -3  222.68   57.99
  10   5   3   94.89   41.10
  10   6  -4  299.27   60.89
  10  -6  -4  171.48   74.79
  10   6  -3    7.10   29.00
  11   0 -18   58.99   26.40
  11   0 -18   66.69   27.90
  11   0 -17   15.30   25.20
  11   0 -17  -29.70   17.90
  11   0 -16  -14.90   19.20
  11   0 -16   11.40   22.80
  11   0 -15   20.70   17.90
  11   0 -15   19.50   17.80
  11   0 -14  335.57   61.69
  11   0 -14  349.27   44.90
  11   0 -13   -2.10   10.40
  11   0 -13   22.80   17.40
  11   0 -12   56.39   22.80
  11   0 -12   67.59   19.80
  11   0 -11   -7.00   10.90
  11   0 -11   11.20    8.90
  11   0 -10 1581.64   73.19
  11   0 -10 1321.07   99.99
 -11   0  10 1431.66   75.19
  11   0 -10 1414.46   93.09
  11   0  -9    3.20    7.00
  11   0  -9   -8.90    8.00
  11   0  -8  613.54   65.29
  11   0  -8  552.94   35.30
  11   0  -8  466.85   49.40
 -11   0   8  557.44   40.10
  11   0  -7   -6.00    8.30
  11   0  -7   -7.70    7.30
 -11   0   7  -17.10    7.20
  11   0  -7   12.00    4.90
  11   0  -6   86.59   23.20
  11   0  -6  126.79   31.60
  11   0  -5   -2.90    7.00
  11   0  -5   -2.50    6.10
  11   0  -4  902.71   63.99
 -11   0   4  817.92   40.00
  11   0  -4  999.30   75.39
  11   0  -3    7.40    7.20
 -11   0   3   -3.70    6.20
  11   0  -3    7.40    9.50
 -11   0   2  162.08   19.80
  11   0  -2  135.39   31.30
  11   0  -2  168.18   32.50
 -11   0   2  155.98   21.10
  11   0  -1   -7.80    7.40
  11   0  -1   -6.00    7.00
 -11   0   1   11.80    8.80
 -11   0   1   -4.00    7.10
 -11   0   0    9.80    8.80
 -11   0   0   14.80   11.40
  11   0   0   -3.10    9.20
  11   0   0   10.90   11.30
  11   0   1    8.30   11.50
  11   0   1   14.90    9.30
 -11   0  -1    9.70    9.10
 -11   0  -2 1531.65   91.09
  11   0   2 1445.06   88.89
  11   0   2 1427.96   95.59
 -11   0  -3   10.80   10.80
  11   0   3  -11.00    9.30
 -11   0  -4  824.32   72.79
  11   0   4  823.12   66.69
  11   0   5   12.20   14.30
 -11   0  -5  -17.30   12.80
 -11   0  -6  132.59   47.40
  11   0   6   74.59   28.10
  11   0   7   12.40   19.20
  11   0   8  592.04   58.59
 -11   0  -8  520.45   71.59
 -11   0  -9    4.80   21.50
  11   0   9   10.50   27.20
 -11   0 -10   13.70   27.60
  11   1 -18  -11.40   27.10
  11  -1 -18   34.90   24.20
  11  -1 -18   33.60   26.00
  11  -1 -18   79.79   35.50
  11   1 -17  599.94   78.39
  11   1 -17  463.55   64.69
  11  -1 -17  497.45   65.69
  11  -1 -17  543.45   73.99
  11  -1 -17  302.87   64.59
  11   1 -16  117.69   43.80
  11   1 -16  107.59   32.60
  11  -1 -16  135.09   41.10
  11  -1 -16   93.49   32.10
  11  -1 -16   91.39   30.40
  11   1 -15  852.41   74.89
  11   1 -15  765.32   82.99
  11  -1 -15  700.13   68.09
  11  -1 -15  781.02   77.09
  11  -1 -15  814.32   76.59
  11   1 -14  143.89   44.90
  11   1 -14  196.28   40.30
  11  -1 -14  209.08   42.70
  11  -1 -14  229.58   48.30
  11  -1 -14  166.48   36.50
  11   1 -13  477.35   51.59
  11   1 -13  501.15   65.39
  11  -1 -13  406.56   53.29
  11  -1 -13  313.77   57.39
  11  -1 -13  451.35   44.40
  11   1 -12  -16.10   10.00
  11   1 -12   20.20   10.90
  11  -1 -12   -2.80   10.20
  11  -1 -12    4.30   14.50
  11  -1 -12   -1.50   15.60
  11   1 -11 1164.88   91.69
  11   1 -11 1026.40   71.99
  11  -1 -11 1180.28   94.89
  11  -1 -11 1102.39   60.09
  11  -1 -11 1086.79   80.09
  11   1 -10   88.99   26.10
  11   1 -10  117.59   25.00
  11  -1 -10  127.59   34.70
  11  -1 -10  149.09   33.40
  11   1  -9  197.18   41.50
  11  -1  -9  249.68   33.40
  11  -1  -9  220.18   47.20
  11   1  -8   -1.90    7.10
  11  -1  -8   -2.60    7.00
 -11  -1   8   -3.00   11.90
  11  -1  -8   -8.40    7.30
  11   1  -7   21.70   13.10
  11   1  -7   38.30   12.80
  11  -1  -7   14.40   13.20
 -11  -1   7   -7.80    9.40
  11  -1  -7   19.20   12.80
  11   1  -6    4.00    7.80
  11   1  -6    5.30    8.10
  11  -1  -6    6.00    8.20
 -11  -1   6   12.10   10.90
  11  -1  -6   11.50    8.20
  11   1  -5   20.90   14.40
 -11   1   5   25.30   14.10
  11   1  -5   46.60   18.90
  11  -1  -5   33.30   16.00
 -11  -1   5   35.50   12.40
  11  -1  -5   26.10   10.50
 -11   1   4  265.77   32.80
  11   1  -4  194.98   38.00
  11   1  -4  124.59   28.00
  11  -1  -4  214.48   27.20
  11  -1  -4  226.08   43.80
 -11  -1   4  238.08   28.60
  11   1  -3  685.43   62.19
  11   1  -3  680.43   59.99
 -11   1   3  621.84   60.59
 -11  -1   3  673.13   47.70
  11  -1  -3  699.63   51.49
  11  -1  -3  674.03   61.99
  11   1  -2  243.88   44.50
  11   1  -2  197.58   36.60
  11  -1  -2  224.08   29.80
 -11  -1   2  216.98   30.00
  11  -1  -2  163.08   41.30
  11   1  -1  195.38   35.40
  11   1  -1   88.49   26.20
  11  -1  -1  145.09   29.90
  11  -1  -1  138.09   35.10
 -11   1   0  105.79   20.20
  11   1   0   77.49   24.40
  11   1   0   56.09   19.60
  11  -1   0   82.69   23.40
  11  -1   0   72.69   22.00
  11   1   1   31.90   19.30
 -11   1  -1  107.39   23.40
  11   1   1   51.79   18.70
  11  -1   1   97.29   26.60
  11   1   2   63.59   18.50
 -11   1  -2   94.59   23.50
  11   1   2   56.29   22.20
 -11  -1  -2   11.20   13.20
  11  -1   2   39.30   17.30
 -11   1  -3    0.00   14.40
  11   1   3    3.20   12.90
 -11  -1  -3    9.30   11.60
  11  -1   3   -1.40   12.20
 -11   1  -4  -17.20   13.30
  11   1   4    4.40   11.50
  11  -1   4   -4.20    8.30
 -11  -1  -4   24.40   15.50
  11   1   5   39.30   19.20
 -11   1  -5   34.90   24.90
 -11  -1  -5   81.59   32.00
  11  -1   5   70.29   26.30
 -11   1  -6   30.80   20.90
  11   1   6   15.10   17.00
 -11  -1  -6    1.50   10.80
  11  -1   6    0.10   16.20
  11   1   7  202.98   35.70
 -11   1  -7  192.48   48.60
 -11  -1  -7  179.38   46.70
  11  -1   7  261.97   50.29
 -11   1  -8  110.99   45.10
  11  -1   8   71.29   24.40
 -11  -1  -8   63.69   26.30
 -11   1  -9  945.91   98.89
  11  -1   9 1077.89   93.49
 -11   1 -10   47.80   28.30
  11  -1  10   40.80   35.30
 -11  -1 -10   20.60   38.20
  11   2 -18   34.00   27.60
  11  -2 -18    6.10   27.40
  11  -2 -18  -25.00   38.80
  11  -2 -18   37.90   31.40
  11  -2 -17  146.79   43.70
  11  -2 -17   68.39   33.90
  11  -2 -17  126.99   41.30
  11   2 -16   26.00   22.80
  11   2 -16   31.10   24.70
  11  -2 -16   20.00   22.80
  11  -2 -16   34.60   26.90
  11  -2 -16    0.80   25.30
  11   2 -15   42.00   32.30
  11   2 -15   33.80   21.70
  11  -2 -15   52.69   25.20
  11  -2 -15   50.99   23.20
  11  -2 -15   59.79   26.30
  11   2 -14  288.57   55.99
  11   2 -14  367.16   72.69
  11  -2 -14  243.38   51.99
  11  -2 -14  389.56   52.19
  11  -2 -14  336.37   44.50
  11   2 -13    8.90   14.10
  11   2 -13   12.40   16.30
  11  -2 -13   45.30   21.10
  11  -2 -13   -1.10   17.80
  11   2 -12   19.70   15.00
  11   2 -12    3.30   13.20
  11  -2 -12  -16.90   11.00
  11  -2 -12   16.10   12.90
  11  -2 -12    7.70   11.30
  11   2 -11  117.19   33.40
  11   2 -11  147.49   34.70
  11  -2 -11  161.58   40.60
  11  -2 -11  212.58   38.10
  11   2 -10  663.53   60.99
  11   2 -10  436.46   55.89
  11  -2 -10  594.84   49.70
  11  -2 -10  579.64   62.99
  11   2  -9  826.92   84.09
  11   2  -9  941.61   71.79
  11  -2  -9  811.02   56.19
  11  -2  -9  831.22   76.49
  11   2  -8   16.30    8.70
 -11   2   8  -12.60   14.80
  11  -2  -8    3.00    9.90
  11  -2  -8   27.10   12.20
  11   2  -7   83.99   24.20
  11   2  -7  109.09   29.90
  11  -2  -7   54.69   20.20
  11  -2  -7  110.89   19.20
  11   2  -6   46.40   19.90
 -11   2   6   61.09   17.10
  11   2  -6   69.69   18.80
  11  -2  -6   53.49   13.50
  11  -2  -6   42.70   22.60
 -11   2   5  265.37   30.50
  11   2  -5  235.38   32.80
  11   2  -5  296.47   50.39
  11  -2  -5  258.87   48.90
  11  -2  -5  307.67   28.00
 -11   2   4  238.68   29.40
  11   2  -4  211.58   40.40
  11  -2  -4  256.07   45.70
  11  -2  -4  279.47   26.60
  11   2  -3  120.29   32.00
  11   2  -3  133.09   31.50
 -11   2   3  136.59   23.90
  11  -2  -3   96.99   26.80
  11  -2  -3  140.79   23.50
  11   2  -2  -10.90    6.70
  11   2  -2   17.30    9.60
  11  -2  -2   -3.40    8.70
 -11   2   1   23.30   15.60
  11   2  -1   38.20   15.50
  11   2  -1   19.30   15.00
  11  -2  -1   23.00   16.30
  11   2   0  291.57   36.50
  11   2   0  235.48   43.60
 -11   2   0  249.88   37.20
  11  -2   0  243.78   48.00
 -11   2  -1  155.18   26.50
  11   2   1  158.88   30.70
  11  -2   1  107.19   29.40
  11   2   2  271.57   52.09
  11   2   2  368.76   39.60
 -11   2  -2  350.86   39.60
  11   2   3  617.24   70.99
  11   2   3  691.43   50.39
 -11   2  -3  768.72   60.59
  11  -2   3  726.43   71.89
  11   2   4  548.95   42.00
 -11   2  -4  402.06   50.19
  11   2   4  515.75   66.99
 -11  -2  -4  443.16   61.39
  11  -2   4  426.46   55.49
 -11   2  -5    2.60   22.50
  11   2   5   39.00   17.00
  11  -2   5   59.59   26.60
 -11  -2  -5   61.79   29.20
 -11   2  -6   20.40   23.20
 -11  -2  -6   72.09   26.80
  11  -2   6   27.60   24.20
 -11   2  -7  163.28   45.70
 -11  -2  -7   97.89   40.00
  11  -2   7  192.88   47.70
 -11   2  -8  326.27   61.19
  11  -2   8  391.36   67.69
 -11   2  -9   33.20   26.70
 -11  -2  -9  -12.40   25.20
  11  -2   9    9.10   29.30
  11   3 -16  299.07   60.19
  11  -3 -16  318.17   56.29
  11  -3 -16  251.57   47.60
  11   3 -15    7.50   30.30
  11   3 -15  -15.90   26.60
  11  -3 -15  -35.40   20.40
  11  -3 -15   30.50   25.80
  11  -3 -15  -14.50   21.40
  11   3 -14  330.77   67.39
  11   3 -14  253.07   55.79
  11  -3 -14  387.86   47.30
  11  -3 -14  233.78   48.20
  11  -3 -14  315.97   46.40
  11   3 -13  198.08   48.70
  11   3 -13  233.08   47.30
  11  -3 -13  102.69   33.20
  11  -3 -13  146.69   29.70
  11   3 -12    4.10   15.70
  11   3 -12   24.60   18.90
  11  -3 -12   -8.80   12.30
  11  -3 -12   -4.20   18.40
  11  -3 -12   21.00   16.40
  11   3 -11  402.96   69.09
  11   3 -11  479.65   59.19
  11  -3 -11  333.67   39.90
  11  -3 -11  360.16   59.39
  11   3 -10  394.16   52.09
  11   3 -10  331.27   63.89
  11  -3 -10  347.97   35.30
  11  -3 -10  379.36   50.79
  11   3  -9   55.59   28.80
  11   3  -9   57.89   33.40
  11  -3  -9  119.89   34.80
  11  -3  -9   70.89   17.00
  11   3  -8   -7.60   14.20
  11   3  -8   -5.50   11.20
  11  -3  -8   21.20   22.70
  11   3  -7   27.00   13.70
  11   3  -7   54.39   23.50
  11   3  -6   -7.20   11.10
  11   3  -6    6.50   13.10
  11   3  -5   52.29   24.40
  11   3  -5   36.70   20.60
  11  -3  -5   67.19   30.00
  11   3  -4  787.02   72.99
  11  -3  -4  817.02   77.89
  11   3  -3    7.20   10.20
  11  -3  -3   20.40   13.20
  11   3  -2  716.63   70.99
  11  -3  -2  864.71   79.99
  11   3  -1   44.30   22.40
  11   3  -1   18.00   15.10
  11   3   0   41.40   18.20
 -11   3   0   24.80   15.50
  11   3   0   31.10   17.60
  11  -3   0   -2.90   11.50
  11   3   1   12.60   14.60
 -11   3  -1    0.80   10.30
 -11   3  -1  -24.60   14.30
  11   3   1    4.40   22.10
  11  -3   1   13.80   14.80
  11   3   2  249.38   32.70
  11   3   2  294.27   58.79
  11  -3   2  323.67   62.59
  11   3   3   86.39   31.00
  11   3   3  178.08   29.10
 -11   3  -3   88.69   27.60
  11  -3   3  106.09   35.90
  11   3   4    7.30   21.70
 -11   3  -4   -8.30   17.20
  11  -3   4    8.50   16.60
 -11   3  -5   29.90   25.90
  11  -3   5  103.19   37.00
 -11   3  -6  -24.60   20.20
  11  -3   6    6.60   19.60
 -11   3  -7   43.40   31.90
 -11   3  -7   -2.10   24.90
 -11  -3  -7   49.40   25.80
  11  -3   7   48.10   29.20
 -11   3  -8  298.67   64.99
 -11   3  -8  489.65   79.49
  11  -3   8  448.56   79.39
  11   4 -14  122.09   39.20
  11  -4 -14  124.49   40.50
  11   4 -13    9.40   22.60
  11   4 -13   -3.20   19.70
  11  -4 -13    0.60   21.30
  11   4 -12    4.00   23.10
  11   4 -12   28.70   26.10
  11  -4 -12  -25.60   17.10
  11   4 -11  131.49   35.70
  11   4 -11  131.09   41.90
  11  -4 -11   61.89   29.40
  11   4 -10  -21.50   14.80
  11   4 -10   14.60   21.00
  11  -4 -10   -3.40   18.90
  11   4  -9  702.03   76.59
  11   4  -9  829.62   85.79
  11  -4  -9  777.62   76.59
  11   4  -8  314.17   57.59
  11   4  -8  216.18   41.40
  11  -4  -8  231.48   44.50
  11   4  -7   43.40   19.50
  11   4  -7   74.89   27.10
  11  -4  -7  132.49   33.30
  11   4  -6    3.80   17.10
  11   4  -6    9.30   16.60
  11   4  -5  315.87   58.19
  11   4  -5  330.47   59.59
  11  -4  -5  271.37   53.99
  11   4  -4    6.60   17.00
  11  -4  -4  -12.50   13.30
  11   4  -3  145.89   36.60
  11  -4  -3  128.69   39.60
  11   4  -2   55.39   19.90
  11  -4  -2   59.89   32.40
  11   4  -1   -0.30   17.00
  11  -4  -1   11.60   20.40
  11   4   0   41.90   21.50
  11   4   0   62.29   26.90
  11  -4   0   88.89   27.30
  11   4   1  233.68   47.30
 -11   4  -1  237.98   49.10
  11   4   1  343.07   49.40
  11  -4   1  217.98   54.59
  11   4   2   32.00   20.10
  11  -4   2  -14.80   14.50
  11   4   3  562.24  111.39
 -11   4  -3  519.35   58.39
  11  -4   3  404.26   71.89
 -11   4  -4  -13.40   23.00
  11   4   4  -15.10   14.40
  11  -4   4  -10.90   20.60
 -11   4  -5   76.39   33.60
  11  -4   5   50.19   33.70
 -11   4  -6  233.18   51.49
  11  -5 -11   67.29   26.60
  11   5 -10  146.99   45.10
  11   5 -10   69.19   34.60
  11  -5 -10   -4.50   26.10
  11   5  -9   57.09   30.30
  11   5  -9   20.90   25.40
  11  -5  -9  -13.40   26.30
  11   5  -8  -17.70   18.70
  11   5  -8    2.20   19.80
  11  -5  -8   -4.80   20.80
  11   5  -7    1.80   27.30
  11   5  -7  -15.30   24.10
  11  -5  -7   23.90   20.80
  11   5  -6   74.99   42.30
  11   5  -6   31.90   27.30
  11   5  -5  329.07   60.79
  11  -5  -5  258.37   56.29
  11   5  -4  184.48   42.50
  11  -5  -4   72.89   36.30
  11   5  -3  477.65   80.39
  11  -5  -3  452.15   94.09
  11   5  -2  109.29   53.69
  11  -5  -2   67.89   37.90
  11   5  -1   32.00   39.10
  11  -5  -1   40.10   28.20
  11   5   0  -32.20   21.80
  11   5   1  177.18   50.49
  11   5   2  -13.00   17.80
  12   0 -18   96.49   38.40
  12   0 -18   39.90   28.10
  12   0 -17  -22.30   31.00
  12   0 -17  -26.90   21.10
  12   0 -16 1603.94  163.88
  12   0 -16 1392.76  113.79
  12   0 -15  -13.40   15.60
  12   0 -15   -4.90   17.20
  12   0 -14  389.56   70.39
  12   0 -14  306.77   40.30
  12   0 -13    1.80   13.10
  12   0 -13  -11.30   10.30
  12   0 -13    9.90   13.90
  12   0 -12    7.20   12.40
  12   0 -12  -13.20   14.50
  12   0 -12   30.20   16.90
  12   0 -11   -8.30    5.60
  12   0 -11    3.40   12.70
 -12   0  11   11.80   18.70
  12   0 -11   16.60   11.60
  12   0 -10 1314.07   89.09
  12   0 -10 1110.69   59.39
  12   0 -10 1158.58   95.79
 -12   0   9    0.80   11.70
  12   0  -9    6.40   10.70
  12   0  -9   -3.40    9.40
 -12   0   8   43.10   12.70
  12   0  -8   17.40    8.30
  12   0  -8   10.40   12.20
  12   0  -8   40.90   16.90
  12   0  -7    5.30    8.70
  12   0  -7   13.90   11.20
  12   0  -6 2364.16  131.99
  12   0  -6 2276.67  112.19
  12   0  -5    4.80    8.00
  12   0  -5   13.20    8.90
  12   0  -4  228.38   45.10
  12   0  -4  295.87   36.00
  12   0  -3  -15.60    8.10
 -12   0   3   -1.30    7.50
  12   0  -3   -7.30    8.60
  12   0  -2  114.29   28.50
  12   0  -2  155.18   36.10
 -12   0   2  111.49   21.10
 -12   0   2   78.99   17.10
  12   0  -1   -1.20    8.90
 -12   0   1   -2.30    8.50
  12   0  -1   19.00   11.20
 -12   0   0 1587.64   78.99
 -12   0   0 1641.84   86.49
  12   0   0 1516.05   94.99
  12   0   0 1637.54  100.69
  12   0   1    9.10   10.00
  12   0   1   -0.60    8.80
  12   0   2  188.48   43.60
 -12   0  -2  128.49   33.30
  12   0   2  186.68   36.70
 -12   0  -3   24.10   19.00
  12   0   3   -3.60   10.10
 -12   0  -4   97.09   31.70
  12   0   4  152.28   32.60
 -12   0  -5   -1.60   17.60
  12   0   5   21.70   14.90
  12   0   6  145.69   33.50
 -12   0  -6  129.99   38.90
 -12   0  -7   30.60   24.30
  12   0   7   38.50   19.30
  12   0   8  633.54   70.09
 -12   0  -8  730.23   85.19
 -12   0  -9   -7.90   32.50
  12   1 -18   34.60   29.40
  12  -1 -18   30.20   34.30
  12  -1 -18   17.80   28.20
  12  -1 -18   67.39   41.20
  12   1 -17  474.35   63.79
  12   1 -17  393.56   74.79
  12  -1 -17  411.76   58.59
  12  -1 -17  318.37   61.29
  12  -1 -17  234.78   53.89
  12   1 -16   31.60   35.80
  12   1 -16  -33.40   15.40
  12  -1 -16  -42.80   17.80
  12  -1 -16   66.79   22.40
  12  -1 -16   17.30   21.10
  12   1 -15  303.07   51.69
  12   1 -15  250.17   56.39
  12  -1 -15  241.98   53.79
  12  -1 -15  305.07   48.00
  12  -1 -15  276.47   53.49
  12   1 -14   16.40   14.10
  12   1 -14   22.20   22.00
  12  -1 -14   43.70   19.30
  12  -1 -14   -1.90   13.40
  12  -1 -14   19.40   17.80
  12   1 -13 1118.79   79.29
  12   1 -13 1128.89   97.09
  12  -1 -13 1148.99   69.59
  12  -1 -13 1288.77   94.39
  12  -1 -13 1246.78  104.49
  12   1 -12   88.39   30.00
  12   1 -12   94.39   25.30
  12  -1 -12   39.90   24.10
  12  -1 -12   59.19   19.20
  12  -1 -12  130.69   23.20
  12   1 -11  352.56   40.50
  12   1 -11  231.58   46.20
  12  -1 -11  362.66   45.90
  12  -1 -11  397.06   54.99
  12   1 -10    1.60    9.30
  12   1 -10   15.80   12.80
  12  -1 -10    0.40   13.50
  12  -1 -10   27.60   16.50
  12   1  -9  663.63   64.79
  12  -1  -9  543.15   52.29
  12  -1  -9  512.95   61.69
  12   1  -8   38.90   20.80
  12   1  -8   16.70    9.50
  12  -1  -8   24.00   13.50
 -12  -1   8   40.40   19.70
  12  -1  -8   16.00   13.60
  12   1  -7 3486.75  167.68
  12   1  -7 3651.53  158.08
  12   1  -7 3702.83  125.29
  12  -1  -7 3387.66  131.89
  12  -1  -7 3462.65  166.48
 -12  -1   7 3579.64  127.59
  12   1  -6  189.88   44.20
  12   1  -6  116.09   29.30
  12  -1  -6  205.98   34.40
  12  -1  -6  130.59   36.60
 -12  -1   6  141.79   27.10
  12   1  -5  125.19   31.50
  12   1  -5  191.68   41.80
  12  -1  -5  118.89   25.90
  12  -1  -5  145.79   37.40
 -12  -1   5  122.99   24.10
  12   1  -4   -3.20    9.90
  12   1  -4   11.30    9.40
 -12  -1   4    9.00   10.70
  12  -1  -4   -2.60    9.90
  12  -1  -4   11.10    9.00
  12   1  -3  333.87   41.90
  12   1  -3  314.67   43.20
 -12  -1   3  272.17   33.80
  12  -1  -3  236.08   43.60
  12  -1  -3  251.17   32.60
  12   1  -2    3.50   10.60
  12   1  -2    6.40   12.90
  12  -1  -2   15.50   10.70
  12  -1  -2    9.80   15.10
  12   1  -1  251.97   46.70
  12   1  -1  138.99   31.00
  12  -1  -1  183.68   34.10
  12  -1  -1  169.98   36.20
  12   1   0  153.08   38.30
  12   1   0  202.38   36.20
 -12   1   0  174.08   28.20
  12  -1   0  137.69   30.10
  12  -1   0  155.78   36.30
  12   1   1 1174.98   77.59
 -12   1  -1 1133.99   71.69
  12   1   1 1059.79   89.69
 -12  -1  -1 1131.89   81.89
  12  -1   1 1145.89   86.99
  12   1   2   -5.00    9.10
  12   1   2   13.60   15.10
  12  -1   2   -5.20   13.80
 -12  -1  -2   45.40   18.60
 -12   1  -3   46.00   26.80
  12   1   3   80.39   34.20
  12   1   3   64.59   21.90
  12  -1   3   96.29   26.80
 -12  -1  -3   30.40   18.00
  12   1   4  -24.50   11.90
 -12   1  -4    3.60   17.10
 -12  -1  -4   38.60   19.20
  12   1   5  -32.50   12.50
 -12   1  -5  -11.20   20.90
 -12  -1  -5  -28.40   13.30
  12  -1   5   60.89   23.60
 -12   1  -6   41.90   23.90
  12   1   6   66.79   21.60
 -12  -1  -6   30.40   25.80
  12  -1   6   44.90   24.80
  12   1   7  185.38   35.90
 -12   1  -7  183.68   48.90
 -12  -1  -7   68.29   33.00
  12  -1   7  318.27   59.99
 -12  -1  -8  -44.00   22.80
  12  -1   8   70.39   27.90
 -12   1  -9  -45.60   29.20
 -12  -1  -9  -11.20   33.70
  12  -1   9   23.30   33.80
  12  -2 -17  152.08   44.80
  12  -2 -17  179.68   47.40
  12   2 -16  571.44   67.29
  12   2 -16  622.04   84.19
  12  -2 -16  636.64   65.69
  12  -2 -16  567.84   72.39
  12  -2 -16  666.43   77.19
  12   2 -15   33.20   17.80
  12   2 -15    5.00   19.20
  12  -2 -15   25.00   22.50
  12  -2 -15  -23.10   17.70
  12  -2 -15   16.70   22.40
  12   2 -14  267.27   57.19
  12   2 -14  126.69   37.00
  12  -2 -14  201.38   48.40
  12  -2 -14  230.58   35.10
  12  -2 -14  227.88   45.10
  12   2 -13  289.97   53.19
  12   2 -13  329.07   64.39
  12  -2 -13  284.37   53.79
  12  -2 -13  292.47   48.40
  12   2 -12   -7.70   14.60
  12   2 -12  -27.40   12.90
  12  -2 -12  -11.40   19.20
  12  -2 -12  -13.90   11.20
  12   2 -11  103.79   35.50
  12   2 -11  166.28   39.50
  12  -2 -11  104.79   37.30
  12  -2 -11  135.69   29.40
  12   2 -10 1219.48   84.99
  12   2 -10 1308.87  101.39
  12  -2 -10 1223.48   98.09
  12  -2 -10 1162.08   72.59
  12   2  -9  -10.60   10.70
  12   2  -9    7.70   14.30
  12  -2  -9  -12.90   10.10
  12   2  -8   29.00   16.50
  12   2  -8    1.50   10.80
 -12   2   8    2.80   16.40
  12  -2  -8   11.70   12.60
  12  -2  -8  -11.40    8.60
  12   2  -7   83.69   29.70
 -12   2   7   92.69   23.70
  12   2  -7  134.89   29.60
  12  -2  -7  115.59   22.70
  12  -2  -7  160.98   40.60
 -12   2   6 1072.39   63.59
  12   2  -6 1147.09   88.39
  12   2  -6 1011.40   71.79
  12  -2  -6 1099.89   59.79
  12  -2  -6  925.01   82.89
 -12   2   5  495.65   41.80
  12   2  -5  435.86   54.79
  12  -2  -5  434.66   53.39
  12  -2  -5  429.76   36.90
  12   2  -4  274.27   49.60
 -12   2   4  279.97   31.10
  12   2  -4  271.47   49.99
  12  -2  -4  165.68   37.40
  12  -2  -4  227.18   26.90
  12   2  -3   13.90   13.40
  12   2  -3   29.50   14.40
 -12   2   3  -15.30   13.00
  12  -2  -3   11.60    9.30
  12  -2  -3   23.10   15.00
  12   2  -2    1.40    9.80
  12   2  -2    4.70   13.40
 -12   2   2  -15.60   14.10
  12  -2  -2   -6.90   10.40
  12   2  -1  525.15   60.49
  12   2  -1  502.45   50.69
  12  -2  -1  521.15  113.49
  12   2   0  725.53   74.09
  12   2   0  785.52   62.49
  12  -2   0  716.43   71.09
  12   2   1  171.48   33.10
 -12   2  -1  174.98   28.90
  12   2   1  169.68   42.20
  12  -2   1  172.18   43.60
 -12   2  -2  348.97   38.30
  12   2   2  276.77   52.69
  12   2   2  351.46   40.30
  12  -2   2  319.57   57.09
  12   2   3  -24.80    9.80
 -12   2  -3   32.80   19.00
  12   2   3  -13.70   11.70
  12  -2   3   -6.10   14.30
 -12   2  -4  166.68   36.40
  12   2   4  140.99   33.10
  12  -2   4   96.89   30.70
 -12   2  -5  121.79   34.30
  12   2   5   72.89   22.80
  12  -2   5   37.80   25.40
 -12  -2  -5   80.79   31.50
 -12   2  -6   35.20   30.10
  12  -2   6   25.30   23.40
 -12  -2  -6   -8.40   17.30
 -12   2  -7  167.18   50.19
  12  -2   7  208.88   51.09
 -12   2  -8  281.17   62.49
 -12  -2  -8  385.86   82.19
  12   3 -16   40.50   30.90
  12  -3 -16  -27.10   30.00
  12  -3 -16   42.40   30.90
  12   3 -15  118.49   45.80
  12  -3 -15  130.79   42.80
  12  -3 -15  229.18   43.20
  12   3 -14   31.10   25.20
  12   3 -14  101.39   32.60
  12  -3 -14   27.90   24.50
  12  -3 -14   31.00   22.50
  12   3 -13  368.66   66.59
  12   3 -13  458.75  124.49
  12  -3 -13  354.36   43.40
  12  -3 -13  354.96   48.10
  12   3 -12  542.55   69.29
  12   3 -12  387.36   63.79
  12  -3 -12  437.76   56.29
  12  -3 -12  379.16   43.10
  12   3 -11   59.89   24.70
  12   3 -11    3.60   16.50
  12  -3 -11   45.20   23.10
  12  -3 -11    6.10   16.50
  12   3 -10  480.55   63.09
  12   3 -10  489.55   59.89
  12  -3 -10  460.95   38.20
  12  -3 -10  513.35   61.29
  12   3  -9  256.17   52.49
  12   3  -9  462.75   54.99
  12  -3  -9  445.16   58.19
  12   3  -8  242.88   49.30
  12   3  -8  172.98   41.60
  12  -3  -8  217.28   47.40
  12   3  -7  964.30   78.89
  12   3  -7  921.31   85.49
  12  -3  -7  876.31   82.89
  12   3  -6  726.63   68.89
  12   3  -6  777.12   77.19
  12  -3  -6  673.83   74.09
  12   3  -5  -19.40   11.20
  12  -3  -5   22.10   17.70
  12   3  -4   34.70   21.30
  12  -3  -4   59.49   26.50
  12   3  -3  185.98   42.00
  12   3  -3  168.98   39.80
  12  -3  -3  167.18   45.40
  12   3  -2   42.70   19.20
  12   3  -2   18.00   18.20
  12  -3  -2   60.49   28.30
  12   3  -1  519.25   54.59
  12   3  -1  588.94   66.59
  12  -3  -1  603.64   67.09
  12   3   0  453.55   59.29
  12   3   0  504.35   49.90
  12  -3   0  477.75   61.79
  12   3   1   97.29   36.70
 -12   3  -1   96.99   21.80
  12   3   1   99.59   25.90
  12  -3   1   90.39   30.20
  12   3   2  236.28   51.59
  12  -3   2  307.27   60.89
  12   3   3   38.10   20.80
  12   3   3   20.40   24.50
 -12   3  -3   51.59   21.20
  12  -3   3   27.00   23.90
 -12   3  -4  252.97   46.50
  12  -3   4  245.28   54.39
 -12   3  -5  191.88   41.40
 -12  -3  -5  155.78   46.40
 -12   3  -6  292.37   59.79
 -12   3  -6  228.38   54.99
 -12  -3  -6  177.88   51.49
  12  -3   6  305.07   64.29
 -12   3  -7   63.19   42.40
 -12   3  -7   22.40   37.90
  12  -3   7    2.90   32.80
  12   4 -14   26.60   35.30
  12  -4 -14    1.80   24.70
  12   4 -13  156.88   43.70
  12  -4 -13  214.88   47.60
  12   4 -12  537.35   93.49
  12   4 -12  450.25   74.19
  12  -4 -12  536.05   70.09
  12   4 -11  208.68   50.39
  12   4 -11  333.57   62.59
  12  -4 -11  187.98   47.80
  12   4 -10  419.36   91.69
  12   4 -10  434.86   59.59
  12  -4 -10  299.57   53.29
  12   4  -9   -2.50   15.70
  12   4  -9   19.60   17.80
  12  -4  -9    4.30   15.60
  12   4  -8   27.40   16.80
  12   4  -8   30.40   22.20
  12  -4  -8   40.10   21.60
  12   4  -7  165.58   42.80
  12   4  -7  260.17   52.09
  12  -4  -7  206.48   49.60
  12   4  -6   54.69   21.10
  12   4  -6    3.20   15.30
  12  -4  -6   22.60   28.10
  12   4  -5  529.05   65.99
  12  -4  -5  594.54   71.09
  12   4  -4  951.80   88.19
  12  -4  -4  956.60   92.69
  12   4  -3    6.90   14.70
  12  -4  -3  -14.10   17.30
  12   4  -2  197.48   47.40
  12   4  -2  184.68   40.90
  12   4  -1  471.45   76.39
  12   4  -1  301.97   49.10
  12  -4  -1  301.57   67.49
  12   4   0   60.79   24.60
  12   4   0   42.90   21.60
  12  -4   0  -10.10   21.00
  12   4   1  145.29   39.60
  12   4   1  198.78   60.49
  12  -4   1  167.28   49.60
  12   4   2  174.68   43.10
  12  -4   2   55.49   33.20
  12   4   3   38.90   28.20
  12  -4   3   40.10   26.70
  12  -5 -10   13.90   25.90
  12   5  -9  170.18   58.19
  12   5  -9  212.68   61.39
  12  -5  -9  141.69   43.30
  12   5  -8   20.50   32.10
  12   5  -8   78.59   31.30
  12  -5  -8   32.20   24.10
  12   5  -7  125.29   35.50
  12   5  -7   71.99   29.90
  12  -5  -7   74.19   35.50
  12   5  -6  101.79   41.60
  12  -5  -6  126.39   44.40
  12   5  -5   63.59   33.30
  12  -5  -5  146.59   42.20
  12   5  -4   11.30   23.70
  12  -5  -4   48.30   24.70
  12   5  -3  132.99   42.30
  12  -5  -3  157.08   52.99
  12   5  -2   27.80   27.20
  12  -5  -2   13.40   26.60
  12   5  -1  553.34   90.29
  12   5   0   85.49   44.20
  13   0 -18    6.10   21.90
  13   0 -18   -6.80   24.40
  13   0 -18  -44.80   26.50
  13   0 -17   -5.50   21.10
  13   0 -17  -36.50   22.00
  13   0 -17  -10.00   18.20
  13   0 -16   27.50   19.50
  13   0 -16   43.40   25.50
  13   0 -15  -25.60   13.40
  13   0 -15   -4.30   16.70
  13   0 -15   24.80   18.20
  13   0 -14   41.00   17.70
  13   0 -14   35.00   22.10
  13   0 -14   -6.40   16.20
  13   0 -13    6.40   19.10
  13   0 -13    2.30   11.40
  13   0 -13   31.20   12.30
  13   0 -12  894.71   89.49
  13   0 -12  903.31   59.09
  13   0 -12  964.90   79.79
 -13   0  11   -4.20   19.40
  13   0 -11   -3.50    8.90
  13   0 -11  -19.20    8.30
  13   0 -11    3.60    9.60
 -13   0  10 1094.09   60.89
  13   0 -10 1019.40   91.49
  13   0 -10  934.21   74.59
  13   0 -10 1004.80   54.09
  13   0  -9   25.90    7.40
  13   0  -9   17.00   12.40
 -13   0   9   11.00   12.20
  13   0  -9   24.70   13.00
  13   0  -8  463.65   59.39
  13   0  -8  555.04   52.99
  13   0  -7   18.90   13.10
  13   0  -7  -10.90    8.60
  13   0  -6 1481.85  106.39
  13   0  -6 1492.75   90.59
  13   0  -5   -6.90    9.50
  13   0  -5  -10.80    7.80
  13   0  -4   65.29   26.00
  13   0  -4   59.69   18.30
 -13   0   3    7.40    9.80
 -13   0   3  -12.50    8.30
  13   0  -3   -3.10   10.40
  13   0  -2 1259.67   90.69
 -13   0   2 1441.46   72.09
  13   0  -2 1374.96   90.19
 -13   0   2 1312.67   63.89
 -13   0   1    7.70   12.80
 -13   0   1    4.00   11.80
  13   0  -1  -16.60    6.80
  13   0  -1   -0.80   12.90
  13   0   0  401.86   50.69
  13   0   0  465.75   53.49
 -13   0   0  387.46   44.80
 -13   0  -1   17.10   14.80
  13   0   1    6.60   10.20
  13   0   1    0.00    9.20
  13   0   2  236.08   45.10
 -13   0  -2  212.38   41.90
 -13   0  -3   -9.90   15.60
  13   0   3    3.80   16.60
 -13   0  -4 1086.69   91.99
  13   0   4 1052.79   81.29
 -13   0  -5  -33.40   18.40
  13   0   5   22.80   15.90
 -13   0  -6  352.56   65.39
 -13   0  -7  -21.80   25.80
  13   0   7   11.10   24.40
 -13   0  -8  114.09   49.10
  13   1 -18  -10.60   27.30
  13  -1 -18    7.30   27.00
  13  -1 -18   34.90   33.40
  13   1 -17   43.40   34.30
  13   1 -17  139.19   40.00
  13  -1 -17   27.00   30.20
  13  -1 -17   51.09   29.20
  13  -1 -17   21.60   40.30
  13   1 -16  103.99   33.40
  13   1 -16   71.69   35.30
  13  -1 -16   68.59   33.40
  13  -1 -16   39.30   28.90
  13  -1 -16   52.99   26.40
  13   1 -15   53.29   23.50
  13   1 -15   45.50   33.90
  13  -1 -15   64.19   25.60
  13  -1 -15   64.39   20.70
  13  -1 -15   97.59   33.00
  13   1 -14  127.59   32.50
  13   1 -14   94.69   35.50
  13  -1 -14  146.69   42.30
  13  -1 -14  204.48   41.60
  13  -1 -14  131.29   26.00
  13   1 -13  444.46   49.20
  13   1 -13  485.75   65.59
  13  -1 -13  314.27   62.79
  13  -1 -13  329.27   34.60
  13   1 -12    7.90   13.80
  13   1 -12   45.10   21.70
  13  -1 -12  -10.20    8.50
  13  -1 -12   19.00   16.60
  13   1 -11  123.59   27.70
  13   1 -11   83.39   29.20
  13  -1 -11  132.69   32.90
  13  -1 -11   64.99   31.70
  13   1 -10   10.30   12.20
  13  -1 -10   31.70   16.20
  13  -1 -10   26.20   15.20
  13   1  -9  937.31   87.39
  13   1  -9  843.92   77.89
  13  -1  -9  880.61   66.99
  13  -1  -9  898.41   84.39
  13   1  -8   82.59   49.50
  13   1  -8   75.29   23.10
  13   1  -8   96.99   22.40
  13  -1  -8  123.59   28.00
  13  -1  -8  121.59   52.79
  13   1  -7  116.49   33.80
  13   1  -7   84.39   26.00
  13  -1  -7   80.59   22.50
 -13  -1   7   51.29   19.60
  13  -1  -7   85.79   30.60
  13   1  -6  116.09   28.50
  13   1  -6   99.99   28.10
 -13  -1   6   72.49   18.80
  13  -1  -6   80.99   22.70
  13  -1  -6   69.39   24.20
  13   1  -5  139.29   32.40
  13   1  -5   85.79   26.40
  13  -1  -5  149.39   29.60
  13  -1  -5  196.88   45.90
 -13  -1   5  111.79   23.80
  13   1  -4  103.99   29.40
  13   1  -4   84.79   24.50
  13  -1  -4  176.38   34.60
  13  -1  -4  106.29   30.60
 -13  -1   4   98.39   25.10
  13   1  -3 3458.75  160.38
  13   1  -3 3755.62  166.08
  13  -1  -3 3562.14  166.68
  13  -1  -3 3785.62  144.79
  13   1  -2  171.78   39.50
  13   1  -2  145.59   33.50
  13  -1  -2  232.58   47.80
  13  -1  -2  192.78   38.00
  13   1  -1  179.88   42.10
  13   1  -1   95.99   27.10
  13  -1  -1   87.09   25.70
  13  -1  -1   94.99   28.10
 -13   1   0    1.10   12.00
  13   1   0   -2.80    8.60
  13   1   0   -9.30   10.30
 -13   1   0    8.80   12.80
  13  -1   0   -1.30   10.40
  13  -1   0   19.60   12.40
 -13   1  -1  181.98   33.20
  13   1   1   81.79   25.90
  13   1   1   89.79   27.00
 -13  -1  -1  159.58   36.20
  13  -1   1   77.99   35.80
  13   1   2   38.00   16.90
  13   1   2  -10.40   13.80
 -13   1  -2   25.20   16.90
  13  -1   2    1.80   13.10
 -13  -1  -2   -7.30   15.70
 -13   1  -3  395.96   53.39
  13   1   3  407.86   46.80
  13  -1   3  374.36   51.19
 -13  -1  -3  453.55   61.99
 -13   1  -4   50.49   26.70
  13   1   4   63.29   19.90
  13  -1   4   45.30   26.60
 -13  -1  -4    7.50   25.50
 -13   1  -5  498.35   70.69
  13   1   5  473.65   52.69
 -13  -1  -5  701.23   76.49
  13  -1   5  623.04   69.89
  13   1   6   -2.70   23.00
 -13   1  -6   13.20   27.70
  13  -1   6   18.20   23.70
 -13  -1  -6   26.20   20.70
 -13   1  -7  196.98   52.99
  13  -1   7  253.17   54.29
 -13  -1  -7  214.58   53.19
 -13   1  -8   31.10   38.10
 -13  -1  -8   56.69   33.70
  13  -1   8   62.59   34.90
  13  -2 -17    2.40   27.50
  13  -2 -17  -24.20   28.20
  13   2 -16  -11.40   17.90
  13   2 -16  -21.50   23.10
  13  -2 -16   54.99   27.40
  13  -2 -16   -5.30   24.70
  13   2 -15   28.40   28.40
  13   2 -15   38.00   22.70
  13  -2 -15   45.50   26.50
  13  -2 -15   -4.90   23.00
  13   2 -14  -35.50   17.30
  13   2 -14   39.80   21.80
  13  -2 -14   30.90   19.70
  13  -2 -14   15.80   15.70
  13   2 -13  201.78   47.30
  13   2 -13  215.08   41.90
  13  -2 -13  139.09   41.20
  13  -2 -13  247.38   41.90
  13   2 -12  588.54   71.39
  13   2 -12  585.84   59.79
  13  -2 -12  379.76   65.69
  13  -2 -12  635.34   56.49
  13   2 -11   25.00   24.20
  13   2 -11   62.29   17.50
  13  -2 -11   50.19   19.90
  13  -2 -11   32.10   23.40
  13   2 -10  403.86   71.69
  13   2 -10  298.67   41.60
  13  -2 -10  213.48   50.89
  13  -2 -10  266.77   37.10
  13   2  -9  533.15   53.29
  13   2  -9  460.85   61.09
  13  -2  -9  448.36   58.59
  13  -2  -9  475.05   43.80
  13   2  -8    5.60   12.00
  13   2  -8   -0.90    7.50
  13  -2  -8   -0.30   13.30
  13  -2  -8    7.40   12.70
  13   2  -7  141.69   35.70
  13   2  -7  172.38   36.70
 -13   2   7  208.08   37.00
  13  -2  -7  199.48   27.20
  13  -2  -7  230.68   51.29
  13   2  -6  724.23   71.89
 -13   2   6  634.84   53.89
  13   2  -6  788.12   75.89
  13  -2  -6  630.84   47.40
  13  -2  -6  676.93   71.69
  13   2  -5   18.40   14.20
  13   2  -5   26.40   13.80
 -13   2   5    1.90   16.50
  13  -2  -5    9.10   12.40
  13  -2  -5    6.80   11.40
  13   2  -4   13.80   13.30
  13   2  -4   15.50   14.40
 -13   2   4   13.60   16.40
  13  -2  -4   35.00   13.50
  13  -2  -4   19.30   16.20
  13   2  -3   55.39   20.70
  13   2  -3   72.09   22.50
  13  -2  -3   54.89   21.70
  13  -2  -3   83.99   23.30
  13   2  -2  605.94   60.79
  13   2  -2  624.24   67.79
  13  -2  -2  586.64   66.89
  13   2  -1  113.39   32.60
  13   2  -1  158.38   33.90
  13  -2  -1  176.18   40.40
  13   2   0  735.63   76.99
  13   2   0  620.04   59.99
  13  -2   0  721.13   74.29
  13   2   1   33.40   21.60
  13   2   1   49.70   21.10
 -13   2  -1   -9.50   14.80
  13  -2   1   42.60   21.50
  13   2   2   -6.00   13.10
  13   2   2   -0.90   15.50
 -13   2  -2   -0.50   16.60
  13  -2   2   17.70   12.60
  13   2   3  432.96   48.20
  13   2   3  352.96   65.59
 -13   2  -3  404.96   49.30
  13  -2   3  472.55   63.29
 -13  -2  -3  415.06   69.49
  13   2   4  597.24   53.99
 -13   2  -4  592.54   64.79
  13  -2   4  676.13   78.09
 -13  -2  -4  615.24   74.09
 -13   2  -5   96.79   31.40
  13  -2   5  100.69   33.70
 -13  -2  -5   22.00   25.10
 -13   2  -6  280.07   59.29
 -13  -2  -6  255.27   65.89
  13  -2   6  272.67   61.49
 -13   2  -7   30.30   37.60
  13  -2   7    1.60   28.20
 -13  -2  -7   -1.00   32.10
  13   3 -15   22.40   30.00
  13   3 -14  486.55   65.19
  13   3 -14  396.66   75.79
  13  -3 -14  474.15   56.99
  13  -3 -14  504.55   69.29
  13   3 -13   36.60   26.10
  13   3 -13   95.99   26.90
  13  -3 -13    5.40   24.60
  13  -3 -13   55.79   22.60
  13   3 -12   12.20   19.30
  13   3 -12   88.29   50.59
  13  -3 -12   11.00   20.50
  13  -3 -12   33.50   19.90
  13   3 -11   68.69   30.30
  13   3 -11   73.79   26.90
  13  -3 -11   49.50   25.80
  13  -3 -11   59.59   19.20
  13   3 -10   39.70   20.30
  13   3 -10   30.40   15.70
  13  -3 -10   12.20   11.70
  13  -3 -10  -25.40   15.20
  13   3  -9  368.76   64.59
  13   3  -9  408.16   56.49
  13  -3  -9  504.35   64.49
  13   3  -8  236.58   53.29
  13   3  -8  292.97   55.49
  13  -3  -8  360.96   65.99
  13   3  -7   -0.70   12.60
  13   3  -6   48.60   22.30
  13  -3  -6  -11.40   16.50
  13   3  -5  157.28   37.60
  13  -3  -5  131.59   35.10
  13   3  -4  598.24   66.39
  13   3  -4  637.84   70.69
  13  -3  -4  584.54   68.39
  13   3  -3  912.31   87.49
  13   3  -3  863.91   76.19
  13  -3  -3  774.22   83.89
  13   3  -2  580.84   68.79
  13   3  -2  667.43   62.69
  13  -3  -2  663.93   73.49
  13   3  -1    1.20   16.30
  13   3  -1   46.50   19.60
  13  -3  -1   31.30   20.00
  13   3   0   16.00   20.30
  13   3   0  -31.90   12.60
  13  -3   0   -6.50   14.80
  13   3   1  236.98   40.10
  13   3   1  273.37   56.89
  13  -3   1  182.68   43.60
 -13   3  -2  -47.80   25.20
  13   3   2   -3.80   20.30
  13   3   2   20.30   18.10
  13  -3   2   21.60   19.80
  13   3   3  421.66   81.39
 -13   3  -3  359.16   50.69
  13  -3   3  672.73  151.78
 -13   3  -4  177.48   47.40
  13  -3   4  126.49   42.00
  13  -3   5   42.00   33.90
 -13  -3  -5   85.19   39.50
 -13   3  -6   75.79   47.20
  13   4 -13  155.98   43.70
  13   4 -12  110.89   38.70
  13  -4 -12   88.29   39.80
  13   4 -11  -17.40   25.60
  13   4 -11   -5.00   18.30
  13  -4 -11   56.39   26.10
  13   4 -10  -24.10   16.40
  13   4 -10    3.40   19.70
  13  -4 -10   11.50   23.10
  13   4  -9  551.14   71.49
  13   4  -9  656.23   79.49
  13  -4  -9  597.74   76.69
  13   4  -8  251.27   55.29
  13  -4  -8  228.48   52.59
  13   4  -7  241.38   53.69
  13   4  -7  333.57   62.69
  13  -4  -7  236.48   51.99
  13   4  -6  485.85   78.39
  13  -4  -6  587.84   73.69
  13   4  -5   -8.00   17.70
  13  -4  -5   -5.20   21.50
  13   4  -4   13.40   19.80
  13  -4  -4   18.30   26.20
  13   4  -3   52.19   39.20
  13   4  -3   74.59   27.20
  13  -4  -3  107.99   38.40
  13   4  -2   28.10   31.50
  13   4  -2   86.29   28.60
  13   4  -1  146.79   36.50
  13   4  -1   53.29   30.90
  13  -4  -1  155.08   46.10
  13   4   0  571.24   68.99
  13   4   0  390.36   57.69
  13  -4   0  431.46   79.49
  13   4   1   69.39   21.10
  13  -4   1   32.90   27.20
  13   4   2  193.18   51.39
  13  -4   2  203.58   73.59
  13  -5  -9   -1.80   35.50
  13  -5  -8   12.10   27.60
  13  -5  -7  236.48   55.29
  13  -5  -6   30.40   34.20
  13  -5  -5  200.68   67.19
  14   0 -17   -2.20   26.10
  14   0 -17  -20.20   21.20
  14   0 -17  -18.60   30.20
  14   0 -16  356.66   73.09
  14   0 -16  392.96   70.29
  14   0 -16  425.86   49.50
  14   0 -15  -29.00   14.40
  14   0 -15  -28.30   14.90
  14   0 -15  -34.60   14.50
  14   0 -14    0.50   15.60
  14   0 -14  -20.60   17.70
  14   0 -14    6.40   22.30
  14   0 -13   16.20   22.80
  14   0 -13   26.90   16.60
  14   0 -12  465.65   56.49
  14   0 -12  377.96   36.00
  14   0 -12  463.35   62.29
  14   0 -11   -1.80    9.60
  14   0 -11   19.50   12.90
  14   0 -11   15.60   17.00
  14   0 -10  325.77   43.20
  14   0 -10  313.27   61.69
  14   0  -9    5.80   13.60
  14   0  -8   36.40   20.60
  14   0  -8   39.00   18.50
  14   0  -7   -2.70   11.50
  14   0  -7  -17.80    8.80
  14   0  -6  489.65   60.89
  14   0  -6  455.85   49.70
  14   0  -5   20.90   13.20
  14   0  -4  931.91   75.09
  14   0  -4  931.31   82.69
  14   0  -3   15.80   11.90
  14   0  -3  -18.50   10.50
 -14   0   3   13.30   10.50
  14   0  -2  115.09   31.90
 -14   0   2  102.39   24.30
  14   0  -2   86.49   28.40
 -14   0   1    6.80   18.30
  14   0  -1  -12.20   14.00
 -14   0   1   12.70   12.40
  14   0  -1    3.00    9.30
 -14   0   0   56.59   21.90
  14   0   0   46.60   18.50
  14   0   0   17.50   18.40
  14   0   1   17.40   17.50
 -14   0  -1    2.60   19.20
  14   0   1    0.60   14.00
 -14   0  -2   45.40   23.70
 -14   0  -3   32.90   22.90
  14   0   3    8.80   17.00
 -14   0  -4  342.77   71.99
  14   0   4  430.56   55.39
  14   0   5  -15.20   19.50
 -14   0  -5   12.00   28.20
  14   0   6  298.07   55.69
 -14   0  -6  289.27   61.09
  14   0   7  -33.10   33.90
 -14   0  -7   15.40   26.80
  14  -1 -17   57.79   32.20
  14   1 -16   -7.00   21.30
  14  -1 -16   30.90   27.10
  14  -1 -16    0.90   22.50
  14   1 -15   -3.00   22.80
  14  -1 -15    6.00   21.40
  14  -1 -15   31.20   28.60
  14   1 -14   -7.40   15.60
  14   1 -14   -0.90   20.20
  14  -1 -14   70.79   28.90
  14  -1 -14   49.40   23.20
  14  -1 -14   29.90   14.60
  14   1 -13   44.00   17.70
  14   1 -13   42.70   21.50
  14  -1 -13   11.30   14.60
  14  -1 -13   -3.40   21.60
  14   1 -12   60.89   27.40
  14   1 -12  115.79   25.10
  14  -1 -12   35.80   24.80
  14  -1 -12   78.39   27.50
  14   1 -11  545.15   69.89
  14   1 -11  453.05   45.50
  14   1 -11  458.05   57.79
  14  -1 -11  509.25   53.59
  14  -1 -11  539.35   68.69
  14   1 -10  140.29   40.20
  14   1 -10  168.88   30.70
  14   1 -10  165.38   41.10
  14  -1 -10  291.87   36.10
  14  -1 -10  173.38   46.70
  14   1  -9   38.20   17.60
  14   1  -9   29.70   16.90
  14  -1  -9   70.29   23.90
  14  -1  -9    9.30    8.90
  14   1  -8   16.90   14.50
  14   1  -8  -15.80    9.20
  14  -1  -8   11.40   10.20
  14  -1  -8  -21.40    8.70
  14   1  -7   -1.00   12.10
  14   1  -7  -31.50   15.20
  14  -1  -7   -7.00   11.50
  14  -1  -7  -14.50   10.30
 -14  -1   7   55.49   20.50
  14   1  -6   43.10   20.50
  14   1  -6    3.20   26.30
  14  -1  -6   33.60   17.00
 -14  -1   6   54.79   18.90
  14  -1  -6   32.40   17.90
  14   1  -5  150.68   41.30
  14   1  -5   90.39   38.00
  14  -1  -5  117.09   35.40
  14  -1  -5  179.58   35.40
  14   1  -4   86.29   28.20
  14   1  -4   23.00   37.40
  14  -1  -4   80.39   23.30
  14  -1  -4   11.20   17.50
  14   1  -3  102.69   30.10
  14   1  -3  112.39   30.20
  14  -1  -3  128.09   39.80
  14  -1  -3  106.99   25.20
  14   1  -2   -2.20   11.10
  14   1  -2    8.90   12.80
  14  -1  -2    6.40   12.80
  14  -1  -2   21.20   16.50
  14   1  -1   99.09   34.10
  14   1  -1  156.48   38.00
  14  -1  -1  156.28   36.70
  14  -1  -1  187.78   35.90
  14   1   0  321.57   59.09
  14   1   0  269.97   48.40
  14  -1   0  238.08   49.40
 -14  -1   0  275.97   48.80
  14   1   1 1906.01  111.09
  14   1   1 1748.23  123.69
 -14   1  -1 1883.51   96.69
  14  -1   1 1909.81  121.89
 -14  -1  -1 1900.21  116.19
  14   1   2   98.89   33.30
 -14   1  -2  187.98   38.90
  14   1   2  116.29   30.20
  14  -1   2   79.89   34.90
 -14  -1  -2   98.39   33.90
  14   1   3   99.49   29.20
 -14   1  -3   68.29   28.30
  14  -1   3   92.89   29.60
 -14  -1  -3  113.09   40.70
 -14   1  -4   11.70   23.30
  14   1   4   32.10   21.20
 -14  -1  -4  -35.60   19.90
  14  -1   4  -14.80   18.60
  14   1   5  -14.00   23.80
 -14   1  -5  -35.30   29.70
  14  -1   5   -5.80   21.90
 -14  -1  -5   15.20   26.60
 -14   1  -6  177.38   54.69
  14  -1   6   31.00   31.30
 -14  -1  -6    1.00   29.70
 -14   1  -7  170.58   57.69
 -14  -1  -7  191.58   55.59
  14  -1   7  177.98   49.00
  14   2 -16   43.10   32.90
  14  -2 -16   57.19   27.50
  14  -2 -16   12.20   32.10
  14   2 -15  106.79   35.90
  14   2 -15  111.89   37.20
  14  -2 -15   59.69   33.80
  14  -2 -15   84.69   33.90
  14   2 -14    6.00   22.40
  14   2 -14   28.50   27.90
  14  -2 -14   36.20   24.90
  14  -2 -14   22.20   21.50
  14   2 -13   15.90   20.80
  14   2 -13   -3.70   20.30
  14  -2 -13  -26.20   19.80
  14  -2 -13  -20.60   19.40
  14   2 -12  114.79   42.30
  14   2 -12  129.29   33.00
  14  -2 -12  138.49   40.00
  14  -2 -12  187.18   38.30
  14   2 -11   31.80   16.70
  14   2 -11  -21.00   12.30
  14  -2 -11  -16.40   14.40
  14  -2 -11    3.70   18.50
  14   2 -10   94.29   25.90
  14   2 -10   78.49   29.90
  14  -2 -10   75.79   30.80
  14  -2 -10  108.19   25.10
  14   2  -9  164.88   35.50
  14   2  -9   61.29   21.70
  14  -2  -9   74.79   30.90
  14  -2  -9   77.79   22.20
  14   2  -8  170.48   33.20
  14   2  -8   89.69   31.90
  14  -2  -8  131.49   25.40
  14  -2  -8  105.89   34.70
  14   2  -7  134.89   36.90
  14   2  -7   96.79   29.20
  14  -2  -7  100.99   23.00
  14  -2  -7  128.29   39.50
  14   2  -6  110.29   34.90
  14   2  -6  201.48   46.20
  14  -2  -6  258.07   56.69
  14  -2  -6  197.98   35.80
  14   2  -5  732.93   91.49
  14   2  -5  798.92   78.89
  14  -2  -5  779.02   60.29
  14  -2  -5  858.11   83.69
  14   2  -4  451.55   59.99
  14   2  -4  653.13   68.39
  14  -2  -4  520.05   63.49
  14  -2  -4  579.84   49.00
  14   2  -3  228.88   45.80
  14   2  -3  205.48   47.60
  14  -2  -3  163.88   30.50
  14  -2  -3  113.59   35.50
  14   2  -2  348.67   63.89
  14   2  -2  378.06   50.49
  14  -2  -2  310.07   57.39
  14   2  -1   -8.30   15.90
  14   2  -1   51.49   25.40
  14  -2  -1    2.20   18.30
  14   2   0  -21.50    9.60
  14   2   0    4.80   16.20
  14  -2   0  -17.00   13.50
  14   2   1   16.70   18.00
  14   2   1    0.70   15.20
  14  -2   1    6.00   15.60
  14   2   2   57.59   26.30
  14   2   2   35.40   19.80
 -14  -2  -2   64.59   28.10
  14  -2   2   72.49   31.20
  14   2   3   39.40   25.70
  14   2   3  104.09   30.50
 -14   2  -3   16.80   26.30
 -14  -2  -3   68.29   31.80
  14  -2   3  105.39   33.60
 -14   2  -4   58.69   34.90
 -14  -2  -4   64.59   35.50
  14  -2   4  123.69   41.50
 -14   2  -5  151.88   62.79
 -14  -2  -5  136.49   46.50
  14  -2   5   83.89   39.50
 -14   2  -6  -77.49   54.09
  14  -2   6   71.79   33.10
 -14  -2  -6   72.39   33.60
  14   3 -15  136.29   40.80
  14  -3 -15  141.39   48.70
  14   3 -14   18.90   21.60
  14  -3 -14   62.59   36.20
  14   3 -13   63.29   34.60
  14   3 -13  -11.60   21.60
  14  -3 -13   11.00   27.90
  14   3 -12  697.13   73.39
  14   3 -12  636.74   81.89
  14  -3 -12  598.54   72.19
  14   3 -11  -36.10   19.40
  14   3 -11  -29.60   26.30
  14  -3 -11   19.10   23.40
  14   3 -10  658.53   71.09
  14   3 -10  649.74   79.79
  14  -3 -10  579.94   72.69
  14   3  -9   -1.10   16.80
  14   3  -9   12.60   22.60
  14  -3  -9   50.29   22.80
  14   3  -8   13.50   17.70
  14   3  -8  -19.30   12.90
  14  -3  -8   54.69   24.20
  14   3  -7   39.00   17.50
  14  -3  -7   30.80   20.90
  14   3  -6   26.80   12.40
  14  -3  -6    8.20   17.60
  14   3  -5  161.08   40.50
  14   3  -5  106.79   33.40
  14  -3  -5   81.79   32.90
  14   3  -4   73.99   28.00
  14   3  -4  119.39   36.20
  14  -3  -4  113.59   30.70
  14   3  -3   28.80   20.00
  14  -3  -3   26.00   23.60
  14   3  -2  -25.30   14.30
  14   3  -2   -3.30   21.00
  14  -3  -2   20.40   21.20
  14   3  -1  -14.50   15.20
  14   3  -1   26.30   20.10
  14  -3  -1  -10.40   13.10
  14   3   0  596.04   58.39
  14   3   0  390.66   78.99
  14  -3   0  480.15   81.89
  14   3   1  134.99   37.90
  14   3   1  125.49   41.20
  14  -3   1  167.28   51.39
  14   3   2  398.86   81.09
  14  -3   2  503.35   69.49
  14   3   3    9.70   25.50
  14  -3   3  -20.10   18.00
 -14  -3  -4   58.29   30.80
  14  -3   4   -0.70   35.80
  14   4 -12   90.09   33.80
  14  -4 -12   63.59   39.10
  14   4 -11   36.50   28.00
  14  -4 -11    6.20   22.40
  14   4 -10    7.50   28.90
  14   4 -10   -8.20   24.10
  14  -4 -10   43.50   23.70
  14   4  -9   35.70   33.80
  14   4  -9   25.90   29.30
  14  -4  -9  144.49   40.50
  14   4  -8    5.30   27.90
  14   4  -8  -44.90   18.20
  14  -4  -8   22.60   26.70
  14   4  -7  113.69   41.80
  14  -4  -7  161.18   47.70
  14   4  -6  176.38   48.50
  14  -4  -6  186.38   47.50
  14   4  -5  489.75   65.59
  14  -4  -5  542.55   75.59
  14   4  -4   43.30   25.40
  14   4  -4   16.50   23.50
  14  -4  -4    5.50   23.00
  14   4  -3  119.39   38.40
  14   4  -3   73.99   39.50
  14  -4  -3  147.59   46.50
  14   4  -2   25.50   29.80
  14   4  -2   36.90   28.00
  14  -4  -2    5.30   27.90
  14   4  -1   48.00   30.50
  14   4  -1  -11.10   19.90
  14  -4  -1   -7.30   18.40
  15   0 -17  -13.00   24.30
  15   0 -16   63.79   28.80
  15   0 -16   59.09   35.60
  15   0 -15   28.70   24.00
  15   0 -15   20.20   23.50
  15   0 -15   25.60   19.30
  15   0 -14 1931.61  131.49
  15   0 -14 1991.20  167.18
  15   0 -14 2016.40   95.29
  15   0 -13   -0.30   20.10
  15   0 -13   19.00   15.50
  15   0 -13   15.30   12.80
  15   0 -12   40.00   21.50
  15   0 -12   52.69   24.90
  15   0 -11  -22.50   15.30
  15   0 -10   -7.20   13.50
  15   0 -10  -12.70   16.40
  15   0  -9   -6.50   17.20
  15   0  -8 1068.29   97.69
  15   0  -8 1022.50   80.69
  15   0  -7    3.00   11.30
  15   0  -7   12.90   11.50
  15   0  -6  425.46   57.59
  15   0  -6  493.05   53.59
  15   0  -5    6.70   11.60
  15   0  -5  -16.00    9.60
  15   0  -4   91.09   23.90
  15   0  -4  124.49   39.80
  15   0  -3    9.80   10.20
  15   0  -3    3.60   14.30
 -15   0   2  282.37   39.00
  15   0  -2  251.97   48.70
 -15   0   1   12.40   17.00
  15   0  -1   16.50   13.40
  15   0  -1    7.70   15.70
 -15   0   0 1793.12  100.69
  15   0   0 1581.94  109.89
  15   0   0 1612.84  113.79
  15   0   1   25.60   19.30
 -15   0  -1   17.00   21.00
  15   0   2   -0.50   17.30
 -15   0  -2   34.90   22.80
  15   0   3   28.60   21.10
 -15   0  -3  -35.60   27.40
 -15   0  -4   -1.50   26.30
  15   0   4   46.60   28.20
  15   0   5   21.80   30.00
 -15   0  -5  -25.10   31.70
  15   0   6   53.79   36.20
 -15   0  -6   82.89   41.20
  15   1 -17  364.26   57.09
  15  -1 -17  424.96   67.49
  15   1 -16  -10.70   21.70
  15  -1 -16   24.30   25.00
  15  -1 -16  -19.70   21.50
  15   1 -15  378.26   75.59
  15   1 -15  533.85   71.59
  15   1 -15  726.33   64.29
  15  -1 -15  533.45   66.89
  15  -1 -15  516.25   88.39
  15   1 -14  -31.40   17.20
  15   1 -14  -17.00   17.50
  15   1 -14   15.60   22.30
  15  -1 -14   10.40   22.80
  15  -1 -14   23.30   28.50
  15   1 -13   13.50   18.90
  15   1 -13   43.80   22.20
  15   1 -13  -24.80   21.00
  15  -1 -13   11.90   20.30
  15  -1 -13   -5.20   20.40
  15   1 -12   29.60   17.30
  15   1 -12   17.20   14.70
  15   1 -12  -19.10   14.70
  15  -1 -12  -14.30   19.30
  15  -1 -12    7.80   14.50
  15   1 -11  370.06   41.20
  15   1 -11  292.37   57.49
  15   1 -11  237.98   51.69
  15  -1 -11  282.07   60.79
  15  -1 -11  309.37   51.09
  15   1 -10   21.30   17.90
  15   1 -10   51.09   17.40
  15   1 -10   50.19   20.30
  15  -1 -10   11.10   18.00
  15  -1 -10   32.90   15.40
  15   1  -9    2.10   11.10
  15   1  -9  -12.10    8.50
  15  -1  -9  -11.00    8.70
  15  -1  -9    4.70   13.70
  15   1  -8  283.77   50.69
  15   1  -8  372.76   66.19
  15  -1  -8  344.77   51.59
  15  -1  -8  300.97   63.39
  15   1  -7 1000.10   93.69
  15   1  -7 1058.89   89.09
  15  -1  -7 1108.09   99.49
  15  -1  -7 1074.59   75.79
  15   1  -6   74.49   23.60
  15   1  -6   59.89   26.80
  15  -1  -6   22.70   16.60
  15  -1  -6  107.69   26.90
  15   1  -5   78.19   25.70
  15   1  -5  142.29   40.80
  15  -1  -5  119.49   28.70
  15  -1  -5   98.69   31.10
  15   1  -4  -11.70   16.00
  15   1  -4  -13.70   14.20
  15  -1  -4   13.30   10.60
  15  -1  -4   22.80   13.90
  15   1  -3   29.70   16.80
  15   1  -3  122.69   31.00
  15  -1  -3   59.79   19.90
  15  -1  -3   52.49   21.50
  15   1  -2   28.30   15.80
  15   1  -2   22.40   19.90
  15  -1  -2   27.30   19.40
  15  -1  -2   39.70   17.50
  15   1  -1   31.00   19.30
  15   1  -1   -5.80   22.10
  15  -1  -1   26.50   19.00
  15  -1  -1   46.00   20.30
 -15  -1   1   24.70   17.90
  15   1   0   -6.40   14.70
  15   1   0  -53.79   27.30
 -15  -1   0   10.40   21.70
  15  -1   0   26.50   18.50
  15   1   1  168.28   41.70
  15  -1   1  161.88   43.90
 -15  -1  -1  167.68   41.80
 -15   1  -2    9.70   23.30
  15   1   2    8.00   22.60
 -15  -1  -2  -44.00   28.20
  15  -1   2   11.20   19.20
 -15   1  -3  924.21   85.09
 -15  -1  -3  869.31   88.39
  15  -1   3  952.10   89.59
 -15   1  -4  149.39   51.49
  15  -1   4  159.78   41.10
 -15  -1  -4   77.29   36.90
 -15   1  -5  457.45   77.89
  15  -1   5  341.27   62.79
 -15  -1  -5  363.96   71.29
  15   2 -16  -12.70   23.20
  15  -2 -16    0.60   25.40
  15  -2 -16  -21.20   23.00
  15   2 -15   43.30   28.60
  15  -2 -15   97.49   38.80
  15  -2 -15   10.70   30.40
  15   2 -14  719.13   73.39
  15   2 -14  645.44   86.39
  15  -2 -14  792.52   73.79
  15  -2 -14  937.41   99.49
  15   2 -13  462.55   80.49
  15   2 -13  426.56   51.09
  15  -2 -13  520.95   70.49
  15  -2 -13  397.46   52.19
  15   2 -12   35.80   23.30
  15   2 -12   13.00   21.50
  15  -2 -12    6.10   22.70
  15  -2 -12   -2.20   16.80
  15   2 -11   85.99   32.70
  15   2 -11   41.40   22.80
  15  -2 -11   86.79   33.70
  15  -2 -11   93.89   24.10
  15   2 -10   45.20   31.00
  15   2 -10   47.50   23.10
  15  -2 -10   94.29   24.10
  15  -2 -10   78.19   25.90
  15   2  -9   91.79   32.20
  15   2  -9  121.89   27.20
  15   2  -9   56.29   24.20
  15  -2  -9  140.99   28.00
  15  -2  -9   33.20   22.90
  15   2  -8  756.92   81.39
  15   2  -8  633.04   72.49
  15  -2  -8  747.43   58.49
  15  -2  -8  727.03   81.99
  15   2  -7    8.90   17.60
  15   2  -7  -17.10   13.20
  15  -2  -7   -3.00   15.60
  15  -2  -7   49.10   26.60
  15   2  -6  420.96   57.59
  15   2  -6  481.85   63.29
  15  -2  -6  341.47   42.00
  15  -2  -6  484.35   79.39
  15   2  -5   25.70   18.90
  15   2  -5   26.50   18.20
  15  -2  -5   32.40   21.40
  15   2  -4    8.60   20.70
  15   2  -4   27.10   17.20
  15  -2  -4   19.60   16.40
  15  -2  -4    4.20   19.40
  15   2  -3  235.08   49.00
  15   2  -3  170.48   45.10
  15  -2  -3  156.38   43.60
  15   2  -2   25.50   15.80
  15   2  -2  -63.69   28.40
  15  -2  -2   37.00   15.10
  15   2  -1  697.83   68.29
  15   2  -1  693.23   76.59
  15  -2  -1  579.64   70.39
  15   2   0  850.91   72.89
  15   2   0  886.11   93.99
  15  -2   0  777.92   82.89
  15   2   1  114.49   29.30
  15   2   1  124.29   69.39
  15  -2   1   42.90   31.00
 -15  -2  -1   21.00   24.60
  15   2   2   23.90   23.00
  15   2   2   13.00   20.30
 -15  -2  -2    5.50   20.00
  15  -2   2    8.60   22.60
 -15  -2  -3  106.19   40.70
  15  -2   3   50.09   28.20
 -15  -2  -4   14.00   28.50
  15  -2   4   11.00   19.80
  15   3 -14   34.30   30.50
  15  -3 -14  104.39   36.20
  15   3 -13   34.00   25.60
  15  -3 -13   25.60   26.90
  15   3 -12  -30.10   24.20
  15   3 -12   23.80   20.80
  15  -3 -12  -34.40   25.70
  15   3 -11  337.97   67.19
  15   3 -11  286.37   52.49
  15  -3 -11  215.28   81.69
  15   3 -10   30.20   18.70
  15   3 -10   17.60   20.20
  15  -3 -10  -14.20   25.70
  15   3  -9  154.48   39.20
  15   3  -9  142.19   45.80
  15  -3  -9  132.09   41.00
  15   3  -8  435.86   85.99
  15  -3  -8  344.07   65.99
  15   3  -7  127.49   40.10
  15   3  -7   75.69   30.40
  15  -3  -7   24.50   23.10
  15   3  -6  494.05   65.29
  15   3  -6  457.75   62.69
  15  -3  -6  609.94   76.79
  15   3  -5  162.68   40.40
  15   3  -5  206.48   48.00
  15  -3  -5  242.98   52.19
  15   3  -4   16.50   27.00
  15   3  -4    2.80   17.40
  15  -3  -4    8.60   23.30
  15   3  -3  379.36   65.39
  15  -3  -3  312.57   83.29
  15   3  -2    3.40   24.30
  15   3  -2   75.89   34.60
  15  -3  -2   93.09   34.90
  15   3  -1  -24.50   15.20
  15   3  -1  -18.00   21.20
  15  -3  -1   58.29   29.40
  15   3   0   23.40   28.20
  15   3   0   29.60   27.70
  15  -3   0   50.89   28.90
  15   3   1   22.80   26.40
  15  -3   1  111.99   38.80
 -15  -3  -3   70.19   37.70
  15   4 -11  116.99   38.20
  15  -4 -11   71.69   57.29
  15   4 -10   61.79   34.10
  15  -4 -10   31.80   33.20
  15   4  -9   48.70   61.09
  15  -4  -8  149.19   44.50
  15   4  -7  -22.20   20.30
  15  -4  -7    9.60   25.10
  15   4  -6   80.79   32.40
  15  -4  -6  111.29   33.60
  15   4  -5   34.70   31.50
  15   4  -5   26.00   24.80
  15  -4  -5   -5.20   24.40
  15   4  -4    0.10   31.00
  15   4  -4  -21.60   22.20
  15  -4  -4    1.40   40.00
  15   4  -3  127.09   44.60
  15   4  -2  468.75   69.79
  16   0 -16   64.79   30.20
  16   0 -15  -20.70   24.10
  16   0 -15   36.00   36.80
  16   0 -14  238.18   63.29
  16   0 -14  277.27   55.49
  16   0 -13   33.20   19.60
  16   0 -12   48.50   23.40
  16   0 -12  -24.20   15.70
  16   0 -11   -2.70   12.80
  16   0 -11   11.10   15.60
  16   0 -10 1747.53  114.09
  16   0 -10 1647.14  131.19
  16   0  -9   41.70   20.80
  16   0  -9   -7.10   15.00
  16   0  -8  -23.60   14.40
  16   0  -7   12.20   17.10
  16   0  -7    1.80   16.40
  16   0  -6    0.50   14.20
  16   0  -6   28.10   19.10
  16   0  -5   10.80   14.40
  16   0  -5  -16.60   13.10
  16   0  -4 1167.48   91.19
  16   0  -4 1198.88  100.09
  16   0  -3   17.70   17.90
  16   0  -3    2.50   13.30
 -16   0   2  228.78   37.60
  16   0  -2  207.88   46.20
  16   0  -2  148.99   35.80
  16   0  -1    7.00   15.70
  16   0  -1  -26.40   15.50
  16   0   0  128.79   39.40
 -16   0   0  128.49   38.40
  16   0   0  115.29   38.50
 -16   0  -1  -42.80   25.10
  16   0   1   47.50   27.40
 -16   0  -2   53.49   33.80
  16   0   2   38.00   24.30
 -16   0  -3   70.79   39.60
  16   0   3   -0.40   25.10
  16   0   4 1121.29   98.29
 -16   0  -4 1182.38  111.09
  16  -1 -16   76.19   33.90
  16   1 -15  295.67   59.79
  16   1 -15  155.88   41.20
  16  -1 -15  351.76   63.49
  16  -1 -15  242.18   61.69
  16   1 -14   41.50   29.20
  16   1 -14    9.80   23.00
  16   1 -14   -5.40   22.00
  16  -1 -14  -26.60   22.10
  16  -1 -14   29.10   31.00
  16   1 -13  284.67   55.69
  16   1 -13  238.38   60.59
  16   1 -13  371.46   42.40
  16  -1 -13  325.97   66.79
  16  -1 -13  323.97   55.89
  16   1 -12   77.19   23.50
  16   1 -12   66.39   27.30
  16  -1 -12   50.39   24.70
  16  -1 -12  163.98   48.00
  16   1 -11 1026.30   66.79
  16   1 -11  957.00   91.89
  16   1 -11 1124.09  107.09
  16  -1 -11  949.01   79.39
  16  -1 -11 1002.80  104.49
  16   1 -10   53.19   25.60
  16   1 -10    9.10   19.10
  16  -1 -10  118.09   28.80
  16  -1 -10   76.29   29.00
  16   1  -9   32.10   23.10
  16   1  -9  -22.30   16.30
  16  -1  -9    7.10   18.60
  16   1  -8   46.30   21.50
  16   1  -8   39.20   22.30
  16  -1  -8  -24.40   14.80
  16  -1  -8  -23.40   16.00
  16   1  -7  431.56   74.99
  16   1  -7  277.87   54.09
  16  -1  -7  284.27   46.90
  16  -1  -7  467.65   61.79
  16   1  -6   44.80   26.60
  16   1  -6   20.80   18.10
  16  -1  -6   71.19   25.40
  16  -1  -6   68.59   30.90
  16   1  -5   12.10   16.80
  16   1  -5   -0.70   15.50
  16  -1  -5  -12.60   13.40
  16  -1  -5   18.50   14.80
  16   1  -4  113.59   33.90
  16   1  -4   48.80   24.40
  16  -1  -4   74.89   24.80
  16  -1  -4   50.29   27.40
  16   1  -3 1004.80   90.39
  16   1  -3 1214.48   98.49
  16  -1  -3 1041.40   82.79
  16  -1  -3 1116.99   97.99
  16   1  -2  111.89   33.10
  16   1  -2    7.80   19.00
  16  -1  -2   78.29   28.30
 -16  -1   2   71.79   29.80
  16  -1  -2   58.69   39.80
  16   1  -1  235.48   56.29
  16   1  -1  307.77   57.29
  16  -1  -1  243.68   55.09
 -16  -1   1  270.97   49.70
  16   1   0   10.30   17.60
  16   1   0   53.09   27.50
 -16  -1   0  126.59   34.70
  16  -1   0    3.00   17.50
  16   1   1   44.70   29.30
  16   1   1   81.29   30.90
 -16  -1  -1   32.20   28.30
  16  -1   1   41.30   24.80
  16   1   2   34.00   21.30
  16  -1   2   23.00   24.70
 -16  -1  -2   34.40   27.70
  16   1   3  151.98   44.00
  16  -1   3  133.29   40.10
 -16  -1  -3  101.89   43.90
  16  -1   4  -25.90   24.90
 -16  -1  -4   -7.60   36.10
  16   2 -15   52.59   32.10
  16  -2 -15  148.99   33.10
  16   2 -14  116.09   31.70
  16  -2 -14  149.99   41.70
  16  -2 -14   91.39   39.80
  16   2 -13   49.20   28.00
  16   2 -13   11.80   22.30
  16  -2 -13  -26.00   24.00
  16  -2 -13  -46.70   36.20
  16   2 -12   25.20   21.50
  16   2 -12   14.90   22.50
  16  -2 -12   -0.70   21.80
  16  -2 -12   -6.90   18.80
  16   2 -11  116.39   56.09
  16   2 -11  171.18   34.40
  16   2 -11  122.59   45.60
  16  -2 -11  137.29   64.59
  16  -2 -11  315.47   49.60
  16   2 -10  763.52   86.69
  16   2 -10  775.42   67.09
  16   2 -10  855.21   90.09
  16  -2 -10  828.02   64.59
  16  -2 -10  760.52   89.09
  16   2  -9  494.65   68.29
  16   2  -9  390.46   70.59
  16  -2  -9  443.96   49.30
  16  -2  -9  435.56   77.79
  16   2  -8   33.30   24.00
  16   2  -8   97.69   36.70
  16  -2  -8   82.39   31.90
  16  -2  -8   63.19   26.50
  16   2  -7   22.60   18.90
  16   2  -7    3.80   19.50
  16  -2  -7   38.50   22.10
  16  -2  -7  -14.50   12.20
  16   2  -6  -31.20   16.10
  16   2  -6   -8.20   17.40
  16  -2  -6   15.40   18.20
  16  -2  -6   -8.60   13.60
  16   2  -5  265.87   51.09
  16   2  -5  207.58   48.30
  16  -2  -5  231.58   41.80
  16  -2  -5  183.58   50.79
  16   2  -4  765.02   82.29
  16   2  -4  589.94   71.49
  16  -2  -4  682.13   84.19
  16  -2  -4  763.72   62.79
  16   2  -3   31.00   26.80
  16   2  -3   -7.10   21.80
  16  -2  -3   71.79   26.50
  16   2  -2  439.56   57.19
  16   2  -2  299.57   62.89
  16  -2  -2  284.47   58.99
  16   2  -1   -1.80   24.00
  16   2  -1   28.20   21.20
  16  -2  -1   43.70   32.40
  16   2   0  101.89   37.20
  16   2   0  117.79   30.70
  16  -2   0   89.39   38.60
  16   2   1  148.29   41.00
  16   2   1  100.29   41.10
 -16  -2  -1  156.48   43.80
  16  -2   1  151.78   48.00
 -16  -2  -2  -13.20   24.50
  16  -2   2   60.89   22.30
 -16  -2  -3  229.88   60.19
  16  -2   3  225.48   59.99
  16   3 -13  104.59   38.40
  16   3 -12   64.99   29.40
  16  -3 -12   23.30   25.70
  16   3 -11  190.98   47.50
  16  -3 -11  188.68   63.59
  16   3 -10   79.19   33.50
  16   3 -10  177.58   45.60
  16  -3 -10  136.19   45.70
  16   3  -9  -16.90   21.40
  16  -3  -9   46.10   30.70
  16   3  -8   18.50   22.50
  16   3  -8  -46.10   18.10
  16  -3  -8   13.20   24.10
  16   3  -7  255.07   52.09
  16   3  -7  264.77   56.79
  16  -3  -7  174.88   52.99
  16   3  -6   66.59   26.90
  16   3  -6   29.80   28.20
  16  -3  -6   26.40   22.90
  16   3  -5  265.47   61.89
  16  -3  -5  277.77   60.09
  16   3  -4  597.74   79.29
  16   3  -4  698.13   77.89
  16  -3  -4  575.74   79.99
  16   3  -3   46.30   31.50
  16   3  -3  -29.60   21.60
  16  -3  -3   47.60   29.90
  16   3  -2   50.89   30.50
  16   3  -2   57.99   31.30
  16  -3  -2   66.79   35.00
  16   3  -1  312.37   58.29
  16  -3  -1  256.37   65.19
  16   4  -7   73.99   35.90
  16   4  -5  231.28   53.19
  16   4  -4   59.79   39.70
  17   0 -15   15.40   24.30
  17   0 -14  -16.20   37.40
  17   0 -14  -16.90   22.20
  17   0 -13   13.20   23.90
  17   0 -13   -5.30   17.20
  17   0 -12  295.47   54.89
  17   0 -12  201.58   54.29
  17   0 -11   19.70   17.80
  17   0 -11   17.60   19.60
  17   0 -10   53.49   24.50
  17   0 -10   68.79   34.20
  17   0  -9   35.00   19.90
  17   0  -9   -0.20   16.40
  17   0  -8  398.86   54.99
  17   0  -8  302.07   64.99
  17   0  -7   42.60   23.60
  17   0  -7   -7.40   18.10
  17   0  -6  618.14   70.59
  17   0  -6  743.63   81.39
  17   0  -5  -13.40   17.30
  17   0  -5   34.40   18.60
  17   0  -4   20.70   23.60
  17   0  -4   -9.00   17.10
  17   0  -3  -10.20   16.00
  17   0  -3   21.70   18.40
  17   0  -2  322.57   59.69
  17   0  -2  245.58   51.79
  17   0  -1  -25.10   19.20
  17   0  -1  -16.60   19.70
  17   0   0  565.64   72.39
  17   0   0  578.04   71.99
  17   0   1   -1.90   25.50
  17   0   2   96.59   41.00
  17  -1 -15   36.00   30.40
  17   1 -14  -36.20   19.60
  17  -1 -14    9.70   20.60
  17   1 -13   65.59   36.90
  17   1 -13  166.68   44.10
  17  -1 -13  199.88   53.39
  17  -1 -13  200.38   45.00
  17   1 -12   66.19   34.00
  17  -1 -12  137.29   36.20
  17  -1 -12   44.30   30.00
  17   1 -11  783.32   93.29
  17   1 -11  682.83   79.69
  17  -1 -11  672.63   86.19
  17  -1 -11  584.14   66.39
  17   1 -10   37.60   23.00
  17  -1 -10   70.89   43.80
  17  -1 -10   31.30   21.20
  17   1  -9   10.80   13.60
  17   1  -9   21.80   23.10
  17  -1  -9    6.90   18.10
  17  -1  -9  -40.70   15.90
  17   1  -8   18.30   23.50
  17   1  -8   38.40   20.40
  17  -1  -8   39.90   29.20
  17  -1  -8  101.89   29.30
  17   1  -7  747.23   87.59
  17   1  -7  806.22   79.09
  17  -1  -7  914.31   94.69
  17   1  -6   61.39   29.40
  17   1  -6   81.89   25.70
  17  -1  -6   78.89   39.10
  17  -1  -6   43.30   30.30
  17   1  -5  255.17   55.99
  17   1  -5  243.18   56.09
  17  -1  -5  208.58   45.70
  17  -1  -5  264.17   45.00
  17   1  -4   -1.80   15.00
  17  -1  -4    3.40   17.40
  17  -1  -4   -6.90   18.40
  17   1  -3    5.60   24.80
  17   1  -3   26.60   23.90
  17  -1  -3   47.00   26.70
  17  -1  -3   55.39   27.00
 -17  -1   3  103.29   29.80
  17   1  -2   18.80   18.00
  17   1  -2   -4.10   19.70
  17  -1  -2   21.10   21.50
  17  -1  -2    0.70   19.00
 -17  -1   2  -35.20   25.80
  17   1  -1   24.60   28.40
  17  -1  -1  -18.60   22.40
 -17  -1   1   27.90   29.90
  17   1   0  114.59   32.30
  17   1   0   62.59   29.20
 -17  -1   0   66.49   37.40
  17   1   1  139.59   44.40
  17   1   1  214.08   49.90
 -17  -1  -1  257.27   60.19
  17  -1   1  158.88   42.70
  17   1   2  -52.99   27.20
  17  -1   2    6.30   25.50
 -17  -1  -2   30.40   41.70
  17   2 -14  -53.79   34.10
  17   2 -13  208.78   45.00
  17  -2 -13  299.77   48.70
  17   2 -12   33.30   23.70
  17   2 -12   61.69   37.00
  17   2 -12    3.90   16.60
  17  -2 -12  -34.30   27.30
  17  -2 -12   62.59   37.50
  17   2 -11   36.50   30.20
  17   2 -11  103.59   43.70
  17  -2 -11  245.48   56.99
  17  -2 -11  156.88   37.00
  17   2 -10   37.00   24.70
  17   2 -10   87.29   34.40
  17  -2 -10  -26.10   19.30
  17  -2 -10    5.40   24.30
  17   2  -9   47.70   23.30
  17   2  -9   59.89   42.50
  17  -2  -9  -30.90   17.20
  17  -2  -9   -5.60   19.90
  17   2  -8   93.99   46.80
  17   2  -8   81.09   36.60
  17  -2  -8  157.28   32.70
  17  -2  -8   62.09   33.70
  17   2  -7  105.09   38.20
  17   2  -7   79.79   52.49
  17  -2  -7   96.39   36.70
  17  -2  -7  213.78   36.20
  17   2  -6   72.39   58.79
  17  -2  -6  209.38   39.80
  17  -2  -6  166.68   45.50
  17   2  -5  240.18   54.59
  17   2  -5  185.98   47.30
  17  -2  -5  202.68   38.00
  17  -2  -5  266.67   57.09
  17   2  -4    4.30   24.90
  17   2  -4   68.49   27.90
  17  -2  -4   78.49   34.80
  17   2  -3   58.69   28.60
  17   2  -3  -16.70   25.00
  17  -2  -3   -3.60   21.10
  17   2  -2  139.29   36.90
  17   2  -2  155.08   43.70
  17  -2  -2   89.39   40.70
  17   2  -1  382.86   62.79
  17   2  -1  249.18   64.09
  17  -2  -1  302.37   61.79
  17   2   0  235.58   51.09
 -17  -2   0   40.00   34.00
  17  -2   0   89.29   36.50
 -17  -2  -1   -4.40   34.20
  17   3 -10   87.59   46.40
  17   3  -9   36.30   26.50
  17   3  -8  198.98   48.80
  17   3  -7  103.79   52.29
  17   3  -6  181.88   48.00
  17   3  -5   30.70   28.60
  17   3  -4   52.99   27.70
  17   3  -3   37.60   33.20
  17   3  -2   20.00   36.50
  18   0 -14  511.05   80.69
  18   0 -12   -9.60   47.20
  18   0 -12   15.40   24.30
  18   0 -11    8.10   26.60
  18   0 -10   36.00   24.20
  18   0 -10   34.70   30.40
  18   0  -9   43.50   22.30
  18   0  -9   12.30   20.20
  18   0  -8  829.72   95.99
  18   0  -8  861.11   83.29
  18   0  -7    6.40   26.10
  18   0  -7   17.00   16.60
  18   0  -6   -4.00   17.60
  18   0  -6   -9.60   34.20
  18   0  -5   24.10   22.20
  18   0  -5  -41.10   21.00
  18   0  -4  489.65   64.19
  18   0  -4  431.56   75.49
  18   0  -3   -9.90   24.20
  18   0  -3  -13.60   21.60
  18   0  -2   -9.00   22.90
  18   0  -2    6.10   27.90
  18   0   0   24.40   26.90
  18  -1 -14   26.10   26.50
  18   1 -13   47.50   32.00
  18  -1 -13   86.99   30.50
  18   1 -12  -30.60   19.10
  18  -1 -12    3.60   23.20
  18   1 -11   90.59   36.20
  18   1 -11   91.29   39.60
  18  -1 -11   78.09   34.00
  18  -1 -11   39.60   38.00
  18   1 -10  -20.20   26.80
  18   1 -10    0.40   24.10
  18  -1 -10  -16.60   24.90
  18  -1 -10    4.80   25.80
  18   1  -9  -26.90   18.90
  18   1  -9    1.90   21.50
  18  -1  -9   12.40   18.20
  18  -1  -9  -36.60   21.70
  18   1  -8   84.39   39.70
  18   1  -8   27.30   22.70
  18  -1  -8   12.80   24.50
  18  -1  -8   40.60   25.90
  18   1  -7  773.62   82.39
  18  -1  -7  966.60   97.39
  18  -1  -7  790.92   75.99
  18   1  -6  -35.10   15.30
  18   1  -6    1.50   20.40
  18  -1  -6   24.60   21.80
  18  -1  -6    6.80   20.60
  18   1  -5  253.17   53.49
  18   1  -5  405.86   73.39
  18  -1  -5  487.55   84.49
  18  -1  -5  350.46   56.89
  18   1  -4   94.19   36.80
  18  -1  -4   64.79   32.70
  18  -1  -4  197.48   41.20
  18   1  -3  345.67   65.79
  18   1  -3  291.27   56.69
  18  -1  -3  346.97   68.39
  18  -1  -3  304.87   54.29
  18   1  -2   89.69   35.90
  18   1  -2   23.60   29.80
  18  -1  -2   93.09   35.40
  18   1  -1  409.66   74.29
  18   1  -1  621.74   75.19
  18  -1  -1  341.17   64.89
  18   1   0   47.10   29.60
  18  -1   0    2.10   24.50
  18   2 -10   11.20   34.30
  18   2 -10  115.69   47.60
  18   2  -9  211.68   50.59
  18   2  -9  344.17   66.39
  18   2  -8  535.95   88.69
  18   2  -8  459.45   82.59
  18  -2  -8  474.55   77.29
  18  -2  -8  267.67   81.69
  18   2  -7   28.80   30.40
  18   2  -7   14.60   29.30
  18  -2  -7   36.90   22.70
  18  -2  -7   22.40   38.80
  18   2  -6   -4.20   20.90
  18  -2  -6   45.90   37.00
  18  -2  -6   21.90   22.70
  18   2  -5   -4.20   24.50
  18   2  -5   28.80   24.70
  18  -2  -5   33.00   26.40
  18  -2  -5   32.40   31.90
  18   2  -4  234.98   50.59
  18   2  -4  290.27   59.79
  18   2  -3   93.49   36.90
  18   2  -2  -44.10   24.70
 -18  -2   2    9.70   34.20
  18   3  -7  113.49   43.00
  18   3  -6    3.30   25.00
  19   0 -12  216.88   48.00
  19   0 -10  281.47   55.49
  19   0  -9   16.50   29.60
  19   0  -8   93.19   29.50
  19   0  -8   54.29   31.00
  19   0  -7   15.40   21.30
  19   0  -7   11.00   28.00
  19   0  -6   11.00   24.40
  19   0  -6   -1.40   26.30
  19   0  -5   -3.40   18.10
  19   0  -5   24.80   23.80
  19   0  -4 1163.88  106.19
  19   0  -3   28.70   27.40
  19   0  -3   51.99   25.40
  19   0  -2   22.00   31.60
  19   0  -2   74.69   32.20
  19  -1 -12   66.19   32.20
  19   1 -11  515.85   84.89
  19  -1 -11  637.34   71.79
  19   1 -10   74.09   34.70
  19  -1 -10   15.70   29.80
  19   1  -9   95.79   35.80
  19  -1  -9  123.19   35.90
  19   1  -8   14.90   24.40
  19   1  -8   -7.40   23.50
  19  -1  -8   28.10   25.40
  19   1  -7   36.00   34.50
  19   1  -7  108.99   37.80
  19  -1  -7   75.29   32.40
  19   1  -6   25.30   23.30
  19   1  -6   24.90   20.60
  19  -1  -6   21.90   20.10
  19   1  -5  -38.80   25.00
  19   1  -5   15.30   25.40
  19  -1  -5   -1.80   23.20
  19   1  -4  -12.30   29.20
  19   1  -4   23.20   31.80
  19  -1  -4   72.59   28.20
  19   1  -3  380.76   71.99
  19  -1  -3  333.47   61.39
  19   2  -7   97.99   41.00
  19   2  -6   -3.90   28.90
   0   0   0    0.00    0.00

_computing_structure_solution     'SHELXT 2014/5 (Sheldrick, 2014)'
;
_shelx_hkl_checksum              79989
_olex2_submission_special_instructions 'No special instructions were received'
loop_
_space_group_symop_operation_xyz
'x, y, z'
'-x, y+1/2, -z+1/2'
'-x, -y, -z'
'x, -y-1/2, z-1/2'
loop_
_atom_site_label
_atom_site_type_symbol
_atom_site_fract_x
_atom_site_fract_y
_atom_site_fract_z
_atom_site_U_iso_or_equiv
_atom_site_adp_type
_atom_site_occupancy
_atom_site_site_symmetry_order
_atom_site_calc_flag
_atom_site_refinement_flags_posn
_atom_site_refinement_flags_adp
_atom_site_refinement_flags_occupancy
_atom_site_disorder_assembly
_atom_site_disorder_group
I2 I 0.15755(4) -0.00212(11) 0.49217(4) 0.01095(12) Uani 1 1 d . . . . .
I1 I 0.09397(4) 0.57433(11) 0.70781(4) 0.01191(13) Uani 1 1 d . . . . .
I3 I 0.48982(16) 0.0785(5) 0.62408(8) 0.0114(3) Uani 0.928(10) 1 d . . P A 1
Ga1 Ga 0.30926(7) 0.50462(19) 0.66198(7) 0.0107(2) Uani 1 1 d . . . . .
Na1 Na 0.6981(3) 0.4953(7) 0.6124(3) 0.0241(8) Uani 1 1 d . . . . .
F1 F 0.3590(4) 0.2702(10) 0.7825(4) 0.0218(12) Uani 1 1 d . . . . .
O6 O 0.1889(4) 0.2646(12) 0.5938(5) 0.0153(13) Uani 1 1 d . U . . .
O8 O 0.5714(4) 0.2294(11) 0.7539(4) 0.0129(13) Uani 1 1 d . . . . .
O7 O 0.3864(4) 0.3339(12) 0.5863(5) 0.0160(13) Uani 1 1 d . . . . .
O5 O 0.2717(4) -0.2246(11) 0.5446(5) 0.0137(13) Uani 1 1 d . . . . .
O1 O 0.2220(4) 0.7007(11) 0.7224(5) 0.0163(14) Uani 1 1 d . . . . .
O4 O 0.1924(5) 0.1651(12) 0.3951(5) 0.0185(14) Uani 1 1 d . . . . .
O3 O 0.0793(5) 0.7987(12) 0.8058(5) 0.0209(15) Uani 1 1 d . . . . .
O9 O 0.5607(5) 0.2137(13) 0.5506(5) 0.0199(14) Uani 1 1 d . . . . .
O2 O 0.0192(5) 0.7571(13) 0.5877(5) 0.0264(16) Uani 1 1 d . . . . .
I4 I 0.5138(16) 0.008(5) 0.6331(11) 0.0114(3) Uani 0.072(10) 1 d . . P A 2
loop_
_atom_site_aniso_label
_atom_site_aniso_U_11
_atom_site_aniso_U_22
_atom_site_aniso_U_33
_atom_site_aniso_U_23
_atom_site_aniso_U_13
_atom_site_aniso_U_12
I2 0.0101(2) 0.0110(3) 0.0112(3) -0.0002(2) 0.0037(2) -0.0006(2)
I1 0.0097(3) 0.0140(3) 0.0127(3) 0.0001(2) 0.0051(2) 0.0002(2)
I3 0.0103(5) 0.0121(6) 0.0122(3) 0.0001(3) 0.0048(3) 0.0002(5)
Ga1 0.0085(4) 0.0110(4) 0.0120(5) 0.0007(4) 0.0033(4) -0.0001(4)
Na1 0.026(2) 0.0194(18) 0.030(2) -0.0042(18) 0.0130(18) -0.0087(17)
F1 0.023(3) 0.018(3) 0.025(3) 0.009(2) 0.010(3) 0.006(2)
O6 0.0127(19) 0.016(2) 0.017(2) -0.0027(16) 0.0065(16) -0.0030(16)
O8 0.014(3) 0.012(3) 0.009(3) 0.001(2) 0.000(2) 0.004(2)
O7 0.012(3) 0.021(3) 0.016(3) 0.001(3) 0.006(3) 0.008(3)
O5 0.014(3) 0.011(3) 0.019(3) 0.006(3) 0.009(3) 0.005(2)
O1 0.011(3) 0.014(3) 0.027(4) -0.007(3) 0.011(3) -0.003(3)
O4 0.019(3) 0.021(3) 0.016(3) 0.001(3) 0.007(3) -0.010(3)
O3 0.019(3) 0.020(3) 0.026(4) -0.005(3) 0.011(3) 0.004(3)
O9 0.022(3) 0.025(4) 0.017(3) -0.002(3) 0.012(3) -0.009(3)
O2 0.024(4) 0.032(4) 0.021(4) 0.012(3) 0.007(3) 0.010(3)
I4 0.0103(5) 0.0121(6) 0.0122(3) 0.0001(3) 0.0048(3) 0.0002(5)
loop_
_atom_type_symbol
_atom_type_description
_atom_type_scat_dispersion_real
_atom_type_scat_dispersion_imag
_atom_type_scat_source
F F 0.0171 0.0103 'International Tables Vol C Tables 4.2.6.8 and 6.1.1.4'
Ga Ga 0.2307 1.6083 'International Tables Vol C Tables 4.2.6.8 and 6.1.1.4'
I I -0.4742 1.8119 'International Tables Vol C Tables 4.2.6.8 and 6.1.1.4'
Na Na 0.0362 0.0249 'International Tables Vol C Tables 4.2.6.8 and 6.1.1.4'
O O 0.0106 0.0060 'International Tables Vol C Tables 4.2.6.8 and 6.1.1.4'
loop_
_geom_angle_atom_site_label_1
_geom_angle_atom_site_label_2
_geom_angle_atom_site_label_3
_geom_angle
_geom_angle_site_symmetry_1
_geom_angle_site_symmetry_3
_geom_angle_publ_flag
O6 I2 O5 102.4(3) . . ?
O4 I2 O6 100.2(3) . . ?
I3a Na1 I1 95.97(10) . 2_646 ?
O4 I2 O5 96.2(3) . . ?
I4b Na1 I1 89.3(4) . 2_646 ?
I4b F1 Na1 114.7(5) 2_656 2_646 ?
I3a O8 Ga1 113.9(3) . 2_646 ?
I4b O8 Ga1 99.5(9) . 2_646 ?
I3a O7 Ga1 133.5(3) . . ?
I4b O7 Na1 119.8(4) . 3_666 ?
O1 I1 Na1 40.46(19) . 2_656 ?
O3 I1 Na1 56.7(2) . 2_656 ?
O3 I1 O1 96.0(3) . . ?
O2 I1 Na1 111.1(2) . 2_656 ?
O2 I1 O1 97.6(3) . . ?
O2 I1 O3 99.9(3) . . ?
F1 Ga1 O6 90.2(2) . . ?
I3a O7 Na1 119.8(3) . 3_666 ?
I3a O9 Na1 127.0(3) . . ?
F1 Ga1 O8 83.9(2) . 2_656 ?
F1 Ga1 O7 95.8(2) . . ?
F1 Ga1 O5 173.4(2) . 1_565 ?
F1 Ga1 O1 90.9(2) . . ?
F1 Ga1 I4 44.8(5) . 2_656 ?
O6 Ga1 O5 96.4(2) . 1_565 ?
I4b O9 Na1 125.2(5) . . ?
Ga1 I4b Na1 73.0(3) 2_646 . ?
F1 I4b Ga1 40.3(3) 2_646 2_646 ?
O6 Ga1 O1 85.7(2) . . ?
O6 Ga1 I4 135.0(5) . 2_656 ?
O8 Ga1 O6 173.2(2) 2_656 . ?
O8 Ga1 O5 89.5(2) 2_656 1_565 ?
O8 Ga1 O1 90.8(2) 2_656 . ?
O8 Ga1 I4 39.1(5) 2_656 2_656 ?
O7 Ga1 O6 92.8(2) . . ?
O7 Ga1 O8 91.3(2) . 2_656 ?
F1 I4b Na1 85.5(5) 2_646 . ?
F1 I4b O7 163.4(7) 2_646 . ?
O8 I4b Ga1 41.4(5) . 2_646 ?
O8 I4b Na1 66.8(4) . . ?
O8 I3a Na1 66.62(19) . . ?
O8 I4b F1 81.6(8) . 2_646 ?
O8 I4b O7 82.1(9) . . ?
O7 I4b Ga1 123.4(7) . 2_646 ?
O7 I4b Na1 91.4(6) . . ?
O7 I3a Na1 99.8(2) . . ?
O7 I3a O8 97.1(3) . . ?
O7 Ga1 O5 83.8(2) . 1_565 ?
O7 Ga1 O1 173.1(3) . . ?
O7 Ga1 I4 93.5(3) . 2_656 ?
O5 Ga1 I4 128.6(5) 1_565 2_656 ?
O1 Ga1 O5 89.7(2) . 1_565 ?
O1 Ga1 I4 92.2(3) . 2_656 ?
F1 Na1 I1 107.29(19) 2_656 2_646 ?
F1 Na1 I3 79.67(16) 2_656 . ?
F1 Na1 O7 108.7(2) 2_656 3_666 ?
F1 Na1 O5 167.3(2) 2_656 3_656 ?
F1 Na1 O1 85.8(2) 2_656 2_646 ?
F1 Na1 I4 84.5(4) 2_656 . ?
O7 Na1 I1 142.60(18) 3_666 2_646 ?
O7 Na1 I3 100.08(17) 3_666 . ?
O7 Na1 O5 59.24(19) 3_666 3_656 ?
O7 Na1 I4 103.9(3) 3_666 . ?
O5 Na1 I1 85.29(15) 3_656 2_646 ?
O5 Na1 I3 97.94(16) 3_656 . ?
O5 Na1 I4 94.4(3) 3_656 . ?
O1 Na1 I1 28.14(13) 2_646 2_646 ?
O1 Na1 I3 74.21(16) 2_646 . ?
O1 Na1 O7 163.5(2) 2_646 3_666 ?
O1 Na1 O5 105.6(2) 2_646 3_656 ?
O1 Na1 I4 68.9(4) 2_646 . ?
O4 Na1 I1 93.58(19) 3_666 2_646 ?
O4 Na1 I3 167.9(2) 3_666 . ?
O4 Na1 F1 90.3(2) 3_666 2_656 ?
O4 Na1 O7 76.5(2) 3_666 3_666 ?
O4 Na1 O5 90.3(2) 3_666 3_656 ?
O4 Na1 O1 112.2(2) 3_666 2_646 ?
O4 Na1 I4 174.7(4) 3_666 . ?
O9 I4b Ga1 102.2(6) . 2_646 ?
O9 I3a Na1 29.8(2) . . ?
O9 I4b Na1 30.6(3) . . ?
O9 Na1 I1 104.6(2) . 2_646 ?
O9 Na1 I3 23.23(16) . . ?
O9 Na1 F1 97.6(2) . 2_656 ?
O9 Na1 O7 80.4(2) . 3_666 ?
O9 Na1 O5 77.3(2) . 3_656 ?
O9 I4b F1 102.1(10) . 2_646 ?
O9 I3a O8 96.3(3) . . ?
O9 Na1 O1 90.1(2) . 2_646 ?
O9 Na1 O4 156.9(3) . 3_666 ?
O9 Na1 I4 24.2(3) . . ?
Ga1 F1 Na1 141.5(3) . 2_646 ?
Ga1 F1 I4 94.9(5) . 2_656 ?
I2 O6 Ga1 133.8(3) . . ?
Ga1 O7 Na1 106.5(2) . 3_666 ?
Ga1 O7 I4 133.4(4) . . ?
I2 O5 Ga1 128.8(3) . 1_545 ?
I2 O5 Na1 111.7(3) . 3_656 ?
Ga1 O5 Na1 103.5(2) 1_545 3_656 ?
I1 O1 Ga1 122.2(3) . . ?
I1 O1 Na1 111.4(3) . 2_656 ?
Ga1 O1 Na1 120.8(3) . 2_656 ?
I2 O4 Na1 138.7(3) . 3_666 ?
O9 I4b O8 94.6(7) . . ?
O9 I3a O7 98.4(3) . . ?
O9 I4b O7 82.8(10) . . ?
loop_
_geom_bond_atom_site_label_1
_geom_bond_atom_site_label_2
_geom_bond_distance
_geom_bond_site_symmetry_2
_geom_bond_publ_flag
I4b Ga1 2.933(18) 2_646 ?
I3a Na1 3.637(4) . ?
I4b F1 2.07(3) 2_646 ?
I2 O6 1.832(6) . ?
I3a O8 1.849(6) . ?
I3a O7 1.840(6) . ?
I2 O5 1.845(5) . ?
I2 O4 1.783(6) . ?
I3a O9 1.797(6) . ?
I1 Na1 3.646(4) 2_656 ?
I1 O1 1.847(5) . ?
I1 O3 1.806(6) . ?
I1 O2 1.804(6) . ?
Ga1 F1 1.902(5) . ?
Ga1 O6 1.977(6) . ?
Ga1 O8 1.966(6) 2_656 ?
Ga1 O7 1.958(6) . ?
Ga1 O5 1.987(6) 1_565 ?
Ga1 O1 1.979(6) . ?
Ga1 I4 2.933(18) 2_656 ?
Na1 I1 3.646(4) 2_646 ?
Na1 F1 2.329(6) 2_656 ?
Na1 O7 2.635(7) 3_666 ?
Na1 O5 2.693(7) 3_656 ?
Na1 O1 2.541(7) 2_646 ?
Na1 O4 2.305(7) 3_666 ?
Na1 O9 2.261(7) . ?
Na1 I4 3.629(13) . ?
F1 Na1 2.329(6) 2_646 ?
F1 I4 2.07(3) 2_656 ?
O8 Ga1 1.966(5) 2_646 ?
O8 I4 1.875(14) . ?
O7 Na1 2.635(7) 3_666 ?
O7 I4 2.31(3) . ?
O5 Ga1 1.987(6) 1_545 ?
O5 Na1 2.693(7) 3_656 ?
O1 Na1 2.541(7) 2_656 ?
O4 Na1 2.305(7) 3_666 ?
O9 I4 1.820(14) . ?
