#------------------------------------------------------------------------------
#$Date: 2021-09-18 02:08:25 +0300 (Sat, 18 Sep 2021) $
#$Revision: 269198 $
#$URL: file:///home/coder/svn-repositories/cod/cif/7/70/83/7708329.cif $
#------------------------------------------------------------------------------
#
# This file is available in the Crystallography Open Database (COD),
# http://www.crystallography.net/
#
# All data on this site have been placed in the public domain by the
# contributors.
#
data_7708329
loop_
_publ_author_name
'Li, Meng-Hua'
'You, Ming-Hua'
'Lin, Mei-Jin'
_publ_section_title
;
 Encapsulating third donors into D--A hybrid heterostructures to form
 three-component charge-transfer complexes for enhanced electrical
 properties
;
_journal_name_full               'Dalton Transactions'
_journal_paper_doi               10.1039/D1DT02230J
_journal_year                    2021
_chemical_formula_moiety         'Cu4 I6, I2, C16 H14 N4 S2'
_chemical_formula_sum            'C16 H14 Cu4 I8 N4 S2'
_chemical_formula_weight         1595.79
_space_group_crystal_system      triclinic
_space_group_IT_number           2
_space_group_name_Hall           '-P 1'
_space_group_name_H-M_alt        'P -1'
_atom_sites_solution_hydrogens   geom
_audit_creation_date             2021-07-03
_audit_creation_method
;
Olex2 1.3
(compiled 2020.11.12 svn.r5f609507 for OlexSys, GUI svn.r6272)
;
_audit_update_record
;
2021-07-03 deposited with the CCDC.	2021-08-31 downloaded from the CCDC.
;
_cell_angle_alpha                110.950(5)
_cell_angle_beta                 97.265(5)
_cell_angle_gamma                94.237(5)
_cell_formula_units_Z            1
_cell_length_a                   5.9584(3)
_cell_length_b                   11.7691(7)
_cell_length_c                   12.0851(6)
_cell_measurement_reflns_used    5251
_cell_measurement_temperature    293(2)
_cell_measurement_theta_max      29.3230
_cell_measurement_theta_min      2.9920
_cell_volume                     778.58(8)
_computing_cell_refinement       'CrysAlisPro 1.171.39.28b (Rigaku OD, 2015)'
_computing_data_collection       'CrysAlisPro 1.171.39.28b (Rigaku OD, 2015)'
_computing_data_reduction        'CrysAlisPro 1.171.39.28b (Rigaku OD, 2015)'
_computing_molecular_graphics    'Olex2 1.3 (Dolomanov et al., 2009)'
_computing_publication_material  'Olex2 1.3 (Dolomanov et al., 2009)'
_computing_structure_refinement  'SHELXL 2018/3 (Sheldrick, 2015)'
_computing_structure_solution    'SHELXT 2018/2 (Sheldrick, 2018)'
_diffrn_ambient_temperature      293(2)
_diffrn_detector                 'CCD plate'
_diffrn_measured_fraction_theta_full 0.998
_diffrn_measured_fraction_theta_max 0.822
_diffrn_measurement_details
;
List of Runs (angles in degrees, time in seconds):

  # Type    Start    End  Width  t~exp~   \w     \q     \k     \f   Frames
#--------------------------------------------------------------------------
  1  \w     31.00  77.00   0.50    6.00    --    5.00  55.00-180.00   92
  2  \w    -12.00  77.00   0.50    6.00    --   -9.60  55.00-150.00  178
  3  \w    -21.00  75.00   0.50    6.00    --   -9.60  55.00   0.00  192
  4  \w    -96.00 -60.00   0.50    6.00    --   -9.60  43.00 -90.00   72
  5  \w    -15.00  11.00   0.50    6.00    --   -9.60  43.00 -90.00   52
  6  \w     43.00  68.00   0.50    6.00    --   -9.60  43.00 -90.00   50
  7  \w    -85.00 -38.00   0.50    6.00    --   -9.60  55.00-150.00   94
  8  \w    -97.00  63.00   0.50    6.00    --   -9.60  55.00 120.00  320
;
_diffrn_measurement_device       'four-circle diffractometer'
_diffrn_measurement_device_type  'XtaLAB AFC11 (RCD3): quarter-chi single'
_diffrn_measurement_method       '\w scans'
_diffrn_orient_matrix_type
'CrysAlisPro convention (1999,Acta A55,543-557)'
_diffrn_orient_matrix_UB_11      0.1169400000
_diffrn_orient_matrix_UB_12      0.0032155000
_diffrn_orient_matrix_UB_13      0.0228398000
_diffrn_orient_matrix_UB_21      0.0227054000
_diffrn_orient_matrix_UB_22      -0.0272709000
_diffrn_orient_matrix_UB_23      -0.0594173000
_diffrn_orient_matrix_UB_31      0.0212800000
_diffrn_orient_matrix_UB_32      0.0589966000
_diffrn_orient_matrix_UB_33      -0.0026475000
_diffrn_radiation_monochromator  graphite
_diffrn_radiation_probe          x-ray
_diffrn_radiation_type           'Mo K\a'
_diffrn_radiation_wavelength     0.71073
_diffrn_reflns_av_R_equivalents  0.0519
_diffrn_reflns_av_unetI/netI     0.0526
_diffrn_reflns_Laue_measured_fraction_full 0.998
_diffrn_reflns_Laue_measured_fraction_max 0.822
_diffrn_reflns_limit_h_max       7
_diffrn_reflns_limit_h_min       -8
_diffrn_reflns_limit_k_max       15
_diffrn_reflns_limit_k_min       -15
_diffrn_reflns_limit_l_max       16
_diffrn_reflns_limit_l_min       -15
_diffrn_reflns_number            10094
_diffrn_reflns_point_group_measured_fraction_full 0.998
_diffrn_reflns_point_group_measured_fraction_max 0.822
_diffrn_reflns_theta_full        25.242
_diffrn_reflns_theta_max         29.582
_diffrn_reflns_theta_min         2.074
_diffrn_source                   'fine-focus sealed X-ray tube'
_diffrn_source_type              'Enhance (Mo) X-ray Source'
_exptl_absorpt_coefficient_mu    10.775
_exptl_absorpt_correction_T_max  1.00000
_exptl_absorpt_correction_T_min  0.41235
_exptl_absorpt_correction_type   multi-scan
_exptl_absorpt_process_details
;
CrysAlisPro 1.171.39.28b (Rigaku Oxford Diffraction, 2015)
Empirical absorption correction using spherical harmonics,
 implemented in SCALE3 ABSPACK scaling algorithm.
;
_exptl_crystal_colour            'clear light black'
_exptl_crystal_colour_lustre     clear
_exptl_crystal_colour_modifier   light
_exptl_crystal_colour_primary    black
_exptl_crystal_density_diffrn    3.403
_exptl_crystal_description       plate
_exptl_crystal_F_000             710
_exptl_crystal_size_max          0.32
_exptl_crystal_size_mid          0.27
_exptl_crystal_size_min          0.08
_refine_diff_density_max         1.919
_refine_diff_density_min         -1.780
_refine_diff_density_rms         0.219
_refine_ls_extinction_method     none
_refine_ls_goodness_of_fit_ref   1.027
_refine_ls_hydrogen_treatment    constr
_refine_ls_matrix_type           full
_refine_ls_number_parameters     155
_refine_ls_number_reflns         3599
_refine_ls_number_restraints     0
_refine_ls_restrained_S_all      1.027
_refine_ls_R_factor_all          0.0500
_refine_ls_R_factor_gt           0.0362
_refine_ls_shift/su_max          0.001
_refine_ls_shift/su_mean         0.000
_refine_ls_structure_factor_coef Fsqd
_refine_ls_weighting_details
'w=1/[\s^2^(Fo^2^)+(0.0466P)^2^] where P=(Fo^2^+2Fc^2^)/3'
_refine_ls_weighting_scheme      calc
_refine_ls_wR_factor_gt          0.0891
_refine_ls_wR_factor_ref         0.0946
_reflns_Friedel_coverage         0.000
_reflns_number_gt                2807
_reflns_number_total             3599
_reflns_threshold_expression     'I > 2\s(I)'
_cod_data_source_file            d1dt02230j2.cif
_cod_data_source_block           liszocui-i2
_cod_original_cell_volume        778.57(8)
_cod_database_code               7708329
_shelx_shelxl_version_number     2018/3
_shelx_space_group_comment
;
The symmetry employed for this shelxl refinement is uniquely defined
by the following loop, which should always be used as a source of
symmetry information in preference to the above space-group names.
They are only intended as comments.
;
_shelx_estimated_absorpt_t_max   0.479
_shelx_estimated_absorpt_t_min   0.130
_reflns_odcompleteness_completeness 99.84
_reflns_odcompleteness_iscentric 1
_reflns_odcompleteness_theta     26.32
_olex2_refinement_description
;
1. Fixed Uiso
 At 1.2 times of:
  All C(H) groups
 At 1.5 times of:
  All C(H,H,H) groups
2.a Aromatic/amide H refined with riding coordinates:
 C6(H6), C4(H4), C2(H2), C3(H3)
2.b Idealised Me refined as rotating group:
 C1(H1A,H1B,H1C)
;
_shelx_res_file
;
TITL exp_1045_a.res in P-1
    liszocui-i2.res
    created by SHELXL-2018/3 at 00:21:25 on 03-Jul-2021
REM Old TITL exp_1045 in P-1
REM SHELXT solution in P-1: R1 0.175, Rweak 0.010, Alpha 0.027
REM <I/s> 0.000 for 0 systematic absences, Orientation as input
REM Formula found by SHELXT: C9 N S3 Cu2 I2
CELL 0.71073 5.9584 11.7691 12.0851 110.95 97.265 94.237
ZERR 1 0.0003 0.0007 0.0006 0.005 0.005 0.005
LATT 1
SFAC C H Cu I N S
UNIT 16 14 4 8 4 2

L.S. 4 0 0
PLAN  7
SIZE 0.32 0.27 0.08
CONF
BOND
list 4
MORE -1
BOND $H
fmap 2 53
acta
OMIT 0 -2 1
OMIT 0 1 1
OMIT 0 0 1
REM <olex2.extras>
REM <HklSrc "%.\\liszoCuI-I2.hkl">
REM </olex2.extras>

WGHT    0.046600
FVAR       0.24607
I1    4    0.276863    0.971789    1.119030    11.00000    0.03803    0.03617 =
         0.03375    0.01674    0.00525    0.00451
I3    4    1.153641    0.771359    0.736384    11.00000    0.03429    0.04361 =
         0.02944    0.01322    0.00396   -0.00146
I2    4    0.698933    0.681653    0.960766    11.00000    0.04280    0.04300 =
         0.03858    0.02254    0.01114    0.00859
I4    4    0.685974    0.581668    0.573674    11.00000    0.04013    0.05066 =
         0.04452    0.02173    0.01004    0.00770
CU2   3    0.954867    0.853046    0.924888    11.00000    0.06558    0.06342 =
         0.05257    0.02621    0.01933    0.00642
CU1   3    0.476862    0.854254    0.928791    11.00000    0.05837    0.06286 =
         0.05817    0.03083    0.00217    0.00951
S1    6   -0.157528   -0.075045    0.323361    11.00000    0.04244    0.04714 =
         0.02966    0.01921    0.00674   -0.00240
N2    5    0.235673    0.078743    0.468569    11.00000    0.03927    0.03991 =
         0.03247    0.01868    0.01184    0.00587
N1    5    0.932839    0.365526    0.724052    11.00000    0.03524    0.04114 =
         0.04636    0.02780    0.00681    0.00868
C5    1    0.530045    0.204173    0.634516    11.00000    0.03803    0.02786 =
         0.03328    0.01844    0.01198    0.01107
C6    1    0.667093    0.228995    0.557536    11.00000    0.04092    0.03965 =
         0.02979    0.01665    0.01191    0.00529
AFIX  43
H6    2    0.623798    0.190824    0.474781    11.00000   -1.20000
AFIX   0
C8    1    0.036551    0.007442    0.451306    11.00000    0.03764    0.03204 =
         0.03010    0.01799    0.00848    0.00514
C4    1    0.608269    0.262528    0.758160    11.00000    0.03776    0.03870 =
         0.03541    0.01887    0.01268    0.00862
AFIX  43
H4    2    0.523828    0.247876    0.812448    11.00000   -1.20000
AFIX   0
C7    1    0.318426    0.121564    0.584905    11.00000    0.04118    0.03378 =
         0.03718    0.02213    0.01950    0.01446
C2    1    0.863365    0.308774    0.603429    11.00000    0.04284    0.04270 =
         0.04205    0.02466    0.01393    0.00597
AFIX  43
H2    2    0.951687    0.324768    0.551212    11.00000   -1.20000
AFIX   0
C3    1    0.806456    0.340334    0.799371    11.00000    0.04800    0.04370 =
         0.03504    0.02020    0.00487    0.00379
AFIX  43
H3    2    0.856237    0.377195    0.881757    11.00000   -1.20000
AFIX   0
C1    1    1.139640    0.455139    0.771942    11.00000    0.04096    0.04933 =
         0.06456    0.03011    0.00560   -0.00186
AFIX 137
H1A   2    1.238508    0.440077    0.712744    11.00000   -1.50000
H1B   2    1.217196    0.447390    0.843022    11.00000   -1.50000
H1C   2    1.098402    0.536529    0.791365    11.00000   -1.50000
AFIX   0
HKLF 4




REM  exp_1045_a.res in P-1
REM wR2 = 0.0946, GooF = S = 1.027, Restrained GooF = 1.027 for all data
REM R1 = 0.0362 for 2807 Fo > 4sig(Fo) and 0.0500 for all 3599 data
REM 155 parameters refined using 0 restraints

END

WGHT      0.0466      0.0000

REM Highest difference peak  1.919,  deepest hole -1.780,  1-sigma level  0.219
Q1    1   0.5454  0.8206  0.8704  11.00000  0.05    1.92
Q2    1   0.8563  0.8132  0.8645  11.00000  0.05    1.63
Q3    1   1.0195  0.9069  0.9158  11.00000  0.05    1.12
Q4    1   0.8985  0.8773  0.9688  11.00000  0.05    1.11
Q5    1   1.1963  0.6959  0.7458  11.00000  0.05    1.08
Q6    1   0.1999  0.8978  1.0620  11.00000  0.05    1.00
Q7    1   1.0218  0.8017  0.9379  11.00000  0.05    0.95
;
_shelx_res_checksum              80931
_shelx_hkl_file
;
   0   0  -1   73.47    4.19
   0   0  -2  522.34   25.78
   0   0   2  434.84   25.69
   0   0   3   81.38    5.66
   0   0   3   99.79    5.62
   0   0  -3   88.71    5.72
   0   0   4    2.59    1.46
   0   0   4    1.47    1.31
   0   0   4    1.54    1.23
   0   0  -4    1.18    1.42
   0   0   5  290.39   15.58
   0   0  -5  265.08   15.90
   0   0   5  254.59   15.93
   0   0  -6 1807.76   99.40
   0   0   6 1777.06   99.32
   0   0   6 1923.76   98.86
   0   0   7  163.10    9.58
   0   0  -7  163.65   10.35
   0   0   7  138.27   10.41
   0   0   7  138.32   10.00
   0   0   8   15.07    2.58
   0   0   8   16.54    3.61
   0   0  -8   13.24    2.74
   0   0   9    1.17    3.09
   0   0  -9    1.01    2.26
   0   0   9    1.35    2.05
   0   0 -10  128.12   10.06
   0   0  10  127.74    8.88
   0   0  10  128.54   10.16
   0   0  10  140.12   10.71
   0   0 -11   13.22    3.66
   0   0  11   16.55    4.23
   0   0 -11   15.15    2.67
   0   0  11   17.21    3.20
   0   0  11   23.94    5.23
   0   0  12    0.27    2.42
   0   0  12   -1.04    3.36
   0   0 -12   -0.24    3.01
   0   0 -13  211.22   16.03
   0   0  13  240.72   17.26
   0   0  14   25.27    7.55
   0   1 -14   76.06    8.53
   0  -1  14   92.31   10.14
   0  -1  13   16.24    3.71
   0  -1  13   12.18    5.02
   0   1 -13    7.87    3.63
   0  -1  12    3.65    2.65
   0  -1  12    2.22    4.60
   0  -1  12    5.83    3.60
   0   1 -12    5.90    3.17
   0  -1  11   62.02    7.30
   0  -1  11   59.04    5.25
   0   1 -11   40.48    3.86
   0   1 -11   39.99    5.34
   0   1 -10    6.79    1.71
   0  -1  10    9.37    4.29
   0   1 -10    7.41    2.92
   0  -1  10   11.81    3.24
   0  -1   9  156.84   12.03
   0  -1   9  164.23   11.04
   0  -1   9  176.18   10.59
   0   1  -9  141.71    9.38
   0   1  -9  162.66   11.06
   0  -1   8 1006.48   49.17
   0   1  -8  832.05   47.87
   0  -1   8  763.00   49.85
   0   1  -8  931.62   49.46
   0  -1   8  964.23   49.52
   0   1  -7   56.82    4.95
   0  -1   7   67.75    4.98
   0  -1   7   55.43    4.93
   0   1  -6  114.87    8.14
   0  -1   6  121.84    8.27
   0  -1   6  135.54    8.37
   0   1  -5   84.62    6.24
   0  -1   5   90.48    6.35
   0  -1   5  109.05    6.64
   0  -1   4   43.68    3.51
   0  -1   4   41.12    3.32
   0   1  -4   35.82    3.19
   0   1  -3   84.10    3.13
   0  -1   3   82.31    3.07
   0  -1   2   11.07    1.92
   0   1  -2  195.99    3.75
   0  -1   1 2892.95  157.07
   0   1  -1 3033.77  157.04
   0   1   1    0.20    0.67
   0  -1  -1   -0.18    0.65
   0  -1  -2  481.90   24.88
   0   1   2  429.53   24.90
   0   1   2  470.06   24.38
   0  -1  -2  446.35   24.93
   0  -1  -2  442.72   24.50
   0   1   3  648.55   34.95
   0  -1  -3  665.49   35.67
   0   1   4 2254.94  119.86
   0  -1  -4 2261.94  120.68
   0  -1  -5 6077.47  321.83
   0   1   5 6049.77  320.87
   0  -1  -6   40.40    4.24
   0   1   6   44.78    3.44
   0   1   7  104.19    7.43
   0   1   7   92.18    6.20
   0   1   7   96.90    7.29
   0  -1  -7   90.43    7.31
   0   1   8    6.58    1.69
   0   1   8   12.38    3.18
   0  -1  -8   10.04    2.68
   0   1   8    7.53    2.52
   0   1   9    1.65    2.60
   0  -1  -9    0.36    2.43
   0   1   9   -0.09    1.61
   0   1   9    1.48    2.90
   0   1  10   97.92    8.60
   0   1  10   76.70    6.72
   0  -1 -10   95.53    8.27
   0   1  10   97.22    7.94
   0   1  11  122.30   10.62
   0  -1 -11  104.30    9.50
   0   1  11  113.09    8.07
   0   1  12   82.81    9.28
   0  -1 -12   58.05    7.16
   0   1  13   11.60    5.84
   0  -1 -13   -1.14    3.76
   0   2 -14   12.29    4.33
   0  -2  14   17.65    4.06
   0   2 -13    1.72    3.34
   0  -2  13    1.10    3.15
   0  -2  12   81.57    9.51
   0   2 -12   84.06    7.95
   0  -2  12   89.63    7.58
   0   2 -11  155.14   11.23
   0   2 -11  143.88    9.16
   0  -2  11  161.01   10.89
   0  -2  11  148.09   12.77
   0   2 -10  158.79   11.16
   0  -2  10  167.08   11.60
   0   2 -10  150.64    9.41
   0  -2  10  175.90   11.18
   0  -2  10  133.80   12.27
   0   2  -9  513.19   29.88
   0  -2   9  541.76   30.07
   0   2  -9  507.28   28.27
   0  -2   8  242.20   14.99
   0  -2   8  190.35   15.64
   0   2  -8  238.30   13.62
   0   2  -8  239.02   14.96
   0  -2   7    1.42    1.67
   0   2  -7    0.66    1.60
   0  -2   7   -0.13    2.04
   0   2  -7    1.06    0.98
   0  -2   7    1.71    2.76
   0   2  -6  106.66    6.81
   0   2  -6  119.90    7.80
   0  -2   6  140.57    8.51
   0  -2   6  123.84    7.94
   0   2  -5    8.86    1.70
   0  -2   5    6.00    1.68
   0  -2   4  647.81   13.04
   0   2  -4  634.22   12.96
   0  -2   4  682.75   11.11
   0   2  -4  618.05   12.93
   0  -2   3 2825.03   35.66
   0   2  -3 2610.01   35.69
   0  -2   2 1487.60   79.01
   0  -2   2 1497.61   79.09
   0  -2   2 1474.08   78.78
   0  -2   1    0.59    1.12
   0  -2   1    2.98    0.80
   0  -2   0   98.16    6.09
   0  -2   0   96.01    5.89
   0  -2  -1  183.94   10.66
   0  -2  -2   80.78    5.25
   0  -2  -2   76.75    5.34
   0  -2  -3   62.69    3.81
   0  -2  -3   62.72    4.04
   0   2   4 2799.56  147.74
   0   2   4 3052.80  149.11
   0  -2  -4 2532.57  148.71
   0   2   5   52.24    3.61
   0   2   5   63.25    5.12
   0  -2  -5   54.59    4.82
   0   2   6   46.70    3.38
   0   2   6   45.51    4.51
   0   2   6   48.23    4.12
   0  -2  -6   45.35    4.61
   0   2   6   53.05    4.85
   0   2   7  287.26   16.26
   0   2   7  264.54   17.59
   0  -2  -7  268.47   17.75
   0   2   7  293.20   18.12
   0   2   7  321.56   17.33
   0   2   8   98.21    8.47
   0  -2  -8  106.69    8.74
   0   2   8  121.58    9.52
   0   2   8  114.42    7.39
   0   2   8  119.01    8.12
   0  -2  -9  516.35   33.48
   0   2   9  564.63   31.87
   0   2   9  576.93   32.60
   0  -2 -10  851.64   54.34
   0   2  10  955.97   53.10
   0   2  10 1076.94   55.84
   0   2  10  983.80   53.13
   0   2  11   20.13    5.03
   0  -2 -11    8.61    3.66
   0  -2 -12   -0.27    3.43
   0  -2 -13    0.30    3.77
   0  -3  15    1.56    3.65
   0   3 -14    1.86    3.26
   0  -3  14    6.26    3.60
   0   3 -13  241.03   17.60
   0  -3  13  251.00   18.12
   0  -3  13  292.08   17.78
   0   3 -12  418.50   28.04
   0  -3  12  508.63   28.35
   0  -3  12  474.86   28.82
   0  -3  11  511.52   29.19
   0   3 -11  484.67   26.33
   0  -3  11  530.73   28.87
   0  -3  10   11.48    3.27
   0  -3  10    7.66    4.11
   0   3 -10   10.21    1.71
   0  -3   9  106.65    8.18
   0   3  -9  101.22    7.89
   0   3  -9  119.28    6.85
   0  -3   8   21.78    3.28
   0   3  -8   22.87    2.99
   0  -3   8   21.64    4.45
   0  -3   8   31.01    3.93
   0   3  -8   22.61    2.09
   0   3  -7  531.90   14.01
   0  -3   7  577.50   14.68
   0  -3   7  545.33   17.18
   0  -3   6  718.10   11.40
   0  -3   6  685.44   14.77
   0  -3   5  215.58    3.52
   0  -3   5  208.59    5.78
   0  -3   4 1335.17   14.63
   0  -3   4 1361.33   17.72
   0  -3   4 1411.32   21.81
   0  -3   3 1408.82   73.92
   0  -3   3 1351.39   73.77
   0  -3   3 1384.30   74.73
   0   3  -3 1407.75   73.50
   0  -3   3 1353.69   73.40
   0  -3   2   40.65    3.99
   0  -3   2   52.92    3.55
   0  -3   2   46.95    3.36
   0  -3   1   28.91    3.12
   0  -3   1   29.49    2.42
   0  -3   1   27.95    2.47
   0   3   0  166.68    9.67
   0  -3   0  178.05    9.95
   0  -3   0  148.18    9.70
   0  -3   0  157.86    9.59
   0  -3  -1 1074.64   56.49
   0  -3  -1 1027.68   57.28
   0   3   1 1056.47   56.70
   0  -3  -2  762.99   44.71
   0   3   2  751.47   44.59
   0  -3  -3 1062.08   59.87
   0  -3  -3 1140.16   59.78
   0   3   3 1098.41   59.78
   0   3   4  318.11   18.94
   0  -3  -4  333.04   19.02
   0  -3  -4  322.67   19.19
   0   3   5    2.08    1.88
   0  -3  -5    1.05    1.99
   0   3   5    2.22    0.75
   0  -3  -6   30.48    3.56
   0   3   6   24.11    3.22
   0   3   6   24.48    2.11
   0  -3  -7    2.36    2.23
   0   3   7    0.34    0.95
   0   3   7    1.05    2.32
   0   3   7    1.64    2.24
   0  -3  -8   96.37    8.23
   0   3   8   76.64    8.19
   0   3   8   99.57    6.36
   0  -3  -9  402.18   25.21
   0   3   9  416.59   22.71
   0   3   9  379.92   24.18
   0  -3 -10    3.59    3.31
   0  -3 -11   10.79    3.95
   0  -3 -12   37.83    6.22
   0  -4  15    8.48    4.21
   0  -4  14    1.65    3.62
   0  -4  14    1.42    3.53
   0  -4  13   91.40    9.05
   0  -4  13   98.98    8.90
   0  -4  12  127.37   10.57
   0  -4  11  281.78   11.27
   0  -4  11  175.77   11.28
   0  -4  10   25.97    5.26
   0  -4  10   42.39    5.08
   0  -4   9  510.67   12.15
   0  -4   9  438.50   15.12
   0  -4   8 1602.62   20.10
   0  -4   8 1458.09   25.30
   0  -4   7 1987.07   28.12
   0  -4   7 2006.77   21.22
   0  -4   6 1176.78   46.74
   0  -4   6 1152.03   45.18
   0   4  -5   85.26    5.23
   0  -4   5   81.98    5.15
   0  -4   5   91.61    6.05
   0  -4   5   93.01    7.32
   0  -4   4  330.82   19.91
   0  -4   4  343.84   18.94
   0  -4   4  353.34   18.86
   0  -4   4  311.49   18.18
   0   4  -3  570.65   33.18
   0  -4   3  666.12   33.37
   0  -4   3  597.14   33.24
   0  -4   3  571.71   34.22
   0  -4   3  630.49   33.46
   0   4  -2  671.46   39.02
   0  -4   2  716.43   38.94
   0  -4   2  751.37   39.13
   0  -4   2  715.06   39.90
   0  -4   2  749.61   39.60
   0  -4   1 1072.97   54.32
   0  -4   1 1112.40   53.90
   0   4  -1  974.08   53.69
   0  -4   0    6.31    1.76
   0   4   0    3.07    2.03
   0  -4   0    4.23    2.05
   0  -4   0    2.35    1.89
   0  -4  -1  585.64   35.91
   0   4   1  807.45   36.46
   0  -4  -1  639.65   36.89
   0   4   1  722.35   37.38
   0  -4  -2  871.31   54.31
   0  -4  -2 1057.21   54.81
   0  -4  -2 1015.15   53.18
   0   4   2  933.50   54.50
   0   4   2 1030.86   53.38
   0   4   3    0.11    1.82
   0  -4  -3    0.53    2.16
   0  -4  -3   -0.35    1.79
   0   4   4    9.60    0.95
   0   4   4   11.70    2.42
   0  -4  -4   11.29    2.49
   0  -4  -4   10.59    2.43
   0   4   5   85.36    6.77
   0   4   5   79.98    4.82
   0  -4  -5   97.63    7.19
   0  -4  -5   89.87    6.78
   0  -4  -6  417.52   24.99
   0   4   6  415.11   24.69
   0  -4  -7   39.79    4.99
   0   4   7   40.74    4.98
   0  -4  -8  271.13   18.00
   0  -4  -9   26.53    4.89
   0  -4 -10   -0.51    3.12
   0  -4 -11    1.13    3.46
   0  -4 -12   -1.85    4.23
   0  -5  16   75.08    8.53
   0  -5  15   66.22    7.66
   0   5 -15   48.51    6.81
   0  -5  14   17.30    4.75
   0  -5  14   17.04    4.88
   0   5 -14   22.87    4.69
   0  -5  13   17.01    4.66
   0   5 -13   18.25    4.17
   0  -5  12  230.33   15.75
   0   5 -12  194.21   14.30
   0  -5  11    4.27    3.68
   0   5 -11    4.08    1.16
   0   5 -11    8.37    2.92
   0  -5  10   30.77    4.74
   0  -5  10   18.22    5.17
   0   5 -10   15.28    1.50
   0   5 -10   26.87    3.79
   0  -5   9  152.80    6.88
   0  -5   9  164.87    8.89
   0   5  -9  148.89    6.84
   0   5  -8  662.80   21.94
   0  -5   8  669.91   25.06
   0   5  -8  689.19   22.13
   0  -5   8  699.36   22.18
   0  -5   7  243.51   13.82
   0   5  -7  243.39   13.86
   0   5  -7  261.72   15.30
   0  -5   7  258.48   15.23
   0   5  -7  247.08   15.09
   0   5  -6 1073.64   58.40
   0   5  -6 1090.67   58.36
   0  -5   6 1026.99   57.25
   0  -5   6 1126.15   58.43
   0  -5   6 1122.86   60.09
   0  -5   5    1.71    1.69
   0  -5   5    2.00    2.73
   0  -5   5    2.28    1.67
   0  -5   5    1.13    1.09
   0   5  -5    3.51    1.61
   0  -5   4 2223.91  117.08
   0  -5   4 2187.80  116.89
   0   5  -4 2136.40  116.98
   0  -5   4 2206.51  118.31
   0  -5   4 2198.71  117.26
   0  -5   3 3372.75  180.38
   0  -5   3 3337.77  180.77
   0  -5   3 3483.32  181.64
   0   5  -3 3356.40  180.48
   0  -5   3 3441.39  180.55
   0  -5   2 3088.25  158.53
   0  -5   2 3126.76  158.76
   0  -5   2 3144.70  159.58
   0   5  -1  487.32   28.67
   0  -5   1  469.27   28.87
   0   5   0  267.13   16.48
   0  -5   0  286.63   16.36
   0  -5   0  287.25   16.71
   0  -5   0  270.30   16.01
   0   5   1  169.44   10.84
   0  -5  -1  148.61   10.10
   0  -5  -1  152.33    9.26
   0  -5  -2  394.30   24.30
   0   5   2  456.72   24.83
   0  -5  -3  137.06    9.86
   0  -5  -3  142.68   10.00
   0   5   3  152.64   10.14
   0   5   4  177.87   11.83
   0  -5  -4  169.42   11.66
   0  -5  -4  178.82   11.90
   0  -5  -5  108.15    8.26
   0   5   5  113.27    8.43
   0  -5  -5   99.85    8.31
   0  -5  -6   68.22    6.70
   0   5   6   66.25    6.32
   0  -5  -7  292.65   19.06
   0  -5  -8   -0.68    2.94
   0  -5  -9   18.12    4.40
   0  -5 -10   27.87    5.42
   0  -5 -11   58.08    7.54
   0  -6  16    8.33    5.18
   0  -6  15   -1.48    4.15
   0   6 -15    0.81    3.46
   0   6 -14    8.62    3.45
   0  -6  14    8.25    4.63
   0   6 -13   54.87    6.46
   0  -6  13   68.19    7.97
   0  -6  12  237.42   16.63
   0   6 -12  203.42   14.73
   0   6 -11  188.69   13.64
   0  -6  11  222.94   15.58
   0   6 -10   98.10    8.02
   0  -6  10  101.04    9.49
   0   6  -9   34.45    4.08
   0  -6   9   33.05    4.03
   0  -6   9   25.21    5.53
   0   6  -9   22.76    3.53
   0   6  -8   40.44    4.21
   0  -6   8   37.80    2.87
   0   6  -8   36.72    4.07
   0  -6   8   35.04    4.05
   0  -6   7  789.80   46.82
   0  -6   7  822.92   47.06
   0   6  -7  823.19   45.32
   0  -6   7  864.90   45.45
   0  -6   7  798.38   44.01
   0  -6   6   39.42    4.06
   0  -6   6   38.10    3.88
   0  -6   6   38.22    3.14
   0  -6   6   36.52    5.13
   0   6  -6   39.81    3.84
   0   6  -5   52.71    4.47
   0  -6   5   53.79    5.80
   0  -6   5   53.65    4.58
   0  -6   5   53.94    4.22
   0  -6   5   52.59    4.68
   0  -6   4  864.51   48.12
   0  -6   4  879.10   46.93
   0  -6   4  866.87   46.75
   0   6  -4  773.18   46.67
   0  -6   4  848.50   47.03
   0  -6   4  915.44   47.14
   0   6  -3  975.05   57.35
   0  -6   3 1145.86   57.63
   0  -6   3 1146.31   58.70
   0  -6   3 1099.97   57.32
   0  -6   3  944.74   57.71
   0  -6   2   16.98    2.37
   0  -6   2   16.41    2.45
   0   6  -2   17.44    2.53
   0  -6   2   11.47    3.04
   0  -6   2   22.78    3.61
   0  -6   1 1476.31   73.17
   0  -6   1 1532.84   73.59
   0   6  -1 1150.45   72.24
   0  -6   1 1190.49   72.57
   0  -6   1 1498.91   72.91
   0  -6   0    7.02    1.96
   0  -6   0    8.65    2.38
   0   6   0    8.88    2.58
   0  -6   0    8.32    2.55
   0  -6  -1 1779.76  100.54
   0  -6  -1 1904.82   99.51
   0   6   2 1372.04   68.64
   0  -6  -2 1142.19   67.59
   0  -6  -3  714.97   41.33
   0  -6  -3  689.94   41.31
   0   6   3  791.40   41.65
   0   6   4    9.97    3.05
   0  -6  -4    8.49    2.76
   0  -6  -4    7.91    2.85
   0  -6  -5   67.43    6.65
   0   6   5   75.81    6.93
   0  -6  -5   72.78    6.86
   0  -6  -6   39.10    5.18
   0  -6  -7   50.64    6.22
   0  -6  -8    5.13    3.46
   0  -6  -9    2.67    3.53
   0  -6 -10   33.87    6.08
   0  -6 -11   -2.53    4.15
   0   7 -15   13.29    4.39
   0  -7  15   15.48    5.53
   0  -7  14  223.82   16.27
   0   7 -14  178.88   14.18
   0  -7  13    3.86    4.49
   0   7 -13    4.08    3.28
   0   7 -12   30.05    4.66
   0  -7  12   38.88    6.50
   0  -7  11   76.71    8.40
   0   7 -11   62.34    6.37
   0   7 -10    2.45    2.35
   0   7  -9   63.60    5.83
   0  -7   9   59.73    5.67
   0  -7   9   56.52    4.00
   0   7  -8   96.60    7.18
   0  -7   8   86.85    8.54
   0  -7   8   84.24    5.66
   0  -7   8   99.46    7.33
   0  -7   8   74.20    8.12
   0  -7   7  629.80   35.31
   0  -7   7  660.06   35.23
   0  -7   7  595.29   33.84
   0  -7   7  614.30   36.65
   0   7  -7  617.32   34.98
   0  -7   6  116.26    8.41
   0   7  -6  107.94    8.06
   0  -7   6  115.56    7.57
   0  -7   6  117.73    8.34
   0  -7   6  115.78    9.51
   0  -7   5  286.00   17.25
   0   7  -5  260.53   16.87
   0  -7   5  288.41   18.44
   0  -7   5  297.56   16.97
   0  -7   5  287.51   17.00
   0  -7   5  286.13   17.06
   0   7  -4   20.49    2.92
   0  -7   4   23.81    3.75
   0  -7   4   26.82    3.10
   0  -7   4   26.43    3.09
   0  -7   4   25.13    2.82
   0  -7   4   23.59    3.26
   0  -7   3    9.54    2.48
   0  -7   3   15.71    3.29
   0  -7   3   13.03    2.23
   0  -7   3   15.55    2.26
   0  -7   2  722.12   41.72
   0   7  -2  681.45   41.38
   0  -7   2  707.08   42.48
   0   7  -1   28.44    3.47
   0  -7   1   32.58    3.96
   0  -7   1   36.88    4.23
   0  -7   1   34.30    3.89
   0  -7   1   26.50    3.60
   0  -7   0  182.32   11.38
   0  -7   0  205.62   11.77
   0  -7   0  173.30   12.07
   0   7   0  169.71   11.86
   0   7   1  396.48   25.65
   0  -7  -1  469.07   24.53
   0  -7  -1  422.41   25.70
   0   7   2  502.07   30.87
   0  -7  -2  464.32   30.18
   0  -7  -2  563.38   28.97
   0   7   3   54.84    5.89
   0  -7  -3   45.26    5.00
   0  -7  -3   35.17    5.10
   0  -7  -4  335.35   20.98
   0  -7  -4  298.27   20.67
   0  -7  -5    3.83    2.83
   0   7   5    4.91    3.33
   0  -7  -5    2.99    3.01
   0  -7  -6  371.44   23.57
   0  -7  -7  168.57   13.01
   0  -7  -8   66.40    7.62
   0  -7  -9   11.33    4.32
   0  -7 -10    3.41    4.06
   0  -8  15  229.55   18.17
   0  -8  14  189.12   15.62
   0   8 -14  180.93   13.93
   0  -8  13    7.79    5.03
   0   8 -13    9.72    3.78
   0  -8  12    6.16    4.73
   0   8 -12    1.96    2.91
   0   8 -11   -0.40    2.67
   0   8 -10    0.55    2.53
   0  -8   9  631.93   38.53
   0  -8   9  603.55   34.62
   0  -8   9  706.37   36.91
   0   8  -9  660.83   36.59
   0   8  -8   19.84    3.30
   0  -8   8   13.40    4.32
   0  -8   8   18.51    2.26
   0  -8   8   19.19    4.82
   0  -8   8   18.07    3.38
   0  -8   7  144.12   11.97
   0  -8   7  147.86    9.47
   0   8  -7  144.13   10.28
   0  -8   7  138.89   11.55
   0  -8   7  150.87   10.61
   0  -8   7  162.49   10.60
   0  -8   6   18.80    2.83
   0  -8   6   23.66    3.33
   0  -8   6   15.54    2.67
   0   8  -6   15.03    2.80
   0  -8   6   18.76    3.07
   0  -8   6   23.65    4.31
   0  -8   5   44.60    4.08
   0  -8   5   39.61    4.20
   0  -8   5   41.87    4.66
   0  -8   5   46.16    4.53
   0  -8   5   45.01    5.45
   0   8  -5   39.39    4.33
   0  -8   4   54.91    4.62
   0  -8   4   44.87    5.11
   0  -8   4   58.92    6.01
   0  -8   4   56.05    4.96
   0  -8   3   46.58    4.17
   0  -8   3   49.20    5.29
   0  -8   3   38.15    4.21
   0   8  -2  672.52   42.96
   0  -8   2  656.33   43.08
   0  -8   2  766.03   44.17
   0  -8   2  919.23   44.00
   0  -8   2  948.09   44.85
   0  -8   2  819.11   43.86
   0  -8   1   63.31    5.62
   0  -8   1   60.28    5.07
   0   8  -1   40.90    4.65
   0  -8   1   46.15    4.98
   0  -8   1   47.97    5.07
   0  -8   0   40.96    4.61
   0  -8   0   40.15    3.92
   0   8   0   33.20    4.28
   0  -8   0   49.94    4.35
   0  -8  -1   56.71    5.65
   0  -8  -1   64.70    4.63
   0   8   1   51.84    5.57
   0  -8  -2    1.74    1.58
   0  -8  -2    1.37    2.42
   0   8   2   -1.23    2.37
   0   8   3  201.02   14.71
   0  -8  -3  205.58   14.31
   0  -8  -3  231.05   15.22
   0  -8  -4   24.29    4.25
   0   8   4   27.55    5.15
   0  -8  -4   21.11    4.66
   0  -8  -5   64.46    6.81
   0  -8  -6   84.62    8.32
   0  -8  -7   46.72    6.43
   0  -8  -8   29.28    5.47
   0  -8  -9   45.77    6.77
   0  -9  14   -0.39    5.09
   0   9 -14    6.01    3.91
   0  -9  13   38.11    7.33
   0   9 -13   37.85    5.62
   0   9 -12  149.01   11.58
   0   9 -11   79.24    7.64
   0  -9  10  921.01   57.67
   0   9 -10 1031.94   55.82
   0  -9   9  200.12   15.35
   0  -9   9  181.87   11.62
   0  -9   9  203.74   13.51
   0   9  -9  203.68   13.48
   0  -9   8   33.07    4.22
   0   9  -8   31.87    4.28
   0  -9   8   36.60    4.51
   0  -9   8   31.82    3.47
   0  -9   8   31.66    5.68
   0  -9   8   32.47    4.47
   0  -9   7   77.96    8.20
   0  -9   7   74.23    6.75
   0  -9   7   87.42    8.30
   0  -9   7   72.19    6.05
   0  -9   7   81.13    6.97
   0   9  -7   70.75    6.53
   0  -9   7   79.40    6.56
   0  -9   6    3.35    1.97
   0  -9   6    4.76    3.40
   0   9  -6    5.29    2.40
   0  -9   6    2.96    2.24
   0  -9   6    4.56    2.38
   0  -9   6    2.57    2.37
   0  -9   5    6.65    2.29
   0  -9   5    2.03    3.02
   0  -9   5    0.68    2.31
   0  -9   5    2.47    2.07
   0  -9   5    1.65    1.77
   0  -9   4  626.14   33.09
   0  -9   4  586.67   33.16
   0  -9   3  156.31   10.77
   0  -9   3  128.90    9.92
   0  -9   3  125.96   10.40
   0  -9   2   61.85    5.46
   0  -9   2   49.49    5.21
   0   9  -2   38.74    4.66
   0  -9   2   63.05    6.02
   0  -9   2   46.50    5.65
   0  -9   2   44.71    4.94
   0  -9   1   32.65    4.00
   0   9  -1   27.34    3.91
   0  -9   1   46.66    4.72
   0  -9   1   31.88    4.33
   0  -9   1   28.65    4.12
   0  -9   1   35.10    4.96
   0  -9   0  206.01   11.96
   0  -9   0  165.48   12.34
   0   9   0  168.91   12.23
   0  -9   0  189.34   12.04
   0  -9  -1   28.38    4.12
   0  -9  -1   24.62    3.33
   0   9   1   28.58    4.09
   0  -9  -2    1.12    2.46
   0  -9  -2    2.35    3.51
   0   9   2    3.68    2.82
   0  -9  -3  231.24   15.84
   0  -9  -3  237.44   16.31
   0  -9  -4   -0.64    3.05
   0  -9  -5    7.44    3.59
   0  -9  -6   46.00    6.38
   0  -9  -7    3.51    3.71
   0  -9  -8   10.94    4.39
   0 -10  14    5.76    5.83
   0  10 -14   16.77    4.71
   0  10 -13    0.51    3.25
   0  10 -12   -1.43    3.25
   0 -10  11  313.18   23.22
   0  10 -11  337.97   21.38
   0 -10  10   13.91    5.16
   0  10 -10   11.11    3.49
   0 -10   9    3.83    4.28
   0  10  -9    5.44    3.11
   0  10  -8  220.26   14.77
   0 -10   8  216.23   13.77
   0 -10   8  214.42   14.70
   0 -10   8  210.91   14.80
   0 -10   8  232.36   16.74
   0 -10   7  333.30   21.07
   0 -10   7  300.54   19.18
   0 -10   7  301.22   19.03
   0 -10   7  308.87   18.69
   0  10  -7  280.90   18.81
   0 -10   7  293.38   18.51
   0 -10   6  258.61   17.43
   0 -10   6  283.65   17.11
   0 -10   6  274.19   17.59
   0 -10   6  308.78   19.31
   0 -10   6  255.93   17.27
   0 -10   5 1395.66   66.67
   0 -10   5 1362.01   66.29
   0 -10   5 1145.72   64.74
   0 -10   5 1228.85   64.39
   0 -10   5 1133.67   64.59
   0 -10   4   45.94    5.37
   0 -10   4   72.64    7.31
   0 -10   4   69.81    6.57
   0 -10   4   49.61    5.93
   0 -10   4   54.30    5.57
   0 -10   3    2.94    3.36
   0 -10   3    3.34    2.47
   0 -10   3    2.58    3.05
   0 -10   3    1.07    2.71
   0 -10   3    4.40    2.78
   0 -10   2   43.82    5.25
   0  10  -2   42.20    4.87
   0 -10   2   40.52    4.92
   0 -10   2   52.90    5.67
   0 -10   2   38.17    4.99
   0 -10   2   48.93    5.04
   0 -10   2   39.54    5.39
   0 -10   1    2.47    2.41
   0  10  -1    0.49    2.36
   0 -10   1    2.73    2.64
   0 -10   1    2.35    2.68
   0 -10   1    2.62    3.04
   0 -10   1    0.59    2.95
   0 -10   1    1.35    2.28
   0 -10   0   10.85    3.30
   0 -10   0    9.15    3.62
   0  10   0    8.75    2.98
   0 -10   0    6.31    3.00
   0 -10   0    6.89    2.65
   0  10   1  165.99   11.94
   0 -10  -1  170.97   12.12
   0 -10  -2  153.87   11.03
   0  10   2  125.91   10.33
   0  10   3   23.31    4.42
   0 -10  -3   26.83    4.57
   0  10   4   12.54    3.89
   0 -10  -4    9.85    3.71
   0 -10  -5   56.98    6.90
   0 -10  -6    2.69    3.68
   0  11 -14   30.99    6.06
   0  11 -13  248.74   17.73
   0  11 -12    3.54    3.71
   0 -11  12    9.17    5.37
   0  11 -11   -0.95    3.08
   0 -11  11    1.13    4.79
   0 -11  10   18.08    5.65
   0  11 -10   10.30    3.87
   0 -11   9   59.33    7.80
   0  11  -9   52.71    6.20
   0 -11   8   11.09    4.56
   0 -11   8    6.51    2.81
   0  11  -8    8.75    3.33
   0 -11   8   11.50    3.55
   0 -11   7   17.09    3.81
   0 -11   7   18.40    3.89
   0 -11   7   27.76    5.23
   0 -11   7   17.92    3.89
   0 -11   6  475.04   26.35
   0 -11   6  439.73   26.73
   0 -11   6  429.78   26.39
   0 -11   5    5.37    3.03
   0 -11   5    1.43    2.46
   0 -11   5    2.28    2.50
   0 -11   5    1.49    2.46
   0 -11   5    1.61    3.82
   0 -11   5    5.89    3.29
   0 -11   4   13.52    3.86
   0 -11   4    6.32    3.26
   0 -11   4    8.29    3.46
   0 -11   4    9.68    3.52
   0 -11   4    6.30    2.77
   0 -11   4    8.78    3.98
   0 -11   3  361.24   23.14
   0 -11   3  351.42   23.46
   0 -11   3  305.30   22.50
   0 -11   3  422.98   23.42
   0 -11   3  410.07   23.77
   0 -11   3  446.49   24.19
   0 -11   2  197.16   12.93
   0 -11   2  164.37   12.35
   0 -11   2  187.72   12.85
   0 -11   2  160.89   12.81
   0  11  -1  182.86   13.19
   0 -11   1  204.09   13.56
   0 -11   1  191.27   14.01
   0 -11   0  377.75   24.81
   0 -11   0  420.92   24.29
   0  11   0  379.19   23.81
   0  11   1   -2.07    3.03
   0 -11  -1   -1.25    3.30
   0 -11  -1    2.18    2.86
   0 -11  -2    2.61    3.72
   0 -11  -2    1.30    3.07
   0  11   2    0.19    2.82
   0  11   3   29.34    4.83
   0 -11  -3   28.39    4.85
   0  11   4    1.14    3.17
   0  11   5    3.63    3.67
   0 -11  -5   -0.90    4.01
   0  12 -14   62.39    7.97
   0  12 -13    0.85    3.96
   0 -12  12    3.34    5.13
   0  12 -12    0.83    3.73
   0 -12  11   24.09    6.55
   0  12 -11   32.27    5.64
   0 -12  10    5.86    4.75
   0  12 -10    5.17    3.67
   0 -12   9   78.73    9.19
   0 -12   9   65.40    7.19
   0  12  -9   67.61    7.26
   0 -12   8  214.78   16.14
   0 -12   8  279.65   18.67
   0 -12   7   44.26    5.75
   0 -12   7   48.05    5.88
   0 -12   7   61.78    7.40
   0 -12   6    4.93    3.63
   0 -12   6   -0.22    3.00
   0 -12   6    1.27    2.72
   0 -12   6    2.05    3.66
   0 -12   5   21.14    3.89
   0 -12   5   21.85    5.11
   0 -12   5   20.27    4.48
   0 -12   5   20.45    4.41
   0 -12   4   52.99    6.24
   0 -12   4   72.70    7.19
   0 -12   4   54.27    6.69
   0 -12   3   -0.41    3.34
   0 -12   3    6.67    3.60
   0 -12   3    3.21    3.33
   0 -12   2   37.75    5.09
   0 -12   2   36.40    5.51
   0  12  -1  222.91   14.90
   0 -12   1  227.40   15.01
   0 -12   1  201.24   15.23
   0  12   0    8.97    3.54
   0 -12   0   14.31    3.75
   0 -12   0   11.21    4.20
   0  12   1   27.83    4.62
   0 -12  -1   30.16    5.39
   0 -12  -2  121.14   10.65
   0  12   2  112.86    9.47
   0  12   3   11.63    3.84
   0 -12  -3   12.07    4.61
   0  13 -13    6.58    4.69
   0  13 -12    1.47    3.89
   0 -13  11   -1.60    4.89
   0  13 -11    1.96    3.69
   0 -13  10   19.52    6.05
   0  13 -10   15.30    4.67
   0 -13   9   82.88    9.20
   0 -13   9   58.40    7.09
   0 -13   8   18.78    4.29
   0 -13   8   13.44    5.00
   0 -13   7    4.60    4.02
   0 -13   7    2.92    2.99
   0 -13   7    3.96    3.08
   0 -13   6   33.65    5.13
   0 -13   6   29.82    5.16
   0 -13   5    4.51    3.68
   0 -13   5    3.71    3.09
   0 -13   5    7.90    3.95
   0 -13   4  119.65    9.92
   0 -13   4   91.44    9.18
   0 -13   3   53.74    6.79
   0 -13   2   53.87    6.72
   0 -13   1    1.73    3.34
   0  13  -1    4.73    3.17
   0  13   0    4.23    3.21
   0 -13   0    7.52    3.81
   0 -13  -1   16.32    4.60
   0  13   1   12.98    3.85
   0  14 -12   89.17    9.94
   0 -14  10   60.19    8.85
   0 -14   9   14.07    5.54
   0 -14   8   18.77    5.53
   0 -14   7    0.31    3.73
   0 -14   6   -2.02    3.84
   0 -14   6    1.45    3.56
   0 -14   5   21.56    5.23
   0 -14   4   21.69    5.03
   0 -14   3   26.52    5.36
   0 -14   2    8.02    4.00
   0 -14   1   21.96    5.03
   0 -15   8   70.13    9.01
   0 -15   5   44.22    6.63
   0 -15   4    5.58    4.33
   1 -15   4    6.16    4.50
   1 -15   5    4.36    4.25
   1 -15   6    5.41    4.16
   1 -15   7   -2.23    4.24
   1 -15   8   39.56    7.12
  -1  14   1    5.70    3.92
  -1  14   0   13.41    4.46
   1 -14   1   56.18    7.64
  -1  14  -1   60.59    7.20
   1 -14   2   45.87    6.89
   1 -14   3   25.64    5.59
   1 -14   4   75.63    8.56
   1 -14   5    2.49    3.95
   1 -14   6   13.69    4.87
   1 -14   6   18.23    4.82
   1 -14   7   44.82    6.52
   1 -14   7   38.22    5.94
   1 -14   8   -0.29    3.63
   1 -14   8   -0.34    4.13
   1 -14   9   23.37    6.17
   1 -14   9   10.83    4.57
   1 -14  10    7.08    4.35
  -1  13   4   24.35    5.22
  -1  13   3   12.04    4.29
  -1  13   2   -2.46    3.48
  -1  13   1   70.19    7.69
   1 -13  -1   81.09    8.62
  -1  13   0   30.13    5.28
   1 -13   0   28.31    5.59
   1 -13   1   12.28    4.57
  -1  13  -1    8.90    3.98
   1 -13   2   -2.00    4.20
   1 -13   3    9.34    4.61
   1 -13   4   10.70    4.33
   1 -13   5    0.26    3.72
   1 -13   6  189.77   14.82
   1 -13   6  216.94   15.36
   1 -13   7   45.20    6.33
   1 -13   7   50.48    6.22
   1 -13   8   33.19    5.81
   1 -13   9   43.10    6.39
  -1  13 -10    5.90    3.90
   1 -13  10    0.58    3.69
   1 -13  10    4.52    4.94
   1 -13  11    2.00    4.86
  -1  13 -11    4.30    3.71
  -1  13 -12   40.72    6.44
  -1  13 -13    9.84    4.81
  -1  12   6   -2.62    4.04
  -1  12   5   25.95    5.51
  -1  12   4    2.28    3.72
   1 -12  -3    2.26    4.03
  -1  12   3   -1.21    3.39
   1 -12  -2  124.79   11.04
  -1  12   2  119.70   10.33
  -1  12   1   35.57    5.54
   1 -12  -1   33.13    5.91
   1 -12   0   36.09    6.00
  -1  12   0   37.62    5.55
   1 -12   1  107.51   10.17
  -1  12  -1  111.58    9.70
   1 -12   2    2.98    3.97
  -1  12  -2    1.13    3.27
   1 -12   3    6.32    4.02
   1 -12   4   84.13    8.51
   1 -12   5   94.02    9.00
   1 -12   6    7.96    3.67
   1 -12   6    7.21    3.54
   1 -12   7    1.46    2.77
   1 -12   7   -0.25    3.12
   1 -12   8   25.66    4.89
  -1  12  -8   25.54    4.23
   1 -12   8   24.12    4.30
  -1  12  -9    0.21    3.05
   1 -12   9   -0.27    3.37
  -1  12 -10    7.35    3.71
   1 -12  10    1.38    3.60
   1 -12  11  301.10   21.86
  -1  12 -11  279.22   19.22
  -1  12 -12   19.20    4.68
   1 -12  12   19.93    6.60
  -1  12 -13   28.66    5.59
  -1  12 -14   17.86    5.22
  -1  11   6    0.58    3.81
  -1  11   5   11.44    4.29
   1 -11  -5   13.21    4.70
  -1  11   4   13.94    4.44
  -1  11   3   98.10    9.11
  -1  11   2    1.58    3.15
   1 -11  -2    5.72    3.88
  -1  11   1    5.74    3.33
   1 -11  -1   10.70    4.07
   1 -11   0   50.47    6.84
  -1  11   0   57.66    6.45
   1 -11   1    2.60    2.33
   1 -11   1    2.26    3.58
  -1  11  -1    3.64    3.31
   1 -11   2   30.04    3.98
  -1  11  -2   32.43    5.12
   1 -11   2   34.16    5.72
   1 -11   3  688.41   34.54
   1 -11   3  606.28   33.34
   1 -11   4   41.79    5.88
   1 -11   4   47.90    5.14
   1 -11   5  103.29    9.13
   1 -11   6   75.12    7.27
   1 -11   6   68.33    7.29
  -1  11  -7    9.14    2.92
   1 -11   7    8.77    3.68
   1 -11   7   10.33    3.26
  -1  11  -8   29.35    4.26
   1 -11   8   26.07    4.84
   1 -11   8   30.97    4.24
  -1  11  -9   67.75    6.73
   1 -11   9   71.63    7.57
   1 -11  10  176.13   13.96
  -1  11 -10  194.99   13.42
   1 -11  11    2.29    4.47
  -1  11 -11    5.34    3.49
  -1  11 -12    0.24    3.06
  -1  11 -13    1.27    3.40
  -1  11 -14    3.79    3.85
   1 -10  -7    1.78    4.08
   1 -10  -6   28.60    5.87
   1 -10  -5  165.51   13.26
  -1  10   4   -0.25    3.33
  -1  10   3   88.01    8.56
   1 -10  -3   94.49    7.87
   1 -10  -2   78.39    6.94
  -1  10   2   81.13    7.75
   1 -10  -2   85.65    8.44
  -1  10   1   26.56    4.61
   1 -10  -1   27.19    5.06
   1 -10  -1   29.30    3.99
   1 -10   0   32.73    4.09
  -1  10   0   37.83    5.13
   1 -10   0   38.57    5.51
  -1  10  -1    1.20    2.85
   1 -10   1    1.06    2.77
   1 -10   1    2.60    3.43
   1 -10   1   -1.47    2.15
   1 -10   2  295.78   22.36
  -1  10  -2  393.70   22.65
   1 -10   2  277.59   20.63
   1 -10   2  437.51   21.74
   1 -10   2  438.96   22.40
   1 -10   3   18.22    3.63
   1 -10   3    8.34    3.61
   1 -10   3   10.63    2.64
   1 -10   3   10.11    2.81
   1 -10   4   59.38    5.95
   1 -10   4   49.39    6.21
   1 -10   4   50.84    5.01
   1 -10   4   68.94    6.55
   1 -10   5   78.96    7.40
   1 -10   5   61.33    5.59
   1 -10   5   66.02    6.26
   1 -10   5   60.58    6.41
   1 -10   6   94.38    7.79
   1 -10   6   93.80    7.74
  -1  10  -6   87.57    7.16
   1 -10   6   91.24    8.36
   1 -10   6   89.41    7.16
   1 -10   7  151.71   10.60
   1 -10   7  150.78   10.71
  -1  10  -7  146.43   10.58
   1 -10   7  160.82   11.79
  -1  10  -8  659.73   38.09
   1 -10   8  663.72   39.22
   1 -10   8  653.73   37.65
   1 -10   8  691.67   38.28
  -1  10  -9   20.64    3.88
   1 -10   9   19.72    3.19
   1 -10   9   24.92    4.48
  -1  10 -10   95.20    8.28
  -1  10 -11   33.01    5.07
  -1  10 -12    2.48    3.02
   1 -10  13   12.12    5.71
  -1  10 -13    8.28    3.87
  -1  10 -14    1.83    3.59
   1  -9  -8    1.47    4.10
   1  -9  -7    7.99    4.57
   1  -9  -6   46.18    6.01
   1  -9  -6   59.11    7.27
   1  -9  -5    2.98    2.96
   1  -9  -5    3.70    3.93
  -1   9   4   48.27    6.05
   1  -9  -4   51.43    5.68
   1  -9  -4   64.95    7.22
  -1   9   3   21.93    4.49
   1  -9  -3   23.57    3.77
  -1   9   2   73.34    5.84
  -1   9   2   71.01    7.07
   1  -9  -2   64.01    5.96
   1  -9  -2   56.34    6.91
   1  -9  -1  207.57   15.54
  -1   9   1  238.46   14.45
  -1   9   1  226.53   15.30
   1  -9  -1  219.39   14.19
   1  -9   0  541.07   37.44
   1  -9   0  623.52   36.22
   1  -9   0  625.93   36.48
  -1   9   0  640.27   37.49
  -1   9   0  672.01   37.05
   1  -9   0  746.02   36.52
   1  -9   1    4.76    3.44
  -1   9  -1    7.65    2.99
   1  -9   1    5.85    2.49
  -1   9  -1   10.72    3.27
   1  -9   1    9.27    2.34
   1  -9   2  239.71   19.26
   1  -9   2  341.79   18.57
   1  -9   2  257.66   17.92
   1  -9   2  369.08   19.52
  -1   9  -2  301.26   19.38
  -1   9  -2  382.60   20.34
   1  -9   3   39.92    5.38
   1  -9   3   47.76    4.43
   1  -9   3   54.73    5.52
   1  -9   4   36.60    4.82
   1  -9   4   34.12    4.26
   1  -9   4   30.62    3.55
   1  -9   4   33.79    4.90
   1  -9   5   53.06    5.22
   1  -9   5   45.44    4.78
  -1   9  -5   34.42    4.08
   1  -9   5   57.73    6.23
   1  -9   5   47.81    4.43
   1  -9   6   73.98    7.61
   1  -9   6   68.29    5.98
  -1   9  -6   62.69    5.66
   1  -9   6   68.68    5.76
   1  -9   6   69.80    6.70
   1  -9   6   68.71    6.29
   1  -9   7  610.01   35.03
   1  -9   7  635.57   35.36
   1  -9   7  632.68   36.40
   1  -9   7  616.20   35.75
  -1   9  -7  610.01   35.08
  -1   9  -8   33.58    4.22
   1  -9   8   32.94    3.67
   1  -9   8   32.94    4.24
   1  -9   8   37.50    5.09
   1  -9   9   66.60    6.79
   1  -9   9   66.07    6.23
   1  -9   9   60.88    5.22
  -1   9  -9   69.62    6.26
  -1   9 -10   -0.54    2.57
  -1   9 -11   57.49    6.23
  -1   9 -12  140.87   10.80
   1  -9  12  117.70   12.38
  -1   9 -13  296.13   19.01
   1  -9  13  253.92   20.68
  -1   9 -14   -0.25    3.29
   1  -9  14    1.61    5.18
   1  -8 -10   26.80    6.13
   1  -8  -9   41.57    6.94
   1  -8  -8   44.33    6.74
   1  -8  -8   37.93    5.81
   1  -8  -7    2.78    4.16
   1  -8  -7   -0.22    3.04
   1  -8  -6  201.86   14.12
   1  -8  -6  154.99   12.33
  -1   8   5    0.19    3.02
   1  -8  -5    1.29    2.58
   1  -8  -5    0.51    3.48
   1  -8  -4   97.57    8.86
  -1   8   4   87.75    6.16
   1  -8  -4   77.92    7.20
  -1   8   4   94.23    7.93
  -1   8   3   10.60    3.34
  -1   8   3    9.00    2.35
   1  -8  -3   11.93    2.84
  -1   8   2   38.86    5.22
   1  -8  -2   42.21    4.03
  -1   8   2   44.61    4.27
   1  -8  -2   49.22    5.83
   1  -8  -2   34.47    4.16
  -1   8   1  292.22   18.30
   1  -8  -1  255.56   19.09
  -1   8   1  293.60   19.25
   1  -8  -1  264.19   17.84
   1  -8   0   35.26    5.19
   1  -8   0   47.77    4.54
  -1   8   0   46.00    4.98
   1  -8   0   54.00    4.43
  -1   8   0   42.35    5.11
   1  -8   1  240.43   12.83
  -1   8  -1  239.23   13.95
  -1   8  -1  205.85   13.56
   1  -8   1  155.75   13.34
   1  -8   1  172.61   12.29
   1  -8   2    0.10    1.78
  -1   8  -2    1.49    2.39
   1  -8   2    0.31    2.18
  -1   8  -2    1.12    2.47
   1  -8   2    0.38    2.59
   1  -8   2    1.05    1.78
   1  -8   3  334.84   20.96
  -1   8  -3  358.99   21.65
   1  -8   3  311.73   20.35
   1  -8   3  392.28   21.41
   1  -8   3  326.04   19.63
   1  -8   4  590.14   33.00
   1  -8   4  665.35   35.07
   1  -8   4  544.00   33.49
   1  -8   4  595.15   34.01
   1  -8   5  661.74   36.85
  -1   8  -5  621.66   36.23
   1  -8   5  660.83   36.36
   1  -8   5  711.93   38.56
   1  -8   5  633.41   36.90
   1  -8   6   35.87    5.59
   1  -8   6   41.30    4.84
  -1   8  -6   38.86    3.85
   1  -8   6   44.62    4.08
   1  -8   6   36.66    4.35
   1  -8   6   36.84    3.95
   1  -8   7  421.52   25.41
   1  -8   7  374.63   22.45
   1  -8   7  414.28   23.06
   1  -8   7  413.87   23.58
  -1   8  -7  385.64   22.82
  -1   8  -7  366.60   22.58
   1  -8   7  388.75   23.88
   1  -8   8    3.22    1.87
   1  -8   8    2.14    2.29
  -1   8  -8    1.43    2.01
  -1   8  -8    1.96    2.18
   1  -8   8    3.06    2.64
  -1   8  -9   51.52    5.04
   1  -8   9   45.40    4.98
  -1   8  -9   36.85    3.94
   1  -8   9   41.09    3.79
  -1   8 -10    1.60    1.84
  -1   8 -10    4.73    2.73
   1  -8  11  186.18   15.92
  -1   8 -11  215.52   14.21
  -1   8 -12  121.47    9.95
   1  -8  12  129.79   12.16
   1  -8  13   24.52    6.29
  -1   8 -13   24.32    4.52
   1  -8  14   22.01    6.31
  -1   8 -14   22.51    4.67
   1  -8  15   -0.78    5.31
   1  -7 -11    5.98    4.77
   1  -7 -10    5.82    3.93
   1  -7 -10    8.43    4.78
   1  -7  -9   12.22    4.33
   1  -7  -9   24.90    5.66
   1  -7  -8   10.50    3.85
   1  -7  -8   12.65    4.55
   1  -7  -7  145.02   11.60
   1  -7  -7  116.80   10.04
   1  -7  -6    4.28    2.74
  -1   7   6    5.81    3.34
  -1   7   6    2.45    1.29
   1  -7  -6    6.72    4.00
   1  -7  -5  308.04   18.87
   1  -7  -5  270.93   17.11
  -1   7   5  246.36   15.25
  -1   7   5  298.66   17.50
  -1   7   4  288.46   17.86
  -1   7   4  321.18   19.33
   1  -7  -4  363.23   21.67
   1  -7  -4  313.46   19.21
   1  -7  -4  332.94   20.72
  -1   7   3  126.75    7.79
   1  -7  -3  119.80    8.23
  -1   7   3  124.41    8.67
   1  -7  -2    1.22    2.84
   1  -7  -2   -0.47    1.71
  -1   7   2    0.33    1.84
  -1   7   2    0.86    2.28
   1  -7  -2   -1.00    1.48
   1  -7  -1  828.38   37.40
   1  -7  -1  536.69   38.44
  -1   7   1  680.23   37.93
   1  -7  -1  592.31   37.33
  -1   7   1  708.13   39.08
  -1   7   0  127.02    9.13
   1  -7   0  136.06    8.43
  -1   7   0  141.92    9.71
  -1   7  -1  105.69    8.30
   1  -7   1  119.55    8.14
   1  -7   1  126.08    7.62
  -1   7  -1  117.25    8.61
   1  -7   1  103.23    8.54
   1  -7   1   89.73    7.11
   1  -7   2   97.70    7.62
  -1   7  -2   93.58    7.68
   1  -7   2   85.30    6.02
  -1   7  -2   72.32    6.77
   1  -7   2   83.63    6.92
   1  -7   2   95.12    7.17
   1  -7   3  219.90   14.57
   1  -7   3  256.82   15.27
  -1   7  -3  244.33   16.09
   1  -7   3  260.97   15.65
   1  -7   3  227.05   13.91
   1  -7   4  339.12   20.30
   1  -7   4  380.73   21.75
   1  -7   4  357.08   19.76
  -1   7  -4  318.43   19.51
   1  -7   4  346.21   20.33
  -1   7  -4  343.71   21.84
   1  -7   5   92.25    7.38
  -1   7  -5   89.20    6.42
  -1   7  -5   89.99    6.70
   1  -7   5   96.17    7.14
   1  -7   5   95.69    6.52
   1  -7   5   85.29    6.61
   1  -7   5  108.12    8.65
   1  -7   6  173.05   11.26
   1  -7   6  188.82   11.60
  -1   7  -6  169.95   11.24
  -1   7  -6  189.23   11.52
   1  -7   6  197.37   12.58
   1  -7   6  183.41   12.08
   1  -7   6  198.81   13.86
   1  -7   7   77.61    6.81
  -1   7  -7   73.40    6.04
   1  -7   7   77.99    5.69
  -1   7  -7   73.95    5.67
   1  -7   7   82.20    6.29
   1  -7   7   90.96    8.49
   1  -7   8  323.42   19.08
  -1   7  -8  298.70   18.06
  -1   7  -8  330.10   19.01
   1  -7   8  303.01   18.00
   1  -7   8  332.97   19.84
   1  -7   9  372.63   22.06
  -1   7  -9  380.67   22.13
  -1   7  -9  408.69   23.38
   1  -7   9  425.31   23.61
  -1   7 -10  229.65   13.76
  -1   7 -10  245.35   15.29
   1  -7  10  227.36   13.75
  -1   7 -11   60.39    4.78
   1  -7  11   64.02    7.89
  -1   7 -11   61.73    6.24
   1  -7  12  130.60   11.88
  -1   7 -12  120.27    9.86
   1  -7  13   -0.67    4.61
  -1   7 -13    1.36    3.04
   1  -7  14    7.59    5.13
  -1   7 -14    5.43    3.58
   1  -7  15    1.76    4.97
   1  -6 -11   12.74    4.99
   1  -6 -11   13.32    4.72
   1  -6 -10   12.93    4.84
   1  -6 -10   11.28    4.12
   1  -6  -9   48.71    6.98
   1  -6  -9   43.04    6.01
   1  -6  -8   82.64    8.60
   1  -6  -8   74.75    7.54
  -1   6   7    4.25    1.29
   1  -6  -7    8.33    3.13
   1  -6  -7    7.87    4.07
  -1   6   6   65.73    6.00
  -1   6   6   54.28    4.00
   1  -6  -6   65.12    6.04
   1  -6  -5   58.62    6.84
  -1   6   5   59.00    4.18
  -1   6   5   77.33    5.96
   1  -6  -5   69.14    5.85
   1  -6  -5   48.80    4.31
  -1   6   4  163.48   10.26
  -1   6   4  185.25   11.58
   1  -6  -4  170.27   10.67
   1  -6  -4  179.87   13.37
   1  -6  -4  185.39   13.09
   1  -6  -4  173.27   11.51
   1  -6  -3   98.25    6.99
  -1   6   3  113.43    7.41
  -1   6   3   95.67    6.34
   1  -6  -2  432.41   25.00
  -1   6   2  453.11   25.65
   1  -6  -2  424.50   25.15
  -1   6   2  467.56   25.11
   1  -6  -1  261.04   15.86
  -1   6   1  306.57   16.44
  -1   6   1  308.26   17.76
  -1   6   0 1243.94   61.92
  -1   6   0 1243.63   62.35
   1  -6   0 1044.94   60.72
   1  -6   0 1052.17   62.12
   1  -6   1  959.52   54.46
   1  -6   1 1009.72   55.34
   1  -6   1 1095.92   54.79
  -1   6  -1  865.07   55.53
   1  -6   1 1119.01   56.24
  -1   6  -1 1025.40   55.86
   1  -6   2  231.66   13.84
  -1   6  -2  208.41   14.04
   1  -6   2  248.25   13.93
   1  -6   2  218.12   13.43
   1  -6   2  212.69   12.38
   1  -6   3    6.61    2.07
   1  -6   3    7.06    2.59
  -1   6  -3    6.94    2.25
   1  -6   3    6.24    1.53
  -1   6  -3    4.53    1.45
   1  -6   3    5.73    2.01
  -1   6  -4 1014.96   57.14
   1  -6   4 1058.33   57.68
   1  -6   4 1077.60   57.94
   1  -6   4 1094.44   57.31
  -1   6  -4 1029.23   57.45
   1  -6   4 1128.18   59.31
  -1   6  -5  473.50   27.47
   1  -6   5  458.09   27.47
  -1   6  -5  525.69   30.10
   1  -6   5  519.66   29.77
   1  -6   5  517.89   28.61
  -1   6  -5  497.00   27.52
   1  -6   5  496.75   27.62
   1  -6   5  510.41   28.21
  -1   6  -6    7.19    1.85
  -1   6  -6    6.73    1.83
   1  -6   6    8.02    2.31
   1  -6   6    9.62    2.09
   1  -6   6    8.80    1.72
   1  -6   6    8.56    3.70
   1  -6   7  106.51    7.32
   1  -6   7  117.07    8.07
   1  -6   7  121.30    8.75
  -1   6  -7  112.35    7.49
  -1   6  -7  122.59    8.11
   1  -6   8  313.42   18.45
   1  -6   8  342.05   19.58
  -1   6  -8  332.62   19.42
  -1   6  -8  322.47   18.47
   1  -6   8  302.74   21.52
   1  -6   9   45.01    4.80
   1  -6   9   37.51    6.53
   1  -6   9   40.63    3.69
  -1   6  -9   42.37    3.73
  -1   6  -9   44.51    4.64
  -1   6 -10   43.24    4.93
  -1   6 -10   42.09    3.71
  -1   6 -11   45.83    5.30
  -1   6 -11   49.83    4.05
   1  -6  11   47.44    6.67
   1  -6  12  102.95    9.72
  -1   6 -12   77.44    7.59
  -1   6 -13  124.57   10.67
   1  -6  13  154.18   12.56
   1  -6  14  151.93   12.66
  -1   6 -14  121.25   10.79
   1  -6  15    3.45    4.40
   1  -6  16   12.76    5.35
   1  -5 -12   -1.07    4.21
   1  -5 -12    3.34    3.78
   1  -5 -11   -3.03    3.92
   1  -5 -11   -4.28    4.26
   1  -5 -10   86.89    9.08
   1  -5 -10   92.33    8.80
   1  -5  -9  210.23   15.42
   1  -5  -9  235.97   16.41
   1  -5  -8  292.22   19.00
  -1   5   7   45.20    5.06
   1  -5  -7   47.39    5.31
   1  -5  -6   74.96    6.18
   1  -5  -6   69.43    6.85
  -1   5   6   80.56    6.14
  -1   5   5   91.13    6.40
   1  -5  -5   82.71    6.42
   1  -5  -5   72.60    7.06
   1  -5  -5   65.94    5.12
   1  -5  -4  141.56   10.80
   1  -5  -4  142.51    8.69
  -1   5   4  137.50    9.23
   1  -5  -4  131.18    9.27
  -1   5   3  525.80   26.02
  -1   5   3  570.56   26.81
   1  -5  -3  572.97   26.86
   1  -5  -2  118.09    7.84
   1  -5  -2  125.07    7.87
  -1   5   2  116.03    7.68
  -1   5   2  129.23    8.14
   1  -5  -1  420.35   24.05
  -1   5   1  447.27   24.59
  -1   5   1  456.59   24.41
   1  -5  -1  397.61   25.31
  -1   5   0  382.51   19.80
   1  -5   0  391.72   20.54
   1  -5   1  135.16    8.10
   1  -5   1  150.51    9.28
  -1   5  -1  136.66    9.18
   1  -5   1  124.44    7.76
   1  -5   1  116.27    8.56
   1  -5   2  124.52    8.86
   1  -5   2  146.27    8.72
   1  -5   2  129.81    8.45
   1  -5   2  131.10    7.63
  -1   5  -2  116.19    7.59
   1  -5   3  578.89   31.74
   1  -5   3  576.73   32.66
  -1   5  -3  535.53   30.92
   1  -5   3  593.17   31.06
   1  -5   3  585.19   31.61
  -1   5  -3  559.43   31.38
   1  -5   4 1592.78   86.31
   1  -5   4 1540.36   86.41
  -1   5  -4 1592.53   86.26
  -1   5  -4 1662.19   88.63
   1  -5   4 1677.70   87.20
   1  -5   4 1716.87   87.03
  -1   5  -4 1625.03   86.46
   1  -5   4 1540.29   88.06
   1  -5   5 1388.78   77.81
   1  -5   5 1496.59   78.10
   1  -5   5 1417.77   79.96
  -1   5  -5 1438.35   77.83
   1  -5   5 1542.52   78.91
  -1   5  -5 1450.98   77.98
  -1   5  -5 1437.25   80.22
   1  -5   6  650.70   37.27
   1  -5   6  717.76   38.55
  -1   5  -6  702.15   37.85
   1  -5   6  701.90   37.88
  -1   5  -6  672.63   37.33
   1  -5   7    7.62    1.72
  -1   5  -7    7.74    1.74
   1  -5   7    8.75    2.16
   1  -5   7    8.87    3.94
  -1   5  -7    7.66    2.04
   1  -5   8    1.82    1.94
   1  -5   8    1.67    1.44
  -1   5  -8    1.00    1.44
  -1   5  -8    0.52    1.70
   1  -5   8    2.88    3.74
   1  -5   9  396.52   22.92
  -1   5  -9  406.74   22.83
  -1   5  -9  371.38   22.69
  -1   5  -9  386.80   21.46
  -1   5 -10  289.03   16.97
  -1   5 -10  270.52   15.31
  -1   5 -11   14.61    2.44
   1  -5  11   21.89    4.76
  -1   5 -11   17.04    3.50
  -1   5 -12   78.08    7.40
   1  -5  12   76.35    8.22
  -1   5 -13   92.77    8.82
   1  -5  13  108.85    9.95
  -1   5 -14   -1.80    3.32
   1  -5  14   -1.98    4.40
   1  -5  15   10.26    4.63
   1  -4 -12    0.29    3.73
   1  -4 -12    3.50    4.08
   1  -4 -11   64.24    7.34
   1  -4 -11   52.68    7.00
   1  -4 -10   38.97    5.56
   1  -4 -10   45.33    6.50
   1  -4  -9   89.60    8.14
   1  -4  -8   47.29    5.27
  -1   4   8   38.90    3.58
  -1   4   8   48.31    5.20
   1  -4  -7    7.73    3.55
   1  -4  -7    6.53    2.21
  -1   4   7    6.41    2.59
   1  -4  -7   11.84    2.88
   1  -4  -6    4.21    1.82
   1  -4  -6    8.21    2.90
  -1   4   6    6.70    2.28
   1  -4  -6    6.48    2.46
   1  -4  -5  232.88   14.58
   1  -4  -5  220.36   13.74
  -1   4   5  226.37   13.60
   1  -4  -5  208.67   12.84
  -1   4   4 1759.64  100.59
   1  -4  -4 1965.75  100.34
   1  -4  -4 1775.52  100.77
   1  -4  -4 2077.40  102.36
  -1   4   3  997.80   47.03
   1  -4  -3  997.00   47.17
   1  -4  -2  169.93   10.90
  -1   4   2  180.76   10.97
   1  -4  -1   92.87    5.98
  -1   4   1  102.01    6.40
   1  -4  -1  100.66    7.39
  -1   4   1   93.35    6.22
   1  -4   0   81.83    5.63
  -1   4   0   70.04    4.98
   1  -4   1  130.02    9.18
   1  -4   1  147.83    9.46
   1  -4   1  157.67    9.37
   1  -4   1  146.45    8.25
   1  -4   2  299.88   16.38
   1  -4   2  305.04   16.56
   1  -4   2  307.70   15.70
   1  -4   2  257.22   16.88
  -1   4  -2  258.65   15.58
  -1   4  -3  448.84   23.95
   1  -4   3  433.19   23.93
  -1   4  -3  447.42   25.66
   1  -4   3  462.27   24.40
   1  -4   3  447.60   23.67
  -1   4  -3  398.78   23.59
   1  -4   3  386.05   24.96
   1  -4   4  580.04   32.97
   1  -4   4  604.59   33.01
   1  -4   4  650.44   33.82
  -1   4  -4  585.72   34.90
  -1   4  -4  606.42   33.01
  -1   4  -4  636.81   33.05
   1  -4   4  533.64   34.41
   1  -4   5  448.47   25.80
  -1   4  -5  400.08   27.63
   1  -4   5  498.08   26.79
  -1   4  -5  479.67   26.13
  -1   4  -5  479.76   25.88
   1  -4   5  478.98   26.20
   1  -4   6   24.70    4.54
   1  -4   6   27.49    3.27
   1  -4   6   30.06    3.20
   1  -4   6   29.77    2.75
  -1   4  -6   27.44    2.79
  -1   4  -6   30.99    3.11
   1  -4   7   84.07    5.73
  -1   4  -7   76.04    6.14
   1  -4   7   63.23    7.54
   1  -4   7   81.02    6.36
  -1   4  -7   87.71    6.62
  -1   4  -7   95.41    5.87
  -1   4  -8   18.93    3.13
  -1   4  -8   23.22    3.06
   1  -4   8   20.80    3.23
  -1   4  -8   22.72    2.66
   1  -4   8   21.01    4.96
  -1   4  -9  777.54   39.75
  -1   4  -9  690.96   40.70
  -1   4  -9  713.05   40.76
   1  -4   9  758.03   41.14
  -1   4 -10  482.75   27.15
  -1   4 -10  473.61   28.49
   1  -4  10  434.28   30.27
   1  -4  11   93.36    8.38
  -1   4 -11   80.98    7.25
  -1   4 -11   76.73    5.83
  -1   4 -12    4.23    2.80
   1  -4  12    7.92    3.75
  -1   4 -13    3.54    3.24
   1  -4  13    6.73    4.02
  -1   4 -14   51.29    6.61
   1  -4  14   53.78    6.73
   1  -4  15   52.35    6.80
   1  -3 -13    2.98    4.15
   1  -3 -12  197.31   14.84
   1  -3 -12  220.57   15.74
   1  -3 -11   24.24    4.99
   1  -3 -11   23.59    4.77
  -1   3  10   14.02    4.18
   1  -3 -10   10.95    3.54
   1  -3  -9   90.61    8.10
  -1   3   9   89.87    6.14
   1  -3  -8    7.60    2.70
  -1   3   8    6.63    2.87
  -1   3   8    7.93    3.53
  -1   3   8   10.46    1.88
  -1   3   7   21.00    3.28
   1  -3  -7   17.33    3.13
  -1   3   7   16.68    1.81
  -1   3   7   12.82    2.81
   1  -3  -7   13.57    2.59
  -1   3   6  316.29   17.44
  -1   3   6  338.34   18.47
  -1   3   6  342.93   19.19
   1  -3  -6  273.94   18.31
   1  -3  -6  327.49   19.20
   1  -3  -6  348.21   19.76
   1  -3  -5  892.73   44.05
  -1   3   5  840.83   42.46
  -1   3   5  735.67   41.61
   1  -3  -5  806.39   42.67
  -1   3   5  838.96   43.24
   1  -3  -5  769.17   43.23
  -1   3   4  366.18   21.43
   1  -3  -4  443.16   23.22
   1  -3  -4  420.25   21.79
   1  -3  -4  373.52   21.98
  -1   3   4  367.58   21.92
   1  -3  -3   82.69    5.68
   1  -3  -3   78.96    6.63
  -1   3   3   93.92    5.79
   1  -3  -3   80.52    6.76
  -1   3   2    3.35    1.15
   1  -3  -2    1.61    1.10
   1  -3  -2    4.72    1.73
   1  -3  -1   27.13    3.23
   1  -3  -1   22.13    1.90
  -1   3   1   22.89    1.94
  -1   3   0  597.66   37.21
   1  -3   0  774.69   37.10
  -1   3   0  724.22   36.80
   1  -3   0  653.00   35.90
   1  -3   1 9999.00  493.54
  -1   3  -1 9850.93  493.58
   1  -3   1 9568.20  492.44
  -1   3  -1 9209.44  493.19
   1  -3   1 9736.00  493.61
  -1   3  -1 8650.67  492.46
   1  -3   1 9632.15  493.26
  -1   3  -2  406.49   22.20
   1  -3   2  376.68   21.80
   1  -3   2  364.46   20.58
  -1   3  -2  379.03   20.60
   1  -3   2  382.05   21.04
   1  -3   2  406.05   21.39
   1  -3   3   37.39    3.03
  -1   3  -3   42.84    3.13
   1  -3   3   36.95    4.10
  -1   3  -3   35.31    4.45
   1  -3   3   42.49    3.45
  -1   3  -3   37.12    2.87
   1  -3   3   36.28    2.89
  -1   3  -4    4.10    1.38
   1  -3   4    4.81    1.70
   1  -3   4    5.43    1.25
   1  -3   4    4.51    1.40
  -1   3  -4    4.54    2.84
  -1   3  -4    4.48    1.51
   1  -3   5  187.03   11.25
  -1   3  -5  149.91   11.94
  -1   3  -5  172.48   10.71
   1  -3   5  186.68   10.57
   1  -3   5  151.95   11.91
   1  -3   5  174.09   10.82
  -1   3  -5  176.94   11.07
  -1   3  -5  192.30   10.63
   1  -3   6  126.32   10.75
  -1   3  -6  150.06    9.59
  -1   3  -6  152.44    9.85
   1  -3   6  155.03    9.23
  -1   3  -6  163.29    9.35
   1  -3   6  138.35    9.58
   1  -3   7  428.77   25.25
  -1   3  -7  434.84   25.21
  -1   3  -7  420.09   25.03
  -1   3  -7  489.77   24.67
   1  -3   7  371.98   26.35
   1  -3   8  676.51   38.23
  -1   3  -8  657.99   38.01
   1  -3   8  625.97   39.51
  -1   3  -8  650.71   37.98
  -1   3  -8  728.93   37.36
   1  -3   9  186.47   14.34
   1  -3   9  188.95   12.98
  -1   3  -9  202.40   11.93
  -1   3  -9  190.01   12.74
  -1   3  -9  197.66   12.91
  -1   3 -10  149.72    9.80
   1  -3  10  178.67   11.93
  -1   3 -10  143.11   10.96
   1  -3  10  162.97   12.84
   1  -3  11   14.50    3.87
   1  -3  11   17.52    5.00
  -1   3 -11   10.19    2.40
  -1   3 -11   15.88    3.46
  -1   3 -12   19.00    4.01
   1  -3  12   18.52    4.18
   1  -3  13   -3.99    4.42
  -1   3 -13   -1.21    3.20
   1  -3  13   -1.28    3.80
  -1   3 -14  177.40   14.04
   1  -3  14  189.53   13.57
   1  -3  14  189.33   14.93
   1  -2 -13  127.93   11.33
   1  -2 -12   12.75    4.31
   1  -2 -12   11.19    4.02
  -1   2  11   -2.21    7.31
   1  -2 -11    0.92    2.88
   1  -2 -11   -0.41    3.34
   1  -2 -10   19.30    3.88
  -1   2  10   17.61    3.08
  -1   2  10   29.23    8.95
  -1   2   9   21.43    9.00
   1  -2  -9   26.72    4.00
  -1   2   9   20.21    3.15
   1  -2  -8   82.42    7.16
  -1   2   8   80.10    9.26
  -1   2   8   93.20    7.28
  -1   2   8   86.63    6.27
  -1   2   7 1590.04   72.66
   1  -2  -7 1561.78   73.81
  -1   2   7 1566.34   73.70
   1  -2  -6   25.80    3.13
   1  -2  -6   28.06    3.33
  -1   2   6   25.86    3.16
  -1   2   6   28.79    2.65
   1  -2  -6   26.09    3.42
   1  -2  -5  179.26   10.44
   1  -2  -5  161.07    9.55
  -1   2   5  171.29    9.10
   1  -2  -5  154.92    9.86
  -1   2   5  163.09    9.86
   1  -2  -4  119.57    7.46
   1  -2  -4  101.96    6.71
   1  -2  -4   95.71    7.32
  -1   2   4  100.79    5.95
  -1   2   4  108.77    6.73
   1  -2  -4  116.95    6.65
  -1   2   3   45.05    3.57
   1  -2  -3   52.13    3.65
   1  -2  -3   42.34    3.37
  -1   2   3   41.06    2.78
   1  -2  -3   58.94    4.71
   1  -2  -3   44.01    4.16
  -1   2   3   43.63    3.32
  -1   2   2    2.38    1.14
  -1   2   2    1.18    0.95
   1  -2  -2    0.11    0.93
   1  -2  -2    2.90    1.02
   1  -2  -2    2.86    3.15
   1  -2  -1   31.07    2.54
  -1   2   1   36.63    2.49
   1  -2  -1   28.51    2.27
   1  -2  -1   21.37    1.40
  -1   2   0 1583.38   78.79
  -1   2   0 1342.93   79.21
   1  -2   0 1456.75   78.77
  -1   2  -1  382.75   20.73
  -1   2  -1  380.41   20.51
   1  -2   1  388.82   20.48
   1  -2   1  345.98   20.19
  -1   2  -1  358.23   20.20
   1  -2   2  379.90   19.13
   1  -2   2  372.08   19.72
  -1   2  -2  310.67   18.72
   1  -2   2  337.50   18.81
  -1   2  -2  381.45   19.95
  -1   2  -3   45.65    4.72
  -1   2  -3   37.04    3.25
   1  -2   3   47.93    3.46
   1  -2   3   42.72    3.37
   1  -2   3   52.39    3.80
  -1   2  -3   53.87    3.61
   1  -2   4    3.69    2.38
  -1   2  -4    5.30    1.55
  -1   2  -4    2.11    2.51
   1  -2   4    3.24    1.43
  -1   2  -4    2.96    1.64
   1  -2   4    4.11    1.48
  -1   2  -5   78.80    5.18
  -1   2  -5   68.87    6.35
   1  -2   5   74.64    5.46
   1  -2   5   71.50    6.32
  -1   2  -5   72.73    5.49
  -1   2  -6 3423.18  174.78
   1  -2   6 3104.32  176.27
   1  -2   6 3283.34  175.40
  -1   2  -6 3208.65  175.28
  -1   2  -7   17.62    2.69
  -1   2  -7   16.56    2.26
   1  -2   7   15.95    2.67
   1  -2   7   21.10    4.01
  -1   2  -8    2.83    1.61
  -1   2  -8    4.17    2.00
   1  -2   8    2.34    2.20
   1  -2   9    2.32    3.36
   1  -2   9    0.16    2.23
  -1   2  -9    0.51    1.54
   1  -2   9   -1.25    2.39
  -1   2  -9   -0.14    1.95
   1  -2  10   59.94    5.95
   1  -2  10   57.31    6.82
  -1   2 -10   53.80    4.57
   1  -2  11    1.15    3.75
  -1   2 -11    1.15    1.95
   1  -2  11    0.18    2.73
   1  -2  12   23.72    4.07
   1  -2  12   24.07    4.63
   1  -2  12   23.52    5.18
   1  -2  13  182.54   12.70
   1  -2  13  174.86   14.04
   1  -2  14   32.12    6.68
   1  -1 -13   13.33    4.38
   1  -1 -12   15.95    3.86
  -1   1  12   24.48    6.09
   1  -1 -12   19.40    4.23
  -1   1  11    5.12    4.15
  -1   1  11   -0.98    3.19
   1  -1 -11    2.37    2.82
   1  -1 -11    2.76    3.07
   1  -1 -10    3.83    2.69
  -1   1  10    3.28    3.08
  -1   1  10    3.70    3.15
   1  -1  -9   51.22    5.46
  -1   1   9   50.65    5.29
  -1   1   9   50.78    5.33
  -1   1   9   55.59    5.06
  -1   1   8 1278.52   69.46
  -1   1   8 1220.09   69.22
  -1   1   8 1326.94   68.76
   1  -1  -8 1220.65   69.47
  -1   1   7   21.58    3.73
  -1   1   7   15.26    2.27
   1  -1  -7   13.14    2.78
  -1   1   7   19.88    2.95
   1  -1  -7   15.19    2.64
  -1   1   7   14.58    2.81
   1  -1  -6    5.40    2.03
  -1   1   6    5.00    2.09
  -1   1   6    5.35    1.93
  -1   1   6    2.54    1.70
  -1   1   6    9.64    2.94
   1  -1  -6    2.74    1.60
  -1   1   5   48.81    4.01
   1  -1  -5   45.08    5.13
  -1   1   5   56.10    4.93
  -1   1   5   49.98    4.28
   1  -1  -5   46.86    4.34
   1  -1  -5   45.79    3.97
  -1   1   5   36.37    3.94
   1  -1  -4    7.19    2.10
   1  -1  -4    6.07    1.62
   1  -1  -4    5.90    1.87
  -1   1   4    5.53    1.56
  -1   1   4    5.04    1.49
   1  -1  -4    4.32    1.49
  -1   1   4    4.46    1.73
  -1   1   3  923.44   46.81
  -1   1   3  839.61   46.89
   1  -1  -3 1014.65   47.17
   1  -1  -3  876.97   46.95
   1  -1  -3  902.80   47.14
   1  -1  -3 1028.43   47.64
  -1   1   2 7558.37  390.87
   1  -1  -2 7269.29  390.91
   1  -1  -2 7159.61  391.09
  -1   1   2 7835.22  391.19
   1  -1  -2 6951.83  391.71
   1  -1  -1  113.30    7.12
   1  -1  -1  109.84    6.25
  -1   1   1  113.44    6.55
   1  -1   0  175.90    4.58
  -1   1   0  198.35    4.64
   1  -1   0  201.32    3.83
   1  -1   1  110.54    5.25
   1  -1   1  112.51    4.92
   1  -1   2  142.36    8.35
   1  -1   2  147.31    8.49
  -1   1  -2  137.22    8.81
   1  -1   3    2.21    1.38
  -1   1  -3    2.86    2.40
  -1   1  -3    0.59    1.29
   1  -1   3    0.44    1.71
   1  -1   3    1.44    1.30
  -1   1  -4   90.82    5.97
   1  -1   4   91.83    6.43
  -1   1  -4   87.71    5.70
   1  -1   4   85.46    5.99
  -1   1  -4   82.95    6.72
   1  -1   5 1724.45   90.43
  -1   1  -5 1646.59   89.41
  -1   1  -5 1638.24   89.81
   1  -1   5 1706.19   89.99
   1  -1   6  235.75   13.71
  -1   1  -6  201.23   12.28
  -1   1  -6  200.28   12.71
   1  -1   6  214.69   13.04
   1  -1   7    8.55    2.66
  -1   1  -7    7.94    1.77
   1  -1   7   10.85    2.49
  -1   1  -7   11.57    2.27
  -1   1  -8  122.37    8.53
   1  -1   8  153.56   10.31
   1  -1   8  158.18    9.71
   1  -1   8  139.42    9.77
  -1   1  -8  125.12    9.21
  -1   1  -9    0.71    1.63
   1  -1   9   -0.17    3.02
   1  -1   9    2.31    2.11
  -1   1  -9    0.14    1.91
   1  -1  10   81.93    6.47
   1  -1  10   78.95    7.00
  -1   1 -10   59.66    5.28
   1  -1  10   68.47    6.81
   1  -1  11  748.54   38.01
  -1   1 -11  564.55   35.79
   1  -1  11  703.11   38.37
   1  -1  11  725.76   37.07
  -1   1 -11  584.25   37.60
  -1   1 -12    4.14    3.42
   1  -1  12    3.21    3.50
   1  -1  12    4.44    2.65
  -1   1 -13    7.01    3.88
   1  -1  13    5.79    4.04
   1  -1  14   -3.41    5.17
   1   0 -14    4.35    3.87
   1   0 -13   18.03    4.52
  -1   0  13   25.82    4.64
   1   0 -12   45.54    5.08
  -1   0  12   50.38    6.31
   1   0 -12   54.63    6.30
  -1   0  12   52.62    5.50
  -1   0  11  264.37   17.75
  -1   0  11  286.78   16.67
   1   0 -11  264.99   17.48
   1   0 -11  241.75   16.19
   1   0 -10  477.42   29.38
  -1   0  10  511.42   30.22
  -1   0  10  503.38   28.64
   1   0  -9   16.79    3.05
  -1   0   9   18.64    3.89
  -1   0   9    7.84    3.24
  -1   0   9   17.78    3.28
  -1   0   8  130.93    9.23
  -1   0   8  131.86    8.87
   1   0  -8  123.36    9.21
  -1   0   8  138.38    9.79
  -1   0   7   46.99    4.54
  -1   0   7   58.68    4.46
  -1   0   7   50.80    4.85
   1   0  -7   53.03    4.85
   1   0  -7   49.14    4.60
  -1   0   6    0.64    1.38
   1   0  -6    1.75    1.81
   1   0  -6    2.17    1.64
  -1   0   6    0.11    1.71
  -1   0   5    4.07    1.72
  -1   0   5    3.95    2.44
  -1   0   5    5.17    1.58
   1   0  -5    5.11    1.60
   1   0  -5    6.30    1.62
   1   0  -5    4.52    1.80
  -1   0   4   13.99    2.14
   1   0  -4   13.11    1.95
  -1   0   4   14.16    1.88
   1   0  -4   22.40    1.90
   1   0  -4   14.43    2.13
  -1   0   4   15.05    2.72
   1   0  -4   11.70    1.99
   1   0  -3 5506.67  289.99
  -1   0   3 5398.39  290.15
  -1   0   3 6326.14  290.49
   1   0  -3 5280.66  289.50
   1   0  -3 5317.43  289.91
   1   0  -2   31.46    2.53
  -1   0   2   34.06    3.00
  -1   0   2   34.16    2.35
   1   0  -2   35.56    2.75
   1   0  -2   38.40    3.11
   1   0  -1   37.05    1.88
   1   0  -1   40.20    2.13
  -1   0   1   38.35    2.07
   1   0  -1   32.69    3.00
   1   0   0    1.23    1.03
  -1   0   0   -0.23    0.80
   1   0   0    1.99    1.09
  -1   0   0    2.21    0.85
  -1   0   0    1.94    1.01
   1   0   1  295.48   10.79
   1   0   1  295.52   10.63
   1   0   2 2573.46  134.19
  -1   0  -2 2515.08  133.92
  -1   0  -2 2480.47  134.10
   1   0   3 4058.68  203.71
  -1   0  -3 3868.33  203.33
   1   0   3 4156.63  203.39
  -1   0  -3 3749.11  203.62
  -1   0  -4  510.54   28.28
  -1   0  -4  466.70   27.76
  -1   0  -4  484.86   28.33
   1   0   4  506.89   28.21
   1   0   4  559.32   28.03
   1   0   5  355.12   19.86
   1   0   5  339.84   20.09
  -1   0  -5  340.85   20.19
  -1   0  -6    2.96    1.90
   1   0   6    2.87    1.91
   1   0   6    2.77    1.81
   1   0   7   40.18    3.94
  -1   0  -7   29.32    3.12
   1   0   7   36.78    3.53
   1   0   7   32.94    4.01
  -1   0  -7   34.67    3.98
   1   0   8    2.61    2.15
   1   0   8    4.00    2.26
   1   0   8    3.64    1.92
  -1   0  -8    3.61    1.78
   1   0   8    6.08    2.65
  -1   0  -8    5.13    2.45
   1   0   9   18.24    3.18
  -1   0  -9   11.76    3.08
   1   0   9   12.64    2.64
   1   0   9   15.30    3.63
  -1   0  -9   11.08    2.43
  -1   0  -9   10.21    2.84
  -1   0 -10  436.64   25.69
   1   0  10  440.25   24.12
   1   0  10  470.65   24.75
   1   0  10  424.26   25.58
  -1   0 -11    5.29    2.36
   1   0  11    5.01    3.41
   1   0  11    6.49    2.49
  -1   0 -11    6.48    3.30
   1   0  12   -1.80    4.65
  -1   0 -12   -0.26    3.12
  -1   0 -13   33.00    5.81
   1   0  13   34.07    6.41
   1   1 -14    3.40    3.76
  -1  -1  14    3.28    4.49
   1   1 -13   -0.25    3.13
  -1  -1  13   -5.46    4.34
  -1  -1  13   -0.60    4.62
  -1  -1  12   98.81    9.20
  -1  -1  12   86.31    7.58
   1   1 -12   87.95    8.35
  -1  -1  12   94.64    9.71
   1   1 -12   89.33    6.50
   1   1 -11  447.98   26.12
   1   1 -11  394.97   23.43
  -1  -1  11  491.21   25.54
   1   1 -11  412.61   24.06
  -1  -1  11  465.24   26.72
  -1  -1  10  126.11    9.82
  -1  -1  10  125.24    8.92
   1   1 -10  124.30    9.39
   1   1 -10  114.35    7.94
  -1  -1   9  165.11   11.51
  -1  -1   9  167.00   10.93
   1   1  -9  159.37   10.12
   1   1  -9  168.95   11.39
  -1  -1   8   19.65    2.84
   1   1  -8   20.70    2.41
  -1  -1   8   16.99    2.96
   1   1  -8   16.68    2.98
   1   1  -7  476.85   24.94
  -1  -1   7  450.66   25.81
   1   1  -7  436.79   25.94
  -1  -1   7  429.13   26.00
   1   1  -7  444.27   26.22
  -1  -1   6 1337.98   70.35
  -1  -1   6 1270.52   70.45
   1   1  -6 1319.22   70.67
   1   1  -6 1300.22   69.29
   1   1  -6 1267.57   70.42
   1   1  -5 1186.54   61.73
  -1  -1   5 1160.52   62.70
   1   1  -5 1173.87   62.99
   1   1  -5 1153.76   62.79
  -1  -1   5 1071.78   62.67
  -1  -1   4  224.26   15.06
   1   1  -4  249.99   14.43
   1   1  -4  265.11   14.36
   1   1  -4  244.83   13.33
  -1  -1   4  251.35   14.23
   1   1  -3  879.56   43.11
  -1  -1   3  779.08   43.81
  -1  -1   3  776.91   43.62
   1   1  -3  779.17   43.80
  -1  -1   3  802.09   43.06
  -1  -1   3  777.48   43.69
   1   1  -3  762.61   43.73
   1   1  -2    1.77    1.21
  -1  -1   2    2.42    0.86
  -1  -1   2    1.89    1.09
  -1  -1   2    1.56    0.76
   1   1  -2    1.19    0.80
  -1  -1   2    2.11    1.78
   1   1  -2    2.52    1.27
  -1  -1   2    2.48    1.12
  -1  -1   1   59.04    6.30
  -1  -1   1  153.08    7.09
  -1  -1   1   81.71    6.21
   1   1  -1  158.62    7.13
   1   1  -1  142.56    6.68
   1   1  -1  138.35    7.00
  -1  -1   1  155.66    6.88
  -1  -1   0    5.79    1.98
  -1  -1   0    1.28    2.50
   1   1   0    5.17    1.23
  -1  -1  -1  663.40   36.78
  -1  -1  -1  693.95   37.68
   1   1   1  709.72   37.79
   1   1   1  724.05   37.20
  -1  -1  -2 4035.96  225.57
  -1  -1  -2 4586.98  226.40
   1   1   2 4419.10  226.35
  -1  -1  -3  114.48    7.37
   1   1   3  115.76    7.79
  -1  -1  -3  125.06    7.95
   1   1   4    8.92    1.38
  -1  -1  -4    8.90    2.24
   1   1   4    8.47    2.07
   1   1   5   67.76    5.61
   1   1   5   71.50    5.40
  -1  -1  -5   71.86    5.90
   1   1   5   70.37    4.79
   1   1   6  109.17    6.73
   1   1   6  102.89    6.64
   1   1   6   88.98    7.41
  -1  -1  -6  106.96    7.84
   1   1   6  100.55    7.35
   1   1   7  962.21   50.08
   1   1   7  922.48   51.14
  -1  -1  -7  886.66   51.52
   1   1   7  828.01   51.24
   1   1   7  951.74   50.20
   1   1   8  484.46   29.14
  -1  -1  -8  488.57   29.54
   1   1   8  516.11   27.82
   1   1   8  517.92   28.04
   1   1   8  457.93   29.12
   1   1   9  165.07   10.41
  -1  -1  -9  156.40   12.18
   1   1   9  175.58   10.77
   1   1   9  180.40   12.34
   1   1  10   28.07    4.83
   1   1  10   29.39    3.28
  -1  -1 -10   25.54    3.67
   1   1  10   29.38    3.39
  -1  -1 -10   27.77    4.69
  -1  -1 -11    5.77    3.34
   1   1  11    6.74    2.28
   1   1  11    7.04    3.91
  -1  -1 -12    9.63    4.18
   1   1  12   12.93    4.89
  -1  -1 -13   -2.13    4.08
   1   1  13    9.27    6.59
  -1  -2  14  112.75   10.74
   1   2 -14  103.30    9.71
  -1  -2  14  100.77    9.16
  -1  -2  13   61.67    7.56
   1   2 -13   62.97    7.04
  -1  -2  13   65.46    6.67
   1   2 -12   33.21    4.97
  -1  -2  12   39.82    5.91
   1   2 -12   34.85    2.99
  -1  -2  12   44.02    5.31
   1   2 -11  156.01    8.25
  -1  -2  11  146.03    8.41
  -1  -2  11  168.18    7.95
   1   2 -11  136.04    4.03
  -1  -2  10   37.17    4.33
   1   2 -10   26.08    2.16
  -1  -2  10   35.22    4.59
   1   2 -10   33.07    2.62
   1   2 -10   44.77    4.73
   1   2  -9   38.09    4.34
  -1  -2   9   37.55    4.26
   1   2  -9   36.59    2.48
  -1  -2   9   34.10    4.22
   1   2  -9   35.14    2.63
   1   2  -8   11.58    2.42
  -1  -2   8   15.25    2.77
   1   2  -8   11.27    1.16
   1   2  -8   11.89    1.22
  -1  -2   8   10.79    2.52
  -1  -2   8   13.62    2.66
  -1  -2   7  952.23   49.98
  -1  -2   7  899.34   49.90
   1   2  -7  883.65   49.84
  -1  -2   7  885.87   49.69
  -1  -2   6 1474.85   80.76
  -1  -2   6 1480.17   80.86
   1   2  -6 1535.47   81.17
   1   2  -6 1464.93   80.87
  -1  -2   6 1539.69   81.03
   1   2  -5  679.67   37.89
  -1  -2   5  686.42   37.80
   1   2  -5  702.55   38.22
   1   2  -4  242.88   14.68
   1   2  -4  265.30   14.94
  -1  -2   4  256.22   14.87
  -1  -2   4  253.04   14.65
  -1  -2   3  289.43   15.38
  -1  -2   3  230.87   16.82
   1   2  -3  287.23   16.31
  -1  -2   3  292.86   16.14
  -1  -2   3  294.50   16.40
   1   2  -3  284.88   16.18
  -1  -2   2 1133.67   59.78
   1   2  -2 1108.55   59.83
   1   2  -2 1158.23   60.39
   1   2  -2 1033.97   59.59
  -1  -2   2 1097.82   60.38
  -1  -2   2 1168.31   59.80
  -1  -2   1 2352.12  128.35
  -1  -2   1 2510.63  128.47
  -1  -2   1 2380.31  127.95
  -1  -2   0  626.05   36.09
   1   2   0  617.20   34.82
  -1  -2   0  716.94   35.20
   1   2   1  505.34   11.87
   1   2   1  494.15   14.85
  -1  -2  -1  489.82   14.42
   1   2   2  616.53    7.10
   1   2   2  683.40   11.94
  -1  -2  -2  669.39   11.32
  -1  -2  -3    7.38    1.24
  -1  -2  -3    9.52    2.38
   1   2   3   10.31    1.52
   1   2   3    8.64    2.30
   1   2   3    2.25    0.55
   1   2   4  127.98    8.85
   1   2   4  127.21    8.34
  -1  -2  -4  133.15    9.09
   1   2   5    0.84    0.82
   1   2   5    2.26    1.93
   1   2   5    1.45    1.51
  -1  -2  -5    0.56    1.83
   1   2   6  508.32   31.33
   1   2   6  542.66   29.67
   1   2   6  572.58   31.20
  -1  -2  -6  590.14   32.08
  -1  -2  -7  736.74   43.06
   1   2   7  790.20   42.59
   1   2   7  749.17   40.71
   1   2   8  136.24   10.11
   1   2   8  131.65    7.99
  -1  -2  -8  127.66   10.23
  -1  -2  -9   -0.22    2.78
   1   2   9    6.33    1.80
   1   2   9    3.96    3.88
  -1  -2 -10   25.33    4.90
   1   2  10   36.50    5.61
   1   2  10   29.39    3.01
  -1  -2 -11   23.55    5.09
   1   2  11   37.14    6.97
   1   2  12  217.24   16.00
  -1  -2 -12  161.76   14.26
   1   2  13   12.17    6.45
  -1  -3  15   34.44    6.63
   1   3 -14   28.14    5.29
  -1  -3  14   41.65    5.67
  -1  -3  14   43.72    6.48
   1   3 -13   23.11    4.33
  -1  -3  13   16.99    4.02
  -1  -3  13   17.31    4.55
   1   3 -12  122.41   10.22
  -1  -3  12  134.82   10.45
  -1  -3  12  135.24   10.83
  -1  -3  11  195.73   13.88
  -1  -3  11  206.79   13.73
   1   3 -11  187.16   13.49
  -1  -3  10  415.28   25.05
  -1  -3  10  436.48   25.08
   1   3 -10  391.41   24.70
  -1  -3   9  308.47   19.71
  -1  -3   9  349.94   20.27
  -1  -3   9  334.84   20.16
   1   3  -9  324.13   19.95
  -1  -3   8  147.72   10.21
   1   3  -8  152.59   10.41
  -1  -3   8  163.42   10.74
  -1  -3   7  155.65   10.57
  -1  -3   7  147.45    9.98
   1   3  -7  158.11   10.19
   1   3  -6  983.29   52.37
  -1  -3   6  931.13   52.18
  -1  -3   5   25.77    3.38
   1   3  -5   26.31    3.35
  -1  -3   5   27.86    3.02
   1   3  -5   28.41    3.00
   1   3  -4   24.85    2.66
   1   3  -4   23.40    2.77
  -1  -3   4   15.30    3.99
   1   3  -4   20.52    2.17
  -1  -3   4   24.12    2.97
  -1  -3   4   22.95    2.59
  -1  -3   3  394.51   20.53
  -1  -3   3  375.17   20.67
   1   3  -3  359.54   19.90
   1   3  -3  360.25   20.46
   1   3  -2 2257.47  117.23
  -1  -3   2 2445.37  117.28
  -1  -3   2 2315.19  117.05
  -1  -3   1  993.98   55.14
  -1  -3   1 1035.96   53.79
  -1  -3   1 1064.72   53.88
  -1  -3   1  874.01   54.83
  -1  -3   1  978.12   54.44
   1   3  -1  967.31   54.31
  -1  -3   0 1312.81   70.80
  -1  -3   0 1317.28   71.68
  -1  -3   0 1468.99   70.07
   1   3   0 1306.55   70.64
  -1  -3   0 1264.39   70.25
   1   3   0 1193.55   70.14
  -1  -3  -1  243.29    4.16
   1   3   1  275.03    5.52
   1   3   1  247.76    8.61
  -1  -3  -1  233.81    7.60
  -1  -3  -2  450.43   27.52
   1   3   2  497.76   26.48
  -1  -3  -3  663.77   39.09
   1   3   3  717.57   38.32
  -1  -3  -4  821.50   50.22
   1   3   4  970.22   49.76
  -1  -3  -5   12.57    2.95
   1   3   5   12.53    2.59
  -1  -3  -6  166.31   12.23
   1   3   6  183.15   11.95
  -1  -3  -7  148.82   11.27
   1   3   7  150.91   11.01
  -1  -3  -8   -0.44    2.72
   1   3   8    4.71    3.58
   1   3   9   44.26    6.54
  -1  -3  -9   24.82    4.87
   1   3  10    4.88    4.10
  -1  -3 -10    2.68    3.42
  -1  -3 -11  122.42   11.12
  -1  -3 -12   54.40    7.45
  -1  -4  16    6.18    4.69
   1   4 -15    0.83    3.65
  -1  -4  15    5.10    4.14
   1   4 -14  108.24   10.17
  -1  -4  14  134.62   10.75
  -1  -4  14  128.89   11.18
  -1  -4  13   65.56    7.45
   1   4 -13   61.72    6.90
  -1  -4  13   70.99    7.30
  -1  -4  12    2.05    3.40
  -1  -4  12    4.65    3.61
   1   4 -12    1.46    2.84
  -1  -4  11  169.49   12.69
   1   4 -11  174.37   12.48
  -1  -4  11  186.18   12.93
  -1  -4  10  552.84   30.44
   1   4 -10  457.12   28.99
  -1  -4  10  541.53   30.23
   1   4 -10  506.85   29.72
  -1  -4   9   49.89    5.17
   1   4  -9   54.94    4.87
  -1  -4   9   58.57    5.83
   1   4  -9   52.50    5.24
   1   4  -8  143.77    9.77
  -1  -4   8  164.60   11.02
  -1  -4   8  156.65   10.19
   1   4  -8  139.79   10.11
   1   4  -7  168.11   10.53
  -1  -4   7  165.46   10.79
   1   4  -7  165.23   10.90
  -1  -4   6 1381.03   71.17
  -1  -4   6 1313.68   70.26
   1   4  -6 1240.91   69.85
   1   4  -6 1282.87   70.29
   1   4  -5  541.93   31.51
  -1  -4   5  573.82   32.64
   1   4  -5  509.71   31.79
  -1  -4   5  563.78   31.93
  -1  -4   5  611.76   30.82
  -1  -4   4 1336.43   70.06
   1   4  -4 1303.84   69.54
  -1  -4   4 1300.67   70.58
  -1  -4   4 1177.25   71.71
  -1  -4   3    8.52    2.06
  -1  -4   3    8.41    3.25
  -1  -4   3    5.90    1.96
  -1  -4   2  212.01   11.88
  -1  -4   2  231.59   13.20
  -1  -4   2  210.84   12.79
  -1  -4   2  219.44   11.98
  -1  -4   2  183.25   13.38
   1   4  -1  977.77   52.23
  -1  -4   1 1053.86   51.84
  -1  -4   0   49.75    4.09
   1   4   0   49.20    3.97
   1   4   0   50.16    3.63
  -1  -4   0   54.01    5.03
  -1  -4   0   45.62    3.57
  -1  -4  -1   28.20    3.93
  -1  -4  -1   38.21    2.61
  -1  -4  -1   30.85    2.73
   1   4   1   31.38    3.13
  -1  -4  -2  193.45   13.12
  -1  -4  -2  193.04   11.89
   1   4   2  215.81   11.85
  -1  -4  -3 1263.17   70.60
   1   4   3 1290.97   68.86
  -1  -4  -4   33.68    4.37
   1   4   4   34.46    2.91
  -1  -4  -5  442.69   26.44
   1   4   5  432.69   26.05
   1   4   6   27.08    4.35
  -1  -4  -6   28.88    4.42
  -1  -4  -7  174.55   13.01
  -1  -4  -8  116.26   10.04
  -1  -4  -9   90.82    8.95
  -1  -4 -10   20.53    5.14
  -1  -4 -11   13.80    5.11
  -1  -5  16    6.08    4.66
  -1  -5  15    0.93    4.59
  -1  -5  15    3.62    4.25
   1   5 -15    2.17    3.63
  -1  -5  14  170.14   13.08
  -1  -5  14  166.81   13.14
   1   5 -14  142.78   12.14
  -1  -5  13  211.92   14.91
  -1  -5  13  225.66   15.32
  -1  -5  12   42.34    5.88
  -1  -5  12   26.56    5.16
  -1  -5  11    3.17    3.31
  -1  -5  10    1.95    3.03
   1   5 -10    3.54    2.19
   1   5  -9  362.62   22.36
  -1  -5   9  405.01   23.98
  -1  -5   9  388.62   22.82
   1   5  -8  286.29   17.37
  -1  -5   8  293.83   17.69
  -1  -5   7  211.17   13.85
   1   5  -7  198.24   12.45
  -1  -5   7  196.78   12.74
   1   5  -6 1241.46   65.82
  -1  -5   6 1285.22   67.42
  -1  -5   6 1183.02   64.66
  -1  -5   6 1244.29   66.21
   1   5  -5  812.18   42.90
  -1  -5   5  731.01   42.55
  -1  -5   5  810.78   45.78
  -1  -5   5  792.57   44.40
  -1  -5   5  818.51   43.39
  -1  -5   4    5.76    2.02
  -1  -5   4    3.66    3.91
  -1  -5   4    3.18    2.40
  -1  -5   3  329.05   19.81
  -1  -5   3  307.58   17.25
  -1  -5   3  267.24   18.28
  -1  -5   3  315.97   17.38
  -1  -5   3  328.05   18.41
  -1  -5   2   69.50    5.71
  -1  -5   2   55.93    4.98
  -1  -5   2   66.26    6.02
  -1  -5   2   64.59    4.28
  -1  -5   1 1773.82   98.38
   1   5  -1 1788.58   97.07
  -1  -5   1 1765.99   97.67
  -1  -5   0  345.85   22.28
   1   5   0  382.62   22.08
   1   5   0  413.71   21.81
  -1  -5   0  362.07   21.70
  -1  -5  -1  320.45   18.10
  -1  -5  -1  328.54   18.25
   1   5   1  314.57   18.61
  -1  -5  -1  341.97   18.74
  -1  -5  -1  346.43   20.22
  -1  -5  -2   29.47    4.30
   1   5   2   39.87    5.11
  -1  -5  -2   37.27    3.34
   1   5   2   38.50    3.17
   1   5   3   23.36    4.07
  -1  -5  -3   26.00    2.98
   1   5   3   29.25    2.60
  -1  -5  -3   25.58    3.90
  -1  -5  -4  357.07   21.94
   1   5   4  363.68   21.93
   1   5   4  345.12   19.63
   1   5   5   31.99    2.94
   1   5   5   32.72    4.88
  -1  -5  -5   22.36    4.22
   1   5   6   39.13    3.58
  -1  -5  -6   31.12    5.07
   1   5   7  109.10    7.00
  -1  -5  -7   95.24    9.39
   1   5   8  204.33   11.97
  -1  -5  -8  189.39   14.80
  -1  -5  -9    8.15    4.03
  -1  -5 -10   80.26    8.89
  -1  -6  16   30.20    6.39
  -1  -6  15  122.13   11.69
  -1  -6  15  134.16   11.90
  -1  -6  14   90.46    9.37
  -1  -6  14   82.59    8.81
  -1  -6  13   74.91    7.88
  -1  -6  13   73.74    8.26
  -1  -6  12    1.05    3.84
  -1  -6  11   78.55    8.23
  -1  -6  10    0.73    4.13
   1   6 -10    2.96    2.29
   1   6  -9  902.33   50.62
  -1  -6   9  922.65   51.05
   1   6  -8  219.77   14.12
  -1  -6   8  226.20   14.47
  -1  -6   8  237.86   15.94
   1   6  -7  117.01    7.89
  -1  -6   7  110.00    9.18
  -1  -6   7  123.53    8.37
  -1  -6   7  104.06    6.39
  -1  -6   6   92.19    6.95
  -1  -6   6   91.39    6.05
  -1  -6   6   84.74    7.81
   1   6  -5   23.86    3.49
  -1  -6   5   36.70    6.03
  -1  -6   5   34.89    3.64
  -1  -6   5   26.92    3.30
  -1  -6   5   24.57    4.21
  -1  -6   4  696.68   38.39
  -1  -6   4  692.61   37.60
   1   6  -4  679.18   38.44
  -1  -6   4  593.55   38.71
  -1  -6   4  681.67   37.39
  -1  -6   3  286.26   15.88
  -1  -6   3  289.93   16.97
  -1  -6   3  285.44   15.69
  -1  -6   3  338.88   18.54
  -1  -6   2  725.78   39.07
  -1  -6   2  551.76   38.09
  -1  -6   1  721.11   34.53
  -1  -6   1  491.36   34.03
  -1  -6   1  757.86   35.56
   1   6  -1  563.68   33.69
  -1  -6   1  752.87   36.34
  -1  -6   0  604.45   33.30
  -1  -6   0  637.65   32.89
   1   6   0  621.53   32.79
   1   6   1  154.88   10.69
  -1  -6  -1  185.48   11.19
  -1  -6  -1  200.55   12.51
  -1  -6  -1  154.36   10.14
  -1  -6  -1  209.30   10.59
   1   6   2  146.96   10.74
  -1  -6  -2  132.00    8.67
   1   6   2  121.47    8.23
  -1  -6  -2  139.07   10.02
   1   6   3    0.44    3.05
   1   6   3    1.89    1.32
  -1  -6  -3    1.75    1.88
  -1  -6  -3    2.09    2.48
   1   6   4  489.04   27.37
  -1  -6  -4  475.32   29.85
   1   6   4  553.49   30.42
   1   6   5   42.50    3.42
  -1  -6  -5   39.88    5.45
   1   6   6   69.68    4.66
  -1  -6  -6   64.05    7.24
  -1  -6  -7   57.46    6.98
  -1  -6  -8    3.37    3.69
  -1  -6  -9   38.43    6.28
  -1  -6 -10   -0.32    4.05
   1   7 -15    2.79    3.76
  -1  -7  15    1.67    4.68
  -1  -7  15   -1.24    4.64
  -1  -7  14   -1.28    4.57
   1   7 -14   -0.77    3.35
  -1  -7  14    1.43    3.64
   1   7 -13   42.15    5.85
  -1  -7  13   46.35    6.95
   1   7 -12   13.80    3.79
  -1  -7  12   14.54    4.86
   1   7 -11   35.31    4.82
  -1  -7  11   30.68    5.99
   1   7 -10  696.83   38.36
   1   7 -10  640.12   38.58
   1   7  -9  204.79   14.02
   1   7  -9  215.77   13.69
  -1  -7   9  213.37   15.48
  -1  -7   9  205.07   13.93
  -1  -7   8   79.53    7.97
   1   7  -8   73.76    6.58
  -1  -7   8   70.44    4.58
  -1  -7   8   84.13    6.79
  -1  -7   7   80.83    6.38
   1   7  -7   68.06    6.09
  -1  -7   7   62.73    7.05
  -1  -7   7   67.93    4.88
   1   7  -6   86.01    6.96
  -1  -7   6   70.48    7.68
  -1  -7   6   88.24    6.95
  -1  -7   6   81.91    6.26
   1   7  -5    6.04    2.30
  -1  -7   5    7.70    2.96
  -1  -7   5    8.34    2.56
  -1  -7   5    6.51    1.87
  -1  -7   5    8.44    4.27
  -1  -7   5    9.35    1.92
  -1  -7   5   10.19    2.58
  -1  -7   4 1174.56   76.37
  -1  -7   4 1412.31   76.24
  -1  -7   4 1464.87   75.36
  -1  -7   4 1348.07   74.97
  -1  -7   3   97.19    7.79
  -1  -7   3  103.87    6.90
  -1  -7   3   80.77    7.63
  -1  -7   3  102.58    6.79
  -1  -7   3  100.37    7.60
  -1  -7   2    0.17    2.54
  -1  -7   2    0.34    2.42
  -1  -7   2    2.07    2.04
  -1  -7   2    1.88    2.10
  -1  -7   1   54.57    4.91
   1   7  -1   48.60    4.32
  -1  -7   1   76.60    5.91
  -1  -7   1   66.96    6.13
  -1  -7   1   48.50    4.74
  -1  -7   1   68.68    6.21
  -1  -7   0  145.40    8.82
   1   7   0  125.97    8.08
  -1  -7   0  126.52    8.16
  -1  -7   0  152.59   10.09
  -1  -7  -1  163.19   11.80
  -1  -7  -1  252.53   14.57
  -1  -7  -1  239.81   12.14
  -1  -7  -1  182.97   12.95
   1   7   1  239.97   13.16
  -1  -7  -2   59.72    5.51
  -1  -7  -2   85.54    7.14
  -1  -7  -3  439.84   24.86
  -1  -7  -3  356.69   22.99
   1   7   3  431.37   25.41
  -1  -7  -4  298.14   19.70
  -1  -7  -5   17.58    4.22
  -1  -7  -6   89.66    8.76
  -1  -7  -7   12.59    4.36
  -1  -7  -8    2.68    3.91
  -1  -7  -9   68.94    8.32
  -1  -8  15   15.22    5.93
  -1  -8  15    8.18    4.77
   1   8 -14    3.67    3.44
  -1  -8  14    1.02    4.46
   1   8 -13   16.58    4.29
  -1  -8  13   11.82    5.23
   1   8 -12  530.18   32.18
  -1  -8  12  540.91   33.89
   1   8 -11   -0.42    2.66
   1   8 -10    0.20    2.50
  -1  -8  10    6.17    4.16
  -1  -8   9   -3.36    5.14
   1   8  -9    1.31    2.61
  -1  -8   8  138.30    9.92
  -1  -8   8  127.61    7.98
  -1  -8   8  105.12   10.63
   1   8  -8  138.55    9.88
   1   8  -7   14.62    3.17
  -1  -8   7   17.55    4.49
  -1  -8   7   15.65    3.67
  -1  -8   7   19.33    2.78
  -1  -8   7   19.15    5.57
  -1  -8   7   15.46    3.36
  -1  -8   6    3.95    2.48
   1   8  -6    5.10    2.51
  -1  -8   6    4.50    2.33
  -1  -8   6    2.17    2.44
  -1  -8   6    7.28    4.40
  -1  -8   6    5.38    3.36
  -1  -8   6    2.24    1.76
  -1  -8   5 1316.25   70.91
  -1  -8   5 1349.50   69.74
  -1  -8   5 1082.54   70.33
  -1  -8   5 1350.71   70.11
  -1  -8   5 1230.24   70.85
  -1  -8   5 1157.29   71.46
  -1  -8   4   62.96    6.26
  -1  -8   4   70.07    5.25
  -1  -8   4   60.98    6.53
  -1  -8   4   70.81    5.50
  -1  -8   4   65.88    6.25
  -1  -8   3   62.05    6.48
  -1  -8   3   74.52    6.48
  -1  -8   3   69.86    6.78
  -1  -8   2  228.12   15.14
  -1  -8   2  247.70   16.33
  -1  -8   2  221.58   15.29
  -1  -8   2  219.78   15.88
  -1  -8   1   55.79    5.27
  -1  -8   1   63.87    6.31
   1   8  -1   49.84    4.62
  -1  -8   1   64.93    6.49
  -1  -8   1   52.91    5.10
  -1  -8   0   40.52    4.08
  -1  -8   0   35.98    3.65
  -1  -8   0   36.28    4.93
   1   8   0   29.15    3.53
  -1  -8   0   28.30    3.42
  -1  -8  -1  519.10   26.52
   1   8   1  509.18   27.59
  -1  -8  -1  471.03   27.94
  -1  -8  -1  550.27   29.32
  -1  -8  -2   -0.62    2.76
   1   8   2   -0.29    2.38
  -1  -8  -2    5.04    3.13
  -1  -8  -3    0.67    2.84
  -1  -8  -4   48.14    6.20
  -1  -8  -5   56.45    6.78
  -1  -8  -6   28.17    5.39
  -1  -8  -7    4.43    4.08
  -1  -8  -8   89.99    9.50
   1   9 -14   10.84    4.29
  -1  -9  14    8.74    5.22
  -1  -9  13  257.23   19.53
   1   9 -13  259.17   18.00
   1   9 -12   18.96    4.28
   1   9 -11    3.65    3.07
  -1  -9  11    2.62    3.99
   1   9 -10   70.20    6.89
  -1  -9  10   57.40    8.06
   1   9  -9   22.11    4.05
  -1  -9   9   16.60    5.11
  -1  -9   8  112.29   11.16
  -1  -9   8   75.72    9.16
   1   9  -8   93.07    8.18
  -1  -9   8   98.19    6.84
  -1  -9   7  902.34   49.50
  -1  -9   7  810.37   48.48
  -1  -9   7  928.28   48.68
  -1  -9   7  826.07   50.68
   1   9  -7  808.54   49.34
  -1  -9   6   32.87    5.36
   1   9  -6   35.81    4.70
  -1  -9   6   37.44    4.12
  -1  -9   6   28.01    4.61
  -1  -9   6   29.78    4.24
  -1  -9   6   48.76    7.00
  -1  -9   6   41.87    4.00
  -1  -9   6   38.64    4.81
  -1  -9   5    5.27    3.13
  -1  -9   5    7.44    2.91
  -1  -9   5    4.80    2.84
  -1  -9   5    3.21    2.72
  -1  -9   5    4.68    2.11
  -1  -9   5    9.65    4.27
  -1  -9   5    8.27    2.17
  -1  -9   4    4.14    2.90
  -1  -9   4    2.57    2.67
  -1  -9   4    4.09    2.82
  -1  -9   4    1.71    3.23
  -1  -9   4    1.63    1.76
  -1  -9   4    3.07    1.92
  -1  -9   3  153.76   12.37
  -1  -9   3  164.26   12.22
  -1  -9   3  191.72   12.91
  -1  -9   2    0.81    2.91
  -1  -9   2    0.32    2.59
  -1  -9   2    1.05    2.80
  -1  -9   2    1.31    2.73
  -1  -9   2    1.09    2.66
   1   9  -1    9.93    2.56
  -1  -9   1   18.00    3.38
  -1  -9   1   13.52    2.96
  -1  -9   1   13.53    2.99
  -1  -9   1   17.76    4.00
  -1  -9   1   15.75    3.86
   1   9   0  713.51   43.21
  -1  -9   0  819.09   45.07
  -1  -9   0  742.75   43.12
  -1  -9  -1    9.81    3.47
   1   9   1    6.67    2.50
  -1  -9  -2    2.65    3.07
   1   9   2    4.07    2.55
   1   9   3  136.96   10.54
  -1  -9  -3  163.11   12.01
  -1  -9  -4    0.25    3.19
  -1  -9  -5   26.63    5.32
  -1  -9  -6   59.40    7.57
  -1  -9  -7    0.62    3.91
   1  10 -14   48.12    6.90
   1  10 -13   22.62    5.02
   1  10 -12    2.29    3.48
  -1 -10  12    5.45    4.92
   1  10 -11   19.18    4.27
  -1 -10  11   13.90    5.30
   1  10 -10   10.04    3.73
  -1 -10  10    8.00    4.63
   1  10  -9  140.31   11.25
  -1 -10   9  135.63   12.50
  -1 -10   9  150.79   10.51
   1  10  -8  468.75   29.65
  -1 -10   8  495.99   31.26
  -1 -10   8  540.70   28.98
  -1 -10   8  469.48   28.29
  -1 -10   7    1.26    2.51
  -1 -10   7    1.92    4.24
   1  10  -7    1.85    3.01
  -1 -10   7    2.24    2.13
  -1 -10   7    0.56    3.66
  -1 -10   6    2.67    2.00
  -1 -10   6    0.83    2.60
  -1 -10   6    4.98    3.74
  -1 -10   6    6.21    4.33
  -1 -10   6    1.78    2.83
  -1 -10   6    2.66    2.32
  -1 -10   5  153.04   12.16
  -1 -10   5  160.05   11.35
  -1 -10   5  148.12   12.02
  -1 -10   5  167.05   11.17
  -1 -10   5  193.87   13.50
  -1 -10   5  172.21   12.17
  -1 -10   4   15.41    3.76
  -1 -10   4   13.63    3.83
  -1 -10   4    6.62    3.21
  -1 -10   4    7.43    2.48
  -1 -10   4   12.79    4.08
  -1 -10   3  162.29   13.37
  -1 -10   3  180.99   13.47
  -1 -10   3  209.80   13.91
  -1 -10   3  190.92   14.29
  -1 -10   2  319.16   21.88
  -1 -10   2  320.32   21.74
  -1 -10   2  335.44   21.00
  -1 -10   2  329.69   21.08
  -1 -10   1   85.78    8.23
   1  10  -1   74.20    6.45
  -1 -10   1   90.59    8.23
  -1 -10   1   93.26    7.16
   1  10   0    4.16    2.37
  -1 -10   0    1.52    2.86
  -1 -10  -1   12.05    3.80
   1  10   1    6.04    2.60
   1  10   2   58.30    5.65
  -1 -10  -2   57.33    6.63
  -1 -10  -3    3.78    3.65
   1  10   3    3.28    2.90
  -1 -10  -4   15.72    4.67
   1  10   4   19.15    4.23
  -1 -10  -5  128.53   11.35
  -1 -10  -6    1.78    3.80
   1  11 -14    2.99    4.07
   1  11 -13   10.28    4.32
  -1 -11  13    9.53    5.45
   1  11 -12   21.57    4.99
  -1 -11  12   14.08    5.69
   1  11 -11  138.58   11.50
  -1 -11  11  125.44   12.51
   1  11 -10   87.19    8.51
  -1 -11  10   80.43    9.46
   1  11  -9  130.49   11.05
  -1 -11   9  144.58   12.65
  -1 -11   8   59.94    7.87
  -1 -11   7    3.22    2.98
  -1 -11   7    7.87    4.11
  -1 -11   7    3.03    2.45
  -1 -11   6   61.81    6.13
  -1 -11   6   76.95    7.97
  -1 -11   6   59.39    6.44
  -1 -11   5   65.32    7.21
  -1 -11   5   30.39    4.36
  -1 -11   5   52.89    6.26
  -1 -11   5   39.55    5.05
  -1 -11   4  129.02   10.72
  -1 -11   4  189.43   12.85
  -1 -11   4  210.41   13.47
  -1 -11   4  161.62   12.70
  -1 -11   4  175.64   12.37
  -1 -11   4  149.28   11.79
  -1 -11   3  370.03   21.16
  -1 -11   3  322.07   20.39
  -1 -11   2   32.62    4.80
  -1 -11   2   34.74    5.42
  -1 -11   1    9.43    3.69
  -1 -11   0  122.26    9.99
   1  11   0  111.42    8.52
  -1 -11  -1   -0.93    3.10
   1  11   1    0.59    2.46
  -1 -11  -2   92.98    8.61
   1  11   2   79.30    7.04
  -1 -11  -3   35.19    5.80
  -1 -11  -4   35.90    6.09
  -1 -11  -5    0.58    3.66
   1  12 -13   14.13    4.93
   1  12 -12  121.41   11.23
  -1 -12  12  116.93   12.33
  -1 -12  11  108.62   11.36
   1  12 -11  103.69   10.09
   1  12 -10   52.11    6.99
  -1 -12  10   60.24    8.41
  -1 -12   9    6.10    4.85
  -1 -12   8   30.55    6.19
  -1 -12   7   10.69    4.46
  -1 -12   7   10.95    3.78
  -1 -12   6  245.95   16.63
  -1 -12   6  203.40   14.98
  -1 -12   5    8.57    3.11
  -1 -12   5    6.74    3.78
  -1 -12   5    9.78    3.87
  -1 -12   5    5.28    3.84
  -1 -12   4  134.27   11.79
  -1 -12   4  134.55   11.03
  -1 -12   3   69.75    7.39
  -1 -12   3   63.35    7.04
  -1 -12   2   10.88    4.03
  -1 -12   1   54.88    6.52
  -1 -12   0   19.70    4.52
  -1 -12  -1   81.91    8.30
  -1 -12  -2   42.01    6.30
  -1 -12  -3   22.00    5.24
   1  13 -12   13.17    5.26
   1  13 -11   25.80    5.80
  -1 -13  11   32.68    7.09
  -1 -13  10   -1.82    4.72
  -1 -13   9   69.29    8.83
  -1 -13   8   45.34    7.11
  -1 -13   7  152.49   12.95
  -1 -13   6   17.46    4.89
  -1 -13   6   14.28    4.01
  -1 -13   5   55.04    6.69
  -1 -13   5   45.64    5.78
  -1 -13   5   42.10    6.53
  -1 -13   4    8.76    3.58
  -1 -13   4   12.40    4.46
  -1 -13   3   15.49    4.41
  -1 -13   3   15.07    4.52
  -1 -13   2   11.55    4.04
  -1 -13   2    9.52    4.06
  -1 -13   1   65.62    7.37
  -1 -13   1   64.63    7.50
  -1 -13   0    8.58    3.96
  -1 -14  10   38.11    7.38
  -1 -14   9   17.41    5.72
  -1 -14   8    8.14    4.65
  -1 -14   7   22.43    5.31
  -1 -14   6   74.28    8.80
  -1 -14   5    2.31    3.27
  -1 -14   5    1.38    3.73
  -1 -14   4   53.52    6.56
  -1 -14   3    9.88    3.84
  -1 -14   2   42.62    6.00
  -1 -15   5   12.64    4.30
  -1 -15   4    1.48    3.44
  -2  15  -1    8.43    4.57
   2 -15   5   12.92    5.05
   2 -15   6   22.91    5.73
   2 -15   6   15.31    5.36
   2 -15   7   10.70    5.11
  -2  14   1   11.19    4.47
  -2  14   0   30.74    5.77
  -2  14  -1   57.11    7.44
   2 -14   2    7.85    4.78
   2 -14   3    1.24    4.23
   2 -14   4   96.20   10.02
   2 -14   5   17.91    5.28
   2 -14   6   37.69    6.58
   2 -14   6   35.11    6.40
   2 -14   7   25.79    5.87
   2 -14   7   29.63    5.71
   2 -14   8   14.04    5.08
   2 -14   9    2.72    4.37
  -2  13   3    2.50    3.91
  -2  13   2   -0.55    3.88
   2 -13  -1   10.66    4.87
  -2  13   1   12.49    4.35
   2 -13   0   -0.31    4.02
  -2  13   0   -0.81    3.43
   2 -13   1   10.06    4.73
  -2  13  -1   10.73    4.32
   2 -13   2    0.30    4.02
  -2  13  -2    1.10    3.60
   2 -13   3  168.01   13.85
   2 -13   4   33.92    6.37
   2 -13   5   74.12    8.31
   2 -13   6  109.54   10.17
   2 -13   7    0.26    3.70
   2 -13   7    1.88    3.92
   2 -13   8    6.42    3.98
   2 -13   8    6.96    4.50
   2 -13   9  149.21   13.04
   2 -13  10   17.02    5.24
  -2  12   5   20.62    5.32
  -2  12   4    2.19    3.65
  -2  12   3   14.71    4.35
   2 -12  -2   13.81    5.08
  -2  12   2   20.06    4.92
  -2  12   1    1.05    3.62
   2 -12  -1    0.61    4.10
  -2  12   0   12.67    4.32
   2 -12   0   14.19    5.02
  -2  12   0   11.49    3.83
  -2  12  -1  147.50   11.04
   2 -12   1  110.72   11.09
  -2  12  -1  133.22   11.25
   2 -12   2   13.34    4.79
  -2  12  -2   18.58    4.69
  -2  12  -2   18.33    4.69
   2 -12   3    9.91    4.14
   2 -12   4    4.25    3.60
   2 -12   5    1.77    3.52
   2 -12   6   10.68    3.94
   2 -12   7   19.51    4.67
   2 -12   7   16.72    4.81
   2 -12   8  388.90   27.04
   2 -12   8  456.51   26.37
  -2  12  -8  415.94   25.13
  -2  12  -9   28.88    4.56
   2 -12   9   23.49    5.43
  -2  12 -10  110.40    8.75
   2 -12  10   79.59    9.28
  -2  12 -11   29.14    4.84
   2 -12  11   22.17    5.57
  -2  11   6   -3.95    4.36
  -2  11   5   63.27    7.87
   2 -11  -5   63.33    8.41
   2 -11  -4    6.90    4.61
  -2  11   4    5.54    4.00
  -2  11   3   20.01    4.80
   2 -11  -2   -1.52    4.19
  -2  11   2    2.64    2.92
  -2  11   2   -2.02    3.61
   2 -11  -1    8.48    4.45
  -2  11   1   10.25    3.50
  -2  11   1    5.54    3.60
  -2  11   0  133.14   10.32
   2 -11   0  105.44   10.62
  -2  11   0  134.37   10.92
   2 -11   1    6.25    4.02
  -2  11  -1    6.60    3.77
  -2  11  -1    9.71    3.80
  -2  11  -2   62.15    7.18
   2 -11   2   48.81    6.96
   2 -11   3    7.07    4.08
  -2  11  -3   14.38    4.20
   2 -11   4   26.71    5.02
  -2  11  -4   25.92    5.46
   2 -11   5   60.77    6.93
   2 -11   6  149.63   11.60
   2 -11   7   62.65    6.62
  -2  11  -7   64.10    5.65
   2 -11   7   54.69    7.05
   2 -11   8   23.41    4.16
   2 -11   8   18.04    4.56
  -2  11  -8   27.19    3.85
  -2  11  -9    0.66    2.64
   2 -11   9    1.04    2.61
   2 -11   9   -0.28    3.30
   2 -11  10    9.14    4.00
  -2  11 -10    6.00    3.16
  -2  11 -11    0.82    3.08
  -2  11 -12  116.68    9.86
  -2  11 -13  189.28   14.09
  -2  11 -14    3.62    3.88
   2 -10  -7    1.62    4.51
   2 -10  -6   88.22    9.76
   2 -10  -5    7.92    4.79
  -2  10   5    9.86    4.28
   2 -10  -4   46.52    7.16
  -2  10   4   49.80    6.59
  -2  10   3  145.03   11.98
  -2  10   3  144.34   10.40
  -2  10   2  125.93    9.54
   2 -10  -2  107.54   10.76
  -2  10   2  130.77   10.69
   2 -10  -1   -0.55    3.80
  -2  10   1   -1.31    2.89
  -2  10   1    3.36    3.21
  -2  10   0  302.79   19.21
  -2  10   0  348.77   20.36
  -2  10  -1    1.54    3.09
   2 -10   1    0.25    3.53
  -2  10  -1   -0.23    3.09
  -2  10  -2   22.85    4.61
   2 -10   2   19.95    4.78
  -2  10  -2   27.26    4.87
   2 -10   3    4.96    3.50
  -2  10  -3    8.16    4.00
   2 -10   4   86.44    8.32
  -2  10  -4   95.44    9.29
  -2  10  -5  212.16   15.79
   2 -10   5  201.62   14.31
  -2  10  -6   22.67    3.18
  -2  10  -6   30.14    5.78
   2 -10   6   24.59    4.73
   2 -10   6   28.62    4.34
   2 -10   7   65.84    6.45
  -2  10  -7   72.93    5.89
   2 -10   7   71.78    7.44
  -2  10  -7   63.98    6.40
  -2  10  -8    6.00    3.09
  -2  10  -8    1.13    2.12
   2 -10   8    1.81    2.42
   2 -10   8    2.78    3.16
   2 -10   9   33.06    4.38
  -2  10  -9   42.22    4.74
   2 -10   9   37.77    5.56
  -2  10  -9   37.13    4.64
   2 -10  10   56.51    6.87
  -2  10 -10   60.28    6.06
  -2  10 -11   93.41    8.19
  -2  10 -12   67.54    7.01
  -2  10 -13    2.60    3.42
  -2  10 -14    2.04    3.76
   2  -9  -8   24.17    5.83
   2  -9  -7   20.43    5.71
   2  -9  -6    2.66    4.06
  -2   9   5   59.69    5.52
   2  -9  -5   70.20    8.00
  -2   9   4  133.99    9.94
  -2   9   4  148.13   10.53
   2  -9  -4  159.91   12.52
  -2   9   3  318.60   19.98
  -2   9   3  342.38   21.70
  -2   9   2    5.25    2.65
  -2   9   2    1.68    3.12
  -2   9   1  354.83   20.56
   2  -9  -1  278.25   17.48
  -2   9   1  352.68   19.78
   2  -9  -1  277.50   20.22
   2  -9   0    3.81    3.58
   2  -9   0    1.04    1.42
  -2   9   0    2.48    3.09
  -2   9   0   -0.20    2.90
  -2   9  -1  243.01   16.43
   2  -9   1  230.50   13.92
   2  -9   1  250.74   16.82
  -2   9  -1  272.77   16.90
  -2   9  -2  505.36   30.59
  -2   9  -2  515.06   30.81
   2  -9   2  521.37   28.01
   2  -9   2  576.39   31.09
   2  -9   2  473.37   27.84
  -2   9  -3  279.10   18.25
   2  -9   3  274.18   15.33
   2  -9   3  259.27   14.96
   2  -9   3  277.46   17.49
   2  -9   4    0.74    1.46
   2  -9   4    0.87    3.07
   2  -9   4    2.00    2.80
  -2   9  -4   -2.65    3.47
   2  -9   4    1.90    2.92
  -2   9  -5  512.75   32.21
  -2   9  -5  644.78   36.35
   2  -9   5  632.32   34.15
   2  -9   5  602.02   32.43
  -2   9  -5  615.37   33.66
   2  -9   6   18.99    2.71
  -2   9  -6   15.38    2.56
   2  -9   6   16.19    4.00
  -2   9  -6   16.15    3.25
   2  -9   6   13.66    3.26
  -2   9  -7    3.34    2.40
   2  -9   7    3.14    2.37
   2  -9   7    0.68    2.67
  -2   9  -7    2.62    1.89
  -2   9  -8   24.62    3.65
   2  -9   8   18.95    3.30
   2  -9   8   21.15    4.22
  -2   9  -8   24.48    3.50
   2  -9   9  168.18   13.08
  -2   9  -9  171.94   11.54
   2  -9   9  163.87   11.44
  -2   9  -9  193.47   12.14
   2  -9  10   48.02    6.52
  -2   9 -10   57.66    5.45
  -2   9 -10   68.42    6.22
  -2   9 -11   18.62    3.77
  -2   9 -12   31.45    4.83
  -2   9 -13    9.08    3.60
  -2   9 -14   17.46    4.40
   2  -8 -10    0.63    4.60
   2  -8  -9   80.66    9.33
   2  -8  -8    8.62    4.65
   2  -8  -7   69.67    8.22
   2  -8  -6    3.29    3.96
  -2   8   6    3.58    2.04
  -2   8   6    2.95    2.88
   2  -8  -5    0.27    3.49
  -2   8   5    2.46    2.11
  -2   8   5   -0.15    2.59
   2  -8  -5    3.87    2.45
  -2   8   4   -0.43    2.41
  -2   8   4    1.45    2.13
   2  -8  -4    0.77    3.61
   2  -8  -4   -1.02    2.06
   2  -8  -3   71.97    5.63
  -2   8   3   69.84    6.10
  -2   8   3   72.22    6.05
   2  -8  -2  141.06    9.30
  -2   8   2  146.84   10.23
   2  -8  -2  148.52   10.33
  -2   8   2  162.57   11.97
  -2   8   1   62.18    5.98
  -2   8   1   70.94    7.17
   2  -8  -1   66.16    4.82
   2  -8  -1   66.68    7.18
  -2   8   0  490.69   25.41
   2  -8   0  355.44   22.87
  -2   8   0  500.60   26.18
   2  -8   0  407.70   22.87
   2  -8   0  516.39   26.41
  -2   8  -1  773.71   39.78
   2  -8   1  618.07   36.45
   2  -8   1  812.23   39.96
  -2   8  -1  786.86   39.61
   2  -8   1  659.23   36.55
  -2   8  -2  680.34   39.42
   2  -8   2  711.36   36.63
  -2   8  -2  567.93   38.52
   2  -8   2  656.58   36.38
   2  -8   2  724.81   39.12
   2  -8   3   24.20    3.87
  -2   8  -3   17.92    4.37
   2  -8   3   17.53    2.05
  -2   8  -3   19.07    3.55
   2  -8   3   18.46    3.64
  -2   8  -4  544.36   31.56
   2  -8   4  602.93   34.18
  -2   8  -4  600.15   35.04
   2  -8   4  584.96   33.47
   2  -8   4  557.44   31.54
  -2   8  -4  582.65   32.84
   2  -8   4  642.93   33.53
   2  -8   5  151.16   10.38
  -2   8  -5  140.57    9.11
   2  -8   5  145.34   10.67
   2  -8   5  142.49    9.21
  -2   8  -5  146.47   10.02
   2  -8   5  167.89   11.89
  -2   8  -6  454.21   25.32
  -2   8  -6  448.85   25.91
   2  -8   6  452.67   28.00
  -2   8  -6  466.56   29.02
   2  -8   6  440.59   27.15
   2  -8   6  437.49   26.60
   2  -8   6  433.47   25.96
   2  -8   6  444.33   25.40
  -2   8  -7  578.25   34.61
   2  -8   7  554.34   32.56
  -2   8  -7  524.69   31.06
   2  -8   7  536.87   30.97
   2  -8   7  540.44   31.18
  -2   8  -7  561.87   30.96
   2  -8   8   63.94    5.58
   2  -8   8   69.69    5.96
   2  -8   8   63.59    6.69
  -2   8  -8   62.72    5.76
  -2   8  -8   70.83    5.91
  -2   8  -9   -1.04    2.23
  -2   8  -9   -0.13    2.35
   2  -8   9    2.42    2.89
   2  -8   9   -0.85    2.23
   2  -8   9    1.14    2.73
   2  -8  10  282.39   18.26
  -2   8 -10  318.08   18.53
  -2   8 -10  324.85   19.32
  -2   8 -11   28.98    4.44
  -2   8 -12    2.68    2.82
  -2   8 -13   25.92    4.77
  -2   8 -14   79.69    8.06
   2  -8  14   71.31    9.59
   2  -7 -11    2.46    4.50
   2  -7 -10   36.22    6.83
   2  -7  -9    2.00    4.23
   2  -7  -8   29.08    5.58
   2  -7  -8   24.62    4.50
   2  -7  -7   35.47    5.98
  -2   7   7   39.42    3.88
  -2   7   7   50.24    5.31
   2  -7  -7   41.88    5.03
   2  -7  -6   16.28    4.59
  -2   7   6   15.81    2.62
   2  -7  -6   14.48    3.20
  -2   7   6   16.17    3.30
   2  -7  -5    6.08    3.80
  -2   7   5    5.06    2.05
  -2   7   5    5.53    2.54
   2  -7  -5    0.68    2.06
  -2   7   4  322.16   17.53
  -2   7   4  316.28   17.27
   2  -7  -4  302.02   17.29
  -2   7   3  173.55   10.42
  -2   7   3  162.50   10.15
   2  -7  -3  163.84    9.89
  -2   7   2  162.63   10.51
  -2   7   2  161.96   12.05
   2  -7  -2  154.58    9.55
   2  -7  -2  147.35   10.52
   2  -7  -1    0.20    2.99
  -2   7   1    2.58    2.19
   2  -7  -1    0.73    1.13
  -2   7   1    1.90    2.69
   2  -7   0   49.53    3.84
   2  -7   0   60.34    3.82
   2  -7   0   73.62    6.55
  -2   7   0   62.66    5.68
  -2   7  -1   33.37    4.25
   2  -7   1   28.95    4.15
   2  -7   1   24.34    2.07
   2  -7   1   28.83    2.17
  -2   7  -2   59.56    5.56
  -2   7  -2   63.43    6.48
   2  -7   2   61.87    4.03
   2  -7   2   66.82    6.38
   2  -7   2   67.17    4.28
   2  -7   2   66.68    6.06
  -2   7  -3  116.22    9.71
   2  -7   3  112.93    8.57
  -2   7  -3  102.38    7.89
   2  -7   3  110.79    6.66
   2  -7   3  113.43    8.34
   2  -7   4  372.55   20.84
  -2   7  -4  341.01   19.31
   2  -7   4  330.26   21.54
   2  -7   4  343.43   19.40
   2  -7   4  345.70   20.97
  -2   7  -4  348.61   20.42
   2  -7   5  794.01   45.00
   2  -7   5  755.75   46.46
  -2   7  -5  812.23   47.57
  -2   7  -5  830.85   45.06
  -2   7  -5  814.06   44.20
   2  -7   5  829.45   45.69
   2  -7   5  818.00   44.30
   2  -7   6 1018.69   57.93
   2  -7   6  926.34   59.54
  -2   7  -6 1081.08   61.04
   2  -7   6 1054.64   59.09
  -2   7  -6 1044.94   57.98
   2  -7   6 1079.21   58.71
   2  -7   6 1077.40   57.64
  -2   7  -6 1117.20   57.59
   2  -7   7  386.93   24.23
  -2   7  -7  420.69   27.68
  -2   7  -7  433.55   24.39
   2  -7   7  430.22   25.75
   2  -7   7  418.20   25.31
   2  -7   7  451.51   24.61
  -2   7  -7  424.56   24.46
   2  -7   8   17.41    3.15
   2  -7   8   15.08    3.54
   2  -7   8   15.45    2.75
  -2   7  -8   15.90    2.86
  -2   7  -8   13.07    2.81
  -2   7  -9  121.47    8.79
   2  -7   9  104.92    8.03
   2  -7   9  113.95    9.42
  -2   7  -9  111.97    8.21
   2  -7   9  128.88    9.11
   2  -7  10  120.78    8.78
  -2   7 -10  139.33    9.78
  -2   7 -10  124.14    8.86
  -2   7 -11  205.76   13.04
  -2   7 -11  204.69   14.05
  -2   7 -12  111.46    9.28
  -2   7 -13    0.23    3.24
   2  -7  13    0.35    4.74
  -2   7 -14   -0.75    3.62
   2  -7  14    1.42    4.69
   2  -7  15   62.47    8.82
   2  -6 -11  113.15   10.63
   2  -6 -10   49.36    6.28
   2  -6 -10   37.30    6.44
   2  -6  -9   13.99    3.98
   2  -6  -9    4.94    4.22
   2  -6  -8   45.00    6.37
   2  -6  -8   44.45    5.62
   2  -6  -7    9.66    4.20
   2  -6  -7   10.94    3.09
  -2   6   7   15.03    3.38
   2  -6  -6   17.99    4.45
  -2   6   6   28.97    3.67
   2  -6  -6   23.22    3.57
  -2   6   5  276.71   15.83
   2  -6  -5  259.71   15.82
   2  -6  -5  216.76   16.90
   2  -6  -5  260.93   16.02
   2  -6  -4  145.02    9.21
   2  -6  -4  140.27   10.88
  -2   6   4  151.71    9.25
  -2   6   3  138.91    9.47
  -2   6   3  144.27    9.28
   2  -6  -3  158.84    8.37
   2  -6  -3  143.11    9.14
   2  -6  -3  147.74   11.18
   2  -6  -2   79.41    6.16
  -2   6   2   70.71    5.24
  -2   6   2   77.86    5.86
   2  -6  -2   70.83    5.04
   2  -6  -1    3.20    1.00
  -2   6   1    5.58    2.14
   2  -6  -1    3.17    2.50
   2  -6   0   28.79    2.22
   2  -6   0   30.93    2.14
  -2   6   0   34.47    3.94
  -2   6   0   37.67    4.23
   2  -6   0   39.29    4.32
  -2   6  -1  967.93   55.23
   2  -6   1 1024.02   55.21
   2  -6   2 1368.86   74.90
  -2   6  -2 1497.83   77.78
   2  -6   2 1526.80   77.46
   2  -6   2 1479.91   76.96
  -2   6  -3   65.56    4.21
   2  -6   3   73.18    5.92
   2  -6   3   64.13    4.22
   2  -6   3   66.48    5.58
  -2   6  -3   64.38    5.46
  -2   6  -4   51.93    4.60
  -2   6  -4   55.10    6.50
   2  -6   4   39.66    5.08
   2  -6   4   51.31    4.90
  -2   6  -4   49.48    3.61
   2  -6   4   50.07    3.64
   2  -6   4   43.20    4.34
   2  -6   5  226.28   14.19
   2  -6   5  199.75   15.32
  -2   6  -5  226.97   16.43
   2  -6   5  250.28   15.10
  -2   6  -5  223.08   14.19
   2  -6   5  236.96   13.70
  -2   6  -5  235.14   13.60
   2  -6   5  245.77   14.82
  -2   6  -6    3.37    1.63
  -2   6  -6    3.60    2.01
  -2   6  -6    4.59    3.66
   2  -6   6    3.76    2.37
   2  -6   6    4.00    1.84
   2  -6   6    3.97    2.16
   2  -6   6    3.38    1.73
   2  -6   7  109.88   10.53
   2  -6   7  129.04    8.89
  -2   6  -7  130.91   11.76
  -2   6  -7  136.27    9.10
   2  -6   7  151.13    9.44
  -2   6  -7  139.91    9.14
   2  -6   7  127.11    9.91
   2  -6   8  164.57   10.77
  -2   6  -8  163.79   10.58
  -2   6  -8  172.15   10.41
   2  -6   8  160.82   11.40
   2  -6   8  144.31   10.05
   2  -6   9  470.89   26.89
   2  -6   9  435.86   25.94
  -2   6  -9  464.14   26.61
  -2   6  -9  447.59   25.96
  -2   6 -10  376.62   22.49
  -2   6 -10  363.00   21.56
  -2   6 -11  390.38   23.56
  -2   6 -11  377.03   22.30
  -2   6 -12   26.55    4.47
   2  -6  13   -1.28    4.25
  -2   6 -13   -2.09    3.31
  -2   6 -14   15.48    4.48
   2  -6  14    8.13    4.89
   2  -6  15   49.57    7.75
   2  -5 -12   86.76    9.18
   2  -5 -11   92.91    8.90
   2  -5 -11   78.58    8.62
   2  -5 -10   37.32    5.46
   2  -5 -10   34.62    5.90
   2  -5  -9   26.77    4.46
   2  -5  -9   18.00    4.68
   2  -5  -8   42.93    5.98
  -2   5   8   52.49    5.48
   2  -5  -8   47.47    5.49
   2  -5  -7    1.50    3.17
  -2   5   7    1.15    2.20
   2  -5  -7    1.88    2.44
   2  -5  -6  931.37   55.44
   2  -5  -6  919.68   56.67
  -2   5   6 1119.10   55.78
   2  -5  -6 1057.10   55.89
   2  -5  -5  165.66   12.46
   2  -5  -5  200.72   14.17
   2  -5  -5  169.56   11.17
  -2   5   5  173.91   11.11
   2  -5  -5  178.56   11.51
   2  -5  -4  175.28   10.76
   2  -5  -4  195.93   12.62
  -2   5   4  180.37   10.67
   2  -5  -3  120.61    6.96
   2  -5  -3  126.58    9.13
   2  -5  -3  106.91    7.17
  -2   5   3  117.43    7.26
   2  -5  -2  108.04    7.29
  -2   5   2   98.95    6.06
   2  -5  -2   85.55    5.85
  -2   5   1   10.33    2.66
   2  -5  -1    9.89    2.45
   2  -5  -1    6.74    1.01
  -2   5   1   11.27    2.27
   2  -5  -1    8.28    2.69
  -2   5   1    6.59    3.05
  -2   5   0  151.13    9.91
  -2   5   0  128.80   10.35
  -2   5   0  150.53    9.61
   2  -5   0  150.09    9.93
  -2   5  -1  361.20   23.95
  -2   5  -1  412.90   23.39
   2  -5   1  442.69   23.71
  -2   5  -2   77.76    4.68
   2  -5   2   82.11    4.70
   2  -5   2   87.34    6.65
  -2   5  -2   82.13    6.70
   2  -5   2   82.67    6.20
   2  -5   3  195.19   11.88
  -2   5  -3  207.30   13.42
  -2   5  -3  179.99   10.70
   2  -5   3  191.26   10.84
   2  -5   3  201.52   12.30
  -2   5  -3  191.13   11.86
   2  -5   4   28.82    3.22
   2  -5   4   28.07    4.13
  -2   5  -4   30.70    3.29
  -2   5  -4   27.02    4.69
   2  -5   4   30.61    3.51
  -2   5  -4   31.95    2.71
   2  -5   4   32.41    2.81
  -2   5  -5    0.99    1.25
  -2   5  -5    0.59    1.70
  -2   5  -5    2.34    3.18
   2  -5   5    1.27    1.79
   2  -5   5    1.81    1.47
   2  -5   5    0.78    1.45
   2  -5   5    1.30    1.82
  -2   5  -6  100.74    6.97
   2  -5   6   85.38    8.19
   2  -5   6   96.15    6.85
  -2   5  -6   90.27    9.00
   2  -5   6   94.81    7.51
  -2   5  -6   93.80    6.66
   2  -5   6   98.90    6.88
  -2   5  -7  938.33   47.64
   2  -5   7  805.06   49.31
   2  -5   7  841.93   47.39
   2  -5   7  876.89   47.75
  -2   5  -7  727.42   49.71
  -2   5  -7  889.13   47.56
  -2   5  -8    0.64    1.83
   2  -5   8    0.24    3.20
  -2   5  -8   -0.66    2.00
   2  -5   8    1.67    1.91
   2  -5   8    1.27    2.08
  -2   5  -9   49.02    4.67
   2  -5   9   49.18    6.66
   2  -5   9   48.11    5.24
  -2   5  -9   48.19    4.90
  -2   5 -10   90.62    6.81
  -2   5 -10   81.03    7.21
  -2   5 -11    3.89    2.48
  -2   5 -11    6.99    2.97
  -2   5 -12   10.14    3.55
  -2   5 -13   14.57    3.91
   2  -5  13   16.60    4.98
  -2   5 -14  139.63   11.54
   2  -5  14  136.66   12.17
   2  -4 -12    0.55    3.67
   2  -4 -11   -0.74    3.41
   2  -4 -11    4.42    3.71
   2  -4 -10    0.85    3.30
   2  -4 -10    2.61    3.07
  -2   4  10    0.24    2.69
   2  -4  -9    8.65    3.44
  -2   4   9    5.05    3.27
   2  -4  -9    9.44    3.22
   2  -4  -8    5.57    2.75
   2  -4  -8    6.99    3.39
  -2   4   8    5.07    2.69
  -2   4   8    5.84    3.79
   2  -4  -7 1258.86   67.85
  -2   4   7 1194.95   66.27
  -2   4   7 1402.91   67.36
   2  -4  -7 1273.12   67.24
  -2   4   6  575.58   30.71
   2  -4  -6  520.71   31.40
   2  -4  -6  521.67   30.50
   2  -4  -6  547.60   32.15
   2  -4  -6  522.60   30.58
   2  -4  -5  328.23   19.81
  -2   4   5  287.76   17.12
   2  -4  -5  266.38   17.12
   2  -4  -5  319.62   17.75
   2  -4  -5  283.73   18.27
   2  -4  -4  150.93   11.87
   2  -4  -4  163.70   11.14
   2  -4  -4  176.03    9.73
  -2   4   4  153.67    9.72
   2  -4  -4  143.52    9.72
  -2   4   3   60.99    4.22
   2  -4  -3   57.16    4.37
   2  -4  -3   58.67    4.28
   2  -4  -3   71.76    5.72
   2  -4  -2   81.98    6.18
  -2   4   2   69.00    4.45
   2  -4  -2   65.27    4.43
  -2   4   2   81.15    5.95
   2  -4  -1 4866.49  162.99
  -2   4   1 4754.86  164.78
  -2   4   1 4947.00  162.56
   2  -4  -1 4878.47  160.40
  -2   4   0  145.78    8.76
   2  -4   0  132.69    8.71
  -2   4  -1  248.31   15.97
  -2   4  -1  265.70   15.39
   2  -4   1  274.03   16.18
   2  -4   1  258.20   15.50
   2  -4   2  157.32   10.35
  -2   4  -2  176.02   11.34
  -2   4  -2  171.37   10.90
   2  -4   2  170.86   10.81
   2  -4   2  169.39    9.39
  -2   4  -2  164.79    9.29
  -2   4  -3  280.66   16.45
   2  -4   3  259.59   15.03
   2  -4   3  255.86   14.26
  -2   4  -3  233.26   14.09
  -2   4  -3  266.41   15.03
   2  -4   4   26.33    2.94
   2  -4   4   25.26    2.60
  -2   4  -4   30.84    4.67
  -2   4  -4   27.82    2.55
  -2   4  -4   28.05    3.19
  -2   4  -5  178.67   10.43
  -2   4  -5  147.56    9.77
   2  -4   5  154.13   11.21
  -2   4  -5  154.03   12.10
   2  -4   5  157.96   10.15
   2  -4   5  168.37   10.10
  -2   4  -6  658.63   34.24
   2  -4   6  628.29   35.68
  -2   4  -6  529.82   35.93
  -2   4  -6  597.47   33.92
   2  -4   6  602.13   34.12
   2  -4   6  615.19   34.05
   2  -4   7  147.30   10.99
   2  -4   7  144.12    9.38
   2  -4   7  141.82    9.59
  -2   4  -7  108.47   10.85
  -2   4  -7  134.05    9.27
  -2   4  -7  151.62    9.41
   2  -4   8   52.61    6.23
  -2   4  -8   48.99    4.60
   2  -4   8   50.22    5.05
  -2   4  -8   51.28    4.84
  -2   4  -9  103.00    7.36
   2  -4   9   99.94    9.09
   2  -4   9  103.48    8.14
  -2   4  -9   92.16    7.66
   2  -4  10   -0.73    3.61
  -2   4 -10    1.30    2.24
  -2   4 -10   -0.17    2.31
  -2   4 -11    5.47    2.90
  -2   4 -11    3.77    2.35
   2  -4  12  285.60   18.46
  -2   4 -12  241.72   17.22
  -2   4 -13    0.72    3.01
   2  -4  13    2.58    3.73
  -2   4 -14   22.17    4.93
   2  -4  14   26.64    5.54
   2  -3 -13    2.05    3.72
   2  -3 -12   48.81    6.55
  -2   3  11   15.46    5.04
   2  -3 -11    9.85    3.85
   2  -3 -11    6.65    3.28
   2  -3 -10   22.00    4.25
  -2   3  10   29.17    4.40
   2  -3 -10   23.25    4.20
  -2   3   9  181.51   11.98
  -2   3   9  152.50    9.44
   2  -3  -9  153.28   11.45
   2  -3  -9  159.33   11.43
  -2   3   8  135.49    9.39
  -2   3   8  104.59    7.33
  -2   3   8  138.03    9.17
   2  -3  -8   95.01    8.78
   2  -3  -8  128.98    9.16
   2  -3  -8  139.16    9.48
   2  -3  -7    2.16    1.97
  -2   3   7    4.29    3.37
   2  -3  -7    4.59    2.62
   2  -3  -7    4.03    2.81
   2  -3  -7    4.79    3.86
  -2   3   7    1.26    2.00
   2  -3  -6    1.59    1.78
  -2   3   6   -0.39    1.88
   2  -3  -6    2.71    2.46
   2  -3  -6    1.89    2.36
   2  -3  -6    4.50    3.21
  -2   3   6    0.96    1.67
  -2   3   5   18.60    2.52
   2  -3  -5   19.05    3.11
   2  -3  -5   25.98    3.95
   2  -3  -5   19.79    2.61
  -2   3   5   20.10    2.56
   2  -3  -5   23.72    3.17
   2  -3  -4  118.19    8.62
   2  -3  -4  108.71    7.18
  -2   3   4   90.72    6.94
   2  -3  -4  119.35    9.11
  -2   3   4  102.23    6.73
   2  -3  -4   95.76    6.73
   2  -3  -4  110.82    7.58
  -2   3   3  159.95    9.83
  -2   3   3  149.16    8.72
   2  -3  -3  143.06    8.79
   2  -3  -3  151.30    9.64
   2  -3  -3  140.78    9.43
   2  -3  -2 5803.78  305.08
   2  -3  -2 5759.68  302.96
  -2   3   2 5608.64  302.87
  -2   3   2 5875.28  303.85
   2  -3  -1 1151.95   18.18
  -2   3   1 1206.19   21.78
   2  -3  -1 1222.03   22.74
  -2   3   0  664.74   41.42
   2  -3   0  770.60   40.95
  -2   3   0  782.50   40.90
   2  -3   1  128.49    8.44
  -2   3  -1  158.28    9.23
  -2   3  -1  143.17    8.99
  -2   3  -1  142.88    8.58
  -2   3  -1  128.80    7.33
  -2   3  -2    7.78    1.14
  -2   3  -2   10.60    2.62
   2  -3   2    7.16    1.87
   2  -3   2    8.22    1.35
  -2   3  -3  776.98   39.87
   2  -3   3  710.31   38.56
   2  -3   3  705.34   38.12
  -2   3  -3  667.94   37.91
  -2   3  -4 3961.24  214.77
   2  -3   4 3892.87  214.02
   2  -3   4 3973.78  213.29
  -2   3  -4 4285.55  213.47
   2  -3   4 4011.28  213.09
  -2   3  -4 3916.99  212.86
  -2   3  -5   24.51    3.00
   2  -3   5   18.91    3.38
   2  -3   5   23.27    2.89
   2  -3   5   26.45    2.95
  -2   3  -5   19.58    4.10
  -2   3  -5   23.62    2.66
  -2   3  -6  286.84   15.75
   2  -3   6  284.02   16.80
   2  -3   6  278.03   15.68
   2  -3   6  254.32   15.89
  -2   3  -6  250.04   15.44
   2  -3   6  250.39   15.65
  -2   3  -7   42.99    4.20
  -2   3  -7   43.60    4.16
  -2   3  -7   40.28    5.62
   2  -3   7   43.79    5.19
   2  -3   7   39.92    4.40
  -2   3  -8  110.30    7.56
   2  -3   8  110.72    8.84
  -2   3  -8   93.55    7.79
  -2   3  -8  102.40    7.84
   2  -3   8  102.20    8.08
   2  -3   9   -0.60    3.11
  -2   3  -9    0.96    2.15
  -2   3  -9    0.69    2.01
   2  -3   9    1.73    2.61
  -2   3 -10   -0.36    2.18
   2  -3  10    2.75    3.31
  -2   3 -10    1.46    2.20
  -2   3 -11  245.06   15.64
   2  -3  11  278.24   17.60
  -2   3 -11  251.11   16.97
  -2   3 -12   13.13    3.91
   2  -3  12   19.13    4.40
  -2   3 -13    3.81    3.42
   2  -3  13    1.36    3.52
   2  -2 -13    3.11    4.01
   2  -2 -12   21.03    4.71
  -2   2  12   17.48    7.55
   2  -2 -11    5.18    3.25
   2  -2 -11    6.09    3.13
  -2   2  11    1.06    7.00
   2  -2 -10  466.46   25.43
  -2   2  10  429.51   23.18
   2  -2 -10  464.07   24.48
   2  -2  -9   50.15    4.85
  -2   2   9   42.89    4.79
   2  -2  -9   34.76    4.95
  -2   2   9   39.68    3.71
   2  -2  -9   41.95    4.93
  -2   2   8  116.52   13.18
  -2   2   8  107.28    7.49
  -2   2   8  125.65    8.72
   2  -2  -8  103.19    8.66
   2  -2  -8  121.82    8.82
   2  -2  -8  125.66    8.61
   2  -2  -7   59.68    5.65
  -2   2   7   63.99    5.24
   2  -2  -7   53.90    5.17
   2  -2  -7   55.50    5.12
   2  -2  -7   64.39    5.20
  -2   2   7   54.07    4.13
   2  -2  -6    2.53    1.75
   2  -2  -6    5.66    1.98
   2  -2  -6    8.31    2.42
   2  -2  -6    5.97    2.61
  -2   2   6    4.37    1.31
  -2   2   6    0.22    3.21
  -2   2   6    4.88    1.95
  -2   2   5  119.06    7.79
  -2   2   5   93.85    8.49
  -2   2   5  110.34    7.19
   2  -2  -5  130.37    8.98
   2  -2  -5  143.47    8.62
   2  -2  -5  116.30    7.87
   2  -2  -5  127.28    8.06
  -2   2   4  226.08   14.06
   2  -2  -4  216.92   14.07
   2  -2  -4  232.96   13.62
   2  -2  -4  222.02   13.75
   2  -2  -4  279.01   15.67
  -2   2   4  220.05   13.42
   2  -2  -4  273.94   14.70
   2  -2  -3 1263.52   66.63
  -2   2   3 1217.43   66.15
  -2   2   3 1250.03   66.76
   2  -2  -3 1257.81   66.86
   2  -2  -3 1243.20   66.31
  -2   2   3 1328.44   66.71
   2  -2  -2    4.99    1.22
  -2   2   2    7.30    1.79
   2  -2  -2    5.20    1.69
   2  -2  -2   -0.23    4.09
  -2   2   2    3.86    0.97
   2  -2  -1   57.29    2.26
   2  -2  -1   69.31    3.96
  -2   2   1   55.12    2.99
   2  -2   0  324.46    6.75
   2  -2   0  358.22    8.15
  -2   2   0  354.94    5.05
  -2   2   0  337.24    6.88
  -2   2   0  321.84    7.98
  -2   2  -1  208.37   11.45
   2  -2   1  186.29   11.26
  -2   2  -1  209.24   11.52
  -2   2  -1  202.11   10.61
   2  -2   2  988.36   54.12
   2  -2   2 1011.49   54.48
  -2   2  -2 1118.88   55.18
   2  -2   2 1001.57   54.48
  -2   2  -2  968.09   53.86
   2  -2   3 6748.91  348.04
  -2   2  -3 6832.89  348.83
   2  -2   3 6608.73  348.05
   2  -2   3 6257.19  347.94
   2  -2   3 6620.94  347.76
  -2   2  -3 6433.24  347.58
  -2   2  -4  729.25   36.93
   2  -2   4  650.96   36.71
  -2   2  -4  615.16   37.71
   2  -2   4  690.16   36.91
   2  -2   4  639.11   36.80
  -2   2  -4  655.14   36.55
   2  -2   5  208.14   12.94
  -2   2  -5  211.13   12.45
  -2   2  -5  167.80   13.49
   2  -2   5  214.64   12.62
   2  -2   5  206.63   12.65
  -2   2  -5  193.41   12.34
   2  -2   5  203.40   12.58
   2  -2   6    0.40    2.01
  -2   2  -6    2.52    3.04
  -2   2  -6    1.76    1.68
  -2   2  -6    0.19    1.75
   2  -2   6   -0.12    1.77
  -2   2  -6    0.34    1.55
   2  -2   7    1.55    2.13
  -2   2  -7    1.75    1.92
   2  -2   7    2.57    2.27
  -2   2  -7    2.74    2.94
  -2   2  -7    3.19    2.12
  -2   2  -7    2.40    1.74
  -2   2  -8  416.20   24.52
  -2   2  -8  409.28   25.23
  -2   2  -8  437.34   25.48
   2  -2   8  411.80   25.53
   2  -2   8  485.48   25.81
   2  -2   9  816.96   42.22
  -2   2  -9  684.67   40.79
  -2   2  -9  750.44   42.11
   2  -2  10   54.12    5.48
  -2   2 -10   39.18    4.20
  -2   2 -10   39.76    5.06
   2  -2  11   14.93    3.52
  -2   2 -11    8.87    2.71
   2  -2  11   12.11    3.54
  -2   2 -11   17.48    3.91
   2  -2  12   10.87    3.60
  -2   2 -12   12.69    3.90
  -2   2 -13   18.13    4.64
   2  -2  13   21.30    5.56
   2  -1 -14   28.79    5.94
  -2   1  13   41.85   13.62
   2  -1 -13  116.86    9.93
  -2   1  12   72.41   14.57
   2  -1 -12  109.40    9.47
   2  -1 -11   21.78    4.18
   2  -1 -11   19.81    3.23
  -2   1  11   23.01    3.65
  -2   1  11   23.49    8.61
   2  -1 -10   37.14    5.60
  -2   1  10   48.53    5.08
   2  -1 -10   53.27    4.65
   2  -1 -10   51.26    5.70
   2  -1  -9   25.50    4.54
   2  -1  -9   32.43    4.23
  -2   1   9   25.83    4.39
  -2   1   9   33.75    4.22
  -2   1   9   18.45    8.03
   2  -1  -9   34.99    3.62
   2  -1  -8   29.55    4.17
  -2   1   8   28.38    3.35
  -2   1   8   18.03    5.72
   2  -1  -8   29.42    3.78
   2  -1  -8   24.97    3.04
  -2   1   8   27.08    3.68
   2  -1  -7   76.37    6.30
   2  -1  -7   87.73    5.78
  -2   1   7   83.52    6.06
   2  -1  -7   85.38    6.78
  -2   1   7   81.45    6.17
  -2   1   6  180.91   11.15
   2  -1  -6  189.93   10.81
  -2   1   6  184.34   10.85
   2  -1  -6  191.67   11.68
   2  -1  -6  185.58   11.39
  -2   1   5 1625.64   78.99
   2  -1  -5 1729.24   79.64
   2  -1  -5 1576.54   79.14
   2  -1  -5 1527.49   78.61
  -2   1   5 1527.67   78.71
   2  -1  -4  483.59   21.79
  -2   1   4  382.01   20.75
   2  -1  -4  320.56   21.46
  -2   1   4  425.92   20.92
   2  -1  -4  398.53   20.95
  -2   1   4  393.55   20.79
   2  -1  -4  385.10   20.64
  -2   1   3  185.47   10.81
   2  -1  -3  181.52   10.79
   2  -1  -3  202.48   11.57
   2  -1  -3  208.91   12.20
  -2   1   3  173.42   10.56
   2  -1  -3  171.88   10.68
   2  -1  -2   22.70    2.26
   2  -1  -2   24.13    2.79
  -2   1   2   24.53    2.07
   2  -1  -2   11.44    5.31
  -2   1   2   22.47    2.35
   2  -1  -2   22.27    2.35
  -2   1   1    2.67    1.52
  -2   1   1    3.06    0.99
  -2   1   1    3.20    1.44
   2  -1  -1    0.89    2.74
   2  -1   0  323.40   18.78
   2  -1   0  376.47   19.17
  -2   1   0  340.28   18.89
  -2   1   0  348.74   18.84
  -2   1  -1   23.53    2.60
   2  -1   1   26.29    2.67
  -2   1  -1   32.84    3.06
   2  -1   1   31.07    2.97
   2  -1   1   20.79    2.87
  -2   1  -1   23.72    2.50
  -2   1  -2 2069.97  116.38
   2  -1   2 2185.59  116.54
  -2   1  -2 2193.14  116.26
   2  -1   2 2220.03  116.31
   2  -1   2 2221.05  116.56
  -2   1  -3   33.58    3.70
   2  -1   3   30.15    3.30
   2  -1   3   27.92    2.87
   2  -1   3   29.61    3.22
  -2   1  -3   30.43    3.02
  -2   1  -4   31.87    3.31
  -2   1  -4   27.83    3.87
   2  -1   4   34.22    3.25
   2  -1   4   33.98    3.49
  -2   1  -4   37.49    3.50
   2  -1   5  295.39   17.85
  -2   1  -5  309.31   17.71
  -2   1  -5  256.17   18.38
  -2   1  -5  298.70   17.41
  -2   1  -5  328.12   18.04
  -2   1  -6   82.79    7.30
  -2   1  -6   81.10    6.07
  -2   1  -6   87.13    6.47
   2  -1   6   79.98    6.60
  -2   1  -6   88.50    6.69
  -2   1  -7  733.16   40.43
   2  -1   7  719.47   40.77
  -2   1  -7  769.43   40.87
  -2   1  -7  681.28   39.76
   2  -1   8 1737.19   87.60
  -2   1  -8 1471.78   86.84
   2  -1   8 1632.98   88.19
  -2   1  -8 1707.24   88.27
  -2   1  -8 1585.19   87.66
   2  -1   9   27.48    3.63
  -2   1  -9   19.61    3.09
  -2   1  -9   25.55    4.22
  -2   1 -10   12.53    2.68
   2  -1  10   12.04    3.16
  -2   1 -10   12.53    3.34
   2  -1  11    2.42    2.54
   2  -1  11    5.78    3.53
  -2   1 -11    4.95    3.34
  -2   1 -12   -0.52    3.40
   2  -1  12   -2.81    3.83
   2  -1  13  107.29   10.58
  -2   1 -13  102.73   10.02
   2   0 -14  139.04   11.98
  -2   0  13  118.30   13.48
   2   0 -13  155.93   12.05
   2   0 -12    5.63    3.28
  -2   0  12    7.55    3.39
  -2   0  12    1.46    4.79
  -2   0  11  199.01   14.80
   2   0 -11  177.19   11.45
  -2   0  11  213.81   13.35
   2   0 -11  198.00   13.80
  -2   0  10   70.46    6.92
   2   0 -10   51.84    6.22
   2   0 -10   52.97    4.35
   2   0 -10   61.19    6.22
  -2   0  10   62.05    5.95
  -2   0   9  427.15   24.53
  -2   0   9  443.04   23.96
  -2   0   9  430.62   25.03
   2   0  -9  415.13   24.52
  -2   0   9  391.18   23.71
   2   0  -9  385.54   24.00
   2   0  -9  369.96   22.31
  -2   0   8  567.68   32.14
  -2   0   8  570.38   31.71
   2   0  -8  597.28   32.43
  -2   0   8  578.12   31.69
   2   0  -8  558.06   31.91
   2   0  -8  517.02   30.38
  -2   0   7  454.64   25.85
  -2   0   7  478.66   26.03
  -2   0   7  453.29   26.35
   2   0  -7  461.25   26.37
   2   0  -7  475.43   26.19
   2   0  -7  423.24   24.79
  -2   0   6  118.09    8.74
  -2   0   6  124.92    8.11
   2   0  -6  118.42    8.19
  -2   0   6  114.05    7.76
   2   0  -6  112.96    7.97
   2   0  -6  111.50    7.02
  -2   0   5  620.52   41.05
   2   0  -5  676.61   39.18
   2   0  -5  722.81   40.00
   2   0  -5  702.08   40.14
  -2   0   5  736.82   40.11
   2   0  -5  800.45   40.41
  -2   0   5  704.55   39.79
  -2   0   5  849.17   39.79
  -2   0   4    1.40    1.29
   2   0  -4    1.33    1.35
  -2   0   4    1.39    1.21
  -2   0   4    1.13    1.64
   2   0  -4    0.38    1.09
   2   0  -4    0.56    1.75
   2   0  -4    0.43    1.63
   2   0  -4    0.13    2.30
   2   0  -3   93.30    5.88
   2   0  -3  104.64    6.60
  -2   0   3   90.44    6.25
   2   0  -3  111.75    6.80
   2   0  -3   96.52    6.83
   2   0  -3   84.94    6.07
  -2   0   3   83.96    5.84
  -2   0   3   89.11    5.74
  -2   0   2   19.65    2.11
   2   0  -2   25.14    2.51
   2   0  -2   20.99    2.23
   2   0  -2   19.42    2.72
   2   0  -2   16.84    3.18
  -2   0   2   16.50    1.93
  -2   0   1  986.17   49.94
  -2   0   1  976.92   50.02
  -2   0   1 1054.57   50.57
   2   0  -1 1022.70   50.52
  -2   0   0 1606.39   81.48
  -2   0   0 1630.50   81.69
  -2   0   0 1554.63   81.12
  -2   0  -1 1158.49   63.76
   2   0   1 1316.47   63.92
  -2   0  -1 1227.77   64.15
   2   0   1 1182.47   63.48
   2   0   1 1235.45   64.04
   2   0   2  247.95   13.88
   2   0   2  246.63   14.57
  -2   0  -2  222.96   13.89
   2   0   2  246.45   13.65
  -2   0  -2  224.96   14.10
  -2   0  -3    4.65    2.07
   2   0   3    4.59    2.17
  -2   0  -4    5.04    2.19
  -2   0  -4    8.20    1.95
  -2   0  -4    7.43    1.79
   2   0   4    5.49    2.18
  -2   0  -5  186.68   12.10
  -2   0  -5  169.75   11.12
  -2   0  -5  188.17   11.47
   2   0   5  187.81   11.96
  -2   0  -6   26.54    3.13
  -2   0  -6   27.33    3.79
  -2   0  -6   28.32    3.35
   2   0   6   31.15    3.79
  -2   0  -7  520.57   31.02
  -2   0  -7  594.35   31.72
   2   0   7  558.37   32.14
  -2   0  -8   14.87    3.05
  -2   0  -8    8.88    2.38
  -2   0  -9    0.61    2.08
   2   0  10   80.95    7.91
   2   0  10   82.41    6.62
   2   0  11   12.88    3.10
   2   0  11   10.80    4.20
   2   0  12  167.96   13.41
   2   0  13  207.56   16.29
   2   1 -14   38.23    6.09
  -2  -1  14   47.06    9.05
  -2  -1  13  135.29   11.68
  -2  -1  13  163.68   13.35
   2   1 -13  126.71   11.16
  -2  -1  12    2.57    3.53
   2   1 -12    0.90    2.83
  -2  -1  12   -1.01    3.33
  -2  -1  12    3.65    3.84
   2   1 -11   22.07    4.13
  -2  -1  11   36.41    5.22
  -2  -1  11   31.51    5.53
  -2  -1  11   31.43    5.04
   2   1 -11   20.45    2.13
  -2  -1  10  359.49   19.99
   2   1 -10  310.81   19.61
   2   1 -10  314.65   19.29
  -2  -1  10  336.73   19.21
  -2  -1   9 1610.52   78.53
  -2  -1   9 1800.58   79.75
   2   1  -9 1479.08   78.29
  -2  -1   9 1485.34   77.62
   2   1  -9 1470.08   77.92
  -2  -1   9 1504.97   77.66
   2   1  -9 1271.37   75.56
   2   1  -8  650.44   38.54
  -2  -1   8  770.53   40.48
  -2  -1   8  744.97   40.27
  -2  -1   8  819.01   41.30
  -2  -1   8  838.30   41.54
   2   1  -8  767.21   41.03
   2   1  -8  710.49   40.47
   2   1  -7   33.38    2.61
  -2  -1   7   38.42    3.77
  -2  -1   7   47.02    4.78
   2   1  -7   43.05    4.33
  -2  -1   7   39.29    4.47
  -2  -1   7   35.72    3.83
   2   1  -7   34.78    3.88
   2   1  -6  454.03   25.39
  -2  -1   6  531.91   27.41
  -2  -1   6  499.66   27.23
   2   1  -6  477.41   26.86
  -2  -1   6  449.06   26.37
  -2  -1   6  485.83   26.83
   2   1  -6  436.69   26.56
  -2  -1   5  957.83   50.92
   2   1  -5  927.23   50.84
   2   1  -5  884.62   51.62
  -2  -1   5 1030.34   52.35
   2   1  -5  980.61   52.13
  -2  -1   5  972.99   52.40
  -2  -1   5  936.69   51.63
   2   1  -5  964.43   51.94
   2   1  -4  718.17   41.22
  -2  -1   4  704.73   39.92
   2   1  -4  723.80   39.88
   2   1  -4  738.00   40.21
   2   1  -4  776.62   40.44
  -2  -1   4  770.04   40.62
   2   1  -4  768.38   39.51
  -2  -1   4  693.32   39.29
   2   1  -3 2467.86  128.90
   2   1  -3 2417.14  128.45
   2   1  -3 2639.54  129.72
  -2  -1   3 2412.18  128.22
   2   1  -3 2628.77  129.06
  -2  -1   3 2218.10  128.50
   2   1  -3 2529.21  128.38
   2   1  -2  472.85   25.05
   2   1  -2  463.53   25.27
  -2  -1   2  459.46   24.59
   2   1  -2  467.93   24.71
  -2  -1   2  404.01   25.03
   2   1  -2  523.24   24.72
   2   1  -2  490.49   25.56
   2   1  -1  222.64   11.99
  -2  -1   1  191.79   11.17
  -2  -1   1  206.92   11.08
  -2  -1   0 1049.43   49.66
  -2  -1   0 1191.21   50.00
   2   1   1    3.06    2.68
   2   1   1    5.31    1.10
  -2  -1  -1    6.40    1.88
   2   1   1    4.45    2.79
   2   1   1    6.13    1.19
   2   1   2    1.57    1.36
  -2  -1  -2    2.21    1.59
   2   1   2    2.36    2.48
  -2  -1  -3    5.14    1.79
  -2  -1  -3    5.88    1.55
   2   1   3    8.10    2.58
  -2  -1  -4  912.42   51.14
  -2  -1  -4 1017.16   51.02
   2   1   4 1018.82   52.13
  -2  -1  -5  225.73   12.91
  -2  -1  -5  206.08   12.44
  -2  -1  -5  180.10   12.26
   2   1   5  204.65   13.34
  -2  -1  -6  521.08   27.14
  -2  -1  -6  430.78   26.76
  -2  -1  -6  481.20   27.05
   2   1   6  465.97   27.86
  -2  -1  -7   33.35    3.91
  -2  -1  -7   40.27    4.19
   2   1   7   41.29    4.57
   2   1   7   39.67    4.87
  -2  -1  -8    9.96    2.75
   2   1   8    9.08    3.34
  -2  -1  -8    7.84    2.45
   2   1   9    8.20    2.20
   2   1   9    4.72    3.21
   2   1  10   55.23    6.37
   2   1  10   52.78    4.63
  -2  -1 -11   42.24    6.48
   2   1  11   51.16    6.89
   2   1  12   79.45    9.32
  -2  -1 -12   76.60    8.70
   2   1  13   14.39    6.74
  -2  -2  15    3.34    6.35
  -2  -2  14   70.24    8.92
  -2  -2  14   55.75    7.34
   2   2 -14   60.73    7.20
   2   2 -13    8.25    3.60
  -2  -2  13    9.25    4.29
  -2  -2  13   18.13    6.07
  -2  -2  13   14.54    5.65
  -2  -2  12   45.44    6.40
  -2  -2  12   49.56    6.79
  -2  -2  12   49.21    5.80
   2   2 -12   48.71    5.79
   2   2 -11    0.39    2.37
  -2  -2  11   -0.97    4.13
  -2  -2  11   -6.17    4.83
  -2  -2  11    2.77    3.74
  -2  -2  10  103.02    9.53
  -2  -2  10  111.24    9.16
  -2  -2  10  100.60    8.58
   2   2 -10   93.78    8.22
  -2  -2   9   78.90    7.81
   2   2  -9   75.90    7.12
  -2  -2   9   79.24    7.02
  -2  -2   9   83.20    6.64
  -2  -2   9   78.57    6.83
   2   2  -9   74.28    6.64
  -2  -2   8  705.95   39.59
  -2  -2   8  695.75   38.72
   2   2  -8  703.94   38.95
  -2  -2   8  715.04   38.66
  -2  -2   8  643.47   38.09
   2   2  -8  640.74   38.30
   2   2  -7   14.21    2.97
   2   2  -7   11.69    1.07
   2   2  -7   10.71    2.41
  -2  -2   7   11.51    2.65
  -2  -2   7   11.59    2.39
  -2  -2   7   15.10    3.54
   2   2  -6  448.00   24.23
  -2  -2   6  470.75   26.86
  -2  -2   6  454.33   25.78
   2   2  -6  472.40   26.10
   2   2  -6  423.21   25.79
   2   2  -5 2779.73  149.28
  -2  -2   5 3007.35  149.28
  -2  -2   5 2911.84  150.14
   2   2  -5 2818.15  149.36
  -2  -2   5 2724.03  149.43
  -2  -2   5 2722.04  147.92
   2   2  -4 4222.20  235.95
   2   2  -4 3998.54  236.95
  -2  -2   4 4466.78  236.07
  -2  -2   4 4331.92  234.96
   2   2  -4 4417.05  235.93
   2   2  -3  723.32   40.05
  -2  -2   3  708.55   39.13
   2   2  -3  801.39   40.90
   2   2  -3  683.01   39.72
  -2  -2   3  716.69   40.32
  -2  -2   3  769.19   40.14
  -2  -2   2   95.14    5.94
  -2  -2   2  106.04    5.73
  -2  -2   2   99.27    4.47
   2   2  -2  117.22    6.03
  -2  -2   1  431.87   25.37
  -2  -2   1  464.87   24.65
   2   2  -1  503.18   24.68
   2   2  -1  466.71   25.54
   2   2  -1  484.22   26.16
  -2  -2   0 1742.23  102.12
  -2  -2   0 1750.97  101.50
   2   2   1  797.43   49.35
   2   2   1  817.98   50.12
  -2  -2  -2 1061.44   48.27
   2   2   2 1049.50   50.55
  -2  -2  -2  944.12   49.95
  -2  -2  -3   10.16    1.84
  -2  -2  -3   11.98    1.80
  -2  -2  -3   10.53    2.80
   2   2   3   11.84    3.03
   2   2   3    6.82    2.75
  -2  -2  -4   59.38    4.59
   2   2   4   64.69    4.25
  -2  -2  -4   56.29    4.51
   2   2   4   54.52    4.44
   2   2   4   58.50    5.90
  -2  -2  -4   54.25    5.61
  -2  -2  -5  474.06   26.41
   2   2   5  491.04   25.90
  -2  -2  -5  448.21   26.58
   2   2   5  478.35   26.77
  -2  -2  -5  463.28   27.99
   2   2   5  441.43   27.74
   2   2   6    3.77    1.24
   2   2   6    1.25    2.61
  -2  -2  -6    5.71    2.10
   2   2   6    3.53    2.01
  -2  -2  -6    5.34    2.86
  -2  -2  -7   10.66    2.63
   2   2   7    8.13    2.91
  -2  -2  -7   13.95    3.70
  -2  -2  -8   14.18    3.29
   2   2   8   23.21    4.32
   2   2   8   26.02    2.57
  -2  -2  -8   22.67    4.66
   2   2   9  263.93   15.35
   2   2   9  298.84   18.12
  -2  -2  -9  254.36   18.32
  -2  -2 -10   -1.64    3.17
   2   2  10    4.37    3.79
   2   2  11  130.41   10.96
  -2  -2 -11   97.09   10.26
   2   2  12   13.30    6.69
  -2  -3  16   15.25    5.98
  -2  -3  15   84.84    9.84
   2   3 -14   42.81    6.19
  -2  -3  14   44.10    6.31
  -2  -3  14   53.69    7.69
  -2  -3  13   99.25    9.07
  -2  -3  13  103.02    9.82
   2   3 -13   87.90    8.68
  -2  -3  12  132.19   11.71
  -2  -3  12  136.93   10.60
  -2  -3  12  123.41   10.69
   2   3 -12  115.21   10.00
   2   3 -11   27.59    4.33
  -2  -3  11   23.28    5.74
  -2  -3  11   23.58    4.42
  -2  -3  11   27.17    4.61
   2   3 -10    8.65    2.97
  -2  -3  10    9.01    5.04
  -2  -3  10   12.94    3.78
  -2  -3  10    9.11    3.47
   2   3  -9  284.47   18.67
  -2  -3   9  307.90   20.35
  -2  -3   9  301.02   18.80
   2   3  -9  297.61   19.24
  -2  -3   9  327.23   19.19
   2   3  -8  167.83   11.62
  -2  -3   8  163.88   12.75
  -2  -3   8  160.66   11.17
   2   3  -8  163.47   11.25
  -2  -3   8  173.93   11.60
   2   3  -7    1.73    1.97
   2   3  -7    1.83    2.17
  -2  -3   7    1.29    1.55
  -2  -3   7    2.31    3.15
  -2  -3   6    2.70    3.33
   2   3  -6    2.80    1.94
  -2  -3   6    1.36    0.64
  -2  -3   6    2.51    2.36
  -2  -3   6    0.68    1.70
   2   3  -6    2.30    1.94
   2   3  -5  643.08   36.45
  -2  -3   5  653.23   34.98
  -2  -3   5  687.91   36.86
  -2  -3   5  638.21   35.84
   2   3  -5  639.54   36.40
  -2  -3   4  102.83    6.20
  -2  -3   4  101.91    6.50
   2   3  -4   77.87    8.40
  -2  -3   4   97.01    8.18
   2   3  -4  106.75    7.51
  -2  -3   4  110.51    7.52
  -2  -3   3 1721.98   92.91
   2   3  -3 1655.79   93.16
  -2  -3   3 1636.37   93.48
  -2  -3   3 1595.91   92.00
   2   3  -3 1745.75   93.72
  -2  -3   3 1935.99   92.16
  -2  -3   3 1738.53   92.98
  -2  -3   2    9.59    2.64
   2   3  -2    4.90    1.67
  -2  -3   2    7.11    1.93
  -2  -3   2    5.93    2.34
  -2  -3   1 1619.55   85.15
   2   3  -1 1665.25   84.31
  -2  -3   0 2510.88  108.33
   2   3   0 2291.07  105.73
   2   3   0 2444.89  106.68
   2   3   1 3898.80  211.36
  -2  -3  -1 4197.15  210.98
  -2  -3  -1 3795.34  210.15
   2   3   1 4478.34  210.29
  -2  -3  -1 3417.69  212.27
   2   3   1 3640.34  210.54
  -2  -3  -2   18.99    3.62
  -2  -3  -2   25.97    2.27
   2   3   2   27.38    2.50
   2   3   2   26.51    4.25
   2   3   2   30.34    2.68
  -2  -3  -3   79.03    5.64
  -2  -3  -3   81.41    5.78
   2   3   3   90.46    5.88
   2   3   3   85.37    7.66
  -2  -3  -3   81.72    7.35
   2   3   4   35.41    3.33
  -2  -3  -4   49.81    3.69
   2   3   4   51.93    3.98
   2   3   4   46.51    5.38
  -2  -3  -4   49.92    5.36
   2   3   5  608.54   11.30
  -2  -3  -5  574.63   15.31
   2   3   5  595.78   15.25
  -2  -3  -6   86.92    6.72
   2   3   6  117.01    7.50
   2   3   6   92.86    5.36
  -2  -3  -6  105.64    8.60
  -2  -3  -7  243.02   15.20
  -2  -3  -7  215.42   13.19
   2   3   7  202.70   10.94
  -2  -3  -8   32.82    4.60
  -2  -3  -8   43.15    6.01
   2   3   9    0.91    3.51
  -2  -3  -9   -1.64    3.53
   2   3  10  101.61   10.03
  -2  -3 -10   70.34    8.64
  -2  -3 -11   -0.97    4.25
   2   3  11   18.09    7.27
  -2  -4  16  112.33   11.23
  -2  -4  15   38.00    7.59
   2   4 -14   -1.29    3.39
  -2  -4  14   -2.35    4.24
  -2  -4  14   -0.90    3.99
   2   4 -13    5.92    3.24
  -2  -4  13   11.52    4.12
  -2  -4  13   12.39    4.20
   2   4 -12   18.80    4.05
  -2  -4  12   30.81    5.16
  -2  -4  12   25.52    4.94
  -2  -4  12   21.89    6.42
  -2  -4  11   26.39    4.71
  -2  -4  11   21.51    4.29
  -2  -4  11   24.00    6.17
   2   4 -11   23.79    4.07
  -2  -4  10  248.00   19.31
  -2  -4  10  279.69   17.59
  -2  -4  10  284.11   18.01
   2   4 -10  264.74   17.46
  -2  -4   9  355.83   25.89
  -2  -4   9  420.40   24.37
  -2  -4   9  436.07   25.07
   2   4  -9  402.41   24.43
   2   4  -8  273.48   16.81
  -2  -4   8  235.85   18.19
  -2  -4   8  282.38   16.59
   2   4  -8  260.02   16.90
  -2  -4   8  266.52   16.44
   2   4  -7  238.36   15.47
  -2  -4   7  238.84   15.09
   2   4  -7  242.58   15.62
  -2  -4   7  263.67   16.06
  -2  -4   7  260.19   15.47
   2   4  -6   12.04    2.61
  -2  -4   6   14.10    1.30
   2   4  -6   11.80    2.57
  -2  -4   6   12.30    2.75
  -2  -4   6   10.82    2.03
  -2  -4   6   15.44    2.62
  -2  -4   5    1.57    1.78
  -2  -4   5    1.94    3.20
   2   4  -5    2.82    2.00
  -2  -4   5    3.21    2.18
  -2  -4   5    1.12    0.96
  -2  -4   5    1.40    1.29
  -2  -4   4  434.62   23.84
   2   4  -4  405.01   25.01
   2   4  -4  427.37   22.67
  -2  -4   4  384.92   22.70
   2   4  -4  430.50   24.14
  -2  -4   4  349.70   24.76
  -2  -4   4  438.31   24.19
  -2  -4   3  360.89    9.30
  -2  -4   3  295.71    4.82
   2   4  -3  307.24    7.60
  -2  -4   3  262.21    9.98
  -2  -4   3  330.30    9.00
  -2  -4   2   36.05    4.20
  -2  -4   2   33.61    5.06
   2   4  -2   28.56    3.20
  -2  -4   2   34.23    3.95
  -2  -4   1  226.50   13.15
  -2  -4   1  213.97   14.21
   2   4  -1  189.27   11.97
  -2  -4   1  199.58   13.29
   2   4  -1  213.32   12.93
   2   4   0  713.47   33.32
  -2  -4   0  722.63   35.02
  -2  -4  -1   22.97    3.00
   2   4   1   20.62    2.95
  -2  -4  -1   18.90    3.61
  -2  -4  -1   17.82    1.59
   2   4   1   17.71    1.90
   2   4   2  797.35   44.40
  -2  -4  -2  689.94   43.45
   2   4   2  738.81   41.10
  -2  -4  -3    4.01    2.77
  -2  -4  -3    4.84    1.22
   2   4   3    2.53    3.26
   2   4   3   -0.15    0.40
   2   4   3    2.96    1.93
   2   4   4  804.57   42.65
   2   4   4  753.54   44.39
  -2  -4  -4  724.59   44.26
   2   4   5 1001.01   62.19
  -2  -4  -5 1033.54   62.33
   2   4   6  518.97   27.63
  -2  -4  -6  398.80   28.16
   2   4   7   44.21    5.63
  -2  -4  -7   34.19    5.50
  -2  -4  -8   10.93    3.84
  -2  -4  -9   10.66    4.22
  -2  -4 -10   59.90    7.98
  -2  -5  15   30.14    7.21
  -2  -5  15   53.99    7.49
   2   5 -14    4.75    3.57
  -2  -5  14    3.37    4.14
  -2  -5  14    1.73    3.65
   2   5 -13    5.09    3.38
  -2  -5  13    2.90    3.71
  -2  -5  13   -0.26    3.33
   2   5 -12    1.34    2.81
  -2  -5  12    6.22    3.94
  -2  -5  12    1.14    3.31
  -2  -5  11  650.72   46.07
  -2  -5  11  784.90   44.40
  -2  -5  11  881.29   45.42
   2   5 -11  749.93   44.20
  -2  -5  10   80.05    7.80
   2   5 -10   62.27    5.74
  -2  -5  10   74.93    7.04
   2   5 -10   67.64    6.58
  -2  -5   9    1.08    2.10
   2   5  -9    0.52    2.24
   2   5  -9    1.10    2.00
  -2  -5   9    0.62    2.29
  -2  -5   9   -2.77    4.59
   2   5  -8   37.41    4.52
   2   5  -8   35.29    3.68
  -2  -5   8   40.07    4.97
  -2  -5   8   34.43    3.99
  -2  -5   8   39.08    4.23
   2   5  -7  120.35    8.95
  -2  -5   7  107.39    6.66
   2   5  -7  127.96    8.13
  -2  -5   7  126.75    8.42
   2   5  -7  116.18    8.81
  -2  -5   7  131.14    8.87
  -2  -5   7  135.85    9.63
  -2  -5   7  134.13    6.95
  -2  -5   6   21.69    4.95
  -2  -5   6   23.64    3.25
   2   5  -6   19.05    3.13
  -2  -5   6   19.14    1.87
  -2  -5   6   23.64    3.74
   2   5  -6   21.65    2.55
   2   5  -5  381.79   22.21
   2   5  -5  383.23   20.79
  -2  -5   5  315.23   22.88
  -2  -5   5  372.03   21.82
  -2  -5   5  362.74   22.13
  -2  -5   4 1262.27   65.29
   2   5  -4 1200.10   65.40
  -2  -5   4 1002.84   65.74
   2   5  -4 1245.10   63.68
   2   5  -4 1117.62   64.54
  -2  -5   4 1198.59   65.26
  -2  -5   3   91.38    8.61
   2   5  -3  115.93    7.73
  -2  -5   3  126.53    8.64
  -2  -5   3  110.03    6.48
  -2  -5   3  118.63    8.20
   2   5  -2  241.73   15.02
  -2  -5   2  276.39   16.55
   2   5  -2  272.93   16.13
  -2  -5   2  282.44   15.76
   2   5  -1  171.18   10.64
   2   5  -1  155.45    9.65
  -2  -5   1  176.11   12.16
  -2  -5   1  166.03   10.29
   2   5   0    1.98    1.26
   2   5   0    1.35    1.76
  -2  -5   0    2.58    2.93
  -2  -5   0    1.89    2.31
  -2  -5  -1  101.41    8.10
   2   5   1  128.62    8.03
   2   5   1  105.75    6.89
  -2  -5  -1  131.58    9.65
   2   5   2  156.17    6.15
  -2  -5  -2  137.73    7.92
  -2  -5  -3   80.36    7.69
   2   5   3   82.58    6.17
   2   5   4   18.68    3.04
  -2  -5  -4   17.25    4.21
   2   5   5  274.12   15.84
  -2  -5  -5  231.10   17.53
   2   5   6   33.55    4.13
  -2  -5  -6   28.56    5.21
   2   5   7  158.98   10.14
  -2  -5  -7  130.10   11.95
  -2  -5  -8    3.32    3.99
  -2  -5  -9  130.91   12.19
  -2  -6  15   10.46    4.93
  -2  -6  15    9.21    4.88
   2   6 -14   24.02    4.90
  -2  -6  14   30.13    5.79
  -2  -6  14   27.81    5.45
   2   6 -13   51.08    6.52
  -2  -6  13   58.53    7.06
  -2  -6  13   63.96    7.70
   2   6 -12  719.92   44.59
  -2  -6  12  781.54   44.94
  -2  -6  12  835.35   46.04
   2   6 -11  235.21   16.08
  -2  -6  11  222.42   15.84
  -2  -6  11  254.06   17.08
   2   6 -10  110.35    9.10
  -2  -6  10  105.60   11.46
   2   6 -10  112.58    8.35
  -2  -6  10  118.59    9.18
   2   6  -9   54.58    5.76
   2   6  -9   53.82    5.07
  -2  -6   9   54.32    5.31
  -2  -6   9   52.49    6.35
   2   6  -8   35.63    4.62
  -2  -6   8   33.83    5.00
   2   6  -8   33.08    3.78
  -2  -6   8   32.48    4.35
   2   6  -7   50.62    5.39
  -2  -6   7   46.31    3.43
   2   6  -7   60.89    4.74
  -2  -6   7   64.74    6.49
  -2  -6   7   52.16    7.18
  -2  -6   7   48.83    5.03
   2   6  -6 1750.45  103.23
   2   6  -6 2001.55  102.20
  -2  -6   6 1827.48  103.73
  -2  -6   6 1952.51  105.51
  -2  -6   6 1929.44  103.20
  -2  -6   5   14.84    3.06
  -2  -6   5   12.13    4.01
  -2  -6   5   11.63    3.03
  -2  -6   4   10.70    2.78
  -2  -6   4    7.63    2.47
  -2  -6   4    9.46    3.41
  -2  -6   4    8.34    1.38
   2   6  -4   10.32    2.25
  -2  -6   3   21.15    3.81
   2   6  -3   26.20    3.15
  -2  -6   3   27.89    2.12
  -2  -6   3   18.53    4.12
  -2  -6   3   24.01    3.36
  -2  -6   2  285.23   18.51
  -2  -6   2  287.52   18.68
   2   6  -2  301.42   18.34
   2   6  -2  295.41   17.18
  -2  -6   2  294.95   17.77
  -2  -6   1    0.65    2.81
  -2  -6   1    0.71    0.55
  -2  -6   1    1.41    1.45
  -2  -6   1    1.81    0.55
   2   6  -1    2.16    1.96
  -2  -6   1    0.47    2.22
  -2  -6   0   70.06    6.22
   2   6   0   63.53    4.27
   2   6   1  830.07   38.90
   2   6   1  855.40   37.84
  -2  -6  -1  943.12   41.52
   2   6   2   57.87    5.00
  -2  -6  -2   59.42    6.47
   2   6   3   11.21    2.73
   2   6   3    5.79    4.17
  -2  -6  -3   10.25    3.43
  -2  -6  -4  168.56   13.47
   2   6   4  186.08   11.58
   2   6   5   15.02    3.05
  -2  -6  -5    7.59    3.79
  -2  -6  -6    3.01    3.26
   2   6   6    8.49    2.58
  -2  -6  -7   27.88    5.66
  -2  -6  -8    7.71    4.37
  -2  -6  -9   15.15    5.21
  -2  -7  15    7.14    4.98
  -2  -7  15    1.25    4.54
  -2  -7  14  109.07   10.28
  -2  -7  14  109.56   10.90
  -2  -7  13  180.70   14.37
  -2  -7  13  206.52   15.61
  -2  -7  12    0.30    4.11
  -2  -7  12    0.69    3.03
  -2  -7  11    7.43    3.60
   2   7 -10  171.81   11.94
  -2  -7  10  185.14   13.96
   2   7  -9  124.56    8.84
  -2  -7   9  113.67   10.64
   2   7  -8  500.12   27.57
  -2  -7   8  501.58   31.27
  -2  -7   8  489.50   29.49
  -2  -7   8  461.57   26.16
  -2  -7   7 1971.10  113.41
  -2  -7   7 2002.80  112.45
  -2  -7   6  181.98   14.08
  -2  -7   6  202.55   13.71
  -2  -7   5   83.33    7.18
  -2  -7   5   66.42    7.19
  -2  -7   5   82.50    5.56
  -2  -7   4  252.97   16.02
  -2  -7   4  292.14   17.67
  -2  -7   4  245.63   13.76
  -2  -7   3   10.43    3.26
  -2  -7   3    8.84    2.66
  -2  -7   3   11.55    4.34
  -2  -7   2  226.10   13.95
  -2  -7   2  206.21   13.92
  -2  -7   2  188.56   10.82
  -2  -7   2  208.70   14.33
  -2  -7   2  170.97   12.42
  -2  -7   1 1002.02   45.22
   2   7  -1  775.27   42.86
  -2  -7   1  884.77   43.58
  -2  -7   1  975.11   45.20
  -2  -7   1  679.57   40.71
  -2  -7   1  761.85   42.25
  -2  -7   0   19.79    4.30
   2   7   0   15.12    3.00
  -2  -7   0    9.68    2.53
   2   7   0   14.69    1.73
  -2  -7  -1   12.66    2.05
   2   7   1   15.18    2.04
  -2  -7  -1   16.46    4.00
   2   7   1   16.00    2.93
  -2  -7  -2    1.39    3.00
   2   7   2    5.04    2.87
  -2  -7  -3  129.66   10.70
   2   7   3  121.48    8.61
   2   7   4    1.63    2.12
  -2  -7  -4   -1.57    3.60
   2   7   5    0.84    1.95
  -2  -7  -5    0.28    3.45
  -2  -7  -6  181.35   14.41
  -2  -7  -7   -0.31    4.02
  -2  -7  -8    5.75    4.56
  -2  -8  15  159.50   13.61
  -2  -8  14    5.27    4.76
  -2  -8  14    0.85    3.74
  -2  -8  13   -0.34    4.41
  -2  -8  13    0.26    3.63
  -2  -8  12    1.17    3.05
  -2  -8  11   47.39    7.06
  -2  -8  10    9.62    4.51
   2   8 -10    8.68    3.00
  -2  -8   9   92.94   10.38
  -2  -8   9   76.01    8.52
  -2  -8   8  534.39   33.56
  -2  -8   8  524.59   30.55
  -2  -8   7    4.20    4.99
   2   8  -7    3.86    3.12
  -2  -8   7    7.48    3.73
  -2  -8   6   23.49    4.19
  -2  -8   6   19.44    4.49
  -2  -8   6   24.60    2.79
  -2  -8   5  362.16   22.19
  -2  -8   5  361.15   20.07
  -2  -8   4  237.92   16.39
  -2  -8   4  249.68   14.22
  -2  -8   3  563.21   33.54
  -2  -8   3  458.94   32.21
  -2  -8   2 1429.06   70.02
  -2  -8   2 1594.29   69.85
  -2  -8   2 1165.02   66.20
  -2  -8   2 1450.19   70.50
  -2  -8   2 1048.67   67.64
  -2  -8   1   14.95    4.46
  -2  -8   1   22.67    4.54
  -2  -8   1   17.66    3.09
  -2  -8   1   11.49    1.96
  -2  -8   0    2.50    2.53
   2   8   0    2.70    1.38
   2   8   1  154.19   11.61
   2   8   1  182.80   10.88
  -2  -8  -2   -0.49    3.28
   2   8   2    2.04    1.90
   2   8   2   -0.76    2.54
   2   8   3   73.56    6.36
  -2  -8  -3   99.09    8.83
   2   8   4  108.94    7.94
  -2  -8  -4  125.66   10.77
  -2  -8  -5   23.41    5.36
  -2  -8  -6    5.52    4.24
  -2  -8  -7   -0.97    4.11
  -2  -9  15    7.88    4.70
   2   9 -14    0.29    3.64
  -2  -9  14    2.26    4.93
  -2  -9  14    0.86    4.01
   2   9 -13   11.92    4.32
  -2  -9  13    8.67    3.90
   2   9 -12    0.26    3.31
  -2  -9  12   -0.69    4.35
   2   9 -11  123.96   10.44
  -2  -9  11  115.56   11.44
   2   9 -10  325.19   21.31
  -2  -9  10  322.66   22.45
   2   9  -9   16.11    4.00
  -2  -9   9   12.84    4.49
  -2  -9   8   -0.82    3.33
   2   9  -8    2.95    3.05
  -2  -9   7    0.33    5.00
   2   9  -7   -0.88    2.77
  -2  -9   7   -0.26    3.41
  -2  -9   7    0.86    2.59
  -2  -9   6  180.29   12.76
  -2  -9   6   93.96    9.97
  -2  -9   5   84.77    8.92
  -2  -9   5   56.96    6.83
  -2  -9   4   -0.20    2.80
  -2  -9   4    1.79    4.43
  -2  -9   3  520.02   30.86
  -2  -9   3  608.53   34.63
  -2  -9   3  508.58   32.74
  -2  -9   2   19.54    3.51
  -2  -9   2   21.22    4.26
  -2  -9   2   21.45    4.74
  -2  -9   1   67.29    6.33
  -2  -9   1   59.79    6.95
  -2  -9   1   50.57    5.13
  -2  -9   0  312.64   20.77
  -2  -9  -1   81.64    7.91
   2   9   1   63.30    5.08
   2   9   2  237.75   14.63
  -2  -9  -2  256.43   17.31
  -2  -9  -3  304.13   19.43
   2   9   3  259.53   16.58
  -2  -9  -4    7.29    4.54
  -2  -9  -5    0.30    3.65
  -2  -9  -6   27.10    5.94
  -2 -10  14   31.27    6.11
  -2 -10  13   62.99    9.06
   2  10 -13   66.22    7.85
   2  10 -12   -1.42    3.61
  -2 -10  12   -2.95    4.66
   2  10 -11   58.04    7.16
  -2 -10  11   53.75    7.94
   2  10 -10   40.55    5.97
  -2 -10  10   38.75    6.75
   2  10  -9    7.09    3.54
  -2 -10   9    4.34    3.99
   2  10  -8   49.83    6.25
  -2 -10   8   38.77    6.37
  -2 -10   7   15.18    3.52
  -2 -10   7   17.68    4.59
  -2 -10   6  306.94   19.10
  -2 -10   6  208.52   16.83
  -2 -10   5  103.15    9.18
  -2 -10   5  116.97   10.19
  -2 -10   4   26.66    4.27
  -2 -10   4   23.42    4.56
  -2 -10   3    0.23    3.49
  -2 -10   3   -0.77    3.02
  -2 -10   3   -0.83    3.50
  -2 -10   2    0.21    3.05
  -2 -10   2   -1.20    2.86
  -2 -10   2   -0.78    3.43
  -2 -10   1   52.14    6.74
  -2 -10   0   41.48    6.02
  -2 -10  -1   39.14    5.88
  -2 -10  -2  143.48   12.00
  -2 -10  -3   11.34    4.48
  -2 -10  -4   40.76    6.69
  -2 -10  -5   41.17    6.83
   2  11 -13   54.62    7.85
   2  11 -12   89.70    9.25
  -2 -11  12   70.31    9.71
   2  11 -11    5.27    4.08
  -2 -11  11    1.11    4.57
   2  11 -10   21.54    5.20
  -2 -11  10   28.62    6.15
  -2 -11   9   59.53    8.03
  -2 -11   8  100.52   10.15
  -2 -11   7   11.29    4.10
  -2 -11   6  140.48   11.75
  -2 -11   5  143.54   11.86
  -2 -11   5  115.05   10.48
  -2 -11   4   -2.09    3.72
  -2 -11   4   -0.22    3.26
  -2 -11   4   -0.29    3.78
  -2 -11   3   74.82    8.12
  -2 -11   2    8.15    3.97
  -2 -11   1  108.47    9.96
  -2 -11   0   36.43    5.74
  -2 -11  -1   57.60    7.14
  -2 -11  -2   -1.12    3.56
  -2 -11  -3    3.57    3.91
  -2 -11  -4    6.57    4.29
   2  12 -12   21.88    5.95
  -2 -12  11  146.85   13.72
   2  12 -11  127.83   12.09
  -2 -12  10  109.61   11.43
  -2 -12   9  339.94   23.75
  -2 -12   8    4.17    4.42
  -2 -12   7   71.40    8.43
  -2 -12   6    2.85    3.19
  -2 -12   6    0.28    3.33
  -2 -12   5   46.11    6.28
  -2 -12   5   47.24    7.28
  -2 -12   4   36.01    6.19
  -2 -12   3   35.97    5.91
  -2 -12   2   61.21    7.55
  -2 -12   1    8.40    4.10
  -2 -12   0   49.44    6.71
  -2 -12  -1    2.49    3.61
  -2 -12  -2   13.41    4.60
  -2 -13  10   42.55    7.71
  -2 -13   9    1.41    4.76
  -2 -13   8  149.13   13.31
  -2 -13   7   61.68    7.92
  -2 -13   6  119.68   12.34
  -2 -13   6  170.71   12.85
  -2 -13   5   81.94    7.88
  -2 -13   5   76.64    9.14
  -2 -13   4  143.20   12.37
  -2 -13   3    9.44    4.44
  -2 -13   2   47.79    6.71
  -2 -13   1    0.28    3.71
  -2 -13   0    7.29    4.25
  -2 -13  -1    4.34    4.11
  -2 -14   9   22.84    6.05
  -2 -14   8   14.00    5.17
  -2 -14   7    4.27    4.72
  -2 -14   6    7.69    5.12
  -2 -14   5   16.86    5.52
  -2 -14   4    7.04    3.83
  -2 -14   4    7.74    4.61
  -2 -14   3   76.51    8.80
  -2 -14   2   17.00    5.05
  -3  14  -1   90.38    9.51
  -3  14  -1   99.16   10.23
  -3  14  -2   15.33    5.31
   3 -14   3   29.48    6.42
   3 -14   4   29.35    6.41
   3 -14   5    1.99    4.62
   3 -14   6    1.92    4.55
   3 -14   7   49.05    7.56
  -3  13   1   17.31    5.16
   3 -13   0   19.39    5.69
  -3  13   0   20.52    5.14
  -3  13   0   23.02    5.59
   3 -13   1   11.90    5.32
  -3  13  -1   12.18    4.77
  -3  13  -1   18.62    5.18
   3 -13   2    1.30    4.35
  -3  13  -2   -0.30    4.09
  -3  13  -2   -0.31    3.91
   3 -13   3    7.34    4.65
  -3  13  -3   12.58    4.94
   3 -13   4    3.47    4.25
  -3  13  -4    1.32    4.11
   3 -13   5   62.21    8.25
  -3  13  -5   63.51    8.66
   3 -13   6  221.28   16.80
   3 -13   7   18.95    5.26
   3 -13   7   17.80    5.59
   3 -13   8   85.33    8.90
   3 -13   8   69.09    9.11
  -3  12   3   19.57    5.17
  -3  12   2  101.74    9.94
   3 -12  -1   -1.94    4.47
  -3  12   1    3.97    3.85
  -3  12   1    2.64    3.94
   3 -12   0   61.56    8.44
  -3  12   0   82.66    8.34
  -3  12   0   82.57    8.76
   3 -12   1    5.62    4.41
  -3  12  -1   13.66    4.62
  -3  12  -1   14.27    4.98
   3 -12   2    1.21    4.11
  -3  12  -2    3.53    4.26
  -3  12  -2    4.23    4.19
   3 -12   3   27.02    6.03
  -3  12  -3   33.91    6.25
   3 -12   4    6.88    4.13
  -3  12  -4    7.88    4.81
   3 -12   5   98.64    9.67
  -3  12  -5   88.93   10.30
  -3  12  -6   23.97    6.53
   3 -12   6   21.92    5.11
  -3  12  -7   12.15    5.65
   3 -12   7   14.13    4.57
   3 -12   7    9.49    4.67
   3 -12   8    4.18    3.92
   3 -12   8    0.66    3.66
   3 -12   9    6.67    4.45
   3 -12  10  135.63   12.40
   3 -11  -5    4.69    4.74
  -3  11   5    4.91    4.24
   3 -11  -4    0.65    4.38
  -3  11   4    2.88    3.96
   3 -11  -3    7.68    4.64
  -3  11   3    2.87    3.45
  -3  11   3    5.65    3.96
  -3  11   2   26.96    5.19
  -3  11   2   30.61    5.57
   3 -11  -1   39.62    6.55
  -3  11   1   40.66    6.16
  -3  11   1   45.98    6.43
   3 -11   0    0.89    3.90
  -3  11   0   -3.11    3.75
  -3  11   0    0.85    3.58
   3 -11   1   38.73    6.30
  -3  11  -1   39.12    6.08
  -3  11  -1   36.85    6.09
  -3  11  -2  114.22   10.91
  -3  11  -2  125.20   11.34
   3 -11   2  139.85   11.60
  -3  11  -3  167.32   13.79
   3 -11   3  168.14   13.50
   3 -11   4    1.30    3.41
  -3  11  -4    2.90    4.36
   3 -11   5  187.07   14.02
  -3  11  -5  174.64   15.00
  -3  11  -6   -2.53    4.81
   3 -11   6   -0.93    3.32
  -3  11  -7   12.88    5.75
   3 -11   7   11.40    4.16
   3 -11   7    9.43    4.40
   3 -11   8   36.46    6.19
   3 -11   8   42.11    5.76
   3 -11   9    2.79    3.74
   3 -11   9    2.19    3.18
   3 -11  10   88.23    9.43
   3 -11  11   23.51    5.55
   3 -10  -6   34.35    6.44
  -3  10   6   33.44    6.33
  -3  10   5   55.21    7.30
   3 -10  -5   48.67    7.37
  -3  10   4   -0.29    3.75
   3 -10  -4    1.85    4.09
  -3  10   4    4.87    3.29
  -3  10   3  153.40   11.09
  -3  10   3  143.40   12.02
   3 -10  -3  124.72   12.08
  -3  10   2    9.48    3.68
  -3  10   2    4.60    3.72
  -3  10   1   59.60    6.76
  -3  10   1   66.17    7.46
   3 -10  -1   56.30    7.54
   3 -10   0   34.16    5.85
  -3  10   0   27.53    5.10
  -3  10   0   34.16    5.72
  -3  10  -1    1.62    3.11
   3 -10   1    6.00    3.78
  -3  10  -1    2.88    3.46
   3 -10   2    8.00    3.93
  -3  10  -2    3.37    3.84
  -3  10  -2   11.98    4.23
   3 -10   3   43.97    5.93
  -3  10  -3   38.81    6.31
   3 -10   4   58.16    6.83
  -3  10  -4   59.16    7.76
  -3  10  -5   14.99    4.94
   3 -10   5   13.70    4.14
  -3  10  -6   72.05    5.43
   3 -10   6   80.61    7.66
  -3  10  -7  201.78   12.25
   3 -10   7  191.05   13.85
   3 -10   7  187.16   14.84
  -3  10  -8  106.45    7.73
   3 -10   8   96.72    8.57
  -3  10  -8  100.68   11.33
   3 -10   8  108.36   10.06
  -3  10  -9    2.33    2.50
   3 -10   9    0.57    3.52
   3 -10   9    0.36    2.71
   3 -10  10   46.25    6.78
  -3  10 -10   60.14    5.79
  -3  10 -11    3.03    3.05
  -3  10 -12   12.38    3.85
   3  -9  -8    0.96    4.40
   3  -9  -7    0.62    4.43
   3  -9  -6   -1.82    4.25
   3  -9  -5    3.82    4.36
  -3   9   5    8.35    3.09
  -3   9   5    4.37    3.97
  -3   9   4   87.88    7.38
  -3   9   4   93.03    9.05
   3  -9  -4   67.67    8.34
   3  -9  -3   47.71    7.07
  -3   9   3   63.01    6.15
  -3   9   3   65.14    7.51
  -3   9   2  175.60   12.45
  -3   9   2  168.95   13.37
  -3   9   1  258.95   17.25
  -3   9   1  255.24   18.11
   3  -9  -1  261.57   17.30
   3  -9  -1  268.16   18.30
  -3   9   0  152.93   12.10
   3  -9   0  177.02   13.01
   3  -9   1    1.62    3.25
  -3   9  -1    1.84    3.04
  -3   9  -2  553.82   34.77
   3  -9   2  598.24   34.63
  -3   9  -3  202.69   16.33
   3  -9   3  246.25   15.93
   3  -9   4  125.35    9.94
  -3   9  -4  114.95   11.20
  -3   9  -5   15.33    2.05
   3  -9   5   20.66    3.88
  -3   9  -6   37.50    3.39
   3  -9   6   31.36    5.32
   3  -9   6   32.56    4.73
  -3   9  -7    4.23    2.03
  -3   9  -7    4.42    4.71
   3  -9   7    7.88    3.58
   3  -9   7    3.71    2.94
  -3   9  -8   93.71    7.00
   3  -9   8   85.54    7.50
  -3   9  -8   88.63   10.49
   3  -9   8   85.10    8.57
   3  -9   9   83.70    7.51
  -3   9  -9  104.27   11.30
   3  -9   9   87.75    8.82
  -3   9  -9   98.64    7.53
   3  -9  10   42.55    5.08
   3  -9  10   48.79    6.41
  -3   9 -10   44.97    5.17
  -3   9 -11   70.63    6.81
  -3   9 -12  118.44    9.65
  -3   9 -13   17.76    4.24
  -3   9 -14   -0.48    3.27
   3  -8 -10   28.06    6.27
   3  -8  -9   21.76    5.87
   3  -8  -8    8.27    4.87
   3  -8  -7   23.00    5.54
   3  -8  -6   53.76    7.26
  -3   8   6   61.73    5.79
  -3   8   5  138.88    9.92
   3  -8  -5  126.91   11.39
   3  -8  -4    2.59    3.80
  -3   8   4    4.48    2.82
  -3   8   4    2.73    2.16
  -3   8   4    1.64    3.53
   3  -8  -3    2.73    3.50
  -3   8   3   -0.17    2.45
   3  -8  -3   -0.73    6.02
   3  -8  -2   31.78    4.68
  -3   8   2   23.92    4.00
   3  -8  -1    4.49    3.30
   3  -8  -1    2.92    3.24
  -3   8   1    3.79    2.58
   3  -8   0    1.49    3.21
  -3   8   0   -0.19    2.52
  -3   8  -1   30.90    4.75
   3  -8   1   40.08    5.22
  -3   8  -2  366.06   22.33
   3  -8   2  398.78   22.06
   3  -8   3  355.43   21.58
  -3   8  -3  322.50   22.54
  -3   8  -3  349.68   21.11
   3  -8   4  624.99   36.85
  -3   8  -4  650.34   36.75
  -3   8  -5  102.29    6.69
   3  -8   5  106.14    8.63
  -3   8  -5  116.56    8.74
  -3   8  -6   17.74    2.45
  -3   8  -6   19.08    3.64
  -3   8  -6   24.41    5.79
   3  -8   6   17.32    3.89
   3  -8   6   18.49    3.49
   3  -8   7  134.31   10.35
  -3   8  -7  165.04   13.80
   3  -8   7  143.95   11.60
  -3   8  -7  152.38   10.77
  -3   8  -7  151.56    9.78
   3  -8   8  210.71   14.82
  -3   8  -8  233.99   18.55
   3  -8   8  231.19   16.29
  -3   8  -8  252.35   14.71
  -3   8  -9   34.22    4.11
  -3   8  -9   29.30    6.87
   3  -8   9   33.45    5.28
   3  -8   9   29.57    4.20
   3  -8  10    1.57    2.63
  -3   8 -10   -1.52    2.60
  -3   8 -11   40.95    5.17
  -3   8 -12    1.24    3.20
  -3   8 -13   12.67    3.87
  -3   8 -14   13.79    4.20
   3  -7 -10    1.13    4.11
   3  -7  -9   -2.75    4.50
   3  -7  -8    0.80    3.88
   3  -7  -7   51.15    6.73
  -3   7   6  282.27   16.69
   3  -7  -6  251.54   18.42
  -3   7   5  186.24   11.55
   3  -7  -5  172.16   13.64
  -3   7   4  112.61    7.37
   3  -7  -4  115.77    9.77
   3  -7  -3   41.59    3.91
  -3   7   3   38.95    4.39
   3  -7  -3   40.47    5.57
  -3   7   3   35.81    3.24
   3  -7  -3   32.25    3.14
  -3   7   2   67.54    5.86
   3  -7  -2   76.08    6.81
   3  -7  -2   55.13    3.79
  -3   7   1  156.64   11.14
   3  -7  -1  148.75   11.27
  -3   7   1  151.76   12.05
  -3   7   1  168.86   11.43
  -3   7   0  682.87   42.16
  -3   7   0  742.99   41.59
   3  -7   0  763.58   41.83
  -3   7   0  712.60   41.01
  -3   7  -1   22.12    3.68
  -3   7  -1   16.50    3.69
   3  -7   1   19.20    3.75
  -3   7  -1   15.48    4.10
   3  -7   2   83.20    7.13
  -3   7  -2   85.22    7.63
  -3   7  -2   60.93    7.09
   3  -7   3  107.67    8.57
   3  -7   3  105.63    9.18
  -3   7  -3  120.98    8.73
  -3   7  -4    0.13    1.01
  -3   7  -4    1.16    2.43
  -3   7  -4   -0.80    3.50
   3  -7   4   -0.73    2.66
   3  -7   4   -0.31    2.29
   3  -7   4    0.38    1.10
  -3   7  -5   17.87    3.48
  -3   7  -5   19.73    5.28
   3  -7   5   19.27    3.48
   3  -7   5   18.51    3.74
   3  -7   5   18.08    2.49
  -3   7  -5   21.12    2.33
  -3   7  -6   17.85    3.54
  -3   7  -6   21.60    5.44
   3  -7   6   16.50    3.88
   3  -7   6   18.87    3.33
   3  -7   6   18.97    2.87
  -3   7  -6   22.36    2.67
   3  -7   7  455.82   28.89
  -3   7  -7  529.53   32.80
  -3   7  -7  513.26   28.57
  -3   7  -7  526.69   29.37
  -3   7  -8  360.46   24.88
   3  -7   8  319.95   21.02
  -3   7  -8  366.77   21.00
  -3   7  -8  362.76   21.40
  -3   7  -9  278.70   22.02
   3  -7   9  289.95   18.81
  -3   7  -9  333.29   19.14
  -3   7  -9  312.37   19.09
  -3   7 -10    1.02    2.58
   3  -7  10    0.16    2.43
  -3   7 -11    0.57    2.67
  -3   7 -12   24.90    4.52
  -3   7 -13   87.59    8.45
  -3   7 -14    4.56    3.51
   3  -6 -11   16.91    4.93
   3  -6 -10   16.37    4.61
   3  -6  -9    3.69    4.13
   3  -6  -8  100.73    9.29
   3  -6  -7   17.88    4.52
  -3   6   7   28.23    3.76
   3  -6  -6    3.84    2.27
   3  -6  -6    6.80    3.57
  -3   6   6    3.98    2.16
   3  -6  -5    4.58    2.02
   3  -6  -5    1.25    3.12
   3  -6  -5    4.47    4.90
  -3   6   5    4.48    1.85
   3  -6  -4    1.72    1.50
   3  -6  -4   -0.99    2.98
   3  -6  -4    0.92    1.91
   3  -6  -4   -6.73   10.01
  -3   6   4    0.98    1.41
   3  -6  -3    3.69    1.40
   3  -6  -3    2.23    2.79
  -3   6   3    2.08    1.14
   3  -6  -3    2.73    1.87
   3  -6  -3    0.38    5.40
  -3   6   2   33.06    2.69
   3  -6  -2   38.15    4.92
  -3   6   2   36.06    5.34
  -3   6   2   45.87    4.80
   3  -6  -2   31.51    2.44
  -3   6   1 1168.97   65.20
   3  -6  -1 1185.91   65.78
  -3   6   1 1204.68   66.70
  -3   6   1 1180.24   64.99
  -3   6   0  301.21   17.94
  -3   6   0  254.52   18.32
  -3   6   0  284.16   17.47
   3  -6   0  289.47   17.87
  -3   6  -1  219.39   14.22
   3  -6   1  227.78   13.90
  -3   6  -1  221.24   13.68
   3  -6   2   19.83    3.23
   3  -6   2   16.59    3.84
  -3   6  -2   19.96    3.73
   3  -6   3   94.92    7.48
  -3   6  -3  104.90    8.74
   3  -6   3   90.05    5.74
  -3   6  -3  105.08    7.53
  -3   6  -3   92.92    5.48
  -3   6  -4   29.99    3.84
  -3   6  -4   31.41    5.18
   3  -6   4   26.03    3.75
   3  -6   4   25.90    2.63
  -3   6  -4   26.49    2.45
   3  -6   5  603.43   36.71
  -3   6  -5  710.57   39.84
   3  -6   5  607.28   35.94
  -3   6  -5  682.76   35.83
  -3   6  -5  693.08   37.10
   3  -6   6  214.70   14.44
  -3   6  -6  225.60   17.41
  -3   6  -6  239.83   13.92
   3  -6   6  229.92   14.23
  -3   6  -6  235.52   14.83
   3  -6   7   46.25    5.00
  -3   6  -7   51.08    7.55
   3  -6   7   53.15    5.10
  -3   6  -7   51.57    4.65
  -3   6  -7   51.90    5.38
   3  -6   8   54.33    5.33
  -3   6  -8   45.49    7.64
   3  -6   8   51.44    5.42
  -3   6  -8   51.19    4.92
  -3   6  -8   52.14    5.42
  -3   6  -9    7.36    2.65
  -3   6  -9    8.62    3.26
  -3   6  -9    3.15    4.51
   3  -6   9   10.92    3.01
   3  -6   9    8.95    3.36
  -3   6 -10    3.56    2.60
  -3   6 -11    0.76    2.57
  -3   6 -12  205.45   14.46
  -3   6 -13   66.80    7.31
   3  -6  14   44.37    7.64
   3  -5 -11    5.38    3.74
   3  -5 -10    0.22    3.36
   3  -5  -9  417.08   25.07
   3  -5  -9  388.58   24.99
   3  -5  -8    5.45    2.74
   3  -5  -8    9.23    3.73
  -3   5   8   10.01    3.08
  -3   5   7  115.43    8.27
   3  -5  -7  100.34    8.50
   3  -5  -7  111.54    9.11
  -3   5   6   78.38    6.02
   3  -5  -6   70.10    6.38
   3  -5  -6   74.99    7.06
   3  -5  -6   74.80    7.02
   3  -5  -5   36.41    4.96
   3  -5  -5   46.49    4.37
   3  -5  -5   47.08    6.45
  -3   5   5   43.84    3.90
   3  -5  -5   39.97    4.04
  -3   5   4   39.02    3.38
   3  -5  -4   46.64    4.14
   3  -5  -4   41.28    3.68
   3  -5  -4   42.59    4.95
   3  -5  -3  379.11   22.64
  -3   5   3  395.81   21.63
  -3   5   3  445.24   23.84
   3  -5  -3  426.72   23.76
   3  -5  -3  402.68   21.92
   3  -5  -2  294.44    9.18
  -3   5   2  292.24   14.16
  -3   5   2  288.01   11.81
  -3   5   1    1.85    1.95
   3  -5  -1    0.31    2.17
  -3   5   1    1.27    2.70
   3  -5   0   44.62    4.67
   3  -5   0   53.86    5.25
  -3   5   0   41.67    5.30
  -3   5   0   52.92    4.78
   3  -5   1   53.68    4.94
  -3   5  -1   47.65    5.36
  -3   5  -1   51.25    4.81
  -3   5  -2    0.69    0.46
  -3   5  -2    1.97    2.48
   3  -5   2    0.64    1.84
  -3   5  -2    0.66    2.09
  -3   5  -3    0.66    0.88
  -3   5  -3    4.55    2.98
   3  -5   3    2.30    2.06
   3  -5   3    0.64    1.30
   3  -5   4 1371.82   78.57
   3  -5   4 1406.36   79.39
  -3   5  -4 1604.56   81.66
   3  -5   4 1493.11   80.06
  -3   5  -4 1444.16   78.29
  -3   5  -4 1627.01   79.87
   3  -5   5  208.72   13.57
  -3   5  -5  208.33   15.73
   3  -5   5  212.31   13.11
   3  -5   5  221.90   14.14
  -3   5  -5  207.89   12.72
  -3   5  -5  232.24   13.99
  -3   5  -6   79.13    8.91
   3  -5   6   76.78    6.38
  -3   5  -6   84.83    6.75
   3  -5   6   68.92    6.65
   3  -5   6   83.14    6.35
   3  -5   6   85.23    7.03
  -3   5  -6   72.91    5.76
  -3   5  -7    1.29    1.76
  -3   5  -7    0.85    2.51
  -3   5  -7    4.68    4.33
   3  -5   7    3.34    2.29
   3  -5   7    3.52    2.31
   3  -5   7    3.58    2.76
   3  -5   7    3.13    2.23
  -3   5  -8   89.03    6.95
  -3   5  -8   70.79    8.88
   3  -5   8   71.43    6.45
   3  -5   8   73.26    6.92
   3  -5   8   77.91    6.85
  -3   5  -8   76.73    6.34
  -3   5  -9    0.16    2.26
  -3   5  -9    1.45    2.69
  -3   5  -9   -0.33    4.01
   3  -5   9    2.24    3.05
  -3   5 -10  177.07   12.41
  -3   5 -11   92.62    8.08
  -3   5 -12   27.01    4.71
  -3   5 -13    5.27    3.61
   3  -5  14    8.20    4.90
   3  -4 -11   35.61    5.59
   3  -4 -11   22.94    4.61
  -3   4  10   56.39    6.60
   3  -4 -10   62.26    6.82
   3  -4 -10   55.89    6.28
   3  -4  -9    3.31    2.99
  -3   4   9   -1.02    2.79
   3  -4  -9    3.40    2.89
   3  -4  -8    0.34    2.47
  -3   4   8    1.80    3.73
   3  -4  -8    2.91    2.75
  -3   4   8    2.98    2.64
   3  -4  -7   -0.88    2.22
  -3   4   7   -2.37    2.77
   3  -4  -7   -0.49    2.50
   3  -4  -7    0.68    2.89
  -3   4   7    0.38    1.96
   3  -4  -6   12.04    2.77
   3  -4  -6   15.19    3.26
   3  -4  -6   15.42    3.71
  -3   4   6   16.72    2.67
   3  -4  -5  155.26   11.19
   3  -4  -5  165.64   10.22
  -3   4   5  145.17    9.26
   3  -4  -5  147.85   12.06
   3  -4  -5  136.09    9.45
   3  -4  -5  131.02   10.05
   3  -4  -4 1998.81  110.20
  -3   4   4 2119.60  109.41
  -3   4   4 2139.82  110.92
   3  -4  -4 2042.31  109.59
   3  -4  -4 2113.48  110.68
   3  -4  -3   32.09    3.58
  -3   4   3   30.16    2.45
  -3   4   3   29.43    3.57
   3  -4  -3   26.55    3.58
   3  -4  -3   27.25    2.69
   3  -4  -2  262.78    4.96
   3  -4  -2  261.71   11.15
  -3   4   2  262.78   10.99
  -3   4   2  265.32    8.07
   3  -4  -2  265.16    8.20
   3  -4  -1   82.16    6.78
  -3   4   1   66.64    7.05
  -3   4   1   79.93    6.15
   3  -4   0   37.71    3.94
   3  -4   0   44.06    4.57
  -3   4   0   33.52    4.65
  -3   4   0   42.79    4.11
   3  -4   1  261.09   14.90
  -3   4  -1  227.13   12.84
  -3   4  -1  262.91   15.54
  -3   4  -1  237.10   12.84
  -3   4  -1  281.50   14.90
   3  -4   2  391.39   22.23
   3  -4   2  406.34   22.87
  -3   4  -2  434.93   23.31
  -3   4  -2  400.06   22.68
  -3   4  -2  355.45   20.62
   3  -4   3  562.53   31.42
  -3   4  -3  636.90   33.03
   3  -4   3  611.95   32.04
   3  -4   3  513.78   30.66
  -3   4  -3  535.62   30.19
  -3   4  -4   11.03    3.56
  -3   4  -4   11.33    2.76
   3  -4   4    9.82    2.39
   3  -4   4    9.96    2.67
   3  -4   4    9.96    2.25
  -3   4  -4    9.88    1.75
  -3   4  -5   45.36    4.66
   3  -4   5   43.08    4.45
  -3   4  -5   43.25    5.83
   3  -4   5   45.87    4.64
   3  -4   5   48.33    4.31
   3  -4   5   45.73    4.82
  -3   4  -5   39.02    3.72
  -3   4  -6   71.97    6.14
  -3   4  -6   70.44    8.09
   3  -4   6   70.94    5.98
   3  -4   6   69.82    6.21
   3  -4   6   75.19    6.27
   3  -4   6   64.05    5.77
  -3   4  -6   66.19    5.47
  -3   4  -7    1.46    3.68
  -3   4  -7   -0.68    2.33
   3  -4   7    0.49    1.98
   3  -4   7    0.43    2.20
   3  -4   7    1.20    2.21
  -3   4  -7    0.25    1.73
  -3   4  -8   62.81    5.65
  -3   4  -8   49.59    7.33
   3  -4   8   52.16    5.75
  -3   4  -8   56.13    5.31
  -3   4  -9  641.43   35.10
  -3   4  -9  578.45   37.40
  -3   4  -9  599.78   35.22
  -3   4 -10   19.01    3.80
  -3   4 -11    4.76    3.01
  -3   4 -12    5.29    3.34
  -3   4 -13   22.22    5.00
   3  -3 -13   60.49    7.80
   3  -3 -12  165.01   13.21
   3  -3 -11    5.41    3.36
  -3   3  11   -0.33    3.57
   3  -3 -11    2.33    2.78
  -3   3  10  156.54   11.22
   3  -3 -10  160.81   11.84
   3  -3 -10  147.60   10.73
   3  -3  -9    7.98    3.03
  -3   3   9   11.78    4.40
   3  -3  -9    5.23    2.68
   3  -3  -8   20.82    3.70
  -3   3   8   30.10    5.42
   3  -3  -8   26.62    3.72
   3  -3  -8   24.28    4.61
  -3   3   8   26.64    3.77
  -3   3   7   41.98    5.11
  -3   3   7   44.32    4.58
   3  -3  -7   49.67    6.04
   3  -3  -7   46.51    4.81
   3  -3  -7   40.23    4.53
  -3   3   6   32.65    4.61
  -3   3   6   37.53    3.82
   3  -3  -6   33.81    3.91
   3  -3  -6   38.76    5.00
   3  -3  -6   32.79    3.90
   3  -3  -5  645.33   34.66
  -3   3   5  541.07   33.84
   3  -3  -5  604.49   33.66
  -3   3   5  604.44   33.41
   3  -3  -5  558.06   33.78
  -3   3   4   14.32    2.65
   3  -3  -4   16.90    2.36
  -3   3   4   13.46    2.52
   3  -3  -4   15.49    2.71
   3  -3  -4   12.94    2.82
   3  -3  -4   11.46    4.63
  -3   3   4   14.24    2.02
  -3   3   3    8.33    2.16
   3  -3  -3    9.20    1.74
   3  -3  -3   11.13    2.33
   3  -3  -3   12.97    2.58
   3  -3  -3    5.07    6.66
  -3   3   3    9.40    1.46
  -3   3   2    5.72    1.97
   3  -3  -2    5.76    1.55
   3  -3  -2    5.90    1.94
   3  -3  -2    4.83    4.63
  -3   3   2    5.08    1.01
   3  -3  -1   17.95    3.29
  -3   3   1   17.82    2.52
  -3   3   1   12.64    3.26
   3  -3   0  936.59   14.34
  -3   3   0  986.45   17.05
  -3   3   0 1010.44    8.59
  -3   3   0 1061.64   14.66
   3  -3   1 3141.79  173.57
   3  -3   1 3640.87  174.28
   3  -3   1 3125.17  174.35
  -3   3  -1 3334.83  173.98
  -3   3  -1 3100.85  172.31
  -3   3  -1 3510.80  173.76
  -3   3  -2    5.47    2.56
  -3   3  -2    3.07    2.15
   3  -3   2    2.58    2.15
   3  -3   2    2.43    1.96
   3  -3   2    8.05    2.13
  -3   3  -2    3.13    1.13
  -3   3  -3  275.29   17.01
   3  -3   3  261.63   15.98
   3  -3   3  242.67   15.60
  -3   3  -3  258.96   15.06
   3  -3   3  280.85   16.22
  -3   3  -4   14.15    3.38
  -3   3  -4   12.09    2.68
   3  -3   4    9.33    2.28
   3  -3   4   10.67    2.58
   3  -3   4    9.48    2.41
   3  -3   4    9.06    2.37
  -3   3  -4   11.57    1.96
   3  -3   5    5.03    2.17
  -3   3  -5    3.75    3.10
  -3   3  -5    2.49    2.26
   3  -3   5    3.44    1.89
   3  -3   5    1.99    1.94
   3  -3   5    2.75    2.11
  -3   3  -5    2.90    1.60
  -3   3  -6  252.53   15.51
  -3   3  -6  224.21   17.16
   3  -3   6  265.67   15.68
   3  -3   6  249.14   15.55
   3  -3   6  241.30   15.51
  -3   3  -6  238.78   15.08
  -3   3  -7   35.01    4.18
  -3   3  -7   33.50    3.94
   3  -3   7   40.59    4.64
  -3   3  -8  307.32   18.14
  -3   3  -8  256.87   19.95
   3  -3   8  296.93   18.72
  -3   3  -8  299.04   18.33
  -3   3  -9    1.07    3.72
  -3   3  -9   -1.42    2.77
  -3   3  -9   -0.18    2.36
  -3   3 -10    2.57    2.55
  -3   3 -11   32.38    4.89
  -3   3 -12   -0.49    3.07
  -3   3 -13   33.40    5.59
   3  -2 -13   70.97    8.17
  -3   2  12   39.43    6.97
   3  -2 -12   38.18    5.88
   3  -2 -11    0.91    3.05
   3  -2 -11    2.21    2.36
  -3   2  11    4.30    6.21
   3  -2 -10   -0.20    2.90
   3  -2 -10   -0.96    2.08
  -3   2  10    1.85    1.97
  -3   2  10    3.13    4.87
   3  -2  -9   11.15    3.25
   3  -2  -9   11.07    3.90
   3  -2  -9   13.00    2.70
  -3   2   9   17.61    3.02
  -3   2   9   15.18    3.33
  -3   2   8  545.49   36.43
  -3   2   8  684.40   35.63
   3  -2  -8  641.66   36.40
   3  -2  -8  634.70   35.83
   3  -2  -8  600.49   34.80
  -3   2   7  641.43   38.07
  -3   2   7  702.39   36.74
   3  -2  -7  688.81   37.70
   3  -2  -7  635.98   36.97
   3  -2  -7  608.32   36.22
   3  -2  -6   44.50    5.57
  -3   2   6   41.52    4.79
   3  -2  -6   53.27    5.69
  -3   2   6   46.25    4.16
   3  -2  -6   54.07    5.41
   3  -2  -6   41.82    4.34
   3  -2  -6   41.00    4.03
  -3   2   5  486.40   29.36
   3  -2  -5  472.44   29.87
  -3   2   5  513.47   28.73
  -3   2   5  499.24   29.04
   3  -2  -5  598.66   30.27
   3  -2  -5  505.38   29.10
   3  -2  -5  478.35   28.79
   3  -2  -4   29.69    3.14
   3  -2  -4   29.13    3.23
  -3   2   4   29.81    3.54
   3  -2  -4   39.55    4.98
   3  -2  -4   32.77    3.99
  -3   2   4   32.96    2.99
  -3   2   4   32.24    3.41
  -3   2   3    4.12    1.22
   3  -2  -3    3.53    1.58
  -3   2   3    3.09    1.75
   3  -2  -3    1.83    1.70
   3  -2  -3    3.97    2.51
   3  -2  -3   10.18    7.54
   3  -2  -2  162.82   10.05
   3  -2  -2  163.59    9.74
   3  -2  -2  175.89   10.67
  -3   2   2  153.54    9.07
  -3   2   2  168.90    9.96
  -3   2   1   17.14    1.76
  -3   2   1   20.61    2.73
  -3   2   1   15.59    3.30
   3  -2  -1   20.29    4.50
  -3   2   0 1450.58   73.16
  -3   2   0 1310.91   72.14
   3  -2   0 1563.16   73.99
  -3   2   0 1358.07   73.41
  -3   2   0 1229.33   72.43
  -3   2  -1   49.24    4.47
   3  -2   1   46.71    4.39
   3  -2   1   44.57    4.69
  -3   2  -1   47.02    3.70
  -3   2  -1   50.54    4.41
  -3   2  -2    2.29    2.07
   3  -2   2    1.84    1.87
   3  -2   2    3.52    1.95
   3  -2   2    3.43    2.22
  -3   2  -2    3.21    1.43
  -3   2  -3  177.07   11.33
   3  -2   3  156.99   10.62
   3  -2   3  159.79   10.62
   3  -2   3  145.55   10.06
   3  -2   3  170.78   10.48
  -3   2  -3  150.60    9.85
  -3   2  -4   28.68    3.54
  -3   2  -4   32.92    4.45
   3  -2   4   28.98    3.56
   3  -2   4   22.69    3.14
   3  -2   4   30.44    3.58
  -3   2  -4   26.89    3.05
   3  -2   4   23.48    3.40
  -3   2  -5 1295.53   68.45
  -3   2  -5 1186.70   69.63
   3  -2   5 1244.81   68.38
   3  -2   5 1284.18   68.81
  -3   2  -5 1232.20   68.34
  -3   2  -6 1090.14   58.82
  -3   2  -6  908.40   60.26
   3  -2   6 1121.78   59.56
  -3   2  -6 1113.48   59.12
   3  -2   7   44.20    5.12
  -3   2  -7   48.78    4.67
  -3   2  -7   44.61    6.13
  -3   2  -7   40.84    4.68
  -3   2  -8   36.04    4.21
  -3   2  -8   41.70    5.76
  -3   2  -8   34.36    4.50
  -3   2  -9    1.36    2.62
  -3   2 -10   -1.30    2.82
  -3   2 -11   65.75    7.29
  -3   2 -12    4.42    3.61
   3  -2  13   62.68    8.15
   3  -1 -14    0.30    3.76
  -3   1  13   62.47   18.73
   3  -1 -13   61.32    7.46
   3  -1 -12    0.49    3.29
  -3   1  12   10.16   10.04
   3  -1 -11   26.28    4.46
   3  -1 -11   19.58    2.93
   3  -1 -10   13.34    3.59
   3  -1 -10   10.25    2.27
  -3   1  10   12.65    3.11
  -3   1  10    3.73   11.33
  -3   1   9   50.87    4.80
   3  -1  -9   53.06    6.10
  -3   1   9   60.09    5.43
   3  -1  -9   57.61    5.72
   3  -1  -9   48.81    4.25
  -3   1   8  223.14   13.81
   3  -1  -8  253.72   15.42
  -3   1   8  267.24   14.61
   3  -1  -8  237.14   14.76
   3  -1  -8  235.68   13.49
   3  -1  -7  227.11   13.58
   3  -1  -7  252.03   14.77
  -3   1   7  221.05   13.86
   3  -1  -7  272.23   15.43
  -3   1   7  250.74   14.30
   3  -1  -7  269.95   15.44
   3  -1  -6   32.44    3.24
  -3   1   6   29.47    3.86
   3  -1  -6   30.51    5.14
   3  -1  -6   46.94    5.18
  -3   1   6   41.69    3.89
  -3   1   6   38.94    3.65
   3  -1  -6   42.92    5.09
  -3   1   6   19.05    6.43
   3  -1  -6   37.90    4.05
  -3   1   5    1.26    1.62
   3  -1  -5   -0.22    1.54
   3  -1  -5    0.32    1.39
   3  -1  -5    1.28    2.18
   3  -1  -5    1.37    2.51
  -3   1   5    2.03    1.50
  -3   1   5    0.65    3.12
   3  -1  -5    3.15    2.83
   3  -1  -4  402.43   22.99
   3  -1  -4  373.22   22.66
   3  -1  -4  514.64   24.60
   3  -1  -4  476.57   24.28
   3  -1  -4  404.54   23.96
  -3   1   4  367.10   22.43
  -3   1   4  385.89   22.62
   3  -1  -3 2031.55  108.30
   3  -1  -3 2044.04  111.01
   3  -1  -3 2008.90  108.12
  -3   1   3 1910.63  107.62
  -3   1   3 1983.71  107.94
   3  -1  -3 2333.41  109.41
   3  -1  -2  549.57   29.56
   3  -1  -2  612.46   30.60
  -3   1   2  517.35   30.01
  -3   1   2  548.89   29.47
  -3   1   2  512.90   28.87
  -3   1   1  188.91   10.62
  -3   1   1  155.44    9.82
  -3   1   1  168.21   10.94
   3  -1  -1  141.65   14.64
  -3   1   0  854.84   44.98
  -3   1   0  763.87   44.87
  -3   1   0  826.65   44.75
  -3   1  -1  105.71    7.31
   3  -1   1  104.39    7.37
   3  -1   1  102.74    7.40
   3  -1   1   90.73    7.17
  -3   1  -1   98.57    7.06
   3  -1   2   -0.90    2.01
  -3   1  -2   -0.43    1.80
   3  -1   2    1.08    2.07
   3  -1   2    2.82    2.66
   3  -1   2    1.10    1.64
  -3   1  -2    0.79    1.60
  -3   1  -3   38.60    4.49
   3  -1   3   41.83    3.99
  -3   1  -3   40.58    4.07
   3  -1   3   41.44    3.76
   3  -1   3   47.65    4.54
   3  -1   3   38.19    4.59
  -3   1  -4  204.08   13.01
  -3   1  -4  177.35   11.88
   3  -1   4  187.93   11.76
   3  -1   4  206.02   12.93
  -3   1  -4  178.96   11.98
  -3   1  -5  486.67   32.12
  -3   1  -5  539.45   31.19
   3  -1   5  586.71   32.23
  -3   1  -5  592.75   31.77
  -3   1  -6   78.12    6.33
  -3   1  -6   70.95    7.55
   3  -1   6   78.06    7.08
  -3   1  -6   89.27    7.03
  -3   1  -7   -0.43    2.95
  -3   1  -7    0.88    2.08
   3  -1   7    0.76    2.72
  -3   1  -7    0.17    2.26
  -3   1  -8   48.78    5.03
  -3   1  -8   61.29    6.53
  -3   1  -8   63.50    6.32
  -3   1  -9   34.31    4.91
  -3   1 -10  345.53   22.43
  -3   1 -11  113.19   10.19
   3  -1  12   18.21    5.77
  -3   1 -12   28.23    5.53
   3  -1  13   -4.03    5.90
   3   0 -14   50.62    7.09
  -3   0  14   70.65   20.03
   3   0 -13   15.12    4.43
  -3   0  13   20.96   12.90
  -3   0  12   74.00   16.60
   3   0 -12  113.95    9.64
   3   0 -11  204.73   12.36
  -3   0  11  249.86   14.27
   3   0 -11  245.33   15.30
   3   0 -10   86.91    6.16
  -3   0  10   86.07   15.62
  -3   0  10   97.83    7.65
   3   0 -10  109.10    8.44
   3   0  -9    2.77    2.50
   3   0  -9   -0.19    3.64
  -3   0   9    3.07    3.14
   3   0  -9    0.69    1.35
  -3   0   9    2.50    2.35
   3   0  -8  291.30   17.51
  -3   0   8  276.13   24.67
   3   0  -8  335.04   19.68
  -3   0   8  332.30   18.77
   3   0  -8  315.24   19.14
  -3   0   8  303.04   18.66
   3   0  -7   87.78    6.10
  -3   0   7   91.75    6.91
   3   0  -7  101.63    7.46
   3   0  -7  115.47    8.04
  -3   0   7   91.21    6.82
   3   0  -7   86.16    7.11
  -3   0   6    4.45    1.80
  -3   0   6    5.70    1.81
   3   0  -6    5.72    2.20
  -3   0   6    4.37    2.13
   3   0  -6    6.55    2.95
   3   0  -6    4.41    1.61
   3   0  -6    3.98    3.33
   3   0  -6    7.07    2.54
  -3   0   6    0.41    5.78
   3   0  -5   72.30    5.75
   3   0  -5   63.14    4.99
  -3   0   5   66.51    5.55
   3   0  -5   68.75    6.82
   3   0  -5   78.11    5.98
   3   0  -5   87.95    6.42
  -3   0   5   71.97    5.33
  -3   0   5   68.00    5.01
   3   0  -4  333.18   18.89
   3   0  -4  300.12   18.18
   3   0  -4  387.57   19.64
   3   0  -4  349.17   19.93
   3   0  -4  346.44   19.43
  -3   0   4  306.79   18.21
  -3   0   4  284.26   18.00
   3   0  -3  519.10   28.16
   3   0  -3  501.85   27.59
  -3   0   3  412.12   28.68
  -3   0   3  467.04   27.28
  -3   0   3  489.78   27.42
  -3   0   2  728.11   43.19
   3   0  -2  732.92   46.44
   3   0  -2  884.70   44.82
  -3   0   2  819.04   43.51
   3   0  -2  820.93   43.70
  -3   0   2  804.54   44.21
  -3   0   1  116.46    7.68
  -3   0   1  106.58    7.43
   3   0  -1  109.14    7.68
  -3   0   1   88.91    8.25
   3   0  -1  132.90    8.94
  -3   0   1  118.28    7.57
  -3   0   0  167.88    9.63
  -3   0   0  164.88   10.17
   3   0   0  147.31   14.25
  -3   0   0  134.02   10.44
  -3   0  -1  303.00   17.94
   3   0   1  310.74   18.80
   3   0   1  335.46   18.46
  -3   0  -1  313.92   18.49
   3   0   1  280.03   17.65
  -3   0  -2 2198.40  120.61
   3   0   2 2567.60  120.97
   3   0   2 2203.83  120.05
  -3   0  -2 2343.28  121.15
   3   0   2 2274.30  120.36
  -3   0  -3   64.89    5.69
   3   0   3   69.64    5.26
   3   0   3   61.33    4.79
   3   0   3   62.34    6.14
  -3   0  -3   58.89    5.41
   3   0   3   63.30    5.01
  -3   0  -4  108.14    8.74
   3   0   4  125.09    8.20
   3   0   4  114.25    9.26
  -3   0  -4  131.31    9.02
  -3   0  -5  184.98   13.67
  -3   0  -5  189.74   12.99
  -3   0  -5  248.54   14.30
   3   0   5  238.48   14.64
  -3   0  -6   51.31    5.86
  -3   0  -6   48.27    4.71
   3   0   6   56.18    5.88
  -3   0  -6   50.20    5.45
  -3   0  -7   11.30    3.66
  -3   0  -7   14.45    2.79
  -3   0  -7   12.90    3.51
  -3   0  -8   34.90    4.60
  -3   0  -8   34.88    4.99
  -3   0  -9  138.09   11.18
   3   0  10   68.05    7.39
  -3   0 -10   66.91    7.57
   3   0  11   23.11    5.01
  -3   0 -11   17.31    4.77
   3   0  12    4.30    4.80
   3   1 -14   15.14    4.91
  -3  -1  14   79.80   19.05
   3   1 -13    6.14    3.60
  -3  -1  13    6.23    7.92
  -3  -1  12  115.20    9.08
   3   1 -12  101.71    9.10
   3   1 -11    6.37    3.15
   3   1 -11    1.62    1.21
  -3  -1  11    0.36    3.48
   3   1 -10   63.58    4.45
  -3  -1  10   68.89    7.04
   3   1 -10   77.29    6.97
  -3  -1   9  180.10   15.40
   3   1  -9  173.93   10.79
   3   1  -9  195.57   13.75
  -3  -1   9  197.40   13.23
  -3  -1   9  202.16   12.57
   3   1  -9  204.64   13.22
  -3  -1   8  315.46   23.76
   3   1  -8  346.34   20.26
   3   1  -8  397.67   22.71
  -3  -1   8  384.82   21.69
  -3  -1   8  386.83   22.21
   3   1  -8  376.35   22.22
   3   1  -7  702.88   40.63
   3   1  -7  704.93   39.13
   3   1  -7  772.93   41.05
  -3  -1   7  774.82   39.49
  -3  -1   7  722.42   40.10
  -3  -1   7  741.43   40.68
   3   1  -6 1048.88   56.29
  -3  -1   6 1002.92   56.23
   3   1  -6 1016.56   55.02
   3   1  -6 1034.81   55.89
   3   1  -6 1111.29   56.69
  -3  -1   6 1044.46   55.02
  -3  -1   6 1010.98   55.71
   3   1  -5   59.20    5.13
  -3  -1   5   56.24    5.09
   3   1  -5   57.68    4.31
   3   1  -5   53.29    5.98
   3   1  -5   57.23    4.65
   3   1  -5   57.51    5.22
  -3  -1   5   51.06    4.49
  -3  -1   5   53.86    4.04
  -3  -1   4    0.82    2.37
  -3  -1   4    0.17    1.40
   3   1  -4    1.16    1.96
   3   1  -4    3.40    2.80
  -3  -1   4   -0.07    1.33
   3   1  -4   -0.87    2.53
   3   1  -4    0.16    1.45
   3   1  -4   -0.09    1.99
  -3  -1   4    3.86    7.13
  -3  -1   3  458.73   26.80
  -3  -1   3  480.73   26.71
   3   1  -3  527.61   27.89
   3   1  -3  491.03   26.92
   3   1  -3  570.20   27.24
   3   1  -3  545.82   28.37
   3   1  -3  527.48   27.67
  -3  -1   2  380.64   22.16
  -3  -1   2  390.69   22.04
  -3  -1   2  329.40   23.23
   3   1  -2  404.90   22.30
   3   1  -2  421.14   23.20
  -3  -1   1   22.26    3.84
  -3  -1   1   26.19    3.39
  -3  -1   1   24.66    2.93
   3   1  -1   36.20    4.41
   3   1  -1   20.89    2.98
  -3  -1   1   25.75    2.48
   3   1  -1   29.95    6.55
  -3  -1   0   -1.11    2.30
  -3  -1   0    1.23    1.62
  -3  -1   0    0.33    2.41
   3   1   0   -2.64    6.06
  -3  -1  -1  550.79   28.81
   3   1   1  567.75   27.94
   3   1   1  507.70   28.19
  -3  -1  -1  570.09   30.00
   3   1   2   52.36    6.31
  -3  -1  -2   69.18    5.55
   3   1   2   72.46    4.90
   3   1   2   66.79    6.88
  -3  -1  -2   78.81    6.47
   3   1   2   75.81    5.17
   3   1   3  573.41   28.06
  -3  -1  -3  411.70   27.20
   3   1   3  477.54   29.02
  -3  -1  -3  506.83   28.50
  -3  -1  -4   48.36    5.05
   3   1   4   62.98    4.90
   3   1   4   50.35    6.04
  -3  -1  -4   64.52    6.02
  -3  -1  -5   96.72    7.54
  -3  -1  -5   77.90    6.82
   3   1   5  101.62    6.72
   3   1   5   87.27    8.24
  -3  -1  -5  104.26    8.28
  -3  -1  -6  412.42   24.55
  -3  -1  -6  365.59   23.82
  -3  -1  -6  418.01   24.08
   3   1   6  438.16   23.51
  -3  -1  -6  436.25   25.52
   3   1   6  389.77   25.39
  -3  -1  -7  469.84   27.91
  -3  -1  -7  459.07   27.88
   3   1   7  489.14   27.06
  -3  -1  -7  492.97   29.34
   3   1   8    8.49    2.59
  -3  -1  -8   11.64    3.31
   3   1   8    8.25    3.39
  -3  -1  -8   16.13    4.18
   3   1   9   37.64    5.00
  -3  -1  -9   29.52    5.37
  -3  -1 -10   36.13    6.12
   3   1  10   47.50    6.34
   3   1  11    4.00    4.96
  -3  -1 -11    6.43    4.40
   3   1  12    0.28    5.31
  -3  -2  15   63.81   14.08
  -3  -2  14   93.88   14.14
   3   2 -14   68.47    8.00
   3   2 -13   -1.28    3.48
  -3  -2  13    6.68    6.40
   3   2 -12    0.47    3.14
  -3  -2  12   -1.79    3.82
  -3  -2  12   -0.30    4.13
  -3  -2  11  115.55   10.71
  -3  -2  11  103.35    9.59
   3   2 -11  101.75    9.05
  -3  -2  10  196.99   14.29
  -3  -2  10  209.47   14.27
   3   2 -10  183.21   13.51
   3   2  -9   -2.39    3.50
   3   2  -9    0.54    2.34
  -3  -2   9   -0.39    3.93
   3   2  -9    0.80    0.91
  -3  -2   9    3.57    3.30
  -3  -2   9   -0.72    2.31
   3   2  -8   86.97    7.32
  -3  -2   8   96.64    8.18
   3   2  -8   83.45    5.35
   3   2  -8   89.30    7.69
  -3  -2   8   95.24    7.96
  -3  -2   8   78.83    6.65
   3   2  -7  527.15   31.02
   3   2  -7  524.13   29.24
   3   2  -7  542.14   31.13
  -3  -2   7  545.18   31.42
  -3  -2   7  552.70   29.31
  -3  -2   7  522.56   30.45
  -3  -2   6    7.71    2.13
   3   2  -6    5.56    2.39
  -3  -2   6   10.45    2.95
  -3  -2   6    6.01    1.36
   3   2  -6    3.92    2.32
   3   2  -6    7.23    3.81
   3   2  -6    6.19    1.54
  -3  -2   5  210.25   12.44
   3   2  -5  224.25   13.96
  -3  -2   5  205.76   13.95
  -3  -2   5  189.40   15.33
   3   2  -5  236.12   15.28
   3   2  -5  230.61   12.74
   3   2  -5  208.59   12.83
   3   2  -5  240.69   13.95
  -3  -2   5  199.91   13.13
   3   2  -4  212.70   13.44
   3   2  -4  248.62   14.60
   3   2  -4  191.82   11.97
   3   2  -4  199.97   12.95
  -3  -2   4  221.19   12.18
  -3  -2   4  206.02   12.63
  -3  -2   3 1901.56   91.40
  -3  -2   3 1750.56   90.69
   3   2  -3 1755.04   90.28
   3   2  -3 2048.46   92.73
  -3  -2   2 1017.07   53.31
  -3  -2   2  904.74   52.42
  -3  -2   2  994.72   52.28
   3   2  -2 1053.05   53.97
   3   2  -2 1001.62   53.01
   3   2  -1 1535.77   77.24
  -3  -2   1 1417.64   77.08
  -3  -2   1 1520.49   77.53
  -3  -2   1 1359.09   76.06
  -3  -2   1 1391.31   78.04
  -3  -2   1 1321.13   75.08
   3   2  -1 1642.60   76.81
  -3  -2   0   10.36    3.27
   3   2   0    6.68    1.09
  -3  -2   0    4.88    1.90
   3   2   0   12.60    4.15
  -3  -2   0    5.84    3.05
  -3  -2  -1    5.29    1.97
   3   2   1    4.71    3.52
   3   2   1    5.66    1.32
  -3  -2  -1    7.04    3.03
  -3  -2  -2  128.32    8.72
  -3  -2  -2  131.36    9.93
   3   2   2  138.43    8.04
   3   2   2  133.43   10.57
  -3  -2  -3  187.40   10.66
   3   2   3  192.66   12.84
  -3  -2  -4   21.61    3.11
   3   2   4   22.70    4.37
  -3  -2  -5    3.16    2.40
  -3  -2  -5    2.15    2.02
  -3  -2  -5    1.33    2.19
   3   2   5    4.30    3.51
   3   2   5    6.75    3.69
   3   2   6  279.97   18.38
  -3  -2  -6  299.95   18.37
  -3  -2  -6  315.32   18.59
   3   2   6  326.43   18.72
   3   2   7   -0.46    2.89
   3   2   7    6.12    3.58
   3   2   8  143.02   10.65
   3   2   9    3.85    3.95
   3   2  10   55.07    6.93
   3   2  11   84.10    9.66
   3   2  12   53.50    8.44
  -3  -3  15   15.14    8.07
   3   3 -14   -0.28    3.74
  -3  -3  14    3.62    6.04
   3   3 -13    1.79    3.18
  -3  -3  13    4.90    4.77
  -3  -3  13    8.33    5.15
   3   3 -12    0.24    2.88
  -3  -3  12    3.45    3.57
  -3  -3  12    1.66    3.83
  -3  -3  11  592.32   33.82
  -3  -3  11  550.75   33.42
  -3  -3  11  546.76   32.93
   3   3 -11  503.34   32.33
   3   3 -10  201.66   14.86
  -3  -3  10  249.45   15.99
  -3  -3  10  218.96   15.87
  -3  -3  10  224.98   15.53
   3   3  -9  186.21   13.53
  -3  -3   9  220.03   14.35
  -3  -3   9  185.28   14.48
  -3  -3   9  210.52   14.12
  -3  -3   8    7.73    2.40
   3   3  -8    6.18    3.03
   3   3  -8    4.30    2.71
  -3  -3   8   12.79    3.14
  -3  -3   8    6.14    3.75
  -3  -3   7    2.87    2.05
   3   3  -7    3.46    2.21
   3   3  -7    2.63    2.36
  -3  -3   7    2.56    1.06
  -3  -3   7    2.77    3.32
  -3  -3   6  226.04   13.36
  -3  -3   6  258.07   15.69
   3   3  -6  249.14   15.39
   3   3  -6  222.64   16.87
   3   3  -6  236.97   15.03
  -3  -3   6  249.17   15.80
  -3  -3   6  235.41   14.62
  -3  -3   5  432.80   26.60
   3   3  -5  481.22   26.39
  -3  -3   5  435.57   24.50
   3   3  -5  470.09   27.48
   3   3  -5  413.03   25.55
  -3  -3   5  447.33   25.52
  -3  -3   4  108.19    7.93
  -3  -3   4  104.22    9.65
   3   3  -4  112.82    8.66
  -3  -3   4  107.22    8.60
  -3  -3   4  108.58    7.17
   3   3  -4  129.91    9.38
  -3  -3   3  424.64   23.51
  -3  -3   3  385.67   22.53
  -3  -3   3  421.73   24.03
   3   3  -3  461.57   24.49
   3   3  -3  400.67   23.07
  -3  -3   2  698.15   38.15
  -3  -3   2  655.80   36.97
  -3  -3   2  705.69   35.95
   3   3  -2  703.21   38.35
   3   3  -2  703.19   37.37
  -3  -3   1  212.43   16.30
  -3  -3   1  214.98   13.57
   3   3  -1  240.42   13.76
   3   3   0  212.41   13.02
  -3  -3   0  225.47   12.82
   3   3   0  203.27   12.10
   3   3   1   44.72    3.97
  -3  -3  -1   36.59    3.32
  -3  -3  -1   44.84    3.43
   3   3   1   50.46    3.32
   3   3   2 1649.74   76.78
   3   3   2 1483.41   77.43
  -3  -3  -2 1224.05   76.77
   3   3   2 1378.06   75.67
   3   3   3  577.52   29.91
   3   3   3  540.80   28.96
   3   3   3  509.76   32.10
   3   3   4  247.73   16.04
  -3  -3  -4  257.64   15.49
  -3  -3  -4  258.68   15.40
   3   3   4  274.54   15.32
   3   3   4  238.36   17.65
   3   3   5  125.73   11.06
  -3  -3  -5  139.72    9.56
  -3  -3  -5  144.03    9.77
   3   3   5  166.80   10.13
   3   3   6   11.21    3.28
   3   3   6    9.26    5.64
   3   3   7   33.02    4.86
   3   3   8   33.85    5.00
   3   3   9    4.96    3.95
   3   3  10   16.17    6.75
   3   3  11  135.40   13.52
  -3  -4  15   45.26    8.20
   3   4 -14    3.60    3.60
  -3  -4  14    3.76    5.02
  -3  -4  14    6.50    5.25
   3   4 -13  158.15   13.38
  -3  -4  13  177.71   14.24
   3   4 -12  149.46   12.36
  -3  -4  12  193.64   14.30
  -3  -4  12  164.39   12.92
   3   4 -11   54.63    6.34
  -3  -4  11   68.15    7.58
  -3  -4  11   50.13    7.05
  -3  -4  11   61.95    8.00
   3   4 -10   19.20    3.94
  -3  -4  10   19.47    5.36
  -3  -4  10   18.73    4.38
  -3  -4  10   20.86    4.43
   3   4  -9   92.50    8.01
  -3  -4   9  102.85    8.70
  -3  -4   9   81.51    9.61
   3   4  -8    3.89    2.62
  -3  -4   8    2.87    2.26
  -3  -4   8    3.42    0.99
   3   4  -8    4.61    2.73
  -3  -4   8    3.14    3.85
  -3  -4   8    0.39    2.98
  -3  -4   8   11.25    3.18
  -3  -4   7   20.97    3.26
   3   4  -7   26.01    3.80
   3   4  -7   23.89    3.82
  -3  -4   7   27.24    4.02
  -3  -4   7   25.65    3.67
  -3  -4   7   24.67    4.87
  -3  -4   7   21.94    2.02
   3   4  -6 1604.04   87.78
  -3  -4   6 1519.19   85.62
  -3  -4   6 1753.52   87.08
  -3  -4   6 1675.99   87.99
   3   4  -5  153.66   11.33
  -3  -4   5  161.86    9.67
   3   4  -5  161.79   12.35
  -3  -4   5  140.40   11.58
  -3  -4   5  170.96   11.47
  -3  -4   4  225.56   14.03
  -3  -4   4  188.02   13.49
  -3  -4   4  199.62   11.87
   3   4  -4  208.77   14.04
   3   4  -4  179.78   12.33
  -3  -4   3  113.18   10.37
  -3  -4   3  123.16    9.65
  -3  -4   3  125.56    8.26
   3   4  -3  139.15    8.80
  -3  -4   2   75.20    5.75
   3   4  -2   87.71    6.03
  -3  -4   1   75.82    5.98
   3   4  -1   89.70    6.85
   3   4  -1   88.45    5.95
  -3  -4   0  241.87   14.08
   3   4   0  214.83   13.77
   3   4   0  195.01   12.65
   3   4   1  225.57   14.60
  -3  -4  -1  224.86   13.84
   3   4   1  222.49   13.35
   3   4   2  262.90   15.96
   3   4   2  267.86   14.77
   3   4   3  158.97   11.63
   3   4   3  153.16   13.33
  -3  -4  -3  139.04   12.39
   3   4   3  162.94   10.32
  -3  -4  -4  173.38   11.27
   3   4   4  176.91   12.87
  -3  -4  -4  155.07   13.56
   3   4   4  189.39   11.13
  -3  -4  -5   40.39    5.94
   3   4   5   34.78    2.88
   3   4   6    9.97    4.24
  -3  -4  -6    2.19    3.25
  -3  -4  -7  300.83   23.97
   3   4   7  443.19   23.77
   3   4   8   81.29    8.02
  -3  -4  -8   46.40    7.27
  -3  -4  -9    2.68    4.26
  -3  -5  15   11.51    5.99
   3   5 -14  237.59   18.58
  -3  -5  14  265.49   19.55
   3   5 -13   46.82    6.31
  -3  -5  13   63.15    7.98
  -3  -5  13   44.94    7.20
   3   5 -12   20.78    4.24
  -3  -5  12   17.44    4.70
  -3  -5  12   17.85    4.70
   3   5 -11    0.23    2.84
  -3  -5  11   -2.55    4.68
  -3  -5  11    5.29    3.90
   3   5 -10   82.05    7.79
  -3  -5  10   85.34    7.76
  -3  -5  10   77.00    9.29
   3   5  -9    0.61    2.68
  -3  -5   9    7.19    5.59
  -3  -5   9    2.71    4.17
  -3  -5   9    0.69    3.29
   3   5  -8  290.85   19.03
  -3  -5   8  326.54   18.64
  -3  -5   8  323.67   19.85
   3   5  -7  579.40   34.50
  -3  -5   7  563.18   31.94
  -3  -5   7  643.24   33.63
  -3  -5   7  626.78   34.86
   3   5  -6   50.98    5.85
  -3  -5   6   51.30    4.06
   3   5  -6   53.92    4.30
  -3  -5   6   71.38    5.45
  -3  -5   6   47.68    6.39
  -3  -5   6   52.06    5.79
   3   5  -5   15.39    3.09
  -3  -5   5   17.05    4.48
   3   5  -5   12.53    3.40
   3   5  -5   16.86    2.02
   3   5  -5   12.80    4.08
  -3  -5   5   15.86    2.37
  -3  -5   5   22.00    3.92
  -3  -5   4  162.22    8.71
  -3  -5   4  178.44    5.84
   3   5  -4  166.73    6.80
  -3  -5   4  198.51    8.51
  -3  -5   3   15.84    3.46
   3   5  -3   14.23    2.75
  -3  -5   3   17.35    3.89
  -3  -5   3   13.44    2.46
  -3  -5   3   23.54    4.12
  -3  -5   2  100.21    8.34
   3   5  -2  112.85    8.40
   3   5  -2   96.68    6.87
  -3  -5   1 1215.34   62.26
   3   5  -1 1304.35   61.29
  -3  -5   1 1436.62   63.78
   3   5  -1 1221.07   59.79
   3   5   0   23.74    3.81
  -3  -5   0   28.06    4.92
   3   5   0   20.71    2.65
  -3  -5   0   22.80    4.04
  -3  -5  -1   48.16    4.40
  -3  -5  -1   60.03    6.53
   3   5   1   41.77    3.80
   3   5   1   47.30    5.03
  -3  -5  -2  142.76   11.55
   3   5   2  134.91    8.61
   3   5   2  149.09   10.21
  -3  -5  -3   78.86    8.35
   3   5   3   83.29    5.83
   3   5   4   -0.72    0.88
   3   5   4   12.46    3.93
  -3  -5  -4    8.20    3.71
   3   5   5   38.74    5.39
  -3  -5  -5   29.90    5.61
   3   5   6   75.00    6.69
  -3  -5  -6   59.72    7.89
   3   5   7   77.24    7.47
  -3  -5  -7   60.13    8.13
  -3  -5  -8   11.73    5.05
  -3  -6  15  167.94   15.13
   3   6 -14    0.28    3.42
  -3  -6  14   -5.77    5.58
  -3  -6  14    1.59    4.62
   3   6 -13    2.66    3.17
  -3  -6  13    1.23    4.45
  -3  -6  13    8.11    4.35
   3   6 -12   17.22    4.32
  -3  -6  12   21.73    5.29
  -3  -6  12   24.86    4.87
   3   6 -11    5.76    3.43
  -3  -6  11    8.20    3.48
   3   6 -10  215.88   15.21
   3   6 -10  205.56   13.78
  -3  -6  10  235.45   14.93
  -3  -6  10  206.96   16.10
   3   6  -9  900.19   52.86
   3   6  -9  917.03   51.42
  -3  -6   9  930.87   52.11
  -3  -6   9  996.79   53.89
   3   6  -8   24.86    4.37
   3   6  -8   18.75    2.92
  -3  -6   8   27.46    5.19
  -3  -6   8   21.82    3.65
   3   6  -7   10.89    3.39
   3   6  -7   14.91    2.38
  -3  -6   7   10.85    1.85
  -3  -6   7   12.72    4.12
  -3  -6   7   13.78    2.69
  -3  -6   7   13.29    5.39
   3   6  -7   15.26    3.33
   3   6  -6   16.21    3.30
  -3  -6   6   18.73    3.60
   3   6  -6   15.89    3.91
   3   6  -6   20.22    2.46
  -3  -6   6   21.62    4.00
  -3  -6   6   17.22    2.40
  -3  -6   6   20.10    2.74
  -3  -6   6   17.20    5.15
  -3  -6   5  247.73   15.72
  -3  -6   5  230.29   14.22
  -3  -6   5  262.89   14.25
   3   6  -5  231.64   15.02
  -3  -6   5  247.01   16.08
  -3  -6   4   81.25    6.79
  -3  -6   4   57.54    6.89
   3   6  -4   60.37    6.95
   3   6  -4   72.75    5.84
  -3  -6   4   62.95    3.99
  -3  -6   4   73.01    6.56
  -3  -6   3  181.96   12.12
  -3  -6   3  161.11   11.98
   3   6  -3  163.84   11.94
   3   6  -3  174.08   10.77
  -3  -6   2  733.18   44.44
   3   6  -2  838.50   44.11
   3   6  -2  808.77   42.68
  -3  -6   2  859.97   45.86
   3   6  -1   24.88    4.14
  -3  -6   1   26.92    5.02
  -3  -6   1   32.03    5.33
   3   6  -1   24.36    3.13
   3   6   0    1.74    1.70
   3   6   0    1.76    2.61
  -3  -6   0    1.58    3.33
  -3  -6   0   -1.61    4.50
  -3  -6  -1  189.05   12.47
   3   6   1  215.11   13.66
  -3  -6  -1  235.94   15.50
   3   6   1  195.32   12.13
   3   6   2    2.46    1.44
   3   6   2    2.31    3.19
  -3  -6  -2    0.26    3.27
  -3  -6  -3  111.68   10.15
   3   6   3  109.17    8.88
  -3  -6  -4  326.61   23.22
   3   6   4  370.38   21.74
   3   6   5   -1.10    3.03
  -3  -6  -5    2.43    3.55
   3   6   6    2.24    4.29
  -3  -6  -6   -1.57    3.80
  -3  -6  -7   24.24    5.78
  -3  -7  15    7.67    5.43
   3   7 -14    3.27    3.74
  -3  -7  14   -6.63    6.61
  -3  -7  14    1.83    4.24
   3   7 -13    1.68    3.48
  -3  -7  13    2.99    4.31
  -3  -7  13    4.59    3.86
   3   7 -12   14.39    4.24
  -3  -7  12   15.33    4.44
   3   7 -11   16.85    4.28
  -3  -7  11   19.46    5.07
  -3  -7  11   18.64    3.99
   3   7 -10  389.03   26.25
   3   7 -10  443.95   25.09
  -3  -7  10  414.20   25.58
  -3  -7  10  438.44   27.36
   3   7  -9    6.86    3.52
   3   7  -9    8.10    2.63
  -3  -7   9   13.68    4.28
  -3  -7   9    5.37    2.77
   3   7  -8    5.97    3.23
   3   7  -8    9.42    2.40
  -3  -7   8    5.82    4.88
  -3  -7   8    6.31    3.80
  -3  -7   8    8.30    2.52
   3   7  -7  146.08   11.85
   3   7  -7  175.38   10.14
  -3  -7   7  143.44   10.18
  -3  -7   7  151.64   13.92
  -3  -7   7  148.77   12.28
  -3  -7   6   76.07    8.64
  -3  -7   6   76.58    5.80
  -3  -7   6   79.45    5.73
   3   7  -6   72.01    6.67
  -3  -7   6   79.75    7.82
  -3  -7   5  559.88   31.49
   3   7  -5  581.48   32.88
  -3  -7   5  568.43   31.10
  -3  -7   5  586.86   34.09
  -3  -7   5  611.51   35.28
  -3  -7   4  560.42   33.61
  -3  -7   4  576.12   34.45
   3   7  -4  560.56   32.24
  -3  -7   4  566.97   33.47
  -3  -7   3    0.46    3.15
  -3  -7   3    7.19    4.49
   3   7  -3   -0.63    3.18
  -3  -7   3   -0.20    3.00
   3   7  -3   -0.49    1.97
  -3  -7   2    2.25    4.68
   3   7  -2   -1.14    2.92
  -3  -7   2    0.28    3.39
   3   7  -2   -0.23    1.87
  -3  -7   1   15.61    4.53
  -3  -7   1    4.49    6.36
   3   7  -1   14.53    3.95
   3   7  -1    7.23    2.27
   3   7   0  109.20    8.37
   3   7   0  111.14    7.03
   3   7   1   89.83    7.80
  -3  -7  -1   95.98    9.25
   3   7   2    2.07    2.88
   3   7   2    1.27    1.02
  -3  -7  -2    4.67    3.94
  -3  -7  -3  273.80   18.53
   3   7   3  243.56   16.13
   3   7   4    3.45    2.96
  -3  -7  -4    1.50    3.85
   3   7   5   13.40    4.41
  -3  -7  -5   21.04    5.41
  -3  -7  -6   49.60    7.45
  -3  -7  -7   -0.35    4.20
  -3  -8  15   18.07    6.29
  -3  -8  14    6.24    4.39
   3   8 -13  160.93   13.90
  -3  -8  13  205.30   14.49
   3   8 -12  196.23   15.38
  -3  -8  12  214.53   15.22
  -3  -8  12  213.54   16.63
   3   8 -11   80.21    8.60
  -3  -8  11   90.55    8.16
  -3  -8  11   91.87    9.68
   3   8 -10   18.60    4.48
   3   8 -10   22.28    3.79
  -3  -8  10   22.26    5.45
  -3  -8  10   20.64    3.89
   3   8  -9   11.16    3.84
   3   8  -9   11.67    2.87
  -3  -8   9   13.56    4.65
  -3  -8   9   13.88    3.19
   3   8  -8   30.13    5.08
  -3  -8   8   19.73    5.11
  -3  -8   8   22.96    3.49
  -3  -8   7   15.70    4.45
  -3  -8   7   14.72    2.65
  -3  -8   7   17.62    5.80
  -3  -8   6   83.59    9.42
  -3  -8   6   77.22    8.02
  -3  -8   5  599.59   38.68
  -3  -8   5  762.63   40.81
  -3  -8   4   74.87    8.63
  -3  -8   4   52.71    6.55
  -3  -8   3    5.54    3.69
  -3  -8   3    7.59    4.67
  -3  -8   3    2.91    3.87
   3   8  -2  206.19   13.45
  -3  -8   2  265.97   15.85
   3   8  -1   31.83    4.93
  -3  -8   1   16.46    7.65
   3   8   0  237.19   16.85
  -3  -8   0  318.09   19.53
  -3  -8  -1  236.64   15.81
   3   8   1  181.19   13.46
  -3  -8  -2   27.18    5.46
   3   8   2   22.90    4.14
  -3  -8  -3    2.66    3.75
   3   8   3    2.65    3.05
   3   8   4    0.98    3.05
  -3  -8  -4    1.26    4.00
  -3  -8  -5   33.57    6.38
  -3  -8  -6   20.94    5.56
  -3  -9  13   42.70    7.86
  -3  -9  12   25.68    6.20
  -3  -9  11   -1.03    4.27
  -3  -9  10   93.73    9.84
  -3  -9   9   19.53    5.27
  -3  -9   8  355.18   23.88
  -3  -9   7   24.07    5.10
  -3  -9   6   62.40    7.58
  -3  -9   5   55.75    7.63
  -3  -9   5   32.12    5.66
  -3  -9   4    8.91    3.77
  -3  -9   4    9.07    4.76
  -3  -9   3   17.44    4.28
  -3  -9   3   19.55    5.21
  -3  -9   2    8.18    4.40
  -3  -9   2   15.11    4.79
  -3  -9   1  260.07   18.70
  -3  -9   0  147.93   11.64
   3   9   0  110.89    9.68
   3   9   1   42.87    5.51
  -3  -9  -1   62.58    7.42
   3   9   2    5.86    3.58
  -3  -9  -2   17.93    4.78
  -3  -9  -3   54.39    7.33
  -3  -9  -4    7.56    4.42
  -3 -10  12    7.62    5.22
  -3 -10  11   -2.90    4.84
   3  10 -10    1.50    3.84
  -3 -10  10    1.03    4.52
  -3 -10   9   83.27    9.46
  -3 -10   8   41.63    6.63
  -3 -10   7   62.01    7.70
  -3 -10   6   12.42    4.38
  -3 -10   5   91.10    8.87
  -3 -10   4   15.52    4.19
  -3 -10   4   16.43    5.17
  -3 -10   3  292.89   19.76
  -3 -10   3  260.12   20.44
  -3 -10   2    0.30    3.98
  -3 -10   1   74.94    8.62
  -3 -10   0   17.60    4.95
  -3 -10  -1   10.19    4.65
  -3 -10  -2    6.11    4.23
  -3 -10  -3    5.76    4.40
   3  11 -12   88.67    9.90
   3  11 -11  151.47   12.65
  -3 -11  11  110.75   12.27
  -3 -11  10    5.80    4.84
  -3 -11   9    6.86    4.66
  -3 -11   8   63.33    8.31
  -3 -11   7   15.73    5.18
  -3 -11   6    4.62    4.00
  -3 -11   5   12.51    4.34
  -3 -11   5    7.07    4.66
  -3 -11   4  144.71   12.93
  -3 -11   3    1.25    3.91
  -3 -11   2   85.61    9.44
  -3 -11   1    8.75    4.39
  -3 -11   0   40.81    6.53
  -3 -11  -1    6.40    4.54
  -3 -11  -2   62.93    8.25
  -3 -12  10   79.92    9.93
  -3 -12   9    8.99    5.20
  -3 -12   8   99.26   10.61
  -3 -12   7   95.17   10.02
  -3 -12   6   96.42   10.62
  -3 -12   6   99.01    9.95
  -3 -12   5   50.64    7.77
  -3 -12   4    0.98    4.18
  -3 -12   3   26.87    5.96
  -3 -12   2    0.32    4.10
  -3 -12   1    7.73    4.51
  -3 -12   0    5.64    4.32
  -3 -13   9   44.26    7.63
  -3 -13   8   20.26    5.90
  -3 -13   6   32.71    6.96
  -3 -13   5   61.85    8.59
  -3 -13   4    3.72    4.39
  -3 -13   3   48.39    7.51
  -4  14  -1    6.85    4.97
  -4  14  -2   -1.07    4.86
  -4  14  -3   26.77    6.87
  -4  13   0    7.11    4.73
  -4  13  -1    0.34    4.56
  -4  13  -2    3.86    4.83
  -4  13  -2    0.35    4.47
  -4  13  -3   13.60    5.78
   4 -13   3   14.81    5.93
  -4  13  -4    1.15    4.71
   4 -13   4    2.05    4.64
  -4  13  -5   13.66    5.91
   4 -13   5   20.96    6.18
  -4  13  -6   -1.68    5.19
   4 -13   6    1.99    4.67
   4 -13   7   10.57    5.10
   4 -13   8   54.79    7.86
  -4  12   2   -0.89    4.42
   4 -12  -1   24.59    6.44
  -4  12   1   29.78    6.33
  -4  12   1   27.68    6.06
  -4  12   0   85.02    9.53
   4 -12   0   63.73    9.13
  -4  12   0   91.95    9.67
  -4  12  -1   94.45   10.21
  -4  12  -1  105.51   10.72
   4 -12   1   97.85   10.65
  -4  12  -2    1.38    4.71
   4 -12   2    1.67    4.29
  -4  12  -2   -0.67    4.76
   4 -12   3  209.35   15.96
  -4  12  -3  170.72   15.51
  -4  12  -4    5.63    5.44
   4 -12   4    2.17    4.42
  -4  12  -5    9.11    5.48
   4 -12   5    3.67    4.72
  -4  12  -6    1.25    5.21
   4 -12   6   -0.30    4.14
  -4  12  -7   19.60    6.86
   4 -12   7   16.03    5.39
   4 -12   7   22.21    5.51
   4 -12   8   28.89    5.90
   4 -11  -3    0.34    4.38
  -4  11   3   -2.80    4.00
  -4  11   3   -3.09    4.27
  -4  11   2   14.37    4.52
  -4  11   2    7.78    4.46
  -4  11   1   66.23    7.88
  -4  11   1   69.77    8.42
   4 -11   0   46.54    7.36
  -4  11   0   46.63    6.81
  -4  11   0   48.78    7.06
  -4  11  -1   14.25    5.16
   4 -11   1   16.52    5.14
   4 -11   2   81.76    8.93
  -4  11  -2   64.02    8.65
  -4  11  -3   45.22    7.57
   4 -11   3   38.60    6.59
  -4  11  -4   59.72    8.70
   4 -11   4   54.48    7.38
   4 -11   5  222.85   16.39
  -4  11  -5  202.90   17.35
   4 -11   6   84.62    8.95
  -4  11  -6   77.42   10.24
   4 -11   7   12.85    5.07
   4 -11   7   13.62    4.79
   4 -11   8   97.25    9.43
  -4  11  -8  114.38   12.72
   4 -11   8   99.33   10.37
  -4  11  -9   10.27    6.31
   4 -11   9   12.27    4.87
   4 -11   9   10.09    4.15
   4 -10  -5   13.74    5.35
  -4  10   5   20.77    5.39
   4 -10  -4   26.54    6.30
  -4  10   4   33.94    5.38
  -4  10   4   34.07    6.09
   4 -10  -3   28.99    6.01
  -4  10   3   21.68    4.79
  -4  10   3   23.74    5.49
  -4  10   2    2.41    3.50
  -4  10   1    0.76    3.39
  -4  10   0   98.09    9.39
   4 -10   0   97.44    9.95
   4 -10   1  110.22   10.51
  -4  10  -1  107.86   10.20
  -4  10  -2    5.46    4.13
   4 -10   2    1.08    3.74
   4 -10   3   80.23    8.61
  -4  10  -3   78.59    9.23
   4 -10   4  211.82   15.49
  -4  10  -4  199.92   16.75
   4 -10   5   60.46    7.24
  -4  10  -5   50.88    8.34
   4 -10   6    1.92    3.36
   4 -10   7   71.51    7.30
  -4  10  -7   64.37    9.51
   4 -10   7   57.71    7.79
   4 -10   8   63.16    6.92
  -4  10  -8   56.61    9.54
   4 -10   8   60.21    7.82
   4 -10   9   73.28    7.73
  -4  10  -9   91.26   11.47
  -4  10 -10  166.75   16.17
   4  -9  -7   34.40    6.75
   4  -9  -6    0.92    4.31
  -4   9   6    2.88    4.16
   4  -9  -5    2.40    4.36
  -4   9   5    2.53    3.27
   4  -9  -4    9.63    4.51
  -4   9   4    6.87    3.48
   4  -9  -3    3.69    4.10
  -4   9   3    5.03    3.24
  -4   9   2    0.67    2.98
   4  -9  -2   -0.83    3.88
  -4   9   1   53.84    6.38
  -4   9   1   48.59    7.17
  -4   9   0  172.51   13.12
  -4   9   0  155.52   13.52
   4  -9   0  182.06   13.65
   4  -9   1   64.64    7.32
  -4   9  -1   57.77    6.99
  -4   9  -1   47.06    7.06
   4  -9   2   54.95    6.58
  -4   9  -2   49.70    6.78
  -4   9  -2   41.90    6.73
  -4   9  -3   -0.30    3.56
   4  -9   3    1.61    3.01
   4  -9   4    3.92    3.45
   4  -9   5   43.87    5.78
   4  -9   6  159.57   12.20
  -4   9  -6  163.92   14.75
   4  -9   7   65.86    6.74
  -4   9  -7   59.12    9.21
   4  -9   8   91.90    8.29
  -4   9  -8   99.38   11.69
  -4   9  -9  125.98   13.56
   4  -9   9  126.33   10.14
  -4   9 -10   19.52    6.90
   4  -9  10   13.68    4.50
   4  -9  10    9.93    3.65
   4  -8  -9    5.65    4.78
   4  -8  -8  151.16   12.91
   4  -8  -7   26.81    5.80
  -4   8   7   29.23    4.83
  -4   8   6   72.29    6.94
   4  -8  -6   66.43    8.05
  -4   8   5   42.29    5.31
   4  -8  -5   36.66    6.08
  -4   8   4   41.11    5.35
  -4   8   4   53.43    7.17
   4  -8  -4   54.97    6.90
  -4   8   3    1.79    2.91
   4  -8  -3    5.34    3.74
  -4   8   3    0.87    3.70
  -4   8   2  151.59   11.85
  -4   8   2  161.97   13.15
   4  -8  -2  167.24   12.79
  -4   8   1   75.16    7.43
  -4   8   1   75.57    8.38
  -4   8   0    2.27    3.07
   4  -8   0    6.16    3.72
  -4   8   0    1.97    3.55
   4  -8   1   46.15    5.85
  -4   8  -1   48.66    6.09
  -4   8  -1   35.20    5.93
  -4   8  -2    5.66    3.60
   4  -8   2    4.63    3.11
  -4   8  -2    4.04    3.56
   4  -8   3    0.84    2.89
   4  -8   4   15.55    3.80
  -4   8  -5  304.27   16.91
   4  -8   5  299.05   19.60
  -4   8  -5  313.81   22.25
   4  -8   6   63.05    6.69
  -4   8  -6   69.77    9.21
  -4   8  -6   70.34    5.07
  -4   8  -7   27.92    6.79
   4  -8   7   25.77    4.44
  -4   8  -7   25.10    3.18
  -4   8  -8   30.90    3.68
  -4   8  -8   23.65    7.02
   4  -8   8   26.28    5.00
   4  -8   8   22.85    4.26
  -4   8  -9    9.68    2.77
  -4   8  -9    1.79    5.20
   4  -8   9    8.19    3.63
   4  -8   9    3.51    3.02
  -4   8 -10   12.50    3.35
  -4   8 -10    7.22    5.99
   4  -8  10    7.25    3.80
   4  -8  10    4.98    3.36
  -4   8 -11   60.19    6.22
   4  -7 -10    5.95    4.26
   4  -7  -9   53.74    7.19
   4  -7  -8   51.54    6.99
   4  -7  -7   34.21    5.84
   4  -7  -6    7.86    4.16
   4  -7  -5   30.04    5.23
   4  -7  -4    5.32    3.74
  -4   7   4    3.83    3.97
  -4   7   3  846.01   51.60
   4  -7  -3  913.73   50.80
  -4   7   2  128.28   10.08
  -4   7   2  123.41   11.08
   4  -7  -2  135.20   10.61
  -4   7   1  186.10   12.94
  -4   7   1  171.74   13.83
   4  -7   0   75.28    7.13
  -4   7   0   75.18    7.17
  -4   7   0   56.14    7.21
   4  -7   1  122.36    9.45
  -4   7  -1  123.87    9.92
   4  -7   2    4.42    3.02
  -4   7  -2    4.15    3.47
   4  -7   3  159.37   11.77
   4  -7   4  217.90   14.91
  -4   7  -4  225.18   16.79
  -4   7  -4  221.16   12.33
  -4   7  -5    3.78    1.52
  -4   7  -5    4.91    4.34
   4  -7   5    4.47    2.81
  -4   7  -6   38.06    7.31
   4  -7   6   37.59    5.29
   4  -7   6   27.88    4.47
  -4   7  -6   33.06    3.40
  -4   7  -7   21.16    3.07
  -4   7  -7   22.17    6.30
   4  -7   7   28.15    4.68
   4  -7   7   20.62    3.95
  -4   7  -8   -0.13    2.05
  -4   7  -8    2.07    5.04
   4  -7   8    0.48    3.10
   4  -7   8    0.74    2.65
  -4   7  -9    4.23    2.57
  -4   7  -9   -0.43    5.47
   4  -7   9    4.13    3.45
   4  -7   9    0.96    2.92
  -4   7 -10  156.09   16.00
   4  -7  10  177.81   12.90
  -4   7 -10  194.99   12.71
  -4   7 -11    7.77    3.16
  -4   7 -12    3.98    3.09
  -4   7 -13   13.37    4.08
   4  -6 -10    8.61    4.25
   4  -6  -9   30.58    5.51
   4  -6  -8    8.43    3.88
   4  -6  -7    0.89    3.24
   4  -6  -6    0.65    3.11
   4  -6  -5    0.83    3.00
  -4   6   5    0.30    1.48
  -4   6   4  538.08   34.64
  -4   6   4  559.72   30.75
   4  -6  -4  603.93   33.64
   4  -6  -3  114.62    8.53
  -4   6   3  117.67   10.30
  -4   6   3  104.82    6.15
   4  -6  -3  120.02    9.27
   4  -6  -2  161.25   11.36
   4  -6  -2  139.24   13.08
  -4   6   2  145.78   12.30
   4  -6  -1   17.19    4.12
  -4   6   1   11.99    3.91
   4  -6   0   12.35    3.73
  -4   6   0   15.51    3.54
  -4   6   0   12.50    3.30
   4  -6   0   14.95    3.52
  -4   6   0    5.40    3.54
   4  -6   1  148.83   10.62
   4  -6   1  138.63   11.00
  -4   6  -1  123.70   10.85
  -4   6  -1  142.78   10.36
   4  -6   2 1547.44   84.01
  -4   6  -2 1514.40   84.92
  -4   6  -2 1520.64   84.68
   4  -6   3   78.81    6.90
  -4   6  -3   83.11    8.17
   4  -6   3   77.95    7.71
  -4   6  -3   73.57    4.57
   4  -6   4  175.68   12.49
  -4   6  -4  196.18   14.49
  -4   6  -4  180.50   10.65
   4  -6   5   44.46    5.21
  -4   6  -5   44.72    6.97
   4  -6   5   39.85    5.27
  -4   6  -5   44.44    3.74
  -4   6  -6   92.36   10.06
   4  -6   6   84.27    7.37
   4  -6   6   80.82    7.62
  -4   6  -6   81.66    6.11
  -4   6  -7   17.91    2.84
  -4   6  -7   20.32    5.90
   4  -6   7   23.60    4.33
   4  -6   7   18.47    3.81
  -4   6  -8   22.27    3.38
  -4   6  -8   15.10    5.94
   4  -6   8   24.02    4.42
   4  -6   8   23.38    3.99
  -4   6  -9  124.69   13.42
   4  -6   9  142.38   10.68
   4  -6   9  141.21   11.12
  -4   6  -9  139.38   10.00
  -4   6 -10    7.61    3.03
  -4   6 -10    0.41    5.23
  -4   6 -11    3.85    2.90
  -4   6 -12   17.10    4.03
  -4   6 -13   -0.95    3.18
   4  -5 -10    4.57    3.39
   4  -5  -9    3.45    3.48
   4  -5  -8   24.55    4.47
  -4   5   7   86.71    6.79
   4  -5  -7   84.63    7.77
  -4   5   6  288.99   16.66
   4  -5  -6  262.29   17.87
   4  -5  -5  103.23   11.62
   4  -5  -5   89.07    7.58
  -4   5   5   84.46    6.07
   4  -5  -5   85.54    7.67
   4  -5  -4   96.52    7.85
  -4   5   4   90.14    5.85
  -4   5   4   81.28    7.35
   4  -5  -4   88.64    7.97
  -4   5   3    4.67    2.60
   4  -5  -3    7.10    3.00
   4  -5  -3    6.17    2.71
  -4   5   3    4.65    3.62
   4  -5  -3   -0.59    8.07
  -4   5   3   -0.23    0.50
   4  -5  -2   36.32    4.40
  -4   5   2   30.68    5.43
  -4   5   2   38.58    4.54
   4  -5  -2   31.53    7.12
   4  -5  -1    1.98    2.85
  -4   5   1    0.89    2.37
  -4   5   1    2.14    3.09
   4  -5   0   78.86    7.25
  -4   5   0   59.62    6.88
  -4   5   0   76.72    6.54
   4  -5   1 1346.38   74.81
  -4   5  -1 1293.70   75.31
   4  -5   1 1447.56   75.71
  -4   5  -1 1320.09   75.40
  -4   5  -1 1397.48   74.82
   4  -5   2  157.84   10.12
  -4   5  -2  178.24   11.53
  -4   5  -2  157.72   10.71
  -4   5  -2  140.58    7.63
  -4   5  -2  171.65   10.44
  -4   5  -3  203.34   14.24
   4  -5   3  192.34   12.79
   4  -5   3  208.45   13.90
  -4   5  -3  181.77   10.94
  -4   5  -4    9.40    3.25
  -4   5  -4    5.69    3.69
   4  -5   4    8.89    2.93
   4  -5   4    5.83    2.50
   4  -5   4    7.30    3.22
  -4   5  -4    5.58    1.63
  -4   5  -5   13.24    4.64
   4  -5   5   12.17    3.21
   4  -5   5   10.62    3.14
   4  -5   5    9.20    3.05
  -4   5  -5   10.94    2.16
  -4   5  -6  311.65   21.23
   4  -5   6  273.21   18.19
   4  -5   6  300.08   18.67
  -4   5  -6  284.95   17.16
  -4   5  -7  740.22   46.44
   4  -5   7  766.05   43.34
   4  -5   7  761.81   43.64
  -4   5  -7  758.41   42.38
  -4   5  -8    5.27    4.89
   4  -5   8    4.63    2.88
   4  -5   8    7.07    3.05
  -4   5  -8    5.47    2.39
  -4   5  -9   32.34    7.06
  -4   5  -9   37.87    4.65
  -4   5 -10    6.82    3.09
  -4   5 -10    9.02    5.50
  -4   5 -11   26.46    4.64
  -4   5 -12   11.04    3.73
   4  -4 -10    5.62    3.17
   4  -4  -9   17.72    3.85
   4  -4  -8    3.69    2.82
  -4   4   8    5.77    2.83
  -4   4   7  226.64   13.61
   4  -4  -7  204.07   13.99
   4  -4  -7  202.36   14.03
   4  -4  -6   40.09    4.79
   4  -4  -6   35.94    4.40
   4  -4  -6   41.07    5.51
  -4   4   6   44.00    4.16
  -4   4   5   18.20    3.54
   4  -4  -5   15.89    2.95
   4  -4  -5   28.77    4.97
   4  -4  -5   19.10    3.42
   4  -4  -5   33.24    8.40
  -4   4   5   18.84    2.63
  -4   4   4   21.37    3.45
   4  -4  -4   22.94    3.02
   4  -4  -4   27.04    3.76
   4  -4  -4   22.31    9.67
  -4   4   4   25.90    2.61
   4  -4  -4   23.00    4.07
  -4   4   3    0.27    2.21
   4  -4  -3   -0.66    2.67
   4  -4  -3    4.48    2.44
  -4   4   3    3.69    3.38
  -4   4   3    0.92    1.02
   4  -4  -2  436.90   11.50
  -4   4   2  454.61   11.36
  -4   4   1  170.01   12.75
   4  -4  -1  256.88   14.55
  -4   4   1  192.05    9.90
  -4   4   1  148.55    9.60
  -4   4   1  245.60   12.45
   4  -4   0  367.12   15.75
  -4   4   0  282.42   14.82
  -4   4   0  246.45   11.01
  -4   4   0  319.85   14.16
   4  -4   1  123.05    6.73
   4  -4   1  140.52    7.94
  -4   4  -1  133.81    7.53
  -4   4  -1  145.83    7.27
  -4   4  -2   15.08    3.63
  -4   4  -2   15.25    3.27
   4  -4   2   14.77    3.11
   4  -4   2   17.73    4.02
  -4   4  -2   12.88    1.76
  -4   4  -3   24.30    4.27
   4  -4   3   14.36    3.07
   4  -4   3   18.61    3.68
  -4   4  -3   13.98    1.99
  -4   4  -4    5.37    3.56
  -4   4  -4   -0.32    2.62
   4  -4   4   -0.48    2.31
   4  -4   4    0.30    2.32
   4  -4   4    2.14    2.56
  -4   4  -4   -0.17    1.35
  -4   4  -5  239.21   14.79
  -4   4  -5  233.27   16.48
   4  -4   5  223.85   14.63
   4  -4   5  217.61   14.53
   4  -4   5  204.84   14.48
   4  -4   5  242.94   15.21
  -4   4  -5  206.77   13.44
  -4   4  -6  830.53   48.28
   4  -4   6  818.34   45.83
   4  -4   6  815.36   45.79
   4  -4   6  764.68   45.79
  -4   4  -6  812.36   44.83
  -4   4  -7   35.97    6.94
   4  -4   7   31.96    4.58
   4  -4   7   37.49    5.01
   4  -4   7   40.22    5.47
  -4   4  -7   39.82    4.41
  -4   4  -8   28.53    6.40
  -4   4  -8   32.13    4.18
  -4   4  -9   10.32    5.20
  -4   4  -9    3.88    2.55
  -4   4 -10   -0.69    4.66
  -4   4 -10    0.39    2.68
  -4   4 -11  118.02    9.85
  -4   4 -12  133.96   11.15
  -4   3  11   48.99    6.99
   4  -3 -10  209.21   13.54
  -4   3  10  200.66   14.41
   4  -3  -9  152.88   10.99
  -4   3   9  158.31   11.65
   4  -3  -9  174.57   12.20
   4  -3  -8    2.13    2.73
  -4   3   8   -2.20    4.07
   4  -3  -8    1.41    2.20
  -4   3   8    0.14    2.24
   4  -3  -7  221.20   14.75
   4  -3  -7  214.60   14.30
  -4   3   7  204.78   15.20
  -4   3   7  255.24   14.42
  -4   3   6   16.97    3.55
   4  -3  -6   16.99    3.23
  -4   3   6    3.58    3.50
   4  -3  -6   13.77    2.97
   4  -3  -6   23.23    5.79
   4  -3  -6   16.99    4.31
  -4   3   6   15.93    2.64
  -4   3   5   -1.27    2.34
   4  -3  -5    0.76    2.03
  -4   3   5   -3.16    3.36
   4  -3  -5   -0.56    3.17
   4  -3  -5    1.58    2.27
   4  -3  -5   -0.24    4.59
  -4   3   5    1.79    1.62
   4  -3  -4   78.82    6.55
   4  -3  -4   82.57    6.38
   4  -3  -4   66.21   10.32
  -4   3   4   82.28    5.68
   4  -3  -4   89.01    7.55
  -4   3   4   78.13    6.50
   4  -3  -3   53.43    5.26
   4  -3  -3   62.60    6.03
  -4   3   3   52.41    6.59
  -4   3   3   57.97    4.15
  -4   3   3   62.65    5.35
   4  -3  -2  512.30   26.31
   4  -3  -2  453.80   25.29
  -4   3   2  436.16   23.69
  -4   3   2  473.87   25.19
   4  -3  -1  176.94   11.91
   4  -3  -1  175.33   14.36
  -4   3   1  179.94   11.07
  -4   3   1  176.97   12.74
  -4   3   1  217.59   12.26
  -4   3   1  173.93   10.41
  -4   3   0   34.11    2.90
   4  -3   0   48.76    5.36
  -4   3   0   38.92    3.20
  -4   3   0   40.24    4.71
  -4   3   0   37.37    4.26
  -4   3  -1   12.19    1.99
  -4   3  -1   13.20    2.87
   4  -3   1   12.51    2.78
  -4   3  -1   16.54    2.96
  -4   3  -1   10.95    1.79
   4  -3   2    0.68    2.68
  -4   3  -2    1.02    2.31
   4  -3   2    1.04    2.06
   4  -3   2    2.16    2.78
  -4   3  -2    0.84    1.29
  -4   3  -3  766.69   40.36
   4  -3   3  708.50   39.11
   4  -3   3  743.95   39.59
   4  -3   3  732.66   39.49
  -4   3  -3  683.81   37.83
  -4   3  -4   40.37    4.52
  -4   3  -4   38.14    5.39
   4  -3   4   35.43    4.11
   4  -3   4   31.34    4.27
   4  -3   4   26.63    4.38
  -4   3  -4   31.84    3.44
   4  -3   4   36.16    4.50
  -4   3  -5  271.15   16.59
  -4   3  -5  258.85   18.05
   4  -3   5  233.47   16.73
   4  -3   5  273.18   16.86
   4  -3   5  245.08   16.18
   4  -3   5  279.24   16.87
  -4   3  -5  250.82   15.72
  -4   3  -6   34.72    6.09
   4  -3   6   34.74    4.43
   4  -3   6   42.58    5.00
   4  -3   6   34.50    5.06
  -4   3  -6   34.51    4.04
  -4   3  -7   13.50    5.21
   4  -3   7   18.11    4.19
  -4   3  -7   14.10    3.10
  -4   3  -8   30.86    6.32
  -4   3  -8   36.30    4.67
  -4   3  -9    0.97    4.25
  -4   3  -9    2.53    2.72
  -4   3 -10  138.81   11.00
  -4   3 -11  145.50   11.61
  -4   3 -12    3.86    3.38
  -4   2  12   23.93    8.43
  -4   2  11  195.89   14.54
   4  -2 -11  214.07   15.16
   4  -2 -10  105.34    8.04
  -4   2  10  113.95    9.83
   4  -2 -10  124.25    9.92
  -4   2   9   23.83    4.42
   4  -2  -9   21.03    4.02
   4  -2  -9   16.39    2.98
   4  -2  -8  169.62   11.51
   4  -2  -8  141.89   10.17
  -4   2   8  145.64   11.54
  -4   2   8  168.37   10.81
   4  -2  -7   88.11    7.17
   4  -2  -7   68.38    6.19
  -4   2   7   93.36    6.71
   4  -2  -7   84.45    8.53
  -4   2   7   75.65    7.07
   4  -2  -6  419.54   25.13
   4  -2  -6  411.30   24.63
  -4   2   6  366.93   24.97
   4  -2  -6  412.34   26.49
   4  -2  -6  521.89   27.32
  -4   2   6  441.54   24.44
  -4   2   6  407.99   24.61
   4  -2  -6  493.07   26.66
   4  -2  -5 1051.80   60.98
   4  -2  -5 1047.96   60.72
  -4   2   5 1004.26   61.20
   4  -2  -5 1479.64   64.15
   4  -2  -5 1054.55   62.13
  -4   2   5 1118.96   60.29
  -4   2   5 1072.11   60.74
   4  -2  -5 1373.40   63.20
   4  -2  -4  260.04   16.81
   4  -2  -4  208.62   13.47
   4  -2  -4  203.44   13.26
  -4   2   4  191.50   13.58
   4  -2  -4  240.51   14.84
  -4   2   4  206.59   12.57
  -4   2   4  213.90   13.26
  -4   2   3    2.79    1.36
  -4   2   3    3.62    2.15
   4  -2  -3    2.11    1.89
   4  -2  -3    3.20    3.52
   4  -2  -3    6.05    8.34
   4  -2  -2  464.76   24.73
   4  -2  -2  507.45   25.94
  -4   2   2  365.00   25.38
  -4   2   2  483.30   24.71
  -4   2   2  413.67   23.41
  -4   2   1   46.81    3.77
   4  -2  -1   52.69    4.88
  -4   2   1   48.49    4.80
  -4   2   1   53.81    5.41
   4  -2  -1   32.82    7.30
  -4   2   1   56.94    5.00
  -4   2   0    2.29    1.57
  -4   2   0    0.26    2.17
  -4   2   0    1.22    1.75
  -4   2   0    3.03    2.08
   4  -2   1   24.73    4.09
  -4   2  -1   24.93    3.47
   4  -2   1   20.91    3.41
  -4   2  -1   24.02    2.86
  -4   2  -1   21.01    3.04
  -4   2  -2  311.25   18.41
   4  -2   2  289.91   18.38
   4  -2   2  326.77   18.83
   4  -2   2  287.13   18.60
  -4   2  -2  285.09   17.50
  -4   2  -3  179.07   12.70
   4  -2   3  181.66   11.93
   4  -2   3  164.98   11.11
   4  -2   3  189.06   11.96
   4  -2   3  191.32   11.94
  -4   2  -3  174.25   11.06
  -4   2  -4  251.62   16.36
   4  -2   4  218.91   14.50
   4  -2   4  251.90   15.45
   4  -2   4  248.20   15.30
   4  -2   4  202.55   15.41
   4  -2   4  242.84   15.20
  -4   2  -4  228.26   14.50
  -4   2  -5    4.55    3.54
  -4   2  -5    6.42    2.72
   4  -2   5    9.52    2.43
   4  -2   5   11.30    3.71
   4  -2   5   10.71    2.98
  -4   2  -5    8.68    2.45
  -4   2  -6    1.34    3.64
   4  -2   6    3.58    3.62
   4  -2   6    1.03    2.65
  -4   2  -6    3.19    2.46
  -4   2  -7   35.48    6.61
  -4   2  -7   43.88    5.00
  -4   2  -8  238.13   17.72
  -4   2  -8  243.01   16.17
  -4   2  -9    5.42    4.35
  -4   2  -9   10.41    3.56
  -4   2 -10   73.63    7.66
  -4   2 -11    7.44    3.70
  -4   1  13   50.40    9.90
   4  -1 -13   30.52    6.00
   4  -1 -12    1.32    3.57
  -4   1  12   -0.32    7.66
   4  -1 -11    2.88    3.42
  -4   1  11   17.47    8.39
   4  -1 -10  120.28    8.40
  -4   1  10  105.15   11.38
   4  -1 -10  140.42   10.49
   4  -1  -9    6.56    3.19
   4  -1  -9    8.95    2.39
  -4   1   9   11.22    6.64
   4  -1  -8   48.59    5.43
   4  -1  -8   44.25    4.28
  -4   1   8   49.50    4.86
  -4   1   8   30.34    8.41
   4  -1  -7  200.33   13.04
   4  -1  -7  173.75   11.73
  -4   1   7  173.88   14.19
   4  -1  -7  164.41   14.41
   4  -1  -7  204.09   13.92
  -4   1   7  189.49   12.08
  -4   1   7  200.70   12.13
   4  -1  -6 1194.59   63.42
   4  -1  -6 1085.31   62.34
  -4   1   6 1119.01   63.83
   4  -1  -6 1034.60   64.45
   4  -1  -6 1328.10   64.28
  -4   1   6 1091.23   62.29
  -4   1   6 1123.88   62.33
   4  -1  -6 1306.78   64.53
   4  -1  -5  262.16   16.41
   4  -1  -5  234.21   15.49
  -4   1   5  242.24   16.41
   4  -1  -5  278.20   17.65
  -4   1   5  243.10   15.31
  -4   1   5  242.87   15.46
   4  -1  -4   81.36    7.28
   4  -1  -4   59.35    5.75
   4  -1  -4   59.48    5.18
   4  -1  -4   69.68    6.92
  -4   1   4   60.38    4.81
  -4   1   4   62.88    5.15
   4  -1  -3  340.21   18.95
   4  -1  -3  297.76   20.45
   4  -1  -3  282.15   17.09
  -4   1   3  272.79   17.56
  -4   1   3  264.02   16.31
  -4   1   3  289.14   16.99
  -4   1   2  576.98   33.13
  -4   1   2  604.81   34.41
   4  -1  -2  620.93   34.13
   4  -1  -2  713.04   35.50
  -4   1   2  572.04   34.70
  -4   1   2  657.17   34.06
  -4   1   1  693.44   36.73
  -4   1   1  654.79   35.97
   4  -1  -1  693.28   36.94
  -4   1   1  690.74   36.91
  -4   1   0 1657.43   85.34
  -4   1   0 1663.35   84.96
  -4   1   0 1616.48   85.47
  -4   1   0 1658.34   84.96
  -4   1  -1   67.01    5.80
   4  -1   1   70.67    7.32
  -4   1  -1   63.19    5.63
   4  -1   2    1.97    2.64
  -4   1  -2    1.40    2.30
   4  -1   2    0.64    2.18
   4  -1   2    2.28    2.13
  -4   1  -2    1.55    1.86
  -4   1  -3  269.96   16.81
  -4   1  -3  270.98   17.63
   4  -1   3  304.90   17.10
   4  -1   3  248.23   16.02
   4  -1   3  298.95   17.42
   4  -1   3  277.57   16.74
  -4   1  -3  280.91   16.82
  -4   1  -4   50.23    5.89
   4  -1   4   49.82    5.31
   4  -1   4   51.85    4.61
   4  -1   4   47.09    4.95
  -4   1  -4   48.87    5.11
   4  -1   4   44.79    6.05
   4  -1   5   30.20    4.37
  -4   1  -5   24.26    4.73
   4  -1   5   36.23    4.32
   4  -1   5   33.94    5.21
  -4   1  -5   30.73    4.25
   4  -1   6   13.05    3.21
  -4   1  -6   12.90    4.13
   4  -1   6   13.26    4.22
   4  -1   6   15.99    3.42
  -4   1  -6   14.84    3.46
  -4   1  -7  156.25   13.06
   4  -1   7  160.83   11.19
  -4   1  -7  164.09   11.98
  -4   1  -8   24.49    5.24
  -4   1  -8   27.92    4.56
  -4   1  -9   74.32    7.57
  -4   1 -10   -0.26    3.32
  -4   1 -11    6.24    4.12
   4  -1  12    7.85    4.81
  -4   0  14   28.43   13.16
   4   0 -13    1.98    3.91
  -4   0  13   35.46   17.65
   4   0 -12    1.04    3.44
  -4   0  12   -4.36    9.67
   4   0 -11   70.38    7.22
  -4   0  11   64.00    6.41
   4   0 -10  112.97    9.06
   4   0 -10   94.80    6.58
  -4   0  10  102.00    7.80
   4   0  -9   37.43    4.96
   4   0  -9   36.74    3.55
  -4   0   9   39.37    4.73
   4   0  -8   65.59    6.29
   4   0  -8   52.71    4.60
  -4   0   8   69.61    5.59
   4   0  -7   40.82    4.85
   4   0  -7   33.89    3.50
   4   0  -7   42.91    6.00
   4   0  -7   18.18    5.98
  -4   0   7   35.86    3.59
  -4   0   7   34.39    3.84
  -4   0   7   13.10    7.08
  -4   0   6    7.72    2.25
  -4   0   6    8.17    2.18
   4   0  -6    7.36    2.85
   4   0  -6    7.21    2.15
   4   0  -6   10.02    4.25
   4   0  -6    6.33    4.27
   4   0  -5  379.20   23.60
   4   0  -5  390.44   22.68
   4   0  -5  462.34   23.81
   4   0  -5  416.60   24.95
   4   0  -5  458.91   24.40
  -4   0   5  356.11   22.40
  -4   0   5  362.71   22.30
  -4   0   4   27.18    4.23
  -4   0   4   15.70    2.50
   4   0  -4   26.11    3.82
  -4   0   4   19.10    2.77
   4   0  -4   21.00    2.94
   4   0  -4   24.25    4.43
   4   0  -4   31.40    4.45
   4   0  -4   20.57    4.73
  -4   0   3  263.02   16.65
  -4   0   3  281.52   16.99
   4   0  -3  292.90   17.34
  -4   0   3  253.78   17.46
   4   0  -3  325.25   18.97
  -4   0   2  669.13   38.81
  -4   0   2  683.29   39.10
   4   0  -2  796.75   40.79
   4   0  -2  733.50   39.52
  -4   0   2  685.44   39.72
  -4   0   2  690.01   39.46
  -4   0   1 1919.69   98.93
  -4   0   1 2040.09   99.27
   4   0  -1 1148.59  101.38
   4   0  -1 2061.84   99.52
   4   0  -1 2172.59  100.44
  -4   0   1 1317.88   99.32
  -4   0   1 1918.52   98.64
  -4   0   0   49.07    4.90
  -4   0   0   51.03    4.93
  -4   0   0   47.52    5.18
  -4   0   0   43.40    3.82
  -4   0  -1   64.31    5.54
   4   0   1   46.53    8.69
  -4   0  -1   63.03    5.95
  -4   0  -2  151.05   10.27
   4   0   2  132.03   11.58
   4   0   2  157.31    9.58
   4   0   2  137.00   10.00
  -4   0  -2  166.46   10.92
  -4   0  -3  554.83   32.88
   4   0   3  669.72   34.12
   4   0   3  576.13   32.34
   4   0   3  501.25   34.32
   4   0   3  570.85   32.79
  -4   0  -3  608.55   33.72
  -4   0  -4  486.32   31.89
   4   0   4  479.26   32.75
   4   0   4  537.39   31.06
  -4   0  -4  553.28   32.09
  -4   0  -5  466.17   31.90
   4   0   5  589.73   31.46
   4   0   5  514.59   32.95
   4   0   5  567.07   31.46
  -4   0  -5  557.93   32.20
   4   0   6   26.27    4.20
  -4   0  -6   33.61    5.12
  -4   0  -6   31.05    4.75
   4   0   7    4.51    2.92
  -4   0  -7    5.93    3.93
  -4   0  -7    5.44    3.29
  -4   0  -8   75.31    7.82
  -4   0  -9    3.67    3.64
  -4   0 -10    2.54    3.79
   4   0  11   -2.25    4.83
   4   0  12   70.00    8.48
   4   1 -14    6.38    4.24
  -4  -1  14    1.45   17.25
   4   1 -13   26.91    5.49
  -4  -1  13   31.69   21.64
   4   1 -12  163.60   12.08
  -4  -1  12   71.65   16.87
  -4  -1  11   31.95    4.88
   4   1 -11   31.30    5.19
  -4  -1  11   24.69   11.48
   4   1 -10   66.07    6.84
  -4  -1  10   62.23    6.43
   4   1 -10   60.12    4.51
   4   1  -9  115.29    9.55
  -4  -1   9  116.75    9.35
   4   1  -9  109.42    7.42
  -4  -1   8   24.23    3.36
   4   1  -8   17.61    3.86
   4   1  -8   20.88    2.73
  -4  -1   8   21.70   11.01
  -4  -1   8   20.23    3.89
  -4  -1   7    8.84    2.42
  -4  -1   7    9.16    2.09
   4   1  -7    8.52    3.10
  -4  -1   7   11.11    3.21
   4   1  -7    7.40    2.02
   4   1  -7    3.01    5.12
   4   1  -7    9.10    3.40
   4   1  -6  136.22   10.13
   4   1  -6  135.88    8.82
   4   1  -6  132.33   11.58
   4   1  -6  137.07    9.53
   4   1  -6  140.44   10.28
  -4  -1   6  126.83    8.97
  -4  -1   6  122.61    8.41
   4   1  -5  539.00   30.75
   4   1  -5  546.86   29.42
   4   1  -5  576.56   29.66
   4   1  -5  593.55   32.18
   4   1  -5  601.57   30.82
  -4  -1   5  482.94   29.21
  -4  -1   5  515.61   28.95
  -4  -1   4   13.25    2.55
  -4  -1   4   14.08    2.42
   4   1  -4   11.95    4.24
   4   1  -4   15.31    3.75
   4   1  -4   13.83    2.72
   4   1  -4   16.22    3.13
  -4  -1   4   13.57    4.82
  -4  -1   3   66.06    5.57
  -4  -1   3   72.73    5.69
  -4  -1   3   70.61    6.80
   4   1  -3   74.59    6.00
  -4  -1   3   63.16    6.28
   4   1  -3   85.44    7.90
   4   1  -2  339.49   20.51
   4   1  -2  356.70   20.48
  -4  -1   2  292.56   19.00
  -4  -1   2  315.67   19.07
  -4  -1   2  307.76   19.54
   4   1  -2  339.14   19.50
  -4  -1   2  319.72   18.77
  -4  -1   1    6.50    2.56
  -4  -1   1    5.64    2.55
   4   1  -1    6.33    2.99
  -4  -1   1    3.96    2.28
   4   1  -1    8.15    4.72
  -4  -1   1    5.72    3.31
  -4  -1   1    6.15    1.58
   4   1   0  178.20   17.72
  -4  -1   0  241.62   14.64
   4   1   0  278.76   15.97
  -4  -1   0  210.59   15.66
   4   1   1    3.32    1.39
  -4  -1  -1    3.30    2.27
  -4  -1  -1    4.64    2.77
   4   1   1   -2.07    7.95
  -4  -1  -2  322.47   18.71
   4   1   2  363.26   17.86
  -4  -1  -2  362.41   20.12
  -4  -1  -3  499.72   27.95
  -4  -1  -3  580.49   29.51
   4   1   3  525.51   27.59
  -4  -1  -4  668.64   39.51
   4   1   4  676.08   41.26
   4   1   4  759.38   38.76
  -4  -1  -5    2.98    2.76
   4   1   5    2.58    2.35
  -4  -1  -5   -0.44    2.75
   4   1   5    0.57    3.38
  -4  -1  -6   20.93    4.28
  -4  -1  -6   17.93    4.10
   4   1   6   21.59    4.76
  -4  -1  -7    6.78    3.65
  -4  -1  -8  173.13   13.87
   4   1   9  122.70    9.89
  -4  -1  -9  108.68   10.66
   4   1  10   21.52    5.40
  -4  -1 -10   22.95    5.55
   4   2 -14    1.21    4.02
  -4  -2  14   37.19   18.52
   4   2 -13  216.33   15.31
  -4  -2  13  133.48   21.43
   4   2 -12   85.00    8.39
  -4  -2  12   50.43   14.60
   4   2 -11   57.62    6.70
  -4  -2  11   32.56   10.83
   4   2 -10    3.42    2.96
  -4  -2  10    7.67    4.11
   4   2  -9   46.52    5.88
  -4  -2   9   53.27    6.69
  -4  -2   8   29.03    3.85
   4   2  -8   31.43    4.73
  -4  -2   8   27.95    4.89
   4   2  -8   29.93    3.03
   4   2  -7  397.40   23.99
   4   2  -7  356.13   25.58
  -4  -2   7  390.77   23.59
   4   2  -7  396.60   21.95
  -4  -2   7  396.09   22.83
  -4  -2   7  369.04   21.66
   4   2  -6  284.45   17.12
   4   2  -6  272.51   18.40
  -4  -2   6  252.57   16.40
   4   2  -6  271.44   15.22
   4   2  -6  253.88   15.49
   4   2  -6  285.31   16.89
  -4  -2   6  259.73   15.64
  -4  -2   6  245.22   14.77
  -4  -2   5  125.25    8.16
   4   2  -5  148.72   10.40
   4   2  -5  151.89   11.48
   4   2  -5  126.11    8.30
   4   2  -5  140.00    9.71
  -4  -2   5  126.49    8.73
  -4  -2   4  128.46    8.90
  -4  -2   4  133.30    8.64
   4   2  -4  126.10    8.22
  -4  -2   3  112.32    8.12
  -4  -2   3  105.39    7.64
  -4  -2   3   93.57    9.38
   4   2  -3  107.83    7.24
  -4  -2   3  109.96    7.76
   4   2  -3  113.71    9.65
   4   2  -3  113.89    8.72
  -4  -2   2    4.00    2.80
   4   2  -2    0.19    3.50
  -4  -2   2    3.19    2.44
  -4  -2   2    1.37    1.95
   4   2  -2    4.02    3.30
  -4  -2   2    1.49    1.24
   4   2  -1   45.23    5.15
   4   2  -1   40.67    5.70
  -4  -2   1   34.49    4.62
  -4  -2   1   35.71    3.98
  -4  -2   1   32.29    4.38
  -4  -2   1   40.30    5.80
  -4  -2   0  613.85   33.09
  -4  -2   0  521.33   32.26
   4   2   0  554.82   31.04
  -4  -2   0  535.35   34.14
   4   2   1    0.53    2.75
   4   2   1   -0.22    1.16
  -4  -2  -1   -0.39    2.20
   4   2   1    1.45    4.21
  -4  -2  -1    0.67    2.86
  -4  -2  -2    6.23    2.48
   4   2   2   10.91    6.60
   4   2   2    5.58    1.90
  -4  -2  -2   10.21    3.42
   4   2   3  281.26   15.88
  -4  -2  -3  304.31   18.40
  -4  -2  -4   35.17    4.55
   4   2   4   31.68    3.63
   4   2   4   25.71    9.47
  -4  -2  -4   33.18    5.27
  -4  -2  -5   84.48    7.26
  -4  -2  -5   76.75    8.19
   4   2   6   22.45    9.55
  -4  -2  -6    1.82    3.11
   4   2   7  120.72    9.10
  -4  -2  -7  108.53   10.35
   4   2   8  182.79   12.35
  -4  -2  -8  142.55   13.22
   4   2   9  159.89   11.76
  -4  -2  -9  119.89   12.02
   4   3 -14  221.22   16.60
  -4  -3  14  201.96   23.73
   4   3 -13   43.33    6.41
  -4  -3  13   34.89   10.79
   4   3 -12   46.66    6.38
  -4  -3  12   40.24   11.14
   4   3 -11    8.78    3.70
  -4  -3  11    5.42    6.00
   4   3 -10   -0.47    2.99
  -4  -3  10   -1.85    4.33
  -4  -3  10    6.42    8.21
  -4  -3   9  112.25   10.19
   4   3  -9  111.98    9.60
   4   3  -8 1092.64   60.85
  -4  -3   8 1061.21   60.71
   4   3  -7  141.41   10.49
  -4  -3   7  139.73   10.41
   4   3  -7  119.84   11.92
  -4  -3   7  132.43    9.18
  -4  -3   7  117.42    7.80
  -4  -3   6   71.89    5.30
   4   3  -6   82.43    7.47
  -4  -3   6   77.61    7.38
   4   3  -6   73.61    8.41
   4   3  -6   74.49    6.92
  -4  -3   6   77.27    6.27
  -4  -3   5   54.70    4.58
   4   3  -5   64.35    7.26
  -4  -3   5   54.69    5.18
  -4  -3   4  317.72   17.28
  -4  -3   4  280.75   16.27
   4   3  -4  342.42   19.31
   4   3  -4  309.91   17.43
  -4  -3   3   -2.03    2.39
   4   3  -3    0.85    2.95
   4   3  -3    0.58    2.28
  -4  -3   3    1.21    1.87
   4   3  -3   -0.75    1.09
  -4  -3   3    1.50    1.31
  -4  -3   3    1.34    4.52
  -4  -3   2  393.97   12.01
  -4  -3   2  334.11    9.02
  -4  -3   2  373.78   13.01
  -4  -3   2  364.14   14.21
   4   3  -2  382.05   12.76
   4   3  -2  377.51   10.32
  -4  -3   1  527.53   28.67
  -4  -3   1  447.08   26.83
  -4  -3   1  551.02   27.98
   4   3  -1  419.20   25.11
   4   3  -1  477.28   25.22
  -4  -3   1  556.35   30.20
   4   3  -1  569.70   27.54
   4   3   0  120.62    9.22
  -4  -3   0   96.89    7.93
  -4  -3   0  113.99    8.59
  -4  -3   0  103.65    9.86
   4   3   0  119.66    8.30
   4   3   1   25.61    4.52
  -4  -3  -1   21.30    3.38
   4   3   1   25.63    4.05
  -4  -3  -1   18.37    4.54
   4   3   2  253.76   13.76
   4   3   2  226.02   14.39
   4   3   2  187.65   12.05
  -4  -3  -2  179.38   14.69
   4   3   3    3.23    1.80
   4   3   3    4.43    3.94
   4   3   3   10.95    4.13
   4   3   3    4.67    1.69
  -4  -3  -3    4.23    3.29
  -4  -3  -4    0.30    2.26
   4   3   4   -2.05    2.54
   4   3   4   -2.18    5.00
   4   3   4    1.54    1.83
  -4  -3  -4    0.26    3.19
   4   3   5  242.32   15.39
  -4  -3  -5  196.45   16.08
   4   3   5  220.59   13.83
   4   3   6    5.85    2.73
  -4  -3  -6    1.73    3.51
   4   3   7    5.06    3.88
  -4  -3  -7    1.53    3.83
  -4  -3  -8   56.46    7.73
   4   4 -14    1.84    4.25
  -4  -4  14    9.30   10.43
   4   4 -13    4.34    3.91
  -4  -4  13   10.80    7.47
   4   4 -12   68.77    7.81
  -4  -4  12   81.54   11.11
   4   4 -11    6.45    3.80
  -4  -4  11    7.54    5.57
   4   4 -10   44.68    5.96
   4   4  -9  934.83   54.14
  -4  -4   9  957.49   54.68
  -4  -4   8   85.28    8.52
   4   4  -8   80.01    8.05
  -4  -4   8   77.87   10.33
   4   4  -7  118.88    9.58
  -4  -4   7   93.92   11.89
  -4  -4   7   98.84    9.95
   4   4  -7   98.21   10.83
  -4  -4   6   70.65    5.41
   4   4  -6   79.07    7.73
   4   4  -6   77.35    8.47
  -4  -4   6   63.90   11.08
  -4  -4   6   70.72    6.41
  -4  -4   5   21.33    3.56
   4   4  -5   17.74    3.70
  -4  -4   5   20.15    2.82
  -4  -4   5   24.98    4.86
  -4  -4   5   13.78    8.92
   4   4  -5   25.48    5.27
  -4  -4   4  568.01   29.97
  -4  -4   4  512.49   28.56
   4   4  -4  595.38   31.67
   4   4  -4  575.05   29.68
  -4  -4   3 1018.54   47.50
  -4  -4   3  883.63   45.78
  -4  -4   3  815.43   44.01
   4   4  -3  947.71   46.45
  -4  -4   2   58.58    6.50
  -4  -4   2   52.34    5.12
   4   4  -2   64.07    5.71
  -4  -4   2   46.18    7.07
  -4  -4   1   31.60    4.59
  -4  -4   1   21.56    4.72
  -4  -4   1   19.86    3.34
  -4  -4   1   35.07    5.60
   4   4  -1   32.25    4.90
   4   4  -1   31.40    4.09
   4   4   0   33.00    4.84
  -4  -4   0   27.64    4.65
  -4  -4   0   24.58    3.72
  -4  -4   0   40.97    6.00
   4   4   0   31.66    3.91
   4   4   1  285.83   18.21
  -4  -4  -1  247.91   18.59
   4   4   1  274.81   16.71
   4   4   2   27.17    3.80
   4   4   2   29.70    2.54
   4   4   2   32.74    4.94
  -4  -4  -2   29.80    5.25
   4   4   3   19.97    5.29
   4   4   3   16.85    3.79
   4   4   3   29.45    3.22
   4   4   3   13.75    2.11
  -4  -4  -3   18.79    4.80
   4   4   4  229.00   16.44
   4   4   4  268.09   14.76
   4   4   4  224.05   14.75
   4   4   5   33.13    5.36
   4   4   5   44.32    4.56
   4   4   6    5.88    4.96
   4   4   7   79.62    7.91
  -4  -5  14    0.89    8.30
   4   5 -13   10.36    4.35
  -4  -5  13    7.84    6.08
   4   5 -12   29.56    5.43
  -4  -5  12   44.85    8.06
   4   5 -11  185.57   14.19
   4   5 -10  111.48    9.97
   4   5  -9   -0.26    3.06
  -4  -5   9    1.60    5.26
   4   5  -8   26.28    4.88
  -4  -5   8   28.14    6.04
  -4  -5   7  249.23   19.29
   4   5  -7  247.74   17.45
  -4  -5   6    9.05    5.33
  -4  -5   6   12.80    2.35
   4   5  -6    0.30    4.94
  -4  -5   6   16.95    7.23
  -4  -5   5  152.20    9.78
   4   5  -5  164.87   13.00
  -4  -5   5  139.07   11.70
   4   5  -5  153.20   10.88
  -4  -5   4 1823.53   90.22
  -4  -5   4 1629.98   88.38
   4   5  -4 1643.21   86.83
  -4  -5   4 1661.73   86.88
   4   5  -4 1733.93   89.09
  -4  -5   3   37.94    5.34
  -4  -5   3   35.02    4.17
   4   5  -3   38.60    4.51
  -4  -5   3   24.42   11.90
  -4  -5   2   22.14    4.67
   4   5  -2   30.29    5.10
   4   5  -2   27.19    3.95
  -4  -5   2   22.99    3.48
  -4  -5   2   20.11    7.85
  -4  -5   1  200.67   13.50
  -4  -5   1  163.84   12.11
   4   5  -1  203.85   13.99
   4   5  -1  183.92   12.28
  -4  -5   0   23.57    4.13
   4   5   0   19.10    3.52
   4   5   0   18.92    5.37
   4   5   1  287.47   17.44
   4   5   1  297.64   19.01
   4   5   2  430.57   24.90
   4   5   2  442.57   26.69
   4   5   3    2.56    4.53
   4   5   3    3.60    2.62
   4   5   4    2.41    3.53
   4   5   5    6.15    4.79
   4   5   6   93.07    8.74
   4   6 -13   47.13    6.85
  -4  -6  13   52.06    8.60
   4   6 -12  130.13   11.53
   4   6 -11   -1.42    3.56
   4   6 -10   25.97    5.07
   4   6 -10   21.52    3.58
  -4  -6  10   30.30    5.83
   4   6  -9   27.29    5.07
   4   6  -9   28.01    3.61
  -4  -6   9   24.19    6.06
   4   6  -8   31.85    5.37
   4   6  -8   30.49    3.54
  -4  -6   8   31.30    6.88
  -4  -6   7  211.52   17.42
   4   6  -7  245.96   14.29
  -4  -6   6   22.53    5.82
   4   6  -6   40.78    3.34
   4   6  -6   26.59    5.93
  -4  -6   6   39.89    7.23
  -4  -6   5  161.17   16.42
  -4  -6   5  210.68   12.32
  -4  -6   5  163.99   14.25
   4   6  -4    6.51    2.85
  -4  -6   4    5.81    2.50
  -4  -6   4   -1.55    8.64
   4   6  -4    5.09    3.90
   4   6  -3   29.06    4.05
  -4  -6   3   25.65    3.90
   4   6  -3   39.35    5.56
  -4  -6   2  229.00   14.45
   4   6  -2  274.56   16.28
   4   6  -2  244.40   14.27
  -4  -6   1    0.23    3.53
   4   6  -1    0.12    2.49
   4   6  -1    3.62    3.53
  -4  -6   0  392.67   24.72
   4   6   0  426.94   25.80
   4   6   0  420.38   24.04
   4   6   1  637.34   35.90
   4   6   1  590.01   33.98
   4   6   2   -0.21    4.17
  -4  -6  -2   -0.92    3.91
  -4  -6  -3    3.41    4.13
   4   6   3    3.48    3.59
  -4  -6  -4   53.97    7.72
   4   6   4   59.83    7.68
   4   6   5   -0.21    3.86
  -4  -6  -5   -0.69    4.36
  -4  -6  -6   71.07    8.98
   4   7 -13   37.84    6.78
   4   7 -12   64.17    7.91
   4   7 -11    2.98    3.85
  -4  -7  11   -0.68    5.36
   4   7 -10    2.02    3.60
  -4  -7  10   -2.26    4.15
   4   7  -9    1.71    3.60
  -4  -7   9    6.76    4.25
  -4  -7   8  158.07   13.31
   4   7  -8  134.82   12.35
   4   7  -8  162.95   10.25
  -4  -7   7  228.66   17.62
   4   7  -7  234.37   13.91
  -4  -7   6   14.74    6.02
   4   7  -5   -2.33    4.52
  -4  -7   5    2.37    2.45
  -4  -7   5   -1.24    5.38
  -4  -7   4   41.85    4.82
   4   7  -4   47.03    6.53
   4   7  -4   49.26    5.23
  -4  -7   4   28.74    8.89
   4   7  -3   25.95    3.89
  -4  -7   3   20.36    3.83
  -4  -7   3   22.39    5.98
   4   7  -3   21.41    4.83
  -4  -7   3    7.85    9.91
   4   7  -2  163.58   11.73
  -4  -7   2  164.33   13.22
   4   7  -2  169.30   10.31
  -4  -7   1    6.10    4.88
   4   7  -1    2.28    3.80
   4   7  -1    2.70    2.52
  -4  -7   1   -0.32    3.99
   4   7   0  164.84   12.53
  -4  -7   0  175.26   14.01
   4   7   0  156.14   10.78
   4   7   1    0.64    3.18
  -4  -7  -1    1.56    3.77
   4   7   2   40.44    5.62
  -4  -7  -2   34.90    6.41
   4   7   3   72.02    8.15
  -4  -7  -3   70.11    8.61
   4   7   4   -0.64    3.78
  -4  -7  -4   -1.37    4.29
  -4  -7  -5  116.94   11.83
   4   8 -12   23.54    5.67
  -4  -8  12   29.77    6.81
   4   8 -11   71.54    8.50
  -4  -8  11   76.67    9.18
   4   8 -10  300.43   21.67
  -4  -8  10  334.68   22.86
   4   8  -9    0.90    3.58
  -4  -8   9   -1.30    4.25
  -4  -8   8   52.86    7.46
  -4  -8   7  109.09   10.89
  -4  -8   6   -1.73    4.36
  -4  -8   5    5.53    5.67
   4   8  -4   -5.85    4.99
  -4  -8   4    0.53    6.82
  -4  -8   4    1.03    4.34
   4   8  -3  207.46   14.65
   4   8  -3  223.12   12.95
   4   8  -2   42.90    4.52
   4   8  -2   37.15    5.72
  -4  -8   2   44.92    6.94
   4   8  -1   60.17    6.99
   4   8  -1   60.52    5.57
  -4  -8   1   71.46    8.54
  -4  -8   0    0.64    4.00
   4   8   0    2.05    3.55
   4   8   1   13.27    4.89
  -4  -8  -1   22.78    5.52
   4   8   2    0.22    3.78
  -4  -8  -2    2.28    4.03
   4   8   3   62.11    7.15
  -4  -8  -3   54.34    7.97
  -4  -8  -4    9.29    4.91
   4   9 -12   42.84    7.25
  -4  -9  12   58.58    9.32
   4   9 -11  232.38   17.86
  -4  -9  11  236.19   18.56
   4   9 -10   29.76    5.96
  -4  -9  10   22.49    6.06
  -4  -9   9   80.28    9.68
  -4  -9   8    5.71    4.48
  -4  -9   7   85.64    9.38
  -4  -9   6   54.58    7.90
  -4  -9   5  156.55   14.92
  -4  -9   4    6.76    7.37
  -4  -9   4   38.71    6.78
   4   9  -3    9.81    4.39
  -4  -9   3   17.20    5.33
   4   9  -2   52.95    7.17
  -4  -9   2   64.47    8.18
   4   9  -1   -7.64    5.00
  -4  -9   1   -0.68    4.05
   4   9   0    1.90    3.78
  -4  -9   0    4.92    4.23
   4   9   1   -3.02    4.15
  -4  -9  -1    1.67    4.04
   4   9   2   71.87    8.26
  -4  -9  -2   98.42   10.04
  -4 -10  11   -5.12    7.01
  -4 -10  10   45.16    7.67
  -4 -10   9    4.69    4.89
  -4 -10   8  121.79   11.96
  -4 -10   7   72.54    9.10
  -4 -10   6  185.49   15.71
  -4 -10   5   -3.07    6.32
  -4 -10   5    2.99    4.63
  -4 -10   4   69.31    9.04
  -4 -10   3    5.91    4.42
  -4 -10   2   45.88    7.33
  -4 -10   1   47.43    7.44
   4  10   0   46.30    7.09
  -4 -10   0   68.84    8.43
  -4 -10  -1   45.14    7.28
  -4 -11  10   20.54    7.04
  -4 -11   9    8.70    5.87
  -4 -11   8    1.49    4.85
  -4 -11   7   56.25    8.38
  -4 -11   6   17.76    6.07
  -4 -11   6   12.47    5.64
  -4 -11   5   63.91    9.17
  -4 -11   4   11.94    5.22
  -4 -11   3  106.55   11.27
  -4 -11   2   42.66    7.49
  -4 -11   1   84.75    9.57
  -4 -12   9   36.24    7.67
  -4 -12   8   42.30    8.02
  -5  12   2   22.70    5.77
  -5  12   1    7.86    5.30
  -5  12   0   34.74    6.96
  -5  12  -1   14.64    5.60
  -5  12  -2   16.26    6.31
  -5  12  -3   32.49    7.25
  -5  11   3    0.89    4.08
  -5  11   2    9.99    4.76
  -5  11   1   23.69    5.71
  -5  11   0   36.88    6.73
   5 -11   0   39.38    7.21
  -5  11   0   30.38    6.86
  -5  11  -1   38.24    6.97
   5 -11   1   37.96    7.20
  -5  11  -1   30.43    6.83
  -5  11  -2  103.90   11.25
  -5  11  -2  100.11   11.24
  -5  11  -3   29.36    6.92
   5 -11   3   22.95    6.03
  -5  11  -4   10.25    5.83
   5 -11   4    8.40    4.67
  -5  11  -5   26.94    7.16
   5 -11   5   26.99    6.06
   5 -11   6   40.64    6.87
   5 -11   7   36.32    6.38
   5 -11   8   38.28    6.40
  -5  10   4   14.92    4.68
  -5  10   3   18.38    5.08
   5 -10  -3   18.44    5.87
  -5  10   3   21.27    5.62
   5 -10  -2   99.03   10.38
  -5  10   2   81.07    8.76
  -5  10   2   79.65    9.56
  -5  10   1    6.06    4.27
  -5  10   1    5.43    4.56
  -5  10   0    4.78    4.29
   5 -10   0    3.73    4.40
  -5  10   0    7.52    4.61
  -5  10  -1   -0.31    4.19
   5 -10   1    5.23    4.22
  -5  10  -1    4.17    4.65
  -5  10  -2   11.02    4.94
   5 -10   2    9.17    4.66
  -5  10  -2    6.84    4.61
  -5  10  -3   -0.72    4.57
   5 -10   3   -1.20    3.90
  -5  10  -4   32.70    7.07
   5 -10   4   27.48    5.80
   5 -10   5  142.74   12.13
   5 -10   6   66.39    7.75
  -5  10  -6   68.22   10.19
   5 -10   7  107.44    9.91
  -5  10  -7  102.05   12.60
   5 -10   7  100.96   10.74
   5 -10   8   12.73    4.53
   5 -10   9    5.89    4.09
  -5   9   6    0.49    3.39
   5  -9  -6    0.32    4.67
  -5   9   5   -0.99    3.21
   5  -9  -5    3.82    4.66
  -5   9   4    9.39    4.03
   5  -9  -4    9.91    5.02
  -5   9   4    8.78    4.91
   5  -9  -3  111.55   10.71
  -5   9   3  101.70    9.55
  -5   9   3  105.11   10.66
  -5   9   2   25.23    5.33
   5  -9  -2   34.87    6.25
  -5   9   2   31.30    6.32
  -5   9   1   53.40    6.90
  -5   9   1   56.54    7.76
  -5   9   0    6.70    3.92
  -5   9   0    6.25    4.32
  -5   9  -1   27.78    5.64
   5  -9   1   26.38    5.51
  -5   9  -1   18.83    5.44
  -5   9  -2    4.38    4.12
   5  -9   2    2.77    3.88
  -5   9  -2    4.19    3.94
   5  -9   3  192.26   14.75
  -5   9  -3  191.59   15.65
   5  -9   4    1.03    3.56
  -5   9  -5   -0.81    4.88
   5  -9   5   -0.25    3.54
  -5   9  -6    6.85    5.90
   5  -9   6    4.98    4.34
   5  -9   6    9.06    4.03
  -5   9  -7    5.68    6.11
   5  -9   7    5.29    3.91
   5  -9   7    8.83    4.16
  -5   9  -8    1.49    6.42
   5  -9   8    1.87    3.83
   5  -9   8    1.46    3.45
   5  -9   9    0.49    3.45
   5  -9  10   99.41    9.29
   5  -8  -8    0.90    4.44
   5  -8  -7   22.28    5.62
   5  -8  -6    6.37    4.31
  -5   8   6    5.36    4.33
   5  -8  -5  158.80   12.70
  -5   8   5  126.36   12.48
  -5   8   4    2.58    3.28
   5  -8  -4    7.15    4.22
  -5   8   4    1.93    3.79
  -5   8   3   33.54    5.25
   5  -8  -3   28.68    5.54
  -5   8   3   26.85    5.85
  -5   8   2    1.20    2.98
   5  -8  -2    1.31    3.61
  -5   8   2    2.57    3.82
  -5   8   1   12.36    3.93
  -5   8   1    9.97    4.48
  -5   8   0    3.68    3.48
  -5   8   0    9.70    4.31
  -5   8  -1    0.83    3.57
   5  -8   1    1.27    3.48
  -5   8  -1    2.17    4.00
   5  -8   2  261.20   16.75
  -5   8  -2  189.51   16.28
   5  -8   3   38.87    5.68
   5  -8   4   70.95    7.67
  -5   8  -4   79.09    9.25
  -5   8  -5    1.16    4.70
   5  -8   5    3.21    3.35
  -5   8  -6   30.93    7.26
   5  -8   6   26.30    5.41
   5  -8   6   26.54    4.86
  -5   8  -7    6.53    5.88
   5  -8   7    3.12    3.64
   5  -8   7    2.53    3.54
  -5   8  -8  127.89   13.79
   5  -8   8  122.32   10.18
   5  -8   8  109.35   10.51
  -5   8  -9    2.53    6.53
   5  -8   9    2.00    3.61
   5  -8   9    3.04    3.54
   5  -8  10    0.48    3.53
   5  -7  -9   -2.17    4.27
   5  -7  -8    2.41    4.14
   5  -7  -7    9.68    4.66
   5  -7  -6  196.36   14.35
  -5   7   6  168.92   14.85
   5  -7  -5   20.25    4.94
  -5   7   5   18.99    5.63
   5  -7  -4   36.91    5.74
  -5   7   4   42.59    6.78
   5  -7  -3   21.12    4.73
  -5   7   3   22.82    5.49
   5  -7  -2   26.33    4.98
  -5   7   2   29.44    5.60
   5  -7  -1  122.92   10.18
  -5   7   1  110.84    9.72
  -5   7   1  102.33   10.49
  -5   7   0  248.86   15.97
  -5   7   0  184.18   15.84
   5  -7   1   33.78    5.20
  -5   7  -1   21.80    5.02
   5  -7   2   46.70    6.01
  -5   7  -2   45.12    6.38
  -5   7  -3    1.21    3.78
   5  -7   3    0.65    2.91
  -5   7  -4    8.89    4.73
   5  -7   4    4.07    3.24
  -5   7  -5    1.10    4.50
   5  -7   5    5.00    3.01
  -5   7  -6    8.96    5.56
   5  -7   6   10.66    3.96
   5  -7   6    8.51    3.45
  -5   7  -7  192.15   17.80
   5  -7   7  199.75   14.41
   5  -7   7  208.19   15.10
  -5   7  -8   17.46    6.86
   5  -7   8   13.75    4.44
   5  -7   8   11.06    4.07
  -5   7  -9   18.15    7.34
   5  -7   9   14.16    4.23
   5  -7   9   10.12    4.02
  -5   7 -10    3.99    6.35
   5  -6  -9   31.82    5.73
   5  -6  -8   30.90    5.58
   5  -6  -7   21.50    4.86
   5  -6  -6   29.76    5.15
   5  -6  -5    3.95    3.36
  -5   6   5    8.22    4.68
   5  -6  -4    6.02    3.40
  -5   6   4    3.86    4.13
   5  -6  -3   -0.20    3.75
   5  -6  -3    1.29    3.18
  -5   6   3   -1.51    3.93
   5  -6  -2  101.25    8.87
  -5   6   2   93.79    9.71
   5  -6  -1  663.03   33.98
  -5   6   1  459.11   33.80
  -5   6   0   13.05    4.32
   5  -6   1   94.84    8.34
  -5   6  -1   87.64    8.88
  -5   6  -2   -2.14    3.40
   5  -6   2    2.20    2.75
  -5   6  -3   18.29    1.80
   5  -6   3   18.50    4.06
  -5   6  -3   18.31    1.86
  -5   6  -4  281.92   18.96
   5  -6   4  247.99   16.76
  -5   6  -4  242.82   14.31
  -5   6  -5  138.33   12.86
   5  -6   5  148.60   11.03
   5  -6   5  145.67   11.27
  -5   6  -5  130.16    8.74
   5  -6   6   39.95    5.46
   5  -6   6   32.21    5.11
  -5   6  -6   36.94    3.79
  -5   6  -7   15.22    2.93
  -5   6  -7   20.26    6.52
   5  -6   7   19.42    4.32
   5  -6   7   21.81    4.47
  -5   6  -8    3.82    2.44
  -5   6  -8    3.21    5.57
   5  -6   8    4.76    3.29
   5  -6   8    2.24    3.37
  -5   6  -9   15.21    3.35
  -5   6  -9   16.87    6.92
  -5   6 -10   10.15    3.28
  -5   6 -10    3.77    5.92
  -5   6 -11   19.91    6.91
   5  -5  -9   91.36    8.43
   5  -5  -8    0.41    3.19
   5  -5  -7   86.01    7.93
   5  -5  -6    2.76    3.07
   5  -5  -5    8.65    3.44
  -5   5   5    8.14    4.67
   5  -5  -4  171.82   12.09
  -5   5   4  154.77   13.40
   5  -5  -4  151.58   12.30
   5  -5  -3    5.76    3.80
   5  -5  -3    8.26    3.28
  -5   5   3    5.96    1.49
  -5   5   3    1.78    3.93
  -5   5   3    4.56    1.14
   5  -5  -2   88.72    7.80
   5  -5  -2   89.40    8.30
  -5   5   2   65.18    8.14
   5  -5  -1   61.17    6.15
  -5   5   1   42.93    6.36
  -5   5   0   15.51    4.16
  -5   5  -1   17.31    4.41
   5  -5   1   17.18    3.69
  -5   5  -1   15.25    1.46
  -5   5  -1   20.67    4.39
  -5   5  -1   15.12    1.47
  -5   5  -2    5.51    1.32
  -5   5  -2    7.79    3.67
   5  -5   2    9.46    3.16
  -5   5  -2    6.96    1.38
   5  -5   3  349.29   21.13
  -5   5  -3  313.96   18.63
   5  -5   4  487.26   28.93
  -5   5  -4  456.97   26.74
  -5   5  -5    4.99    4.43
   5  -5   5    1.67    2.70
   5  -5   5    1.24    3.03
  -5   5  -5    1.31    1.81
  -5   5  -6   16.92    5.69
   5  -5   6   18.15    4.08
   5  -5   6   21.34    4.20
  -5   5  -6   19.81    3.01
  -5   5  -7    4.99    5.51
   5  -5   7    4.26    3.13
   5  -5   7   -0.22    3.00
  -5   5  -7    2.16    2.28
  -5   5  -8   -0.44    5.44
   5  -5   8    1.97    2.90
  -5   5  -8    1.83    2.35
  -5   5  -9  141.55   14.47
  -5   5  -9  141.01   10.47
  -5   5 -10    2.63    5.64
  -5   5 -10    7.26    3.08
  -5   5 -11   23.30    4.61
   5  -4  -9   43.28    5.36
   5  -4  -8    4.57    3.12
   5  -4  -7    1.45    2.76
   5  -4  -6    4.70    3.01
   5  -4  -5  359.17   22.63
   5  -4  -5  342.12   23.44
  -5   4   5  382.65   21.10
   5  -4  -4  213.78   14.14
  -5   4   4  188.65   15.60
  -5   4   4  207.47   12.25
   5  -4  -4  207.16   15.03
   5  -4  -3   25.05    4.12
  -5   4   3   15.48    4.87
  -5   4   3   25.15    2.43
   5  -4  -3   23.46    4.95
   5  -4  -2  203.49   13.02
   5  -4  -2  209.08   13.93
  -5   4   2  149.91   13.47
  -5   4   2  165.68   10.91
  -5   4   2  196.28   10.71
  -5   4   1    9.92    1.53
   5  -4  -1   11.29    3.14
  -5   4   1   11.64    3.87
  -5   4   1    9.59    1.55
  -5   4   0    5.36    1.28
  -5   4   0    8.05    3.65
  -5   4   0    5.32    1.37
  -5   4  -1  215.47   12.76
  -5   4  -1  215.01   12.72
  -5   4  -2   11.34    2.29
  -5   4  -2    8.32    3.43
   5  -4   2    8.58    3.08
  -5   4  -2    9.91    1.80
  -5   4  -3  122.95   10.39
   5  -4   3  111.23    9.15
  -5   4  -3  105.46    7.36
  -5   4  -4   48.26    6.71
   5  -4   4   35.44    4.74
   5  -4   4   39.16    5.18
  -5   4  -4   35.24    3.71
  -5   4  -5   13.63    4.96
   5  -4   5   11.72    3.34
   5  -4   5   12.07    3.54
  -5   4  -5   10.49    2.48
  -5   4  -6   74.99    9.12
   5  -4   6   61.40    6.56
   5  -4   6   77.80    7.36
  -5   4  -6   67.20    5.87
  -5   4  -7    2.34    4.99
   5  -4   7    6.86    2.94
  -5   4  -7    7.13    2.55
  -5   4  -8  136.81   14.74
  -5   4  -8  183.77   12.13
  -5   4  -9   80.62   11.37
  -5   4  -9  126.63    9.34
  -5   4 -10    0.21    3.03
  -5   4 -11    0.23    3.10
  -5   3  12    4.15    5.09
  -5   3  11   -2.44    5.30
  -5   3  10   53.90    8.46
  -5   3   9   14.89    4.36
   5  -3  -9   20.46    3.91
  -5   3   8   19.37    4.66
   5  -3  -8   28.34    4.29
   5  -3  -7   77.05    6.77
  -5   3   7   69.59    7.10
   5  -3  -6    6.54    4.76
   5  -3  -6    2.27    2.53
  -5   3   6    2.21    2.03
   5  -3  -5   19.11    3.75
   5  -3  -5   15.10    4.94
  -5   3   5   22.96    2.87
   5  -3  -4  127.45    9.43
  -5   3   4  127.60    8.16
   5  -3  -4  142.53   11.10
   5  -3  -3   21.80    3.58
   5  -3  -3   24.12    5.09
  -5   3   3   13.70    4.32
  -5   3   3   21.20    2.50
  -5   3   2   16.55    2.18
   5  -3  -2   16.41    5.46
   5  -3  -2   19.86    3.48
  -5   3   2   15.77    2.92
  -5   3   2   15.00    4.21
   5  -3  -1   44.23    4.94
  -5   3   1   36.92    3.78
  -5   3   1   43.98    5.55
  -5   3   1   37.44    3.33
  -5   3   0  661.16   36.47
  -5   3   0  639.08   36.56
  -5   3   0  735.97   38.81
  -5   3  -1   74.84    5.73
  -5   3  -1   74.16    5.51
   5  -3   2   50.51    5.58
  -5   3  -2   44.19    4.12
  -5   3  -3  165.11   12.50
   5  -3   3  154.41   11.39
   5  -3   3  156.17   12.05
  -5   3  -3  145.03    9.94
  -5   3  -4   16.09    4.89
   5  -3   4   19.48    3.52
   5  -3   4   19.88    4.06
   5  -3   4   17.95    4.16
  -5   3  -4   16.09    2.87
  -5   3  -5   30.37    5.87
   5  -3   5   22.07    3.85
   5  -3   5   26.51    4.67
  -5   3  -5   23.59    3.58
  -5   3  -6  121.04   11.76
   5  -3   6  131.65    9.74
  -5   3  -6  122.92    9.32
  -5   3  -7   79.20    9.66
  -5   3  -7   78.97    6.97
  -5   3  -8   15.07    6.12
  -5   3  -8   22.44    4.03
  -5   3  -9   20.61    4.21
  -5   3 -10   -0.46    3.26
  -5   3 -11   14.70    4.40
  -5   2  12   29.69    7.00
  -5   2  11   34.06    7.78
  -5   2  10   20.05    4.83
   5  -2  -9   85.54    7.11
  -5   2   9   86.98    8.67
   5  -2  -8  284.43   17.78
  -5   2   8  248.82   18.36
  -5   2   7    4.45    3.49
   5  -2  -7    9.55    3.73
   5  -2  -7    8.75    2.77
   5  -2  -7    9.56    4.85
  -5   2   7    9.28    2.72
  -5   2   6    7.80    2.73
   5  -2  -6   10.06    4.74
  -5   2   6    8.36    3.98
   5  -2  -6    8.06    3.30
   5  -2  -6    4.48    2.50
  -5   2   6   11.65    2.48
   5  -2  -5  142.00   10.65
  -5   2   5  149.14   11.79
   5  -2  -5  189.14   13.40
  -5   2   5  156.27   10.07
  -5   2   5  163.41   10.87
   5  -2  -4  208.15   13.97
   5  -2  -4  251.34   16.33
  -5   2   4  216.40   13.09
  -5   2   4  230.14   14.09
   5  -2  -3   67.53    8.36
   5  -2  -3   47.54    5.26
  -5   2   3   46.42    6.38
  -5   2   3   51.05    4.24
  -5   2   3   51.70    5.19
   5  -2  -2  179.49   12.11
   5  -2  -2  198.54   14.02
  -5   2   2  185.76   12.96
  -5   2   2  195.50   12.21
  -5   2   2  171.38   10.72
  -5   2   1   64.18    5.29
   5  -2  -1   79.09    6.82
  -5   2   1   70.62    6.22
  -5   2   1   80.21    6.91
  -5   2   1   80.96    6.77
  -5   2   0    2.42    1.81
   5  -2   0    0.70    2.93
  -5   2   0   -0.25    2.01
  -5   2   0    3.16    2.43
  -5   2  -1   99.65    7.43
  -5   2  -1   92.60    7.08
   5  -2   2   15.33    3.60
  -5   2  -2   10.54    2.55
  -5   2  -3   48.35    6.16
   5  -2   3   42.12    4.55
   5  -2   3   49.45    5.72
  -5   2  -3   41.90    4.64
   5  -2   3   38.96    5.64
  -5   2  -4   75.13    8.04
   5  -2   4   64.75    5.87
   5  -2   4   63.80    6.75
  -5   2  -4   63.10    5.91
  -5   2  -5  366.51   24.59
   5  -2   5  370.45   22.42
   5  -2   5  392.06   23.49
  -5   2  -5  362.65   22.51
  -5   2  -6    3.12    4.19
  -5   2  -6    4.90    2.83
  -5   2  -7   11.30    5.35
  -5   2  -7   14.88    3.55
  -5   2  -8   31.40    4.98
  -5   2  -9    8.78    3.73
  -5   2 -10   10.70    4.23
  -5   1  13    9.71    6.14
  -5   1  12   44.32    7.70
  -5   1  11   24.74    8.21
  -5   1  10    9.50    4.50
   5  -1  -9   48.85    6.17
   5  -1  -9   40.60    4.51
  -5   1   9   55.22    6.60
  -5   1   8    3.29    3.37
   5  -1  -8    0.46    3.18
   5  -1  -8   -0.68    4.65
   5  -1  -8   -0.52    2.25
  -5   1   8    0.71    2.19
   5  -1  -7   95.80    8.33
   5  -1  -7   77.35    6.62
  -5   1   7   67.46    7.84
   5  -1  -7   80.64    9.48
  -5   1   7   90.33    6.74
   5  -1  -6   77.06    7.72
   5  -1  -6   83.41    6.73
  -5   1   6   67.20    8.24
   5  -1  -6   88.02    9.32
  -5   1   6   82.53    6.36
  -5   1   6   81.19    6.53
   5  -1  -5  244.70   15.94
   5  -1  -5  284.31   18.56
  -5   1   5  234.31   15.33
  -5   1   5  248.45   15.76
   5  -1  -4  389.31   21.91
  -5   1   4  321.93   22.14
  -5   1   4  277.95   22.64
   5  -1  -4  457.46   24.82
  -5   1   4  359.52   20.83
  -5   1   4  379.80   21.57
   5  -1  -3  601.01   34.11
  -5   1   3  543.94   34.84
  -5   1   3  617.80   33.95
  -5   1   3  555.66   32.97
  -5   1   2    0.70    1.93
   5  -1  -2   -0.93    3.85
  -5   1   2    1.04    2.46
   5  -1  -2    0.66    2.54
  -5   1   2   -0.21    3.24
  -5   1   2    1.58    2.64
  -5   1   1    5.46    2.11
  -5   1   1    5.03    2.69
   5  -1  -1    2.59    2.56
   5  -1  -1    3.11    3.61
  -5   1   1    6.37    3.04
  -5   1   1    8.59    2.59
  -5   1   0   90.72    7.00
   5  -1   0   82.33    7.53
  -5   1   0   83.64    7.23
  -5   1  -1  379.12   23.08
  -5   1  -1  383.44   22.95
   5  -1   2   32.92    3.85
   5  -1   2   39.16    5.16
  -5   1  -2   34.81    4.41
  -5   1  -3   82.15    7.98
   5  -1   3   71.99    6.05
   5  -1   3   67.02    6.98
  -5   1  -3   77.65    6.82
  -5   1  -4  144.00   11.84
   5  -1   4  136.32    9.71
   5  -1   4  138.02   10.50
  -5   1  -4  145.43   10.57
  -5   1  -5    4.92    3.94
   5  -1   5   -0.19    2.85
  -5   1  -5    3.02    2.62
  -5   1  -6   34.04    6.13
   5  -1   6   42.01    5.40
  -5   1  -6   37.30    5.11
  -5   1  -7    2.82    4.30
  -5   1  -7    0.68    2.95
  -5   1  -8   13.42    4.09
  -5   1  -9   30.21    5.39
  -5   1 -10  101.97    9.90
  -5   0  13  109.74   12.67
  -5   0  12   74.82   12.37
  -5   0  11   50.22    8.46
   5   0 -11   56.64    7.33
  -5   0  10    7.03    6.60
   5   0 -10    1.04    3.61
  -5   0   9   17.63    5.64
   5   0  -9   20.03    4.78
   5   0  -9   21.33    3.23
  -5   0   8    4.96    4.63
   5   0  -8    9.53    3.95
   5   0  -8    4.34    4.98
   5   0  -8    4.92    2.48
   5   0  -7  255.61   16.77
   5   0  -7  237.24   14.78
  -5   0   7  232.24   16.88
   5   0  -7  217.16   17.72
  -5   0   7  231.08   14.73
  -5   0   6    0.50    1.96
   5   0  -6    7.06    5.02
   5   0  -6    0.93    3.42
  -5   0   6    0.59    2.16
   5   0  -6    1.63    2.33
   5   0  -6    8.54    5.17
  -5   0   5    1.29    1.87
  -5   0   5    4.19    3.26
  -5   0   5    2.07    2.29
   5   0  -5    1.10    4.17
   5   0  -5    1.29    2.31
   5   0  -5    1.21    3.47
   5   0  -4  277.39   16.86
  -5   0   4  254.40   17.37
  -5   0   4  218.76   17.53
   5   0  -4  299.29   19.77
  -5   0   4  247.44   15.97
  -5   0   4  257.23   16.36
  -5   0   3   81.14    6.47
  -5   0   3   83.47    6.98
   5   0  -3   87.12    7.28
  -5   0   3   91.41    8.06
  -5   0   3   84.29    7.48
   5   0  -3  104.51    9.72
  -5   0   2   98.80    7.36
  -5   0   2  101.39    7.77
   5   0  -2  107.77    9.60
   5   0  -2  102.83    8.16
  -5   0   2  107.88    7.83
  -5   0   1   52.60    5.32
  -5   0   1   54.46    5.54
   5   0  -1   69.17    7.13
   5   0  -1   75.54    6.38
  -5   0   1   56.45    4.98
  -5   0   1   43.14    6.13
  -5   0   0  592.67   32.74
   5   0   0  615.09   33.96
   5   0   0  605.86   33.14
  -5   0   0  531.16   32.98
   5   0   1  263.47   32.26
  -5   0  -1  478.11   26.20
   5   0   2  329.02   17.91
  -5   0  -2  349.63   19.64
   5   0   3   39.62    4.01
  -5   0  -3   42.02    5.38
   5   0   3   35.59    4.89
  -5   0  -4    2.47    3.26
   5   0   4    1.99    2.56
  -5   0  -4    3.15    2.83
  -5   0  -5    8.44    4.14
   5   0   5   15.89    3.60
  -5   0  -5    7.88    3.29
  -5   0  -6  148.21   12.32
  -5   0  -6  147.14   11.70
  -5   0  -7    2.52    3.35
  -5   0  -8    1.09    3.56
  -5   0  -9   45.77    6.77
   5   1 -13   -0.32    4.09
  -5  -1  13    3.38   11.00
   5   1 -12    7.87    4.51
  -5  -1  12   46.85   16.78
   5   1 -11   42.48    6.29
  -5  -1  11   13.26    8.79
   5   1 -10    0.54    3.60
  -5  -1  10   14.57   10.24
   5   1  -9    4.50    3.66
   5   1  -9    4.48    2.25
  -5  -1   9    4.44    6.04
   5   1  -8  528.78   29.52
  -5  -1   8  380.48   29.96
   5   1  -8  430.38   30.70
   5   1  -8  475.05   26.59
   5   1  -7   98.25    9.05
   5   1  -7   93.19   10.43
   5   1  -7   90.99    7.16
   5   1  -7  105.37    8.41
  -5  -1   7   84.90    7.24
   5   1  -6  125.22   10.84
  -5  -1   6  134.22   12.16
   5   1  -6  132.30    9.23
   5   1  -6  145.43   12.62
   5   1  -6  138.61   10.14
  -5  -1   6  124.34    9.08
  -5  -1   6  116.98    8.67
  -5  -1   5   11.15    4.16
  -5  -1   5    8.01    2.57
   5   1  -5   13.35    4.76
  -5  -1   5   11.67    2.68
   5   1  -5   16.21    3.35
   5   1  -5   13.72    3.12
  -5  -1   4   42.47    4.59
  -5  -1   4   40.50    5.96
   5   1  -4   46.39    5.02
   5   1  -4   58.46    5.98
   5   1  -4   44.96    7.99
  -5  -1   4   47.05    5.56
  -5  -1   4   38.80    4.45
  -5  -1   3   15.72    4.54
  -5  -1   3   12.59    2.85
  -5  -1   3    9.97    2.86
   5   1  -3   11.72    3.27
  -5  -1   3   13.35    2.95
   5   1  -2  195.62   14.17
  -5  -1   2  176.36   12.01
  -5  -1   2  184.10   12.13
  -5  -1   2  174.57   12.85
  -5  -1   2  141.59   13.59
  -5  -1   2  187.43   11.41
  -5  -1   1   16.52    3.69
  -5  -1   1   16.32    3.39
  -5  -1   1    6.35    3.94
   5   1  -1   10.71    5.56
  -5  -1   0    7.58    3.44
   5   1   0   25.15   10.55
   5   1   0   21.57    6.20
  -5  -1   0   10.56    3.93
   5   1   1  173.01   16.31
   5   1   1  174.78   10.73
  -5  -1  -1  169.81   13.06
   5   1   2  161.02   10.00
  -5  -1  -2  159.28   12.09
   5   1   3   11.80    3.15
   5   1   3   23.26   15.26
  -5  -1  -3   15.05    4.03
  -5  -1  -4   -0.68    3.09
   5   1   4    0.60    2.39
   5   1   4   10.78   12.82
  -5  -1  -4   -0.24    3.17
  -5  -1  -5  233.20   15.39
  -5  -1  -5  259.22   16.04
  -5  -1  -6  160.01   12.89
  -5  -1  -7   27.49    5.53
  -5  -1  -8   33.37    6.17
   5   2 -13    1.61    4.17
  -5  -2  13   -8.35   15.81
   5   2 -12   22.68    5.41
  -5  -2  12  -16.64   21.19
   5   2 -11    6.95    4.36
  -5  -2  11    0.69   11.54
   5   2 -10  215.05   14.59
  -5  -2  10   82.10   18.58
   5   2  -9   35.82    5.77
  -5  -2   9    8.15    9.53
   5   2  -8    9.69    4.39
   5   2  -8    7.52    5.97
   5   2  -7    3.22    3.80
   5   2  -7    3.52    5.25
  -5  -2   7   16.66   10.04
  -5  -2   6  121.99   15.12
   5   2  -6  196.59   14.59
   5   2  -6  157.49   11.06
  -5  -2   6  160.99   10.99
  -5  -2   5    1.41    4.44
  -5  -2   5   -1.03    2.27
   5   2  -5    2.06    4.12
  -5  -2   5   -0.36    2.16
   5   2  -5   -0.43    2.29
  -5  -2   4    3.15    3.72
  -5  -2   4    3.58    2.35
   5   2  -4    0.27    4.86
  -5  -2   4    3.41    2.37
   5   2  -4    5.28    2.44
  -5  -2   4    7.97    2.80
  -5  -2   3 1028.32   57.54
  -5  -2   3  992.29   57.14
  -5  -2   3  950.20   57.99
   5   2  -3 1071.70   56.40
  -5  -2   3 1039.28   56.47
   5   2  -3 1131.78   59.84
  -5  -2   2   79.68    7.02
  -5  -2   2   74.34    6.44
  -5  -2   2   75.07    7.50
  -5  -2   2   78.60    8.83
  -5  -2   2   64.46    5.10
   5   2  -2   80.62    9.10
   5   2  -1   58.19    7.42
  -5  -2   1   54.55    6.12
   5   2  -1   56.77    7.00
  -5  -2   1   38.68    6.43
   5   2   0   79.34    7.43
  -5  -2   0   65.31    7.00
   5   2   0   57.22    4.31
  -5  -2   0   42.58    6.70
   5   2   1   30.83    5.95
   5   2   1   33.44    7.64
  -5  -2  -1   25.10    5.09
   5   2   2    3.38    4.06
   5   2   2    3.93    7.32
  -5  -2  -2    4.07    3.60
   5   2   3   87.50    6.99
   5   2   3  104.92   12.55
  -5  -2  -3   88.29    8.88
  -5  -2  -4   16.01    4.10
   5   2   4   21.21    8.01
  -5  -2  -4   22.14    4.99
  -5  -2  -5   14.59    4.66
  -5  -2  -6   51.83    7.20
  -5  -2  -7   79.73    9.11
  -5  -2  -8    3.02    4.28
   5   3 -13    0.33    4.42
   5   3 -12   62.95    8.10
  -5  -3  12   61.74   19.68
   5   3 -11  294.47   18.57
  -5  -3  11  128.29   22.38
   5   3 -10   18.05    5.06
  -5  -3  10    5.67   13.49
   5   3  -9   79.04    8.66
   5   3  -8   18.75    4.94
   5   3  -8   11.83    6.44
  -5  -3   8   19.13   13.34
   5   3  -7   42.53    6.28
   5   3  -7   49.15    8.13
   5   3  -6  189.19   14.76
  -5  -3   6  100.04   19.75
  -5  -3   5  157.51   10.42
   5   3  -5  187.98   14.21
  -5  -3   4  103.50    7.72
  -5  -3   4   91.33    9.62
   5   3  -4   90.23    6.69
  -5  -3   4  105.45    7.21
  -5  -3   3    3.14    3.52
  -5  -3   3    1.49    2.78
  -5  -3   3    0.14    2.58
   5   3  -3    1.06    4.05
   5   3  -3    1.69    1.54
  -5  -3   3   -0.33    4.37
  -5  -3   2    0.84    3.07
  -5  -3   2    0.59    2.48
   5   3  -2   -0.24    1.09
  -5  -3   2   -0.33    4.18
   5   3  -2    0.25    3.86
  -5  -3   1  210.09   11.90
  -5  -3   1  212.77   13.89
   5   3  -1  225.60   11.73
   5   3   0   37.53    6.69
   5   3   0   41.27    6.40
  -5  -3   0   32.56    6.18
   5   3   1   86.63    8.60
  -5  -3  -1   69.29    8.40
   5   3   1   86.35    7.91
   5   3   2  520.92   30.83
   5   3   2  545.74   29.68
   5   3   3    8.70    3.71
   5   3   3   12.94    4.33
  -5  -3  -3    3.19    3.59
   5   3   4   -0.24    3.80
  -5  -3  -4    3.92    4.06
   5   3   5   24.86    5.66
  -5  -3  -5   24.69    5.69
   5   3   6   10.55    4.76
  -5  -3  -6    8.13    4.73
  -5  -3  -7    7.86    4.76
   5   4 -13    9.05    4.78
   5   4 -12  123.76   11.47
  -5  -4  12   88.37   20.24
   5   4 -11    9.17    4.48
  -5  -4  11   12.46   12.34
   5   4 -10    1.53    4.04
   5   4  -9   28.98    5.84
  -5  -4   9    8.90   10.40
   5   4  -8   -0.90    3.98
  -5  -4   8   16.67   11.94
   5   4  -7  278.00   18.55
  -5  -4   7   82.07   20.85
  -5  -4   6  310.83   36.39
   5   4  -6  679.33   34.74
  -5  -4   5   12.76    3.07
   5   4  -5   15.94    5.49
   5   4  -4   36.76    6.28
  -5  -4   4   23.59    3.64
  -5  -4   4   17.84    9.32
  -5  -4   3   46.60    5.19
  -5  -4   3   78.41    9.30
  -5  -4   3   65.23    8.61
  -5  -4   2   48.63    7.33
  -5  -4   2   30.77    6.75
  -5  -4   1  165.58   13.21
  -5  -4   1  167.27   14.35
   5   4  -1  180.05   13.72
   5   4  -1  171.15   12.17
  -5  -4   0   49.96    7.81
   5   4   0   65.28    6.63
   5   4   0   67.67    8.14
  -5  -4  -1   64.64    8.56
   5   4   1   92.82    7.89
   5   4   1   87.06    9.16
   5   4   2   11.10    4.39
   5   4   2    8.21    3.35
  -5  -4  -2    8.40    4.52
   5   4   3    8.97    4.45
  -5  -4  -3    0.32    4.08
   5   4   4   98.34    9.61
  -5  -4  -4   76.29    9.46
   5   4   5   10.82    4.64
  -5  -4  -5    7.92    4.96
   5   4   6   55.93    8.00
  -5  -4  -6   46.29    7.70
   5   4   7  110.70   11.49
   5   5 -12    0.34    4.23
  -5  -5  12   37.66   15.72
   5   5 -11   -1.31    4.29
   5   5 -10    8.02    4.69
  -5  -5  10   23.63   13.96
   5   5  -9  125.74   11.24
  -5  -5   9   73.69   14.65
  -5  -5   8    9.97   11.20
   5   5  -7  271.59   18.47
  -5  -5   7  115.82   20.88
   5   5  -6   36.79    7.19
  -5  -5   6    5.37   15.48
  -5  -5   5  -11.05   12.62
   5   5  -5    9.24    5.46
  -5  -5   4   59.83    5.66
  -5  -5   4   53.45   11.12
  -5  -5   3   20.63    6.67
  -5  -5   3   14.76    5.57
  -5  -5   2  501.14   31.54
   5   5  -2  536.10   32.44
  -5  -5   2  532.22   33.74
  -5  -5   1  276.71   19.94
  -5  -5   1  339.76   22.77
   5   5  -1  335.27   21.57
   5   5  -1  306.84   19.35
   5   5   0    6.38    3.29
   5   5   0    5.60    4.23
  -5  -5   0    6.05    4.56
   5   5   1   -0.15    2.63
  -5  -5  -1    0.33    4.02
   5   5   1    0.50    3.82
   5   5   2   24.50    5.66
  -5  -5  -2   26.58    5.97
   5   5   3    4.49    4.75
  -5  -5  -3    5.07    4.58
  -5  -5  -4   40.48    7.52
   5   5   4   68.57    7.66
   5   5   5    2.33    5.49
  -5  -5  -5    4.05    4.39
   5   5   6   42.11    7.71
   5   6 -12   26.16    6.20
   5   6 -11   13.30    5.07
  -5  -6  11   16.85   10.95
   5   6 -10  235.22   17.22
  -5  -6  10  176.32   21.27
  -5  -6   9   63.26   14.87
  -5  -6   8    9.40   10.28
   5   6  -7    9.75    5.53
  -5  -6   7   -0.86   10.45
   5   6  -6    1.76    4.66
  -5  -6   6   12.77   11.75
  -5  -6   5    3.03   11.48
   5   6  -4  140.61   12.16
  -5  -6   4  145.96   13.20
  -5  -6   3   71.50    9.60
   5   6  -3   90.67    9.34
  -5  -6   3   93.06   10.62
  -5  -6   2  155.70   12.82
   5   6  -2  162.55   13.24
  -5  -6   2  172.64   14.59
  -5  -6   1   33.95    5.41
   5   6  -1   37.95    6.15
  -5  -6   1   42.56    7.37
   5   6   0   24.75    5.49
  -5  -6   0   17.43    5.38
   5   6   1   46.78    7.89
  -5  -6  -1   46.07    7.43
   5   6   2    6.27    4.66
  -5  -6  -2    2.42    4.08
  -5  -6  -3  181.75   16.13
   5   6   3  223.66   15.77
  -5  -6  -4   31.54    6.90
   5   6   4   33.02    6.81
   5   6   5    4.83    5.84
   5   7 -11   49.82    7.78
  -5  -7  11   51.18   13.34
  -5  -7  10    1.39    8.93
  -5  -7   9   41.45   11.98
  -5  -7   8   -2.31   10.66
  -5  -7   7   17.03   11.28
  -5  -7   6   -4.63   11.95
   5   7  -5  310.53   18.04
  -5  -7   5   64.31   18.40
  -5  -7   4   14.04    5.75
   5   7  -4   14.98    5.47
  -5  -7   3   36.10    7.24
   5   7  -3   39.64    6.52
  -5  -7   3   29.65    7.34
   5   7  -2    2.02    4.51
  -5  -7   2    4.15    3.99
   5   7  -1    5.96    5.44
   5   7   0    0.54    3.95
   5   7   1   53.98    7.17
   5   7   2   93.41    9.78
   5   7   3   23.12    6.25
  -5  -8  10   47.10   12.41
  -5  -8   9   15.15    9.13
  -5  -8   8   26.20   11.06
  -5  -8   7   12.93   12.38
  -5  -8   6   24.58   14.90
   5   8  -5   -1.74    5.61
  -5  -8   5  -16.95   15.80
   5   8  -4   50.58    7.42
  -5  -8   4    4.95   11.76
   5   8  -3   -2.15    4.65
  -5  -8   3   -3.58    6.97
   5   8  -2   56.68    7.61
   5   8  -1   17.09    5.25
   5   8   0  142.12   12.38
   5   8   1    0.29    4.81
   5   8   2   19.45    5.74
  -5  -9  10   88.41   15.40
  -5  -9   9   44.73   13.58
  -5  -9   8   96.33   15.55
  -5  -9   7    5.02   10.80
  -5  -9   6    6.96   12.09
  -5  -9   5    0.93   12.16
   5   9  -4    9.84    5.35
  -5  -9   4   15.93    6.30
   5   9  -3    2.25    5.42
  -5  -9   3   10.20    5.75
   5   9  -2   -6.82    5.85
  -5  -9   2   -0.39    4.84
   5   9  -1   88.97    9.64
  -5  -9   1   86.05   10.40
   5   9   0    6.79    5.00
   5   9   1   16.43    6.01
  -5 -10   9   19.86   11.68
  -5 -10   8   16.86   12.78
  -5 -10   7   23.68   14.49
  -5 -10   6    6.55    5.65
  -5 -10   6   34.22   17.71
  -5 -10   5  102.88   12.06
  -5 -10   4   71.16    9.70
  -5 -11   8    7.97   11.22
  -6  10   1   30.08    6.19
  -6  10   0    4.03    4.41
  -6  10  -1   55.28    8.08
  -6   9   5    0.28    4.07
  -6   9   4   13.33    4.77
  -6   9   3   -0.29    3.94
  -6   9   2    0.30    3.94
  -6   9   1    8.90    4.65
   6  -9  -1    7.78    4.67
  -6   9   1    6.61    5.30
  -6   9   0  173.22   13.98
  -6   9   0  151.73   14.20
  -6   9  -1   38.95    6.61
   6  -9   1   37.66    6.64
  -6   9  -1   20.13    6.29
   6  -9   2   69.88    8.25
  -6   9  -2   58.75    8.43
   6  -9   3    3.83    4.25
  -6   9  -4   45.43    8.03
   6  -9   4   46.78    7.01
   6  -8  -5    7.12    4.82
  -6   8   4    6.49    3.95
   6  -8  -4    3.99    4.53
  -6   8   3   17.67    4.83
   6  -8  -3   18.59    5.45
  -6   8   3   19.06    5.77
  -6   8   2   -2.75    4.04
   6  -8  -2   -2.38    4.27
  -6   8   2   -0.72    4.52
   6  -8  -1  104.33    9.97
  -6   8   1   90.24    9.27
  -6   8   1   75.59    9.69
  -6   8   0    1.21    3.94
  -6   8   0   -1.77    4.46
  -6   8  -1   26.68    5.72
   6  -8   1   28.13    5.59
  -6   8  -1   20.61    5.96
   6  -8   2    0.55    3.77
  -6   8  -3    0.72    4.30
   6  -8   3   -1.08    3.79
   6  -8   4   65.78    7.73
  -6   8  -4   57.97    8.79
  -6   8  -5  199.68   17.37
   6  -8   5  206.64   15.36
   6  -8   5  200.74   15.93
  -6   8  -6   26.36    7.79
   6  -8   6   19.34    5.33
   6  -8   6   16.27    4.85
   6  -7  -7    2.56    4.26
   6  -7  -6    1.13    4.04
   6  -7  -5    3.09    4.22
  -6   7   5    8.45    4.89
   6  -7  -4   64.40    7.67
  -6   7   4   52.84    8.08
   6  -7  -3  117.32   10.21
  -6   7   3   88.60   10.44
  -6   7   2    6.11    3.74
   6  -7  -2    2.94    3.87
  -6   7   2    2.45    4.41
  -6   7   1   39.69    5.99
  -6   7   1   28.68    6.33
  -6   7   0    1.97    3.59
  -6   7   0    2.65    4.15
  -6   7  -1    7.55    4.49
  -6   7  -2   51.27    7.25
   6  -7   2   44.93    6.36
  -6   7  -3    6.22    4.56
   6  -7   3    5.86    3.80
  -6   7  -4  118.24   12.02
   6  -7   4  113.14   10.21
  -6   7  -5   -2.90    5.38
   6  -7   5    5.10    4.19
   6  -7   5   -1.80    3.87
  -6   7  -6   41.79    8.30
   6  -7   6   27.23    5.65
   6  -7   6   31.14    5.42
  -6   7  -7    4.13    6.51
   6  -7   7    1.69    3.82
   6  -7   7    5.80    4.06
   6  -6  -8    2.07    4.07
   6  -6  -7    0.51    3.86
   6  -6  -6   27.26    5.64
  -6   6   6   34.27    6.99
   6  -6  -5   -1.50    3.84
  -6   6   5   -3.88    4.77
   6  -6  -4   22.57    4.97
  -6   6   4   26.66    6.14
   6  -6  -3   24.13    4.88
  -6   6   3   14.34    5.44
   6  -6  -2   12.38    3.98
  -6   6   2    9.03    4.57
   6  -6  -2    4.81    4.97
   6  -6  -1    3.07    3.34
  -6   6   1    1.58    3.77
  -6   6   0    0.91    3.67
  -6   6  -1  202.78   15.44
  -6   6  -1  202.84   15.49
  -6   6  -2   76.42    8.69
   6  -6   2   74.99    7.83
  -6   6  -3   21.60    5.71
   6  -6   3   21.83    4.66
  -6   6  -4   31.65    6.68
   6  -6   4   32.57    5.45
  -6   6  -5   -2.00    5.03
   6  -6   5   -1.30    3.27
   6  -6   5    0.25    3.58
  -6   6  -6   -2.21    5.58
   6  -6   6   -1.01    3.40
   6  -6   6   -1.78    3.71
  -6   6  -7   46.95    9.51
   6  -6   7   46.89    6.32
   6  -6   7   45.91    6.50
  -6   6  -8   22.59    7.97
   6  -6   8   40.37    5.95
   6  -5  -8   31.10    5.53
   6  -5  -7  204.50   14.75
  -6   5   7  198.45   16.65
   6  -5  -6   46.83    6.17
  -6   5   6   41.47    7.47
   6  -5  -5    5.16    3.51
  -6   5   5   11.45    5.19
   6  -5  -4  126.12   10.15
  -6   5   4  110.14   11.31
   6  -5  -3   19.63    4.28
   6  -5  -3   18.34    5.61
  -6   5   3   13.70    5.15
   6  -5  -2    2.84    3.26
   6  -5  -2    1.91    4.13
  -6   5   2    4.39    4.18
   6  -5  -1   63.71    6.68
  -6   5   1   52.02    7.33
   6  -5   0   34.33    5.24
  -6   5   0   34.27    5.86
  -6   5  -1   26.97    5.32
  -6   5  -2   19.33    5.01
   6  -5   2   17.95    4.52
  -6   5  -3    4.92    4.21
   6  -5   3    0.70    3.11
  -6   5  -4   16.29    5.46
   6  -5   4   16.48    4.20
   6  -5   4   16.11    4.26
  -6   5  -5    7.70    5.35
   6  -5   5    6.39    3.45
   6  -5   5    3.24    3.61
  -6   5  -6  139.90   14.05
   6  -5   6  134.30   11.18
   6  -5   6  155.58   11.97
  -6   5  -7   11.80    6.16
   6  -5   7   12.51    4.07
  -6   5  -8    5.10    6.08
  -6   5  -9   -1.00    6.40
   6  -4  -8   68.29    7.13
   6  -4  -7   32.32    5.07
  -6   4   7   29.03    6.78
   6  -4  -6   12.99    3.81
  -6   4   6   15.18    5.70
   6  -4  -5   33.14    5.02
  -6   4   5   31.13    6.67
   6  -4  -4   48.40    7.05
   6  -4  -4   41.26    5.44
  -6   4   4   31.23    6.48
   6  -4  -3  140.12   11.71
   6  -4  -3  140.86   10.34
   6  -4  -2  445.46   26.71
   6  -4  -2  470.62   28.27
  -6   4   2  389.83   27.52
   6  -4  -1   42.42    6.29
   6  -4  -1   30.74    5.00
  -6   4   1   27.76    2.82
  -6   4   1   38.29    5.80
   6  -4   0    9.53    3.59
  -6   4   0    3.85    3.59
  -6   4   0    6.98    1.72
  -6   4  -1  105.51    6.98
  -6   4  -2   44.56    6.58
   6  -4   2   37.80    5.46
  -6   4  -2   33.80    3.47
  -6   4  -3    0.97    4.38
   6  -4   3    0.70    3.30
  -6   4  -3    1.34    1.83
  -6   4  -4   30.54    6.41
   6  -4   4   36.50    5.11
   6  -4   4   37.29    5.61
  -6   4  -4   32.85    3.76
  -6   4  -5   77.36    9.58
   6  -4   5   75.99    7.22
   6  -4   5   71.61    7.65
  -6   4  -5   66.10    5.94
  -6   4  -6    6.90    5.60
   6  -4   6    2.08    2.85
  -6   4  -6    1.30    2.29
  -6   4  -7   13.42    6.73
   6  -4   7   15.85    4.06
  -6   4  -7   18.07    3.56
  -6   4  -8   -0.48    6.30
   6  -3  -8   14.29    3.76
   6  -3  -7   38.16    5.07
   6  -3  -6   30.38    4.57
  -6   3   6   28.90    6.63
   6  -3  -5   13.52    3.62
   6  -3  -5   11.84    5.52
  -6   3   5    5.82    4.88
   6  -3  -4    7.69    3.24
  -6   3   4    2.46    3.18
  -6   3   4    4.00    4.54
   6  -3  -4    7.12    4.82
   6  -3  -3  337.17   21.24
   6  -3  -3  321.35   19.28
  -6   3   3  270.69   17.96
  -6   3   3  274.25   20.21
   6  -3  -2    9.96    4.80
   6  -3  -2    7.86    3.31
  -6   3   2    6.82    2.42
  -6   3   2    8.95    4.04
   6  -3  -1   24.05    4.36
  -6   3   1   25.37    3.24
  -6   3   1   26.65    4.87
   6  -3  -1   37.18    6.06
   6  -3   0   39.56    5.29
  -6   3   0   37.46    3.88
  -6   3   0   42.59    5.38
  -6   3  -1  107.34    7.67
  -6   3  -2  209.18   15.18
  -6   3  -2  181.42   12.00
  -6   3  -3  362.08   23.36
   6  -3   3  335.29   20.97
   6  -3   3  371.99   22.27
  -6   3  -3  309.46   19.89
  -6   3  -4   -0.68    4.51
   6  -3   4    0.37    2.57
   6  -3   4    1.96    3.21
  -6   3  -4   -0.14    2.13
  -6   3  -5    9.03    5.21
   6  -3   5    3.15    2.91
  -6   3  -5    5.02    2.56
  -6   3  -6   36.28    7.54
   6  -3   6   41.46    5.11
  -6   3  -6   38.38    4.92
  -6   3  -7   19.95    6.81
  -6   3  -7   18.49    3.93
  -6   3  -8   -1.01    3.10
  -6   3  -9   -1.34    3.38
  -6   2  10   -4.60    5.46
  -6   2   9  -11.26    7.41
  -6   2   8   23.43    5.08
   6  -2  -8   35.90    4.66
   6  -2  -7  114.78    9.17
   6  -2  -7  120.97   12.00
   6  -2  -6   42.99    7.91
   6  -2  -6   32.90    4.73
  -6   2   6   28.42    6.59
   6  -2  -5   72.28    6.65
   6  -2  -5   83.71    9.27
   6  -2  -4   11.26    3.49
  -6   2   4    5.37    3.85
  -6   2   4   10.49    4.40
   6  -2  -4   14.98    5.16
   6  -2  -3   35.49    6.40
   6  -2  -3   29.18    4.51
  -6   2   3   22.05    4.50
  -6   2   3   35.24    5.54
  -6   2   3   27.80    3.37
  -6   2   2    6.51    2.12
   6  -2  -2    3.99    3.12
  -6   2   2    7.57    3.14
  -6   2   2    6.93    3.39
   6  -2  -2    7.19    5.00
   6  -2  -1   28.69    6.33
  -6   2   1   22.64    3.15
   6  -2  -1   24.58    4.43
  -6   2   1   23.56    3.69
  -6   2   1   26.50    4.36
  -6   2   0   38.27    4.19
   6  -2   0   41.30    5.38
   6  -2   0   45.47    6.96
  -6   2   0   37.09    4.39
  -6   2  -1   33.54    4.34
  -6   2  -1   25.56    3.81
  -6   2  -2  335.86   19.88
   6  -2   2  302.34   19.10
  -6   2  -2  297.86   18.97
  -6   2  -3    7.26    4.30
   6  -2   3    2.40    2.55
  -6   2  -3    4.07    2.57
  -6   2  -4    2.63    4.19
   6  -2   4    1.31    2.50
  -6   2  -4    1.67    2.37
  -6   2  -5    6.93    5.08
   6  -2   5    1.85    2.45
  -6   2  -5    0.91    2.72
  -6   2  -6   55.56    8.78
  -6   2  -6   61.20    6.56
  -6   2  -7  115.30    9.71
  -6   2  -8   66.80    7.29
  -6   2  -9    5.43    3.63
  -6   1  10   -1.50    6.72
  -6   1   9  117.11   11.19
  -6   1   8    2.36    3.87
   6  -1  -8    6.87    3.01
   6  -1  -8    1.94    5.58
  -6   1   7   10.43    4.89
   6  -1  -7   12.99    3.43
   6  -1  -7    8.82    6.01
   6  -1  -6   51.38    8.09
   6  -1  -6   50.09    5.40
   6  -1  -5   50.81    5.66
  -6   1   5   37.16    6.62
  -6   1   5   47.61    4.74
  -6   1   4   -0.12    2.06
   6  -1  -4   -0.94    2.84
  -6   1   4    1.26    3.53
   6  -1  -4    3.14    4.62
   6  -1  -3   60.35    8.01
   6  -1  -3   61.06    6.25
  -6   1   3   59.34    6.53
  -6   1   3   37.33    6.48
  -6   1   3   56.37    4.99
  -6   1   2  309.49   19.23
   6  -1  -2  373.74   22.87
   6  -1  -2  336.39   20.77
  -6   1   2  289.60   20.58
  -6   1   2  339.68   20.45
  -6   1   1   58.98    5.46
   6  -1  -1   72.48    8.64
   6  -1  -1   63.73    6.75
  -6   1   1   52.92    6.12
  -6   1   1   57.07    5.76
  -6   1   0   34.94    4.54
   6  -1   0   47.99    6.81
   6  -1   0   32.71    5.22
  -6   1   0   34.00    4.74
  -6   1  -1   54.56    6.01
  -6   1  -1   48.23    5.50
  -6   1  -2    8.42    3.73
   6  -1   2    9.91    2.71
  -6   1  -2    8.87    3.00
  -6   1  -3    5.05    4.04
   6  -1   3    7.40    2.50
  -6   1  -3    6.16    2.99
  -6   1  -4   15.58    4.97
   6  -1   4   14.25    3.05
  -6   1  -4   17.92    3.86
  -6   1  -5   26.82    6.05
  -6   1  -5   31.50    4.89
  -6   1  -6   30.53    5.13
  -6   1  -7  102.36    9.62
  -6   1  -8    9.34    4.15
  -6   0  10  211.19   16.60
  -6   0   9   39.83    6.42
   6   0  -8   97.41    7.72
  -6   0   8   89.80    8.93
   6   0  -8   85.08   11.09
   6   0  -7    4.70    2.87
   6   0  -7    0.38    5.98
   6   0  -6   58.64    5.88
  -6   0   6   59.71    6.94
   6   0  -6   72.26    9.25
  -6   0   5   20.65    3.42
  -6   0   5   18.93    4.50
   6   0  -5   33.17    6.82
   6   0  -5   24.20    4.26
   6   0  -5   26.13    4.81
  -6   0   5   24.83    5.32
  -6   0   4   69.34    8.14
   6   0  -4  102.15    8.27
   6   0  -4  112.27    8.99
  -6   0   4   87.86    8.34
   6   0  -4  114.95   10.81
  -6   0   4   83.03    7.01
  -6   0   3   47.60    4.85
   6   0  -3   63.30    8.14
   6   0  -3   53.90    5.91
  -6   0   3   46.82    5.37
  -6   0   2   13.89    3.17
   6   0  -2   21.17    5.76
   6   0  -2   15.17    3.92
  -6   0   2    9.05    4.38
  -6   0   1   36.92    4.73
  -6   0   1   29.28    5.38
   6   0  -1   46.42    6.92
  -6   0   0  157.21   11.31
   6   0   0  157.39   12.91
  -6   0   0  138.29   11.48
   6   0   1   13.12    2.72
  -6   0  -1   13.66    3.83
   6   0   1   16.12    4.69
   6   0   2   -1.82    2.19
  -6   0  -2    0.22    2.87
  -6   0  -3  213.69   16.40
   6   0   3  214.24   13.80
  -6   0  -3  235.35   15.72
  -6   0  -4   13.47    5.06
  -6   0  -4   19.13    4.63
  -6   0  -5    0.97    3.36
  -6   0  -6   35.90    5.86
  -6   0  -7    9.50    4.38
  -6  -1  10   33.16    9.54
  -6  -1   9   10.85    5.05
   6   1  -8   20.10    3.65
   6   1  -8   18.02    6.96
  -6  -1   7    8.03    4.72
   6   1  -7    1.44    2.59
   6   1  -7   -0.80    6.10
  -6  -1   6  106.15   10.04
   6   1  -6  119.74    9.28
   6   1  -6  132.88   12.75
   6   1  -6  123.70    9.32
  -6  -1   5  512.95   33.37
   6   1  -5  562.08   32.28
   6   1  -5  627.03   36.15
  -6  -1   4   71.92    7.58
   6   1  -4   68.07    6.44
   6   1  -4   81.47    9.26
   6   1  -3   74.43    6.65
   6   1  -3   82.88    9.03
   6   1  -2   17.92    5.56
  -6  -1   2    8.06    4.24
   6   1  -1   83.85    8.52
  -6  -1   1   48.41    7.13
   6   1   0   24.18    5.34
   6   1   0   18.55    2.71
  -6  -1   0   14.32    4.52
   6   1   1   31.10    3.42
  -6  -1  -1   32.65    5.50
   6   1   2   36.01    6.62
  -6  -1  -2   38.00    5.78
  -6  -1  -3   20.41    5.19
  -6  -1  -3   22.49    4.96
   6   1   3   28.29    6.71
  -6  -1  -4    4.91    3.85
  -6  -1  -5   86.26    9.06
  -6  -1  -6    5.86    4.09
  -6  -1  -7    1.24    3.90
  -6  -2  10    7.97    9.96
   6   2 -10   -0.71    5.06
   6   2  -9   63.26    8.60
  -6  -2   8   16.98    6.04
   6   2  -8    9.31    6.62
  -6  -2   7    7.97    5.45
   6   2  -7    8.16    6.47
  -6  -2   6  361.16   24.95
   6   2  -6  454.73   28.23
  -6  -2   5   15.90    4.65
   6   2  -5   18.27    6.38
  -6  -2   4    2.24    3.56
   6   2  -4    3.64    5.14
  -6  -2   4    2.64    5.16
  -6  -2   3   47.61    6.25
   6   2  -3   55.34    7.87
  -6  -2   3   35.02    7.39
  -6  -2   2   -0.33    4.35
   6   2  -2   -1.22    4.64
   6   2  -1  207.03   12.93
  -6  -2   1  205.60   16.79
  -6  -2   0  285.23   20.19
  -6  -2  -1    5.87    4.07
   6   2   1    9.69    4.94
   6   2   2   14.23    6.44
  -6  -2  -2    8.06    4.23
  -6  -2  -3    8.27    4.29
   6   2   3    7.35    4.75
  -6  -2  -4   37.64    6.63
  -6  -2  -5   20.55    5.50
  -6  -2  -6    0.33    4.12
   6   3 -12   12.73    5.69
   6   3 -11    7.90    5.53
   6   3 -10    0.37    4.73
  -6  -3   9   80.43   11.91
  -6  -3   8  100.42   12.13
   6   3  -8   94.87   11.95
  -6  -3   7   15.70    6.64
   6   3  -7   10.81    6.61
  -6  -3   6    4.42    4.44
   6   3  -6   12.42    6.68
  -6  -3   5    1.88    3.83
   6   3  -5    6.54    5.77
  -6  -3   4  114.97   10.19
   6   3  -4  125.73   11.60
  -6  -3   4   92.39   11.66
  -6  -3   3   44.73    6.27
   6   3  -3   42.49    7.33
  -6  -3   3   35.07    7.62
  -6  -3   2   68.05    9.35
   6   3  -2   94.15    9.65
  -6  -3   1  270.36   20.29
   6   3   0    8.78    5.52
  -6  -3   0    2.31    4.44
   6   3   1    9.59    6.41
  -6  -3  -1    1.96    4.26
   6   3   2   39.48    6.65
  -6  -3  -2   25.18    5.97
  -6  -3  -3    0.98    4.21
  -6  -3  -4  127.96   12.24
  -6  -3  -5   74.13    9.30
   6   4 -11   50.96    8.43
  -6  -4  10    9.20   16.58
  -6  -4   9   36.69   11.29
  -6  -4   8    6.43    8.03
   6   4  -7    2.97    6.12
  -6  -4   7   15.91    8.11
  -6  -4   6   20.29    7.15
   6   4  -6   24.09    7.15
   6   4  -5    5.24    6.59
  -6  -4   5   -0.31    4.62
  -6  -4   4  202.54   15.82
   6   4  -4  230.60   17.60
  -6  -4   4  217.44   18.53
  -6  -4   3   31.60    5.87
  -6  -4   3   31.28    7.38
  -6  -4   2   35.07    5.96
  -6  -4   2   34.10    7.16
   6   4  -1    1.86    6.58
  -6  -4   1    3.03    4.91
  -6  -4   0   -2.85    4.62
   6   4   0   -0.61    5.21
   6   4   1   52.08    7.53
  -6  -4  -1   39.00    7.31
  -6  -4  -2   17.71    5.57
  -6  -4  -3   58.73    8.58
  -6  -4  -4   86.59   10.19
   6   5 -11   17.13    6.20
  -6  -5   9   -0.81   16.21
  -6  -5   8   -0.63    9.41
  -6  -5   7    5.02    8.59
   6   5  -6   31.58    7.36
  -6  -5   6   40.46    9.29
  -6  -5   5  178.32   15.40
   6   5  -5  182.99   15.60
  -6  -5   5  148.04   15.31
  -6  -5   4   38.74    7.11
  -6  -5   4   28.70    7.45
  -6  -5   3   46.40    7.40
  -6  -5   3   35.99    7.69
  -6  -5   2    2.76    5.00
   6   5  -2    0.97    4.43
  -6  -5   2   -2.85    5.61
   6   5  -1   23.97    5.94
  -6  -5   1   25.15    6.70
   6   5   0    2.19    5.23
  -6  -5   0    3.02    4.70
  -6  -5  -1  100.60   11.14
  -6  -5  -2   -1.86    4.89
  -6  -5  -3   13.41    5.66
  -6  -6   9   37.54   21.52
  -6  -6   8    9.25   14.99
  -6  -6   7  168.57   19.90
  -6  -6   6   -2.10    8.02
  -6  -6   5   15.75    6.51
  -6  -6   5   16.15    6.55
  -6  -6   4   23.02    6.07
  -6  -6   4   39.85    8.19
  -6  -6   3    2.07    4.40
  -6  -6   3    1.27    5.18
  -6  -6   2    1.71    4.17
  -6  -6   2    0.42    5.00
  -6  -6   1    8.47    5.74
  -6  -6   0  127.11   12.96
  -6  -6  -1    0.39    4.72
  -6  -7   8   63.41   23.41
  -6  -7   7    5.52   15.49
  -6  -7   6   14.56    6.71
  -6  -7   6   14.95    9.87
  -6  -7   5    2.25    7.49
  -6  -7   5    8.55    6.23
  -6  -7   4   82.66   10.05
  -6  -7   4   88.39   11.25
  -6  -7   3   77.18   10.67
  -6  -7   2  168.47   15.79
  -6  -7   1   12.77    6.15
  -6  -8   7   28.29   17.01
  -6  -8   6   -3.40    6.50
  -6  -8   6   10.99   13.31
  -6  -8   5   28.62   10.96
  -6  -8   5   37.51    8.30
  -6  -8   4   33.02    7.70
  -6  -9   7   -7.73   18.27
  -6  -9   6    6.73   11.99
  -7   7   1   54.83    8.46
  -7   7   0    0.71    4.53
   7  -7   4    0.63    4.24
   7  -6  -4   -0.27    3.66
   7  -6  -3   -2.97    3.92
  -7   6   3    0.37    4.58
   7  -6  -2   96.02    8.90
  -7   6   2   57.73    8.99
   7  -6  -1   17.59    4.82
  -7   6   1   12.90    5.49
  -7   6   0    2.85    4.24
   7  -6   0    1.93    3.80
  -7   6   0    3.24    4.37
   7  -6   4   81.83    8.88
   7  -6   5   -0.83    3.63
   7  -5  -7   21.86    5.00
   7  -5  -6   18.78    4.75
   7  -5  -5   22.09    5.09
  -7   5   5   19.84    6.12
   7  -5  -4   69.93    7.41
  -7   5   4   37.13    7.64
   7  -5  -3    1.53    3.79
  -7   5   3   -1.42    4.86
   7  -5  -2    8.74    4.17
  -7   5   2    6.01    4.59
   7  -5  -1    3.90    4.00
  -7   5   1    6.67    4.52
  -7   5   0   11.61    4.74
   7  -5   0   11.58    4.24
  -7   5  -1    6.25    4.62
  -7   5  -2    0.71    4.45
  -7   5  -3  120.39   12.29
   7  -5   3  116.87   10.35
   7  -5   4    1.01    3.43
   7  -5   5   -0.99    3.41
   7  -5   6    5.41    3.71
   7  -4  -7    9.41    4.00
   7  -4  -6   30.40    5.32
  -7   4   6   15.31    6.05
   7  -4  -5  115.54    9.36
  -7   4   5   66.37    9.57
   7  -4  -4    0.24    3.47
  -7   4   4    1.41    4.55
   7  -4  -3   -0.69    6.39
   7  -4  -3   -2.66    3.64
  -7   4   3    2.29    4.38
   7  -4  -2   39.40    5.98
   7  -4  -2   49.79    8.56
  -7   4   2   40.17    6.62
   7  -4  -1   95.33    9.06
  -7   4   1   92.06    9.31
   7  -4   0   52.62    6.85
  -7   4  -1   57.61    7.97
   7  -4   1   65.07    7.42
  -7   4  -2    1.04    4.43
  -7   4  -3    1.90    4.90
   7  -4   3    2.28    3.33
  -7   4  -4    6.11    5.59
   7  -4   4    9.17    3.68
   7  -4   5    4.66    3.40
   7  -3  -7   21.59    4.68
  -7   3   7   19.66    6.63
   7  -3  -6    8.35    3.69
  -7   3   6    4.07    4.78
   7  -3  -5   18.10    4.44
  -7   3   5   13.63    5.95
   7  -3  -4   -2.29    3.51
  -7   3   4   -0.33    4.22
   7  -3  -4   -1.09    6.19
   7  -3  -3   11.34    6.20
   7  -3  -3    8.43    3.85
  -7   3   3    4.94    4.24
   7  -3  -2   68.29    7.57
   7  -3  -2   74.78    9.72
   7  -3  -1   58.25    7.21
   7  -3   0  168.29   13.13
   7  -3   1   14.51    4.72
  -7   3  -2    4.49    4.61
   7  -3   2    3.21    3.13
  -7   3  -3    2.62    4.64
   7  -3   3    0.59    2.93
  -7   3  -4   87.48   10.69
   7  -3   4   82.86    7.80
  -7   3  -5   35.42    8.02
   7  -2  -7    3.70    3.37
   7  -2  -6   14.25    6.91
   7  -2  -6   10.39    3.67
   7  -2  -5   -0.38    6.62
   7  -2  -5    0.88    3.33
   7  -2  -4  119.24   10.24
   7  -2  -4  134.48   13.17
   7  -2  -3   11.58    6.04
   7  -2  -3    9.02    3.84
   7  -2  -2   10.92    5.70
   7  -2  -2    9.56    4.11
   7  -2  -1   32.71    5.61
   7  -2   0   26.62    5.15
  -7   2  -2    1.73    4.67
   7  -2   2   -0.88    2.78
  -7   2  -3   44.88    7.48
  -7   2  -4   55.64    8.82
  -7   2  -5   47.78    8.78
   7  -1  -7    5.56    3.45
   7  -1  -6    0.42    3.18
   7  -1  -5  163.44   12.34
   7  -1  -4   34.23    5.52
   7  -1  -3   11.22    4.15
  -7   1   3    8.46    4.06
   7  -1  -2   14.33    4.22
  -7   1   2    8.13    3.80
  -7   1   1   21.97    4.37
  -7   1   0   13.95    3.68
  -7   1  -1   94.68    8.27
  -7   1  -2    0.60    3.02
  -7   1  -3    0.36    4.79
  -7   1  -3   -0.21    3.06
  -7   1  -4    8.45    5.45
  -7   1  -4   11.22    3.76
  -7   1  -5   19.13    4.36
   7   0  -7   90.88    8.17
   7   0  -6    2.48    3.23
   7   0  -5    4.34    3.42
  -7   0   5    4.62    5.26
  -7   0   4    0.31    4.72
  -7   0   3   62.81    8.03
  -7   0   2   15.24    4.69
  -7   0   1    1.45    3.50
  -7   0   0  124.49   10.52
  -7   0  -1   15.78    4.36
  -7   0  -2    1.19    3.37
  -7   0  -3   15.09    5.47
  -7   0  -3   15.34    4.55
  -7   0  -4    8.61    4.06
  -7   0  -5   16.12    4.70
  -7  -1   6   23.69    6.75
  -7  -1   5    3.23    5.62
  -7  -1   4   -1.08    4.96
  -7  -1   3   88.51   10.06
  -7  -1   2   47.30    7.39
  -7  -1   1    1.72    4.04
  -7  -1   0    0.84    3.71
  -7  -1  -1   -0.82    3.83
  -7  -1  -2   32.49    5.90
  -7  -1  -3   21.60    5.56
  -7  -1  -4   11.79    4.89
  -7  -2   6   23.51    7.13
  -7  -2   5   19.55    6.50
  -7  -2   5    7.56    6.45
  -7  -2   4  113.91   12.37
  -7  -2   3  103.99   11.49
  -7  -2   2    2.51    4.73
  -7  -2   1    4.62    4.49
  -7  -2   0    7.74    4.66
  -7  -2  -1    1.56    4.26
  -7  -2  -2   77.06    9.07
  -7  -2  -3    5.89    4.57
  -7  -3   6  102.23   11.60
  -7  -3   6   94.63   12.49
  -7  -3   5    2.17    6.26
  -7  -3   5   -0.48    6.03
  -7  -3   4   28.17    7.05
  -7  -3   4   24.02    7.29
  -7  -3   3    3.71    5.25
  -7  -3   2    5.16    5.06
  -7  -3   1    8.45    5.31
  -7  -3   0    1.80    4.65
  -7  -3  -1   99.22   10.90
  -7  -3  -2   28.18    6.41
  -7  -4   6    9.96    6.94
  -7  -4   6    4.56    6.77
  -7  -4   5    3.28    6.45
  -7  -4   5   11.05    7.01
  -7  -4   4    1.61    6.47
  -7  -4   4    1.36    5.92
  -7  -4   3   11.05    6.34
  -7  -4   2   -2.10    5.51
  -7  -4   1   46.34    8.26
  -7  -4   0    9.83    5.74
  -7  -4  -1   11.47    5.54
  -7  -5   6   24.89    8.57
  -7  -5   5   -2.08    6.11
  -7  -5   5    5.13    7.12
  -7  -5   4    3.38    5.76
  -7  -5   4    7.11    6.71
  -7  -5   3   10.71    6.52
  -7  -5   2  112.34   12.66
  -7  -6   4   22.68    7.20
  -8  -3   4    7.18    6.65
   0   0   0    0.00    0.00


TITL exp_1045 in P-1
REM P-1 (#2 in standard setting)
CELL 0.71073   5.958388  11.769062  12.085052 110.9497  97.2648  94.2365
ZERR    3.00   0.000334   0.000725   0.000648   0.0054   0.0046   0.0048
LATT  1
SFAC C H N O
UNIT 33.00 30.00 3.00 3.00
TREF
HKLF 4
END
_computing_structure_solution     'SHELXT 2018/2 (Sheldrick, 2018)'
;
_shelx_hkl_checksum              44458
_olex2_submission_special_instructions 'No special instructions were received'
_oxdiff_exptl_absorpt_empirical_details
;
Empirical correction (ABSPACK) includes:
- Absorption correction using spherical harmonics
- Frame scaling
;
_oxdiff_exptl_absorpt_empirical_full_max 3.502
_oxdiff_exptl_absorpt_empirical_full_min 0.637
loop_
_space_group_symop_operation_xyz
'x, y, z'
'-x, -y, -z'
loop_
_atom_site_label
_atom_site_type_symbol
_atom_site_fract_x
_atom_site_fract_y
_atom_site_fract_z
_atom_site_U_iso_or_equiv
_atom_site_adp_type
_atom_site_occupancy
_atom_site_site_symmetry_order
_atom_site_calc_flag
_atom_site_refinement_flags_posn
_atom_site_refinement_flags_adp
_atom_site_refinement_flags_occupancy
_atom_site_disorder_assembly
_atom_site_disorder_group
I1 I 0.27686(6) 0.97179(4) 1.11903(3) 0.03500(13) Uani 1 1 d . . . . .
I3 I 1.15364(7) 0.77136(4) 0.73638(3) 0.03634(13) Uani 1 1 d . . . . .
I2 I 0.69893(7) 0.68165(4) 0.96077(4) 0.03880(13) Uani 1 1 d . . . . .
I4 I 0.68597(7) 0.58167(4) 0.57367(4) 0.04358(14) Uani 1 1 d . . . . .
Cu2 Cu 0.95487(17) 0.85305(9) 0.92489(8) 0.0584(3) Uani 1 1 d . . . . .
Cu1 Cu 0.47686(16) 0.85425(9) 0.92879(9) 0.0580(3) Uani 1 1 d . . . . .
S1 S -0.1575(3) -0.07504(16) 0.32336(14) 0.0387(4) Uani 1 1 d . . . . .
N2 N 0.2357(9) 0.0787(5) 0.4686(4) 0.0352(12) Uani 1 1 d . . . . .
N1 N 0.9328(8) 0.3655(5) 0.7241(5) 0.0375(12) Uani 1 1 d . . . . .
C5 C 0.5300(10) 0.2042(5) 0.6345(5) 0.0301(13) Uani 1 1 d . . . . .
C6 C 0.6671(10) 0.2290(6) 0.5575(5) 0.0352(14) Uani 1 1 d . . . . .
H6 H 0.623798 0.190824 0.474781 0.042 Uiso 1 1 calc R U . . .
C8 C 0.0366(10) 0.0074(5) 0.4513(5) 0.0311(13) Uani 1 1 d . . . . .
C4 C 0.6083(10) 0.2625(6) 0.7582(5) 0.0350(14) Uani 1 1 d . . . . .
H4 H 0.523828 0.247876 0.812448 0.042 Uiso 1 1 calc R U . . .
C7 C 0.3184(10) 0.1216(6) 0.5849(5) 0.0331(14) Uani 1 1 d . . . . .
C2 C 0.8634(11) 0.3088(6) 0.6034(6) 0.0394(15) Uani 1 1 d . . . . .
H2 H 0.951687 0.324768 0.551212 0.047 Uiso 1 1 calc R U . . .
C3 C 0.8065(11) 0.3403(6) 0.7994(6) 0.0410(15) Uani 1 1 d . . . . .
H3 H 0.856237 0.377195 0.881757 0.049 Uiso 1 1 calc R U . . .
C1 C 1.1396(12) 0.4551(7) 0.7719(7) 0.0498(18) Uani 1 1 d . . . . .
H1A H 1.238508 0.440077 0.712744 0.075 Uiso 1 1 calc R U . . .
H1B H 1.217196 0.447390 0.843022 0.075 Uiso 1 1 calc R U . . .
H1C H 1.098402 0.536529 0.791365 0.075 Uiso 1 1 calc R U . . .
loop_
_atom_site_aniso_label
_atom_site_aniso_U_11
_atom_site_aniso_U_22
_atom_site_aniso_U_33
_atom_site_aniso_U_23
_atom_site_aniso_U_13
_atom_site_aniso_U_12
I1 0.0380(2) 0.0362(2) 0.0338(2) 0.01674(19) 0.00525(17) 0.00451(19)
I3 0.0343(2) 0.0436(3) 0.0294(2) 0.01322(19) 0.00396(17) -0.00146(19)
I2 0.0428(2) 0.0430(3) 0.0386(2) 0.0225(2) 0.01114(18) 0.0086(2)
I4 0.0401(3) 0.0507(3) 0.0445(3) 0.0217(2) 0.01004(19) 0.0077(2)
Cu2 0.0656(6) 0.0634(7) 0.0526(6) 0.0262(5) 0.0193(5) 0.0064(5)
Cu1 0.0584(6) 0.0629(7) 0.0582(6) 0.0308(5) 0.0022(4) 0.0095(5)
S1 0.0424(9) 0.0471(10) 0.0297(8) 0.0192(7) 0.0067(7) -0.0024(8)
N2 0.039(3) 0.040(3) 0.032(3) 0.019(2) 0.012(2) 0.006(2)
N1 0.035(3) 0.041(3) 0.046(3) 0.028(3) 0.007(2) 0.009(2)
C5 0.038(3) 0.028(3) 0.033(3) 0.018(3) 0.012(3) 0.011(3)
C6 0.041(4) 0.040(4) 0.030(3) 0.017(3) 0.012(3) 0.005(3)
C8 0.038(3) 0.032(3) 0.030(3) 0.018(3) 0.008(2) 0.005(3)
C4 0.038(3) 0.039(4) 0.035(3) 0.019(3) 0.013(3) 0.009(3)
C7 0.041(3) 0.034(3) 0.037(3) 0.022(3) 0.020(3) 0.014(3)
C2 0.043(4) 0.043(4) 0.042(4) 0.025(3) 0.014(3) 0.006(3)
C3 0.048(4) 0.044(4) 0.035(3) 0.020(3) 0.005(3) 0.004(3)
C1 0.041(4) 0.049(4) 0.065(5) 0.030(4) 0.006(3) -0.002(3)
loop_
_atom_type_symbol
_atom_type_description
_atom_type_scat_dispersion_real
_atom_type_scat_dispersion_imag
_atom_type_scat_source
C C 0.0033 0.0016 'International Tables Vol C Tables 4.2.6.8 and 6.1.1.4'
H H 0.0000 0.0000 'International Tables Vol C Tables 4.2.6.8 and 6.1.1.4'
Cu Cu 0.3201 1.2651 'International Tables Vol C Tables 4.2.6.8 and 6.1.1.4'
I I -0.4742 1.8119 'International Tables Vol C Tables 4.2.6.8 and 6.1.1.4'
N N 0.0061 0.0033 'International Tables Vol C Tables 4.2.6.8 and 6.1.1.4'
S S 0.1246 0.1234 'International Tables Vol C Tables 4.2.6.8 and 6.1.1.4'
loop_
_geom_angle_atom_site_label_1
_geom_angle_atom_site_label_2
_geom_angle_atom_site_label_3
_geom_angle
_geom_angle_site_symmetry_1
_geom_angle_site_symmetry_3
_geom_angle_publ_flag
Cu2 I1 Cu2 73.51(4) 1_455 2_677 ?
Cu2 I1 Cu1 107.22(3) 1_455 2_677 ?
Cu2 I1 Cu1 70.27(3) 1_455 . ?
Cu1 I1 Cu2 109.74(3) . 2_677 ?
Cu1 I1 Cu2 63.43(3) 2_677 2_677 ?
Cu1 I1 Cu1 73.04(4) . 2_677 ?
Cu2 I3 Cu1 72.31(3) . 1_655 ?
Cu1 I2 Cu2 65.91(3) . . ?
I1 Cu2 I1 106.50(4) 1_655 2_677 ?
I1 Cu2 Cu1 123.48(4) 1_655 . ?
I1 Cu2 Cu1 57.78(3) 2_677 . ?
I3 Cu2 I1 108.73(4) . 1_655 ?
I3 Cu2 I1 102.23(3) . 2_677 ?
I3 Cu2 I2 113.95(4) . . ?
I3 Cu2 Cu1 127.16(4) . . ?
I2 Cu2 I1 114.56(4) . 2_677 ?
I2 Cu2 I1 110.32(4) . 1_655 ?
I2 Cu2 Cu1 56.84(3) . . ?
I1 Cu1 I1 106.96(4) . 2_677 ?
I1 Cu1 Cu2 126.79(4) . . ?
I1 Cu1 Cu2 58.79(3) 2_677 . ?
I3 Cu1 I1 107.30(4) 1_455 . ?
I3 Cu1 I1 100.38(3) 1_455 2_677 ?
I3 Cu1 Cu2 125.15(4) 1_455 . ?
I2 Cu1 I1 112.12(3) . . ?
I2 Cu1 I1 115.98(4) . 2_677 ?
I2 Cu1 I3 113.14(4) . 1_455 ?
I2 Cu1 Cu2 57.25(3) . . ?
C8 S1 C7 87.5(3) . 2_556 ?
C7 N2 C8 107.7(5) . . ?
C2 N1 C1 120.7(5) . . ?
C3 N1 C2 119.1(6) . . ?
C3 N1 C1 120.2(6) . . ?
C6 C5 C7 120.0(5) . . ?
C4 C5 C6 116.8(6) . . ?
C4 C5 C7 123.2(5) . . ?
C5 C6 H6 119.8 . . ?
C2 C6 C5 120.3(6) . . ?
C2 C6 H6 119.8 . . ?
N2 C8 S1 131.8(4) . . ?
N2 C8 C8 118.5(7) . 2_556 ?
C8 C8 S1 109.6(6) 2_556 . ?
C5 C4 H4 119.7 . . ?
C3 C4 C5 120.5(6) . . ?
C3 C4 H4 119.7 . . ?
N2 C7 S1 116.7(5) . 2_556 ?
N2 C7 C5 121.8(5) . . ?
C5 C7 S1 121.5(4) . 2_556 ?
N1 C2 C6 121.4(6) . . ?
N1 C2 H2 119.3 . . ?
C6 C2 H2 119.3 . . ?
N1 C3 C4 121.8(6) . . ?
N1 C3 H3 119.1 . . ?
C4 C3 H3 119.1 . . ?
N1 C1 H1A 109.5 . . ?
N1 C1 H1B 109.5 . . ?
N1 C1 H1C 109.5 . . ?
H1A C1 H1B 109.5 . . ?
H1A C1 H1C 109.5 . . ?
H1B C1 H1C 109.5 . . ?
loop_
_geom_bond_atom_site_label_1
_geom_bond_atom_site_label_2
_geom_bond_distance
_geom_bond_site_symmetry_2
_geom_bond_publ_flag
I1 Cu2 2.6943(11) 1_455 ?
I1 Cu2 2.7305(10) 2_677 ?
I1 Cu1 2.7010(11) 2_677 ?
I1 Cu1 2.6984(11) . ?
I3 Cu2 2.6079(10) . ?
I3 Cu1 2.6524(10) 1_655 ?
I2 Cu2 2.6307(11) . ?
I2 Cu1 2.6183(10) . ?
I4 I4 2.7753(9) 2_666 ?
Cu2 Cu1 2.8555(15) . ?
S1 C8 1.726(6) . ?
S1 C7 1.753(6) 2_556 ?
N2 C8 1.349(8) . ?
N2 C7 1.325(7) . ?
N1 C2 1.361(8) . ?
N1 C3 1.348(8) . ?
N1 C1 1.469(9) . ?
C5 C6 1.403(8) . ?
C5 C4 1.402(8) . ?
C5 C7 1.451(9) . ?
C6 H6 0.9300 . ?
C6 C2 1.363(9) . ?
C8 C8 1.368(11) 2_556 ?
C4 H4 0.9300 . ?
C4 C3 1.359(9) . ?
C2 H2 0.9300 . ?
C3 H3 0.9300 . ?
C1 H1A 0.9600 . ?
C1 H1B 0.9600 . ?
C1 H1C 0.9600 . ?
loop_
_geom_torsion_atom_site_label_1
_geom_torsion_atom_site_label_2
_geom_torsion_atom_site_label_3
_geom_torsion_atom_site_label_4
_geom_torsion
_geom_torsion_site_symmetry_1
_geom_torsion_site_symmetry_2
_geom_torsion_site_symmetry_3
_geom_torsion_site_symmetry_4
_geom_torsion_publ_flag
C5 C6 C2 N1 0.5(9) . . . . ?
C5 C4 C3 N1 0.9(9) . . . . ?
C6 C5 C4 C3 0.8(8) . . . . ?
C6 C5 C7 S1 173.1(4) . . . 2_556 ?
C6 C5 C7 N2 -7.8(8) . . . . ?
C8 N2 C7 S1 0.6(6) . . . 2_556 ?
C8 N2 C7 C5 -178.6(5) . . . . ?
C4 C5 C6 C2 -1.5(8) . . . . ?
C4 C5 C7 S1 -7.0(8) . . . 2_556 ?
C4 C5 C7 N2 172.1(5) . . . . ?
C7 S1 C8 N2 179.6(6) 2_556 . . . ?
C7 S1 C8 C8 0.0(6) 2_556 . . 2_556 ?
C7 N2 C8 S1 179.8(5) . . . . ?
C7 N2 C8 C8 -0.6(9) . . . 2_556 ?
C7 C5 C6 C2 178.4(5) . . . . ?
C7 C5 C4 C3 -179.1(6) . . . . ?
C2 N1 C3 C4 -1.9(9) . . . . ?
C3 N1 C2 C6 1.2(9) . . . . ?
C1 N1 C2 C6 -177.4(6) . . . . ?
C1 N1 C3 C4 176.7(6) . . . . ?
