#------------------------------------------------------------------------------
#$Date: 2021-10-20 02:22:44 +0300 (Wed, 20 Oct 2021) $
#$Revision: 270042 $
#$URL: file:///home/coder/svn-repositories/cod/cif/7/70/85/7708592.cif $
#------------------------------------------------------------------------------
#
# This file is available in the Crystallography Open Database (COD),
# http://www.crystallography.net/
#
# All data on this site have been placed in the public domain by the
# contributors.
#
data_7708592
loop_
_publ_author_name
'Jin, Jian-Ce'
'Zhuang, Ting-Hui'
'Lin, Yang-Peng'
'Lin, Bing-Ye'
'Jiang, Jiang'
'Du, Kezhao'
'Huang, Xiao-ying'
_publ_section_title
;
 Ionic Indium (III) Chloride Hybrids Incorporating
 2,2&#x2019;-bipyrimidine Ligand: Studies on Photoluminescence and
 Structural Transformation
;
_journal_name_full               'Dalton Transactions'
_journal_paper_doi               10.1039/D1DT03264J
_journal_year                    2021
_chemical_formula_sum            'C22 H26 Cl8 In2 N6'
_chemical_formula_weight         887.73
_space_group_crystal_system      triclinic
_space_group_IT_number           2
_space_group_name_Hall           '-P 1'
_space_group_name_H-M_alt        'P -1'
_atom_sites_solution_hydrogens   geom
_audit_creation_method           SHELXL-2018/3
_audit_update_record
;
2021-07-31 deposited with the CCDC.	2021-10-18 downloaded from the CCDC.
;
_cell_angle_alpha                89.960(4)
_cell_angle_beta                 75.832(4)
_cell_angle_gamma                81.441(4)
_cell_formula_units_Z            1
_cell_length_a                   8.7030(4)
_cell_length_b                   9.1050(5)
_cell_length_c                   10.8430(5)
_cell_measurement_reflns_used    4265
_cell_measurement_temperature    290(2)
_cell_measurement_theta_max      25.8580
_cell_measurement_theta_min      3.8420
_cell_volume                     823.22(7)
_computing_structure_refinement  'SHELXL-2018/3 (Sheldrick, 2018)'
_computing_structure_solution    'SHELXT 2014/5 (Sheldrick, 2014)'
_diffrn_ambient_temperature      290(2)
_diffrn_measured_fraction_theta_full 0.998
_diffrn_measured_fraction_theta_max 0.884
_diffrn_measurement_device_type  'SuperNova, Dual, Cu at home/near, Atlas'
_diffrn_radiation_type           MoK\a
_diffrn_radiation_wavelength     0.71073
_diffrn_reflns_av_R_equivalents  0.0539
_diffrn_reflns_av_unetI/netI     0.0563
_diffrn_reflns_Laue_measured_fraction_full 0.998
_diffrn_reflns_Laue_measured_fraction_max 0.884
_diffrn_reflns_limit_h_max       11
_diffrn_reflns_limit_h_min       -11
_diffrn_reflns_limit_k_max       12
_diffrn_reflns_limit_k_min       -11
_diffrn_reflns_limit_l_max       13
_diffrn_reflns_limit_l_min       -13
_diffrn_reflns_number            16207
_diffrn_reflns_point_group_measured_fraction_full 0.998
_diffrn_reflns_point_group_measured_fraction_max 0.884
_diffrn_reflns_theta_full        25.242
_diffrn_reflns_theta_max         28.689
_diffrn_reflns_theta_min         3.338
_exptl_absorpt_coefficient_mu    2.074
_exptl_absorpt_correction_T_max  1.00000
_exptl_absorpt_correction_T_min  0.87685
_exptl_absorpt_correction_type   multi-scan
_exptl_crystal_colour            light-brown
_exptl_crystal_density_diffrn    1.791
_exptl_crystal_description       block
_exptl_crystal_F_000             434
_exptl_crystal_size_max          0.200
_exptl_crystal_size_mid          0.200
_exptl_crystal_size_min          0.100
_refine_diff_density_max         0.571
_refine_diff_density_min         -0.455
_refine_diff_density_rms         0.103
_refine_ls_extinction_method     none
_refine_ls_goodness_of_fit_ref   1.008
_refine_ls_hydrogen_treatment    constr
_refine_ls_matrix_type           full
_refine_ls_number_parameters     173
_refine_ls_number_reflns         3762
_refine_ls_number_restraints     0
_refine_ls_restrained_S_all      1.008
_refine_ls_R_factor_all          0.0632
_refine_ls_R_factor_gt           0.0356
_refine_ls_shift/su_max          0.001
_refine_ls_shift/su_mean         0.000
_refine_ls_structure_factor_coef Fsqd
_refine_ls_weighting_details
'w=1/[\s^2^(Fo^2^)+(0.0180P)^2^+0.4000P] where P=(Fo^2^+2Fc^2^)/3'
_refine_ls_weighting_scheme      calc
_refine_ls_wR_factor_gt          0.0542
_refine_ls_wR_factor_ref         0.0650
_reflns_Friedel_coverage         0.000
_reflns_number_gt                2852
_reflns_number_total             3762
_reflns_threshold_expression     'I > 2\s(I)'
_cod_data_source_file            d1dt03264j2.cif
_cod_data_source_block           x_CCDC1
_cod_database_code               7708592
_shelx_shelxl_version_number     2018/3
_shelx_space_group_comment
;
The symmetry employed for this shelxl refinement is uniquely defined
by the following loop, which should always be used as a source of
symmetry information in preference to the above space-group names.
They are only intended as comments.
;
_shelx_estimated_absorpt_t_min   0.682
_shelx_estimated_absorpt_t_max   0.819
_shelx_res_file
;
TITL ck_a.res in P-1
    x.res
    created by SHELXL-2018/3 at 14:00:00 on 05-Dec-2020
REM Old TITL ck in P1
REM SHELXT solution in P-1
REM R1 0.125, Rweak 0.011, Alpha 0.062, Orientation as input
REM Formula found by SHELXT: C11 N3 Cl4 In
CELL 0.71073 8.703 9.105 10.843 89.96 75.832 81.441
ZERR 1 0.0004 0.0005 0.0005 0.004 0.004 0.004
LATT 1
SFAC C H Cl In N
UNIT 22 26 8 2 6

L.S. 20
PLAN  20
SIZE 0.2 0.2 0.1
TEMP 16.85
BOND $H
conf
htab
list 4
fmap 2

acta
REM <olex2.extras>
REM <HklSrc "%.\\ck.hkl">
REM </olex2.extras>
EQIV $2 -x+1, -y+1, -z+1
HTAB C1 Cl1_$2
HTAB C1 Cl3
EQIV $3 x-1, y, z
HTAB C3 Cl1_$3
HTAB C5 Cl3_$2
EQIV $4 -x+2, -y+1, -z+1
HTAB C6 Cl2_$4
EQIV $5 -x+2, -y, -z+1
HTAB C9 Cl2_$5
EQIV $6 x, y, z+1
HTAB C9 Cl4_$6
HTAB C11 Cl4_$6
EQIV $1 -x+1, -y, -z+1
HTAB C11 Cl4_$1

WGHT    0.018000    0.400000
FVAR       0.70410
mole 1
IN1   4    0.739010    0.191647    0.338410    11.00000    0.03119    0.03272 =
         0.04494    0.00874   -0.01092   -0.00961
CL1   3    0.771799    0.304111    0.534184    11.00000    0.04543    0.04826 =
         0.05994   -0.01160   -0.01897   -0.00070
CL2   3    1.026940    0.132657    0.248916    11.00000    0.03578    0.05499 =
         0.06941   -0.00352    0.00111   -0.00948
CL3   3    0.656491    0.424706    0.245844    11.00000    0.04774    0.05583 =
         0.09829    0.04380   -0.02162   -0.01450
CL4   3    0.667552    0.035668    0.180425    11.00000    0.07409    0.07024 =
         0.05290    0.00181   -0.02617   -0.02866
N1    5    0.469779    0.189210    0.453683    11.00000    0.02588    0.02885 =
         0.04858    0.00728   -0.01030   -0.00479
N2    5    0.284395    0.032566    0.550892    11.00000    0.02505    0.03080 =
         0.04302    0.00343   -0.00686   -0.00351
C1    1    0.347580    0.300884    0.461313    11.00000    0.04098    0.03150 =
         0.05943    0.01305   -0.01489   -0.00281
AFIX  43
H1    2    0.369285    0.393520    0.432147    11.00000   -1.20000
AFIX   0
C2    1    0.191846    0.281185    0.511099    11.00000    0.03063    0.03893 =
         0.07127    0.01066   -0.01015    0.00205
AFIX  43
H2    2    0.107808    0.358928    0.516312    11.00000   -1.20000
AFIX   0
C3    1    0.163712    0.143629    0.552926    11.00000    0.02628    0.04223 =
         0.05260    0.00661   -0.00906   -0.00167
AFIX  43
H3    2    0.058524    0.126721    0.583469    11.00000   -1.20000
AFIX   0
C4    1    0.432109    0.060606    0.501401    11.00000    0.02630    0.02716 =
         0.03679    0.00338   -0.01113   -0.00294
mole 2
N3    5    0.735871    0.277476    0.868028    11.00000    0.05040    0.04482 =
         0.04496   -0.00836   -0.00735   -0.01458
C5    1    0.734617    0.413293    0.822620    11.00000    0.07997    0.05247 =
         0.05756    0.00231   -0.02514   -0.01454
AFIX  43
H5    2    0.646304    0.458921    0.795531    11.00000   -1.20000
AFIX   0
C6    1    0.861227    0.484925    0.815808    11.00000    0.11835    0.06724 =
         0.06552    0.00043   -0.00667   -0.05019
AFIX  43
H6    2    0.860674    0.579634    0.783582    11.00000   -1.20000
AFIX   0
C7    1    0.988600    0.418711    0.855895    11.00000    0.06605    0.13956 =
         0.08462   -0.03315    0.01191   -0.06091
AFIX  43
H7    2    1.076225    0.467682    0.851120    11.00000   -1.20000
AFIX   0
C8    1    0.989041    0.281719    0.902844    11.00000    0.04524    0.11719 =
         0.10421   -0.01420   -0.01580   -0.00242
AFIX  43
H8    2    1.076488    0.235584    0.930778    11.00000   -1.20000
AFIX   0
C9    1    0.859599    0.211504    0.908900    11.00000    0.06254    0.05657 =
         0.06717    0.00319   -0.00609    0.00176
AFIX  43
H9    2    0.858132    0.117201    0.941752    11.00000   -1.20000
AFIX   0
C10   1    0.596873    0.198809    0.872333    11.00000    0.07338    0.07726 =
         0.07483   -0.01218   -0.01263   -0.04087
AFIX  23
H10A  2    0.625910    0.094684    0.887976    11.00000   -1.20000
H10B  2    0.569981    0.204851    0.790597    11.00000   -1.20000
AFIX   0
C11   1    0.453044    0.264949    0.974893    11.00000    0.05265    0.08290 =
         0.07135    0.00503   -0.01800   -0.02197
AFIX 137
H11A  2    0.421591    0.366998    0.957781    11.00000   -1.50000
H11B  2    0.479564    0.259460    1.055829    11.00000   -1.50000
H11C  2    0.366158    0.210613    0.976542    11.00000   -1.50000

AFIX   0
HKLF 4




REM  ck_a.res in P-1
REM wR2 = 0.0650, GooF = S = 1.008, Restrained GooF = 1.008 for all data
REM R1 = 0.0356 for 2852 Fo > 4sig(Fo) and 0.0632 for all 3762 data
REM 173 parameters refined using 0 restraints

END

WGHT      0.0171      0.0000

REM Instructions for potential hydrogen bonds
HTAB C1 Cl1_$2
HTAB C1 Cl3
HTAB C3 Cl1_$3
HTAB C5 Cl3_$2
HTAB C6 Cl2_$4
HTAB C9 Cl2_$5
HTAB C9 Cl4_$6
HTAB C11 Cl4_$6
HTAB C11 Cl4_$1

REM Highest difference peak  0.571,  deepest hole -0.455,  1-sigma level  0.103
Q1    1   0.7421  0.0857  0.1416  11.00000  0.05    0.57
Q2    1   0.7707  0.4299  0.9732  11.00000  0.05    0.45
Q3    1   0.5000  0.0000  0.5000  10.50000  0.05    0.43
Q4    1   0.7301  0.3048  0.7820  11.00000  0.05    0.39
Q5    1   0.9250  0.1191  0.4313  11.00000  0.05    0.38
Q6    1   0.5226  0.4788  0.8186  11.00000  0.05    0.37
Q7    1   0.5726  0.1263  0.1817  11.00000  0.05    0.37
Q8    1   0.3397  0.3429  0.9190  11.00000  0.05    0.37
Q9    1   0.6882  0.4451  0.3093  11.00000  0.05    0.36
Q10   1   0.6891  0.3476  0.6944  11.00000  0.05    0.36
Q11   1   1.1114  0.4425  0.8959  11.00000  0.05    0.36
Q12   1   0.8589  0.1999  1.0819  11.00000  0.05    0.36
Q13   1   0.0320  0.1600  0.4387  11.00000  0.05    0.35
Q14   1   0.7809  0.0342  0.7229  11.00000  0.05    0.35
Q15   1   0.4913  0.5125  0.9378  11.00000  0.05    0.35
Q16   1  -0.1406  0.0979  0.6542  11.00000  0.05    0.35
Q17   1  -0.0197  0.0782  0.7549  11.00000  0.05    0.35
Q18   1   0.3388  0.2354  0.8987  11.00000  0.05    0.35
Q19   1   0.6763  0.2250  0.8513  11.00000  0.05    0.34
Q20   1   0.9578  0.2818  1.0985  11.00000  0.05    0.34
;
_shelx_res_checksum              23213
_shelx_hkl_file
;
 -11  -3  -3    6.64   10.92
 -11  -3  -2   97.00   39.82
 -11  -3  -1  236.97   48.79
 -11  -3   0   64.37   29.31
 -11  -3   1   64.57   38.69
 -11  -2  -6  171.99   44.95
 -11  -2  -5   35.84   19.46
 -11  -2  -4   82.59   31.56
 -11  -2  -3  147.02   40.61
 -11  -2  -2  -24.45   22.14
 -11  -2  -1   49.12   32.60
 -11  -2   0  112.42   37.43
 -11  -1  -8   99.00   51.64
 -11  -1  -7   50.41   29.20
 -11  -1  -6  -14.49   30.51
 -11  -1  -5    7.24   24.23
 -11  -1  -4  -25.68   38.83
 -11  -1  -3   53.48   32.96
 -11  -1  -2  272.70   60.29
 -11  -1  -1  127.21   41.98
 -11   0  -6  -18.41   23.43
 -11   0  -5  -25.60   31.47
 -11   0  -4   15.67   26.42
 -11   0  -3  202.01   54.63
 -10  -4  -3    5.02   11.03
 -10  -4  -2   71.40   23.49
 -10  -4  -1  195.48   42.92
 -10  -4   0   71.56   27.66
 -10  -4   1   -4.72   11.14
 -10  -4   2  169.44   41.98
 -10  -4   3  101.34   39.84
 -10  -3 -10   -6.67   17.37
 -10  -3  -9  127.32   33.67
 -10  -3  -8   -3.46   19.81
 -10  -3  -7   68.13   24.28
 -10  -3  -6  239.20   43.68
 -10  -3  -5   32.68   26.23
 -10  -3  -4   35.01   24.17
 -10  -3  -3   59.71   25.19
 -10  -3  -2   77.00   30.43
 -10  -3  -1  -43.03   22.64
 -10  -3   0  195.07   43.90
 -10  -3   1  219.93   47.99
 -10  -3   2   51.23   28.15
 -10  -3   3  249.87   59.38
 -10  -2 -10  -33.48   28.29
 -10  -2  -9   96.29   27.58
 -10  -2  -9   14.46   15.37
 -10  -2  -8  244.90   47.28
 -10  -2  -8  164.45   50.19
 -10  -2  -7  271.11   41.65
 -10  -2  -7  261.67   51.18
 -10  -2  -6   61.11   20.33
 -10  -2  -6   62.32   31.72
 -10  -2  -5  136.35   39.82
 -10  -2  -4   -4.12   14.71
 -10  -2  -3   41.30   19.37
 -10  -2  -2   36.06   27.17
 -10  -2  -1  111.98   32.57
 -10  -2   0   -3.10   32.13
 -10  -2   1  221.41   53.10
 -10  -2   2  174.44   47.09
 -10  -2   3  -12.70   29.66
 -10  -1 -10   -2.61   23.05
 -10  -1 -10    3.18   21.40
 -10  -1  -9   39.38   19.87
 -10  -1  -9   45.91   23.08
 -10  -1  -8   56.47   20.91
 -10  -1  -8   45.06   22.56
 -10  -1  -7  234.72   53.95
 -10  -1  -6  117.25   34.82
 -10  -1  -5  -17.40   19.48
 -10  -1  -4  143.54   43.11
 -10  -1  -3  127.71   35.92
 -10  -1  -2   24.56   22.56
 -10  -1  -1   93.10   31.23
 -10  -1   0    7.19   21.95
 -10  -1   1  -24.12   20.17
 -10  -1   2  190.38   52.96
 -10   0  -9  185.58   62.65
 -10   0  -8  189.17   48.71
 -10   0  -7   42.97   26.18
 -10   0  -6   22.14   19.76
 -10   0  -5    5.38   23.96
 -10   0  -4   21.18   23.13
 -10   0  -3  191.81   54.39
 -10   0  -2  351.04   64.26
 -10   0  -1   12.73   12.13
 -10   0   0  299.56   58.06
 -10   0   1  144.39   46.13
 -10   1  -8  246.00   56.25
 -10   1  -7    1.10   27.00
 -10   1  -6  -54.22   30.46
 -10   1  -5  128.83   41.24
 -10   1  -4  137.04   47.06
 -10   1  -3  152.29   41.85
 -10   1  -2   44.10   33.92
 -10   1  -1  208.71   53.01
 -10   1   0    2.11   19.76
 -10   2  -6   49.83   26.07
 -10   2  -5   24.01   23.19
 -10   2  -4   35.37   31.39
 -10   2  -3  129.13   40.09
 -10   2  -2  -19.04   21.98
  -9  -8   0  -20.09   16.33
  -9  -8   1  203.17   39.40
  -9  -8   2   50.13   24.09
  -9  -7   0  366.65   48.43
  -9  -7   1    2.80    4.34
  -9  -7   2   28.67   13.83
  -9  -7   3  151.25   32.16
  -9  -6  -8   41.11   29.33
  -9  -6  -7   25.24   26.64
  -9  -6  -6   57.13   27.11
  -9  -6  -5  295.26   54.77
  -9  -6  -4  198.06   44.95
  -9  -6  -3   33.39   21.62
  -9  -6  -2  309.80   58.12
  -9  -6  -1   50.16   27.39
  -9  -6   0   42.61   24.23
  -9  -6   0   -9.93   14.05
  -9  -6   1  121.75   41.30
  -9  -6   1   79.93   24.23
  -9  -6   2   83.69   32.10
  -9  -6   2   50.16   16.79
  -9  -6   3   10.29   25.03
  -9  -6   4  208.65   51.64
  -9  -5 -10   84.41   30.38
  -9  -5 -10   95.85   30.54
  -9  -5  -9  -18.93   22.12
  -9  -5  -9   13.14   17.84
  -9  -5  -8  -13.97   21.46
  -9  -5  -8   38.22   24.86
  -9  -5  -7   62.04   23.82
  -9  -5  -7   32.76   20.63
  -9  -5  -6  108.50   33.59
  -9  -5  -5    6.86   13.25
  -9  -5  -4  396.56   64.46
  -9  -5  -3  248.42   51.97
  -9  -5  -3  170.43   30.24
  -9  -5  -2  159.04   42.81
  -9  -5  -2  184.37   35.07
  -9  -5  -1  271.35   53.67
  -9  -5  -1  354.44   46.26
  -9  -5   0   35.07   24.75
  -9  -5   0   10.29   17.34
  -9  -5   0   53.97   18.47
  -9  -5   1   13.31   13.53
  -9  -5   1    0.49   17.81
  -9  -5   1  -13.06   10.84
  -9  -5   2   54.85   26.86
  -9  -5   2   45.80   21.95
  -9  -5   2    3.27    9.16
  -9  -5   3  156.08   43.36
  -9  -5   3  133.11   31.80
  -9  -5   4  -12.49   31.83
  -9  -5   4   26.97   17.64
  -9  -5   5   56.33   27.58
  -9  -5   5   63.08   27.96
  -9  -5   5   38.47   42.09
  -9  -4 -11   -4.42   34.77
  -9  -4 -10  -13.86   10.95
  -9  -4 -10   16.79   23.05
  -9  -4  -9   25.93   21.54
  -9  -4  -9  -16.71   16.99
  -9  -4  -8   51.56   21.27
  -9  -4  -8   18.55   24.56
  -9  -4  -7   11.94   12.54
  -9  -4  -6  180.03   32.08
  -9  -4  -6  174.74   33.83
  -9  -4  -5  362.18   39.10
  -9  -4  -5  445.63   54.06
  -9  -4  -4    5.08    6.64
  -9  -4  -3  546.19   61.19
  -9  -4  -2  269.68   42.15
  -9  -4  -1   23.21   18.17
  -9  -4   0  132.76   30.38
  -9  -4   1   55.65   25.55
  -9  -4   1   48.98   16.88
  -9  -4   2   -7.41   13.94
  -9  -4   2   53.89   24.23
  -9  -4   3   57.19   26.84
  -9  -4   3   65.88   26.84
  -9  -4   4   85.72   34.52
  -9  -4   4  111.13   34.35
  -9  -4   5   15.53   32.27
  -9  -4   5   52.90   22.99
  -9  -3 -11  106.25   32.13
  -9  -3 -10   22.56   23.08
  -9  -3 -10   24.20   25.08
  -9  -3  -9   -2.39   20.25
  -9  -3  -9   22.20   21.62
  -9  -3  -8  143.92   30.98
  -9  -3  -8  141.92   39.79
  -9  -3  -7  349.07   44.62
  -9  -3  -7  308.51   48.57
  -9  -3  -6   25.77   14.10
  -9  -3  -6   29.91   14.54
  -9  -3  -5  189.94   28.62
  -9  -3  -5  143.21   32.82
  -9  -3  -4   67.80   17.20
  -9  -3  -4   97.99   27.71
  -9  -3  -3   58.89   13.45
  -9  -3  -3   44.54   24.59
  -9  -3  -2  271.52   49.39
  -9  -3  -1  409.85   55.84
  -9  -3   0   79.00   30.02
  -9  -3   1  136.60   34.46
  -9  -3   2  113.03   34.68
  -9  -3   3    9.66   11.36
  -9  -3   4   34.85   22.31
  -9  -3   5  104.88   37.76
  -9  -3   5   90.22   28.76
  -9  -2 -10   -2.58   19.13
  -9  -2  -9   55.57   24.28
  -9  -2  -9   47.14   25.82
  -9  -2  -8   28.18   21.68
  -9  -2  -8   51.37   31.20
  -9  -2  -7  305.98   47.31
  -9  -2  -7  370.08   58.45
  -9  -2  -6  394.78   46.48
  -9  -2  -6  447.36   63.39
  -9  -2  -5   -1.89    4.03
  -9  -2  -5   12.59   16.60
  -9  -2  -4  328.92   37.48
  -9  -2  -4  260.76   47.50
  -9  -2  -3  189.23   26.67
  -9  -2  -3  139.48   35.67
  -9  -2  -2   58.04   23.13
  -9  -2  -1   36.36   24.81
  -9  -2   0   99.94   32.52
  -9  -2   1   -4.34   21.51
  -9  -2   2  118.60   34.33
  -9  -2   3  332.93   59.46
  -9  -2   4  109.71   39.07
  -9  -1 -10  -20.14   15.94
  -9  -1 -10   40.23   22.86
  -9  -1  -9   28.21   22.42
  -9  -1  -9  -24.78   26.26
  -9  -1  -8  262.99   46.51
  -9  -1  -8  264.19   51.20
  -9  -1  -7   32.02   18.30
  -9  -1  -6  321.24   57.84
  -9  -1  -5  303.30   52.82
  -9  -1  -4   -5.98   24.86
  -9  -1  -3  242.71   47.42
  -9  -1  -2  299.54   54.06
  -9  -1  -1   25.41   21.05
  -9  -1   0   19.51   24.97
  -9  -1   1   58.31   24.28
  -9  -1   2   56.17   34.05
  -9  -1   3  -24.01   22.75
  -9  -1   4  356.20   61.41
  -9   0 -11    8.37    9.55
  -9   0 -11  -38.09   38.50
  -9   0 -10  118.29   39.29
  -9   0 -10  195.37   49.04
  -9   0  -9   47.53   34.96
  -9   0  -8   75.02   37.04
  -9   0  -7   90.58   41.30
  -9   0  -6   15.42   23.27
  -9   0  -5  221.85   44.15
  -9   0  -4  709.11   83.99
  -9   0  -3  221.58   47.99
  -9   0  -2   78.62   35.48
  -9   0  -1   87.78   37.02
  -9   0   0   30.51   18.96
  -9   0   1   16.57   23.65
  -9   0   2  184.40   48.51
  -9   0   3  183.03   44.07
  -9   1 -11  -32.08   20.28
  -9   1 -10   32.87   28.26
  -9   1  -9  239.47   54.88
  -9   1  -8   27.60   33.97
  -9   1  -7  126.58   43.36
  -9   1  -6   61.93   31.86
  -9   1  -5   31.45   21.02
  -9   1  -4   51.59   33.59
  -9   1  -3  247.40   54.39
  -9   1  -2  105.07   38.55
  -9   1  -1    8.37   29.28
  -9   1   0  382.46   63.96
  -9   1   1  193.51   46.92
  -9   1   2  -16.30   22.28
  -9   1   3  161.48   45.44
  -9   2  -9  -88.88   36.19
  -9   2  -8  195.48   52.77
  -9   2  -7  -35.70   33.20
  -9   2  -6  203.28   53.37
  -9   2  -5  372.01   66.49
  -9   2  -4  125.32   36.74
  -9   2  -3   54.88   28.48
  -9   2  -2    8.97   12.43
  -9   2  -1   85.50   35.89
  -9   2   0   18.36   16.30
  -9   2   1  152.26   47.22
  -9   2   2  235.33   51.67
  -9   3  -7  151.80   43.85
  -9   3  -6   52.36   29.14
  -9   3  -5   -8.78   14.32
  -9   3  -4  232.77   52.30
  -9   3  -3   38.66   31.42
  -9   3  -2  -14.95   19.70
  -9   3  -1   20.63   22.94
  -9   3   0  233.13   57.49
  -9   3   1   16.22   26.42
  -9   4  -4   -0.22   23.24
  -9   4  -3   82.32   41.57
  -9   4  -2  103.28   42.56
  -8  -9  -1   97.60   28.04
  -8  -9   0  102.30   29.11
  -8  -8  -5  -18.63   20.28
  -8  -8  -4   -9.91   11.52
  -8  -8  -3  129.52   37.73
  -8  -8  -2  313.91   60.37
  -8  -8  -1    3.24   22.83
  -8  -8  -1   29.99   17.18
  -8  -8   0  385.18   65.17
  -8  -8   0  340.81   49.91
  -8  -8   1   93.46   39.05
  -8  -8   1  139.51   32.19
  -8  -8   2   19.43   14.68
  -8  -8   3   62.21   28.43
  -8  -8   4   37.04   23.65
  -8  -7 -10   47.17   21.10
  -8  -7 -10   71.67   28.87
  -8  -7  -9  -35.81   22.72
  -8  -7  -9    7.57   12.98
  -8  -7  -8  110.01   34.41
  -8  -7  -8  158.11   36.50
  -8  -7  -7   22.64   28.04
  -8  -7  -7    6.15   11.74
  -8  -7  -6   82.24   36.14
  -8  -7  -6   99.77   24.94
  -8  -7  -5   85.06   25.79
  -8  -7  -4  237.74   47.20
  -8  -7  -3   62.40   31.23
  -8  -7  -2  178.66   42.37
  -8  -7  -1  373.51   61.03
  -8  -7  -1  309.83   47.58
  -8  -7   0   27.25   20.96
  -8  -7   0   -5.30    9.99
  -8  -7   1  381.91   60.09
  -8  -7   1  286.20   43.27
  -8  -7   2  216.86   48.24
  -8  -7   2  186.02   34.93
  -8  -7   3    7.33   20.53
  -8  -7   3   70.11   21.07
  -8  -7   4  133.96   38.83
  -8  -7   4  161.81   37.21
  -8  -7   5  138.19   38.50
  -8  -7   5   91.38   27.99
  -8  -6 -10  155.28   38.50
  -8  -6 -10  149.00   42.29
  -8  -6  -9   95.38   29.88
  -8  -6  -9   78.92   30.29
  -8  -6  -8   17.07   15.48
  -8  -6  -8    7.85   10.04
  -8  -6  -7  113.44   38.53
  -8  -6  -7  149.44   31.39
  -8  -6  -6    9.30   15.67
  -8  -6  -6   43.79   21.73
  -8  -6  -5   -0.16   22.80
  -8  -6  -5   21.05   10.13
  -8  -6  -4   96.53   32.82
  -8  -6  -4  108.31   19.89
  -8  -6  -4   70.91   19.40
  -8  -6  -3  292.98   54.99
  -8  -6  -3  226.16   34.25
  -8  -6  -2  -31.39   19.84
  -8  -6  -2    0.08    3.29
  -8  -6  -1  174.79   41.11
  -8  -6  -1  280.57   33.39
  -8  -6  -1  227.70   34.79
  -8  -6  -1  257.74   39.07
  -8  -6   0  541.94   71.62
  -8  -6   0  443.51   45.96
  -8  -6   0  413.96   48.76
  -8  -6   0  416.62   45.17
  -8  -6   1  106.30   32.32
  -8  -6   1  146.69   29.80
  -8  -6   1  110.17   26.70
  -8  -6   2  129.16   33.59
  -8  -6   2  160.80   32.85
  -8  -6   2  140.55   30.40
  -8  -6   3  152.24   41.38
  -8  -6   3  288.72   42.67
  -8  -6   3  200.37   38.55
  -8  -6   4   13.97   14.65
  -8  -6   4   72.03   26.64
  -8  -6   4   18.82   12.21
  -8  -6   4   38.94   21.68
  -8  -6   5  242.60   45.91
  -8  -6   5  210.52   38.77
  -8  -6   5  197.27   41.71
  -8  -6   6   36.69   19.10
  -8  -6   6   44.07   20.20
  -8  -5 -11  112.39   34.77
  -8  -5 -10   -1.21   19.26
  -8  -5 -10    2.17   11.66
  -8  -5  -9   84.79   28.84
  -8  -5  -9   87.59   29.00
  -8  -5  -8   31.36   18.96
  -8  -5  -8    4.34   22.36
  -8  -5  -7   14.95   15.86
  -8  -5  -7   22.23   15.78
  -8  -5  -6  199.49   33.01
  -8  -5  -6  173.89   39.40
  -8  -5  -5  511.37   47.64
  -8  -5  -5  464.09   62.78
  -8  -5  -5  448.04   43.14
  -8  -5  -4   50.87   14.02
  -8  -5  -4   22.39   23.76
  -8  -5  -4   44.37   15.20
  -8  -5  -3  279.07   25.14
  -8  -5  -3  246.14   46.90
  -8  -5  -3  292.68   36.96
  -8  -5  -3  267.98   37.62
  -8  -5  -2  251.43   48.32
  -8  -5  -2  222.48   33.18
  -8  -5  -2  245.01   36.91
  -8  -5  -1   70.80   19.92
  -8  -5  -1   67.72   28.15
  -8  -5  -1   65.55   20.39
  -8  -5  -1   50.57   19.56
  -8  -5   0  167.99   38.11
  -8  -5   0  138.57   28.67
  -8  -5   0  184.95   30.95
  -8  -5   1  379.91   57.05
  -8  -5   1  418.85   49.15
  -8  -5   1  305.57   39.27
  -8  -5   2   52.52   28.02
  -8  -5   2   55.59   20.33
  -8  -5   2   62.04   17.56
  -8  -5   3  162.97   38.94
  -8  -5   3  197.24   40.42
  -8  -5   3  210.30   33.56
  -8  -5   4  234.48   44.75
  -8  -5   4  164.67   40.97
  -8  -5   4  198.83   32.96
  -8  -5   5    1.67   12.98
  -8  -5   5   28.62   17.64
  -8  -5   5    8.12   28.92
  -8  -5   6  -34.55   25.00
  -8  -5   6   -7.41   11.96
  -8  -5   6  -23.32   27.22
  -8  -5   7   31.56   33.15
  -8  -4 -11  184.07   40.83
  -8  -4 -11  151.09   36.22
  -8  -4 -10   34.99   25.57
  -8  -4 -10   12.16   11.31
  -8  -4  -9   43.22   15.83
  -8  -4  -9   -0.14   16.79
  -8  -4  -8   62.78   20.33
  -8  -4  -8   67.80   25.49
  -8  -4  -7  155.12   30.62
  -8  -4  -7  189.91   34.52
  -8  -4  -7  159.07   41.71
  -8  -4  -6  223.14   33.53
  -8  -4  -6  254.40   36.96
  -8  -4  -5   25.24   12.68
  -8  -4  -5   41.82   16.05
  -8  -4  -4  342.42   35.01
  -8  -4  -4  335.29   42.42
  -8  -4  -3    4.42    7.52
  -8  -4  -3    5.84    8.12
  -8  -4  -2  466.29   22.78
  -8  -4  -2  441.70   48.82
  -8  -4  -1  862.50   69.12
  -8  -4   0  179.10   32.57
  -8  -4   0  176.44   26.29
  -8  -4   1  148.64   31.20
  -8  -4   1  162.94   25.27
  -8  -4   2  272.12   45.69
  -8  -4   2  221.14   41.24
  -8  -4   2  213.32   30.68
  -8  -4   3   28.10   19.76
  -8  -4   3   12.81   12.51
  -8  -4   3   -2.25    8.20
  -8  -4   4   -2.50   26.56
  -8  -4   4    3.81   20.58
  -8  -4   4    0.88    9.49
  -8  -4   5   31.61   16.55
  -8  -4   5   37.76   18.99
  -8  -4   5   63.69   18.33
  -8  -4   6   75.87   28.51
  -8  -4   6  133.88   35.62
  -8  -3 -11  -42.26   29.69
  -8  -3 -11   -9.38   11.96
  -8  -3 -10   21.18   23.82
  -8  -3 -10   64.48   27.55
  -8  -3 -10   25.79   16.19
  -8  -3  -9   43.71   22.64
  -8  -3  -8   16.13   14.43
  -8  -3  -8   19.35   11.96
  -8  -3  -7  100.68   25.00
  -8  -3  -7  146.09   31.78
  -8  -3  -6  279.34   38.36
  -8  -3  -6  320.12   45.47
  -8  -3  -5  125.07   26.18
  -8  -3  -5  107.15   27.69
  -8  -3  -4    0.19    5.79
  -8  -3  -4   24.70   18.30
  -8  -3  -3  524.24   37.98
  -8  -3  -3  560.57   58.42
  -8  -3  -2  405.81   28.18
  -8  -3  -2  382.38   50.98
  -8  -3  -1   98.65   27.63
  -8  -3   0 1252.12   61.60
  -8  -3   0 1305.46   91.24
  -8  -3   1   39.02   21.79
  -8  -3   1   33.78   13.20
  -8  -3   2  259.09   28.43
  -8  -3   2  203.14   40.53
  -8  -3   3  113.49   30.60
  -8  -3   3  103.48   19.95
  -8  -3   4   37.46   18.58
  -8  -3   4   10.87   11.25
  -8  -3   5  -15.37   22.03
  -8  -3   5  -23.74   25.19
  -8  -3   6   76.34   28.43
  -8  -3   6   13.83   16.35
  -8  -3   6   53.95   31.25
  -8  -2 -11   60.78   24.34
  -8  -2 -11   41.19   25.24
  -8  -2 -10  -26.45   16.66
  -8  -2 -10    4.01    7.66
  -8  -2  -9   58.61   24.89
  -8  -2  -9   54.06   27.19
  -8  -2  -9   52.58   32.46
  -8  -2  -8  422.96   54.11
  -8  -2  -8  423.37   63.14
  -8  -2  -7  222.57   38.03
  -8  -2  -7  254.40   46.62
  -8  -2  -6   61.05   19.62
  -8  -2  -6   21.98   19.54
  -8  -2  -5  176.88   29.99
  -8  -2  -5  206.07   37.78
  -8  -2  -4    6.06    4.69
  -8  -2  -4  -12.10   16.99
  -8  -2  -3  -12.95   12.43
  -8  -2  -2  658.64   66.49
  -8  -2  -1  482.23   59.30
  -8  -2   0  193.75   14.98
  -8  -2   0  119.58   33.37
  -8  -2   1  635.54   36.99
  -8  -2   1  652.09   70.25
  -8  -2   2  123.26   34.27
  -8  -2   2  161.81   19.76
  -8  -2   3   18.38   14.79
  -8  -2   3   -6.91    6.06
  -8  -2   4  102.49   30.21
  -8  -2   5   78.70   28.95
  -8  -2   6  -30.05   22.91
  -8  -1 -11    7.68   21.92
  -8  -1 -11  -48.95   24.48
  -8  -1 -10   84.35   28.40
  -8  -1 -10   55.65   24.64
  -8  -1 -10   77.27   29.36
  -8  -1  -9  121.07   33.42
  -8  -1  -9  119.47   29.66
  -8  -1  -9  123.78   34.46
  -8  -1  -8  -20.50   20.74
  -8  -1  -8  -16.30   16.30
  -8  -1  -7  275.20   51.70
  -8  -1  -6   22.56   23.68
  -8  -1  -6   58.15    8.09
  -8  -1  -5   35.01   17.70
  -8  -1  -4  871.66   80.54
  -8  -1  -3  725.63   73.62
  -8  -1  -2   55.70   26.12
  -8  -1  -1  165.11   39.18
  -8  -1   0   51.83   11.77
  -8  -1   0    5.46   16.96
  -8  -1   1   77.82   14.10
  -8  -1   1   29.31   23.19
  -8  -1   2  197.73   39.32
  -8  -1   2  191.18   16.03
  -8  -1   3  253.85   49.01
  -8  -1   4   30.49   18.58
  -8  -1   5  138.02   42.61
  -8  -1   6  229.45   49.80
  -8   0 -11   -5.49   12.29
  -8   0 -11   -8.89   17.31
  -8   0 -10  102.60   32.90
  -8   0 -10  101.97   29.75
  -8   0 -10   28.26   26.70
  -8   0  -9  313.09   62.07
  -8   0  -9  316.30   54.22
  -8   0  -8  369.81   60.18
  -8   0  -7   44.26   26.70
  -8   0  -6    6.89   16.82
  -8   0  -5  213.04   46.57
  -8   0  -4  120.63   34.66
  -8   0  -4  108.80   11.25
  -8   0  -3 1174.90   98.76
  -8   0  -3 1276.65   31.31
  -8   0  -2 1041.46   91.18
  -8   0  -1  106.39   31.34
  -8   0   0  421.64   61.47
  -8   0   1   31.28   28.18
  -8   0   2  107.62   35.01
  -8   0   3    0.47   13.53
  -8   0   4   97.30   35.45
  -8   0   5  -25.35   22.50
  -8   1 -12  -28.04   24.89
  -8   1 -11  104.46   48.54
  -8   1 -11  102.35   33.28
  -8   1 -10   57.43   28.46
  -8   1 -10   72.66   36.30
  -8   1  -9   17.75   18.49
  -8   1  -9    0.99   14.95
  -8   1  -8   87.56   39.79
  -8   1  -7   87.53   37.26
  -8   1  -6    0.33   13.36
  -8   1  -5  159.10   42.37
  -8   1  -4  681.91   79.03
  -8   1  -4  694.21   42.18
  -8   1  -3   11.33   24.34
  -8   1  -3    2.66    7.79
  -8   1  -2  655.24   78.15
  -8   1  -2  786.65   44.18
  -8   1  -1   90.52   34.16
  -8   1  -1  203.88   23.85
  -8   1   0   19.40   12.43
  -8   1   0  -14.24   13.17
  -8   1   1  210.74   30.79
  -8   1   1  200.83   43.60
  -8   1   2  157.56   27.47
  -8   1   2  185.80   42.89
  -8   1   3   -1.21   12.40
  -8   1   4   16.74   16.44
  -8   1   5   65.86   28.18
  -8   2 -12   45.63   25.63
  -8   2 -11    4.01   17.15
  -8   2 -10  196.09   49.56
  -8   2 -10  173.20   35.73
  -8   2  -9  145.08   46.40
  -8   2  -9  147.93   32.05
  -8   2  -8   13.61   12.87
  -8   2  -7  129.24   45.30
  -8   2  -6  285.43   57.13
  -8   2  -5   10.24   25.08
  -8   2  -4  424.22   66.19
  -8   2  -3  178.69   47.17
  -8   2  -2   39.93   27.91
  -8   2  -1  151.50   41.32
  -8   2   0  284.69   41.79
  -8   2   0  330.10   61.93
  -8   2   0  371.79   39.65
  -8   2   1   75.65   20.83
  -8   2   1   76.75   24.48
  -8   2   1   75.87   30.71
  -8   2   1   51.12   17.48
  -8   2   2   38.99   15.20
  -8   2   2   36.41   14.93
  -8   2   2   16.66   21.98
  -8   2   2   10.29   11.31
  -8   2   3  190.46   44.34
  -8   2   4   27.36   25.30
  -8   3 -11  117.50   33.59
  -8   3 -10    8.67   14.93
  -8   3  -9  -20.63   25.55
  -8   3  -9  -54.41   22.56
  -8   3  -8  113.88   39.16
  -8   3  -7   34.96   35.95
  -8   3  -6  722.36   89.67
  -8   3  -5  564.69   77.05
  -8   3  -4  -21.81   36.74
  -8   3  -3  125.98   39.10
  -8   3  -3  156.68   29.88
  -8   3  -2  144.69   42.53
  -8   3  -2  103.70   25.24
  -8   3  -1   31.12   21.57
  -8   3  -1   31.89   16.19
  -8   3   0   -9.25   17.67
  -8   3   0  -11.96   11.47
  -8   3   1   79.30   30.18
  -8   3   1  113.52   27.60
  -8   3   2   66.21   34.82
  -8   3   2   59.71   23.10
  -8   3   3   36.63   20.42
  -8   3   3   31.12   14.41
  -8   3   4  151.33   34.55
  -8   4  -8   85.83   42.45
  -8   4  -7  141.54   52.60
  -8   4  -6  113.16   37.89
  -8   4  -5   69.78   34.00
  -8   4  -4  323.71   62.40
  -8   4  -3   38.39   25.35
  -8   4  -3    6.78   13.25
  -8   4  -2  244.13   55.51
  -8   4  -2  161.35   31.58
  -8   4  -1  271.14   56.50
  -8   4  -1  252.09   38.66
  -8   4   0   99.80   35.40
  -8   4   0  114.37   27.69
  -8   4   1  -18.36   16.66
  -8   4   1    2.55   14.82
  -8   4   2  -11.83   21.27
  -8   4   2   17.78   16.66
  -8   4   3   57.35   25.93
  -8   4   4  -13.83   20.11
  -8   4   5  104.99   31.75
  -8   5  -6  250.31   63.55
  -8   5  -5  194.88   49.97
  -8   5  -4   38.36   36.03
  -8   5  -3  128.83   41.05
  -8   5  -3  119.04   32.00
  -8   5  -2   76.78   39.68
  -8   5  -2   48.79   28.02
  -8   5  -1   67.06   29.58
  -8   5  -1   32.46   16.99
  -8   5   0  138.33   43.93
  -8   5   0  119.50   36.80
  -8   5   1   42.48   31.75
  -8   5   1   47.06   19.10
  -8   5   2  -17.42   16.57
  -8   5   3   78.89   27.30
  -8   5   4   84.49   36.55
  -8   6  -3  -12.29   17.78
  -8   6  -2  112.59   32.54
  -8   6  -1  103.09   37.92
  -8   6   0   -6.37   22.20
  -8   6   1   97.49   29.14
  -8   6   2  113.85   37.78
  -8   6   3   22.34   24.28
  -8   7  -3   11.96   22.23
  -8   7  -2   19.54   23.60
  -8   7  -1  -23.46   27.96
  -8   7   0  -40.12   25.60
  -7  -9  -8  194.19   46.21
  -7  -9  -4   21.84   19.70
  -7  -9  -3  173.28   42.70
  -7  -9  -2  105.15   32.93
  -7  -9  -2  144.99   37.37
  -7  -9  -1   -5.76   13.80
  -7  -9  -1    7.57   11.99
  -7  -9   0  141.01   39.38
  -7  -9   0   89.40   28.89
  -7  -9   1  114.84   33.34
  -7  -9   1  151.61   33.94
  -7  -9   2  113.30   33.89
  -7  -8  -9  -33.59   18.49
  -7  -8  -9   -0.16   13.80
  -7  -8  -8  134.18   35.10
  -7  -8  -8   57.90   23.38
  -7  -8  -7  142.96   36.61
  -7  -8  -7  125.51   32.46
  -7  -8  -6   11.25   22.36
  -7  -8  -6   26.21   18.11
  -7  -8  -5   84.21   28.65
  -7  -8  -4  171.31   39.98
  -7  -8  -3   -9.69   19.04
  -7  -8  -2  264.99   50.11
  -7  -8  -2  240.02   42.67
  -7  -8  -1  223.36   48.95
  -7  -8  -1  206.87   37.24
  -7  -8   0   10.02   10.59
  -7  -8   0    7.44   11.33
  -7  -8   1  106.44   33.07
  -7  -8   1  113.60   32.10
  -7  -8   2  119.97   35.64
  -7  -8   2   78.95   24.42
  -7  -8   3  196.91   45.00
  -7  -8   3  127.10   34.00
  -7  -8   4    8.59   23.74
  -7  -8   4   -5.02    8.42
  -7  -8   5  300.39   54.44
  -7  -8   5  235.82   48.35
  -7  -8   6   20.74   17.64
  -7  -7 -10   33.50   21.10
  -7  -7 -10   79.22   29.99
  -7  -7  -9  192.79   42.09
  -7  -7  -9  133.44   33.72
  -7  -7  -8  -57.46   30.90
  -7  -7  -8    2.72    6.91
  -7  -7  -7  205.53   43.68
  -7  -7  -7  291.08   46.21
  -7  -7  -6  195.13   41.19
  -7  -7  -6  156.79   33.48
  -7  -7  -5  124.39   31.56
  -7  -7  -5  120.05   25.79
  -7  -7  -4    7.22   11.58
  -7  -7  -4   27.74   11.63
  -7  -7  -3  193.23   38.94
  -7  -7  -2  -40.97   22.28
  -7  -7  -2  -10.10   10.18
  -7  -7  -1  485.28   64.81
  -7  -7  -1  426.53   51.20
  -7  -7   0  453.20   63.39
  -7  -7   0  501.99   55.57
  -7  -7   1  207.36   43.05
  -7  -7   1  150.48   24.92
  -7  -7   1  201.08   37.81
  -7  -7   2   39.35   18.52
  -7  -7   2   31.58   13.97
  -7  -7   2   25.63   20.11
  -7  -7   3  158.88   39.02
  -7  -7   3  293.44   43.88
  -7  -7   3  262.57   39.95
  -7  -7   4   46.10   28.54
  -7  -7   4   91.76   24.45
  -7  -7   5   45.28   19.51
  -7  -7   5   18.93   13.20
  -7  -7   6   99.22   29.69
  -7  -7   6   75.46   30.07
  -7  -6 -10   26.29   18.00
  -7  -6 -10   86.24   28.73
  -7  -6  -9   78.04   25.22
  -7  -6  -9   56.77   30.43
  -7  -6  -8   80.81   28.13
  -7  -6  -8   43.38   20.03
  -7  -6  -7   14.93   11.91
  -7  -6  -7   19.95   12.92
  -7  -6  -6  203.72   39.51
  -7  -6  -6  279.89   40.80
  -7  -6  -6  218.67   38.20
  -7  -6  -5  563.15   52.27
  -7  -6  -5  569.88   68.71
  -7  -6  -5  474.52   50.93
  -7  -6  -4   38.36   23.13
  -7  -6  -4   58.50   16.44
  -7  -6  -4   45.50   18.85
  -7  -6  -3   69.92   14.46
  -7  -6  -3   68.74   26.45
  -7  -6  -3   88.85    9.52
  -7  -6  -3  115.08   22.42
  -7  -6  -2  142.99   38.83
  -7  -6  -2  160.41   19.43
  -7  -6  -2  162.45   30.87
  -7  -6  -2  161.65   26.40
  -7  -6  -1  109.29   33.12
  -7  -6  -1  138.63   21.57
  -7  -6  -1  151.22   30.60
  -7  -6  -1  139.31   23.60
  -7  -6   0   -1.04    9.52
  -7  -6   0    8.37   16.08
  -7  -6   0    6.91    7.88
  -7  -6   0   13.28   16.16
  -7  -6   1  506.63   64.10
  -7  -6   1  337.98   43.55
  -7  -6   1  425.68   42.31
  -7  -6   1  385.34   40.04
  -7  -6   2  502.24   66.08
  -7  -6   2  420.44   44.75
  -7  -6   2  353.57   44.43
  -7  -6   3  127.16   33.37
  -7  -6   3  165.00   30.73
  -7  -6   4  676.21   74.58
  -7  -6   4  604.34   60.37
  -7  -6   4  661.00   68.00
  -7  -6   5   16.22   13.09
  -7  -6   5   43.52   20.14
  -7  -6   5    8.26   13.50
  -7  -6   6   32.96   20.80
  -7  -6   6   28.92   15.12
  -7  -6   6   37.43   20.44
  -7  -6   7   92.14   29.36
  -7  -6   7   49.01   21.92
  -7  -5 -11   81.09   28.76
  -7  -5 -10  194.08   45.93
  -7  -5 -10  220.18   56.53
  -7  -5 -10  207.80   41.38
  -7  -5  -9   38.14   19.67
  -7  -5  -9   19.54   19.73
  -7  -5  -8   56.61   21.76
  -7  -5  -8   25.66   16.05
  -7  -5  -7  291.36   47.53
  -7  -5  -7  292.24   41.87
  -7  -5  -6  190.16   39.13
  -7  -5  -6  207.12   31.97
  -7  -5  -6  218.45   35.92
  -7  -5  -5   88.96   22.83
  -7  -5  -5   65.09   24.12
  -7  -5  -5   93.19   17.07
  -7  -5  -5   68.52   20.99
  -7  -5  -4  434.73   58.83
  -7  -5  -4  382.10   36.88
  -7  -5  -4  429.82   35.48
  -7  -5  -4  455.34   47.77
  -7  -5  -3   20.25    7.85
  -7  -5  -3   50.19   12.32
  -7  -5  -3   41.93   15.20
  -7  -5  -2  281.34   46.35
  -7  -5  -2  270.67   32.10
  -7  -5  -2  280.79   35.48
  -7  -5  -1  245.45   42.97
  -7  -5  -1  243.34   34.68
  -7  -5  -1  231.92   29.25
  -7  -5  -1  229.67   31.61
  -7  -5   0  730.40   73.62
  -7  -5   0  609.66   52.27
  -7  -5   0  636.31   54.44
  -7  -5   0  606.01   50.90
  -7  -5   1  150.15   33.64
  -7  -5   1  203.74   31.31
  -7  -5   1  149.74   26.75
  -7  -5   2  670.61   72.85
  -7  -5   2  627.80   54.50
  -7  -5   2  627.36   57.93
  -7  -5   3  374.39   53.73
  -7  -5   3  369.59   44.32
  -7  -5   4   48.38   23.82
  -7  -5   4   57.90   19.29
  -7  -5   5  317.59   51.70
  -7  -5   5  331.92   44.21
  -7  -5   5  336.85   51.51
  -7  -5   6   46.43   18.41
  -7  -5   6   18.63   20.55
  -7  -5   6   59.46   22.34
  -7  -5   7   11.83   18.96
  -7  -5   7   37.81   20.44
  -7  -5   7   39.65   26.04
  -7  -5   8  173.86   38.99
  -7  -5   8  133.52   34.93
  -7  -4 -11   56.72   25.46
  -7  -4 -11   16.60   12.51
  -7  -4 -10   -7.11    9.93
  -7  -4 -10    6.70   13.83
  -7  -4  -9  129.54   30.10
  -7  -4  -9  144.91   41.22
  -7  -4  -9  122.88   32.16
  -7  -4  -8   64.02   23.82
  -7  -4  -8   42.94   18.71
  -7  -4  -7   37.10   21.71
  -7  -4  -7   29.03   15.72
  -7  -4  -6  590.87   53.43
  -7  -4  -6  516.78   62.78
  -7  -4  -6  527.70   49.78
  -7  -4  -5  228.88   32.63
  -7  -4  -5  184.70   37.32
  -7  -4  -5  219.66   29.77
  -7  -4  -5  204.48   33.12
  -7  -4  -4  193.78   26.62
  -7  -4  -4  203.00   31.31
  -7  -4  -4  161.05   28.29
  -7  -4  -3  439.45   34.25
  -7  -4  -3  456.11   43.99
  -7  -4  -3  419.20   44.75
  -7  -4  -2  258.18   20.74
  -7  -4  -2  238.67   32.68
  -7  -4  -2  240.32   32.90
  -7  -4  -1   18.80   10.48
  -7  -4  -1    9.25   11.63
  -7  -4  -1    7.57   10.54
  -7  -4   0  405.10   43.47
  -7  -4   0  459.46   42.31
  -7  -4   1  311.39   48.95
  -7  -4   1  333.64   40.83
  -7  -4   1  351.78   36.66
  -7  -4   2   -8.34   17.18
  -7  -4   2   32.43   17.59
  -7  -4   2   27.03   13.06
  -7  -4   3  418.46   55.46
  -7  -4   3  442.47   54.96
  -7  -4   3  370.83   39.46
  -7  -4   4  465.71   58.56
  -7  -4   4  410.86   44.01
  -7  -4   5    7.99   11.85
  -7  -4   5   12.46   13.97
  -7  -4   6  101.72   28.21
  -7  -4   6   72.63   27.36
  -7  -4   6   93.08   22.91
  -7  -4   7   93.65   30.24
  -7  -4   7  107.46   25.30
  -7  -4   7  105.23   37.51
  -7  -4   8    1.13   15.53
  -7  -4   8  -18.58   14.87
  -7  -3 -11  129.71   37.43
  -7  -3 -11  184.01   42.50
  -7  -3 -11  100.73   33.28
  -7  -3 -10  -20.20   21.79
  -7  -3 -10   -2.55   13.50
  -7  -3 -10   22.83   12.43
  -7  -3  -9   77.33   24.06
  -7  -3  -9   65.09   21.27
  -7  -3  -9   45.08   26.56
  -7  -3  -8  336.63   45.80
  -7  -3  -8  358.89   52.16
  -7  -3  -8  361.00   35.89
  -7  -3  -7  645.14   60.51
  -7  -3  -7  635.76   61.25
  -7  -3  -7  579.15   39.18
  -7  -3  -6   -7.55   10.92
  -7  -3  -6   34.33   18.91
  -7  -3  -5  171.99   27.63
  -7  -3  -5  164.59   29.20
  -7  -3  -5  165.66   32.71
  -7  -3  -4   -8.89   14.90
  -7  -3  -4   -7.66    6.64
  -7  -3  -3   12.16    8.20
  -7  -3  -3   22.12   13.56
  -7  -3  -3   25.85   13.42
  -7  -3  -2  454.49   29.11
  -7  -3  -2  423.40   46.92
  -7  -3  -2  436.02   46.13
  -7  -3  -1 1534.31   34.99
  -7  -3  -1 1564.30   89.37
  -7  -3  -1 1436.74   82.07
  -7  -3   0   19.78   15.75
  -7  -3   0    3.43    7.88
  -7  -3   1  903.52   52.33
  -7  -3   1 1051.17   75.93
  -7  -3   2  564.39   42.20
  -7  -3   2  637.49   62.51
  -7  -3   3    5.95   12.18
  -7  -3   3    0.71   11.17
  -7  -3   4   73.76   18.47
  -7  -3   5   64.24   22.67
  -7  -3   5  105.34   22.42
  -7  -3   6   13.91   10.48
  -7  -3   6    7.85   12.76
  -7  -3   6   19.43   12.46
  -7  -3   7   56.03   19.87
  -7  -3   7  124.80   39.95
  -7  -3   7   78.75   20.31
  -7  -3   8   97.93   48.05
  -7  -2 -11  -22.20   20.69
  -7  -2 -11    7.85   15.81
  -7  -2 -11   18.19   12.76
  -7  -2 -10   26.21   18.58
  -7  -2 -10   79.38   27.55
  -7  -2  -9  349.39   49.75
  -7  -2  -9  428.64   59.05
  -7  -2  -9  347.58   39.51
  -7  -2  -8   71.98   25.49
  -7  -2  -8   53.26   24.28
  -7  -2  -8   81.33   30.18
  -7  -2  -8   73.87   18.41
  -7  -2  -7  562.47   56.77
  -7  -2  -7  674.26   68.00
  -7  -2  -7  614.41   40.42
  -7  -2  -6   35.15   19.10
  -7  -2  -6   35.62   20.14
  -7  -2  -6   13.67    5.82
  -7  -2  -5   15.01   11.83
  -7  -2  -5    4.47   14.21
  -7  -2  -4  196.72   26.48
  -7  -2  -4  157.23   34.68
  -7  -2  -4  197.24   32.13
  -7  -2  -3  781.91   66.24
  -7  -2  -3  922.51   69.23
  -7  -2  -2  497.71   58.45
  -7  -2  -2  397.66   48.43
  -7  -2  -2  379.30   44.92
  -7  -2  -1   68.44   23.08
  -7  -2  -1   73.73   22.50
  -7  -2   0 1070.60   34.35
  -7  -2   0  995.99   81.28
  -7  -2   0 1028.02   47.47
  -7  -2   0  929.37   73.29
  -7  -2   1   -2.77   19.62
  -7  -2   1   10.18    7.19
  -7  -2   2 1255.74   55.37
  -7  -2   2 1250.50   90.22
  -7  -2   3  780.97   75.62
  -7  -2   3  821.06   47.55
  -7  -2   4   49.58   22.17
  -7  -2   4   47.47   13.83
  -7  -2   5  122.66   24.53
  -7  -2   6   57.05   17.67
  -7  -2   7   -8.26   10.10
  -7  -2   7   10.45   10.34
  -7  -1 -12  -12.32   16.13
  -7  -1 -11   38.88   20.69
  -7  -1 -11   38.86   24.34
  -7  -1 -10  -16.05   23.98
  -7  -1 -10   -2.94   11.25
  -7  -1  -9  422.30   56.28
  -7  -1  -9  359.66   59.13
  -7  -1  -9  380.37   56.36
  -7  -1  -9  359.90   41.52
  -7  -1  -8  615.92   63.17
  -7  -1  -8  577.94   63.47
  -7  -1  -8  420.41   62.76
  -7  -1  -8  513.93   44.10
  -7  -1  -7  -16.96   11.58
  -7  -1  -7   14.68   19.35
  -7  -1  -7   21.90    9.38
  -7  -1  -6  483.44   61.93
  -7  -1  -6  400.10   28.76
  -7  -1  -5  155.67   36.52
  -7  -1  -5   96.48   10.45
  -7  -1  -4   48.84   18.99
  -7  -1  -4   -6.67   10.15
  -7  -1  -3   49.80   19.84
  -7  -1  -3   34.05   16.08
  -7  -1  -2 1102.41   86.13
  -7  -1  -2 1036.06   80.78
  -7  -1  -2 1100.43   75.32
  -7  -1  -1   95.41   28.48
  -7  -1  -1   78.67   26.81
  -7  -1   0  487.58   33.12
  -7  -1   0  574.62   61.08
  -7  -1   0  480.20   57.62
  -7  -1   1  539.64   58.09
  -7  -1   1  528.22   32.85
  -7  -1   1  505.75   60.26
  -7  -1   1  518.75   26.62
  -7  -1   2  310.90   24.64
  -7  -1   2  363.03   47.72
  -7  -1   2  316.25   48.73
  -7  -1   2  338.61   23.74
  -7  -1   3  234.12   22.09
  -7  -1   3  249.32   44.78
  -7  -1   3  264.14   23.43
  -7  -1   4  469.06   33.48
  -7  -1   4  377.22   57.38
  -7  -1   4  431.28   32.82
  -7  -1   5    9.49   13.14
  -7  -1   5   10.98    8.26
  -7  -1   6  114.45   21.81
  -7  -1   7   22.09   24.72
  -7   0 -12   13.58   11.66
  -7   0 -11   90.20   33.64
  -7   0 -11   86.27   27.41
  -7   0 -10  204.87   42.15
  -7   0 -10  205.00   40.53
  -7   0 -10  237.58   50.08
  -7   0  -9   46.65   24.94
  -7   0  -9   15.37   15.64
  -7   0  -9   23.49   14.65
  -7   0  -8  137.09   31.97
  -7   0  -8  198.25   45.00
  -7   0  -7   99.44   25.85
  -7   0  -7  104.38   37.04
  -7   0  -6   26.75   25.05
  -7   0  -5   91.54   34.82
  -7   0  -4 1510.88  103.92
  -7   0  -3  313.91   48.73
  -7   0  -3  275.94   46.54
  -7   0  -3  283.48   18.93
  -7   0  -2  432.95   54.28
  -7   0  -2  445.22   56.66
  -7   0  -2  424.80   48.98
  -7   0  -2  455.01   23.93
  -7   0  -1  296.63   42.92
  -7   0  -1  295.28   46.59
  -7   0  -1  290.86   22.80
  -7   0   0   84.90   25.38
  -7   0   0   88.11   16.90
  -7   0   0  127.35   32.93
  -7   0   1  271.41   28.70
  -7   0   1  293.88   42.09
  -7   0   1  248.58   46.48
  -7   0   2  533.79   39.95
  -7   0   2  573.55   58.06
  -7   0   2  643.03   69.94
  -7   0   3   72.85   15.75
  -7   0   3   45.47   22.14
  -7   0   3   65.86    9.38
  -7   0   4   53.48   28.51
  -7   0   4   54.33   10.98
  -7   0   5  208.08   45.14
  -7   0   5  152.05   19.54
  -7   0   6   57.05   25.52
  -7   0   7  -19.84   19.46
  -7   0   7  -13.53   23.05
  -7   1 -12   86.77   28.40
  -7   1 -11   -2.74    9.99
  -7   1 -10  446.45   59.93
  -7   1 -10  437.18   69.29
  -7   1  -9  219.36   54.03
  -7   1  -9  265.81   42.64
  -7   1  -8  -13.94   10.56
  -7   1  -8   -9.85   20.99
  -7   1  -7   -7.27    7.11
  -7   1  -7   46.68   27.55
  -7   1  -6  287.49   53.15
  -7   1  -5  552.09   69.51
  -7   1  -4   38.09   17.78
  -7   1  -3  424.09   55.10
  -7   1  -3  325.93   52.58
  -7   1  -3  399.94   32.46
  -7   1  -2   63.61   24.48
  -7   1  -2   71.01   30.65
  -7   1  -2   58.72   15.59
  -7   1  -1 1094.37   81.66
  -7   1  -1  974.95   85.70
  -7   1  -1 1054.39   53.10
  -7   1   0 2055.15  109.27
  -7   1   0 1906.15  120.76
  -7   1   0 2047.69   78.34
  -7   1   1  371.37   45.17
  -7   1   1  382.32   39.95
  -7   1   1  362.46   54.74
  -7   1   2    4.31    9.80
  -7   1   2    3.95    5.54
  -7   1   2   -6.04   13.83
  -7   1   2  -15.06   13.83
  -7   1   3   91.70   23.05
  -7   1   3   81.52   20.03
  -7   1   3   67.61   30.87
  -7   1   4   18.44   13.06
  -7   1   4    4.36   17.45
  -7   1   4   16.00    4.94
  -7   1   5   -8.89   11.25
  -7   1   6   20.11   16.55
  -7   2 -12   46.81   21.27
  -7   2 -11  218.62   44.92
  -7   2 -10   15.78   17.40
  -7   2 -10   11.63   15.17
  -7   2  -9   32.08   38.14
  -7   2  -9   90.61   25.71
  -7   2  -8  119.45   43.47
  -7   2  -8  132.65   27.71
  -7   2  -7   12.81    9.52
  -7   2  -7   29.33   30.79
  -7   2  -6   78.42   32.24
  -7   2  -5  547.37   71.81
  -7   2  -4  654.83   76.09
  -7   2  -3  112.89   29.36
  -7   2  -3   31.47   31.83
  -7   2  -2  265.15   44.86
  -7   2  -2  228.49   45.82
  -7   2  -1  174.49   33.50
  -7   2  -1  128.91   38.72
  -7   2   0  176.00   32.85
  -7   2   0  212.36   46.51
  -7   2   1 1271.77   82.76
  -7   2   1 1243.72   79.85
  -7   2   1 1399.22  109.18
  -7   2   1 1410.45   77.55
  -7   2   2  131.14   27.22
  -7   2   2  135.91   25.79
  -7   2   2  140.22   35.48
  -7   2   2  155.45   29.20
  -7   2   3   65.25   19.48
  -7   2   3   46.32   15.12
  -7   2   3   89.54   31.25
  -7   2   3   49.23   20.77
  -7   2   4   44.21   17.12
  -7   2   4   57.62   28.73
  -7   2   5  113.96   35.95
  -7   2   6   62.70   27.22
  -7   3 -12   -7.38   12.24
  -7   3 -11   41.41   27.99
  -7   3 -10  171.94   35.59
  -7   3 -10  159.51   44.59
  -7   3  -9   95.52   41.87
  -7   3  -9   93.21   28.02
  -7   3  -8   -6.59   24.64
  -7   3  -8    3.32    4.58
  -7   3  -7  421.12   70.36
  -7   3  -7  391.93   43.19
  -7   3  -6  226.60   52.82
  -7   3  -5   24.48   25.30
  -7   3  -4  234.78   51.75
  -7   3  -3   40.23   26.78
  -7   3  -2   16.33   14.38
  -7   3  -2    4.80   22.75
  -7   3  -2   13.56   11.47
  -7   3  -1  700.60   66.49
  -7   3  -1  740.03   81.94
  -7   3  -1  679.94   56.06
  -7   3   0  668.58   63.85
  -7   3   0  648.90   60.45
  -7   3   0  739.92   86.11
  -7   3   0  678.87   58.75
  -7   3   1   -8.51    7.66
  -7   3   1   -8.23    7.30
  -7   3   1    4.28   13.09
  -7   3   1  -21.05   13.42
  -7   3   2   53.62   15.61
  -7   3   2   59.02   23.85
  -7   3   2   61.41   18.77
  -7   3   3   29.09   20.83
  -7   3   3   60.89   19.67
  -7   3   4   11.58   15.56
  -7   3   4    0.58   10.78
  -7   3   5   28.78   21.21
  -7   4 -11  -24.23   18.60
  -7   4 -10   -3.79   11.63
  -7   4  -9   51.31   39.84
  -7   4  -9   58.17   22.58
  -7   4  -8  191.81   30.49
  -7   4  -8  196.94   48.46
  -7   4  -7  -41.11   24.83
  -7   4  -6  407.18   65.75
  -7   4  -5  361.88   64.51
  -7   4  -4   15.97   26.42
  -7   4  -3  428.37   66.30
  -7   4  -2  359.88   51.45
  -7   4  -2  329.39   62.29
  -7   4  -2  302.91   40.69
  -7   4  -1   39.90   16.55
  -7   4  -1   34.52   23.38
  -7   4  -1   25.44   15.78
  -7   4   0  186.24   33.31
  -7   4   0  187.09   48.24
  -7   4   0  196.39   34.96
  -7   4   1   21.87   16.55
  -7   4   1   20.14   23.87
  -7   4   1   63.52   25.46
  -7   4   2   14.57   23.52
  -7   4   2    0.55    8.84
  -7   4   3   78.09   34.57
  -7   4   3   54.47   20.11
  -7   4   4  208.82   54.63
  -7   4   4  124.58   35.51
  -7   4   5   77.85   33.59
  -7   4   5   73.24   32.10
  -7   5  -8  108.53   44.73
  -7   5  -7  248.25   59.90
  -7   5  -6  135.36   41.76
  -7   5  -5   24.01   28.07
  -7   5  -4  304.01   60.12
  -7   5  -3    8.95   27.22
  -7   5  -2  645.03   83.09
  -7   5  -2  584.47   64.24
  -7   5  -1  411.71   50.90
  -7   5  -1  545.87   78.92
  -7   5  -1  374.97   51.64
  -7   5   0  -24.17   22.72
  -7   5   0    8.15   11.85
  -7   5   1   64.26   35.59
  -7   5   1   74.44   24.97
  -7   5   2   -5.27   18.00
  -7   5   2   37.59   20.83
  -7   5   3   38.31   33.81
  -7   5   3   23.63   16.35
  -7   5   4    4.36   15.39
  -7   5   5   58.47   26.64
  -7   6  -6  -16.08   22.45
  -7   6  -5   17.51   32.76
  -7   6  -4   72.66   37.26
  -7   6  -3  378.89   71.92
  -7   6  -2   21.65   19.21
  -7   6  -2   22.42   14.79
  -7   6  -1  149.38   42.18
  -7   6  -1   94.59   30.73
  -7   6   0   14.79   19.67
  -7   6   0    3.43   11.94
  -7   6   1    3.79   11.28
  -7   6   1   26.84   22.34
  -7   6   2  100.46   41.13
  -7   6   2   75.95   29.17
  -7   6   3  176.49   41.74
  -7   6   4   95.16   33.53
  -7   7  -4    0.71    9.38
  -7   7  -3  126.66   45.74
  -7   7  -2   63.58   29.06
  -7   7  -2  145.65   40.34
  -7   7  -1   24.94   37.98
  -7   7  -1   27.93   15.92
  -7   7   0   17.23   20.36
  -7   7   1   63.33   32.71
  -7   7   2   43.08   26.29
  -7   8  -3   21.79   25.88
  -7   8  -2   11.22   15.28
  -6  -9  -9   43.55   26.48
  -6  -9  -8   -0.16   16.41
  -6  -9  -8   33.26   23.93
  -6  -9  -7   58.17   26.84
  -6  -9  -7   72.94   26.70
  -6  -9  -6   27.25   17.51
  -6  -9  -5  120.90   41.96
  -6  -9  -4  315.62   55.51
  -6  -9  -3  164.15   37.18
  -6  -9  -2   31.47   20.39
  -6  -9  -2    8.78   10.40
  -6  -9  -1  345.91   55.81
  -6  -9  -1  262.38   46.92
  -6  -9   0    5.10    8.86
  -6  -9   0   37.02   22.03
  -6  -9   1   45.72   20.42
  -6  -9   1  112.09   30.84
  -6  -9   2  100.84   30.27
  -6  -9   2   54.96   24.92
  -6  -9   3   49.67   26.73
  -6  -9   3  100.27   31.25
  -6  -9   4   47.09   23.21
  -6  -9   4  -47.80   27.99
  -6  -9   5  404.60   60.18
  -6  -9   6  128.61   34.57
  -6  -8 -10   -2.06   15.06
  -6  -8  -9  147.85   35.32
  -6  -8  -9  146.15   40.12
  -6  -8  -8   83.66   27.60
  -6  -8  -8   40.89   21.71
  -6  -8  -7   29.75   18.60
  -6  -8  -7   39.57   21.40
  -6  -8  -6  113.14   34.33
  -6  -8  -6  177.15   35.23
  -6  -8  -5   86.55   32.63
  -6  -8  -5  150.78   33.86
  -6  -8  -4  -16.85   16.30
  -6  -8  -3  445.96   61.60
  -6  -8  -2   61.88   23.68
  -6  -8  -2  101.99   26.21
  -6  -8  -1  439.56   62.26
  -6  -8  -1  444.34   54.17
  -6  -8   0  427.68   60.07
  -6  -8   0  460.64   55.13
  -6  -8   1   -2.33   16.13
  -6  -8   1   -3.29    8.75
  -6  -8   2    2.63    6.23
  -6  -8   2   30.68   19.62
  -6  -8   3   58.86   25.46
  -6  -8   3   69.07   30.60
  -6  -8   4  213.73   43.55
  -6  -8   4  195.62   38.39
  -6  -8   5   -4.42   18.66
  -6  -8   5   38.55   18.00
  -6  -8   6  211.40   48.43
  -6  -8   7   92.34   29.53
  -6  -7 -10   51.59   22.80
  -6  -7 -10   72.41   32.76
  -6  -7  -9   -2.03   12.65
  -6  -7  -9   23.60   21.18
  -6  -7  -8   27.22   19.04
  -6  -7  -8   32.49   18.03
  -6  -7  -7   12.16   16.49
  -6  -7  -7  -21.73   18.19
  -6  -7  -6   42.39   19.51
  -6  -7  -6   25.03   12.70
  -6  -7  -6   30.51   13.99
  -6  -7  -5  668.80   71.32
  -6  -7  -5  651.07   59.65
  -6  -7  -5  624.59   52.25
  -6  -7  -4  940.18   84.68
  -6  -7  -4  877.15   64.32
  -6  -7  -4  873.09   57.27
  -6  -7  -3   24.06   19.35
  -6  -7  -3   10.21   11.06
  -6  -7  -2  430.89   57.95
  -6  -7  -2  510.82   55.21
  -6  -7  -2  501.99   37.62
  -6  -7  -1   17.12   18.85
  -6  -7  -1    5.87    7.35
  -6  -7  -1   15.67    9.99
  -6  -7   0  249.90   45.85
  -6  -7   0  293.36   27.19
  -6  -7   0  295.26   24.64
  -6  -7   0  240.92   38.86
  -6  -7   0  243.23   25.60
  -6  -7   1  496.20   61.44
  -6  -7   1  453.15   51.18
  -6  -7   1  445.24   40.39
  -6  -7   1  528.99   39.65
  -6  -7   1  437.83   35.18
  -6  -7   2  220.51   43.55
  -6  -7   2  121.97   29.88
  -6  -7   3   25.35   14.95
  -6  -7   3  -10.78   14.76
  -6  -7   3    7.99   14.46
  -6  -7   4  178.85   39.76
  -6  -7   4  193.48   38.55
  -6  -7   4  163.08   28.78
  -6  -7   5  153.86   36.77
  -6  -7   5  177.45   31.69
  -6  -7   5  113.38   32.82
  -6  -7   6   74.58   25.44
  -6  -7   6   64.84   30.57
  -6  -7   7   41.54   21.46
  -6  -7   7   82.02   29.61
  -6  -6 -10   64.18   33.42
  -6  -6 -10  133.33   34.33
  -6  -6  -9   55.87   26.51
  -6  -6  -9   33.67   27.08
  -6  -6  -9    4.45   17.07
  -6  -6  -8   25.57   17.84
  -6  -6  -8   22.86   22.20
  -6  -6  -7  160.17   33.42
  -6  -6  -7  147.57   30.68
  -6  -6  -7  175.56   36.14
  -6  -6  -6  199.43   39.02
  -6  -6  -6  212.93   35.07
  -6  -6  -6  182.15   32.60
  -6  -6  -5    4.83   16.30
  -6  -6  -5   22.06   16.35
  -6  -6  -5    3.13    7.77
  -6  -6  -4  695.85   69.12
  -6  -6  -4  711.22   54.99
  -6  -6  -4  710.20   53.40
  -6  -6  -3  460.23   59.13
  -6  -6  -3  583.18   45.22
  -6  -6  -3  469.23   40.97
  -6  -6  -2   61.00   20.66
  -6  -6  -2   29.99   17.97
  -6  -6  -2   46.68   13.23
  -6  -6  -1  251.43   43.30
  -6  -6  -1  225.58   20.94
  -6  -6  -1  202.86   33.59
  -6  -6  -1  226.98   26.37
  -6  -6   0  265.62   44.54
  -6  -6   0  238.23   26.01
  -6  -6   0  243.78   36.25
  -6  -6   0  295.15   31.25
  -6  -6   1   -5.82    7.55
  -6  -6   1  -16.55   15.75
  -6  -6   1    8.09    6.50
  -6  -6   1   -4.99   11.28
  -6  -6   2  493.45   58.75
  -6  -6   2  516.12   51.37
  -6  -6   3  535.58   65.14
  -6  -6   3  520.26   53.95
  -6  -6   3  466.84   50.16
  -6  -6   4   21.84   13.06
  -6  -6   4    8.04   10.48
  -6  -6   4   11.11   10.56
  -6  -6   5  104.22   28.95
  -6  -6   5  159.95   31.94
  -6  -6   5  115.80   30.35
  -6  -6   6  141.48   32.19
  -6  -6   6  166.95   33.86
  -6  -6   6  136.13   35.15
  -6  -6   7   39.49   20.14
  -6  -6   7   19.67   17.01
  -6  -6   7   39.93   20.31
  -6  -6   8   22.09   24.26
  -6  -6   8   54.19   26.56
  -6  -5 -11   67.26   28.67
  -6  -5 -10  -12.32   16.52
  -6  -5 -10   -6.31   10.54
  -6  -5 -10  -20.69   21.43
  -6  -5  -9   29.72   23.63
  -6  -5  -9   47.28   22.20
  -6  -5  -9   20.47   19.24
  -6  -5  -9  -10.54   11.09
  -6  -5  -8   46.43   17.81
  -6  -5  -8   36.11   16.57
  -6  -5  -8   48.29   28.89
  -6  -5  -7    1.51    4.28
  -6  -5  -7    2.66    8.18
  -6  -5  -6  585.00   61.99
  -6  -5  -6  647.70   58.69
  -6  -5  -6  671.65   59.60
  -6  -5  -5 1105.73   70.99
  -6  -5  -5 1041.08   83.86
  -6  -5  -5  955.00   67.09
  -6  -5  -4  159.54   25.22
  -6  -5  -4  151.44   27.25
  -6  -5  -3  648.13   66.32
  -6  -5  -3  502.21   57.16
  -6  -5  -3  571.63   42.29
  -6  -5  -3  597.37   33.37
  -6  -5  -3  512.03   44.21
  -6  -5  -2  156.35   19.51
  -6  -5  -2  126.31   31.23
  -6  -5  -2  144.39   19.62
  -6  -5  -2  153.12   27.11
  -6  -5  -2  178.63   24.94
  -6  -5  -1   56.17   24.09
  -6  -5  -1   35.78   14.49
  -6  -5  -1   49.97   15.31
  -6  -5  -1   48.13   14.41
  -6  -5   0   43.38   13.50
  -6  -5   0    5.08   18.06
  -6  -5   0   41.68   14.19
  -6  -5   0   59.02   16.05
  -6  -5   1  728.59   69.07
  -6  -5   1  651.98   50.19
  -6  -5   1  574.38   49.91
  -6  -5   2   30.38   18.55
  -6  -5   2   35.29   13.75
  -6  -5   3  363.33   49.67
  -6  -5   3  333.34   39.93
  -6  -5   4  638.01   64.40
  -6  -5   4  730.56   60.70
  -6  -5   4  607.63   60.42
  -6  -5   5  127.62   28.62
  -6  -5   5  105.04   31.12
  -6  -5   5  182.37   32.27
  -6  -5   6  155.67   32.49
  -6  -5   6  146.37   34.96
  -6  -5   6  190.63   34.90
  -6  -5   7  275.80   41.87
  -6  -5   7  253.19   41.16
  -6  -5   7  237.88   48.43
  -6  -5   8  -17.23   16.49
  -6  -5   8   -8.29   18.74
  -6  -5   9   77.19   24.56
  -6  -5   9   53.07   31.09
  -6  -4 -11  157.20   38.14
  -6  -4 -11   87.40   35.97
  -6  -4 -11   79.41   24.26
  -6  -4 -10  -28.07   16.63
  -6  -4 -10  -24.67   12.65
  -6  -4 -10    3.95   20.14
  -6  -4  -9   -8.04    8.73
  -6  -4  -9   -0.66   10.67
  -6  -4  -9   18.60   22.56
  -6  -4  -9  -11.28   11.63
  -6  -4  -8   61.74   21.87
  -6  -4  -8   48.24   20.61
  -6  -4  -8   47.06   25.11
  -6  -4  -8   79.30   21.16
  -6  -4  -7 1429.90   93.30
  -6  -4  -7 1626.73   94.61
  -6  -4  -7 1559.23  103.50
  -6  -4  -7 1489.91   72.88
  -6  -4  -7 1487.97   93.93
  -6  -4  -6  178.61   35.59
  -6  -4  -6  218.42   34.03
  -6  -4  -6  234.17   35.89
  -6  -4  -5  531.05   58.64
  -6  -4  -5  584.53   49.75
  -6  -4  -5  622.42   65.28
  -6  -4  -5  596.85   44.86
  -6  -4  -5  532.28   50.05
  -6  -4  -4  270.37   31.67
  -6  -4  -4  304.94   45.55
  -6  -4  -4  244.66   39.16
  -6  -4  -4  280.03   30.92
  -6  -4  -4  228.47   32.32
  -6  -4  -3  183.55   23.21
  -6  -4  -3  156.11   32.02
  -6  -4  -3  222.84   37.02
  -6  -4  -3  162.25   22.67
  -6  -4  -3  181.10   27.17
  -6  -4  -2  946.38   77.68
  -6  -4  -2  906.18   41.60
  -6  -4  -2  853.69   72.83
  -6  -4  -2  908.57   53.26
  -6  -4  -2  806.77   54.83
  -6  -4  -1  421.23   52.96
  -6  -4  -1  482.31   56.33
  -6  -4  -1  510.96   42.59
  -6  -4  -1  492.93   42.56
  -6  -4  -1  501.22   42.81
  -6  -4   0   61.60   22.17
  -6  -4   0   59.79   24.97
  -6  -4   0   44.43   14.41
  -6  -4   0   59.79   16.44
  -6  -4   1  116.84   31.39
  -6  -4   1  131.33   23.49
  -6  -4   1  121.70   21.90
  -6  -4   2  395.99   50.35
  -6  -4   2  404.74   39.27
  -6  -4   3  373.32   49.17
  -6  -4   3  470.13   42.64
  -6  -4   4   -0.11   11.03
  -6  -4   4   30.29   14.76
  -6  -4   5  485.58   55.29
  -6  -4   5  538.48   51.37
  -6  -4   5  458.30   57.62
  -6  -4   6  113.19   25.88
  -6  -4   6  103.37   28.62
  -6  -4   6  101.72   24.01
  -6  -4   7  214.66   36.71
  -6  -4   7  190.19   33.59
  -6  -4   7  145.79   42.29
  -6  -4   8  265.10   51.12
  -6  -4   8  242.90   41.27
  -6  -4   9   28.40   21.81
  -6  -4   9   17.67   14.30
  -6  -3 -12   77.68   28.92
  -6  -3 -11   18.47   13.42
  -6  -3 -11   19.54   10.62
  -6  -3 -11    6.34   18.69
  -6  -3 -10   -0.14   16.41
  -6  -3 -10  -15.72   11.17
  -6  -3 -10   15.01   13.77
  -6  -3 -10   -5.19   13.67
  -6  -3  -9  148.48   34.49
  -6  -3  -9  206.10   35.70
  -6  -3  -9  201.03   44.81
  -6  -3  -9  192.41   31.06
  -6  -3  -8   21.71   16.05
  -6  -3  -8   21.13   11.74
  -6  -3  -8   19.84   18.36
  -6  -3  -8    8.92    7.11
  -6  -3  -7  563.67   54.80
  -6  -3  -7  692.12   67.31
  -6  -3  -7  599.73   45.30
  -6  -3  -6  688.99   71.34
  -6  -3  -6  854.76   62.87
  -6  -3  -6  735.92   58.97
  -6  -3  -6  781.11   64.54
  -6  -3  -6  821.14   44.81
  -6  -3  -5  203.52   38.20
  -6  -3  -5  190.16   28.54
  -6  -3  -5  173.04   28.04
  -6  -3  -5  191.92   32.19
  -6  -3  -4  451.91   38.94
  -6  -3  -4  476.44   56.22
  -6  -3  -4  404.99   40.86
  -6  -3  -4  401.31   42.31
  -6  -3  -3  923.00   76.20
  -6  -3  -3  888.29   47.47
  -6  -3  -3  936.58   60.31
  -6  -3  -3  862.28   59.30
  -6  -3  -2  240.54   21.21
  -6  -3  -2  229.89   37.18
  -6  -3  -2  178.31   27.88
  -6  -3  -2  212.63   29.69
  -6  -3  -1  393.66   19.26
  -6  -3  -1  397.30   49.25
  -6  -3  -1  381.03   34.30
  -6  -3  -1  370.52   38.99
  -6  -3  -1  376.51   38.80
  -6  -3   0  595.45   59.05
  -6  -3   0  482.89   46.02
  -6  -3   0  524.63   38.72
  -6  -3   1    0.30   13.28
  -6  -3   1   -2.30   11.17
  -6  -3   1    8.09    7.41
  -6  -3   2  236.78   27.19
  -6  -3   2  260.35   37.18
  -6  -3   3  397.96   36.66
  -6  -3   4  670.66   63.00
  -6  -3   4  599.46   47.99
  -6  -3   5  -17.75   13.94
  -6  -3   5   -3.57    6.34
  -6  -3   6  534.15   54.88
  -6  -3   6  538.87   50.49
  -6  -3   6  476.36   62.29
  -6  -3   7   76.91   22.34
  -6  -3   7   66.02   22.39
  -6  -3   7   43.52   25.24
  -6  -3   8   26.67   18.93
  -6  -3   8   80.89   35.04
  -6  -3   9   48.51   22.97
  -6  -3   9   91.38   32.27
  -6  -3  10   13.25   12.46
  -6  -2 -12   25.44   14.74
  -6  -2 -12  -15.28   12.70
  -6  -2 -11   71.95   27.85
  -6  -2 -11   16.66   14.05
  -6  -2 -11   37.76   25.57
  -6  -2 -10  -33.75   24.42
  -6  -2 -10   57.40   28.57
  -6  -2 -10   25.05   10.98
  -6  -2  -9  217.96   40.28
  -6  -2  -9  169.39   35.97
  -6  -2  -9  225.97   33.12
  -6  -2  -8  892.87   73.90
  -6  -2  -8  856.38   77.44
  -6  -2  -8  925.50   61.93
  -6  -2  -7  204.54   35.95
  -6  -2  -7  257.03   41.68
  -6  -2  -7  273.61   46.07
  -6  -2  -7  254.92   29.17
  -6  -2  -6  558.71   64.73
  -6  -2  -6  502.18   49.06
  -6  -2  -6  472.71   52.52
  -6  -2  -6  539.14   55.70
  -6  -2  -6  566.23   36.52
  -6  -2  -6  579.53   56.09
  -6  -2  -5  120.74   22.28
  -6  -2  -5  106.88   28.57
  -6  -2  -5  158.36   32.05
  -6  -2  -5  137.56   14.60
  -6  -2  -5  151.83   27.80
  -6  -2  -4    3.95    7.13
  -6  -2  -4   34.44   15.01
  -6  -2  -4    8.09   16.88
  -6  -2  -4   11.36    9.47
  -6  -2  -3   37.40   20.44
  -6  -2  -3   32.57   15.31
  -6  -2  -3   31.01   13.91
  -6  -2  -2 1651.12   97.63
  -6  -2  -2 1526.66   81.61
  -6  -2  -2 1477.54   77.30
  -6  -2  -1  647.81   60.75
  -6  -2  -1  530.22   49.50
  -6  -2   0  227.18   35.70
  -6  -2   0  228.16   14.35
  -6  -2   0  225.34   34.14
  -6  -2   0  191.56   20.61
  -6  -2   1  923.36   71.76
  -6  -2   1  774.44   41.57
  -6  -2   1  831.68   64.40
  -6  -2   2  473.89   52.14
  -6  -2   2  463.44   33.89
  -6  -2   2  435.31   48.54
  -6  -2   3   13.72    9.60
  -6  -2   4  807.70   50.74
  -6  -2   5  172.85   25.66
  -6  -2   6   93.90   24.31
  -6  -2   6  123.81   36.63
  -6  -2   6  103.15   23.02
  -6  -2   7  183.38   30.73
  -6  -2   7  147.35   27.00
  -6  -2   7  125.76   40.80
  -6  -2   8   49.06   20.39
  -6  -2   8   37.10   28.92
  -6  -2   9   13.50   11.22
  -6  -2  10   73.70   22.64
  -6  -1 -12   26.84   24.59
  -6  -1 -12   42.64   21.60
  -6  -1 -11   16.24   22.06
  -6  -1 -11  -16.71   17.26
  -6  -1 -10  259.20   44.65
  -6  -1 -10  208.41   43.38
  -6  -1 -10  208.22   33.86
  -6  -1  -9  248.72   46.59
  -6  -1  -9  199.41   39.90
  -6  -1  -9  207.83   32.35
  -6  -1  -8  449.11   55.04
  -6  -1  -8  402.98   56.25
  -6  -1  -8  335.07   49.86
  -6  -1  -8  425.68   41.54
  -6  -1  -7  718.88   70.91
  -6  -1  -7  656.17   61.99
  -6  -1  -7  685.84   47.17
  -6  -1  -6    3.02   15.15
  -6  -1  -6  -17.42   11.77
  -6  -1  -6    4.91   18.41
  -6  -1  -6   32.43   13.12
  -6  -1  -6    8.37    4.99
  -6  -1  -5  232.31   42.89
  -6  -1  -5  273.93   41.19
  -6  -1  -5  314.74   39.98
  -6  -1  -5  287.98   23.21
  -6  -1  -4 1521.83   98.46
  -6  -1  -4 1429.88   88.14
  -6  -1  -4 1612.87   86.57
  -6  -1  -4 1524.16   37.70
  -6  -1  -3  351.67   47.86
  -6  -1  -3  317.76   41.76
  -6  -1  -3  317.18   37.76
  -6  -1  -2    4.83    5.90
  -6  -1  -2   -8.07    8.04
  -6  -1  -2   17.29   13.01
  -6  -1  -1  101.89   23.90
  -6  -1  -1   95.52   26.86
  -6  -1   0  312.16   40.94
  -6  -1   0  325.38   42.50
  -6  -1   1   54.06   16.82
  -6  -1   1   60.37   10.02
  -6  -1   1   57.79   22.94
  -6  -1   1   60.29   10.40
  -6  -1   2 1424.58   85.34
  -6  -1   2 1322.04   47.42
  -6  -1   2 1402.68   88.91
  -6  -1   2 1305.46   47.69
  -6  -1   3 1063.71   45.08
  -6  -1   3 1196.11   50.63
  -6  -1   3 1142.93   86.16
  -6  -1   4  116.57   16.44
  -6  -1   4  120.05   19.04
  -6  -1   5  883.30   51.89
  -6  -1   6  133.19   23.46
  -6  -1   7   -3.79   11.14
  -6  -1   7  -26.75   27.91
  -6  -1   8   19.24   17.34
  -6   0 -12   42.34   29.61
  -6   0 -12   79.93   33.28
  -6   0 -11  154.41   38.28
  -6   0 -11  100.46   29.69
  -6   0 -10   37.35   21.60
  -6   0 -10   -8.81   15.64
  -6   0  -9  545.87   62.07
  -6   0  -9  555.44   70.38
  -6   0  -8  156.02   31.61
  -6   0  -8  189.80   44.40
  -6   0  -7   11.25   25.03
  -6   0  -7   -7.55   11.58
  -6   0  -6  690.39   72.06
  -6   0  -6  802.65   74.91
  -6   0  -6  694.56   60.01
  -6   0  -6  770.24   66.82
  -6   0  -5  312.08   46.21
  -6   0  -5  302.20   46.18
  -6   0  -5  332.93   42.18
  -6   0  -4  406.31   50.57
  -6   0  -4  351.10   48.93
  -6   0  -4  370.00   43.16
  -6   0  -3 1423.48   91.65
  -6   0  -3 1117.11   80.43
  -6   0  -3 1283.54   77.08
  -6   0  -2  189.45   31.53
  -6   0  -2  127.10   26.26
  -6   0  -2  142.25   31.72
  -6   0  -2  141.43   14.16
  -6   0  -1    4.69    5.84
  -6   0  -1   21.40   19.02
  -6   0  -1   10.04    6.17
  -6   0   0  219.88   33.01
  -6   0   0  163.52   34.35
  -6   0   0  163.49   18.82
  -6   0   1 1014.10   52.25
  -6   0   1 1097.55   73.62
  -6   0   1 1093.60   79.47
  -6   0   2  281.67   36.58
  -6   0   2  239.52   26.40
  -6   0   2  254.23   16.33
  -6   0   2  211.70   41.74
  -6   0   3  538.46   39.73
  -6   0   3  636.91   67.17
  -6   0   3  625.80   31.94
  -6   0   4  500.97   32.87
  -6   0   4  479.73   60.89
  -6   0   5  118.43   19.04
  -6   0   6  410.48   42.48
  -6   0   7  114.40   38.96
  -6   0   8    1.95   19.51
  -6   1 -12    0.52   20.00
  -6   1 -12    9.63   13.09
  -6   1 -11  302.28   55.46
  -6   1 -11  323.99   53.23
  -6   1 -10  165.19   35.59
  -6   1  -9    6.64   15.94
  -6   1  -9   36.14   16.16
  -6   1  -8  114.81   29.58
  -6   1  -8  135.77   40.20
  -6   1  -7  100.49   25.88
  -6   1  -7  127.27   35.81
  -6   1  -6   25.88   11.74
  -6   1  -6   10.54   22.01
  -6   1  -5 1110.58   87.64
  -6   1  -5 1200.26   92.28
  -6   1  -5 1229.34   81.06
  -6   1  -4 1470.51   97.91
  -6   1  -4 1225.45   91.90
  -6   1  -4 1443.16   85.26
  -6   1  -3    1.40   12.18
  -6   1  -3    3.35    9.11
  -6   1  -3  -15.12   23.41
  -6   1  -2  220.34   37.26
  -6   1  -2  209.89   40.31
  -6   1  -2  295.09   38.22
  -6   1  -2  205.66   23.27
  -6   1  -1  334.30   43.33
  -6   1  -1  326.65   49.23
  -6   1  -1  310.18   28.07
  -6   1   0    9.80   11.61
  -6   1   0   -8.95   18.19
  -6   1   0   -4.58    8.53
  -6   1   1  797.90   61.44
  -6   1   1  651.59   67.61
  -6   1   1  767.20   50.33
  -6   1   2  974.53   66.68
  -6   1   2 1022.80   83.36
  -6   1   3   11.42    8.48
  -6   1   3   20.00   23.32
  -6   1   3    7.93    4.99
  -6   1   4  322.89   36.77
  -6   1   4  289.19   22.50
  -6   1   4  300.39   52.25
  -6   1   5  134.04   25.27
  -6   1   5  270.72   49.91
  -6   1   6   -1.37    6.31
  -6   1   6   26.64   20.09
  -6   1   7   57.10   35.95
  -6   1   8   42.42   25.93
  -6   2 -12   72.41   28.67
  -6   2 -11   41.79   18.80
  -6   2 -10  283.79   47.64
  -6   2 -10  292.68   58.67
  -6   2  -9  198.50   51.67
  -6   2  -9  125.54   28.04
  -6   2  -8   54.30   22.39
  -6   2  -8   44.04   16.60
  -6   2  -7  350.71   41.76
  -6   2  -7  356.61   57.35
  -6   2  -6  484.13   66.43
  -6   2  -6  496.61   46.90
  -6   2  -5   -1.37    7.00
  -6   2  -5  -23.79   25.05
  -6   2  -5    4.69    6.53
  -6   2  -4  149.00   32.79
  -6   2  -4  143.68   37.29
  -6   2  -4  155.72   30.35
  -6   2  -3  408.67   50.43
  -6   2  -3  359.79   55.29
  -6   2  -3  359.52   43.14
  -6   2  -2  288.78   41.08
  -6   2  -2  224.21   42.61
  -6   2  -2  293.83   38.72
  -6   2  -1  221.50   34.93
  -6   2  -1  219.90   41.19
  -6   2   0 1564.58   86.88
  -6   2   0 1535.44  104.30
  -6   2   1    6.89    7.24
  -6   2   1   -1.48    3.87
  -6   2   1   17.56   21.65
  -6   2   2 1004.25   64.87
  -6   2   2  966.58   66.49
  -6   2   2 1175.64   92.53
  -6   2   2  941.99   64.68
  -6   2   3  511.24   50.33
  -6   2   3  517.16   46.65
  -6   2   3  536.23   18.60
  -6   2   3  519.74   65.20
  -6   2   3  566.23   19.46
  -6   2   3  467.36   48.98
  -6   2   4   22.97   14.87
  -6   2   4   -8.59   17.04
  -6   2   4    7.16    5.19
  -6   2   4   -0.19   14.54
  -6   2   5   33.50   15.01
  -6   2   5   27.60   21.92
  -6   2   6   46.70   20.85
  -6   2   7  -18.38   18.03
  -6   2   7   -3.43   27.08
  -6   3 -12   58.72   30.65
  -6   3 -11  114.15   35.89
  -6   3 -10   31.67   19.65
  -6   3 -10   15.50   20.42
  -6   3  -9   67.89   24.23
  -6   3  -9   61.44   26.48
  -6   3  -8  210.33   33.53
  -6   3  -8  245.18   55.79
  -6   3  -7   72.44   22.12
  -6   3  -7   65.39   30.05
  -6   3  -6 1094.61  101.89
  -6   3  -6 1151.47   66.68
  -6   3  -5  359.99   62.10
  -6   3  -4    9.14    9.80
  -6   3  -4   20.47   23.21
  -6   3  -3   -1.89   14.05
  -6   3  -3  -17.73   12.95
  -6   3  -3   -0.69   14.08
  -6   3  -2  468.18   52.25
  -6   3  -2  445.11   61.30
  -6   3  -2  540.51   53.51
  -6   3  -1  671.57   60.64
  -6   3  -1  729.41   75.76
  -6   3  -1  607.99   52.36
  -6   3   0   75.32   20.25
  -6   3   0   69.26   27.14
  -6   3   0   93.30   22.91
  -6   3   1  581.76   57.38
  -6   3   1  660.02   53.48
  -6   3   1  588.43   70.71
  -6   3   1  640.34   56.06
  -6   3   2   -3.79    4.09
  -6   3   2   13.06   15.12
  -6   3   2  -10.43   19.32
  -6   3   2   10.73   13.34
  -6   3   3  723.10   51.48
  -6   3   3  787.78   66.13
  -6   3   3  757.90   19.89
  -6   3   3  788.22   82.90
  -6   3   3  762.37   66.02
  -6   3   4  552.45   28.95
  -6   3   4  462.67   56.42
  -6   3   5  110.80   36.00
  -6   3   5  104.85   29.22
  -6   3   6   15.61   16.66
  -6   3   7   29.44   24.17
  -6   3   7  -12.05   22.61
  -6   4 -12  -18.63   25.30
  -6   4 -11   11.47   11.96
  -6   4 -10  130.94   42.09
  -6   4 -10  107.13   30.71
  -6   4  -9   41.38   16.41
  -6   4  -9   31.17   23.41
  -6   4  -8  174.71   47.66
  -6   4  -8  231.37   34.60
  -6   4  -7  519.99   77.27
  -6   4  -7  574.92   49.47
  -6   4  -6   62.81   35.84
  -6   4  -6   47.97   14.38
  -6   4  -5  199.71   49.64
  -6   4  -4  169.22   45.39
  -6   4  -3   45.50   17.56
  -6   4  -3   -8.15   16.90
  -6   4  -2  230.72   38.88
  -6   4  -2  213.76   44.29
  -6   4  -1  807.95   67.48
  -6   4  -1  875.01   87.73
  -6   4  -1  758.14   61.85
  -6   4   0  305.87   39.46
  -6   4   0  300.61   51.01
  -6   4   0  262.30   39.18
  -6   4   1   46.15   14.71
  -6   4   1   37.62   23.35
  -6   4   1   50.54   19.76
  -6   4   2  237.74   29.42
  -6   4   2  210.25   43.96
  -6   4   2  234.97   38.36
  -6   4   3   96.31   18.28
  -6   4   3   87.89   32.02
  -6   4   3   49.25   19.04
  -6   4   4   41.52   28.92
  -6   4   4   40.12   20.25
  -6   4   5  127.32   34.66
  -6   4   5  149.44   36.63
  -6   4   6    3.73   12.24
  -6   4   6    6.12    9.49
  -6   5 -10   19.48   14.43
  -6   5  -9   60.07   38.14
  -6   5  -9  100.65   25.05
  -6   5  -8   76.34   32.76
  -6   5  -8   18.03   10.45
  -6   5  -7  116.02   42.81
  -6   5  -7   95.22   20.00
  -6   5  -6  377.63   67.26
  -6   5  -5  153.44   43.93
  -6   5  -4   33.09   21.18
  -6   5  -3  583.82   64.26
  -6   5  -3  654.80   84.79
  -6   5  -2  169.94   32.96
  -6   5  -2  237.80   47.09
  -6   5  -1  214.58   36.22
  -6   5  -1  193.95   45.00
  -6   5  -1  151.77   31.45
  -6   5   0  350.68   41.79
  -6   5   0  390.25   62.32
  -6   5   0  335.89   46.57
  -6   5   1   29.75   12.38
  -6   5   1   23.54   27.33
  -6   5   1  -19.48   20.33
  -6   5   2   84.82   33.37
  -6   5   2   95.49   30.65
  -6   5   3  321.63   55.98
  -6   5   3  205.20   42.37
  -6   5   4   90.88   30.82
  -6   5   4  102.71   33.45
  -6   5   5   32.65   22.42
  -6   5   5   24.81   19.70
  -6   5   6   31.25   21.90
  -6   5   6    8.18   20.22
  -6   6  -8  137.17   45.30
  -6   6  -7  -27.14   27.63
  -6   6  -6  -28.78   35.21
  -6   6  -5    0.19   32.13
  -6   6  -4  288.34   60.86
  -6   6  -3   36.39   30.68
  -6   6  -2  421.51   55.68
  -6   6  -2  466.81   73.02
  -6   6  -1  204.65   34.74
  -6   6  -1  238.56   49.89
  -6   6  -1  173.42   37.62
  -6   6   0  125.21   40.20
  -6   6   0   36.14   22.50
  -6   6   1  309.63   63.55
  -6   6   1  285.84   48.90
  -6   6   2   85.67   34.63
  -6   6   2   75.38   28.84
  -6   6   3    0.77   23.65
  -6   6   3    9.25   16.08
  -6   6   4   28.70   35.59
  -6   6   4   -0.60   15.12
  -6   6   5   43.57   27.49
  -6   6   5   40.14   21.16
  -6   7  -7  215.43   51.09
  -6   7  -6   32.57   29.20
  -6   7  -5   -5.49   27.03
  -6   7  -4  146.20   43.66
  -6   7  -3  250.39   58.06
  -6   7  -2   -8.95   24.48
  -6   7  -1  162.53   44.43
  -6   7  -1  143.87   36.11
  -6   7   0  109.49   35.95
  -6   7   0  129.24   34.60
  -6   7   1   36.50   32.32
  -6   7   1   18.58   32.10
  -6   7   2  220.15   55.54
  -6   7   2  234.75   45.66
  -6   7   3   65.66   31.31
  -6   7   3   78.31   29.77
  -6   7   4   -7.05   19.26
  -6   8  -4   14.76   37.68
  -6   8  -3  142.77   52.27
  -6   8  -2   52.68   35.18
  -6   8  -2   29.99   21.95
  -6   8  -1   -5.10   36.69
  -6   8  -1    9.41   15.23
  -6   8   0   81.36   33.92
  -6   8   0  119.25   37.87
  -6   8   1  130.51   49.25
  -6   8   1   49.47   29.88
  -5 -10  -5  106.14   34.99
  -5 -10  -4  111.79   34.05
  -5 -10  -3  143.98   39.93
  -5 -10  -2   39.32   21.62
  -5 -10  -2   40.39   26.23
  -5 -10  -1  112.07   35.40
  -5 -10  -1  179.07   38.22
  -5 -10   0  229.04   49.25
  -5 -10   0  231.07   45.85
  -5 -10   1   85.23   28.10
  -5 -10   1   71.67   31.58
  -5 -10   2  339.38   64.05
  -5 -10   2  331.39   51.75
  -5 -10   3   91.68   35.64
  -5  -9  -9   96.48   30.84
  -5  -9  -8  139.81   37.37
  -5  -9  -8   59.41   26.64
  -5  -9  -7   35.48   24.01
  -5  -9  -7   74.44   27.74
  -5  -9  -6  130.40   34.99
  -5  -9  -5  -10.65   10.51
  -5  -9  -4    8.20   19.40
  -5  -9  -3   98.76   34.79
  -5  -9  -2  217.98   45.36
  -5  -9  -2  238.51   42.75
  -5  -9  -1   32.52   17.26
  -5  -9  -1   20.09   20.09
  -5  -9   0  396.76   60.56
  -5  -9   0  377.49   53.92
  -5  -9   1  473.12   64.13
  -5  -9   1  508.93   60.26
  -5  -9   2   35.23   19.67
  -5  -9   2   30.10   16.60
  -5  -9   3  221.69   43.90
  -5  -9   3  165.16   37.70
  -5  -9   4  166.15   38.77
  -5  -9   4  220.48   46.26
  -5  -9   5   79.38   28.32
  -5  -9   6  217.46   44.26
  -5  -9   7  104.88   33.31
  -5  -8  -9    1.34   10.43
  -5  -8  -9   17.62   20.44
  -5  -8  -8   67.86   29.66
  -5  -8  -8   69.34   27.03
  -5  -8  -7   -6.56   12.95
  -5  -8  -7    3.95    9.74
  -5  -8  -6   25.27   14.16
  -5  -8  -6   40.25   18.22
  -5  -8  -5  189.78   37.29
  -5  -8  -5  183.11   37.70
  -5  -8  -4  525.26   62.84
  -5  -8  -3   22.42   13.06
  -5  -8  -2  330.74   51.34
  -5  -8  -2  409.87   52.00
  -5  -8  -1  308.04   48.40
  -5  -8  -1  283.24   43.79
  -5  -8   0  -38.58   23.49
  -5  -8   0   20.28   14.16
  -5  -8   1   90.06   31.17
  -5  -8   1  109.27   29.85
  -5  -8   2  288.89   46.92
  -5  -8   2  368.66   48.49
  -5  -8   3   18.91   20.44
  -5  -8   3   53.40   19.21
  -5  -8   4  193.75   40.34
  -5  -8   4  150.87   33.45
  -5  -8   5  324.59   49.94
  -5  -8   5  338.58   55.07
  -5  -8   6   80.51   27.71
  -5  -8   6   -5.43    7.49
  -5  -8   7   21.79   19.29
  -5  -7 -10   92.83   38.03
  -5  -7 -10  133.85   47.55
  -5  -7 -10  177.95   35.15
  -5  -7  -9  104.08   30.71
  -5  -7  -9  166.23   41.38
  -5  -7  -9  103.31   28.37
  -5  -7  -8  -14.93   15.45
  -5  -7  -8   17.86   12.81
  -5  -7  -7   59.24   24.89
  -5  -7  -7  106.93   27.41
  -5  -7  -7   59.13   19.92
  -5  -7  -7  112.07   28.92
  -5  -7  -6  112.01   31.39
  -5  -7  -6  128.89   28.84
  -5  -7  -6   78.26   25.74
  -5  -7  -6  114.97   23.24
  -5  -7  -5  100.81   31.42
  -5  -7  -5  152.76   30.76
  -5  -7  -5  176.93   32.57
  -5  -7  -5  123.84   22.86
  -5  -7  -4    2.61   13.14
  -5  -7  -4   35.18   15.70
  -5  -7  -4   52.22   17.18
  -5  -7  -4   57.57   13.86
  -5  -7  -3  805.64   75.38
  -5  -7  -3  845.79   46.40
  -5  -7  -2  -22.56   16.66
  -5  -7  -2   -9.66    9.14
  -5  -7  -2   23.10    7.19
  -5  -7  -1  881.76   70.77
  -5  -7  -1  929.37   39.07
  -5  -7   0  734.32   70.74
  -5  -7   0  687.48   33.15
  -5  -7   0  686.08   29.88
  -5  -7   0  698.98   61.88
  -5  -7   0  708.42   33.75
  -5  -7   1    6.23   14.87
  -5  -7   1    7.16   10.43
  -5  -7   1   18.44    7.63
  -5  -7   1   18.28    6.12
  -5  -7   1   21.46   16.11
  -5  -7   2  159.51   32.85
  -5  -7   2  138.54   26.12
  -5  -7   2  128.94   29.58
  -5  -7   2  100.40   17.51
  -5  -7   3  330.76   51.20
  -5  -7   3  347.97   46.73
  -5  -7   3  324.86   42.45
  -5  -7   3  349.56   34.85
  -5  -7   4  -10.29   14.19
  -5  -7   4    0.82   17.45
  -5  -7   4   19.07   14.68
  -5  -7   5   97.58   26.75
  -5  -7   5   35.21   18.03
  -5  -7   5   56.14   16.99
  -5  -7   6   94.01   26.62
  -5  -7   6  111.19   30.43
  -5  -7   7  207.86   40.50
  -5  -7   7  147.71   34.41
  -5  -7   7  139.64   32.38
  -5  -6 -11  264.36   56.83
  -5  -6 -10   38.99   20.94
  -5  -6 -10    8.04   20.31
  -5  -6 -10   16.66   12.29
  -5  -6  -9  102.05   32.57
  -5  -6  -9   70.30   30.65
  -5  -6  -9   48.57   16.90
  -5  -6  -8    7.08   16.60
  -5  -6  -8   -6.59   12.07
  -5  -6  -8  -14.49   10.59
  -5  -6  -8    3.76   18.33
  -5  -6  -7    0.11    8.53
  -5  -6  -7   24.42   17.95
  -5  -6  -7   42.89   16.38
  -5  -6  -7   15.72   15.61
  -5  -6  -6   49.06   22.42
  -5  -6  -6  125.70   32.00
  -5  -6  -6   82.92   24.39
  -5  -6  -6  123.81   24.70
  -5  -6  -5  604.56   61.27
  -5  -6  -5  714.13   61.41
  -5  -6  -5  771.37   68.46
  -5  -6  -5  755.97   55.46
  -5  -6  -4  140.93   32.24
  -5  -6  -4  142.44   25.33
  -5  -6  -4  138.24   31.64
  -5  -6  -4  149.69   23.76
  -5  -6  -3  348.54   45.66
  -5  -6  -3  342.92   36.25
  -5  -6  -3  353.51   46.10
  -5  -6  -3  355.73   32.08
  -5  -6  -2 1034.13   78.48
  -5  -6  -2  962.98   77.11
  -5  -6  -2  933.92   67.69
  -5  -6  -2  943.94   47.99
  -5  -6  -1  860.88   73.90
  -5  -6  -1  841.86   63.96
  -5  -6  -1  939.74   45.82
  -5  -6   0   37.15   18.85
  -5  -6   0   57.82   12.10
  -5  -6   0   40.80   12.13
  -5  -6   0   31.31   10.29
  -5  -6   0   38.44   18.49
  -5  -6   1  862.39   73.37
  -5  -6   1  910.13   64.95
  -5  -6   1  961.83   47.86
  -5  -6   2   67.20   23.38
  -5  -6   2   91.10   25.03
  -5  -6   3 1235.32   89.37
  -5  -6   3 1320.17   81.58
  -5  -6   4  318.85   45.28
  -5  -6   4  294.54   40.36
  -5  -6   4  291.17   36.99
  -5  -6   5  198.75   35.97
  -5  -6   5  213.87   35.23
  -5  -6   5  229.18   35.56
  -5  -6   6   27.77   17.31
  -5  -6   6    8.34   11.94
  -5  -6   6   33.89   18.93
  -5  -6   7   68.55   20.50
  -5  -6   7   53.81   20.14
  -5  -6   7   95.46   27.39
  -5  -6   8  127.73   38.86
  -5  -6   8  131.79   32.05
  -5  -6   9   22.80   25.05
  -5  -5 -11  209.81   46.68
  -5  -5 -11   80.78   37.87
  -5  -5 -10  112.50   30.92
  -5  -5 -10   72.96   19.54
  -5  -5 -10   45.08   24.64
  -5  -5  -9   26.23   14.93
  -5  -5  -9   -2.14    7.44
  -5  -5  -9  -21.71   22.91
  -5  -5  -9   12.16   15.17
  -5  -5  -8   29.06   20.31
  -5  -5  -8   38.06   24.56
  -5  -5  -8   18.36   17.04
  -5  -5  -8   25.66   20.53
  -5  -5  -8   29.53   15.61
  -5  -5  -7  343.93   45.52
  -5  -5  -7  352.08   48.05
  -5  -5  -7  372.86   47.36
  -5  -5  -7  402.71   53.48
  -5  -5  -7  416.51   50.02
  -5  -5  -6  310.18   44.45
  -5  -5  -6  345.33   44.04
  -5  -5  -6  280.55   45.36
  -5  -5  -6  317.15   40.78
  -5  -5  -5  162.17   33.42
  -5  -5  -5  216.83   35.97
  -5  -5  -5  235.41   32.74
  -5  -5  -5  197.60   29.28
  -5  -5  -4  319.16   44.70
  -5  -5  -4  339.32   44.43
  -5  -5  -4  326.34   35.43
  -5  -5  -4  313.53   33.23
  -5  -5  -3   11.72   14.21
  -5  -5  -3    7.11    7.27
  -5  -5  -3    9.74    8.92
  -5  -5  -3   32.98   13.77
  -5  -5  -2  409.16   32.74
  -5  -5  -2  392.83   47.83
  -5  -5  -2  408.80   48.29
  -5  -5  -2  384.19   41.35
  -5  -5  -2  391.57   19.21
  -5  -5  -2  359.14   31.89
  -5  -5  -1 2156.38  109.98
  -5  -5  -1 1919.32  104.30
  -5  -5  -1 1804.02   55.29
  -5  -5  -1 1947.89   87.86
  -5  -5  -1 1922.45   69.78
  -5  -5   0 1582.80   94.81
  -5  -5   0 1483.63   76.06
  -5  -5   0 1412.23   57.82
  -5  -5   0 1388.47   59.49
  -5  -5   1  -10.18   19.10
  -5  -5   1   -6.86   12.40
  -5  -5   2  497.76   54.94
  -5  -5   2  608.73   49.42
  -5  -5   3   43.99   20.20
  -5  -5   3   43.60   14.16
  -5  -5   4  431.03   49.45
  -5  -5   4  479.38   48.05
  -5  -5   4  452.19   48.16
  -5  -5   5  313.09   42.97
  -5  -5   5  347.97   42.72
  -5  -5   5  269.35   42.07
  -5  -5   6  198.56   33.12
  -5  -5   6  184.32   33.72
  -5  -5   6  169.39   34.90
  -5  -5   7   18.93   10.43
  -5  -5   7   14.54   19.37
  -5  -5   8  184.62   32.10
  -5  -5   8  192.30   42.78
  -5  -5   8  236.53   41.19
  -5  -5   9  125.57   33.15
  -5  -5   9   99.55   31.75
  -5  -5  10  -32.41   27.88
  -5  -4 -12  180.56   44.51
  -5  -4 -11   22.69   17.23
  -5  -4 -11  -12.51   20.09
  -5  -4 -10  -33.92   18.36
  -5  -4 -10    4.72   11.33
  -5  -4 -10   -1.98   20.69
  -5  -4  -9   47.61   18.74
  -5  -4  -9   89.32   22.20
  -5  -4  -9   28.65   27.19
  -5  -4  -9   74.58   21.92
  -5  -4  -8  171.09   36.36
  -5  -4  -8  105.70   28.54
  -5  -4  -8  150.54   27.80
  -5  -4  -8  119.20   32.76
  -5  -4  -8  118.27   24.70
  -5  -4  -7   72.72   23.30
  -5  -4  -7   91.24   24.86
  -5  -4  -7  107.73   27.71
  -5  -4  -7   89.81   30.21
  -5  -4  -7   87.78   25.66
  -5  -4  -7   73.68   19.37
  -5  -4  -6  771.86   65.03
  -5  -4  -6  769.12   60.81
  -5  -4  -6  757.07   69.89
  -5  -4  -6  868.01   72.03
  -5  -4  -6  871.47   64.15
  -5  -4  -6  857.97   54.25
  -5  -4  -5  252.86   38.11
  -5  -4  -5  237.14   32.27
  -5  -4  -5  247.70   39.32
  -5  -4  -5  273.80   34.63
  -5  -4  -4  288.97   39.27
  -5  -4  -4  291.63   43.90
  -5  -4  -4  347.53   35.10
  -5  -4  -4  252.06   23.98
  -5  -4  -4  293.36   32.98
  -5  -4  -3 1413.80   88.06
  -5  -4  -3 1307.36   81.99
  -5  -4  -3 1390.86   61.63
  -5  -4  -3 1368.19   51.23
  -5  -4  -3 1354.41   65.91
  -5  -4  -2  668.60   59.33
  -5  -4  -2  747.47   39.51
  -5  -4  -2  676.40   59.79
  -5  -4  -2  744.70   51.01
  -5  -4  -2  745.03   40.01
  -5  -4  -2  745.66   46.68
  -5  -4  -1   50.33   12.51
  -5  -4  -1   72.14   10.32
  -5  -4  -1   77.44   20.91
  -5  -4  -1   63.52   13.56
  -5  -4  -1   65.83   18.11
  -5  -4   0  973.82   71.21
  -5  -4   0  985.62   73.13
  -5  -4   0  990.42   56.72
  -5  -4   0  982.00   51.86
  -5  -4   1   39.35   17.01
  -5  -4   1   53.40   15.75
  -5  -4   2  209.64   27.60
  -5  -4   2  257.99   35.89
  -5  -4   3  329.91   42.56
  -5  -4   3  384.55   38.00
  -5  -4   4  658.12   58.37
  -5  -4   4  694.89   53.10
  -5  -4   5  142.72   27.63
  -5  -4   5  213.13   32.16
  -5  -4   5  162.56   34.63
  -5  -4   6  660.35   58.50
  -5  -4   6  635.29   56.75
  -5  -4   6  557.47   64.46
  -5  -4   7  229.32   34.60
  -5  -4   7  142.00   36.25
  -5  -4   7  188.54   33.01
  -5  -4   8    1.29    4.34
  -5  -4   8   19.13   11.55
  -5  -4   9   80.40   30.43
  -5  -4   9   64.46   29.03
  -5  -4  10   68.98   25.05
  -5  -4  10  113.52   40.42
  -5  -3 -12   31.36   25.33
  -5  -3 -12   40.01   30.24
  -5  -3 -11   53.78   26.51
  -5  -3 -11   75.27   30.57
  -5  -3 -11   38.03   16.16
  -5  -3 -10   10.45   15.78
  -5  -3 -10   11.69    7.74
  -5  -3 -10   -8.37   15.37
  -5  -3  -9  -13.64   16.03
  -5  -3  -9   41.32   14.32
  -5  -3  -9   28.07   24.78
  -5  -3  -9   48.05   17.97
  -5  -3  -8  502.48   54.69
  -5  -3  -8  429.79   46.62
  -5  -3  -8  429.38   58.47
  -5  -3  -8  480.86   58.20
  -5  -3  -8  466.98   47.47
  -5  -3  -7  597.73   63.06
  -5  -3  -7  643.41   58.28
  -5  -3  -7  487.83   50.05
  -5  -3  -7  550.75   59.33
  -5  -3  -7  572.67   46.79
  -5  -3  -7  627.86   58.64
  -5  -3  -6    8.48   13.94
  -5  -3  -6   -6.04    8.34
  -5  -3  -6    2.58   15.70
  -5  -3  -6   -7.74   13.36
  -5  -3  -6    4.01   12.02
  -5  -3  -6    3.32    6.42
  -5  -3  -5  821.39   56.01
  -5  -3  -5  790.38   68.33
  -5  -3  -5  740.36   61.08
  -5  -3  -5  829.21   54.00
  -5  -3  -5  706.53   40.58
  -5  -3  -5  757.51   57.35
  -5  -3  -4  784.26   66.68
  -5  -3  -4  742.91   48.35
  -5  -3  -4  673.87   45.99
  -5  -3  -4  721.89   52.74
  -5  -3  -3  -18.91   16.57
  -5  -3  -3   -6.01    8.37
  -5  -3  -3    0.05   10.29
  -5  -3  -3    8.92    9.99
  -5  -3  -2 2789.42   70.74
  -5  -3  -2 2775.34   87.89
  -5  -3  -2 2704.25   91.16
  -5  -3  -1  966.77   31.64
  -5  -3  -1  968.50   50.82
  -5  -3  -1  919.13   51.09
  -5  -3  -1  940.87   53.34
  -5  -3   0  950.25   54.30
  -5  -3   0 1066.62   52.33
  -5  -3   1 1113.41   74.77
  -5  -3   1 1087.53   53.51
  -5  -3   1 1107.10   63.25
  -5  -3   2   26.18   10.76
  -5  -3   3  198.09   30.82
  -5  -3   3  171.53   23.79
  -5  -3   4   71.07   20.85
  -5  -3   4  109.21   21.35
  -5  -3   5  644.62   55.76
  -5  -3   5  642.51   50.85
  -5  -3   5  546.33   60.37
  -5  -3   6   55.65   19.87
  -5  -3   6   35.59   25.00
  -5  -3   6   67.86   17.48
  -5  -3   7  250.28   34.99
  -5  -3   7  298.90   39.87
  -5  -3   7  310.32   54.99
  -5  -3   8  407.05   40.86
  -5  -3   8  412.45   48.65
  -5  -3   8  416.73   61.90
  -5  -3   9    2.36    5.73
  -5  -3   9  -13.83   15.81
  -5  -3  10   90.17   33.45
  -5  -3  10   25.77   16.30
  -5  -2 -12   21.02   23.16
  -5  -2 -12   27.82   20.91
  -5  -2 -11   -4.83   19.04
  -5  -2 -11  -12.54   16.22
  -5  -2 -10  126.53   35.34
  -5  -2 -10  123.26   24.39
  -5  -2 -10   95.66   37.98
  -5  -2  -9  236.86   46.65
  -5  -2  -9  172.32   29.00
  -5  -2  -9  211.67   41.76
  -5  -2  -9  210.58   33.89
  -5  -2  -8   57.02   21.87
  -5  -2  -8   33.28   24.61
  -5  -2  -8   59.30   25.57
  -5  -2  -8   46.18   17.81
  -5  -2  -7  288.94   44.43
  -5  -2  -7  352.06   43.77
  -5  -2  -7  284.09   42.78
  -5  -2  -7  371.13   36.88
  -5  -2  -7  427.82   48.10
  -5  -2  -6   38.94   18.36
  -5  -2  -6   32.98   15.23
  -5  -2  -6   19.73   17.42
  -5  -2  -6   22.61   14.90
  -5  -2  -6   33.70   10.65
  -5  -2  -6   47.75   16.85
  -5  -2  -5   12.13   11.50
  -5  -2  -5    8.37   14.93
  -5  -2  -5   -2.52   11.44
  -5  -2  -5   14.24   15.20
  -5  -2  -5    8.37   10.24
  -5  -2  -5   -1.18    2.47
  -5  -2  -4 1753.37   72.74
  -5  -2  -4 1696.73   80.48
  -5  -2  -4 1729.14   81.44
  -5  -2  -4 1780.04   46.62
  -5  -2  -3 5137.88  110.61
  -5  -2  -3 5275.68  135.53
  -5  -2  -3 5382.29  135.61
  -5  -2  -2  164.89   24.64
  -5  -2  -2  157.07   18.14
  -5  -2  -2  163.46   25.93
  -5  -2  -1 1273.25   50.90
  -5  -2  -1 1265.07   64.87
  -5  -2   0    5.38   10.76
  -5  -2   0    9.47    2.66
  -5  -2   0    3.40    6.78
  -5  -2   0    2.11    7.35
  -5  -2   1  369.07   42.67
  -5  -2   1  407.62   29.20
  -5  -2   1  371.43   39.32
  -5  -2   2  803.03   42.75
  -5  -2   3 1023.95   51.89
  -5  -2   4   47.75   13.72
  -5  -2   5  111.35   20.63
  -5  -2   6  466.37   45.00
  -5  -2   6  481.38   44.62
  -5  -2   6  407.43   56.11
  -5  -2   7   54.30   16.77
  -5  -2   7    7.08   23.87
  -5  -2   8   44.56   13.31
  -5  -2   8    9.30   14.46
  -5  -2   9  208.60   49.15
  -5  -1 -12   16.68   18.93
  -5  -1 -12  -28.13   26.81
  -5  -1 -11   92.36   28.07
  -5  -1 -11   57.57   25.11
  -5  -1 -10    6.97   10.98
  -5  -1 -10   -9.66   10.89
  -5  -1  -9  701.12   68.93
  -5  -1  -9  671.18   69.12
  -5  -1  -9  720.66   60.15
  -5  -1  -8  580.00   58.20
  -5  -1  -8  484.65   62.87
  -5  -1  -8  481.11   55.76
  -5  -1  -8  472.27   44.34
  -5  -1  -7   18.22   16.82
  -5  -1  -7    3.95   12.38
  -5  -1  -7   -6.56   15.31
  -5  -1  -7    2.80    9.82
  -5  -1  -7   -7.19    7.55
  -5  -1  -7    6.04   18.14
  -5  -1  -6  294.73   43.16
  -5  -1  -6  254.12   39.07
  -5  -1  -6  275.83   37.40
  -5  -1  -6  268.53   27.30
  -5  -1  -6  250.77   35.26
  -5  -1  -5  941.69   73.62
  -5  -1  -5  769.64   62.37
  -5  -1  -5  838.71   61.03
  -5  -1  -5  756.66   58.37
  -5  -1  -5  758.31   39.32
  -5  -1  -4   12.70   15.28
  -5  -1  -4    4.01   11.03
  -5  -1  -4    5.79    3.43
  -5  -1  -3 1568.20   80.37
  -5  -1  -3 1588.29   30.51
  -5  -1  -3 1564.58   75.32
  -5  -1  -2 1133.08   67.01
  -5  -1  -2 1126.31   62.97
  -5  -1  -1   -1.95   12.18
  -5  -1  -1    7.96   10.89
  -5  -1   0  553.60   50.27
  -5  -1   0  542.00   26.84
  -5  -1   0  572.70   49.12
  -5  -1   1 1665.59   84.43
  -5  -1   1 1596.99   46.76
  -5  -1   1 1566.91   47.28
  -5  -1   1 1651.26   82.81
  -5  -1   2  303.02   37.32
  -5  -1   2  248.88   19.59
  -5  -1   2  318.85   23.65
  -5  -1   2  284.61   38.58
  -5  -1   3   43.03    9.85
  -5  -1   3   59.19   13.45
  -5  -1   4  746.78   40.80
  -5  -1   4  783.61   44.97
  -5  -1   6  430.56   60.97
  -5  -1   7  320.14   57.21
  -5  -1   8   82.13   18.88
  -5  -1   8  115.33   41.71
  -5  -1   9  -43.00   28.24
  -5   0 -12  -21.10   24.15
  -5   0 -12  -12.27   13.03
  -5   0 -11  176.08   38.86
  -5   0 -11  116.13   31.17
  -5   0 -10  408.75   57.65
  -5   0 -10  409.85   58.28
  -5   0  -9   45.36   25.08
  -5   0  -9   42.34   22.20
  -5   0  -8   42.31   19.04
  -5   0  -8   64.29   31.67
  -5   0  -7  309.17   48.93
  -5   0  -7  363.55   45.33
  -5   0  -7  451.66   56.17
  -5   0  -7  392.83   47.09
  -5   0  -6    1.78    4.23
  -5   0  -6    7.00   12.95
  -5   0  -6    8.20   19.26
  -5   0  -6   -0.77   10.26
  -5   0  -5 2376.28   98.13
  -5   0  -5 2516.80  118.84
  -5   0  -5 2283.26  100.98
  -5   0  -4 3632.55  112.37
  -5   0  -4 3645.55  136.29
  -5   0  -4 3621.13  121.50
  -5   0  -3  -14.87   15.48
  -5   0  -3   -5.63   11.66
  -5   0  -2  715.31   58.01
  -5   0  -2  588.51   53.43
  -5   0  -2  648.33   48.87
  -5   0  -2  684.82   28.40
  -5   0  -1   23.82    9.99
  -5   0  -1   11.55   17.15
  -5   0  -1   18.58    5.52
  -5   0   0   -3.73    9.08
  -5   0   0   11.14   13.88
  -5   0   0   11.25    6.91
  -5   0   1   16.19    6.20
  -5   0   1    0.69    6.56
  -5   0   1   11.42   13.88
  -5   0   1   11.42    8.23
  -5   0   1    6.09    3.70
  -5   0   2 1538.35   77.55
  -5   0   2 1373.21   56.66
  -5   0   2 1447.44   40.83
  -5   0   2 1549.21   89.02
  -5   0   3  582.22   38.80
  -5   0   3  704.17   34.11
  -5   0   3  587.05   59.13
  -5   0   4  296.93   29.72
  -5   0   6  244.08   31.17
  -5   0   7   60.62   29.28
  -5   0   8  269.46   51.78
  -5   0   9  -26.64   27.08
  -5   1 -13  -14.13   23.05
  -5   1 -12   25.82   24.06
  -5   1 -12   36.30   24.50
  -5   1 -11   13.39   17.81
  -5   1 -11   -0.74   16.22
  -5   1 -10  299.51   48.93
  -5   1  -9  269.38   42.89
  -5   1  -8  283.40   42.09
  -5   1  -8  270.92   48.46
  -5   1  -7   21.05   11.94
  -5   1  -7  -23.05   17.12
  -5   1  -7  -23.65   21.84
  -5   1  -7   14.38   15.75
  -5   1  -6 1378.23   95.46
  -5   1  -6 1492.25   80.62
  -5   1  -6 1399.55   98.62
  -5   1  -6 1376.97   85.09
  -5   1  -5  288.81   42.07
  -5   1  -5  229.29   30.98
  -5   1  -5  330.21   48.62
  -5   1  -5  301.73   38.39
  -5   1  -4 2103.09  108.44
  -5   1  -4 2045.55  109.32
  -5   1  -4 2174.63   82.70
  -5   1  -4 1936.39   90.99
  -5   1  -3  891.86   67.42
  -5   1  -3  974.92   74.91
  -5   1  -3  995.14   63.69
  -5   1  -2   75.62   19.04
  -5   1  -2   68.13   20.83
  -5   1  -2   76.23   24.34
  -5   1  -1 1010.51   66.10
  -5   1  -1  978.65   70.88
  -5   1  -1  906.04   44.97
  -5   1   0 1223.06   69.89
  -5   1   0 1206.40   78.97
  -5   1   0 1132.53   52.30
  -5   1   1  812.72   50.22
  -5   1   1  847.24   56.61
  -5   1   1  768.57   47.42
  -5   1   2   -3.40   10.95
  -5   1   2    0.93    2.99
  -5   1   2    4.94    3.38
  -5   1   3   80.34   17.40
  -5   1   3  114.81   28.43
  -5   1   4  197.32   39.57
  -5   1   5   69.09   17.12
  -5   1   6  693.16   57.38
  -5   1   7  156.24   30.21
  -5   1   7  152.10   46.87
  -5   1   8   38.39   23.93
  -5   1   9  123.34   41.85
  -5   2 -13   35.34   24.78
  -5   2 -12  143.87   36.30
  -5   2 -12  110.12   32.85
  -5   2 -11  186.24   40.09
  -5   2 -10   56.28   20.94
  -5   2  -9   17.04   16.11
  -5   2  -9   53.32   36.47
  -5   2  -8  172.05   46.07
  -5   2  -8  163.54   32.57
  -5   2  -7  111.02   40.61
  -5   2  -7  162.34   27.58
  -5   2  -6  581.89   63.14
  -5   2  -6  416.57   58.83
  -5   2  -6  517.47   47.94
  -5   2  -6  570.37   55.57
  -5   2  -5 1342.34   90.63
  -5   2  -5 1432.48  100.81
  -5   2  -5 1441.51   70.55
  -5   2  -5 1424.17   82.68
  -5   2  -4  469.83   52.33
  -5   2  -4  461.60   36.88
  -5   2  -4  445.82   56.94
  -5   2  -4  440.63   44.78
  -5   2  -3  112.97   24.26
  -5   2  -3  139.42   33.81
  -5   2  -3  183.22   28.24
  -5   2  -2  824.38   62.92
  -5   2  -2  871.20   72.03
  -5   2  -2  876.30   59.76
  -5   2  -1  340.39   38.66
  -5   2  -1  397.74   49.31
  -5   2  -1  384.49   35.15
  -5   2   0   97.47   20.00
  -5   2   0  132.65   32.49
  -5   2   0  108.58   20.74
  -5   2   1  818.10   54.22
  -5   2   1  820.82   69.75
  -5   2   2  145.21   24.83
  -5   2   2  113.99   20.17
  -5   2   2  123.62    8.20
  -5   2   2   98.24   30.54
  -5   2   3  133.17   20.61
  -5   2   3   82.98   19.73
  -5   2   3   84.57   27.66
  -5   2   3  134.65   14.46
  -5   2   3  114.95   25.44
  -5   2   4  649.86   54.11
  -5   2   4  662.10   70.19
  -5   2   4  596.82   55.90
  -5   2   5  544.27   51.97
  -5   2   5  636.61   72.80
  -5   2   5  572.59   59.82
  -5   2   6  -21.54   13.39
  -5   2   6  -10.29   10.21
  -5   2   7  248.22   50.35
  -5   2   8   32.60   20.96
  -5   3 -13   79.99   29.85
  -5   3 -12   12.68   23.71
  -5   3 -11   -5.52   11.91
  -5   3 -10  194.93   38.17
  -5   3  -9  164.67   33.70
  -5   3  -9  207.23   50.71
  -5   3  -8  148.26   34.25
  -5   3  -8  148.07   41.43
  -5   3  -7  998.02   94.59
  -5   3  -7 1014.76   69.26
  -5   3  -6   43.22   14.85
  -5   3  -6   31.72   24.09
  -5   3  -6   30.73   17.97
  -5   3  -5  330.85   45.88
  -5   3  -5  330.93   55.92
  -5   3  -5  362.32   34.44
  -5   3  -5  354.47   42.09
  -5   3  -4  239.39   38.53
  -5   3  -4  222.15   42.61
  -5   3  -4  233.82   23.90
  -5   3  -4  254.51   34.99
  -5   3  -3   64.57   21.60
  -5   3  -3   52.55   22.42
  -5   3  -3   82.27   20.66
  -5   3  -2    7.16   13.01
  -5   3  -2  -21.98   12.46
  -5   3  -2    0.33   15.17
  -5   3  -1 1443.24   81.00
  -5   3  -1 1348.60   93.98
  -5   3   0 1264.63   71.84
  -5   3   0 1270.23   91.13
  -5   3   1   61.96   15.48
  -5   3   1   77.13   22.61
  -5   3   1   57.40   28.81
  -5   3   1   44.75   17.10
  -5   3   2  119.09   19.62
  -5   3   2  156.93   29.31
  -5   3   2  182.97   12.07
  -5   3   2  181.63   38.00
  -5   3   2  157.70   29.17
  -5   3   3  137.12   28.15
  -5   3   3  152.10   20.77
  -5   3   3  142.91   14.65
  -5   3   3  145.60   35.43
  -5   3   3  148.81   29.31
  -5   3   4  106.33   22.36
  -5   3   4   85.45   29.31
  -5   3   4  115.50   16.55
  -5   3   4  104.30   27.60
  -5   3   5  859.40   70.52
  -5   3   5  963.70   51.59
  -5   3   5  936.89   88.25
  -5   3   5  939.96   77.96
  -5   3   6  277.34   52.93
  -5   3   6  223.55   43.05
  -5   3   7    6.48   18.14
  -5   3   7   13.50   13.83
  -5   3   8  -35.48   22.83
  -5   3   8   22.89   19.54
  -5   4 -12   41.54   31.01
  -5   4 -11  150.65   34.68
  -5   4 -10   75.95   32.65
  -5   4 -10   53.37   20.94
  -5   4  -9  160.22   32.27
  -5   4  -9  208.57   51.83
  -5   4  -8  247.67   36.91
  -5   4  -8  268.01   52.96
  -5   4  -7  286.04   60.48
  -5   4  -7  259.20   34.85
  -5   4  -6 1125.87   63.50
  -5   4  -6 1292.67  112.18
  -5   4  -5   41.32   16.33
  -5   4  -5   41.98   31.45
  -5   4  -5   36.41   11.09
  -5   4  -5   32.76   12.62
  -5   4  -4  190.13   34.46
  -5   4  -4  184.10   44.21
  -5   4  -4  158.47   31.31
  -5   4  -3  494.69   54.39
  -5   4  -3  498.23   65.64
  -5   4  -3  544.11   52.68
  -5   4  -2  369.01   44.65
  -5   4  -2  356.64   53.04
  -5   4  -2  386.44   44.12
  -5   4  -1   55.18   19.07
  -5   4  -1   40.17   26.67
  -5   4   0   29.20   13.69
  -5   4   0   10.24   20.69
  -5   4   0   65.69   22.78
  -5   4   1  467.14   53.86
  -5   4   1  372.06   37.07
  -5   4   1  442.17   57.62
  -5   4   1  367.86   43.49
  -5   4   2   29.03   10.56
  -5   4   2   31.91   16.11
  -5   4   2   43.99   21.13
  -5   4   2   31.01    7.30
  -5   4   2   25.66   15.06
  -5   4   3  577.45   36.22
  -5   4   3  621.68   32.79
  -5   4   3  579.26   68.93
  -5   4   3  547.95   58.50
  -5   4   4  547.24   34.96
  -5   4   4  530.17   67.86
  -5   4   4  598.08   63.14
  -5   4   5   26.23   23.19
  -5   4   5   -3.90   16.96
  -5   4   5   10.15    6.53
  -5   4   6  376.18   60.70
  -5   4   6  237.91   43.47
  -5   4   6  231.79   49.39
  -5   4   7   65.01   33.59
  -5   4   7   38.66   28.59
  -5   4   7   39.27   24.20
  -5   4   8    5.49   18.03
  -5   4   8  -12.51   24.94
  -5   5 -12  -54.03   26.92
  -5   5 -11   62.70   24.01
  -5   5 -10   74.14   29.33
  -5   5 -10   86.79   38.17
  -5   5  -9   23.65   12.27
  -5   5  -9  -19.21   30.65
  -5   5  -8  429.41   46.13
  -5   5  -8  325.22   61.96
  -5   5  -7  309.03   35.67
  -5   5  -7  319.13   58.20
  -5   5  -6   26.21   10.04
  -5   5  -6   -4.31   17.89
  -5   5  -5  274.95   24.12
  -5   5  -5  311.34   58.23
  -5   5  -5  296.27   41.00
  -5   5  -4  328.46   49.31
  -5   5  -4  308.04   56.88
  -5   5  -4  283.84   38.25
  -5   5  -3  164.59   32.32
  -5   5  -3  276.73   51.07
  -5   5  -3  195.81   32.60
  -5   5  -2  653.87   61.41
  -5   5  -2  605.33   73.40
  -5   5  -2  634.94   56.06
  -5   5  -1  343.39   41.49
  -5   5  -1  404.74   59.76
  -5   5  -1  409.02   44.89
  -5   5   0   59.79   16.79
  -5   5   0   41.19   22.39
  -5   5   0    8.45   19.15
  -5   5   1   56.01   16.55
  -5   5   1   64.79   26.51
  -5   5   1   43.05   23.35
  -5   5   2  391.41   32.93
  -5   5   2  386.49   61.49
  -5   5   2  431.36   27.80
  -5   5   2  389.57   50.33
  -5   5   3   59.85   10.13
  -5   5   3   63.06   26.62
  -5   5   3    9.91   20.80
  -5   5   3   70.41   12.98
  -5   5   4  288.83   54.96
  -5   5   4  209.50   40.47
  -5   5   5   97.55   29.96
  -5   5   5  128.06   36.11
  -5   5   6   33.20   18.91
  -5   5   6  -22.23   19.56
  -5   5   6   47.17   26.23
  -5   5   7   39.90   31.67
  -5   5   7   32.96   29.14
  -5   5   7    6.39   25.30
  -5   6  -9   28.46   16.30
  -5   6  -9   -3.87   31.23
  -5   6  -8   29.17   13.94
  -5   6  -8   35.32   23.38
  -5   6  -7  150.59   44.56
  -5   6  -7  102.85   20.58
  -5   6  -6  203.77   51.51
  -5   6  -6  190.74   21.98
  -5   6  -5    0.36   16.38
  -5   6  -4  175.64   43.82
  -5   6  -4  252.31   38.28
  -5   6  -3  765.69   72.11
  -5   6  -3  696.05   85.23
  -5   6  -3  614.11   57.46
  -5   6  -2  150.54   29.96
  -5   6  -2   87.67   26.84
  -5   6  -2   84.27   39.95
  -5   6  -1   87.53   22.97
  -5   6  -1   88.38   23.87
  -5   6  -1   63.69   31.42
  -5   6   0  120.08   23.54
  -5   6   0  132.65   36.14
  -5   6   0   83.69   28.84
  -5   6   1    5.79    8.78
  -5   6   1   13.86   16.46
  -5   6   2  369.07   29.22
  -5   6   2  386.88   59.00
  -5   6   2  321.82   52.49
  -5   6   3  526.03   69.86
  -5   6   3  512.11   65.36
  -5   6   4  -16.24   29.36
  -5   6   4    4.56   14.16
  -5   6   5   35.59   29.85
  -5   6   5  -39.49   21.24
  -5   6   6   73.48   30.46
  -5   6   6    5.87   18.80
  -5   6   6   26.18   27.69
  -5   6   7  -40.39   25.90
  -5   7  -8   22.14   27.22
  -5   7  -7  -11.69   34.08
  -5   7  -6   12.98   18.47
  -5   7  -5   93.90   39.87
  -5   7  -4    3.62   26.32
  -5   7  -3  129.65   45.77
  -5   7  -2  275.86   44.81
  -5   7  -2  277.17   58.56
  -5   7  -1  277.89   39.82
  -5   7  -1  317.87   58.64
  -5   7   0   39.93   37.40
  -5   7   0   45.14   32.10
  -5   7   1  418.08   68.52
  -5   7   1  460.91   63.74
  -5   7   2   -4.47   14.52
  -5   7   2   44.89   27.11
  -5   7   3   92.61   40.42
  -5   7   3  120.27   35.37
  -5   7   4   86.79   36.19
  -5   7   4   54.69   27.80
  -5   7   5  -10.89   22.01
  -5   7   5  -46.15   30.98
  -5   7   5  -13.56   15.72
  -5   7   6  -34.46   28.54
  -5   8  -7   72.74   44.65
  -5   8  -6    4.36   21.38
  -5   8  -5  219.03   56.50
  -5   8  -4  223.39   54.47
  -5   8  -3   36.93   36.19
  -5   8  -2   39.07   33.59
  -5   8  -1   59.87   31.09
  -5   8  -1  113.46   34.90
  -5   8   0   46.24   23.13
  -5   8   0   63.61   31.86
  -5   8   1   49.53   38.42
  -5   8   1   50.71   24.70
  -5   8   2  314.79   59.05
  -5   8   2  235.96   52.77
  -5   8   3   66.65   33.42
  -5   8   3   57.16   37.37
  -5   8   4   98.04   36.82
  -5   8   5   60.09   33.64
  -5   9  -4   60.53   39.35
  -5   9  -3   76.15   37.81
  -5   9  -2  113.25   44.40
  -5   9  -1   54.55   34.82
  -5   9  -1  -54.63   37.04
  -5   9   0   62.37   31.80
  -5   9   1   48.68   31.36
  -5   9   2   -5.68   13.80
  -4 -10  -6   -0.66    3.48
  -4 -10  -5  -44.84   21.68
  -4 -10  -4   27.03   17.86
  -4 -10  -3  107.78   36.44
  -4 -10  -2  265.51   49.04
  -4 -10  -2  285.16   48.38
  -4 -10  -1   63.61   23.98
  -4 -10  -1   46.51   20.25
  -4 -10   0  152.70   38.55
  -4 -10   0  188.29   38.36
  -4 -10   1  351.43   55.84
  -4 -10   1  289.77   47.80
  -4 -10   2   33.53   18.14
  -4 -10   2  -26.40   14.74
  -4 -10   3   81.11   26.97
  -4 -10   3   78.56   25.57
  -4 -10   4  128.45   35.97
  -4  -9  -8   21.62   13.86
  -4  -9  -8   58.12   24.61
  -4  -9  -7   91.79   33.28
  -4  -9  -7   64.76   26.56
  -4  -9  -6    2.00   11.31
  -4  -9  -5  130.26   33.94
  -4  -9  -4  257.33   47.77
  -4  -9  -3   39.84   17.95
  -4  -9  -2   62.59   23.74
  -4  -9  -2   39.51   21.73
  -4  -9  -1  121.12   33.39
  -4  -9  -1  140.74   33.92
  -4  -9   0  117.75   32.27
  -4  -9   0   91.95   29.61
  -4  -9   1   54.11   25.88
  -4  -9   1   16.60   22.80
  -4  -9   2  437.89   60.40
  -4  -9   2  499.41   60.09
  -4  -9   3  261.20   46.95
  -4  -9   3  201.16   36.55
  -4  -9   4  287.82   48.73
  -4  -9   4  227.12   41.74
  -4  -9   5  411.49   58.34
  -4  -9   5  402.22   58.72
  -4  -9   6  -18.06   15.12
  -4  -8  -9  205.28   41.02
  -4  -8  -9  203.63   46.02
  -4  -8  -8   53.97   23.32
  -4  -8  -8   41.63   24.72
  -4  -8  -7   60.07   24.23
  -4  -8  -7   88.93   30.29
  -4  -8  -6  202.75   38.69
  -4  -8  -6  183.68   40.89
  -4  -8  -5   -8.12   11.96
  -4  -8  -4   31.72   19.81
  -4  -8  -3  240.38   42.92
  -4  -8  -2   16.19   12.59
  -4  -8  -2   10.73   17.10
  -4  -8  -1  332.71   48.84
  -4  -8  -1  384.79   47.88
  -4  -8   0  203.52   39.05
  -4  -8   0  250.94   40.67
  -4  -8   1  475.26   60.56
  -4  -8   1  401.75   49.80
  -4  -8   1  470.76   35.78
  -4  -8   2   19.95   12.49
  -4  -8   2   41.63   16.57
  -4  -8   2   55.59   19.89
  -4  -8   3  757.02   72.96
  -4  -8   3  693.25   60.86
  -4  -8   3  683.29   67.64
  -4  -8   4  316.14   49.69
  -4  -8   4  406.47   53.76
  -4  -8   4  324.18   50.52
  -4  -8   5  137.26   32.08
  -4  -8   5  150.51   34.46
  -4  -8   6  324.40   50.02
  -4  -8   6  384.13   55.62
  -4  -8   7  -19.70   16.74
  -4  -8   7   19.70   15.06
  -4  -7 -10   21.54   16.79
  -4  -7 -10   76.80   38.77
  -4  -7 -10   95.13   23.74
  -4  -7  -9   31.56   22.12
  -4  -7  -9   50.00   18.03
  -4  -7  -9   35.43   24.04
  -4  -7  -8   62.45   24.75
  -4  -7  -8   95.11   26.29
  -4  -7  -8   96.64   33.45
  -4  -7  -8  100.92   26.40
  -4  -7  -7   -5.10   12.10
  -4  -7  -7    6.91   10.51
  -4  -7  -7  -10.29    8.84
  -4  -7  -6   21.92   14.41
  -4  -7  -6   20.85   14.93
  -4  -7  -6   41.46   24.70
  -4  -7  -6   43.03   19.73
  -4  -7  -5  642.51   63.41
  -4  -7  -5  623.22   57.60
  -4  -7  -5  584.20   59.30
  -4  -7  -5  665.37   48.57
  -4  -7  -4  297.51   43.82
  -4  -7  -4  321.02   43.27
  -4  -7  -4  334.22   30.87
  -4  -7  -3  367.23   48.35
  -4  -7  -3  350.05   25.79
  -4  -7  -2  203.88   34.90
  -4  -7  -2  182.20   13.94
  -4  -7  -1  137.97   31.17
  -4  -7  -1  134.02   27.25
  -4  -7   0   -3.68   13.83
  -4  -7   0    9.82    6.56
  -4  -7   0   -0.69   17.10
  -4  -7   1  802.54   71.73
  -4  -7   1  914.72   51.70
  -4  -7   1  815.60   64.87
  -4  -7   2  404.49   52.60
  -4  -7   2  316.36   41.98
  -4  -7   2  378.70   39.29
  -4  -7   2  357.76   21.02
  -4  -7   2  366.46   22.47
  -4  -7   3   45.08   22.23
  -4  -7   3   49.45   19.89
  -4  -7   3   41.60   11.36
  -4  -7   4  353.48   50.41
  -4  -7   4  334.96   48.27
  -4  -7   4  404.08   48.73
  -4  -7   4  352.61   32.30
  -4  -7   5  395.74   50.19
  -4  -7   5  285.93   50.19
  -4  -7   5  412.34   52.27
  -4  -7   6    2.36    4.06
  -4  -7   6    8.92   11.33
  -4  -7   6    9.00   11.22
  -4  -7   7  153.66   31.50
  -4  -7   7  195.46   40.89
  -4  -7   7  182.26   35.86
  -4  -7   8  163.35   31.89
  -4  -7   8  158.60   38.33
  -4  -7   8  132.21   29.31
  -4  -6 -11   19.73   25.74
  -4  -6 -11   47.00   30.38
  -4  -6 -10  137.80   36.30
  -4  -6 -10  224.51   45.77
  -4  -6 -10  190.54   31.47
  -4  -6  -9   33.23   20.42
  -4  -6  -9    4.01    5.87
  -4  -6  -9  -10.56   22.14
  -4  -6  -8  107.43   24.70
  -4  -6  -8   94.61   28.54
  -4  -6  -8   89.89   24.09
  -4  -6  -8   87.73   32.49
  -4  -6  -8  113.16   27.60
  -4  -6  -7  359.30   43.63
  -4  -6  -7  337.02   47.86
  -4  -6  -7  406.44   48.02
  -4  -6  -7  359.57   49.45
  -4  -6  -7  346.05   43.60
  -4  -6  -6  350.85   44.45
  -4  -6  -6  348.79   47.14
  -4  -6  -6  361.99   43.57
  -4  -6  -6  378.97   41.46
  -4  -6  -5   -9.25   11.14
  -4  -6  -5   -7.27   14.85
  -4  -6  -5   18.82   14.74
  -4  -6  -5    8.73   10.56
  -4  -6  -4  200.70   33.39
  -4  -6  -4  171.20   33.67
  -4  -6  -4  220.65   32.54
  -4  -6  -4  242.43   28.15
  -4  -6  -3   80.65   21.21
  -4  -6  -3   78.81   19.67
  -4  -6  -3   72.19   20.42
  -4  -6  -3   88.47   15.15
  -4  -6  -2   15.83   18.85
  -4  -6  -2    2.11   12.84
  -4  -6  -2   16.00    7.85
  -4  -6  -1 1238.32   83.64
  -4  -6  -1 1413.71   79.00
  -4  -6  -1 1409.38   44.10
  -4  -6   0 1286.06   84.82
  -4  -6   0 1242.32   74.47
  -4  -6   0 1247.37   46.37
  -4  -6   0 1233.84   39.79
  -4  -6   1   25.41    7.93
  -4  -6   1   27.85   20.25
  -4  -6   1   41.63   14.10
  -4  -6   1   19.15   13.28
  -4  -6   1   26.40    8.92
  -4  -6   2 1271.52   85.15
  -4  -6   2 1130.59   67.53
  -4  -6   2 1173.83   73.13
  -4  -6   2 1076.58   51.20
  -4  -6   3  398.92   48.24
  -4  -6   3  435.31   46.76
  -4  -6   3  355.32   32.63
  -4  -6   4  260.46   39.16
  -4  -6   4  235.68   37.87
  -4  -6   4  211.45   33.31
  -4  -6   5  156.24   30.92
  -4  -6   5  162.01   35.75
  -4  -6   5  205.11   33.64
  -4  -6   5  171.91   28.67
  -4  -6   6  112.26   27.74
  -4  -6   6   88.14   23.32
  -4  -6   6  116.24   29.64
  -4  -6   7   30.73   22.42
  -4  -6   7   82.05   26.97
  -4  -6   7   61.49   21.79
  -4  -6   8  162.80   28.95
  -4  -6   8  191.50   36.08
  -4  -6   8  118.62   32.57
  -4  -6   9  176.49   41.02
  -4  -6   9  165.33   36.85
  -4  -6  10   16.41   21.65
  -4  -5 -11   78.07   30.57
  -4  -5 -11   77.52   35.78
  -4  -5 -10    2.03    7.41
  -4  -5 -10   12.29   29.44
  -4  -5 -10   39.51   16.16
  -4  -5  -9   34.11   17.70
  -4  -5  -9   75.90   24.53
  -4  -5  -9  106.99   22.36
  -4  -5  -9  130.94   34.74
  -4  -5  -8  139.15   31.53
  -4  -5  -8  126.50   31.14
  -4  -5  -8  153.20   27.96
  -4  -5  -8  160.00   38.39
  -4  -5  -8  151.17   32.93
  -4  -5  -8  150.54   32.79
  -4  -5  -7   76.45   24.09
  -4  -5  -7   48.10   19.67
  -4  -5  -7   62.18   20.72
  -4  -5  -7   70.99   25.85
  -4  -5  -7   80.62   25.46
  -4  -5  -7   45.80   17.10
  -4  -5  -6  711.80   61.55
  -4  -5  -6  897.76   69.37
  -4  -5  -6  781.25   62.97
  -4  -5  -6  743.19   69.07
  -4  -5  -6  800.45   61.27
  -4  -5  -5   32.98   17.23
  -4  -5  -5   19.18   16.93
  -4  -5  -5   57.16   18.30
  -4  -5  -5   29.64   12.76
  -4  -5  -4   95.96   24.37
  -4  -5  -4   82.24   20.99
  -4  -5  -4  108.44   21.54
  -4  -5  -4   71.87   15.89
  -4  -5  -3  314.05   40.78
  -4  -5  -3  257.03   30.51
  -4  -5  -3  293.31   36.66
  -4  -5  -3  293.55   27.03
  -4  -5  -2  820.13   62.32
  -4  -5  -2  847.21   49.09
  -4  -5  -2  816.67   63.25
  -4  -5  -2  825.34   56.94
  -4  -5  -2  834.59   41.43
  -4  -5  -1  860.96   64.18
  -4  -5  -1  899.57   26.37
  -4  -5  -1  832.15   24.12
  -4  -5  -1  930.60   59.02
  -4  -5  -1  882.06   39.93
  -4  -5   0 1181.57   76.83
  -4  -5   0 1239.14   67.69
  -4  -5   0 1121.42   44.07
  -4  -5   1 2844.55  118.46
  -4  -5   1 2863.65  101.61
  -4  -5   2   88.85   22.75
  -4  -5   2   70.47   19.02
  -4  -5   3  867.82   66.27
  -4  -5   3  872.18   59.96
  -4  -5   3  832.23   54.55
  -4  -5   4  222.40   36.03
  -4  -5   4  204.68   31.31
  -4  -5   5   21.65   16.16
  -4  -5   5    6.72   14.30
  -4  -5   5   17.59   14.08
  -4  -5   6  607.88   55.21
  -4  -5   6  538.57   53.95
  -4  -5   6  506.32   54.66
  -4  -5   7  266.39   37.35
  -4  -5   7  262.33   42.07
  -4  -5   7  230.06   39.84
  -4  -5   8   35.34   15.50
  -4  -5   8   10.34   17.37
  -4  -5   8   15.12   14.74
  -4  -5   9   34.96   18.33
  -4  -5   9    2.44    9.60
  -4  -5  10   62.23   22.12
  -4  -5  10   52.79   31.31
  -4  -5  11    3.98   18.77
  -4  -4 -12  -44.75   31.94
  -4  -4 -12   15.42   22.17
  -4  -4 -11  120.71   34.19
  -4  -4 -11  110.36   39.51
  -4  -4 -10  118.62   33.37
  -4  -4 -10   33.59   18.44
  -4  -4 -10   78.51   17.92
  -4  -4 -10   99.66   39.95
  -4  -4  -9   -8.97   15.37
  -4  -4  -9    0.71   16.08
  -4  -4  -9   -5.13    5.02
  -4  -4  -9   19.35   14.95
  -4  -4  -9   -1.98    8.07
  -4  -4  -8  645.97   65.23
  -4  -4  -8  535.41   57.71
  -4  -4  -8  510.39   48.02
  -4  -4  -8  528.52   62.43
  -4  -4  -8  609.11   61.96
  -4  -4  -8  599.76   56.91
  -4  -4  -7  906.84   70.11
  -4  -4  -7  918.67   71.48
  -4  -4  -7  944.16   65.42
  -4  -4  -7  907.09   75.98
  -4  -4  -7  989.46   72.88
  -4  -4  -7  933.59   66.16
  -4  -4  -6   29.28   16.90
  -4  -4  -6   16.30   11.91
  -4  -4  -6   16.77   11.50
  -4  -4  -6    5.27   18.30
  -4  -4  -6    9.85   14.02
  -4  -4  -6    9.88    7.96
  -4  -4  -5  273.71   37.43
  -4  -4  -5  376.86   40.45
  -4  -4  -5  405.95   45.52
  -4  -4  -5  358.31   42.83
  -4  -4  -5  387.29   38.42
  -4  -4  -4    6.23    9.55
  -4  -4  -4  -22.09   12.32
  -4  -4  -4   -5.68    8.15
  -4  -4  -4   -5.54    7.44
  -4  -4  -3  109.46   21.87
  -4  -4  -3  129.38   25.35
  -4  -4  -3  121.39   19.54
  -4  -4  -3  127.40   20.06
  -4  -4  -2  270.23   24.56
  -4  -4  -2  264.00   34.55
  -4  -4  -2  273.39   16.46
  -4  -4  -2  291.30   31.91
  -4  -4  -2  280.27   25.77
  -4  -4  -1 3366.10   73.73
  -4  -4  -1 3398.89   67.61
  -4  -4  -1 3365.44   82.46
  -4  -4   0  179.24   24.06
  -4  -4   1 1322.45   76.97
  -4  -4   1 1257.33   61.77
  -4  -4   2 1963.83   93.10
  -4  -4   2 1876.00   77.52
  -4  -4   3  406.31   43.77
  -4  -4   3  379.14   36.91
  -4  -4   4  204.57   32.02
  -4  -4   4  239.00   32.27
  -4  -4   5  346.79   39.27
  -4  -4   5  297.37   36.30
  -4  -4   5  268.75   38.22
  -4  -4   6   60.37   20.42
  -4  -4   6   13.47   15.89
  -4  -4   6   51.12   20.99
  -4  -4   7  475.70   43.85
  -4  -4   7  445.74   50.43
  -4  -4   7  352.77   50.49
  -4  -4   8  442.00   41.60
  -4  -4   8  416.84   51.09
  -4  -4   8  355.54   54.52
  -4  -4   9   94.06   28.98
  -4  -4   9   67.69   23.02
  -4  -4  10    2.14   11.44
  -4  -4  10  -32.49   29.94
  -4  -3 -12   63.91   26.84
  -4  -3 -12   23.85   18.93
  -4  -3 -11  -12.05   10.62
  -4  -3 -11    1.95   18.41
  -4  -3 -10  102.90   29.55
  -4  -3 -10   83.14   30.05
  -4  -3 -10   82.84   33.89
  -4  -3  -9  347.20   47.25
  -4  -3  -9  408.53   54.25
  -4  -3  -9  485.83   61.25
  -4  -3  -9  472.38   53.67
  -4  -3  -8  -22.56   21.16
  -4  -3  -8    7.90   17.04
  -4  -3  -8  -10.37   16.60
  -4  -3  -8   27.47   12.90
  -4  -3  -8    3.46    8.42
  -4  -3  -7  561.37   57.68
  -4  -3  -7  713.96   59.35
  -4  -3  -7  609.22   60.81
  -4  -3  -7  661.44   52.60
  -4  -3  -7  672.50   60.07
  -4  -3  -6  229.04   35.23
  -4  -3  -6  183.77   30.05
  -4  -3  -6  189.09   33.34
  -4  -3  -6  227.45   33.31
  -4  -3  -6  198.61   26.70
  -4  -3  -5   -7.02   12.68
  -4  -3  -5    4.69    6.37
  -4  -3  -5    9.55    7.71
  -4  -3  -5   -2.44    4.83
  -4  -3  -4   67.53   15.75
  -4  -3  -4   92.31   15.31
  -4  -3  -4  107.76   19.54
  -4  -3  -4   91.43   14.02
  -4  -3  -3 4624.92  105.51
  -4  -3  -3 4445.87   92.42
  -4  -3  -2  491.37   30.18
  -4  -3  -2  417.83   27.80
  -4  -3  -2  432.46   32.87
  -4  -3  -1 1774.28   45.77
  -4  -3  -1 1737.64   65.17
  -4  -3  -1 1842.71   58.37
  -4  -3  -1 1705.98   62.26
  -4  -3   0  511.35   35.23
  -4  -3   0  579.45   35.51
  -4  -3   1   13.03   10.70
  -4  -3   1    6.23    6.75
  -4  -3   2  606.67   49.53
  -4  -3   2  601.13   40.04
  -4  -3   3 1495.92   76.64
  -4  -3   3 1568.75   67.39
  -4  -3   4  374.23   38.42
  -4  -3   4  413.19   37.73
  -4  -3   5  117.28   25.24
  -4  -3   5   65.75   20.61
  -4  -3   5  102.68   20.03
  -4  -3   6  559.37   45.91
  -4  -3   6  444.36   54.61
  -4  -3   6  587.77   50.96
  -4  -3   7   49.78   18.25
  -4  -3   7   79.44   27.80
  -4  -3   8   18.28    9.96
  -4  -3   8   33.12   25.79
  -4  -3   9  106.85   40.34
  -4  -3  10  107.02   39.82
  -4  -2 -12   17.51   26.40
  -4  -2 -12   -4.06   14.27
  -4  -2 -11  143.05   39.24
  -4  -2 -11  122.30   33.37
  -4  -2 -10   -2.00   20.22
  -4  -2 -10  -13.61    6.45
  -4  -2 -10   -6.56   10.54
  -4  -2  -9  688.17   69.04
  -4  -2  -9  576.68   63.80
  -4  -2  -9  669.68   69.92
  -4  -2  -9  736.27   62.76
  -4  -2  -8  598.80   62.59
  -4  -2  -8  549.19   57.19
  -4  -2  -8  528.00   59.08
  -4  -2  -8  646.43   54.63
  -4  -2  -8  635.79   62.18
  -4  -2  -7    1.13   18.52
  -4  -2  -7    2.66   17.42
  -4  -2  -7   27.06   12.95
  -4  -2  -7    0.16    9.49
  -4  -2  -7   -0.88    2.69
  -4  -2  -6   12.49   14.27
  -4  -2  -6   11.31   15.42
  -4  -2  -6   -0.69    9.22
  -4  -2  -6    4.86    6.04
  -4  -2  -6    1.89   10.51
  -4  -2  -5  255.80   30.62
  -4  -2  -5  296.00   33.61
  -4  -2  -5  313.59   35.56
  -4  -2  -5  269.93   25.66
  -4  -2  -4  647.28   43.63
  -4  -2  -4  652.28   45.52
  -4  -2  -4  610.98   32.90
  -4  -2  -4  599.37   44.81
  -4  -2  -3  807.20   42.48
  -4  -2  -3  921.79   49.83
  -4  -2  -3  795.43   47.64
  -4  -2  -3  852.04   29.06
  -4  -2  -2 4955.82   90.42
  -4  -2  -2 5168.50  112.01
  -4  -2  -2 5179.70  114.48
  -4  -2  -1 1763.38   43.30
  -4  -2  -1 1866.06   58.75
  -4  -2  -1 1930.66   67.56
  -4  -2  -1 1800.12   66.46
  -4  -2   0 2526.22   66.57
  -4  -2   0 2610.87   81.52
  -4  -2   1 1938.09   59.46
  -4  -2   2    3.81    7.96
  -4  -2   3  164.42   20.66
  -4  -2   4  472.30   36.85
  -4  -2   5   57.73   17.26
  -4  -2   5   43.82   19.84
  -4  -2   6  104.66   19.89
  -4  -2   6   78.48   29.17
  -4  -2   7  236.48   28.57
  -4  -2   7  184.45   41.41
  -4  -2   8  533.96   38.80
  -4  -2   8  440.17   64.76
  -4  -2   9   11.61   19.10
  -4  -2  10  113.22   32.79
  -4  -1 -12   84.35   27.52
  -4  -1 -12   81.61   30.24
  -4  -1 -11   80.29   28.02
  -4  -1 -11  125.21   36.50
  -4  -1 -11  113.77   16.11
  -4  -1 -10  593.17   42.50
  -4  -1 -10  685.92   74.01
  -4  -1 -10  639.13   73.40
  -4  -1  -9   32.96   15.81
  -4  -1  -9   46.59   22.58
  -4  -1  -9    3.81   11.00
  -4  -1  -9   36.06   14.60
  -4  -1  -8  405.29   51.72
  -4  -1  -8  345.96   47.06
  -4  -1  -8  330.21   46.57
  -4  -1  -8  305.24   42.61
  -4  -1  -8  310.51   37.57
  -4  -1  -7   54.96   20.44
  -4  -1  -7   57.46   24.45
  -4  -1  -7   39.13   18.91
  -4  -1  -7   60.86   16.16
  -4  -1  -7  102.05   22.39
  -4  -1  -6    8.89    7.93
  -4  -1  -6   20.63   16.08
  -4  -1  -6   -0.88    9.63
  -4  -1  -6    4.23   13.64
  -4  -1  -6    0.16    9.03
  -4  -1  -6    3.16    3.87
  -4  -1  -5   81.91   22.67
  -4  -1  -5  111.38   23.76
  -4  -1  -5  113.30   23.98
  -4  -1  -5   98.46   15.48
  -4  -1  -5  101.67   21.16
  -4  -1  -4 1851.60   80.45
  -4  -1  -4 1806.11   81.50
  -4  -1  -4 1902.37   79.16
  -4  -1  -4 1803.14   53.86
  -4  -1  -3 2653.89   88.36
  -4  -1  -3 2664.24   49.72
  -4  -1  -2  628.16   44.73
  -4  -1  -2  588.62   40.50
  -4  -1  -1 2533.16   85.48
  -4  -1   0 1301.92   67.37
  -4  -1   0 1416.26   64.46
  -4  -1   0 1432.78   40.25
  -4  -1   1  125.98   21.62
  -4  -1   1  124.50   11.55
  -4  -1   1  122.44   21.40
  -4  -1   1  114.01   12.65
  -4  -1   2 2911.50  100.60
  -4  -1   2 2721.26   56.77
  -4  -1   2 2863.23   66.71
  -4  -1   3  122.00   14.46
  -4  -1   3  134.98   16.33
  -4  -1   4 1078.53   47.28
  -4  -1   6  202.04   41.93
  -4  -1   7  115.44   18.69
  -4  -1   7  103.37   33.34
  -4  -1   8  162.61   21.43
  -4  -1   8  137.86   45.69
  -4  -1   9  235.22   50.30
  -4  -1  10  -23.96   24.94
  -4   0 -13    3.65   16.03
  -4   0 -12   74.94   27.47
  -4   0 -12  133.06   37.95
  -4   0 -11   20.28   21.21
  -4   0 -11   48.95   22.34
  -4   0 -11   46.35   10.87
  -4   0 -10  388.77   55.24
  -4   0 -10  320.31   52.38
  -4   0  -9  492.71   57.35
  -4   0  -9  409.65   54.11
  -4   0  -8  130.15   31.39
  -4   0  -8  142.47   31.23
  -4   0  -8  180.69   37.26
  -4   0  -7    3.48    6.20
  -4   0  -7    0.96    8.84
  -4   0  -7    0.11   18.00
  -4   0  -7   -0.99   10.32
  -4   0  -6 1032.38   75.71
  -4   0  -6  985.65   66.05
  -4   0  -6  993.22   73.90
  -4   0  -6 1058.83   69.26
  -4   0  -5  926.68   67.04
  -4   0  -5  950.55   60.07
  -4   0  -5  787.80   56.14
  -4   0  -4  735.86   48.57
  -4   0  -4  664.02   56.88
  -4   0  -4  734.27   51.04
  -4   0  -3 1494.44   63.61
  -4   0  -3 1421.34   75.10
  -4   0  -3 1319.29   64.13
  -4   0  -2  188.07   28.89
  -4   0  -2  170.59   23.71
  -4   0  -1  141.95   22.94
  -4   0  -1  100.98   21.38
  -4   0  -1  131.88   12.43
  -4   0   0 3288.31  103.45
  -4   0   0 3331.47  107.13
  -4   0   0 3330.40   67.01
  -4   0   1 2585.35   89.76
  -4   0   1 2517.24   68.16
  -4   0   1 2820.62   44.86
  -4   0   1 2674.53   98.87
  -4   0   1 2705.43   70.99
  -4   0   2   -0.08    5.68
  -4   0   2   -5.73    5.98
  -4   0   2    0.88    4.39
  -4   0   3  608.62   37.81
  -4   0   4  113.11   17.95
  -4   0   6  403.62   38.77
  -4   0   6  372.91   53.48
  -4   0   7  334.88   52.36
  -4   0   8  -19.07   33.61
  -4   0   9  222.10   48.49
  -4   0  10   89.02   36.19
  -4   1 -13   72.41   28.78
  -4   1 -12   98.89   34.03
  -4   1 -12   66.13   25.30
  -4   1 -11  259.86   47.39
  -4   1 -11  278.82   53.40
  -4   1 -10   21.40   24.31
  -4   1 -10   33.72   17.40
  -4   1  -9   20.99   14.71
  -4   1  -8  164.48   36.06
  -4   1  -8  134.76   28.98
  -4   1  -8  141.89   31.83
  -4   1  -7  487.23   55.92
  -4   1  -7  518.37   61.96
  -4   1  -7  511.29   51.37
  -4   1  -7  518.78   52.63
  -4   1  -6   -4.80   18.08
  -4   1  -6   -1.45   10.04
  -4   1  -6   12.65   11.47
  -4   1  -5 2573.60  118.54
  -4   1  -5 2575.80   95.41
  -4   1  -5 2513.07  100.57
  -4   1  -4 1922.01   74.34
  -4   1  -4 1821.39   95.38
  -4   1  -4 1742.77   78.92
  -4   1  -3  507.39   50.49
  -4   1  -3  450.18   33.37
  -4   1  -3  459.65   39.82
  -4   1  -2 2177.18   92.50
  -4   1  -2 2488.51  102.49
  -4   1  -2 2465.38   87.62
  -4   1  -1  410.70   38.47
  -4   1  -1  429.38   43.11
  -4   1   0   24.81    8.97
  -4   1   0    8.75   15.78
  -4   1   0    9.47    8.45
  -4   1   1 1465.90   61.69
  -4   1   1 1441.89   64.68
  -4   1   1 1557.97   80.32
  -4   1   1 1496.69   61.00
  -4   1   2  176.38   21.87
  -4   1   2  195.59   23.87
  -4   1   2  261.61   36.14
  -4   1   2  214.01   26.37
  -4   1   3    8.29    5.43
  -4   1   4  192.19   29.69
  -4   1   5  699.26   52.36
  -4   1   6  323.90   38.33
  -4   1   6  336.94   51.94
  -4   1   7  190.32   30.51
  -4   1   7  175.67   44.95
  -4   1   8  253.05   38.31
  -4   1   8  211.15   50.82
  -4   1   9   22.47   17.48
  -4   1  10  162.14   42.09
  -4   2 -13   92.67   33.45
  -4   2 -12    0.63   18.66
  -4   2 -12    4.36    9.22
  -4   2 -11   77.71   25.68
  -4   2 -10  186.48   38.55
  -4   2  -9   22.17   12.07
  -4   2  -8   -5.05    6.53
  -4   2  -8  -13.20   25.71
  -4   2  -7  631.64   65.61
  -4   2  -7  628.24   69.56
  -4   2  -7  643.36   56.36
  -4   2  -7  759.62   64.07
  -4   2  -6 1767.53  103.26
  -4   2  -6 1839.42  112.04
  -4   2  -6 1731.69   83.36
  -4   2  -6 1853.03   93.05
  -4   2  -5  186.32   37.51
  -4   2  -5  209.37   27.11
  -4   2  -5  241.83   32.87
  -4   2  -4  231.40   35.12
  -4   2  -4  277.64   27.82
  -4   2  -4  295.12   44.23
  -4   2  -4  286.04   33.72
  -4   2  -3  566.25   50.19
  -4   2  -3  547.37   33.81
  -4   2  -3  605.36   56.77
  -4   2  -3  527.56   42.94
  -4   2  -2   71.81   18.22
  -4   2  -2   86.96   18.52
  -4   2  -2   61.38   25.46
  -4   2  -1 6502.86  152.95
  -4   2  -1 6674.52  175.20
  -4   2   0 2338.53   86.33
  -4   2   0 2173.75  101.56
  -4   2   0 2187.77   78.92
  -4   2   1  213.95   26.97
  -4   2   1  180.86   22.83
  -4   2   1  282.39   37.84
  -4   2   1  201.66   26.95
  -4   2   2   38.88   11.14
  -4   2   2   36.25   15.17
  -4   2   2   63.14    8.12
  -4   2   3  108.03   17.01
  -4   2   3  107.40   27.22
  -4   2   3   81.69   19.35
  -4   2   4  155.53   26.07
  -4   2   4  147.96   31.14
  -4   2   4  118.38   26.32
  -4   2   5   66.13   18.71
  -4   2   5   49.56   21.38
  -4   2   6  571.25   53.89
  -4   2   6  589.71   67.56
  -4   2   7   44.81   16.22
  -4   2   7   20.66   13.94
  -4   2   8  155.17   38.55
  -4   2   9  227.48   49.53
  -4   3 -13  -35.84   21.35
  -4   3 -12  152.98   41.76
  -4   3 -11   70.93   27.22
  -4   3 -10    4.39   10.40
  -4   3  -9   72.36   22.36
  -4   3  -8  239.20   35.73
  -4   3  -8  268.47   51.94
  -4   3  -7   98.04   36.08
  -4   3  -7   81.66   20.91
  -4   3  -7   95.77   26.10
  -4   3  -6  793.59   71.95
  -4   3  -6  891.01   58.94
  -4   3  -6  920.75   85.45
  -4   3  -6  873.91   66.16
  -4   3  -5  780.97   66.95
  -4   3  -5  709.60   46.90
  -4   3  -5  769.94   76.59
  -4   3  -5  634.11   53.54
  -4   3  -4  247.15   35.29
  -4   3  -4  254.86   24.45
  -4   3  -4  231.43   45.11
  -4   3  -4  252.09   31.80
  -4   3  -3  444.58   46.04
  -4   3  -3  482.70   28.15
  -4   3  -3  436.65   53.15
  -4   3  -3  419.09   40.67
  -4   3  -2 2150.70   94.89
  -4   3  -2 2266.69  112.48
  -4   3  -2 2240.13   88.14
  -4   3  -1   43.27   13.25
  -4   3  -1   17.78   20.28
  -4   3   0  809.62   51.97
  -4   3   0  793.87   67.04
  -4   3   1  724.72   44.73
  -4   3   1  672.53   53.92
  -4   3   1  733.28   62.45
  -4   3   1  752.19   26.04
  -4   3   2   98.21   15.50
  -4   3   2   94.61   20.31
  -4   3   2   83.77   25.93
  -4   3   2   98.18   11.52
  -4   3   2   82.05   19.21
  -4   3   3  251.71   22.56
  -4   3   3  235.87   34.79
  -4   3   3  219.63   37.35
  -4   3   3  266.06   22.06
  -4   3   3  209.75   34.30
  -4   3   4  598.82   54.25
  -4   3   4  590.35   38.11
  -4   3   4  652.91   64.68
  -4   3   4  651.48   59.87
  -4   3   5  363.14   44.18
  -4   3   5  393.52   51.89
  -4   3   5  336.96   44.89
  -4   3   6   27.77   26.97
  -4   3   6   72.47   30.49
  -4   3   6   38.75   18.77
  -4   3   7  206.84   45.17
  -4   3   8   14.10   17.70
  -4   3   9   62.51   29.22
  -4   4 -13  -28.95   22.17
  -4   4 -12   56.47   30.43
  -4   4 -11   34.00   20.61
  -4   4 -10  428.39   55.92
  -4   4  -9   47.03   21.71
  -4   4  -9  -20.69   31.39
  -4   4  -8  425.43   66.93
  -4   4  -8  421.01   48.51
  -4   4  -7  597.59   52.82
  -4   4  -7  504.32   71.84
  -4   4  -7  599.04   58.39
  -4   4  -6  -10.81   10.67
  -4   4  -6   40.06   24.70
  -4   4  -6   30.76   16.74
  -4   4  -5  277.31   41.82
  -4   4  -5  275.55   51.56
  -4   4  -5  227.12   25.63
  -4   4  -5  213.92   32.46
  -4   4  -4  434.76   49.80
  -4   4  -4  413.82   29.31
  -4   4  -4  482.92   62.40
  -4   4  -4  373.82   40.50
  -4   4  -3   61.66   18.88
  -4   4  -3   83.86   29.55
  -4   4  -3   40.91   15.89
  -4   4  -2 1224.87   73.35
  -4   4  -2 1237.30   90.39
  -4   4  -2 1235.82   68.16
  -4   4  -1 1620.53   79.99
  -4   4  -1 1669.18  102.19
  -4   4   0  182.20   25.16
  -4   4   0  215.62   40.89
  -4   4   0  177.43   30.43
  -4   4   1    5.63    6.50
  -4   4   1   -0.08    4.75
  -4   4   1   18.41   18.91
  -4   4   1  -15.83   15.89
  -4   4   1    3.24    4.20
  -4   4   2  230.50   35.48
  -4   4   2  201.11   21.02
  -4   4   2  213.98   41.22
  -4   4   2  231.37   20.11
  -4   4   2  192.41   35.21
  -4   4   3  570.56   28.67
  -4   4   3  542.65   55.59
  -4   4   3  536.07   33.78
  -4   4   3  504.54   60.86
  -4   4   3  570.01   56.39
  -4   4   4  100.81   26.81
  -4   4   4   31.56   21.46
  -4   4   4   61.66   26.40
  -4   4   4   60.81   13.34
  -4   4   5  321.49   49.86
  -4   4   5  308.65   32.49
  -4   4   5  334.44   49.01
  -4   4   6   10.07   17.31
  -4   4   6   -5.16   10.02
  -4   4   6   -0.71   13.03
  -4   4   6   -9.41   19.59
  -4   4   7  262.00   50.60
  -4   4   7  205.17   43.47
  -4   4   7  155.45   27.14
  -4   4   7  148.40   38.28
  -4   4   8  408.53   61.55
  -4   4   8  328.07   63.22
  -4   4   9  143.32   40.61
  -4   4   9  143.68   42.81
  -4   5 -12   40.94   25.96
  -4   5 -11   22.75   15.31
  -4   5 -10   78.89   23.49
  -4   5  -9  338.09   47.25
  -4   5  -9  399.03   70.80
  -4   5  -8  254.45   37.10
  -4   5  -8  191.78   47.72
  -4   5  -7   82.05   29.94
  -4   5  -7   93.46   20.42
  -4   5  -6  611.58   46.79
  -4   5  -6  575.06   76.70
  -4   5  -6  594.71   56.50
  -4   5  -5   64.87   21.60
  -4   5  -5   64.76   30.29
  -4   5  -5   45.50   13.36
  -4   5  -5   55.79   19.32
  -4   5  -4  717.59   66.13
  -4   5  -4  726.86   33.59
  -4   5  -4  653.92   75.35
  -4   5  -4  717.04   56.25
  -4   5  -3 1247.73   82.57
  -4   5  -3 1312.35   80.13
  -4   5  -3 1272.84   80.40
  -4   5  -3 1226.57   98.02
  -4   5  -3 1286.80   72.85
  -4   5  -2    9.91   13.17
  -4   5  -2    8.89   12.51
  -4   5  -2   46.90   17.10
  -4   5  -2   22.28   12.62
  -4   5  -2    4.09   16.66
  -4   5  -1  370.93   40.42
  -4   5  -1  505.91   49.56
  -4   5  -1  401.09   46.02
  -4   5  -1  452.29   59.60
  -4   5  -1  389.73   40.06
  -4   5   0   10.45    9.60
  -4   5   0   13.97   13.12
  -4   5   0    1.13    8.59
  -4   5   0    8.97   20.55
  -4   5   0   15.83    7.44
  -4   5   0    2.58   12.92
  -4   5   1  156.71   23.85
  -4   5   1  151.33   30.62
  -4   5   1  181.85   31.25
  -4   5   1  209.04   32.71
  -4   5   1  148.94   17.67
  -4   5   1  189.20   38.58
  -4   5   1  131.30   28.35
  -4   5   2   -4.99    4.99
  -4   5   2    8.67    7.30
  -4   5   2    1.65    8.04
  -4   5   3  490.33   61.90
  -4   5   3  569.49   38.06
  -4   5   3  661.77   65.01
  -4   5   4  404.36   35.21
  -4   5   4  494.47   62.37
  -4   5   4  408.45   51.40
  -4   5   5    5.10    8.73
  -4   5   5   15.89   13.83
  -4   5   5    1.70    3.46
  -4   5   6  225.12   46.76
  -4   5   6  144.86   24.31
  -4   5   6  117.36   34.55
  -4   5   6  151.58   41.46
  -4   5   7   40.36   23.79
  -4   5   7   32.63   23.71
  -4   5   7   22.47   18.93
  -4   5   8   95.52   30.40
  -4   5   8   85.50   31.34
  -4   5   8   64.62   26.59
  -4   6 -12   86.68   36.77
  -4   6 -11   83.12   28.62
  -4   6 -10   11.94   12.54
  -4   6  -9  138.74   32.27
  -4   6  -9  236.15   56.36
  -4   6  -8  260.13   57.54
  -4   6  -8  240.98   36.66
  -4   6  -7  330.52   63.50
  -4   6  -7  249.16   32.85
  -4   6  -6   -1.51    7.08
  -4   6  -6   31.61   27.19
  -4   6  -6   16.41   17.53
  -4   6  -5  534.70   57.54
  -4   6  -5  578.68   35.73
  -4   6  -5  606.23   78.86
  -4   6  -5  589.74   55.92
  -4   6  -4  188.16   35.29
  -4   6  -4  142.11   30.79
  -4   6  -4  189.47   12.16
  -4   6  -4  136.24   44.54
  -4   6  -4  189.06   30.21
  -4   6  -3  682.49   63.63
  -4   6  -3  757.15   66.40
  -4   6  -3  731.20   80.26
  -4   6  -3  702.44   56.33
  -4   6  -2  482.07   51.12
  -4   6  -2  437.26   51.04
  -4   6  -2  442.28   64.37
  -4   6  -2  414.59   42.78
  -4   6  -1   41.79   18.03
  -4   6  -1   54.22   15.86
  -4   6  -1   49.67   20.44
  -4   6  -1   87.34   34.22
  -4   6   0   35.37   12.02
  -4   6   0   17.84   17.89
  -4   6   0   49.53   29.96
  -4   6   0    3.98   13.42
  -4   6   0   17.23    6.72
  -4   6   1  333.12   33.23
  -4   6   1  403.62   49.34
  -4   6   1  368.60   30.90
  -4   6   1  350.99   56.61
  -4   6   1  313.80   48.16
  -4   6   2  206.43   20.58
  -4   6   2  143.24   28.73
  -4   6   2  181.21   22.89
  -4   6   2  214.47   43.49
  -4   6   2  181.79   37.84
  -4   6   3   13.45   21.87
  -4   6   3   24.70    8.73
  -4   6   3   27.58   21.95
  -4   6   4  201.05   43.16
  -4   6   4  124.91   21.10
  -4   6   4  120.63   36.93
  -4   6   5   61.33   35.40
  -4   6   5   81.28   19.26
  -4   6   5   65.03   25.03
  -4   6   5   65.47   30.84
  -4   6   6   -9.03   16.11
  -4   6   6    8.12   18.00
  -4   6   6   39.24   25.79
  -4   6   7  117.36   41.08
  -4   6   7  173.59   45.58
  -4   6   7  157.81   44.51
  -4   6   8  -11.44   29.00
  -4   6   8   88.74   32.35
  -4   7  -9   44.70   29.11
  -4   7  -8    6.26   20.17
  -4   7  -7  103.92   21.90
  -4   7  -7  155.04   43.88
  -4   7  -6   32.71   15.70
  -4   7  -6   29.64    8.73
  -4   7  -6   11.09   22.09
  -4   7  -6   41.43   15.70
  -4   7  -5  155.61   33.26
  -4   7  -5  100.43   39.27
  -4   7  -5  135.94   14.24
  -4   7  -5  132.34   27.47
  -4   7  -4  410.01   53.34
  -4   7  -4  486.02   73.43
  -4   7  -4  400.95   46.21
  -4   7  -3  364.60   50.52
  -4   7  -3  350.14   49.58
  -4   7  -3  425.95   65.31
  -4   7  -3  326.24   38.77
  -4   7  -2   -9.27   17.26
  -4   7  -2   10.07   14.41
  -4   7  -2   -6.15    9.44
  -4   7  -1  197.49   31.50
  -4   7  -1  196.66   31.64
  -4   7  -1  206.18   39.82
  -4   7  -1  238.98   50.46
  -4   7   0   36.80   13.42
  -4   7   0   59.68   24.59
  -4   7   0   67.42   28.07
  -4   7   0   15.28   24.50
  -4   7   1   -0.71    3.51
  -4   7   1  -11.17   14.82
  -4   7   1   19.29   19.62
  -4   7   1  -16.96   19.95
  -4   7   1    8.73    7.24
  -4   7   2  278.00   43.79
  -4   7   2  296.24   55.90
  -4   7   2  253.79   29.17
  -4   7   2  327.85   56.01
  -4   7   3  194.41   36.74
  -4   7   3  163.08   43.36
  -4   7   3  190.57   27.08
  -4   7   3  196.77   43.77
  -4   7   4  -11.66   19.65
  -4   7   4   22.42   16.35
  -4   7   5  151.22   41.43
  -4   7   5  122.52   36.11
  -4   7   5   90.11   32.49
  -4   7   6  116.68   33.59
  -4   7   6  122.14   34.38
  -4   7   6   52.47   30.49
  -4   7   7   14.90   21.02
  -4   7   7    3.16   22.31
  -4   8  -8  144.53   54.66
  -4   8  -7    3.51    9.00
  -4   8  -7   36.96   30.51
  -4   8  -6  303.71   48.54
  -4   8  -6  265.29   62.89
  -4   8  -5   19.35   16.96
  -4   8  -5   14.95   16.19
  -4   8  -4  105.23   28.15
  -4   8  -4   84.05   39.35
  -4   8  -4   50.22   18.55
  -4   8  -3  103.01   29.25
  -4   8  -3   61.30   30.05
  -4   8  -3   72.41   20.94
  -4   8  -2   -6.26   15.53
  -4   8  -2   36.11   20.50
  -4   8  -2   35.75   31.14
  -4   8  -2   48.43   16.27
  -4   8  -1   44.23   24.97
  -4   8  -1    6.72   17.51
  -4   8  -1   20.39   17.51
  -4   8   0  229.65   34.63
  -4   8   0  254.84   46.13
  -4   8   0  239.22   53.26
  -4   8   0  174.90   46.51
  -4   8   1  385.83   55.29
  -4   8   1  389.57   65.06
  -4   8   1  415.77   62.78
  -4   8   2  -14.90   15.17
  -4   8   2   37.70   24.50
  -4   8   2    0.49   23.43
  -4   8   3    5.02   10.89
  -4   8   3   40.45   21.84
  -4   8   4   36.22   26.84
  -4   8   4   54.74   39.18
  -4   8   4   49.23   22.06
  -4   8   4   37.13   17.23
  -4   8   5   -0.19   17.73
  -4   8   5   -3.02   16.33
  -4   8   6   68.49   27.55
  -4   8   6   89.07   39.54
  -4   8   7   30.79   18.44
  -4   9  -7  126.28   34.16
  -4   9  -6   23.49   15.59
  -4   9  -6    4.83   19.10
  -4   9  -5  285.57   52.79
  -4   9  -5  406.96   70.49
  -4   9  -4   79.74   29.85
  -4   9  -4   37.48   24.81
  -4   9  -3   -8.15   14.10
  -4   9  -3   48.24   28.32
  -4   9  -2   36.44   29.80
  -4   9  -2   33.81   33.18
  -4   9  -1   60.70   23.43
  -4   9  -1   58.75   27.88
  -4   9   0   -1.95   12.27
  -4   9   0   30.51   31.47
  -4   9   0    6.28   19.40
  -4   9   1   49.78   21.65
  -4   9   1   31.42   23.30
  -4   9   1   54.25   30.51
  -4   9   2  120.82   35.89
  -4   9   2   94.97   36.96
  -4   9   2  137.89   42.15
  -4   9   3  -18.77   19.59
  -4   9   3    6.39   11.14
  -4   9   3   17.92   21.35
  -4   9   4   75.98   28.02
  -4   9   4   83.42   37.04
  -4   9   5  148.04   41.11
  -4  10  -4   52.77   35.37
  -4  10  -3   68.49   35.12
  -4  10  -2  -10.07   16.22
  -4  10  -1   98.37   44.84
  -4  10   0  172.32   48.73
  -4  10   1   36.88   27.82
  -4  10   2   32.49   27.66
  -4  10   3  -11.17   12.73
  -3 -10  -2   25.14   20.83
  -3 -10  -1  351.67   57.43
  -3 -10  -1  482.29   60.48
  -3 -10   0   92.88   30.57
  -3 -10   0   41.11   20.55
  -3 -10   1  116.76   33.01
  -3 -10   2  105.21   29.66
  -3 -10   3   54.11   21.84
  -3 -10   4   -8.18   11.28
  -3  -9  -8   68.93   29.50
  -3  -9  -5   66.02   22.83
  -3  -9  -4   31.67   17.92
  -3  -9  -3  200.23   41.98
  -3  -9  -2  177.10   36.55
  -3  -9  -2  127.60   32.46
  -3  -9  -1  255.77   48.60
  -3  -9  -1  239.69   42.78
  -3  -9   0  595.94   69.67
  -3  -9   0  569.08   61.85
  -3  -9   1  389.43   56.42
  -3  -9   1  425.02   53.29
  -3  -9   2   42.92   18.55
  -3  -9   2   61.08   23.79
  -3  -9   3  191.70   39.87
  -3  -9   3  161.29   32.65
  -3  -9   4  129.68   36.50
  -3  -9   4  129.38   31.50
  -3  -9   5   13.17   15.70
  -3  -9   6  203.17   39.82
  -3  -8 -10   89.54   30.02
  -3  -8  -9  -85.50   38.64
  -3  -8  -9   -7.82   17.53
  -3  -8  -8   21.87   20.42
  -3  -8  -8   48.76   21.46
  -3  -8  -7   -0.82    9.00
  -3  -8  -7   35.73   19.78
  -3  -8  -6    5.93   13.17
  -3  -8  -6   27.33   16.82
  -3  -8  -5  534.23   60.37
  -3  -8  -4  732.24   71.56
  -3  -8  -3   84.32   25.24
  -3  -8  -2  284.42   46.07
  -3  -8  -2  210.49   38.83
  -3  -8  -1   24.70   13.25
  -3  -8  -1   29.20   18.69
  -3  -8   0   27.99   14.85
  -3  -8   0   28.62    7.30
  -3  -8   0   32.90   17.70
  -3  -8   1  197.07   40.20
  -3  -8   1  244.08   27.44
  -3  -8   1  192.71   33.48
  -3  -8   2  560.85   63.91
  -3  -8   2  499.63   54.96
  -3  -8   2  567.49   48.65
  -3  -8   3   34.71   16.24
  -3  -8   3   61.80   22.50
  -3  -8   3   81.72   22.53
  -3  -8   4  512.44   59.24
  -3  -8   4  437.70   53.29
  -3  -8   4  486.92   57.02
  -3  -8   4  434.35   21.16
  -3  -8   5  495.87   59.96
  -3  -8   5  531.40   68.33
  -3  -8   5  471.39   58.97
  -3  -8   6   10.95   18.33
  -3  -8   7  194.22   38.20
  -3  -7 -11   44.95   34.88
  -3  -7 -10   72.77   34.16
  -3  -7 -10   71.70   34.27
  -3  -7  -9   48.21   28.98
  -3  -7  -9    1.04   14.54
  -3  -7  -8   16.33   16.08
  -3  -7  -8    2.28   16.27
  -3  -7  -8   24.50   14.19
  -3  -7  -7  184.92   40.17
  -3  -7  -7  169.44   38.06
  -3  -7  -7  119.34   26.64
  -3  -7  -6  758.14   73.79
  -3  -7  -6  657.90   63.41
  -3  -7  -5   88.99   27.00
  -3  -7  -5   74.80   24.15
  -3  -7  -4  410.67   48.68
  -3  -7  -4  431.96   53.21
  -3  -7  -3  206.24   37.35
  -3  -7  -2  324.31   45.44
  -3  -7  -2  321.82   43.03
  -3  -7  -1 1012.84   76.64
  -3  -7  -1 1032.90   71.23
  -3  -7   0  197.38   35.34
  -3  -7   0  175.26   16.60
  -3  -7   0  136.62   28.21
  -3  -7   1  204.59   36.28
  -3  -7   1  192.63   24.15
  -3  -7   1  196.66   32.16
  -3  -7   2   48.79   23.46
  -3  -7   2   33.56   16.66
  -3  -7   2   23.82   17.70
  -3  -7   3  713.28   61.71
  -3  -7   3  810.99   30.79
  -3  -7   4   74.39   27.49
  -3  -7   4   85.45   25.33
  -3  -7   4  114.34   29.61
  -3  -7   4  102.76   17.34
  -3  -7   5  155.20   30.76
  -3  -7   5  154.57   40.94
  -3  -7   5  113.63   20.39
  -3  -7   5  124.72   28.70
  -3  -7   6  634.96   62.29
  -3  -7   6  666.38   66.13
  -3  -7   6  571.63   47.28
  -3  -7   7   84.13   19.65
  -3  -7   7  118.87   31.45
  -3  -7   8  232.06   43.66
  -3  -7   8  228.22   37.76
  -3  -7   9  169.39   33.12
  -3  -6 -11   68.90   36.30
  -3  -6 -10    9.55    9.69
  -3  -6 -10  -22.01   26.01
  -3  -6  -9  -34.19   24.23
  -3  -6  -9  -18.93   13.91
  -3  -6  -9   23.57   24.72
  -3  -6  -8   93.63   29.47
  -3  -6  -8   74.72   20.22
  -3  -6  -8   80.37   27.88
  -3  -6  -8   83.61   26.29
  -3  -6  -7  -19.10   16.90
  -3  -6  -7    6.26    9.96
  -3  -6  -7  -24.97   21.16
  -3  -6  -7  -10.54    9.00
  -3  -6  -6  696.59   66.43
  -3  -6  -6  663.67   59.87
  -3  -6  -6  663.80   63.47
  -3  -6  -6  734.10   57.24
  -3  -6  -5 1334.38   83.01
  -3  -6  -5 1292.24   84.27
  -3  -6  -5 1247.62   67.06
  -3  -6  -4   44.59   19.92
  -3  -6  -4   26.37   14.35
  -3  -6  -4   48.54   12.46
  -3  -6  -3  564.80   53.78
  -3  -6  -3  490.74   46.37
  -3  -6  -3  476.88   31.78
  -3  -6  -2  467.14   48.79
  -3  -6  -2  345.03   40.80
  -3  -6  -2  414.59   22.12
  -3  -6  -1   82.32   24.09
  -3  -6  -1  104.05   22.56
  -3  -6   0  310.43   41.22
  -3  -6   0  325.00   37.89
  -3  -6   0  300.55   21.90
  -3  -6   1 1103.72   74.99
  -3  -6   1 1128.28   68.60
  -3  -6   1 1041.43   53.65
  -3  -6   2   77.38   24.78
  -3  -6   2   73.62   19.84
  -3  -6   2   79.91   22.72
  -3  -6   2   73.02   10.02
  -3  -6   3  287.00   39.16
  -3  -6   3  291.22   37.13
  -3  -6   3  297.04   25.14
  -3  -6   4  666.08   60.04
  -3  -6   4  639.33   55.92
  -3  -6   4  552.01   57.62
  -3  -6   4  570.23   40.28
  -3  -6   5  659.69   59.19
  -3  -6   5  685.70   68.90
  -3  -6   5  713.09   61.88
  -3  -6   6   20.44   12.73
  -3  -6   6   35.26   23.90
  -3  -6   6    4.72   13.34
  -3  -6   6   -4.91   11.11
  -3  -6   7  539.72   54.00
  -3  -6   7  552.89   60.09
  -3  -6   7  428.78   46.98
  -3  -6   8   32.08   15.39
  -3  -6   8   22.25   17.37
  -3  -6   9  172.63   36.11
  -3  -6   9   84.16   27.11
  -3  -6  10  132.01   31.80
  -3  -6  11   48.27   27.49
  -3  -5 -11   10.15   14.43
  -3  -5 -11   37.10   25.90
  -3  -5 -10   96.07   29.66
  -3  -5 -10  110.17   31.28
  -3  -5  -9    6.45   11.17
  -3  -5  -9   38.47   13.61
  -3  -5  -9    1.89    7.19
  -3  -5  -9   20.25   24.78
  -3  -5  -8  164.86   33.23
  -3  -5  -8  133.22   25.03
  -3  -5  -8  120.32   33.89
  -3  -5  -8  160.09   33.64
  -3  -5  -7  979.39   78.56
  -3  -5  -7 1006.17   66.49
  -3  -5  -7  989.85   79.49
  -3  -5  -7 1053.78   78.29
  -3  -5  -7 1037.21   74.28
  -3  -5  -6  168.51   32.74
  -3  -5  -6  208.82   30.07
  -3  -5  -6  171.28   35.18
  -3  -5  -6  207.69   32.08
  -3  -5  -5  736.33   59.44
  -3  -5  -5  639.35   52.99
  -3  -5  -5  659.28   57.29
  -3  -5  -5  676.43   49.91
  -3  -5  -4  154.16   28.07
  -3  -5  -4  214.14   31.72
  -3  -5  -4  175.40   22.64
  -3  -5  -3   43.57   14.95
  -3  -5  -3   52.90   15.48
  -3  -5  -3   48.73   11.77
  -3  -5  -2   98.73   18.28
  -3  -5  -2   82.38   19.70
  -3  -5  -2   70.96   11.36
  -3  -5  -1 2157.20   86.44
  -3  -5  -1 2273.63   48.46
  -3  -5   0  977.03   57.87
  -3  -5   0  947.26   38.00
  -3  -5   0  986.86   29.39
  -3  -5   1  435.42   45.22
  -3  -5   1  394.59   38.17
  -3  -5   1  370.52   31.09
  -3  -5   1  386.60   23.79
  -3  -5   2 1616.28   84.68
  -3  -5   2 1482.67   71.89
  -3  -5   2 1564.66   75.10
  -3  -5   2 1571.63   55.54
  -3  -5   3  327.61   39.27
  -3  -5   3  331.53   36.82
  -3  -5   3  310.59   29.77
  -3  -5   4  242.05   34.14
  -3  -5   4  199.65   30.62
  -3  -5   4  169.55   31.75
  -3  -5   4  197.82   28.81
  -3  -5   5  575.61   51.12
  -3  -5   5  465.63   48.21
  -3  -5   5  504.73   59.16
  -3  -5   6   75.79   21.54
  -3  -5   6  106.41   34.90
  -3  -5   6  114.62   26.70
  -3  -5   6  113.35   26.73
  -3  -5   7  159.76   27.41
  -3  -5   7  169.09   32.57
  -3  -5   7  117.99   29.00
  -3  -5   8  365.86   38.20
  -3  -5   8  360.70   48.08
  -3  -5   8  325.00   47.06
  -3  -5   9  149.44   35.23
  -3  -5   9   48.27   24.09
  -3  -5  10  -16.93   16.82
  -3  -5  10   11.11   12.49
  -3  -5  11   -1.92   33.72
  -3  -4 -12   61.47   32.27
  -3  -4 -12   61.93   26.32
  -3  -4 -11   14.54   13.86
  -3  -4 -11   -2.50   30.51
  -3  -4 -10   -3.79   11.22
  -3  -4 -10   -1.65   14.52
  -3  -4 -10  -12.43   21.27
  -3  -4 -10    1.59    3.79
  -3  -4  -9  308.12   41.79
  -3  -4  -9  350.38   50.65
  -3  -4  -9  344.02   53.65
  -3  -4  -8  289.90   40.61
  -3  -4  -8  421.42   51.31
  -3  -4  -8  319.57   50.87
  -3  -4  -8  383.58   48.46
  -3  -4  -8  370.19   49.20
  -3  -4  -7  860.66   70.27
  -3  -4  -7  890.68   73.37
  -3  -4  -7  786.08   63.47
  -3  -4  -7  773.29   65.17
  -3  -4  -6 1090.61   72.50
  -3  -4  -6  925.88   69.31
  -3  -4  -6 1084.93   69.29
  -3  -4  -6 1022.53   67.42
  -3  -4  -5   26.70   13.80
  -3  -4  -5   37.32   12.84
  -3  -4  -5   57.76   21.65
  -3  -4  -5   28.98   13.31
  -3  -4  -5   30.32   11.44
  -3  -4  -4  200.18   27.52
  -3  -4  -4  236.09   29.77
  -3  -4  -4  245.04   33.04
  -3  -4  -4  236.64   26.97
  -3  -4  -3  967.65   54.06
  -3  -4  -3  918.20   57.05
  -3  -4  -3  971.90   46.51
  -3  -4  -2  506.35   41.49
  -3  -4  -2  475.15   34.49
  -3  -4  -2  540.21   41.19
  -3  -4  -2  480.17   28.92
  -3  -4  -1  141.10   17.18
  -3  -4  -1  130.23   13.39
  -3  -4  -1  130.34   20.22
  -3  -4   0  377.60   33.37
  -3  -4   0  376.09   21.95
  -3  -4   1  969.90   52.36
  -3  -4   2  106.58   21.65
  -3  -4   2   95.46   18.41
  -3  -4   3 3080.75  107.78
  -3  -4   3 2859.50   96.01
  -3  -4   3 2881.48   93.27
  -3  -4   4 2392.80   95.77
  -3  -4   4 2456.38   93.65
  -3  -4   5  101.25   22.12
  -3  -4   5   95.74   21.02
  -3  -4   6  728.84   51.75
  -3  -4   6  745.08   58.80
  -3  -4   6  636.36   58.83
  -3  -4   7   12.21    8.34
  -3  -4   7  -10.92   20.06
  -3  -4   7    5.82   12.84
  -3  -4   8  175.37   25.27
  -3  -4   8  131.96   34.74
  -3  -4   9   81.66   29.75
  -3  -4  10  205.09   47.50
  -3  -4  11  -14.30   20.39
  -3  -3 -12    8.18   22.17
  -3  -3 -12  -28.76   30.49
  -3  -3 -11   18.22   12.62
  -3  -3 -11    8.12   17.75
  -3  -3 -11   28.78   23.16
  -3  -3 -10   29.17   22.78
  -3  -3 -10   12.84   10.98
  -3  -3 -10   21.07    7.44
  -3  -3 -10   11.42   21.65
  -3  -3  -9  387.95   50.71
  -3  -3  -9  463.19   55.79
  -3  -3  -9  462.80   35.15
  -3  -3  -9  419.92   56.09
  -3  -3  -9  417.99   51.89
  -3  -3  -8 1589.80   92.39
  -3  -3  -8 1722.96  100.02
  -3  -3  -8 1884.58   74.97
  -3  -3  -8 1728.59  105.51
  -3  -3  -8 1913.67  100.87
  -3  -3  -8 1814.64  105.15
  -3  -3  -7  799.77   63.91
  -3  -3  -7  836.54   51.97
  -3  -3  -7  748.07   65.28
  -3  -3  -7  876.05   62.87
  -3  -3  -7  780.04   63.88
  -3  -3  -6   60.78   22.01
  -3  -3  -6   83.58   18.44
  -3  -3  -6   51.07   18.22
  -3  -3  -6   69.26   18.74
  -3  -3  -6   49.83   15.50
  -3  -3  -5  656.28   46.18
  -3  -3  -5  716.02   52.16
  -3  -3  -5  644.43   50.98
  -3  -3  -5  658.04   49.04
  -3  -3  -5  691.76   46.73
  -3  -3  -4  106.06   18.44
  -3  -3  -4   91.43   18.19
  -3  -3  -4   89.73   19.18
  -3  -3  -4   95.08   16.05
  -3  -3  -4   85.45   16.33
  -3  -3  -3  643.36   40.01
  -3  -3  -3  587.57   45.03
  -3  -3  -3  609.75   44.75
  -3  -3  -3  621.05   37.68
  -3  -3  -2  818.29   51.48
  -3  -3  -2  878.88   41.19
  -3  -3  -2  871.25   46.65
  -3  -3  -2  888.70   26.92
  -3  -3  -2  851.33   39.29
  -3  -3  -1  452.35   24.89
  -3  -3  -1  427.13   20.53
  -3  -3  -1  456.66   32.68
  -3  -3  -1  422.47   25.55
  -3  -3   0  714.05   39.57
  -3  -3   1 1085.31   58.97
  -3  -3   1 1149.55   50.71
  -3  -3   2 2290.86   85.50
  -3  -3   2 2311.85   74.31
  -3  -3   3  672.61   47.22
  -3  -3   3  664.71   42.72
  -3  -3   4 1975.03   79.91
  -3  -3   4 1931.70   76.91
  -3  -3   5 1251.08   63.30
  -3  -3   5 1142.99   74.53
  -3  -3   6  262.99   28.46
  -3  -3   6  269.46   40.64
  -3  -3   7  498.45   38.36
  -3  -3   7  384.57   51.61
  -3  -3   8   66.98   13.42
  -3  -3   8   39.29   23.90
  -3  -3   9   -9.03   14.95
  -3  -3  10  146.53   40.56
  -3  -3  11  128.97   37.40
  -3  -2 -12   97.30   29.33
  -3  -2 -12   54.33   32.02
  -3  -2 -11    6.17   14.35
  -3  -2 -11  -29.80   23.35
  -3  -2 -10  260.96   45.08
  -3  -2 -10  210.49   39.49
  -3  -2 -10  280.96   22.61
  -3  -2 -10  250.69   46.29
  -3  -2  -9  129.00   31.01
  -3  -2  -9  207.15   36.11
  -3  -2  -9  195.76   22.39
  -3  -2  -9  168.98   39.60
  -3  -2  -9  191.12   34.11
  -3  -2  -8  375.38   46.54
  -3  -2  -8  361.00   45.69
  -3  -2  -8  430.10   34.11
  -3  -2  -8  359.05   48.95
  -3  -2  -8  450.02   53.07
  -3  -2  -8  448.65   47.22
  -3  -2  -7  680.18   58.69
  -3  -2  -7  597.51   40.91
  -3  -2  -7  628.43   56.09
  -3  -2  -7  640.20   59.87
  -3  -2  -7  659.99   57.71
  -3  -2  -7  616.44   50.19
  -3  -2  -6  107.35   18.74
  -3  -2  -6   84.30   20.50
  -3  -2  -6  116.35   20.03
  -3  -2  -6  100.05   22.89
  -3  -2  -5    5.24    8.26
  -3  -2  -5   18.63   10.95
  -3  -2  -5   -9.22   10.26
  -3  -2  -5   20.99   10.78
  -3  -2  -5   22.01    7.88
  -3  -2  -4 2593.44   96.70
  -3  -2  -4 2559.23   83.83
  -3  -2  -4 2685.12   82.16
  -3  -2  -4 2477.95   83.86
  -3  -2  -4 2508.00   72.72
  -3  -2  -3 4034.32   92.58
  -3  -2  -3 3853.90  113.25
  -3  -2  -3 4100.23   88.88
  -3  -2  -3 4071.83   77.08
  -3  -2  -3 4105.34   96.29
  -3  -2  -2   64.05   10.67
  -3  -2  -2   43.41   12.59
  -3  -2  -2   65.25   11.80
  -3  -2  -2   55.54   12.43
  -3  -2  -1  875.94   29.39
  -3  -2  -1 1026.04   41.87
  -3  -2  -1  943.09   37.37
  -3  -2  -1  946.57   40.56
  -3  -2   0   10.73    7.44
  -3  -2   0    6.50    5.57
  -3  -2   1   14.63    7.74
  -3  -2   2 3517.10   80.78
  -3  -2   3 2610.92   84.49
  -3  -2   3 2517.54   74.83
  -3  -2   4   13.01    8.40
  -3  -2   5  831.19   48.24
  -3  -2   5  866.59   66.21
  -3  -2   6  356.83   31.50
  -3  -2   6  411.38   48.76
  -3  -2   7   78.67   15.20
  -3  -2   7   62.92   25.66
  -3  -2   8  105.45   14.85
  -3  -2   8  135.47   36.03
  -3  -2   9  143.13   39.79
  -3  -2  10  -22.50   16.52
  -3  -2  11   57.62   34.96
  -3  -1 -13  -10.37   29.11
  -3  -1 -12   57.62   24.06
  -3  -1 -12   71.26   27.33
  -3  -1 -11  199.11   42.23
  -3  -1 -11  211.32   43.57
  -3  -1 -10  219.58   40.50
  -3  -1 -10  177.45   37.89
  -3  -1 -10  162.45   16.33
  -3  -1 -10  200.18   41.93
  -3  -1  -9 1235.49   89.73
  -3  -1  -9 1251.24   87.81
  -3  -1  -9 1168.37   49.50
  -3  -1  -9 1295.99   93.85
  -3  -1  -9 1333.62   85.34
  -3  -1  -8  232.66   37.70
  -3  -1  -8  250.80   41.49
  -3  -1  -8  250.20   25.46
  -3  -1  -8  202.10   38.69
  -3  -1  -8  254.51   40.20
  -3  -1  -8  268.50   36.77
  -3  -1  -7    4.53   10.51
  -3  -1  -7   -0.36   11.42
  -3  -1  -7   -1.07   12.92
  -3  -1  -7   18.11   10.29
  -3  -1  -7    0.47    7.55
  -3  -1  -6  428.78   41.08
  -3  -1  -6  421.12   42.86
  -3  -1  -6  387.21   34.33
  -3  -1  -5  284.77   32.41
  -3  -1  -5  275.47   33.75
  -3  -1  -5  308.76   36.47
  -3  -1  -5  305.13   33.12
  -3  -1  -5  254.97   25.11
  -3  -1  -4    5.65    8.15
  -3  -1  -4    0.27   10.84
  -3  -1  -4    3.84   10.89
  -3  -1  -4    3.76    5.79
  -3  -1  -3 1098.51   52.90
  -3  -1  -3 1177.07   56.44
  -3  -1  -3 1118.70   51.78
  -3  -1  -3 1076.89   35.89
  -3  -1  -2  795.68   42.67
  -3  -1  -2  811.35   20.69
  -3  -1  -2  801.61   40.94
  -3  -1  -1  240.07   23.30
  -3  -1   0 4529.12   66.90
  -3  -1   0 4405.53   95.49
  -3  -1   1 8258.56  146.78
  -3  -1   1 8156.84   70.22
  -3  -1   1 8127.23   96.70
  -3  -1   2  757.92   27.00
  -3  -1   2  839.69   34.79
  -3  -1   3 1623.46   48.76
  -3  -1   5  464.04   49.97
  -3  -1   6  371.43   30.24
  -3  -1   6  356.89   47.72
  -3  -1   7  391.71   28.15
  -3  -1   7  290.78   47.83
  -3  -1   8  247.51   19.13
  -3  -1   8  228.60   44.23
  -3  -1   9   44.15   24.15
  -3  -1  10  168.98   46.10
  -3  -1  11   -8.84   27.33
  -3   0 -13   77.46   33.26
  -3   0 -13  -49.34   28.18
  -3   0 -12  -15.92   17.10
  -3   0 -12  -15.72   23.98
  -3   0 -11  401.23   55.24
  -3   0 -11  280.05   49.58
  -3   0 -10  362.35   24.61
  -3   0 -10  362.24   52.38
  -3   0 -10  378.73   54.06
  -3   0  -9   -1.15   17.18
  -3   0  -9   11.58   16.55
  -3   0  -9   31.34   18.06
  -3   0  -9    4.53   12.21
  -3   0  -8  647.23   63.06
  -3   0  -8  718.52   63.96
  -3   0  -8  679.36   63.55
  -3   0  -8  638.04   61.82
  -3   0  -7  235.66   37.89
  -3   0  -7  222.43   33.26
  -3   0  -7  226.68   34.99
  -3   0  -6   76.64   22.42
  -3   0  -6   66.30   19.73
  -3   0  -6  112.83   28.92
  -3   0  -6  106.11   23.57
  -3   0  -5 2136.21   86.82
  -3   0  -5 2087.53   94.67
  -3   0  -5 1966.49   82.90
  -3   0  -4 1642.59   69.86
  -3   0  -4 1486.26   74.25
  -3   0  -4 1510.93   66.32
  -3   0  -3    2.11   12.43
  -3   0  -3    0.66    6.28
  -3   0  -3    5.24    7.90
  -3   0  -2  216.72   21.05
  -3   0  -2  187.96   25.27
  -3   0  -2  190.79   20.91
  -3   0  -1 1007.87   52.25
  -3   0  -1 1027.22   51.53
  -3   0   0 2011.99   69.78
  -3   0   0 2110.83   29.36
  -3   0   0 1984.93   71.10
  -3   0   0 2130.78   47.11
  -3   0   1 3562.44   90.33
  -3   0   1 3636.36   48.76
  -3   0   1 3588.04   99.66
  -3   0   1 3677.11   75.30
  -3   0   2 7851.95  136.08
  -3   0   2 7542.70  110.80
  -3   0   3    7.49    7.08
  -3   0   4  866.50   46.18
  -3   0   5  416.76   35.43
  -3   0   5  416.10   48.82
  -3   0   6   14.90   17.81
  -3   0   7   90.74   26.48
  -3   0   8  146.17   14.93
  -3   0   8  185.00   43.38
  -3   0   9   39.16   31.47
  -3   0  10  -11.99   22.72
  -3   0  11  166.51   48.24
  -3   1 -13   52.36   19.70
  -3   1 -13   28.43   28.84
  -3   1 -12  110.31   35.15
  -3   1 -12   82.21   34.57
  -3   1 -11   52.58   21.51
  -3   1 -11   40.75   30.07
  -3   1 -10  373.68   53.51
  -3   1 -10  293.22   50.43
  -3   1  -9  240.21   43.93
  -3   1  -9  284.22   44.32
  -3   1  -8  101.39   30.60
  -3   1  -8   93.13   21.76
  -3   1  -8  112.70   27.77
  -3   1  -7  455.07   51.61
  -3   1  -7  605.68   55.13
  -3   1  -7  592.38   54.80
  -3   1  -6 2759.57  106.03
  -3   1  -6 2829.84  125.15
  -3   1  -6 2815.79  108.47
  -3   1  -5   88.36   27.71
  -3   1  -5  102.16   20.69
  -3   1  -5  128.31   23.10
  -3   1  -4  472.44   36.22
  -3   1  -4  495.16   47.97
  -3   1  -4  471.75   38.94
  -3   1  -3  131.49   18.11
  -3   1  -3  175.34   28.48
  -3   1  -3  154.76   21.16
  -3   1  -2  145.35   21.73
  -3   1  -2  183.60   17.53
  -3   1  -2  144.50   24.83
  -3   1  -2  169.94   21.62
  -3   1  -1 1512.85   63.69
  -3   1  -1 1401.06   66.84
  -3   1   0 6407.56  123.18
  -3   1   0 6348.65  139.07
  -3   1   0 6383.91  106.44
  -3   1   1  922.01   43.96
  -3   1   1  867.82   43.19
  -3   1   1 1026.07   57.43
  -3   1   1  954.97   45.52
  -3   1   2  225.80   21.35
  -3   1   2  233.71   23.32
  -3   1   2  286.50   32.93
  -3   1   2  254.56   26.59
  -3   1   3 1068.96   52.96
  -3   1   3 1124.71   59.27
  -3   1   4   21.05    7.90
  -3   1   6  757.65   56.28
  -3   1   6  664.21   67.91
  -3   1   7  112.67   25.30
  -3   1   7  106.33   27.36
  -3   1   8   74.61   24.04
  -3   1   8   50.30   27.19
  -3   1   9  136.98   38.25
  -3   1  10   65.94   30.60
  -3   2 -13   20.99   20.22
  -3   2 -12  243.91   48.68
  -3   2 -12  258.16   49.56
  -3   2 -11  282.08   47.94
  -3   2 -11  237.58   46.79
  -3   2 -10    4.12    5.38
  -3   2 -10    5.27   19.98
  -3   2  -9   55.21   19.76
  -3   2  -8  348.08   49.45
  -3   2  -8  375.41   46.95
  -3   2  -8  393.19   49.64
  -3   2  -7    6.83   16.57
  -3   2  -7    1.15   13.31
  -3   2  -7   20.25   18.28
  -3   2  -7    1.32    7.93
  -3   2  -6  876.63   74.50
  -3   2  -6  828.42   58.06
  -3   2  -6  766.43   57.76
  -3   2  -5 1903.49  102.43
  -3   2  -5 2080.81   82.51
  -3   2  -5 1958.65   85.12
  -3   2  -4 1868.12   68.90
  -3   2  -4 1791.37   95.60
  -3   2  -4 1758.14   75.08
  -3   2  -3   58.37   15.01
  -3   2  -3   61.08   11.85
  -3   2  -3   40.34   18.60
  -3   2  -3   61.03   14.98
  -3   2  -2 1824.60   75.79
  -3   2  -2 1817.00   47.44
  -3   2  -2 1797.65   85.28
  -3   2  -2 1814.15   68.27
  -3   2  -1  552.26   39.18
  -3   2  -1  522.62   47.36
  -3   2   0 2213.45   73.65
  -3   2   0 2241.17   90.85
  -3   2   0 1976.12   70.41
  -3   2   1 2906.56   92.39
  -3   2   1 3195.89   79.91
  -3   2   1 3075.43   47.09
  -3   2   1 3085.80  106.82
  -3   2   1 3184.81   93.98
  -3   2   2    4.25    6.64
  -3   2   2    1.10    3.81
  -3   2   2   -1.95   14.49
  -3   2   2  -16.88   11.74
  -3   2   3  469.80   46.24
  -3   2   4  623.14   52.05
  -3   2   5  749.20   56.17
  -3   2   5  769.47   61.14
  -3   2   6   14.35   12.92
  -3   2   6   -0.36   14.05
  -3   2   7  111.60   24.94
  -3   2   7  159.18   36.50
  -3   2   8   55.95   11.42
  -3   2   8   55.40   21.32
  -3   2   9    4.77   17.78
  -3   2  10  104.19   38.66
  -3   3 -13   67.26   27.99
  -3   3 -12    0.16   21.13
  -3   3 -12    2.22   19.92
  -3   3 -11   88.52   28.32
  -3   3 -10  384.30   35.43
  -3   3 -10  326.62   51.53
  -3   3  -9   34.05   18.36
  -3   3  -8  556.43   55.76
  -3   3  -8  654.36   62.84
  -3   3  -7  445.22   55.62
  -3   3  -7  384.60   58.01
  -3   3  -7  341.41   40.42
  -3   3  -7  411.68   46.29
  -3   3  -6   63.77   19.24
  -3   3  -6   54.22   28.48
  -3   3  -6   49.36   14.79
  -3   3  -6   70.14   18.85
  -3   3  -5   17.42   10.15
  -3   3  -5   -2.63   10.73
  -3   3  -5   -0.52   11.94
  -3   3  -4  332.27   39.60
  -3   3  -4  324.09   28.07
  -3   3  -4  316.38   45.17
  -3   3  -4  316.93   33.37
  -3   3  -3 2530.88   99.66
  -3   3  -3 2613.80   65.69
  -3   3  -3 2669.40  117.17
  -3   3  -3 2428.23   85.45
  -3   3  -2   59.02   16.16
  -3   3  -2   52.88   13.50
  -3   3  -2   48.60    7.41
  -3   3  -2   63.30   26.18
  -3   3  -1 5466.89  126.75
  -3   3  -1 5470.37  155.80
  -3   3   0  472.05   34.79
  -3   3   0  448.10   22.23
  -3   3   0  532.61   49.86
  -3   3   1 1327.66   52.33
  -3   3   1 1279.75   40.01
  -3   3   1 1343.60   77.02
  -3   3   1 1391.95   65.01
  -3   3   1 1440.63   67.56
  -3   3   2  861.95   36.22
  -3   3   2  825.42   35.75
  -3   3   2  829.49   62.12
  -3   3   3  290.54   35.53
  -3   3   3  284.33   24.26
  -3   3   3  325.63   41.96
  -3   3   3  284.64   36.96
  -3   3   4  105.29   21.73
  -3   3   4  145.71   30.84
  -3   3   5  316.22   39.82
  -3   3   5  319.51   43.44
  -3   3   6  141.07   28.13
  -3   3   6  106.33   26.67
  -3   3   6   62.84   25.38
  -3   3   7   -3.16    9.11
  -3   3   7    3.48   15.72
  -3   3   8  102.57   19.21
  -3   3   8   81.96   30.40
  -3   3   9  349.48   59.82
  -3   3  10   -9.80   10.78
  -3   4 -12  142.50   39.05
  -3   4 -11  134.21   33.64
  -3   4 -10   28.29   13.42
  -3   4 -10    3.68   13.20
  -3   4  -9  306.48   36.82
  -3   4  -9  349.01   49.23
  -3   4  -8   53.10   19.98
  -3   4  -8   31.25   25.77
  -3   4  -8   75.10   26.75
  -3   4  -7  570.15   52.60
  -3   4  -7  584.89   70.63
  -3   4  -7  646.46   58.15
  -3   4  -6  512.94   58.04
  -3   4  -6  543.45   67.86
  -3   4  -6  511.46   45.00
  -3   4  -6  483.41   47.75
  -3   4  -5   74.06   22.91
  -3   4  -5   84.98   19.56
  -3   4  -5   76.56   18.55
  -3   4  -5  103.89   35.56
  -3   4  -5   81.66   17.31
  -3   4  -5  132.54   24.61
  -3   4  -4   -1.48    5.71
  -3   4  -4   -0.74    8.67
  -3   4  -4   11.52    9.14
  -3   4  -4    1.40   20.06
  -3   4  -4    9.63    5.02
  -3   4  -4   13.75   11.72
  -3   4  -3 1384.63   78.18
  -3   4  -3 1423.34   72.19
  -3   4  -3 1457.56   74.55
  -3   4  -3 1481.19   44.89
  -3   4  -3 1351.75   66.38
  -3   4  -2 1593.45   77.90
  -3   4  -2 1724.86   97.03
  -3   4  -2 1662.10   69.75
  -3   4  -1    6.34    4.72
  -3   4  -1   -6.70   13.86
  -3   4   0  833.60   48.40
  -3   4   0  876.00   37.95
  -3   4   0  783.00   64.62
  -3   4   1  385.73   29.88
  -3   4   1  418.32   44.54
  -3   4   1  386.41   38.42
  -3   4   1  402.49   40.72
  -3   4   1  398.29   26.37
  -3   4   1  394.37   46.70
  -3   4   1  409.52   43.99
  -3   4   2  359.74   23.54
  -3   4   2  339.19   40.09
  -3   4   2  366.35   36.77
  -3   4   2  376.40   38.50
  -3   4   2  336.44   26.21
  -3   4   2  379.88   46.57
  -3   4   2  312.02   39.87
  -3   4   3 1451.50   84.43
  -3   4   3 1433.99   72.06
  -3   4   3 1486.13   75.43
  -3   4   3 1467.58   58.75
  -3   4   3 1520.07   91.18
  -3   4   3 1471.36   86.08
  -3   4   4  459.15   48.84
  -3   4   4  415.17   34.77
  -3   4   4  433.47   51.72
  -3   4   4  444.25   49.78
  -3   4   5   10.78   10.02
  -3   4   5   -4.83   16.08
  -3   4   5    4.72    5.87
  -3   4   5   20.94   12.59
  -3   4   5   -1.23   13.47
  -3   4   6    9.03   18.96
  -3   4   6   36.36   22.45
  -3   4   6   12.18   14.90
  -3   4   7   60.97   17.51
  -3   4   7   86.60   27.41
  -3   4   7   77.55   26.95
  -3   4   8   14.10   19.67
  -3   4   8   29.42   18.60
  -3   4   9  123.23   39.95
  -3   4  10   91.84   31.28
  -3   5 -12  -20.55   19.13
  -3   5 -11   10.43   21.10
  -3   5 -10   49.17   21.18
  -3   5  -9  142.94   30.05
  -3   5  -8  677.47   59.22
  -3   5  -8  835.11   89.89
  -3   5  -7  497.27   47.42
  -3   5  -7  424.03   43.90
  -3   5  -7  521.91   69.15
  -3   5  -7  446.70   51.51
  -3   5  -6  225.42   31.97
  -3   5  -6  184.53   30.95
  -3   5  -6  249.40   48.51
  -3   5  -6  173.45   30.46
  -3   5  -5  536.59   48.38
  -3   5  -5  508.41   48.18
  -3   5  -5  468.40   38.22
  -3   5  -5  488.90   65.42
  -3   5  -5  504.46   46.59
  -3   5  -4  287.79   40.45
  -3   5  -4  284.11   37.10
  -3   5  -4  304.45   36.77
  -3   5  -4  304.86   26.78
  -3   5  -4  341.24   53.45
  -3   5  -4  309.44   34.93
  -3   5  -3  636.61   57.27
  -3   5  -3  579.48   51.23
  -3   5  -3  618.94   51.89
  -3   5  -3  603.02   25.90
  -3   5  -3  643.83   69.15
  -3   5  -3  623.85   46.21
  -3   5  -2 1210.77   72.17
  -3   5  -2 1151.74   72.14
  -3   5  -2 1289.05   75.13
  -3   5  -2 1332.41   91.76
  -3   5  -2 1225.09   63.19
  -3   5  -1  408.86   38.66
  -3   5  -1  412.67   43.85
  -3   5  -1  445.93   43.77
  -3   5  -1  481.88   55.59
  -3   5  -1  440.66   38.39
  -3   5   0   -8.67    5.19
  -3   5   0    8.07   14.87
  -3   5   0  -13.91   10.67
  -3   5   0    2.72   22.45
  -3   5   0   -6.45    5.68
  -3   5   1  642.45   40.53
  -3   5   1  724.77   63.77
  -3   5   1  803.28   61.08
  -3   5   1  689.60   54.58
  -3   5   1  710.92   40.69
  -3   5   1  766.73   68.27
  -3   5   1  663.61   59.68
  -3   5   2  795.54   35.81
  -3   5   2  775.07   66.82
  -3   5   2  716.95   56.86
  -3   5   2  694.87   54.91
  -3   5   2  653.65   40.83
  -3   5   2  859.83   72.61
  -3   5   2  862.44   68.93
  -3   5   3   31.94   15.97
  -3   5   3   33.92   14.74
  -3   5   3   56.69   19.46
  -3   5   3   42.86   22.72
  -3   5   3   38.96   12.21
  -3   5   3   20.25   14.79
  -3   5   4  161.35   27.14
  -3   5   4  118.93   22.53
  -3   5   4  150.95   31.50
  -3   5   4  149.00   22.06
  -3   5   4  149.44   34.52
  -3   5   5   50.22   18.77
  -3   5   5   59.60   23.74
  -3   5   5   61.99   16.19
  -3   5   5   54.14   19.48
  -3   5   5   44.62   22.69
  -3   5   6  -18.03   12.24
  -3   5   6    6.72   19.67
  -3   5   6    1.95    4.09
  -3   5   6   15.67   13.50
  -3   5   6   -2.80   23.38
  -3   5   7  101.45   23.52
  -3   5   7  119.58   30.65
  -3   5   7   70.36   18.77
  -3   5   7   55.35   27.25
  -3   5   7   93.60   29.58
  -3   5   8  190.63   43.27
  -3   5   8  234.97   45.66
  -3   5   8  249.02   49.20
  -3   5   9   -1.84   23.21
  -3   5   9  -28.04   16.77
  -3   5  10  110.94   37.59
  -3   6 -12   84.98   34.90
  -3   6 -11   14.43   17.04
  -3   6 -10   82.43   23.79
  -3   6  -8  -28.46   26.62
  -3   6  -7  366.57   44.40
  -3   6  -7  458.50   68.55
  -3   6  -7  360.51   46.15
  -3   6  -6  989.82   72.96
  -3   6  -6  999.89   71.43
  -3   6  -5  183.57   31.20
  -3   6  -5  157.75   41.00
  -3   6  -5  165.93   22.75
  -3   6  -5  178.80   28.62
  -3   6  -4  571.03   55.76
  -3   6  -4  537.55   52.68
  -3   6  -4  562.47   33.59
  -3   6  -4  549.65   70.85
  -3   6  -4  501.25   45.36
  -3   6  -3  926.05   71.15
  -3   6  -3  912.63   70.03
  -3   6  -3  863.29   66.35
  -3   6  -3  939.74   86.22
  -3   6  -3  942.84   24.61
  -3   6  -3  961.86   58.91
  -3   6  -2   46.73   15.50
  -3   6  -2   48.65   16.52
  -3   6  -2   77.85   22.06
  -3   6  -2   40.12   30.49
  -3   6  -2   42.39   13.20
  -3   6  -1  611.42   50.33
  -3   6  -1  648.77   59.60
  -3   6  -1  704.55   60.62
  -3   6  -1  686.44   71.51
  -3   6  -1  640.81   46.62
  -3   6   0   36.50   14.08
  -3   6   0   75.41   23.68
  -3   6   0   95.96   23.74
  -3   6   0   74.31   29.66
  -3   6   0   57.95   13.42
  -3   6   1   86.19   15.89
  -3   6   1   91.24   25.52
  -3   6   1   52.49   16.90
  -3   6   1   51.64   26.78
  -3   6   1   72.77   15.28
  -3   6   1   63.30   26.70
  -3   6   2  550.20   31.39
  -3   6   2  518.95   53.56
  -3   6   2  576.76   53.59
  -3   6   2  506.65   60.59
  -3   6   2  445.27   37.04
  -3   6   2  511.78   59.00
  -3   6   3  427.00   49.61
  -3   6   3  494.61   51.40
  -3   6   3  458.25   39.24
  -3   6   3  516.34   62.29
  -3   6   3  439.48   56.83
  -3   6   4  140.85   27.93
  -3   6   4   84.43   26.92
  -3   6   4   83.58   19.32
  -3   6   4  136.05   34.79
  -3   6   5  -13.88    9.16
  -3   6   5  -15.86   21.81
  -3   6   5   14.27    8.89
  -3   6   5    8.56    9.82
  -3   6   5    2.47    4.39
  -3   6   6  135.55   36.39
  -3   6   6  173.15   28.04
  -3   6   6  152.68   38.36
  -3   6   6  144.66   33.53
  -3   6   7   76.83   32.98
  -3   6   7   91.07   30.49
  -3   6   7    7.33   16.44
  -3   6   8   11.55   16.44
  -3   6   8   66.65   26.32
  -3   6   8   61.36   29.72
  -3   6   9   53.01   27.33
  -3   6   9   57.65   30.16
  -3   7 -11  -24.92   19.18
  -3   7 -10   74.50   22.50
  -3   7  -8   67.75   21.02
  -3   7  -8   63.77   25.55
  -3   7  -7    3.79   12.81
  -3   7  -7   28.10   22.80
  -3   7  -7   -4.72   14.13
  -3   7  -6   55.46   21.38
  -3   7  -6   55.18   26.97
  -3   7  -6   62.18   21.76
  -3   7  -5  516.26   57.90
  -3   7  -5  659.85   42.04
  -3   7  -5  571.99   73.81
  -3   7  -5  619.35   53.45
  -3   7  -4   34.52   17.20
  -3   7  -4   53.45   26.64
  -3   7  -4   41.13    9.19
  -3   7  -4   37.81   13.64
  -3   7  -3  300.19   45.36
  -3   7  -3  298.30   43.99
  -3   7  -3  364.65   57.71
  -3   7  -3  334.06   35.78
  -3   7  -2  502.13   52.99
  -3   7  -2  529.18   56.97
  -3   7  -2  518.21   65.50
  -3   7  -2  462.45   42.23
  -3   7  -1   17.42   10.24
  -3   7  -1   19.67   12.95
  -3   7  -1   18.33   19.29
  -3   7  -1   27.91   22.47
  -3   7   0  671.38   51.78
  -3   7   0  614.55   62.78
  -3   7   0  651.59   71.92
  -3   7   0  582.53   45.14
  -3   7   0  572.95   46.18
  -3   7   1  548.01   41.74
  -3   7   1  603.52   61.49
  -3   7   1  456.96   40.17
  -3   7   1  582.61   68.60
  -3   7   1  530.39   63.06
  -3   7   2    8.95    5.32
  -3   7   2  -15.31   15.28
  -3   7   2  -12.16   12.07
  -3   7   2   -2.25    7.57
  -3   7   2  -16.03   17.23
  -3   7   3   13.31   13.88
  -3   7   3   18.77   19.56
  -3   7   3    1.23    5.79
  -3   7   3   12.65   16.52
  -3   7   4   28.78   15.59
  -3   7   4   41.16   27.03
  -3   7   4   44.32   26.01
  -3   7   4   54.83   17.53
  -3   7   4   41.00   21.02
  -3   7   5   51.78   17.29
  -3   7   5   48.95   27.91
  -3   7   5   56.66   23.63
  -3   7   5   52.93   26.84
  -3   7   6   61.52   20.33
  -3   7   6   79.96   26.37
  -3   7   6   49.91   21.57
  -3   7   6   78.59   26.89
  -3   7   7  168.54   42.39
  -3   7   7  228.22   45.17
  -3   7   7  195.70   48.18
  -3   7   8   50.33   22.94
  -3   7   8   -2.25    7.93
  -3   7   9  -46.18   22.14
  -3   8  -9  -17.51   12.07
  -3   8  -8  137.75   31.67
  -3   8  -8   49.09   29.11
  -3   8  -7  190.57   36.91
  -3   8  -7  192.57   58.04
  -3   8  -6    6.72   10.54
  -3   8  -6  -31.45   23.19
  -3   8  -5  143.90   33.92
  -3   8  -5  193.95   47.61
  -3   8  -5  145.93   26.73
  -3   8  -4  237.00   40.28
  -3   8  -4  181.79   42.59
  -3   8  -4  192.16   29.64
  -3   8  -3  138.82   32.96
  -3   8  -3   83.86   33.83
  -3   8  -3   62.92   16.93
  -3   8  -2   17.51   10.89
  -3   8  -2   66.98   23.41
  -3   8  -2   66.60   32.16
  -3   8  -2   82.57   17.53
  -3   8  -1  398.98   46.13
  -3   8  -1  382.40   53.18
  -3   8  -1  345.17   57.24
  -3   8  -1  365.80   38.36
  -3   8   0    7.88   10.62
  -3   8   0   10.51    8.64
  -3   8   0  -10.21   16.08
  -3   8   0   15.67   26.01
  -3   8   0    3.43    5.95
  -3   8   1  117.86   32.16
  -3   8   1  130.83   37.78
  -3   8   1   97.80   21.02
  -3   8   1  158.91   41.82
  -3   8   2  219.49   39.65
  -3   8   2  205.11   47.00
  -3   8   2  168.54   28.65
  -3   8   2  230.36   47.58
  -3   8   3   45.41   24.42
  -3   8   3   34.03   24.92
  -3   8   3   66.38   21.71
  -3   8   3   34.82   24.17
  -3   8   4   24.50   18.19
  -3   8   4   19.35   13.36
  -3   8   4   13.80   13.23
  -3   8   4   10.95   15.17
  -3   8   5   88.33   25.44
  -3   8   5   33.45   28.07
  -3   8   5   37.95   29.36
  -3   8   5   70.85   25.03
  -3   8   6   60.67   25.99
  -3   8   6  127.10   40.50
  -3   8   6   80.51   30.79
  -3   8   7   27.69   19.76
  -3   8   7   69.26   27.96
  -3   8   8   47.03   30.24
  -3   8   8   71.92   29.28
  -3   9  -9   98.07   29.14
  -3   9  -8  103.42   32.63
  -3   9  -7   81.61   28.87
  -3   9  -7  117.75   40.31
  -3   9  -6  247.98   44.48
  -3   9  -6  195.24   52.58
  -3   9  -5    6.39   14.54
  -3   9  -5   93.19   26.23
  -3   9  -4  112.86   29.66
  -3   9  -4   60.48   27.58
  -3   9  -3  172.95   39.29
  -3   9  -3  116.57   38.03
  -3   9  -2    7.38   19.13
  -3   9  -2  -17.23   13.69
  -3   9  -1   80.92   31.97
  -3   9  -1  136.02   45.28
  -3   9   0  189.17   41.38
  -3   9   0  209.75   46.13
  -3   9   0  217.05   46.29
  -3   9   1  124.47   32.35
  -3   9   1   71.07   29.64
  -3   9   1   42.12   28.13
  -3   9   2  -10.73   13.42
  -3   9   2  -10.21   17.95
  -3   9   2   -7.55   17.15
  -3   9   3   57.21   24.37
  -3   9   3   45.41   27.44
  -3   9   3   -8.81   25.33
  -3   9   3   19.02   20.39
  -3   9   4  111.60   31.83
  -3   9   4   68.16   25.33
  -3   9   4   71.54   22.28
  -3   9   5  -18.99   13.58
  -3   9   5   -1.92   21.92
  -3   9   6   82.65   28.10
  -3   9   6  157.56   41.16
  -3  10  -6   29.72   23.08
  -3  10  -5  426.45   73.68
  -3  10  -4  116.65   45.14
  -3  10  -3   28.32   27.74
  -3  10  -2    0.19   36.39
  -3  10  -1  -51.48   23.98
  -3  10   0   41.98   31.94
  -3  10   1   56.75   29.91
  -3  10   2   23.76   22.17
  -3  10   3   53.29   26.78
  -3  11  -4   -0.22   42.23
  -3  11  -3   87.89   33.37
  -3  11  -2   -5.60   12.62
  -3  11  -1   79.03   30.54
  -2 -11  -2   36.41   22.72
  -2 -11  -1  163.10   36.44
  -2 -11   0   29.39   19.65
  -2 -11   1   50.05   27.82
  -2 -10  -2  429.30   57.82
  -2 -10  -1   26.70   18.60
  -2 -10   0  400.10   55.57
  -2 -10   1  197.90   39.02
  -2 -10   2   12.43   12.95
  -2 -10   3  120.46   32.79
  -2 -10   4   48.54   21.90
  -2  -9  -2   69.94   26.04
  -2  -9  -1  327.47   46.46
  -2  -9   0   30.68   12.46
  -2  -9   0   20.11   17.84
  -2  -9   1  379.52   52.82
  -2  -9   1  353.76   35.56
  -2  -9   2  744.59   69.62
  -2  -9   3  -19.89   13.86
  -2  -9   3    0.11    4.39
  -2  -9   4  215.54   37.48
  -2  -9   4  271.35   43.25
  -2  -9   5  115.28   29.88
  -2  -9   6   15.67   15.72
  -2  -8 -10   48.08   30.32
  -2  -8  -9   92.06   32.85
  -2  -8  -9   14.76   26.04
  -2  -8  -8    4.31   19.29
  -2  -8  -8   -3.65   22.58
  -2  -8  -7   88.27   29.36
  -2  -8  -3  416.57   53.76
  -2  -8  -2    7.71   19.76
  -2  -8  -2   16.24   12.70
  -2  -8  -1  337.35   48.38
  -2  -8  -1  298.96   41.87
  -2  -8   0  617.26   65.58
  -2  -8   0  587.52   57.32
  -2  -8   0  555.58   35.78
  -2  -8   1  228.41   39.65
  -2  -8   1  278.05   30.90
  -2  -8   1  261.94   39.13
  -2  -8   2  108.64   30.62
  -2  -8   2  108.94   27.44
  -2  -8   3 1047.03   78.26
  -2  -8   3  936.67   71.81
  -2  -8   4   84.02   27.08
  -2  -8   4  132.67   29.55
  -2  -8   5  141.62   37.46
  -2  -8   5  120.27   29.00
  -2  -8   5  133.69   17.53
  -2  -8   6  108.36   19.10
  -2  -8   6  140.14   31.80
  -2  -8   7   29.72   24.89
  -2  -8   8   20.80   17.31
  -2  -7 -11   29.72   35.04
  -2  -7 -10    8.37   23.38
  -2  -7 -10   18.22   17.01
  -2  -7  -9   24.59   22.86
  -2  -7  -9   26.59   22.78
  -2  -7  -8   30.92   18.47
  -2  -7  -8   -2.85   19.24
  -2  -7  -7   -0.41   16.79
  -2  -7  -7   23.21   16.27
  -2  -7  -6   43.74   18.14
  -2  -7  -6   46.18   20.20
  -2  -7  -5  968.61   79.52
  -2  -7  -5  844.69   70.05
  -2  -7  -4  224.19   35.97
  -2  -7  -3  329.77   44.56
  -2  -7  -2  666.60   61.49
  -2  -7  -2  596.68   56.11
  -2  -7  -1  191.09   33.18
  -2  -7  -1  183.77   30.90
  -2  -7   0    0.11   17.10
  -2  -7   0   45.19   10.98
  -2  -7   0   42.15   19.04
  -2  -7   1  575.61   56.53
  -2  -7   1  618.80   53.43
  -2  -7   1  569.08   42.31
  -2  -7   2   28.26   20.85
  -2  -7   2   43.63   18.36
  -2  -7   2   24.48   18.14
  -2  -7   3  196.31   36.93
  -2  -7   3  155.61   30.02
  -2  -7   3  215.24   10.78
  -2  -7   4  569.90   57.71
  -2  -7   4  469.28   53.32
  -2  -7   4  570.67   56.33
  -2  -7   4  517.33   29.64
  -2  -7   5  757.57   66.30
  -2  -7   5  643.88   68.35
  -2  -7   5  731.55   43.60
  -2  -7   6   23.52   17.51
  -2  -7   7  494.44   58.97
  -2  -7   7  452.02   43.90
  -2  -7   8  129.38   26.86
  -2  -7   8   92.86   28.92
  -2  -7   9   78.75   31.31
  -2  -7   9   59.16   25.03
  -2  -7  10   86.99   24.39
  -2  -6 -11   36.00   24.09
  -2  -6 -10   63.96   27.06
  -2  -6 -10   62.32   28.59
  -2  -6  -9   36.11   19.87
  -2  -6  -9   10.54   24.75
  -2  -6  -8   26.48   18.96
  -2  -6  -8    0.77    5.46
  -2  -6  -8   26.56   23.13
  -2  -6  -7  242.71   40.61
  -2  -6  -7  230.50   25.03
  -2  -6  -7  241.69   38.31
  -2  -6  -6  742.25   70.22
  -2  -6  -6  683.40   43.88
  -2  -6  -6  598.30   59.35
  -2  -6  -6  663.01   56.86
  -2  -6  -5   40.23   22.31
  -2  -6  -5   21.35   17.20
  -2  -6  -5   21.27   17.01
  -2  -6  -4  682.63   57.90
  -2  -6  -4  691.93   61.58
  -2  -6  -3  337.46   41.71
  -2  -6  -2  238.02   34.82
  -2  -6  -2  216.23   32.49
  -2  -6  -1 2064.78   99.39
  -2  -6  -1 2056.36   90.25
  -2  -6   0  507.81   45.14
  -2  -6   0  465.36   29.99
  -2  -6   1  607.36   55.37
  -2  -6   1  640.48   50.30
  -2  -6   1  651.37   42.94
  -2  -6   2  522.79   50.82
  -2  -6   2  536.32   47.28
  -2  -6   3   84.63   21.51
  -2  -6   3   43.30    8.34
  -2  -6   3   97.69   22.42
  -2  -6   4   41.49   16.82
  -2  -6   4   33.64   19.43
  -2  -6   4   29.36   10.70
  -2  -6   4   17.51   13.86
  -2  -6   5  148.48   27.71
  -2  -6   5   99.00   30.07
  -2  -6   5  114.67   26.89
  -2  -6   5  129.13   21.57
  -2  -6   6  844.63   68.87
  -2  -6   6  980.76   85.94
  -2  -6   7   18.58   17.01
  -2  -6   7   29.55   14.71
  -2  -6   8  540.10   60.48
  -2  -6   8  508.96   51.97
  -2  -6   9  400.82   54.61
  -2  -6   9  217.96   39.65
  -2  -6  10  -38.28   18.85
  -2  -6  10  -15.50   23.82
  -2  -6  11   54.19   31.42
  -2  -5 -12   80.73   40.45
  -2  -5 -11  -15.75   22.80
  -2  -5 -11   14.21   23.74
  -2  -5 -10  -11.03   15.75
  -2  -5 -10   -1.07   13.50
  -2  -5  -9   14.30   19.02
  -2  -5  -9   35.70   14.10
  -2  -5  -9   23.10   17.64
  -2  -5  -8  177.04   37.48
  -2  -5  -8  222.98   27.96
  -2  -5  -8  162.94   39.05
  -2  -5  -8  165.16   34.99
  -2  -5  -7   99.47   29.80
  -2  -5  -7   75.46   16.99
  -2  -5  -7  117.31   24.56
  -2  -5  -7  104.96   30.51
  -2  -5  -7   86.57   22.99
  -2  -5  -7  104.11   25.63
  -2  -5  -6  375.79   33.42
  -2  -5  -6  527.51   56.55
  -2  -5  -6  467.77   43.82
  -2  -5  -6  402.88   48.29
  -2  -5  -6  421.01   45.19
  -2  -5  -6  519.96   53.26
  -2  -5  -5   91.43   17.20
  -2  -5  -5  131.58   26.21
  -2  -5  -5   93.19   22.25
  -2  -5  -5   86.68   24.15
  -2  -5  -5  116.04   22.23
  -2  -5  -4   42.26   12.35
  -2  -5  -4   42.70   17.78
  -2  -5  -4   42.09   15.42
  -2  -5  -4   33.31   16.74
  -2  -5  -4   29.42   13.12
  -2  -5  -3 2066.29   90.25
  -2  -5  -3 2141.42   91.73
  -2  -5  -3 1847.32   72.44
  -2  -5  -3 1898.88   63.58
  -2  -5  -2 3890.34  116.40
  -2  -5  -2 3663.22   69.26
  -2  -5  -1   38.55   15.17
  -2  -5   0 1377.82   66.57
  -2  -5   0 1286.20   44.51
  -2  -5   1   38.22   12.70
  -2  -5   1   23.65   13.64
  -2  -5   2 1133.52   68.27
  -2  -5   2  942.76   57.54
  -2  -5   2 1068.41   60.07
  -2  -5   2 1006.34   33.09
  -2  -5   3 1062.89   66.27
  -2  -5   3  949.43   59.16
  -2  -5   3  767.97   58.26
  -2  -5   3  885.16   40.69
  -2  -5   4  733.86   54.85
  -2  -5   4  700.16   53.40
  -2  -5   4  694.59   43.16
  -2  -5   5  208.35   30.43
  -2  -5   5  276.07   44.81
  -2  -5   5  224.43   32.74
  -2  -5   6  412.15   43.16
  -2  -5   6  303.38   41.52
  -2  -5   6  278.79   47.53
  -2  -5   6  356.97   38.50
  -2  -5   7  508.52   52.88
  -2  -5   7  576.71   54.55
  -2  -5   8   14.87   15.97
  -2  -5   8    3.81    8.97
  -2  -5   9   88.74   28.35
  -2  -5   9  124.72   29.64
  -2  -5  10  171.01   38.33
  -2  -5  10  136.82   37.13
  -2  -5  11   10.95   15.75
  -2  -5  12  133.19   43.03
  -2  -4 -12   32.85   24.04
  -2  -4 -12    9.14   19.13
  -2  -4 -11   21.29   16.88
  -2  -4 -11    0.82   24.89
  -2  -4 -10   19.48   10.45
  -2  -4 -10    2.20   23.10
  -2  -4 -10    8.97   22.86
  -2  -4  -9   16.52   16.41
  -2  -4  -9    6.37   23.43
  -2  -4  -8  666.33   66.35
  -2  -4  -8  667.78   52.08
  -2  -4  -8  714.10   46.70
  -2  -4  -8  629.72   66.57
  -2  -4  -8  646.24   64.21
  -2  -4  -8  616.77   62.40
  -2  -4  -7  789.18   67.58
  -2  -4  -7  706.09   51.29
  -2  -4  -7  784.24   50.30
  -2  -4  -7  755.40   66.62
  -2  -4  -7  893.06   70.30
  -2  -4  -7  875.23   68.60
  -2  -4  -6    1.02   11.22
  -2  -4  -6   -2.69    7.96
  -2  -4  -6    6.48   15.01
  -2  -4  -6    4.64   11.61
  -2  -4  -6   -3.87   14.27
  -2  -4  -5  484.34   46.59
  -2  -4  -5  470.87   36.91
  -2  -4  -5  500.51   47.50
  -2  -4  -5  484.37   42.18
  -2  -4  -5  508.88   45.72
  -2  -4  -4  132.12   18.77
  -2  -4  -4  159.62   25.68
  -2  -4  -4  160.41   22.23
  -2  -4  -3    7.55   12.81
  -2  -4  -3   36.30   14.41
  -2  -4  -3   22.80    8.53
  -2  -4  -3   54.91   11.14
  -2  -4  -2 2241.11   77.22
  -2  -4  -2 2411.21   81.55
  -2  -4  -2 2526.35   85.17
  -2  -4  -2 2391.68   58.45
  -2  -4  -1 2313.23   78.34
  -2  -4  -1 2222.29   41.19
  -2  -4   0   16.38    7.41
  -2  -4   0   13.20    9.11
  -2  -4   1 1299.40   52.82
  -2  -4   1 1296.24   58.34
  -2  -4   1 1334.77   35.59
  -2  -4   2 1012.92   58.45
  -2  -4   2  950.41   54.11
  -2  -4   2 1017.15   53.10
  -2  -4   2 1049.31   40.83
  -2  -4   3  773.92   50.38
  -2  -4   3  696.81   46.54
  -2  -4   3  629.28   49.80
  -2  -4   3  705.51   40.39
  -2  -4   4  721.51   49.06
  -2  -4   4  783.25   52.41
  -2  -4   4  751.50   48.21
  -2  -4   5 1133.03   61.49
  -2  -4   5 1025.87   62.78
  -2  -4   5 1127.51   82.24
  -2  -4   6   32.35   13.53
  -2  -4   6   15.45   17.51
  -2  -4   6    7.82   13.53
  -2  -4   6   41.41   15.20
  -2  -4   7  557.94   42.67
  -2  -4   7  544.16   69.81
  -2  -4   7  478.36   51.67
  -2  -4   8  261.34   42.78
  -2  -4   9   45.39   25.63
  -2  -4  10   52.27   29.50
  -2  -4  11   86.35   33.09
  -2  -4  12   43.49   28.29
  -2  -3 -12   39.95   30.27
  -2  -3 -12   24.42   29.61
  -2  -3 -11   40.28   20.72
  -2  -3 -11   -7.77   20.91
  -2  -3 -10   24.37   17.73
  -2  -3 -10   37.35   15.37
  -2  -3 -10   26.01   19.81
  -2  -3  -9  188.62   31.31
  -2  -3  -9  256.56   42.75
  -2  -3  -9  248.80   45.50
  -2  -3  -8    0.11   14.52
  -2  -3  -8    5.82    9.22
  -2  -3  -8  -19.18   23.96
  -2  -3  -8   22.34    9.96
  -2  -3  -8    7.55   11.72
  -2  -3  -7  755.97   62.43
  -2  -3  -7  755.86   54.77
  -2  -3  -7  830.80   44.78
  -2  -3  -7  794.97   67.26
  -2  -3  -7  866.26   65.64
  -2  -3  -7  805.39   65.86
  -2  -3  -6  817.58   60.45
  -2  -3  -6  686.39   48.93
  -2  -3  -6  752.13   44.23
  -2  -3  -6  657.85   56.39
  -2  -3  -6  757.90   57.90
  -2  -3  -6  774.96   57.43
  -2  -3  -5   98.95   18.44
  -2  -3  -5  110.86   21.54
  -2  -3  -5   64.35   15.01
  -2  -3  -5  102.35   20.00
  -2  -3  -5   79.14   17.70
  -2  -3  -4 2897.67   87.09
  -2  -3  -4 2721.18   85.89
  -2  -3  -4 2912.65   95.74
  -2  -3  -4 2893.72   89.34
  -2  -3  -4 2955.24   92.31
  -2  -3  -3 4052.13   98.98
  -2  -3  -3 4460.30  108.06
  -2  -3  -3 4231.95  105.81
  -2  -3  -3 4359.16  112.45
  -2  -3  -3 4112.31   91.92
  -2  -3  -3 4196.03   99.91
  -2  -3  -2   72.03   16.05
  -2  -3  -2   73.10   14.65
  -2  -3  -2   78.81   14.76
  -2  -3  -2   89.65   16.24
  -2  -3  -2   79.66   11.25
  -2  -3  -1  633.34   38.80
  -2  -3  -1  657.03   37.24
  -2  -3  -1  713.09   25.96
  -2  -3   0  355.73   26.97
  -2  -3   1  -14.95   11.28
  -2  -3   1   -0.41    5.24
  -2  -3   2  439.18   34.88
  -2  -3   2  400.08   30.84
  -2  -3   2  352.08   26.53
  -2  -3   3 4742.14  113.60
  -2  -3   3 4628.13  107.67
  -2  -3   3 4635.21  109.62
  -2  -3   4 1503.88   62.56
  -2  -3   4 1394.92   63.94
  -2  -3   4 1395.49   67.78
  -2  -3   5  777.30   45.22
  -2  -3   6 1771.26   67.23
  -2  -3   6 1668.14   90.06
  -2  -3   7   66.08   12.92
  -2  -3   7   73.43   25.88
  -2  -3   8   87.15   30.24
  -2  -3   9  149.91   36.06
  -2  -3  10    0.71   18.71
  -2  -3  11  149.30   41.19
  -2  -3  12   67.83   31.91
  -2  -2 -12    4.23   13.61
  -2  -2 -12   57.05   33.39
  -2  -2 -11  108.14   32.02
  -2  -2 -11  105.51   31.64
  -2  -2 -11  153.86   39.76
  -2  -2 -10   13.20   16.49
  -2  -2 -10   -1.84   15.23
  -2  -2 -10  -17.20   21.62
  -2  -2  -9  226.79   35.51
  -2  -2  -9  202.78   36.71
  -2  -2  -9  158.58   37.78
  -2  -2  -8  153.50   35.12
  -2  -2  -8  140.36   16.16
  -2  -2  -8  122.00   32.65
  -2  -2  -8  153.55   28.51
  -2  -2  -8  190.05   34.77
  -2  -2  -7    0.55   11.85
  -2  -2  -7   10.21    7.66
  -2  -2  -7   23.87   19.32
  -2  -2  -7   28.59   11.85
  -2  -2  -7   35.78   12.54
  -2  -2  -6  755.73   39.32
  -2  -2  -6  755.59   55.02
  -2  -2  -6  692.01   50.85
  -2  -2  -6  781.25   57.76
  -2  -2  -6  745.52   52.27
  -2  -2  -5 5090.33  102.32
  -2  -2  -5 4663.11  123.10
  -2  -2  -5 4979.30  129.41
  -2  -2  -5 4883.84  129.05
  -2  -2  -5 4855.47  121.20
  -2  -2  -4 1138.96   56.77
  -2  -2  -4 1140.22   49.17
  -2  -2  -4 1257.44   59.13
  -2  -2  -4 1203.99   57.40
  -2  -2  -4 1259.99   55.26
  -2  -2  -3 3097.44   80.81
  -2  -2  -3 3219.24   83.31
  -2  -2  -3 3054.27   86.33
  -2  -2  -3 3110.85   75.54
  -2  -2  -3 3018.98   77.52
  -2  -2  -2 2016.76   67.09
  -2  -2  -2 1999.15   65.31
  -2  -2  -2 2067.01   57.40
  -2  -2  -2 2205.52   43.68
  -2  -2  -2 2052.60   54.25
  -2  -2  -2 2015.50   51.40
  -2  -2  -1 2482.83   51.26
  -2  -2  -1 2321.38   70.19
  -2  -2  -1 2517.57   39.10
  -2  -2  -1 2426.11   60.86
  -2  -2  -1 2520.70   51.83
  -2  -2   0  564.91   28.70
  -2  -2   1  753.34   40.34
  -2  -2   1  710.29   32.85
  -2  -2   2 1229.01   51.18
  -2  -2   2 1176.14   44.97
  -2  -2   3   10.76    8.73
  -2  -2   3   13.50   12.05
  -2  -2   4 2612.52   73.87
  -2  -2   4 2434.46   92.14
  -2  -2   5  283.79   25.05
  -2  -2   6  219.58   21.40
  -2  -2   6  191.18   33.83
  -2  -2   7 1482.61   48.05
  -2  -2   7 1262.02   87.23
  -2  -2   8  489.53   59.85
  -2  -2   9   67.56   29.39
  -2  -2  10  173.75   43.49
  -2  -2  11   19.26   14.41
  -2  -2  12   24.15   16.71
  -2  -1 -13   25.93   17.95
  -2  -1 -12    8.81   20.58
  -2  -1 -12   31.83   22.20
  -2  -1 -11  149.22   36.69
  -2  -1 -11   71.65   32.32
  -2  -1 -11  132.70   36.39
  -2  -1 -10  461.32   59.08
  -2  -1 -10  499.52   57.93
  -2  -1 -10  421.95   65.03
  -2  -1  -9   35.01   16.99
  -2  -1  -9   40.86   21.07
  -2  -1  -9   29.99   20.06
  -2  -1  -9   28.21   15.64
  -2  -1  -8   55.48   18.44
  -2  -1  -8   45.11   18.52
  -2  -1  -8   52.11    8.62
  -2  -1  -8   32.27   25.38
  -2  -1  -8   66.32   20.66
  -2  -1  -8   85.53   21.35
  -2  -1  -7   59.30    9.52
  -2  -1  -7   71.92   20.63
  -2  -1  -7  112.83   25.19
  -2  -1  -7  103.17   21.49
  -2  -1  -6    3.95    7.66
  -2  -1  -6   12.21    8.34
  -2  -1  -6    1.23    6.28
  -2  -1  -6    1.29    8.12
  -2  -1  -6    9.27    6.17
  -2  -1  -5 1838.16   77.79
  -2  -1  -5 1967.92   79.49
  -2  -1  -5 1872.90   79.36
  -2  -1  -5 2067.45   74.97
  -2  -1  -4 8271.26  154.32
  -2  -1  -4 8870.55  149.00
  -2  -1  -4 8561.47  149.14
  -2  -1  -4 8584.35  132.45
  -2  -1  -3  621.60   35.34
  -2  -1  -3  570.34   38.58
  -2  -1  -3  624.10   36.30
  -2  -1  -3  622.37   35.75
  -2  -1  -3  642.04   30.73
  -2  -1  -2   35.15    9.16
  -2  -1  -2   34.19   10.04
  -2  -1  -2   30.18   11.42
  -2  -1  -2   33.78    8.81
  -2  -1  -2   39.29    6.67
  -2  -1  -1  953.84   33.94
  -2  -1  -1  942.84   34.44
  -2  -1   0  413.88   19.24
  -2  -1   0  435.58   23.85
  -2  -1   1  871.17   40.72
  -2  -1   1  893.81   29.91
  -2  -1   4  517.68   44.67
  -2  -1   5 1245.51   44.18
  -2  -1   6 1210.00   41.13
  -2  -1   6 1133.96   77.19
  -2  -1   7   10.73    5.84
  -2  -1   7    3.84   12.73
  -2  -1   8  372.31   54.47
  -2  -1   9   60.86   24.86
  -2  -1  10   60.81   29.99
  -2  -1  11  132.10   43.38
  -2   0 -13  -22.03   25.00
  -2   0 -13   -0.19    3.87
  -2   0 -12   87.42   36.47
  -2   0 -12  139.81   41.93
  -2   0 -11   -6.42   20.44
  -2   0 -11   39.93   18.99
  -2   0 -10  333.81   47.66
  -2   0 -10  199.41   39.46
  -2   0 -10  244.88   47.44
  -2   0  -9  435.94   51.42
  -2   0  -9  437.67   54.11
  -2   0  -9  400.71   53.86
  -2   0  -9  502.46   54.08
  -2   0  -8  365.47   20.69
  -2   0  -8  447.44   48.98
  -2   0  -8  341.05   44.12
  -2   0  -8  347.01   46.10
  -2   0  -8  449.85   47.55
  -2   0  -8  334.25   45.17
  -2   0  -7  246.27   35.48
  -2   0  -7  285.21   36.41
  -2   0  -7  301.37   39.32
  -2   0  -6 4386.93  126.99
  -2   0  -6 4141.64  130.97
  -2   0  -5  100.40   20.39
  -2   0  -5  103.64   21.32
  -2   0  -4  816.23   49.06
  -2   0  -4  943.28   51.18
  -2   0  -4 1013.09   57.87
  -2   0  -4  873.34   48.24
  -2   0  -3   51.34   12.87
  -2   0  -3   83.80   15.53
  -2   0  -3   50.35   16.49
  -2   0  -3   43.90   10.67
  -2   0  -2   11.36    6.50
  -2   0  -2   16.93   13.72
  -2   0  -2   10.15    6.75
  -2   0  -1  137.45   18.52
  -2   0  -1  159.76   16.19
  -2   0   0 5411.40   94.28
  -2   0   0 5572.97   95.44
  -2   0   0 5521.44   62.95
  -2   0   1 9257.10  119.14
  -2   0   1 9507.77  106.66
  -2   0   2  424.50   24.20
  -2   0   3 1833.22   57.21
  -2   0   4  762.75   42.37
  -2   0   5  164.81   21.73
  -2   0   6  905.93   71.04
  -2   0   7  338.97   16.49
  -2   0   7  296.74   46.46
  -2   0   8  112.07   28.35
  -2   0   9  222.24   44.56
  -2   0  10   61.99   24.97
  -2   0  11   14.95   27.63
  -2   1 -13   58.56   25.27
  -2   1 -13   -4.12   10.70
  -2   1 -12   66.40   25.33
  -2   1 -12   84.76   30.07
  -2   1 -11  126.14   33.45
  -2   1 -11  101.83   30.27
  -2   1 -10  109.68   32.13
  -2   1 -10  106.19   28.57
  -2   1  -9   -3.40   14.60
  -2   1  -9    6.50   12.21
  -2   1  -9    2.63    4.56
  -2   1  -9   -4.99   16.71
  -2   1  -8  885.93   71.78
  -2   1  -8  956.09   70.69
  -2   1  -8  874.84   71.65
  -2   1  -7  571.06   54.55
  -2   1  -7  639.11   56.25
  -2   1  -6 1718.33   83.83
  -2   1  -5 4738.02  144.58
  -2   1  -5 4487.66  121.37
  -2   1  -5 4308.48  120.08
  -2   1  -4  439.56   34.16
  -2   1  -4  482.59   43.71
  -2   1  -4  401.42   33.53
  -2   1  -3  690.06   48.05
  -2   1  -3  816.01   40.09
  -2   1  -3  750.49   41.00
  -2   1  -2    1.37    6.04
  -2   1  -2   18.25    6.97
  -2   1  -2   21.79   16.35
  -2   1  -2   18.80    8.51
  -2   1  -1  964.96   42.97
  -2   1  -1  954.37   48.98
  -2   1   0   73.90   11.83
  -2   1   0   77.16   17.62
  -2   1   1  769.36   36.52
  -2   1   1  777.95   31.78
  -2   1   1  803.42   43.93
  -2   1   1  769.28   37.37
  -2   1   2 2617.23   72.25
  -2   1   2 2770.24   79.33
  -2   1   3   85.06   14.85
  -2   1   3   74.20   16.44
  -2   1   4 3850.80  103.20
  -2   1   6   20.96   11.94
  -2   1   6    4.69   20.22
  -2   1   7  402.33   22.12
  -2   1   7  398.92   43.19
  -2   1   7  366.65   50.79
  -2   1   8   10.92   15.81
  -2   1   9   61.38   32.68
  -2   1  10   94.39   31.56
  -2   1  11  169.20   50.22
  -2   2 -13  122.14   35.07
  -2   2 -13   77.85   36.03
  -2   2 -12  -29.36   24.20
  -2   2 -12  -13.20   24.28
  -2   2 -11   -3.02   20.47
  -2   2 -11    3.38    8.64
  -2   2 -10  131.44   12.92
  -2   2 -10  117.42   29.55
  -2   2  -9  338.58   25.24
  -2   2  -8   72.41   13.75
  -2   2  -8   62.12   22.50
  -2   2  -7 2034.16  100.27
  -2   2  -6 1228.22   71.26
  -2   2  -5  212.17   35.56
  -2   2  -5  216.04   29.09
  -2   2  -4  626.21   53.78
  -2   2  -4  560.85   39.35
  -2   2  -3  406.25   28.73
  -2   2  -3  431.30   30.65
  -2   2  -3  431.44   28.62
  -2   2  -3  425.49   42.34
  -2   2  -3  421.34   31.20
  -2   2  -2  269.71   26.92
  -2   2  -2  276.32   23.74
  -2   2  -2  320.69   26.64
  -2   2  -2  324.89   19.54
  -2   2  -2  320.39   35.10
  -2   2  -2  333.81   25.99
  -2   2  -1 5532.58  106.55
  -2   2  -1 5624.72  128.56
  -2   2   0 1625.41   51.89
  -2   2   0 1633.73   56.69
  -2   2   0 1603.32   34.82
  -2   2   0 1691.65   68.74
  -2   2   1   75.95   10.21
  -2   2   1   81.17   14.41
  -2   2   1   72.61   13.56
  -2   2   1   75.87   13.12
  -2   2   1   72.39   17.45
  -2   2   1   65.99    8.67
  -2   2   1   72.41   15.72
  -2   2   2  211.40   13.69
  -2   2   2  210.27   24.61
  -2   2   2  249.59   23.16
  -2   2   2  253.27   22.42
  -2   2   2  238.45   28.32
  -2   2   2  211.89   25.90
  -2   2   3  807.81   49.25
  -2   2   3  869.47   54.11
  -2   2   5 1921.90   87.59
  -2   2   5 2125.15  104.74
  -2   2   5 2074.50   95.79
  -2   2   6  874.98   62.76
  -2   2   6  925.50   75.16
  -2   2   7  158.05   18.30
  -2   2   7  174.99   30.57
  -2   2   7  132.65   32.24
  -2   2   8  114.56   14.24
  -2   2   8  110.50   30.76
  -2   2   9  110.39   30.35
  -2   2  10   88.49   33.15
  -2   2  11   22.09   28.54
  -2   3 -13   15.12   20.42
  -2   3 -12  178.85   38.33
  -2   3 -11  154.71   34.05
  -2   3 -10   -7.27    5.08
  -2   3  -9  398.35   33.64
  -2   3  -8  238.84   27.22
  -2   3  -8  313.83   44.81
  -2   3  -7  321.27   40.64
  -2   3  -6  789.70   46.04
  -2   3  -6  771.94   44.48
  -2   3  -6  746.32   70.00
  -2   3  -6  838.51   59.96
  -2   3  -5  253.05   25.57
  -2   3  -5  311.03   29.33
  -2   3  -5  264.58   41.54
  -2   3  -5  274.62   32.27
  -2   3  -4  163.90   21.62
  -2   3  -4  186.07   22.03
  -2   3  -4  190.21   36.61
  -2   3  -4  176.22   23.57
  -2   3  -3 1950.63   72.66
  -2   3  -3 1849.13   68.79
  -2   3  -3 1895.20   91.16
  -2   3  -3 1836.32   66.51
  -2   3  -2 3987.78   62.65
  -2   3  -2 3895.56   90.17
  -2   3  -1  588.84   37.70
  -2   3  -1  575.86   46.68
  -2   3   0  761.98   38.22
  -2   3   0  753.23   31.47
  -2   3   0  767.58   51.64
  -2   3   1  236.70   18.41
  -2   3   1  220.45   24.45
  -2   3   1  177.98   21.84
  -2   3   1  231.43   18.06
  -2   3   1  231.68   30.02
  -2   3   2   52.66    6.64
  -2   3   2   53.51   12.81
  -2   3   2   64.59   13.09
  -2   3   2   70.60   19.98
  -2   3   2   56.99   10.45
  -2   3   3 2856.68   79.08
  -2   3   3 3072.33  108.33
  -2   3   3 3095.65   90.17
  -2   3   3 3062.89   87.31
  -2   3   4 2554.51   81.36
  -2   3   4 2591.74   79.96
  -2   3   4 2532.72  102.43
  -2   3   5   58.72   17.37
  -2   3   5   58.23   20.61
  -2   3   5   53.54   21.16
  -2   3   6   32.96   11.47
  -2   3   6    8.86    8.97
  -2   3   6   27.30   18.96
  -2   3   6   18.69   19.98
  -2   3   7  107.40   19.02
  -2   3   7  128.50   27.69
  -2   3   7   97.08   29.66
  -2   3   7  102.93   28.78
  -2   3   8    3.32    6.37
  -2   3   8    8.18   17.86
  -2   3   9   22.39   18.38
  -2   3  10   53.21   22.75
  -2   3  11   12.32   13.99
  -2   4 -12   29.31   16.85
  -2   4  -9   43.99   14.21
  -2   4  -8 1284.28   69.37
  -2   4  -8 1360.73   90.20
  -2   4  -7  174.46   27.80
  -2   4  -7  165.35   30.46
  -2   4  -6    4.86   24.06
  -2   4  -6    5.08   10.40
  -2   4  -5  140.63   32.71
  -2   4  -5  102.13   20.14
  -2   4  -4  303.02   44.34
  -2   4  -4  322.23   31.94
  -2   4  -3    4.94   14.71
  -2   4  -3    5.16    7.22
  -2   4  -2  961.91   68.44
  -2   4  -2  948.93   46.43
  -2   4  -1 2964.68   74.42
  -2   4  -1 3158.02  116.46
  -2   4  -1 3098.89   81.63
  -2   4   0 1337.95   55.13
  -2   4   0 1387.73   76.28
  -2   4   0 1424.00   51.53
  -2   4   1   98.48   14.13
  -2   4   1  129.65   22.25
  -2   4   1  128.42   22.34
  -2   4   1  131.55   26.29
  -2   4   1   88.36   14.35
  -2   4   2 2289.71   46.81
  -2   4   2 2277.33   86.90
  -2   4   2 2266.11   84.84
  -2   4   2 2152.13   68.16
  -2   4   2 2265.43   97.19
  -2   4   3    4.36    5.87
  -2   4   3   -9.11   11.36
  -2   4   3    7.74   11.52
  -2   4   3    2.00   17.20
  -2   4   3    0.99    7.08
  -2   4   4 1288.50   80.23
  -2   4   4 1289.44   65.44
  -2   4   4 1239.88   62.40
  -2   4   4 1203.80   61.30
  -2   4   4 1264.60   77.74
  -2   4   4 1300.28   80.51
  -2   4   5  536.95   54.17
  -2   4   5  498.94   39.79
  -2   4   5  453.61   40.72
  -2   4   5  495.54   41.02
  -2   4   5  472.11   41.05
  -2   4   5  514.83   55.65
  -2   4   5  489.17   53.51
  -2   4   5  503.25   55.46
  -2   4   6   26.62   11.66
  -2   4   6    8.34    8.45
  -2   4   6   25.57   12.87
  -2   4   6   29.96   21.57
  -2   4   6   31.64   16.77
  -2   4   7   60.86   16.55
  -2   4   7   61.44   24.09
  -2   4   7   42.75   22.23
  -2   4   8  136.16   22.14
  -2   4   8   81.09   30.24
  -2   4   8  139.83   37.32
  -2   4   9  275.06   51.53
  -2   4  10   12.65   12.68
  -2   5  -9  360.54   41.00
  -2   5  -8   22.03   11.31
  -2   5  -8   19.13   13.75
  -2   5  -8   20.11   10.95
  -2   5  -8    5.46   14.46
  -2   5  -7  507.53   46.92
  -2   5  -7  534.01   46.57
  -2   5  -7  596.85   52.85
  -2   5  -7  484.84   52.16
  -2   5  -6  555.39   50.27
  -2   5  -6  533.63   46.65
  -2   5  -6  551.74   47.44
  -2   5  -6  528.55   65.09
  -2   5  -6  540.30   50.38
  -2   5  -5   45.80   14.68
  -2   5  -5   40.97   15.97
  -2   5  -5   85.45   19.35
  -2   5  -5   42.61   26.15
  -2   5  -5   60.29   18.19
  -2   5  -4  716.63   53.54
  -2   5  -4  682.65   54.47
  -2   5  -4  744.78   55.62
  -2   5  -4  722.58   68.27
  -2   5  -4  663.03   46.15
  -2   5  -3  986.94   63.96
  -2   5  -3 1094.17   66.60
  -2   5  -3  914.80   73.73
  -2   5  -3  961.83   51.67
  -2   5  -2  219.85   39.24
  -2   5  -2  239.77   25.03
  -2   5  -1    3.13    6.97
  -2   5  -1   -0.25   16.08
  -2   5  -1    3.18    5.93
  -2   5   0  722.72   42.15
  -2   5   0  748.21   61.77
  -2   5   1  415.50   29.80
  -2   5   1  418.27   41.54
  -2   5   1  466.78   42.83
  -2   5   1  398.92   45.80
  -2   5   1  385.78   31.58
  -2   5   2  732.87   61.99
  -2   5   2  773.81   32.49
  -2   5   2  811.40   57.32
  -2   5   2  798.01   57.27
  -2   5   2  748.04   44.97
  -2   5   2  793.02   63.33
  -2   5   2  716.65   60.51
  -2   5   3 2080.81  105.97
  -2   5   3 2178.14   93.54
  -2   5   3 2298.00   95.00
  -2   5   3 2066.10   95.24
  -2   5   3 2186.97   80.62
  -2   5   3 2066.48  102.68
  -2   5   3 2168.62  107.98
  -2   5   4   52.55   17.59
  -2   5   4   72.30   20.20
  -2   5   4   68.27   18.69
  -2   5   4   75.84   17.45
  -2   5   4   85.39   23.63
  -2   5   4   72.83   17.10
  -2   5   4   58.72   25.33
  -2   5   4   69.26   21.62
  -2   5   5  184.34   28.87
  -2   5   5  184.18   29.72
  -2   5   5  191.39   27.25
  -2   5   5  198.23   35.18
  -2   5   5  199.74   29.14
  -2   5   5  151.50   32.02
  -2   5   5  220.34   36.47
  -2   5   6   73.24   19.56
  -2   5   6   78.84   19.26
  -2   5   6   95.41   19.56
  -2   5   6   92.61   28.81
  -2   5   6   45.80   17.84
  -2   5   6   79.60   25.22
  -2   5   6   72.55   23.68
  -2   5   7   76.78   20.44
  -2   5   7   65.94   17.29
  -2   5   7   86.93   27.96
  -2   5   7   49.56   16.55
  -2   5   7   19.07   17.64
  -2   5   7   86.60   25.57
  -2   5   8  -25.19   15.59
  -2   5   8  -20.33   21.73
  -2   5   9  110.25   35.73
  -2   5   9   81.11   36.06
  -2   5  10   58.15   31.56
  -2   6  -9  104.49   22.94
  -2   6  -9  126.20   28.92
  -2   6  -9  106.60   23.35
  -2   6  -8  228.80   33.15
  -2   6  -8  202.26   31.28
  -2   6  -8  173.64   32.98
  -2   6  -8  248.47   39.98
  -2   6  -7  135.66   25.90
  -2   6  -7  145.13   27.11
  -2   6  -7   78.20   20.77
  -2   6  -7  106.44   40.58
  -2   6  -7  117.39   28.43
  -2   6  -6  136.35   27.22
  -2   6  -6   94.31   23.49
  -2   6  -6  140.27   26.21
  -2   6  -6   95.55   38.00
  -2   6  -6  114.86   23.52
  -2   6  -5 1423.73   86.77
  -2   6  -5 1374.20   82.16
  -2   6  -5 1482.26   84.30
  -2   6  -5 1449.52  105.86
  -2   6  -5 1410.31   74.31
  -2   6  -4  115.99   24.94
  -2   6  -4  152.43   27.93
  -2   6  -4  133.19   27.33
  -2   6  -4   97.47   36.50
  -2   6  -4  112.83   20.42
  -2   6  -3  302.28   40.09
  -2   6  -3  312.35   41.00
  -2   6  -3  394.12   43.77
  -2   6  -3  348.08   53.18
  -2   6  -3  311.50   30.71
  -2   6  -2  232.17   35.34
  -2   6  -2  307.16   39.18
  -2   6  -2  244.33   36.69
  -2   6  -2  246.16   42.61
  -2   6  -2  226.57   25.66
  -2   6  -1  134.51   20.11
  -2   6  -1  140.90   28.13
  -2   6  -1  148.78   26.15
  -2   6  -1   95.71   23.54
  -2   6  -1  141.04   33.81
  -2   6  -1  130.01   20.80
  -2   6   0  199.21   33.72
  -2   6   0  210.49   32.52
  -2   6   0  228.49   35.40
  -2   6   0  217.76   26.51
  -2   6   0  205.09   38.25
  -2   6   1 1427.38   91.35
  -2   6   1 1456.30   61.19
  -2   6   1 1451.85   86.00
  -2   6   1 1703.62   90.94
  -2   6   1 1742.99   91.16
  -2   6   1 1529.37   69.07
  -2   6   1 1611.28   95.63
  -2   6   1 1368.93   90.31
  -2   6   2  393.02   26.42
  -2   6   2  375.82   48.35
  -2   6   2  397.96   45.50
  -2   6   2  379.28   45.82
  -2   6   2  438.52   46.73
  -2   6   2  380.18   50.33
  -2   6   2  406.80   36.74
  -2   6   2  318.94   45.85
  -2   6   3  176.14   33.09
  -2   6   3  210.03   33.31
  -2   6   3  205.53   32.68
  -2   6   3  195.57   36.66
  -2   6   3  148.67   24.39
  -2   6   3  149.52   35.59
  -2   6   4  108.42   25.30
  -2   6   4  126.72   27.00
  -2   6   4   97.22   21.60
  -2   6   4  126.72   29.77
  -2   6   4  130.86   23.35
  -2   6   4  179.24   38.03
  -2   6   4  124.85   26.75
  -2   6   5   30.10   16.99
  -2   6   5   23.90   16.68
  -2   6   5   21.71   12.27
  -2   6   5   29.31   17.81
  -2   6   5   19.67   10.32
  -2   6   5   39.51   22.91
  -2   6   5   15.17   10.43
  -2   6   6   40.39   15.50
  -2   6   6    1.62    9.80
  -2   6   6   25.27   17.95
  -2   6   6  -16.27   21.07
  -2   6   6   30.43   13.50
  -2   6   6   -1.18   12.73
  -2   6   6    7.00   14.16
  -2   6   7  177.40   30.82
  -2   6   7  203.77   33.12
  -2   6   7  218.64   31.64
  -2   6   7  217.96   40.45
  -2   6   7  201.41   45.47
  -2   6   7  185.74   39.95
  -2   6   8   85.17   31.39
  -2   6   8  101.80   29.72
  -2   6   8   89.98   36.25
  -2   6   9  -26.48   19.13
  -2   6   9   32.82   20.47
  -2   6   9    9.14   22.14
  -2   6  10   -9.60   17.26
  -2   6  10   10.92   16.82
  -2   7  -9   -8.92    7.02
  -2   7  -8    7.44    9.99
  -2   7  -7   75.73   22.31
  -2   7  -7   96.78   23.35
  -2   7  -6    9.85   13.03
  -2   7  -6    6.75   21.60
  -2   7  -6    2.96    7.71
  -2   7  -5  303.30   42.45
  -2   7  -5  217.74   41.00
  -2   7  -5  280.57   35.43
  -2   7  -4 1228.27   83.88
  -2   7  -4 1048.54   93.49
  -2   7  -4 1165.54   63.33
  -2   7  -3 1556.73   94.34
  -2   7  -3 1613.06  110.67
  -2   7  -3 1347.25   64.76
  -2   7  -2   45.74   23.98
  -2   7  -2   80.98   27.55
  -2   7  -2   76.61    9.63
  -2   7  -2   77.02   17.15
  -2   7  -1  301.51   42.97
  -2   7  -1  336.20   52.11
  -2   7  -1  334.19   35.73
  -2   7  -1  314.71   30.16
  -2   7   0   37.76   13.45
  -2   7   0   12.79   10.07
  -2   7   0   53.97   27.66
  -2   7   0   20.42    9.22
  -2   7   1  710.97   47.11
  -2   7   1  707.05   63.72
  -2   7   1  654.69   67.72
  -2   7   1  724.50   52.77
  -2   7   1  666.41   69.97
  -2   7   2  750.29   38.20
  -2   7   2  752.54   40.36
  -2   7   2  680.24   63.50
  -2   7   2  753.23   54.08
  -2   7   2  834.51   75.49
  -2   7   2  759.07   73.48
  -2   7   3   81.63   25.19
  -2   7   3   99.96   27.49
  -2   7   3  124.03   32.74
  -2   7   3   87.18   20.33
  -2   7   3   98.84   20.61
  -2   7   4    6.75   15.64
  -2   7   4   13.47   12.07
  -2   7   4    1.32   16.00
  -2   7   4   13.88   10.56
  -2   7   4   28.24   14.35
  -2   7   5  144.75   30.38
  -2   7   5  135.31   31.86
  -2   7   5   95.82   37.26
  -2   7   5  118.46   28.29
  -2   7   6  140.36   28.81
  -2   7   6  103.12   30.79
  -2   7   6   92.77   28.48
  -2   7   6  131.11   36.28
  -2   7   7   32.68   16.08
  -2   7   7  -28.07   23.71
  -2   7   7   -0.55   19.87
  -2   7   7   -4.28   12.90
  -2   7   8   -5.10   12.54
  -2   7   8   23.82   18.11
  -2   7   8    0.47   14.95
  -2   7   8   32.49   22.94
  -2   7   9   54.39   24.42
  -2   7   9   82.32   33.12
  -2   7  10  -15.64   24.92
  -2   8  -9  210.14   37.18
  -2   8  -8   48.65   21.60
  -2   8  -7   81.74   26.45
  -2   8  -6   70.77   21.84
  -2   8  -6  102.74   36.00
  -2   8  -5   40.83   16.35
  -2   8  -5   -4.94   24.89
  -2   8  -5   26.95   15.06
  -2   8  -4  -21.05   15.37
  -2   8  -4  -26.04   23.87
  -2   8  -4   20.80    8.59
  -2   8  -3  231.70   40.20
  -2   8  -3  235.33   21.43
  -2   8  -3  205.72   44.97
  -2   8  -3  220.92   28.07
  -2   8  -2  680.46   67.20
  -2   8  -2  594.54   23.57
  -2   8  -2  634.09   70.82
  -2   8  -2  645.61   43.16
  -2   8  -1   -5.76    9.85
  -2   8  -1   -1.18   16.90
  -2   8  -1    6.39   10.10
  -2   8  -1    1.07    8.29
  -2   8   0 1033.06   82.92
  -2   8   0 1021.05   66.62
  -2   8   0  956.56   85.56
  -2   8   0  967.10   53.51
  -2   8   1  316.49   34.03
  -2   8   1  343.08   48.95
  -2   8   1  267.60   46.07
  -2   8   1  271.38   34.71
  -2   8   1  335.13   52.19
  -2   8   2    6.81    8.01
  -2   8   2   45.50   11.28
  -2   8   2   -0.47    8.56
  -2   8   2   42.89   23.21
  -2   8   2    3.18    8.20
  -2   8   2   21.10   24.89
  -2   8   2   22.58   14.16
  -2   8   3   77.19   24.12
  -2   8   3   84.10   26.59
  -2   8   3   96.64   28.62
  -2   8   3   87.73   22.23
  -2   8   4   -7.88   11.80
  -2   8   4   30.13   27.30
  -2   8   4  -17.70   20.28
  -2   8   4   -9.44   15.92
  -2   8   5    0.11    4.66
  -2   8   5  -24.72   23.52
  -2   8   5    9.52   22.67
  -2   8   5    3.95    6.83
  -2   8   6  133.47   32.57
  -2   8   6  135.64   33.59
  -2   8   6  147.44   33.83
  -2   8   6  100.81   30.49
  -2   8   7  105.59   25.88
  -2   8   7   92.42   33.83
  -2   8   7   84.71   32.90
  -2   8   8   -9.80   19.92
  -2   8   8  -44.97   24.61
  -2   8   9   -0.16   17.07
  -2   9  -9   13.72   11.06
  -2   9  -8  127.21   36.80
  -2   9  -7   74.42   24.78
  -2   9  -6   59.49   29.72
  -2   9  -6  139.40   41.98
  -2   9  -5  295.06   50.93
  -2   9  -5  252.83   55.13
  -2   9  -4  115.14   34.25
  -2   9  -4  119.94   34.00
  -2   9  -3    7.66   16.99
  -2   9  -3   72.52   30.71
  -2   9  -2  157.81   35.01
  -2   9  -2  109.21   35.07
  -2   9  -1  103.72   29.44
  -2   9  -1  124.28   38.44
  -2   9   0   29.39   19.24
  -2   9   0   30.65   28.84
  -2   9   1  216.61   28.59
  -2   9   1  252.94   43.22
  -2   9   1  182.94   40.39
  -2   9   1  211.34   48.05
  -2   9   1  201.19   29.31
  -2   9   2  166.59   36.96
  -2   9   2  163.38   40.04
  -2   9   2  119.12   40.20
  -2   9   2  144.97   26.97
  -2   9   3   -3.07   17.31
  -2   9   3   10.48   19.76
  -2   9   3    1.02   14.54
  -2   9   3   -0.88   12.18
  -2   9   4  118.27   32.24
  -2   9   4  113.57   32.13
  -2   9   4  109.10   27.00
  -2   9   4   96.95   33.86
  -2   9   5   71.40   24.53
  -2   9   5   53.23   16.27
  -2   9   6   12.27   11.06
  -2   9   6   45.28   26.51
  -2   9   7   10.73   14.82
  -2  10  -6  184.75   43.82
  -2  10  -6  141.26   57.65
  -2  10  -5   37.32   18.77
  -2  10  -5    4.14   14.68
  -2  10  -4   91.35   32.93
  -2  10  -4   85.12   27.85
  -2  10  -3  100.46   29.83
  -2  10  -3  145.51   41.41
  -2  10  -2    6.94   11.63
  -2  10  -2    8.23   26.40
  -2  10  -1  168.45   42.18
  -2  10  -1  186.59   48.84
  -2  10   0  118.62   33.18
  -2  10   0  123.73   34.96
  -2  10   1   53.01   26.01
  -2  10   1   11.63   24.09
  -2  10   1  -12.51   24.56
  -2  10   2   20.31   15.23
  -2  10   2    2.61   18.00
  -2  10   3   95.22   35.37
  -2  10   3  -11.42   14.05
  -2  10   4    4.14    7.77
  -2  11  -5  233.76   58.23
  -2  11  -4   28.04   26.32
  -2  11  -3   89.26   37.59
  -1 -11  -1   37.54   22.23
  -1 -11   0   41.19   22.09
  -1 -11   1  103.56   29.31
  -1 -11   2   70.19   25.11
  -1 -10  -2   40.69   23.21
  -1 -10  -1  141.07   36.61
  -1 -10   0   11.94   13.09
  -1 -10   1   -7.57   14.41
  -1 -10   2  154.68   35.10
  -1 -10   3   87.59   29.03
  -1 -10   4   14.32   19.35
  -1 -10   5  326.15   51.59
  -1  -9  -2  157.04   33.92
  -1  -9  -1   52.38   21.38
  -1  -9   0  515.30   43.60
  -1  -9   0  492.44   54.94
  -1  -9   1  379.22   50.38
  -1  -9   2  -14.21   15.70
  -1  -9   2    8.31   15.17
  -1  -9   3  412.75   51.97
  -1  -9   3  351.40   47.99
  -1  -9   4  113.79   29.31
  -1  -9   4   85.23   26.10
  -1  -9   5   91.73   29.33
  -1  -9   6   54.58   22.20
  -1  -9   7  126.33   34.41
  -1  -8 -10   12.32   21.71
  -1  -8  -9    6.67   14.60
  -1  -8  -8   90.61   34.30
  -1  -8  -8   27.93   25.00
  -1  -8  -7   15.83   20.99
  -1  -8  -2   60.07   23.08
  -1  -8  -1  307.96   41.76
  -1  -8   0  111.35   19.73
  -1  -8   0  127.24   28.32
  -1  -8   1  547.18   55.26
  -1  -8   1  458.72   43.08
  -1  -8   2  889.14   69.29
  -1  -8   3  270.50   41.96
  -1  -8   3  267.49   40.75
  -1  -8   4 1008.18   82.24
  -1  -8   4 1063.82   79.16
  -1  -8   5  262.57   47.25
  -1  -8   5  191.48   38.33
  -1  -8   5  230.58   21.51
  -1  -8   6    3.70   11.66
  -1  -8   6   -6.59    5.84
  -1  -8   7    8.12   16.08
  -1  -8   7   73.76   17.26
  -1  -8   8   47.36   20.58
  -1  -7 -11    3.73   12.21
  -1  -7 -10  110.36   41.60
  -1  -7  -9   15.50   14.46
  -1  -7  -9   28.10   22.94
  -1  -7  -8   49.09   24.64
  -1  -7  -8   17.15   18.80
  -1  -7  -7  242.32   45.41
  -1  -7  -7  177.24   34.96
  -1  -7  -6  464.23   62.87
  -1  -7  -6  329.28   45.17
  -1  -7  -5   15.28   13.77
  -1  -7  -2   16.99   19.15
  -1  -7  -1  370.88   42.50
  -1  -7  -1  393.22   31.45
  -1  -7   0 1288.92   75.95
  -1  -7   0 1194.33   58.06
  -1  -7   1  140.11   25.52
  -1  -7   1  170.65   31.12
  -1  -7   2  482.04   46.90
  -1  -7   3  631.89   58.17
  -1  -7   3  655.68   56.69
  -1  -7   4   -3.13    5.43
  -1  -7   4    3.48   17.92
  -1  -7   4  -20.47   15.72
  -1  -7   5  739.56   64.46
  -1  -7   5  659.44   68.30
  -1  -7   5  683.72   41.22
  -1  -7   6  612.16   62.59
  -1  -7   7   17.92   16.66
  -1  -7   7    1.98   14.65
  -1  -7   8  180.23   29.58
  -1  -7   8  185.71   39.24
  -1  -7   9  102.05   33.12
  -1  -7   9  121.09   28.84
  -1  -7  10   20.44   18.08
  -1  -6 -11   57.73   33.56
  -1  -6 -10  -26.23   34.57
  -1  -6 -10   19.13   21.05
  -1  -6  -9   15.20   17.29
  -1  -6  -9   50.33   21.18
  -1  -6  -8   56.97   22.50
  -1  -6  -8   58.89   26.45
  -1  -6  -7   46.87   18.96
  -1  -6  -7   43.05   19.37
  -1  -6  -6  509.21   61.49
  -1  -6  -6  416.32   49.50
  -1  -6  -5  279.75   43.88
  -1  -6  -5  303.21   39.84
  -1  -6  -4    3.59   17.53
  -1  -6  -2 1227.81   75.10
  -1  -6  -2 1294.65   72.14
  -1  -6  -1  311.53   40.25
  -1  -6  -1  360.54   39.82
  -1  -6  -1  274.46   23.71
  -1  -6   0  896.93   57.93
  -1  -6   0  952.01   47.86
  -1  -6   1  687.51   50.98
  -1  -6   1  698.93   48.08
  -1  -6   2  112.81   26.75
  -1  -6   2   90.61   22.36
  -1  -6   2  121.12   24.17
  -1  -6   3  568.45   49.25
  -1  -6   3  535.16   25.46
  -1  -6   4  477.21   53.73
  -1  -6   4  529.81   50.68
  -1  -6   4  516.23   32.21
  -1  -6   5  469.66   48.21
  -1  -6   5  347.80   50.11
  -1  -6   5  427.49   34.35
  -1  -6   6  106.33   36.88
  -1  -6   6  165.99   30.65
  -1  -6   7  621.00   60.04
  -1  -6   7  772.85   58.37
  -1  -6   8   15.01   14.57
  -1  -6   8   30.65   17.51
  -1  -6   9  101.83   26.56
  -1  -6   9  125.92   32.74
  -1  -6  10  137.20   33.37
  -1  -6  10  156.35   32.32
  -1  -6  11   -2.28   18.11
  -1  -6  12  -15.83   26.37
  -1  -5 -12   85.61   34.93
  -1  -5 -11   19.76   18.41
  -1  -5 -11  141.10   43.25
  -1  -5 -10   42.48   24.50
  -1  -5 -10   32.46   24.34
  -1  -5  -9    7.00   10.13
  -1  -5  -9  -18.33   27.25
  -1  -5  -8  391.16   27.66
  -1  -5  -8  346.54   52.58
  -1  -5  -8  343.69   50.98
  -1  -5  -7  409.16   27.11
  -1  -5  -7  427.32   52.68
  -1  -5  -7  373.84   48.84
  -1  -5  -6    7.30    6.67
  -1  -5  -6   25.55   14.54
  -1  -5  -6   21.18   17.37
  -1  -5  -6  -17.86   10.87
  -1  -5  -5   14.52   15.31
  -1  -5  -5   25.88   15.81
  -1  -5  -4   40.89   16.55
  -1  -5  -3  436.96   42.92
  -1  -5  -3  482.70   40.06
  -1  -5  -2  929.18   56.64
  -1  -5  -1 5943.33   94.92
  -1  -5  -1 6551.73  142.47
  -1  -5   0  191.26   26.97
  -1  -5   0  207.01   21.05
  -1  -5   1 1712.01   72.36
  -1  -5   1 1702.25   67.12
  -1  -5   2  631.31   49.25
  -1  -5   2  494.03   42.31
  -1  -5   2  569.27   43.74
  -1  -5   2  564.58   20.31
  -1  -5   3   -3.59   10.67
  -1  -5   3    7.55   13.06
  -1  -5   3    1.21    5.63
  -1  -5   3    4.06   12.35
  -1  -5   4  220.54   30.40
  -1  -5   4  152.68   27.41
  -1  -5   4  203.19   22.28
  -1  -5   5  511.62   47.06
  -1  -5   5  512.39   55.54
  -1  -5   5  460.77   37.65
  -1  -5   6   84.60   28.95
  -1  -5   6  109.95   24.86
  -1  -5   7   38.80   21.60
  -1  -5   7   49.83   18.58
  -1  -5   8  431.66   50.22
  -1  -5   9  324.53   45.11
  -1  -5  10   -0.11   15.56
  -1  -5  11  231.37   44.40
  -1  -5  12    7.99   11.28
  -1  -4 -12   60.09   26.75
  -1  -4 -11   51.18   28.95
  -1  -4 -11   12.57   28.89
  -1  -4 -10   37.84   24.94
  -1  -4 -10   54.00   30.90
  -1  -4  -9  375.52   53.70
  -1  -4  -9  309.61   32.30
  -1  -4  -9  321.68   53.04
  -1  -4  -8   19.95   18.82
  -1  -4  -8    9.91   11.44
  -1  -4  -8   -8.64   19.18
  -1  -4  -7  398.87   48.38
  -1  -4  -7  336.83   29.58
  -1  -4  -7  370.58   47.17
  -1  -4  -7  410.94   49.09
  -1  -4  -6   53.26   21.92
  -1  -4  -6   91.51   15.75
  -1  -4  -6   93.85   24.70
  -1  -4  -6  100.38   23.74
  -1  -4  -6   66.84   21.29
  -1  -4  -5   -5.32    9.33
  -1  -4  -5    2.80   13.42
  -1  -4  -5  -10.51    6.37
  -1  -4  -5   -1.56    9.52
  -1  -4  -5   -4.64    5.87
  -1  -4  -4   18.71   10.02
  -1  -4  -4   31.61    9.27
  -1  -4  -4   32.32   15.45
  -1  -4  -4   40.45   12.13
  -1  -4  -4   28.40   11.09
  -1  -4  -3 2611.66   67.20
  -1  -4  -3 2736.27   98.35
  -1  -4  -3 2735.94   88.99
  -1  -4  -3 2934.28   92.99
  -1  -4  -2 1444.12   67.20
  -1  -4  -2 1578.44   69.12
  -1  -4  -2 1552.12   65.31
  -1  -4  -1  477.29   22.58
  -1  -4  -1  478.47   35.81
  -1  -4   0 4421.64  103.23
  -1  -4   0 4316.71   81.58
  -1  -4   1  542.98   35.59
  -1  -4   1  561.53   37.87
  -1  -4   2 1064.26   57.82
  -1  -4   2 1022.12   52.14
  -1  -4   2  935.30   54.00
  -1  -4   2 1049.42   32.27
  -1  -4   3 1995.17   78.86
  -1  -4   3 1762.81   82.65
  -1  -4   3 1882.64   73.07
  -1  -4   3 1821.25   56.42
  -1  -4   4   81.69   16.55
  -1  -4   4   65.39   16.46
  -1  -4   4   55.18   13.94
  -1  -4   5  426.47   49.42
  -1  -4   5  485.28   42.94
  -1  -4   5  440.11   38.17
  -1  -4   6  665.75   67.89
  -1  -4   7  117.75   35.10
  -1  -4   7   71.26   20.80
  -1  -4   8   13.31   17.34
  -1  -4   9  183.27   37.46
  -1  -4  10  262.66   44.40
  -1  -4  11  -13.25   22.06
  -1  -4  12  129.82   43.60
  -1  -3 -12   34.85   18.77
  -1  -3 -12   36.80   27.19
  -1  -3 -11  144.58   34.27
  -1  -3 -11   68.52   35.34
  -1  -3 -10   -3.38   18.55
  -1  -3 -10   17.95   26.18
  -1  -3  -9  520.04   61.03
  -1  -3  -9  440.88   42.37
  -1  -3  -9  499.63   63.91
  -1  -3  -8  675.77   50.63
  -1  -3  -8  644.40   61.77
  -1  -3  -8  780.86   73.27
  -1  -3  -8  780.53   71.40
  -1  -3  -8  842.19   70.66
  -1  -3  -7   80.43   23.63
  -1  -3  -7   97.33   18.19
  -1  -3  -7   81.09   24.15
  -1  -3  -7  101.17   25.46
  -1  -3  -7  127.05   27.99
  -1  -3  -6   33.78   16.33
  -1  -3  -6   15.26    6.26
  -1  -3  -6   30.32   17.84
  -1  -3  -6   33.45   12.81
  -1  -3  -6    5.46    9.30
  -1  -3  -5  517.25   34.66
  -1  -3  -5  475.43   43.74
  -1  -3  -5  514.36   33.56
  -1  -3  -5  498.75   44.45
  -1  -3  -5  491.73   43.55
  -1  -3  -4  669.87   34.96
  -1  -3  -4  758.91   51.01
  -1  -3  -4  780.81   42.53
  -1  -3  -4  765.80   51.23
  -1  -3  -4  780.89   48.02
  -1  -3  -4  769.01   50.60
  -1  -3  -3  853.83   36.58
  -1  -3  -3  976.89   53.29
  -1  -3  -3  893.12   45.55
  -1  -3  -3  930.99   49.53
  -1  -3  -3  944.41   45.41
  -1  -3  -3  946.35   51.94
  -1  -3  -2 4073.64   79.58
  -1  -3  -2 4397.82  102.43
  -1  -3  -2 4263.31   98.73
  -1  -3  -2 4338.80   95.46
  -1  -3  -2 4258.15   78.51
  -1  -3  -1   28.48   11.55
  -1  -3  -1   46.62   11.85
  -1  -3  -1   41.68   11.85
  -1  -3  -1   38.31    5.87
  -1  -3   0  998.57   42.86
  -1  -3   0  938.67   32.19
  -1  -3   1 1789.75   58.09
  -1  -3   1 1719.83   56.14
  -1  -3   1 1825.04   31.42
  -1  -3   2 4634.38   97.06
  -1  -3   2 4494.82  107.62
  -1  -3   2 4610.29   76.23
  -1  -3   3   -0.77    6.28
  -1  -3   3   -7.19    9.93
  -1  -3   3    5.49    7.30
  -1  -3   3    3.46    7.63
  -1  -3   4 2178.85   96.62
  -1  -3   4 2348.79   80.29
  -1  -3   5   15.09    8.95
  -1  -3   5   30.54   19.92
  -1  -3   6  233.98   43.55
  -1  -3   6  298.08   36.25
  -1  -3   7  491.64   60.12
  -1  -3   7  442.44   48.62
  -1  -3   8  705.40   65.91
  -1  -3   9   13.20   18.17
  -1  -3  10  191.75   42.78
  -1  -3  11  106.33   39.93
  -1  -3  12   -3.48   23.76
  -1  -2 -12   59.27   27.99
  -1  -2 -12   18.03   29.83
  -1  -2 -11   47.88   18.99
  -1  -2 -11   81.96   31.67
  -1  -2 -11   44.04   31.42
  -1  -2 -10  326.56   41.85
  -1  -2 -10  310.51   49.50
  -1  -2 -10  352.55   58.72
  -1  -2  -9   21.35   17.26
  -1  -2  -9   21.02   18.91
  -1  -2  -8   18.58    9.00
  -1  -2  -8   23.74   15.97
  -1  -2  -8   16.35   17.04
  -1  -2  -8   36.77   19.29
  -1  -2  -8    2.14   12.05
  -1  -2  -7   41.52   13.97
  -1  -2  -7   20.11   14.27
  -1  -2  -7   23.93   17.29
  -1  -2  -7   52.08   16.88
  -1  -2  -7   31.58   13.94
  -1  -2  -6  226.35   18.11
  -1  -2  -6  201.27   24.64
  -1  -2  -6  214.44   30.46
  -1  -2  -6  271.46   34.99
  -1  -2  -6  248.11   31.58
  -1  -2  -5  439.64   26.10
  -1  -2  -5  499.52   42.37
  -1  -2  -5  489.97   42.34
  -1  -2  -5  532.12   42.53
  -1  -2  -4 7372.68  121.70
  -1  -2  -4 7642.97  145.60
  -1  -2  -4 7614.05  108.50
  -1  -2  -4 7539.74  150.40
  -1  -2  -4 7380.09  142.91
  -1  -2  -4 7503.19  142.58
  -1  -2  -3 6509.80  103.50
  -1  -2  -3 7108.93  126.77
  -1  -2  -3 6861.36  104.38
  -1  -2  -3 7140.46  130.23
  -1  -2  -3 6704.85  117.64
  -1  -2  -3 6664.02  120.87
  -1  -2  -2  651.67   30.10
  -1  -2  -2  712.12   35.89
  -1  -2  -2  633.56   32.63
  -1  -2  -2  679.44   35.95
  -1  -2  -2  681.45   30.87
  -1  -2  -2  632.55   33.15
  -1  -2  -1  827.59   33.42
  -1  -2  -1  861.65   34.25
  -1  -2  -1  902.45   35.64
  -1  -2  -1  848.72   24.12
  -1  -2   0   19.21    6.17
  -1  -2   0   18.17    8.59
  -1  -2   1 1250.42   46.02
  -1  -2   1 1149.19   39.43
  -1  -2   1 1179.70   31.58
  -1  -2   2 1759.21   53.45
  -1  -2   2 1695.36   51.01
  -1  -2   2 1587.05   50.22
  -1  -2   3  662.18   33.09
  -1  -2   3  584.03   36.74
  -1  -2   4   20.96    8.84
  -1  -2   4    9.60   11.61
  -1  -2   5  912.88   37.32
  -1  -2   6 2288.28  100.98
  -1  -2   7  124.47   31.23
  -1  -2   8  392.56   51.51
  -1  -2   9  334.74   50.85
  -1  -2  10  -17.34   26.26
  -1  -2  11  177.92   39.87
  -1  -2  12   75.65   31.53
  -1  -1 -13   21.46   20.85
  -1  -1 -12  197.43   44.45
  -1  -1 -12  145.57   46.98
  -1  -1 -11   62.56   22.12
  -1  -1 -11   51.56   25.68
  -1  -1 -11   52.63   22.99
  -1  -1 -10  420.41   55.46
  -1  -1 -10  424.33   51.64
  -1  -1 -10  521.47   66.60
  -1  -1  -9  274.62   38.55
  -1  -1  -9  342.10   46.68
  -1  -1  -9  320.25   49.78
  -1  -1  -8  241.58   35.97
  -1  -1  -8  150.78   33.39
  -1  -1  -8  216.34   33.56
  -1  -1  -8  211.43   36.88
  -1  -1  -7  370.55   38.09
  -1  -1  -7  399.69   42.92
  -1  -1  -7  411.88   46.59
  -1  -1  -7  404.58   43.00
  -1  -1  -6   39.93    6.50
  -1  -1  -6   38.83   15.20
  -1  -1  -6   29.06   11.44
  -1  -1  -6   67.04   18.55
  -1  -1  -6   35.70   14.05
  -1  -1  -5 1628.27   37.84
  -1  -1  -5 1418.57   61.69
  -1  -1  -5 1648.82   71.12
  -1  -1  -5 1573.96   68.82
  -1  -1  -5 1606.95   75.02
  -1  -1  -4 2127.07   45.99
  -1  -1  -4 1953.02   65.36
  -1  -1  -4 2088.77   71.37
  -1  -1  -4 2088.63   75.57
  -1  -1  -4 1938.28   67.67
  -1  -1  -3 9803.46  134.76
  -1  -1  -3 9212.02  125.18
  -1  -1  -3 9685.88   99.69
  -1  -1  -3 9393.70  134.87
  -1  -1  -3 9226.32  126.77
  -1  -1  -2 5127.62   81.80
  -1  -1  -2 5077.95   72.55
  -1  -1  -2 4778.42   81.58
  -1  -1  -2 4851.54   78.45
  -1  -1  -2 4909.47   75.57
  -1  -1  -1  473.84   23.32
  -1  -1   1 2527.12   51.04
  -1  -1   1 2553.08   45.91
  -1  -1   2 1384.65   38.03
  -1  -1   2 1317.59   47.80
  -1  -1   3  134.54   12.62
  -1  -1   3  156.57   21.51
  -1  -1   4   22.17    6.04
  -1  -1   4   23.41    9.27
  -1  -1   5   18.36    4.88
  -1  -1   6  386.88   45.77
  -1  -1   7 2501.90  117.31
  -1  -1   8  260.02   45.00
  -1  -1   9  655.05   69.15
  -1  -1  10  163.30   41.41
  -1  -1  11    4.50   22.17
  -1  -1  12   -1.73   24.83
  -1   0 -13   47.94   21.68
  -1   0 -12   41.90   24.81
  -1   0 -12  117.69   38.25
  -1   0 -11  352.82   50.60
  -1   0 -11  371.90   60.59
  -1   0 -10  112.83   26.70
  -1   0 -10  139.12   30.46
  -1   0  -9  -12.07   16.05
  -1   0  -9  -24.01   16.82
  -1   0  -8  183.77   29.69
  -1   0  -8  185.71   33.42
  -1   0  -8  191.70   31.94
  -1   0  -8  174.44   32.05
  -1   0  -7  482.70   46.92
  -1   0  -7  471.37   49.78
  -1   0  -7  564.03   49.69
  -1   0  -6   43.16   16.79
  -1   0  -6   18.38   10.43
  -1   0  -5 1947.42   75.90
  -1   0  -5 1800.10   78.45
  -1   0  -4 1067.83   50.87
  -1   0  -4 1083.36   53.43
  -1   0  -3  360.07   26.78
  -1   0  -3  393.87   28.04
  -1   0  -2 6253.84   99.66
  -1   0  -2 6043.73   86.85
  -1   0   1 2109.02   37.54
  -1   0   1 2260.90   43.55
  -1   0   1 2191.64   44.07
  -1   0   2 1905.33   46.57
  -1   0   3  327.36   23.63
  -1   0   4 1313.20   53.76
  -1   0   7  321.54   44.89
  -1   0   8  523.58   59.79
  -1   0   9   -5.82   13.50
  -1   0  10  162.36   44.45
  -1   0  11  190.74   43.05
  -1   0  12   16.11   31.89
  -1   1 -13  134.70   39.76
  -1   1 -12   62.87   22.50
  -1   1 -11   18.55   17.67
  -1   1 -10  151.85   37.81
  -1   1  -9  284.66   41.38
  -1   1  -8   95.22   23.16
  -1   1  -8  109.10   27.30
  -1   1  -7 1679.09   33.04
  -1   1  -7 1662.21   83.75
  -1   1  -7 1754.35   93.49
  -1   1  -6 2267.29   46.18
  -1   1  -6 2249.32   96.86
  -1   1  -5   33.34   13.31
  -1   1  -4 1761.49   67.28
  -1   1  -3  236.34   16.13
  -1   1  -3  202.48   14.43
  -1   1  -3  239.55   28.43
  -1   1  -3  230.19   21.65
  -1   1  -2  191.39   14.35
  -1   1  -2  231.51   16.27
  -1   1  -2  175.04   23.19
  -1   1  -2  215.95   17.78
  -1   1  -1 1826.55   47.61
  -1   1  -1 1876.79   32.63
  -1   1  -1 1974.51   56.61
  -1   1  -1 1869.16   41.76
  -1   1   0 8169.46   81.28
  -1   1   0 8333.30  104.49
  -1   1   0 8258.48   55.70
  -1   1   1  232.86   15.61
  -1   1   1  232.44   16.22
  -1   1   1  211.01   17.18
  -1   1   1  231.40   18.58
  -1   1   2  503.80   23.24
  -1   1   2  464.53   21.71
  -1   1   2  434.71   27.28
  -1   1   2  470.08   30.05
  -1   1   3   25.16    8.67
  -1   1   4 3059.82   88.58
  -1   1   5 1233.95   34.16
  -1   1   6 2997.55   45.00
  -1   1   6 2941.63  104.63
  -1   1   7   -6.89   11.72
  -1   1   7    2.00   15.37
  -1   1   8   73.87   26.40
  -1   1   9  200.04   39.90
  -1   1  10   43.11   28.62
  -1   1  11   41.46   28.24
  -1   1  12   63.74   38.20
  -1   2 -13   24.81   25.49
  -1   2 -12  247.37   45.93
  -1   2 -11  152.92   37.84
  -1   2 -10   80.59   27.11
  -1   2  -9  -19.37   17.84
  -1   2  -8  331.17   21.46
  -1   2  -8  444.69   53.12
  -1   2  -7   15.06    6.83
  -1   2  -7   19.70   10.43
  -1   2  -6 2075.02   59.65
  -1   2  -6 2036.30   91.76
  -1   2  -5 4053.39   80.51
  -1   2  -5 3891.77   77.05
  -1   2  -5 3953.10  114.12
  -1   2  -4  280.03   22.03
  -1   2  -4  260.63   20.53
  -1   2  -4  300.58   37.26
  -1   2  -4  244.11   26.04
  -1   2  -3 2381.50   62.26
  -1   2  -3 2283.23   60.26
  -1   2  -3 2292.23   86.93
  -1   2  -3 2275.25   65.88
  -1   2  -2 5193.34   91.87
  -1   2  -2 4953.02   87.97
  -1   2  -2 5272.28  117.99
  -1   2  -2 5183.81   84.54
  -1   2  -1  535.71   36.19
  -1   2  -1  534.81   24.67
  -1   2   0  271.99   16.33
  -1   2   0  248.17   24.31
  -1   2   1  170.62   10.43
  -1   2   1  212.03   21.87
  -1   2   1  181.90   14.63
  -1   2   1  166.67   16.71
  -1   2   1  190.82   18.69
  -1   2   2  764.45   34.82
  -1   2   2  801.52   35.18
  -1   2   2  729.88   41.11
  -1   2   3  397.88   25.71
  -1   2   3  365.89   23.60
  -1   2   3  380.90   34.63
  -1   2   4 4296.46   82.24
  -1   2   4 4223.33   78.81
  -1   2   4 4374.22  126.50
  -1   2   5 1141.75   40.28
  -1   2   5 1011.50   42.09
  -1   2   5 1150.34   41.46
  -1   2   5 1057.90   68.63
  -1   2   6    3.92    6.64
  -1   2   6    2.20    8.62
  -1   2   6   15.53   18.96
  -1   2   7 1249.32   40.67
  -1   2   7 1384.41   82.21
  -1   2   7 1218.17   86.38
  -1   2   8   46.04   17.84
  -1   2   8   74.64   25.35
  -1   2   9  103.12   30.65
  -1   2  10   60.40   26.18
  -1   2  11   33.59   20.42
  -1   3 -13   38.22   27.55
  -1   3 -12   -1.59   17.20
  -1   3 -11   48.29   27.11
  -1   3 -10  324.34   48.93
  -1   3  -9   50.38   11.28
  -1   3  -8  273.91   25.77
  -1   3  -8  289.85   43.66
  -1   3  -7  589.52   38.53
  -1   3  -7  620.64   36.47
  -1   3  -7  556.32   34.44
  -1   3  -7  655.19   57.76
  -1   3  -6  321.13   27.41
  -1   3  -6  264.77   26.10
  -1   3  -6  243.56   23.08
  -1   3  -6  285.16   36.55
  -1   3  -5    1.48    6.94
  -1   3  -5    1.13    1.67
  -1   3  -5   -0.22    7.85
  -1   3  -5    7.52    9.25
  -1   3  -4 3386.05   90.77
  -1   3  -4 3566.91   89.81
  -1   3  -4 3329.17   85.83
  -1   3  -4 3380.15  122.52
  -1   3  -4 3237.90   92.36
  -1   3  -3  535.08   35.37
  -1   3  -3  443.05   31.17
  -1   3  -3  492.06   45.28
  -1   3  -3  491.73   31.64
  -1   3  -2 5365.99  107.98
  -1   3  -2 5484.48  111.71
  -1   3  -2 5420.46   90.31
  -1   3  -1 3710.67   74.34
  -1   3  -1 3590.07   67.48
  -1   3   0    4.28    3.35
  -1   3   0   11.72   11.31
  -1   3   0    2.44    5.19
  -1   3   1    3.43    8.40
  -1   3   1    4.91    5.32
  -1   3   1   20.31   10.43
  -1   3   1    3.24    4.06
  -1   3   2  368.52   29.17
  -1   3   2  342.89   27.58
  -1   3   2  302.64   24.23
  -1   3   2  352.28   31.50
  -1   3   3 1177.51   51.45
  -1   3   3 1067.06   50.98
  -1   3   3 1064.18   47.86
  -1   3   3 1034.11   48.90
  -1   3   3 1087.56   59.44
  -1   3   4   15.53    8.89
  -1   3   4    9.49    6.34
  -1   3   4    8.92    6.89
  -1   3   4   15.28   11.55
  -1   3   5 2092.99   72.06
  -1   3   5 2367.15   71.78
  -1   3   5 2182.72   67.23
  -1   3   5 2096.67   94.64
  -1   3   5 2094.58   98.76
  -1   3   6  103.20   14.82
  -1   3   6  113.41   17.84
  -1   3   6  117.88   16.38
  -1   3   6   88.52   23.85
  -1   3   6  108.83   25.63
  -1   3   6   82.07   23.32
  -1   3   7  206.60   23.49
  -1   3   7  243.56   36.91
  -1   3   7  144.03   34.30
  -1   3   7  230.28   39.10
  -1   3   8  277.42   24.01
  -1   3   8  270.61   47.06
  -1   3   9  447.74   59.49
  -1   3  10   21.81   14.43
  -1   3  11   41.41   22.42
  -1   4 -13   15.50   14.08
  -1   4 -12  176.47   39.32
  -1   4 -11   60.01   26.29
  -1   4  -9  349.75   32.87
  -1   4  -8    4.94    7.02
  -1   4  -8   10.65    6.72
  -1   4  -8    4.77    8.56
  -1   4  -8   12.84   10.15
  -1   4  -7  324.86   33.39
  -1   4  -7  335.98   30.90
  -1   4  -7  337.81   42.94
  -1   4  -6  718.66   49.04
  -1   4  -6  666.27   44.23
  -1   4  -6  694.78   55.73
  -1   4  -5  379.52   36.41
  -1   4  -5  352.80   32.52
  -1   4  -5  385.78   49.80
  -1   4  -5  332.93   35.21
  -1   4  -4  455.09   38.86
  -1   4  -4  367.50   32.74
  -1   4  -4  404.06   46.43
  -1   4  -4  350.30   31.89
  -1   4  -3 1906.07   77.96
  -1   4  -3 1928.52   73.90
  -1   4  -3 1974.01   93.68
  -1   4  -3 1962.24   63.96
  -1   4  -2 1106.08   59.22
  -1   4  -2 1067.91   65.14
  -1   4  -2 1066.79   42.18
  -1   4  -1  117.58   21.05
  -1   4  -1  122.36   24.09
  -1   4  -1  123.04   16.90
  -1   4  -1  119.14   14.08
  -1   4   0  916.88   54.00
  -1   4   0  914.19   29.06
  -1   4   0  921.77   43.47
  -1   4   0  961.20   56.39
  -1   4   1  600.09   44.12
  -1   4   1  641.36   36.93
  -1   4   1  674.50   46.62
  -1   4   2   53.70    7.63
  -1   4   2   63.06   14.27
  -1   4   2   41.11   11.50
  -1   4   2   49.42   14.32
  -1   4   2   47.58   13.17
  -1   4   2   61.05   12.81
  -1   4   3 1917.35   78.73
  -1   4   3 2152.95   79.14
  -1   4   3 1992.37   75.38
  -1   4   3 1809.21   69.94
  -1   4   3 2003.24   82.59
  -1   4   3 1978.98   82.10
  -1   4   4  725.98   49.28
  -1   4   4  745.60   47.22
  -1   4   4  685.34   44.23
  -1   4   4  819.53   50.98
  -1   4   4  847.49   57.27
  -1   4   4  800.70   57.73
  -1   4   5  119.09   21.38
  -1   4   5  133.11   21.05
  -1   4   5  148.42   21.18
  -1   4   5  138.68   27.82
  -1   4   5  130.75   22.91
  -1   4   5  122.44   28.54
  -1   4   5  115.17   25.66
  -1   4   6  307.27   30.73
  -1   4   6  195.18   26.23
  -1   4   6  262.00   27.52
  -1   4   6  274.48   38.96
  -1   4   6  266.96   40.04
  -1   4   6  265.18   39.82
  -1   4   7  421.73   37.54
  -1   4   7  446.50   36.47
  -1   4   7  444.86   34.11
  -1   4   7  366.71   49.06
  -1   4   7  433.22   54.33
  -1   4   8   11.14    9.77
  -1   4   8    1.89    4.88
  -1   4   9  164.20   37.89
  -1   4  10   -0.80   15.59
  -1   4  11  -22.09   23.02
  -1   5 -12   27.60   21.54
  -1   5  -9  155.78   24.86
  -1   5  -9  136.21   25.77
  -1   5  -9  158.08   22.67
  -1   5  -8  672.39   54.41
  -1   5  -8  708.59   51.04
  -1   5  -8  660.10   48.13
  -1   5  -8  747.88   67.37
  -1   5  -7  414.78   39.76
  -1   5  -7  485.99   42.56
  -1   5  -7  543.37   48.10
  -1   5  -7  463.11   48.43
  -1   5  -6   79.55   20.50
  -1   5  -6   81.91   19.56
  -1   5  -6   84.24   17.59
  -1   5  -6  105.21   22.67
  -1   5  -5 1039.90   62.87
  -1   5  -5  996.46   60.34
  -1   5  -5 1159.89   69.15
  -1   5  -5 1009.77   81.91
  -1   5  -5 1049.97   60.83
  -1   5  -4    5.60   10.65
  -1   5  -4   35.59   13.88
  -1   5  -4   44.21   16.44
  -1   5  -4   13.20   20.00
  -1   5  -4   29.88   12.07
  -1   5  -3 1098.01   63.36
  -1   5  -3 1233.46   70.91
  -1   5  -3 1245.48   68.24
  -1   5  -3 1163.29   78.15
  -1   5  -3 1140.27   50.24
  -1   5  -2  492.17   44.54
  -1   5  -2  445.65   47.36
  -1   5  -2  453.94   28.87
  -1   5  -1  276.87   34.68
  -1   5  -1  381.25   32.24
  -1   5  -1  325.82   38.58
  -1   5  -1  310.24   22.99
  -1   5   0  444.23   24.01
  -1   5   0  484.67   35.75
  -1   5   0  442.47   42.56
  -1   5   0  457.56   43.71
  -1   5   1 1287.85   70.99
  -1   5   1 1270.15   58.67
  -1   5   1 1176.71   42.72
  -1   5   1 1181.51   69.40
  -1   5   1 1296.21   68.63
  -1   5   2 3355.62   68.00
  -1   5   2 3331.36  110.36
  -1   5   2 2979.06  109.82
  -1   5   2 3288.20  108.64
  -1   5   2 3205.93   95.46
  -1   5   2 3303.95  112.94
  -1   5   3  -13.88   10.04
  -1   5   3  -14.74   11.63
  -1   5   3   -5.30    9.91
  -1   5   3    5.82   10.54
  -1   5   3   -8.84    9.08
  -1   5   3    4.23    6.56
  -1   5   4  316.14   41.22
  -1   5   4  345.14   38.00
  -1   5   4  342.01   36.80
  -1   5   4  332.55   35.53
  -1   5   4  325.93   39.71
  -1   5   4  275.64   32.19
  -1   5   4  354.83   38.66
  -1   5   4  311.77   41.32
  -1   5   5   56.69   21.13
  -1   5   5   54.36   18.30
  -1   5   5   67.39   18.03
  -1   5   5   55.18   14.43
  -1   5   5   42.94   18.96
  -1   5   5   65.83   18.82
  -1   5   5   66.19   18.47
  -1   5   5   45.91   23.30
  -1   5   6  130.59   22.39
  -1   5   6  137.39   22.17
  -1   5   6  136.40   24.39
  -1   5   6  124.74   28.84
  -1   5   6  107.10   24.72
  -1   5   6  108.99   24.45
  -1   5   6  105.53   30.43
  -1   5   7  656.75   48.79
  -1   5   7  656.89   52.30
  -1   5   7  667.53   48.16
  -1   5   7  699.86   69.31
  -1   5   7  633.04   66.10
  -1   5   8  312.93   36.61
  -1   5   8  275.99   32.05
  -1   5   8  318.03   32.93
  -1   5   8  270.94   45.30
  -1   5   8  392.01   55.07
  -1   5   9   14.74   15.26
  -1   5   9   -2.03   15.78
  -1   5  10   -7.41   10.26
  -1   5  11  -23.65   16.68
  -1   6 -10  103.81   20.74
  -1   6  -9  162.56   26.62
  -1   6  -9  171.50   29.72
  -1   6  -9  160.55   26.51
  -1   6  -8   57.65   18.44
  -1   6  -8   27.55   12.65
  -1   6  -8   23.96   14.52
  -1   6  -7  675.19   60.09
  -1   6  -7  696.98   56.55
  -1   6  -7  695.69   55.73
  -1   6  -7  639.27   57.19
  -1   6  -6  710.64   61.99
  -1   6  -6  678.46   55.68
  -1   6  -6  714.57   57.32
  -1   6  -6  593.03   51.61
  -1   6  -5  376.64   41.22
  -1   6  -5  370.33   41.30
  -1   6  -5  406.25   45.41
  -1   6  -5  376.01   54.14
  -1   6  -5  331.92   35.07
  -1   6  -4 1606.29   89.59
  -1   6  -4 1499.55   82.38
  -1   6  -4 1600.28   84.05
  -1   6  -4 1611.36  101.61
  -1   6  -4 1527.34   66.05
  -1   6  -3  115.17   26.73
  -1   6  -3  142.63   26.95
  -1   6  -3  153.64   27.28
  -1   6  -3  147.68   33.12
  -1   6  -3   96.15   16.38
  -1   6  -2   11.72    8.70
  -1   6  -2  -14.68   14.05
  -1   6  -2  -19.24   12.18
  -1   6  -2   18.93   18.28
  -1   6  -2    8.84    6.17
  -1   6  -1  139.94   25.38
  -1   6  -1  111.74   25.11
  -1   6  -1   95.96   20.61
  -1   6  -1  125.43   27.77
  -1   6  -1   89.26   13.45
  -1   6  -1  121.81   20.55
  -1   6  -1   95.60   14.10
  -1   6   0  372.01   42.94
  -1   6   0  317.02   41.13
  -1   6   0  413.58   43.52
  -1   6   0  362.51   40.89
  -1   6   0  347.34   23.98
  -1   6   0  342.86   41.90
  -1   6   0  348.10   33.75
  -1   6   0  345.99   25.44
  -1   6   1  -15.78   12.65
  -1   6   1   25.74   12.51
  -1   6   1    7.16    9.58
  -1   6   1   -1.65   11.31
  -1   6   1   -2.88   13.75
  -1   6   1    7.02    3.81
  -1   6   1    6.37    7.74
  -1   6   2  690.50   36.44
  -1   6   2  624.51   58.97
  -1   6   2  683.89   58.12
  -1   6   2  695.28   55.21
  -1   6   2  620.72   53.70
  -1   6   2  701.07   49.34
  -1   6   2  744.56   58.86
  -1   6   2  624.34   60.48
  -1   6   3 1148.45   82.13
  -1   6   3 1105.18   31.72
  -1   6   3 1147.41   32.93
  -1   6   3 1087.89   74.23
  -1   6   3 1318.74   76.15
  -1   6   3 1108.30   71.40
  -1   6   3 1183.98   66.08
  -1   6   3 1090.55   72.00
  -1   6   3 1017.62   62.81
  -1   6   3 1156.79   82.70
  -1   6   4  114.43   24.92
  -1   6   4  107.59   22.17
  -1   6   4  122.68   25.33
  -1   6   4  131.38   27.74
  -1   6   4  112.45   22.80
  -1   6   4  103.48   25.99
  -1   6   4   92.77   22.34
  -1   6   5  390.58   42.04
  -1   6   5  425.95   43.16
  -1   6   5  426.01   47.61
  -1   6   5  458.61   46.02
  -1   6   5  403.64   46.02
  -1   6   5  454.63   49.61
  -1   6   5  470.98   56.09
  -1   6   6  203.82   33.81
  -1   6   6  251.43   34.19
  -1   6   6  262.11   35.45
  -1   6   6  246.27   39.40
  -1   6   6  214.72   36.14
  -1   6   6  219.25   40.53
  -1   6   7   -9.85    8.78
  -1   6   7   -9.44    6.53
  -1   6   7   -0.08   10.32
  -1   6   7   -1.73   17.64
  -1   6   7    2.63    6.78
  -1   6   7   -3.21   14.38
  -1   6   8  116.59   22.64
  -1   6   8  131.11   23.21
  -1   6   8   98.76   29.83
  -1   6   8  119.28   32.90
  -1   6   8   85.91   31.45
  -1   6   9   39.84   24.75
  -1   6   9   31.83   24.42
  -1   6   9   11.11   24.34
  -1   6  10  -28.32   17.04
  -1   7  -9  145.57   27.52
  -1   7  -8  230.03   35.04
  -1   7  -8  220.70   36.74
  -1   7  -7    2.94   10.67
  -1   7  -7   69.09   20.44
  -1   7  -6  292.84   39.93
  -1   7  -6  346.84   39.76
  -1   7  -5  285.16   40.67
  -1   7  -5  269.32   47.55
  -1   7  -5  298.38   34.00
  -1   7  -4   49.56   20.91
  -1   7  -4   48.62   24.64
  -1   7  -4   55.62   15.06
  -1   7  -3  778.75   66.13
  -1   7  -3  721.21   70.88
  -1   7  -3  677.47   39.98
  -1   7  -2  709.82   62.76
  -1   7  -2  729.25   61.36
  -1   7  -2  713.30   65.47
  -1   7  -2  765.44   70.36
  -1   7  -2  707.60   37.32
  -1   7  -1   63.41   18.08
  -1   7  -1   54.63   18.49
  -1   7  -1   68.57   22.20
  -1   7  -1   79.30   26.04
  -1   7  -1   61.16   11.83
  -1   7  -1   67.26   12.70
  -1   7  -1   77.44   19.02
  -1   7   0  488.10   53.76
  -1   7   0  389.21   48.43
  -1   7   0  379.06   45.17
  -1   7   0  357.85   44.84
  -1   7   0  384.16   27.80
  -1   7   0  419.34   40.83
  -1   7   0  363.09   47.06
  -1   7   0  446.67   29.44
  -1   7   1  491.15   57.02
  -1   7   1  539.77   58.31
  -1   7   1  456.58   49.97
  -1   7   1  453.53   49.45
  -1   7   1  506.19   32.85
  -1   7   1  469.01   44.01
  -1   7   1  580.22   57.16
  -1   7   2   25.96    8.29
  -1   7   2   29.47   17.23
  -1   7   2   -9.47   16.08
  -1   7   2   21.18   19.24
  -1   7   2   30.27   14.02
  -1   7   2    6.89    7.85
  -1   7   2   16.44    8.34
  -1   7   3  135.66   13.75
  -1   7   3  153.88   15.06
  -1   7   3  154.54   32.10
  -1   7   3  127.24   30.27
  -1   7   3  136.43   26.45
  -1   7   3  158.99   32.68
  -1   7   3   97.77   21.73
  -1   7   4  196.03   35.01
  -1   7   4  200.09   35.75
  -1   7   4  151.80   27.91
  -1   7   4  219.63   32.46
  -1   7   4  206.46   41.32
  -1   7   5   26.51   11.88
  -1   7   5  -12.07   15.72
  -1   7   5   28.62   12.27
  -1   7   5   23.71   17.51
  -1   7   6  360.21   44.45
  -1   7   6  303.51   44.84
  -1   7   6  320.25   45.41
  -1   7   6  252.53   46.26
  -1   7   7  262.99   40.47
  -1   7   7  241.53   43.60
  -1   7   7  241.50   41.96
  -1   7   7  266.25   47.36
  -1   7   8   -9.33   13.39
  -1   7   8   13.17   10.73
  -1   7   8    4.14   11.99
  -1   7   8    6.91   19.35
  -1   7   9   -9.77   20.20
  -1   7   9  -38.03   19.48
  -1   7  10   65.20   29.20
  -1   7  10  -41.46   20.66
  -1   8  -9   -3.95   10.26
  -1   8  -8  150.45   34.22
  -1   8  -7   97.82   29.61
  -1   8  -6   17.78   16.24
  -1   8  -5   90.03   23.63
  -1   8  -5  105.42   32.27
  -1   8  -5  128.64   20.88
  -1   8  -4  123.56   31.86
  -1   8  -4  215.08   44.51
  -1   8  -4  180.28   23.05
  -1   8  -3  103.17   30.24
  -1   8  -3   95.27   28.95
  -1   8  -3  108.88   16.60
  -1   8  -2  256.98   42.07
  -1   8  -2  314.82   51.34
  -1   8  -2  305.22   28.04
  -1   8  -2  260.93   22.09
  -1   8  -1  994.92   79.69
  -1   8  -1 1138.02   50.85
  -1   8  -1 1043.38   83.03
  -1   8  -1 1091.51   43.93
  -1   8   0  174.57   35.95
  -1   8   0  141.26   34.60
  -1   8   0  148.18   18.41
  -1   8   0  164.31   17.70
  -1   8   1   76.06   17.37
  -1   8   1   70.11   13.47
  -1   8   1   56.86   20.44
  -1   8   1   97.00   27.93
  -1   8   1   76.06   14.13
  -1   8   2  168.67   22.94
  -1   8   2  150.21   31.61
  -1   8   2  181.74   36.63
  -1   8   2  151.91   34.41
  -1   8   2  141.78   23.30
  -1   8   3    6.39    3.62
  -1   8   3    4.91    7.05
  -1   8   3   -7.13    7.99
  -1   8   3    5.27   13.23
  -1   8   3    6.34   12.68
  -1   8   3   -6.20   10.34
  -1   8   4  305.27   44.48
  -1   8   4  317.45   45.41
  -1   8   4  331.39   39.49
  -1   8   4  287.63   49.23
  -1   8   5  354.96   49.58
  -1   8   5  397.63   52.30
  -1   8   5  396.21   47.88
  -1   8   5  464.12   63.69
  -1   8   6    2.52   19.26
  -1   8   6   34.27   21.46
  -1   8   6    0.11   14.54
  -1   8   6    5.02   13.25
  -1   8   7    6.91   11.55
  -1   8   7   53.40   24.89
  -1   8   7   12.68   11.66
  -1   8   7   13.31   19.84
  -1   8   8   12.35   19.04
  -1   8   8  -22.17   23.19
  -1   8   8    0.27   10.02
  -1   8   9  -39.18   23.21
  -1   9  -9  307.33   50.68
  -1   9  -8    0.14    9.25
  -1   9  -7  171.39   35.04
  -1   9  -6   48.84   25.19
  -1   9  -5  -12.59   12.59
  -1   9  -5   40.14   31.50
  -1   9  -4   16.19   16.13
  -1   9  -4   29.39   23.93
  -1   9  -3   98.81   26.42
  -1   9  -3  106.88   36.99
  -1   9  -2   49.50   20.91
  -1   9  -2    4.01   22.45
  -1   9  -1  127.29   33.70
  -1   9  -1   92.39   30.29
  -1   9   0  709.93   72.41
  -1   9   0  625.22   68.05
  -1   9   0  691.05   35.86
  -1   9   1  292.68   35.07
  -1   9   1  269.74   44.67
  -1   9   1  324.18   51.23
  -1   9   1  301.37   27.03
  -1   9   1  283.43   52.16
  -1   9   2    2.47    4.01
  -1   9   2   10.07   20.28
  -1   9   2   21.51   19.46
  -1   9   2   12.07   10.37
  -1   9   3  147.60   35.84
  -1   9   3  162.64   34.05
  -1   9   3  156.02   25.85
  -1   9   3  157.64   42.75
  -1   9   4   19.56   15.04
  -1   9   4    8.29   11.66
  -1   9   4   -9.63   13.67
  -1   9   4   -2.14   11.44
  -1   9   5  170.24   35.78
  -1   9   5  133.39   34.30
  -1   9   5  112.01   27.39
  -1   9   5   85.01   31.89
  -1   9   6   96.67   27.96
  -1   9   6   70.74   26.81
  -1   9   7    9.85   12.07
  -1  10  -8   18.03   20.58
  -1  10  -7   -4.75   11.94
  -1  10  -6  172.60   41.57
  -1  10  -5  272.23   51.78
  -1  10  -4   58.31   37.51
  -1  10  -4   81.58   26.75
  -1  10  -3   44.73   28.02
  -1  10  -3   15.89   20.14
  -1  10  -2   98.54   32.02
  -1  10  -2  187.03   42.23
  -1  10  -1   10.56   19.98
  -1  10  -1   34.38   20.25
  -1  10   0    3.18    8.56
  -1  10   0   -2.06   15.75
  -1  10   0   21.18   19.87
  -1  10   1  113.99   33.50
  -1  10   1  131.38   33.81
  -1  10   1   45.91   25.74
  -1  10   2   56.42   21.54
  -1  10   2   77.77   28.59
  -1  10   2   92.56   32.93
  -1  10   3  161.29   40.61
  -1  10   3  167.30   45.06
  -1  10   4  301.21   50.71
  -1  10   5   57.35   26.21
  -1  10   6  -21.81   14.24
   0 -11  -1   14.90   19.62
   0 -11   0   16.74   19.21
   0 -11   1   21.02   17.95
   0 -11   2   84.84   28.54
   0 -11   3  234.69   42.86
   0 -10  -1   65.72   24.70
   0 -10   0  250.97   43.25
   0 -10   1   96.48   26.10
   0 -10   2   38.00   20.28
   0 -10   3   21.05   22.14
   0 -10   4  226.33   44.12
   0 -10   5   -4.50   11.88
   0  -9  -2  531.38   58.17
   0  -9  -1  293.94   42.64
   0  -9   0    8.56   10.10
   0  -9   0   34.33   16.88
   0  -9   1   93.05   23.82
   0  -9   1   94.81   29.25
   0  -9   2  257.80   42.59
   0  -9   2  287.96   42.94
   0  -9   3   14.98   14.82
   0  -9   3    0.11   15.04
   0  -9   4  144.42   31.58
   0  -9   5   83.03   24.01
   0  -9   6   38.06   25.93
   0  -9   7   41.68   26.53
   0  -8  -9   57.27   31.34
   0  -8  -8   -7.35   24.20
   0  -8  -7  124.91   29.72
   0  -8  -6  458.41   51.45
   0  -8  -2   61.58   23.02
   0  -8  -2   36.99   16.03
   0  -8  -1  326.02   46.51
   0  -8  -1  336.72   44.40
   0  -8   0  935.21   77.96
   0  -8   0  918.75   69.48
   0  -8   1  416.68   53.40
   0  -8   1  488.10   49.83
   0  -8   1  452.71   47.61
   0  -8   2   82.10   25.82
   0  -8   2  161.79   32.85
   0  -8   2  146.97   30.51
   0  -8   3  552.45   58.15
   0  -8   3  519.14   53.48
   0  -8   3  528.66   56.58
   0  -8   4    2.17   19.67
   0  -8   4   36.25   15.94
   0  -8   5  183.52   34.35
   0  -8   6  218.15   40.17
   0  -8   7   29.64   17.62
   0  -8   7    6.86    8.84
   0  -8   8   22.39   16.71
   0  -8   8   41.85   17.04
   0  -7 -11   21.62   30.84
   0  -7 -10   21.35   18.52
   0  -7  -9  106.66   30.73
   0  -7  -9  -14.46   25.82
   0  -7  -8   46.90   22.80
   0  -7  -8   75.41   33.31
   0  -7  -7  -16.46   21.29
   0  -7  -7   45.69   22.06
   0  -7  -6  285.82   40.64
   0  -7  -5  570.86   51.70
   0  -7  -3  353.24   45.41
   0  -7  -2  209.15   35.89
   0  -7  -2  205.75   33.07
   0  -7  -1  310.02   42.94
   0  -7  -1  333.40   38.20
   0  -7  -1  262.71   30.27
   0  -7   0   11.77   14.41
   0  -7   0   25.85   15.34
   0  -7   0   33.89   15.59
   0  -7   1  620.28   58.39
   0  -7   1  512.58   47.47
   0  -7   2  230.88   36.63
   0  -7   2  207.01   33.04
   0  -7   3  281.54   40.09
   0  -7   3  256.29   39.35
   0  -7   3  362.90   41.87
   0  -7   4 1396.95   86.19
   0  -7   4 1417.83   83.50
   0  -7   4 1334.08   91.81
   0  -7   5  392.39   54.28
   0  -7   5  383.17   46.51
   0  -7   5  418.93   34.03
   0  -7   6  178.85   33.72
   0  -7   7  755.51   69.23
   0  -7   7  576.43   47.83
   0  -7   8   -6.39   10.98
   0  -7   8   20.55   11.69
   0  -7   9   -0.47    2.47
   0  -7   9   12.05   10.07
   0  -7  10   19.24   17.56
   0  -7  11   15.89   18.85
   0  -6 -11  -22.20   34.46
   0  -6 -10   70.74   33.34
   0  -6 -10   -5.93   27.60
   0  -6  -9   27.25   19.76
   0  -6  -9   34.14   17.86
   0  -6  -8   13.77   20.36
   0  -6  -8   32.54   21.98
   0  -6  -7  842.08   81.58
   0  -6  -7  670.91   64.43
   0  -6  -6  123.45   31.91
   0  -6  -6   64.37   21.84
   0  -6  -5  295.42   44.62
   0  -6  -5  260.32   34.55
   0  -6  -4  172.49   30.07
   0  -6  -3   -2.74   12.13
   0  -6  -2  364.05   41.13
   0  -6  -2  352.41   39.05
   0  -6  -1 1789.92   87.81
   0  -6  -1 1774.47   80.78
   0  -6   0  330.30   38.33
   0  -6   0  322.72   35.10
   0  -6   0  303.93   31.20
   0  -6   1    0.44   10.87
   0  -6   1   -5.73   11.77
   0  -6   1   27.49   13.45
   0  -6   2  422.80   42.81
   0  -6   2  440.99   41.52
   0  -6   3  855.47   61.41
   0  -6   3  795.05   56.55
   0  -6   4   38.36   17.62
   0  -6   4   38.94   20.25
   0  -6   4   30.71   14.82
   0  -6   4   37.89   11.44
   0  -6   5 1201.22   75.24
   0  -6   5 1231.43   91.35
   0  -6   5  991.96   52.71
   0  -6   6  422.96   58.83
   0  -6   6  431.58   48.57
   0  -6   7  405.54   49.06
   0  -6   7  309.28   36.85
   0  -6   8  699.53   66.79
   0  -6   8  548.03   51.75
   0  -6   9  197.46   38.09
   0  -6   9  141.40   30.54
   0  -6  10   22.91   13.47
   0  -6  10   -3.27    6.78
   0  -6  11   27.19   24.12
   0  -6  12   49.17   29.47
   0  -5 -12   34.57   25.33
   0  -5 -11   22.80   17.18
   0  -5 -11  -23.93   27.39
   0  -5 -10  -20.03   15.64
   0  -5 -10   11.00   24.92
   0  -5  -9  276.18   49.72
   0  -5  -9  250.03   48.93
   0  -5  -8  140.41   33.15
   0  -5  -8  121.18   31.94
   0  -5  -7  126.50   31.25
   0  -5  -7   84.95   25.49
   0  -5  -6  277.09   43.74
   0  -5  -6  318.80   43.33
   0  -5  -6  305.02   45.99
   0  -5  -5    5.41   12.79
   0  -5  -4  264.96   37.02
   0  -5  -4  239.61   31.09
   0  -5  -3 1614.71   76.04
   0  -5  -3 1491.09   65.61
   0  -5  -2 1428.86   72.00
   0  -5  -2 1430.26   67.97
   0  -5  -1    4.45   10.43
   0  -5  -1   10.73    9.49
   0  -5  -1   15.75   12.62
   0  -5   0 1273.14   67.48
   0  -5   0 1166.34   58.39
   0  -5   0 1120.84   54.52
   0  -5   1  210.49   29.61
   0  -5   1  287.35   30.60
   0  -5   1  225.75   28.26
   0  -5   2  634.17   48.10
   0  -5   2  638.06   44.67
   0  -5   2  527.07   45.63
   0  -5   3 1072.14   61.71
   0  -5   3 1092.28   59.87
   0  -5   3 1046.37   41.02
   0  -5   4 1491.53   72.85
   0  -5   4 1476.52   72.83
   0  -5   4 1406.03   85.50
   0  -5   4 1446.42   56.47
   0  -5   5   -8.01   10.81
   0  -5   5   19.73   22.14
   0  -5   5    5.52   13.75
   0  -5   5    0.55    8.67
   0  -5   6  597.37   66.24
   0  -5   6  581.62   52.63
   0  -5   7  331.17   41.46
   0  -5   7  282.30   36.41
   0  -5   8   -7.19   13.53
   0  -5   9  154.43   32.90
   0  -5  10  264.14   43.71
   0  -5  11   -4.39   11.55
   0  -5  12   31.75   16.55
   0  -4 -12  107.81   37.92
   0  -4 -11   22.14   19.32
   0  -4 -11   91.98   41.30
   0  -4 -10  112.01   30.90
   0  -4 -10  100.32   38.44
   0  -4  -9  169.58   19.92
   0  -4  -9  149.22   36.50
   0  -4  -9  103.64   33.26
   0  -4  -8  932.36   39.05
   0  -4  -8  982.88   82.48
   0  -4  -8  950.14   81.39
   0  -4  -7  188.02   34.63
   0  -4  -7  169.14   14.82
   0  -4  -7  171.28   34.52
   0  -4  -7  182.20   36.14
   0  -4  -6   84.08   23.32
   0  -4  -6   72.14    7.44
   0  -4  -6   83.03   22.01
   0  -4  -6   93.82   25.27
   0  -4  -5   27.22   16.57
   0  -4  -5   53.86   16.41
   0  -4  -4  179.60   30.07
   0  -4  -4  190.96   24.56
   0  -4  -4  129.33   21.87
   0  -4  -4  145.79   25.88
   0  -4  -3   14.90   13.91
   0  -4  -3   -0.19    7.63
   0  -4  -3   -2.06    6.75
   0  -4  -2 1679.09   68.55
   0  -4  -2 1751.86   59.49
   0  -4  -1 1999.67   74.88
   0  -4  -1 2082.18   70.11
   0  -4  -1 1966.58   60.67
   0  -4   0  157.29   22.58
   0  -4   0  180.45   21.18
   0  -4   0  176.38   20.94
   0  -4   1 1645.69   67.26
   0  -4   1 1495.43   62.76
   0  -4   1 1661.99   61.60
   0  -4   2 6160.35  129.49
   0  -4   2 6129.35  122.05
   0  -4   2 5927.52  137.42
   0  -4   2 6449.79   82.76
   0  -4   3   95.35   18.82
   0  -4   3   65.12   20.44
   0  -4   3   78.56   12.98
   0  -4   3   88.00   16.19
   0  -4   4 1985.02   74.01
   0  -4   4 1911.06   77.22
   0  -4   4 1997.91   67.04
   0  -4   5   13.56    8.73
   0  -4   5   -1.07   14.21
   0  -4   5    2.06   10.67
   0  -4   6  471.42   57.76
   0  -4   7  293.86   49.47
   0  -4   7  248.99   35.15
   0  -4   8  470.43   50.49
   0  -4   9  274.76   41.76
   0  -4  10   80.48   27.58
   0  -4  11  186.43   37.54
   0  -4  12   34.30   21.46
   0  -3 -12   37.84   20.83
   0  -3 -12   85.53   33.70
   0  -3 -11  -28.84   16.08
   0  -3 -11   45.33   26.10
   0  -3 -10  165.22   37.40
   0  -3 -10  244.68   47.53
   0  -3  -9  348.54   36.19
   0  -3  -9  334.41   51.09
   0  -3  -9  317.62   51.29
   0  -3  -8   90.85   25.96
   0  -3  -8   57.27   16.55
   0  -3  -8   31.83   19.95
   0  -3  -7  695.55   41.08
   0  -3  -7  728.15   63.39
   0  -3  -7  647.01   61.00
   0  -3  -7  718.19   63.96
   0  -3  -6   39.02   17.92
   0  -3  -6   45.17   10.43
   0  -3  -6   48.43   19.65
   0  -3  -6   26.40   12.57
   0  -3  -5  265.84   18.69
   0  -3  -5  263.59   33.81
   0  -3  -5  310.35   36.44
   0  -3  -4 1176.27   30.10
   0  -3  -4 1235.93   67.78
   0  -3  -4 1197.32   49.47
   0  -3  -4 1167.52   60.56
   0  -3  -4 1187.66   66.87
   0  -3  -3 1842.88   76.04
   0  -3  -3 1774.60   60.78
   0  -3  -3 1803.64   66.13
   0  -3  -3 1709.32   73.43
   0  -3  -2  137.67   21.05
   0  -3  -2  105.37   17.10
   0  -3  -2  120.85   15.39
   0  -3  -1   40.89   11.88
   0  -3  -1   42.72    9.66
   0  -3  -1   35.48    9.80
   0  -3   0 1557.75   56.99
   0  -3   0 1590.89   51.81
   0  -3   0 1505.12   49.67
   0  -3   1  581.51   35.29
   0  -3   1  602.72   32.65
   0  -3   1  536.78   34.19
   0  -3   2 6847.15  118.49
   0  -3   2 6712.89  134.87
   0  -3   2 7007.15  115.14
   0  -3   2 6975.41   87.51
   0  -3   3 6279.25  112.59
   0  -3   3 6191.14  145.73
   0  -3   3 6285.75  118.16
   0  -3   3 6267.12  102.79
   0  -3   4  102.98   16.13
   0  -3   4  115.19   25.96
   0  -3   4   87.64   17.73
   0  -3   5 1514.17   67.61
   0  -3   6  172.19   34.74
   0  -3   7    6.83   20.94
   0  -3   7   -4.47   17.10
   0  -3   8   65.83   24.20
   0  -3   9  220.12   39.43
   0  -3  10   84.79   26.18
   0  -3  11  121.97   35.59
   0  -3  12  167.58   41.41
   0  -2 -12   33.61   19.04
   0  -2 -12  -54.69   30.38
   0  -2 -11  120.60   38.53
   0  -2 -11  135.66   38.96
   0  -2 -10   63.80   17.56
   0  -2 -10   83.25   27.55
   0  -2 -10   78.67   32.13
   0  -2  -9  815.74   71.37
   0  -2  -9  758.31   75.02
   0  -2  -8  145.32   23.08
   0  -2  -8  102.52   29.72
   0  -2  -8  138.19   35.53
   0  -2  -8  190.10   34.71
   0  -2  -7   47.20   13.06
   0  -2  -7   50.05   20.88
   0  -2  -7   52.36   20.80
   0  -2  -7   76.15   20.58
   0  -2  -6  390.25   40.39
   0  -2  -6  337.10   28.92
   0  -2  -6  304.58   39.05
   0  -2  -6  405.62   43.47
   0  -2  -6  384.00   43.30
   0  -2  -5 3329.25  109.02
   0  -2  -5 3078.01   75.08
   0  -2  -5 2980.73  108.69
   0  -2  -5 3286.72  109.54
   0  -2  -4   84.49   11.61
   0  -2  -4   90.14   17.70
   0  -2  -4   78.59   11.03
   0  -2  -4   71.40   18.19
   0  -2  -4   96.73   17.86
   0  -2  -4   80.43   17.67
   0  -2  -3 1510.36   34.88
   0  -2  -3 1517.11   61.80
   0  -2  -3 1495.07   45.11
   0  -2  -3 1499.41   58.72
   0  -2  -3 1490.96   61.77
   0  -2  -2  180.88   20.36
   0  -2  -2  181.46   16.93
   0  -2  -2  191.64   18.36
   0  -2  -2  170.21   19.87
   0  -2  -1  434.57   27.96
   0  -2  -1  466.32   27.00
   0  -2  -1  421.42   24.86
   0  -2  -1  436.65   21.79
   0  -2  -1  424.42   23.71
   0  -2   0 3337.21   67.58
   0  -2   0 3335.86   60.48
   0  -2   0 3276.24   60.07
   0  -2   1 7102.75  102.98
   0  -2   1 6650.68   94.78
   0  -2   1 6801.49   89.45
   0  -2   1 6823.50  103.70
   0  -2   1 7081.87   63.14
   0  -2   2 3212.96   65.53
   0  -2   2 3182.42   84.98
   0  -2   2 3336.33   61.77
   0  -2   3 2147.35   53.34
   0  -2   3 2124.93   80.04
   0  -2   3 2050.16   60.86
   0  -2   4 1279.83   41.08
   0  -2   4 1255.74   56.58
   0  -2   5   42.15   15.59
   0  -2   7 1247.65   91.81
   0  -2   7 1208.13   76.17
   0  -2   8  235.19   47.53
   0  -2   8  266.53   42.26
   0  -2   9  236.62   40.86
   0  -2  10  197.35   42.01
   0  -2  11   56.17   28.32
   0  -2  12   -3.84   13.75
   0  -1 -13   45.08   21.49
   0  -1 -12   -0.91   19.65
   0  -1 -12    6.59   14.79
   0  -1 -11  329.28   45.22
   0  -1 -11  338.50   50.96
   0  -1 -11  265.84   50.33
   0  -1 -10  147.05   29.22
   0  -1 -10  172.60   39.60
   0  -1  -9   -7.52   14.74
   0  -1  -9   -2.85   14.10
   0  -1  -8  132.18   29.88
   0  -1  -8  135.31   28.78
   0  -1  -8  157.86   31.94
   0  -1  -7  335.51   38.17
   0  -1  -7  307.41   39.32
   0  -1  -7  364.93   45.22
   0  -1  -6   32.27   17.04
   0  -1  -6   69.23   21.21
   0  -1  -6   44.70   14.87
   0  -1  -5  645.17   45.77
   0  -1  -5  642.32   50.35
   0  -1  -5  653.54   47.14
   0  -1  -4 1913.40   69.45
   0  -1  -4 1863.35   75.27
   0  -1  -4 1866.72   70.69
   0  -1  -3 3303.87   46.07
   0  -1  -3 3358.99   80.87
   0  -1  -3 3435.17   87.86
   0  -1  -3 3267.04   81.91
   0  -1  -2 5807.39   61.63
   0  -1  -2 5668.90   91.05
   0  -1  -2 5565.37   59.46
   0  -1  -2 5563.67   92.67
   0  -1  -2 5588.31   91.21
   0  -1   2 5693.84   61.03
   0  -1   2 5485.02   83.61
   0  -1   3 1108.03   26.95
   0  -1   3 1016.52   45.33
   0  -1   4  600.99   41.13
   0  -1   7   20.39   20.36
   0  -1   8  710.09   64.32
   0  -1   9   84.71   29.80
   0  -1  10   37.15   27.44
   0  -1  11  266.53   50.24
   0  -1  12  205.69   43.47
   0   0 -13   62.54   28.26
   0   0 -12   87.78   26.42
   0   0 -11   35.43   20.96
   0   0 -11    1.21   23.98
   0   0 -10  376.59   50.33
   0   0  -9  422.63   50.30
   0   0  -8   20.83   15.81
   0   0  -8   31.06   13.75
   0   0  -8   13.14   11.14
   0   0  -7  325.25   38.09
   0   0  -7  348.82   43.41
   0   0  -7  316.63   38.88
   0   0  -6 1295.34   67.17
   0   0  -6 1381.80   73.02
   0   0  -6 1316.99   77.13
   0   0  -5  335.13   32.13
   0   0  -5  389.57   37.92
   0   0  -5  377.27   34.57
   0   0  -4   21.62   10.07
   0   0  -4   27.11   11.72
   0   0  -3  966.74   40.23
   0   0  -3  954.67   45.25
   0   0  -2  420.52   21.84
   0   0  -2  422.60   24.81
   0   0   8   34.00   18.71
   0   0   9  468.46   59.02
   0   0  10  363.94   54.50
   0   0  11   30.90   24.53
   0   0  12  171.01   41.46
   0   1 -13   33.04   19.59
   0   1 -12  124.06   31.34
   0   1 -11  246.52   44.32
   0   1 -10   31.39   17.29
   0   1  -9  103.86   26.70
   0   1  -8  741.84   59.93
   0   1  -8  757.48   69.45
   0   1  -7   11.09   15.64
   0   1  -7    9.52    9.11
   0   1  -6 1261.31   65.99
   0   1  -6 1227.34   74.01
   0   1  -5  999.34   21.24
   0   1  -5  951.51   20.39
   0   1  -5  981.97   52.93
   0   1  -5  956.86   58.47
   0   1  -4  649.01   21.21
   0   1  -4  647.04   19.67
   0   1  -4  620.06   18.99
   0   1  -4  559.53   40.04
   0   1  -3 1104.87   28.46
   0   1  -3 1164.39   27.69
   0   1  -3 1058.56   25.99
   0   1  -3 1091.04   47.00
   0   1  -2 5272.64   62.87
   0   1  -2 5491.36   60.40
   0   1  -2 5356.69   59.02
   0   1  -2 5283.59   82.92
   0   1   2 5754.21   61.52
   0   1   2 5654.77   65.23
   0   1   2 5549.92   61.41
   0   1   2 5723.56   94.31
   0   1   3 3385.67   49.64
   0   1   3 3385.04   46.65
   0   1   3 3463.24   46.26
   0   1   4 1948.16   33.34
   0   1   4 2036.36   33.53
   0   1   4 1903.44   36.17
   0   1   7  313.59   42.97
   0   1   8  107.26   28.13
   0   1   9  -20.09   15.09
   0   1  10  250.45   47.11
   0   1  11  313.23   51.97
   0   1  12   -4.94   10.95
   0   2 -13   12.27   22.42
   0   2 -12    2.09   15.42
   0   2 -11   49.01   22.36
   0   2 -10  261.64   41.19
   0   2  -9  262.35   39.27
   0   2  -8  263.78   36.52
   0   2  -8  247.45   39.68
   0   2  -7 1251.62   34.22
   0   2  -7 1208.63   32.68
   0   2  -7 1235.38   79.80
   0   2  -6  317.59   19.54
   0   2  -6  311.23   19.56
   0   2  -6  283.57   20.47
   0   2  -6  270.42   34.77
   0   2  -5   28.70    7.30
   0   2  -5   20.74    5.43
   0   2  -5   10.02    4.56
   0   2  -5   30.60   10.37
   0   2  -4 1286.01   43.77
   0   2  -4 1352.22   42.34
   0   2  -4 1208.38   39.38
   0   2  -4 1254.04   58.58
   0   2  -3 2076.06   55.57
   0   2  -3 2191.86   54.66
   0   2  -3 2103.09   52.60
   0   2  -3 2049.03   63.50
   0   2  -2 3273.96   69.62
   0   2  -2 3133.47   64.29
   0   2  -2 3272.64   67.04
   0   2  -2 3220.56   85.70
   0   2  -2 3093.46   62.43
   0   2  -1 6758.49   99.72
   0   2  -1 6889.30   97.14
   0   2  -1 7159.45  107.73
   0   2  -1 7131.16   65.09
   0   2   0 3363.03   60.15
   0   2   0 3274.86   70.19
   0   2   1  473.81   18.30
   0   2   1  464.34   26.78
   0   2   1  469.06   25.66
   0   2   1  426.86   25.46
   0   2   1  436.35   21.79
   0   2   1  454.38   22.56
   0   2   1  437.61   23.90
   0   2   2  195.98   17.97
   0   2   2  212.77   17.78
   0   2   2  191.78   16.57
   0   2   2  201.05   19.21
   0   2   3 1563.65   46.32
   0   2   3 1479.24   47.14
   0   2   3 1563.86   45.28
   0   2   3 1635.15   62.51
   0   2   4   83.50   11.72
   0   2   4   81.41   11.58
   0   2   4   81.85   10.62
   0   2   4   94.94   19.65
   0   2   5 3231.92   62.48
   0   2   5 3159.37   69.04
   0   2   6  364.35   20.66
   0   2   6  368.16   20.20
   0   2   6  377.52   23.21
   0   2   6  397.55   43.49
   0   2   7   33.28   16.46
   0   2   7   45.63   20.42
   0   2   8  132.43   26.42
   0   2   8  125.02   31.64
   0   2   9  799.08   76.45
   0   2  10  124.52   34.41
   0   2  11   88.74   30.54
   0   2  12   34.38   23.21
   0   3 -13   47.69   21.54
   0   3 -12  164.06   38.22
   0   3 -11  100.24   35.81
   0   3 -10   54.11   19.95
   0   3  -9  228.25   36.03
   0   3  -8   85.12   13.56
   0   3  -8   61.96   11.20
   0   3  -8   88.77   12.46
   0   3  -8   70.85   25.68
   0   3  -7    6.12    5.95
   0   3  -7   14.93    7.38
   0   3  -7   -1.13    5.63
   0   3  -7    5.35   11.03
   0   3  -6  169.85   19.62
   0   3  -6  188.32   20.00
   0   3  -6  167.93   18.33
   0   3  -6  153.44   26.78
   0   3  -5 1418.51   56.72
   0   3  -5 1581.04   56.66
   0   3  -5 1443.79   53.10
   0   3  -5 1476.72   71.34
   0   3  -4   84.13   14.63
   0   3  -4   85.78   13.67
   0   3  -4   97.08   14.95
   0   3  -4  110.50   17.86
   0   3  -3 6128.41  110.45
   0   3  -3 6063.63  116.84
   0   3  -3 6218.39  109.62
   0   3  -2 6637.70  122.66
   0   3  -2 6983.80  120.63
   0   3  -2 6695.43  115.63
   0   3  -2 6951.78   92.17
   0   3  -1  548.58   35.59
   0   3  -1  587.85   35.67
   0   3  -1  576.43   34.35
   0   3  -1  539.75   30.05
   0   3  -1  560.24   36.22
   0   3  -1  554.54   19.59
   0   3   0 1576.84   59.93
   0   3   0 1564.14   50.00
   0   3   0 1595.09   53.40
   0   3   1   38.28   10.98
   0   3   1   39.82   11.03
   0   3   1   38.33   11.42
   0   3   1   42.01   11.52
   0   3   1   37.18    8.56
   0   3   1   45.55   11.06
   0   3   1   42.20    9.66
   0   3   2  123.54   10.73
   0   3   2  114.45   17.73
   0   3   2  118.43   16.90
   0   3   2  130.12   16.93
   0   3   2  110.36   15.17
   0   3   2  116.51   16.63
   0   3   2  114.75   14.98
   0   3   2  118.02   15.53
   0   3   3 1889.03   36.11
   0   3   3 1815.87   64.48
   0   3   3 1985.76   63.74
   0   3   3 1861.29   60.86
   0   3   3 1847.24   66.71
   0   3   3 1966.80   70.74
   0   3   4 1259.09   50.49
   0   3   4 1132.48   51.72
   0   3   4 1221.22   48.95
   0   3   4 1230.30   63.36
   0   3   5  265.81   25.33
   0   3   5  270.15   23.05
   0   3   5  262.96   23.74
   0   3   5  280.79   34.99
   0   3   6   54.99   14.71
   0   3   6   48.82   11.33
   0   3   6   46.10   10.32
   0   3   6   50.08   16.11
   0   3   6   50.57   19.92
   0   3   6   48.05   17.67
   0   3   7  780.59   37.62
   0   3   7  734.30   35.78
   0   3   7  678.70   59.54
   0   3   7  658.67   38.42
   0   3   7  666.30   61.19
   0   3   7  672.17   59.90
   0   3   8   48.43   10.32
   0   3   8   53.23    9.88
   0   3   8   19.26   20.50
   0   3   9  328.43   53.65
   0   3  10  259.28   48.54
   0   3  11  -20.53   15.37
   0   3  12   39.73   27.30
   0   4 -13   14.13   19.65
   0   4 -12    6.23   20.55
   0   4 -11  258.02   43.93
   0   4 -10  120.82   31.97
   0   4  -9  254.10   23.35
   0   4  -9  251.05   24.26
   0   4  -9  275.69   27.52
   0   4  -8  488.19   35.62
   0   4  -8  464.97   34.00
   0   4  -8  439.56   36.74
   0   4  -8  413.55   50.85
   0   4  -7  219.88   26.73
   0   4  -7  204.62   24.09
   0   4  -7  223.91   24.48
   0   4  -7  230.03   34.90
   0   4  -6  456.38   38.66
   0   4  -6  445.41   34.57
   0   4  -6  481.00   36.91
   0   4  -6  398.57   41.52
   0   4  -5    4.39    5.60
   0   4  -5   15.92   10.65
   0   4  -5   15.56    8.89
   0   4  -5    7.13    6.37
   0   4  -4 1921.71   77.13
   0   4  -4 1783.17   69.42
   0   4  -4 1960.92   73.90
   0   4  -4 1914.36   71.15
   0   4  -3   95.38   19.21
   0   4  -3   95.05   17.89
   0   4  -3   67.23   13.58
   0   4  -3   79.11   22.83
   0   4  -3   91.68   14.41
   0   4  -2 6008.28  135.25
   0   4  -2 5637.89  123.56
   0   4  -2 5929.47  128.83
   0   4  -2 5956.14  140.63
   0   4  -2 6091.40   86.71
   0   4  -1 1538.10   68.74
   0   4  -1 1741.62   69.75
   0   4  -1 1586.31   58.97
   0   4  -1 1599.78   34.90
   0   4   0  180.31   25.19
   0   4   0  203.58   18.60
   0   4   0  184.51   20.28
   0   4   0  179.07   22.42
   0   4   1 1969.73   77.79
   0   4   1 2011.63   59.82
   0   4   1 2046.62   67.75
   0   4   1 2095.71   68.66
   0   4   2 1837.03   50.08
   0   4   2 1753.37   73.81
   0   4   2 1801.85   71.12
   0   4   2 1731.00   68.85
   0   4   2 1691.27   60.86
   0   4   2 1710.89   64.87
   0   4   2 1698.90   62.51
   0   4   2 1807.45   60.34
   0   4   3    4.50    3.38
   0   4   3    6.97   10.21
   0   4   3   -1.78    5.93
   0   4   3    0.08    5.71
   0   4   3    4.56    8.78
   0   4   3   14.41    9.36
   0   4   3   -1.29    2.58
   0   4   4  165.16   23.98
   0   4   4  207.12   24.83
   0   4   4  151.55   21.05
   0   4   4  173.61   25.35
   0   4   4  180.67   25.74
   0   4   5   65.39   14.19
   0   4   5   35.78   12.73
   0   4   5   57.82   14.08
   0   4   5   75.62   16.88
   0   4   5   27.80   12.73
   0   4   5   65.17   19.87
   0   4   6   96.97   17.34
   0   4   6   95.27   16.16
   0   4   6  102.32   19.67
   0   4   6   52.22   19.40
   0   4   6   75.38   22.78
   0   4   6   78.59   21.38
   0   4   7  164.81   24.61
   0   4   7  186.57   23.71
   0   4   7  194.82   22.67
   0   4   7  239.28   40.72
   0   4   7  167.44   31.58
   0   4   8 1059.10   51.26
   0   4   8  970.14   48.76
   0   4   8  949.43   53.73
   0   4   8  908.90   78.56
   0   4   8 1041.41   82.29
   0   4   9  156.52   20.33
   0   4   9  208.74   20.14
   0   4   9  151.06   34.90
   0   4  10  161.13   38.94
   0   4  11   35.89   20.28
   0   5 -12  121.70   36.08
   0   5 -11  -21.65   24.15
   0   5  -9  133.55   24.37
   0   5  -8   15.37   12.35
   0   5  -8   -6.53   14.74
   0   5  -7  271.14   33.97
   0   5  -7  272.62   38.55
   0   5  -6  505.50   45.80
   0   5  -6  488.35   40.61
   0   5  -6  541.06   47.86
   0   5  -5    7.05    8.89
   0   5  -5   14.08   10.78
   0   5  -5   16.46   10.48
   0   5  -4 1388.77   69.29
   0   5  -4 1442.22   75.90
   0   5  -4 1455.70   61.88
   0   5  -3 1129.57   66.76
   0   5  -3 1097.03   71.01
   0   5  -3 1061.82   45.55
   0   5  -2  583.46   48.60
   0   5  -2  532.94   46.65
   0   5  -2  591.58   41.65
   0   5  -2  558.27   26.95
   0   5  -1  258.76   32.21
   0   5  -1  249.35   31.75
   0   5  -1  244.44   26.15
   0   5  -1  248.63   14.71
   0   5   0 1129.68   64.76
   0   5   0 1178.22   68.46
   0   5   0 1216.61   49.67
   0   5   0 1203.38   57.68
   0   5   0 1092.50   58.64
   0   5   0 1204.32   31.67
   0   5   1   -9.88   10.59
   0   5   1   33.20   14.27
   0   5   1   15.92    8.09
   0   5   1   12.98   11.99
   0   5   1    2.55    6.81
   0   5   1    8.45    5.79
   0   5   2 1376.20   52.30
   0   5   2 1469.20   78.48
   0   5   2 1352.49   73.43
   0   5   2 1442.91   72.00
   0   5   2 1466.81   71.70
   0   5   2 1365.86   58.56
   0   5   2 1404.77   65.09
   0   5   2 1401.61   64.62
   0   5   2 1500.04   57.49
   0   5   3 1564.30   47.75
   0   5   3 1696.73   76.83
   0   5   3 1605.38   75.24
   0   5   3 1531.07   78.48
   0   5   3 1661.94   74.42
   0   5   3 1594.05   68.76
   0   5   3 1573.44   69.64
   0   5   3 1694.29   69.81
   0   5   4  327.85   40.50
   0   5   4  287.24   15.39
   0   5   4  263.04   30.46
   0   5   4  300.58   35.89
   0   5   4  276.65   31.58
   0   5   4  288.18   32.43
   0   5   4  312.10   35.26
   0   5   4  270.97   31.78
   0   5   4  237.16   36.17
   0   5   5   11.33    9.96
   0   5   5    5.82    5.57
   0   5   5   -1.34    8.45
   0   5   5    1.45    3.54
   0   5   5    2.36   10.10
   0   5   5    9.08    9.88
   0   5   5   -4.50   12.13
   0   5   5    1.92    3.24
   0   5   6  307.77   33.50
   0   5   6  287.93   31.72
   0   5   6  246.71   33.20
   0   5   6  318.06   39.16
   0   5   6  291.06   40.36
   0   5   6  250.01   40.72
   0   5   7  145.19   23.65
   0   5   7  147.52   23.60
   0   5   7  135.55   24.72
   0   5   7  143.32   29.03
   0   5   7  132.97   30.27
   0   5   8  167.03   25.38
   0   5   8  144.42   24.17
   0   5   8  149.19   22.03
   0   5   8  147.79   35.59
   0   5   8  186.37   40.94
   0   5   9  260.02   28.43
   0   5   9  263.59   46.26
   0   5   9  318.94   50.71
   0   5  10   18.11   15.78
   0   5  11   61.05   25.90
   0   6 -12   22.75   18.80
   0   6  -9  153.47   26.18
   0   6  -8  605.71   55.18
   0   6  -8  657.00   52.90
   0   6  -8  640.12   51.75
   0   6  -8  545.67   56.77
   0   6  -7  376.92   40.20
   0   6  -7  360.92   41.02
   0   6  -7  424.17   48.24
   0   6  -7  345.74   42.23
   0   6  -6  414.02   46.32
   0   6  -6  433.96   44.23
   0   6  -6  384.65   41.43
   0   6  -6  415.53   42.81
   0   6  -5 1150.43   75.54
   0   6  -5 1113.49   69.64
   0   6  -5 1158.96   69.73
   0   6  -5 1054.30   59.19
   0   6  -4   31.06   12.07
   0   6  -4   37.78   14.95
   0   6  -4   43.16   13.88
   0   6  -4   35.67   11.11
   0   6  -3  983.21   69.97
   0   6  -3  862.69   61.63
   0   6  -3  901.38   62.29
   0   6  -3  752.79   64.07
   0   6  -3  841.23   39.29
   0   6  -2  397.50   44.84
   0   6  -2  438.25   44.15
   0   6  -2  418.57   43.47
   0   6  -2  389.79   45.88
   0   6  -2  481.38   41.08
   0   6  -2  436.08   23.27
   0   6  -1   25.74   12.76
   0   6  -1    7.13    6.94
   0   6  -1   12.18   11.72
   0   6  -1    7.13    6.59
   0   6  -1    5.41    3.76
   0   6   0  328.10   39.60
   0   6   0  314.44   39.51
   0   6   0  329.34   28.70
   0   6   0  294.35   34.79
   0   6   0  318.44   33.86
   0   6   0  314.35   16.60
   0   6   1 1744.17   90.83
   0   6   1 1595.04   68.68
   0   6   1 1804.98   93.08
   0   6   1 1766.54   88.33
   0   6   1 1781.90   86.85
   0   6   1 1736.24   77.22
   0   6   1 1697.17   65.50
   0   6   1 1709.02   78.95
   0   6   1 1716.35   53.10
   0   6   2  316.96   39.98
   0   6   2  328.54   28.78
   0   6   2  323.05   41.35
   0   6   2  358.67   39.62
   0   6   2  343.25   38.58
   0   6   2  312.38   30.62
   0   6   2  321.32   34.60
   0   6   2  332.60   35.37
   0   6   2  365.15   28.73
   0   6   2  280.47   38.83
   0   6   3   -0.08   11.66
   0   6   3    0.03    4.94
   0   6   3    7.22    9.44
   0   6   3  -12.87   16.74
   0   6   3  -13.75   14.35
   0   6   3   11.20    8.01
   0   6   3    5.24    7.82
   0   6   3    5.24    4.88
   0   6   3    6.04    9.71
   0   6   3    6.61    6.42
   0   6   4  167.82   14.13
   0   6   4  151.00   31.28
   0   6   4  149.69   25.00
   0   6   4  196.99   30.65
   0   6   4  170.59   30.29
   0   6   4  191.59   29.11
   0   6   4  154.38   27.08
   0   6   4  100.92   21.73
   0   6   4  188.21   36.14
   0   6   5  279.34   38.80
   0   6   5  273.63   34.57
   0   6   5  283.59   34.85
   0   6   5  272.62   35.34
   0   6   5  298.82   37.13
   0   6   5  301.26   38.14
   0   6   5  303.82   43.05
   0   6   6  126.69   23.98
   0   6   6   78.51   24.48
   0   6   6  102.27   23.46
   0   6   6   93.19   26.18
   0   6   6   92.97   22.83
   0   6   6   94.56   28.21
   0   6   7  759.62   63.03
   0   6   7  738.39   56.66
   0   6   7  741.10   56.36
   0   6   7  796.61   65.23
   0   6   7  622.07   61.96
   0   6   7  817.14   78.15
   0   6   8   50.05   16.55
   0   6   8   62.81   18.77
   0   6   8   34.00   12.65
   0   6   8   18.85   18.93
   0   6   8   22.47   20.69
   0   6   9   13.83    9.25
   0   6   9   36.17   21.90
   0   6   9   43.66   18.85
   0   6  10   54.58   28.76
   0   6  11   34.90   20.20
   0   7  -9    5.82    9.77
   0   7  -8   -6.37   14.16
   0   7  -8   36.85   14.46
   0   7  -8   17.31   11.83
   0   7  -7  537.08   57.43
   0   7  -7  528.06   52.63
   0   7  -7  611.31   55.32
   0   7  -7  478.45   48.05
   0   7  -6  108.94   28.18
   0   7  -6  135.53   26.59
   0   7  -6  113.66   24.04
   0   7  -6  141.10   25.46
   0   7  -5  347.53   46.76
   0   7  -5  450.32   49.15
   0   7  -5  414.89   46.04
   0   7  -5  371.13   34.57
   0   7  -4 1535.38   94.56
   0   7  -4 1460.33   87.15
   0   7  -4 1544.63   88.49
   0   7  -4 1336.28   56.22
   0   7  -3  302.88   43.16
   0   7  -3  262.44   37.10
   0   7  -3  236.45   35.29
   0   7  -3  247.95   41.19
   0   7  -3  306.51   21.95
   0   7  -2  258.79   39.90
   0   7  -2  306.23   39.73
   0   7  -2  210.74   34.99
   0   7  -2  255.60   40.12
   0   7  -2  243.17   32.43
   0   7  -2  216.94   14.24
   0   7  -1  496.36   54.47
   0   7  -1  590.87   55.54
   0   7  -1  557.53   53.54
   0   7  -1  556.27   40.23
   0   7  -1  558.49   48.24
   0   7  -1  660.21   58.15
   0   7   0   27.19   13.61
   0   7   0   62.43   21.57
   0   7   0   36.99   19.37
   0   7   0   26.04   13.99
   0   7   0   20.63   17.67
   0   7   0   32.54   13.23
   0   7   0   37.89   12.95
   0   7   0   33.09    5.93
   0   7   0   24.37    5.19
   0   7   1  312.43   42.42
   0   7   1  297.42   33.37
   0   7   1  332.79   44.43
   0   7   1  323.33   41.98
   0   7   1  324.97   42.01
   0   7   1  275.77   29.64
   0   7   1  259.97   35.81
   0   7   1  305.44   35.78
   0   7   1  298.58   21.65
   0   7   2  189.64   34.14
   0   7   2  232.61   26.51
   0   7   2  248.50   38.99
   0   7   2  250.34   36.28
   0   7   2  219.93   37.21
   0   7   2  198.61   25.77
   0   7   2  232.23   33.72
   0   7   2  220.10   22.86
   0   7   2  212.14   30.98
   0   7   2  229.70   39.90
   0   7   3  408.45   31.78
   0   7   3  350.68   46.07
   0   7   3  399.91   46.07
   0   7   3  435.50   47.25
   0   7   3  397.66   37.73
   0   7   3  354.55   39.73
   0   7   3  375.11   40.39
   0   7   3  398.02   34.77
   0   7   3  481.24   54.03
   0   7   4    2.77    2.55
   0   7   4    4.17    9.71
   0   7   4   -2.39    6.67
   0   7   4   -1.26    9.49
   0   7   4   15.15   12.29
   0   7   4    5.24    5.32
   0   7   4   -3.65   11.44
   0   7   4   17.67   12.49
   0   7   5  612.60   62.12
   0   7   5  631.29   57.21
   0   7   5  573.50   55.76
   0   7   5  678.95   56.83
   0   7   5  654.61   55.18
   0   7   5  632.74   66.98
   0   7   6  315.34   41.74
   0   7   6  291.00   38.58
   0   7   6  330.85   47.77
   0   7   6  352.08   44.01
   0   7   6  308.56   40.50
   0   7   6  314.55   48.35
   0   7   7   29.28   13.77
   0   7   7   45.74   15.75
   0   7   7   36.63   16.13
   0   7   7   20.94   15.26
   0   7   8  111.16   24.37
   0   7   8   48.76   17.26
   0   7   8   77.68   26.10
   0   7   8   69.40   24.70
   0   7   9    5.52   14.41
   0   7   9  -41.98   25.11
   0   7   9    0.96   13.99
   0   7   9    0.16   10.13
   0   7  10   14.60   17.51
   0   7  10   22.91   24.75
   0   8  -9  164.31   34.05
   0   8  -8   51.34   17.51
   0   8  -7   62.07   19.10
   0   8  -6  144.58   29.91
   0   8  -5  238.73   38.17
   0   8  -5  214.77   24.06
   0   8  -4   16.35   11.42
   0   8  -4   10.67    4.42
   0   8  -3  578.52   60.51
   0   8  -3  514.23   59.87
   0   8  -2  154.62   34.16
   0   8  -2  182.97   36.19
   0   8  -1  547.05   59.82
   0   8  -1  435.12   38.96
   0   8  -1  496.94   52.93
   0   8   0 1128.47   85.20
   0   8   0  972.34   57.27
   0   8   0  947.56   70.63
   0   8   1  321.63   36.58
   0   8   1  343.47   47.33
   0   8   1  302.66   32.54
   0   8   1  332.55   41.65
   0   8   1  296.46   18.74
   0   8   1  366.08   19.35
   0   8   2   39.40   13.17
   0   8   2   45.66   20.58
   0   8   2   46.62   14.60
   0   8   2   38.42   19.29
   0   8   2   29.55    9.49
   0   8   2   57.79   21.05
   0   8   3   10.78    9.16
   0   8   3    8.23   10.13
   0   8   3    3.62   13.03
   0   8   3    6.12    4.77
   0   8   3   19.02   13.03
   0   8   4   98.92   15.72
   0   8   4   72.44   25.19
   0   8   4  113.46   23.63
   0   8   4   87.67   18.93
   0   8   4  124.19   30.29
   0   8   5   46.32   21.95
   0   8   5   82.07   25.11
   0   8   5   53.21   17.40
   0   8   5   67.80   25.52
   0   8   6  395.05   49.15
   0   8   6  484.98   53.86
   0   8   6  458.50   49.64
   0   8   6  438.96   60.42
   0   8   7   90.22   25.38
   0   8   7   80.34   23.13
   0   8   7  136.65   29.83
   0   8   7  130.92   36.44
   0   8   8   15.78   13.72
   0   8   8   -9.49   18.38
   0   8   8  -20.83   19.87
   0   8   8  -13.09   25.24
   0   8   9   -7.08   11.74
   0   8  10   72.99   24.20
   0   9  -9    8.51   14.98
   0   9  -8  249.98   41.46
   0   9  -7    6.23   19.18
   0   9  -6   72.61   25.38
   0   9  -5  148.56   32.65
   0   9  -4  109.18   28.15
   0   9  -3    1.13   12.79
   0   9  -3    4.03   14.43
   0   9  -2  209.26   38.03
   0   9  -2  280.99   34.14
   0   9  -2  258.46   46.57
   0   9  -1  117.03   26.89
   0   9  -1   93.08   19.56
   0   9  -1   91.87   27.14
   0   9   0   43.11   14.76
   0   9   0   77.13   22.28
   0   9   0   58.72   15.53
   0   9   0   52.93   27.74
   0   9   1  249.32   35.01
   0   9   1  290.76   48.21
   0   9   1  239.72   38.61
   0   9   1  231.51   28.95
   0   9   2  449.00   43.66
   0   9   2  507.45   61.88
   0   9   2  430.59   41.71
   0   9   2  499.44   50.65
   0   9   2  495.68   63.91
   0   9   3   29.72   12.79
   0   9   3   26.64   16.85
   0   9   3   33.31   14.10
   0   9   3   18.30    7.82
   0   9   3    0.60   11.52
   0   9   4  232.06   41.76
   0   9   4  163.16   33.28
   0   9   4  168.48   23.71
   0   9   4  241.75   48.79
   0   9   5   94.70   34.05
   0   9   5  110.28   29.85
   0   9   5   84.13   27.52
   0   9   6   19.87   14.02
   0   9   6   10.73   19.98
   0   9   7   38.94   18.99
   0   9   8   10.24   13.23
   0  10  -8  -18.77   21.54
   0  10  -7  260.74   47.47
   0  10  -6  193.01   41.35
   0  10  -5    1.32    6.17
   0  10  -4  176.99   37.84
   0  10  -3   -2.47   15.34
   0  10  -2  108.03   27.30
   0  10  -2   83.58   26.15
   0  10  -1  114.51   27.36
   0  10  -1   81.11   24.89
   0  10  -1  137.94   35.18
   0  10   0  176.91   32.68
   0  10   0  293.06   49.86
   0  10   0  226.90   37.87
   0  10   1   54.88   21.84
   0  10   1   59.13   24.94
   0  10   1   50.96   25.41
   0  10   1   59.74   24.28
   0  10   2  103.04   30.24
   0  10   2   30.87   17.78
   0  10   3  243.91   44.84
   0  10   3  221.61   47.75
   0  10   4  -23.32   15.94
   0  10   4  -30.40   21.02
   0  10   5   68.16   23.49
   0  10   6   35.89   19.54
   0  10   7  -15.83   17.37
   0  11  -2   45.61   20.25
   0  11  -1  -17.81   12.07
   1 -11   0   60.92   21.87
   1 -11   1  158.16   36.17
   1 -11   2   13.64   23.87
   1 -11   3   41.96   20.96
   1 -10  -2   98.43   29.42
   1 -10  -1  148.70   38.14
   1 -10  -1   57.08   19.15
   1 -10   0    2.96   13.47
   1 -10   0    6.28   12.62
   1 -10   1   36.82   24.83
   1 -10   1   49.64   21.87
   1 -10   2  184.29   39.68
   1 -10   2  110.23   27.25
   1 -10   3   28.98   19.04
   1 -10   3   34.41   18.28
   1 -10   4   63.33   24.34
   1 -10   4   11.83   17.26
   1 -10   5  178.99   37.04
   1 -10   6  227.12   42.75
   1  -9  -4  -48.02   21.10
   1  -9  -3  154.43   37.95
   1  -9  -2  -15.42   17.31
   1  -9  -1  387.98   57.71
   1  -9  -1  213.26   35.48
   1  -9   0  712.29   72.33
   1  -9   0  741.82   66.68
   1  -9   0  647.83   59.49
   1  -9   1  101.14   32.00
   1  -9   1  139.40   27.28
   1  -9   1   62.29   22.53
   1  -9   2   32.82   17.04
   1  -9   2   19.15   10.56
   1  -9   3  130.72   32.74
   1  -9   3   78.15   23.74
   1  -9   4   24.37   18.58
   1  -9   4   17.07   18.96
   1  -9   5   -0.91   15.23
   1  -9   5   15.70   13.64
   1  -9   6   84.95   27.82
   1  -9   7  293.55   47.50
   1  -8  -7    4.80    8.53
   1  -8  -6   16.27   17.26
   1  -8  -5  411.41   54.63
   1  -8  -4  306.23   46.54
   1  -8  -3  -31.67   23.30
   1  -8  -2  192.55   37.95
   1  -8  -1   48.24   25.90
   1  -8  -1   75.49   24.01
   1  -8   0  143.48   31.28
   1  -8   0  160.06   32.13
   1  -8   0  190.54   34.44
   1  -8   1 1077.13   83.66
   1  -8   1 1026.75   70.63
   1  -8   1 1036.96   75.08
   1  -8   2  289.41   44.78
   1  -8   2  272.73   38.99
   1  -8   2  246.52   39.65
   1  -8   3  128.53   31.80
   1  -8   3   75.71   29.58
   1  -8   3  106.11   24.61
   1  -8   4  117.66   30.40
   1  -8   4  175.01   38.86
   1  -8   4  152.05   29.61
   1  -8   5  146.42   35.18
   1  -8   5  148.37   31.61
   1  -8   6   53.78   19.13
   1  -8   6   63.61   22.36
   1  -8   7   96.42   19.67
   1  -8   7   32.43   20.39
   1  -8   8  132.65   26.64
   1  -8   8  126.36   30.27
   1  -8   9  -31.17   25.71
   1  -7 -10   63.50   29.14
   1  -7  -9    0.14   20.85
   1  -7  -8  -18.06   17.12
   1  -7  -7  313.28   44.75
   1  -7  -6  270.59   41.08
   1  -7  -6  264.22   37.95
   1  -7  -5    4.64   16.60
   1  -7  -5   -4.47    9.88
   1  -7  -4  201.52   33.42
   1  -7  -3   79.22   23.68
   1  -7  -2  -21.92   14.98
   1  -7  -1  465.16   51.12
   1  -7  -1  413.66   43.00
   1  -7  -1  424.28   43.03
   1  -7   0  376.23   46.51
   1  -7   0  389.73   43.33
   1  -7   0  380.79   40.78
   1  -7   1   64.24   26.48
   1  -7   1   34.22   17.40
   1  -7   1   71.95   18.55
   1  -7   2  633.76   59.05
   1  -7   2  631.04   52.77
   1  -7   2  692.34   61.71
   1  -7   3  653.07   60.83
   1  -7   3  676.10   63.99
   1  -7   3  783.91   59.79
   1  -7   4   61.93   23.24
   1  -7   4   23.24   20.96
   1  -7   4   31.20   15.31
   1  -7   5  266.22   38.28
   1  -7   5  332.79   42.83
   1  -7   5  347.36   52.22
   1  -7   6  325.44   44.21
   1  -7   6  294.71   41.57
   1  -7   7   30.29   14.49
   1  -7   7   24.86   17.31
   1  -7   7   55.68   15.42
   1  -7   8  214.66   36.08
   1  -7   8  207.23   32.49
   1  -7   9  114.89   28.89
   1  -7   9   96.40   26.12
   1  -7  10   45.39   19.73
   1  -7  10   -5.43   15.72
   1  -7  11  -20.00   16.05
   1  -6 -11   65.61   35.32
   1  -6 -10   17.84   27.60
   1  -6  -9   13.45   19.73
   1  -6  -9   -1.78   17.78
   1  -6  -8  135.94   35.48
   1  -6  -8   98.07   28.81
   1  -6  -7    0.55   18.85
   1  -6  -7   -0.41   11.94
   1  -6  -6  253.11   44.51
   1  -6  -6  276.82   36.50
   1  -6  -6  253.71   38.42
   1  -6  -5  424.72   45.50
   1  -6  -4   65.14   19.46
   1  -6  -4   91.05   19.89
   1  -6  -3 1062.67   71.34
   1  -6  -3 1049.67   52.93
   1  -6  -2  671.65   56.61
   1  -6  -1    5.13   12.40
   1  -6  -1   -8.42   11.17
   1  -6   0  367.04   42.09
   1  -6   0  360.48   36.00
   1  -6   1  138.13   27.85
   1  -6   1  138.57   23.87
   1  -6   2    9.16   14.13
   1  -6   2   -7.57    8.51
   1  -6   3  161.81   28.24
   1  -6   3  112.42   26.78
   1  -6   3  127.18   22.56
   1  -6   4 1493.62   82.29
   1  -6   4 1607.17   81.17
   1  -6   4 1607.85  100.71
   1  -6   5  363.91   42.12
   1  -6   5  364.32   41.68
   1  -6   5  400.60   53.10
   1  -6   6  670.03   56.33
   1  -6   6  763.66   61.80
   1  -6   6  652.20   73.13
   1  -6   7  725.32   58.53
   1  -6   7  796.23   65.50
   1  -6   7  653.81   53.12
   1  -6   8    0.30   11.28
   1  -6   8   17.34    9.41
   1  -6   9  170.68   33.72
   1  -6   9  189.75   35.64
   1  -6  10   71.40   23.98
   1  -6  10  121.07   31.42
   1  -6  11   15.86   13.67
   1  -6  12   13.06   19.32
   1  -5 -11  -38.86   29.22
   1  -5 -10   -1.32   33.59
   1  -5 -10   15.39   14.16
   1  -5  -9   15.75   13.83
   1  -5  -9  -24.81   25.22
   1  -5  -8  353.95   52.63
   1  -5  -8  245.92   43.66
   1  -5  -7  716.10   75.21
   1  -5  -7  687.95   64.79
   1  -5  -6  128.34   32.13
   1  -5  -6  109.62   27.36
   1  -5  -6  156.38   24.39
   1  -5  -5   62.32   24.37
   1  -5  -5   55.18   17.67
   1  -5  -4  325.44   36.58
   1  -5  -4  320.91   33.64
   1  -5  -3    2.44   10.87
   1  -5  -3    0.36    8.73
   1  -5  -2 3318.30  112.07
   1  -5  -1 1370.91   72.22
   1  -5  -1 1191.15   68.27
   1  -5  -1 1221.19   59.76
   1  -5  -1 1142.60   60.53
   1  -5   0  560.05   46.40
   1  -5   0  452.57   42.26
   1  -5   0  480.86   36.85
   1  -5   0  427.30   38.66
   1  -5   1  310.81   34.85
   1  -5   1  307.96   34.22
   1  -5   1  353.21   32.30
   1  -5   1  299.23   34.93
   1  -5   2  449.25   41.13
   1  -5   2  507.67   44.54
   1  -5   2  528.39   38.96
   1  -5   3 1187.77   66.57
   1  -5   3 1240.90   62.84
   1  -5   4   18.74   12.57
   1  -5   4   29.80   14.54
   1  -5   4   51.12   24.64
   1  -5   4   28.02   14.49
   1  -5   5 1108.14   64.81
   1  -5   5 1038.47   63.63
   1  -5   5 1110.14   84.84
   1  -5   6   89.18   20.28
   1  -5   6   82.35   27.55
   1  -5   6   88.30   21.27
   1  -5   7  483.66   42.64
   1  -5   7  400.60   42.67
   1  -5   8  714.38   51.70
   1  -5   8  593.42   55.21
   1  -5   9  108.25   26.32
   1  -5  10  114.04   31.34
   1  -5  11  133.03   34.99
   1  -5  12   13.75   17.97
   1  -4 -12    8.48   27.99
   1  -4 -11  -12.65   22.50
   1  -4 -11   35.62   26.73
   1  -4 -10    8.23   16.24
   1  -4 -10   19.18   25.24
   1  -4  -9  157.34   36.44
   1  -4  -9   97.74   33.12
   1  -4  -8    6.83   12.27
   1  -4  -8   28.04   18.85
   1  -4  -7  416.98   53.15
   1  -4  -7  421.21   52.96
   1  -4  -6  266.61   42.15
   1  -4  -6  252.64   28.37
   1  -4  -6  317.07   40.94
   1  -4  -6  297.70   42.92
   1  -4  -5  148.81   22.06
   1  -4  -5  137.56   28.73
   1  -4  -5  121.07   25.30
   1  -4  -4  778.12   60.72
   1  -4  -4  752.98   48.57
   1  -4  -4  783.94   50.79
   1  -4  -3 2098.23   79.71
   1  -4  -3 2044.89   79.38
   1  -4  -3 2045.49   70.38
   1  -4  -2   57.02   16.79
   1  -4  -2   54.03   14.21
   1  -4  -2   53.62   11.66
   1  -4  -1  657.55   45.28
   1  -4  -1  604.15   43.30
   1  -4  -1  648.79   38.55
   1  -4  -1  531.84   38.66
   1  -4   0  868.92   52.03
   1  -4   0  966.60   53.54
   1  -4   0 1005.29   46.37
   1  -4   0  813.13   48.08
   1  -4   1  104.85   18.77
   1  -4   1  106.03   18.71
   1  -4   1  141.54   23.16
   1  -4   1  115.91   17.23
   1  -4   2 1017.75   55.95
   1  -4   2 1059.87   56.20
   1  -4   2 1113.22   50.60
   1  -4   2 1041.38   62.32
   1  -4   3 2086.93   78.64
   1  -4   3 2047.66   78.40
   1  -4   3 1908.35   90.72
   1  -4   3 1976.59   71.18
   1  -4   3 1982.16   62.10
   1  -4   4  393.00   35.48
   1  -4   4  357.11   33.70
   1  -4   4  413.58   35.48
   1  -4   4  433.44   33.64
   1  -4   5  319.13   31.78
   1  -4   5  321.79   44.70
   1  -4   6  766.15   48.08
   1  -4   6  800.34   72.44
   1  -4   7  340.72   33.09
   1  -4   7  355.40   55.59
   1  -4   7  322.04   38.22
   1  -4   8    4.61    9.36
   1  -4   8    6.50   15.67
   1  -4   9  328.59   45.77
   1  -4  10   85.61   28.15
   1  -4  11   47.61   28.70
   1  -4  12  180.61   44.59
   1  -3 -12  -21.57   25.19
   1  -3 -12   43.44   26.18
   1  -3 -11   26.42   16.00
   1  -3 -11   68.11   30.60
   1  -3 -10    8.37   18.74
   1  -3 -10  -10.21   23.16
   1  -3  -9  410.70   34.35
   1  -3  -9  436.08   57.57
   1  -3  -9  391.90   58.91
   1  -3  -8  289.96   25.66
   1  -3  -8  331.42   47.42
   1  -3  -8  276.27   45.63
   1  -3  -7  247.51   19.89
   1  -3  -7  229.95   38.75
   1  -3  -7  218.81   37.35
   1  -3  -7  283.57   42.12
   1  -3  -6  155.42   29.72
   1  -3  -6  107.98   10.07
   1  -3  -6  122.44   11.11
   1  -3  -6  109.24   15.67
   1  -3  -6   90.77   23.90
   1  -3  -6   97.28   24.97
   1  -3  -5 2140.46   68.96
   1  -3  -5 2146.77   97.91
   1  -3  -5 2193.34  100.90
   1  -3  -4   14.41   11.50
   1  -3  -4   16.24    8.07
   1  -3  -4   12.24    9.00
   1  -3  -4   11.17   11.09
   1  -3  -4   28.04   14.16
   1  -3  -3 1104.49   62.56
   1  -3  -3 1196.91   52.36
   1  -3  -3 1090.03   50.52
   1  -3  -3 1140.35   51.89
   1  -3  -3 1035.23   61.16
   1  -3  -2  363.83   29.53
   1  -3  -2  338.75   28.89
   1  -3  -2  367.53   24.64
   1  -3  -1    8.78    8.31
   1  -3  -1   20.91    9.66
   1  -3  -1    7.63    3.84
   1  -3  -1    4.66    8.34
   1  -3  -1   11.61    7.55
   1  -3   0   13.53   10.78
   1  -3   0   20.58    9.93
   1  -3   0   -7.68    9.03
   1  -3   0    3.59    7.41
   1  -3   1 3523.50   89.62
   1  -3   1 3626.37   90.72
   1  -3   1 3867.24   77.35
   1  -3   1 3597.72   97.58
   1  -3   2 5230.46  108.99
   1  -3   2 5509.91  111.43
   1  -3   2 5236.83  126.44
   1  -3   2 5732.29   99.83
   1  -3   2 5711.38   91.43
   1  -3   3  514.91   34.63
   1  -3   3  519.06   34.63
   1  -3   3  453.69   42.45
   1  -3   3  546.88   32.32
   1  -3   4 3282.19   86.11
   1  -3   4 3464.39   89.15
   1  -3   4 3579.59   91.98
   1  -3   5    2.36    5.52
   1  -3   5   -0.44    7.35
   1  -3   5    7.60    9.91
   1  -3   6  287.27   25.63
   1  -3   7  522.68   34.52
   1  -3   7  622.89   68.71
   1  -3   7  534.81   49.50
   1  -3   8  281.23   39.71
   1  -3   9   20.22   18.71
   1  -3  10  303.90   47.97
   1  -3  11   48.60   25.33
   1  -3  12    3.98    6.83
   1  -2 -12   18.49   15.86
   1  -2 -12   55.76   25.60
   1  -2 -11   50.30   20.22
   1  -2 -11    0.33   24.12
   1  -2 -10   69.34   22.50
   1  -2  -9  124.47   21.57
   1  -2  -9  175.04   32.85
   1  -2  -8   19.98   13.23
   1  -2  -8   32.19   15.64
   1  -2  -7 1138.76   54.44
   1  -2  -7 1270.97   79.88
   1  -2  -6    8.86    6.28
   1  -2  -6    3.13    4.64
   1  -2  -6    2.28   11.99
   1  -2  -6    9.25    9.06
   1  -2  -5 1034.35   40.25
   1  -2  -5 1013.97   62.87
   1  -2  -5 1103.67   67.83
   1  -2  -4 4316.41   83.58
   1  -2  -4 4327.41   82.87
   1  -2  -4 4292.78  118.38
   1  -2  -4 4175.72  121.26
   1  -2  -3  381.39   25.44
   1  -2  -3  368.19   24.70
   1  -2  -3  398.90   34.11
   1  -2  -3  405.59   35.10
   1  -2  -2  795.68   36.39
   1  -2  -2  833.38   36.91
   1  -2  -2  805.26   44.62
   1  -2  -2  759.10   43.44
   1  -2  -1  175.26   17.70
   1  -2  -1  194.06   18.55
   1  -2  -1  197.10   13.25
   1  -2   0  282.50   21.87
   1  -2   0  271.66   21.51
   1  -2   0  280.47   17.12
   1  -2   0  296.52   23.82
   1  -2   1  488.10   28.10
   1  -2   1  531.19   29.50
   1  -2   1  531.10   23.93
   1  -2   1  499.00   33.12
   1  -2   2 5011.02   89.40
   1  -2   2 5303.59   91.18
   1  -2   2 5002.24  112.70
   1  -2   2 5348.18   84.71
   1  -2   3 2371.73   61.82
   1  -2   3 2390.39   61.00
   1  -2   3 2300.96   65.06
   1  -2   4  279.61   21.73
   1  -2   4  295.53   22.14
   1  -2   4  288.18   27.63
   1  -2   5 4128.83   81.63
   1  -2   5 3818.59   79.16
   1  -2   5 4115.30  111.52
   1  -2   6 2177.43   57.65
   1  -2   7    5.24    5.27
   1  -2   7   -0.99   17.59
   1  -2   8  355.40   52.38
   1  -2   8  395.22   47.17
   1  -2   9    5.95   20.96
   1  -2  10   72.36   30.16
   1  -2  11   97.80   35.26
   1  -2  12  262.16   53.89
   1  -1 -12  115.44   32.49
   1  -1 -11   -9.52   15.39
   1  -1 -10   20.55   17.20
   1  -1 -10   59.57   25.77
   1  -1  -9  252.04   39.87
   1  -1  -8  143.62   27.63
   1  -1  -7    3.81    8.97
   1  -1  -7   -9.80   11.20
   1  -1  -6 2931.45   42.15
   1  -1  -6 2963.86  106.99
   1  -1  -6 3020.05  114.75
   1  -1  -5 1218.89   33.01
   1  -1  -5 1252.64   32.96
   1  -1  -5 1115.91   61.16
   1  -1  -5 1217.41   66.90
   1  -1  -4 3003.15   55.18
   1  -1  -4 3136.24   55.35
   1  -1  -4 3075.87   96.01
   1  -1  -3   25.14    6.15
   1  -1  -3   37.13    6.67
   1  -1  -3   53.65   13.17
   1  -1  -3   35.75   10.40
   1  -1  -2  496.34   22.99
   1  -1  -2  497.02   22.89
   1  -1  -2  500.84   29.85
   1  -1  -2  486.46   17.40
   1  -1  -2  458.17   29.44
   1  -1  -1  240.38   16.27
   1  -1  -1  238.78   16.38
   1  -1  -1  242.02   18.85
   1  -1  -1  206.62   17.86
   1  -1   0 7935.48   79.63
   1  -1   0 7455.85   88.66
   1  -1   0 7628.40   88.85
   1  -1   0 7839.36   54.66
   1  -1   1 1969.13   45.55
   1  -1   1 2000.03   45.74
   1  -1   1 1954.47   42.97
   1  -1   2  212.55   15.48
   1  -1   2  218.53   15.61
   1  -1   2  194.03   17.45
   1  -1   3  242.05   16.38
   1  -1   3  226.57   15.75
   1  -1   3  244.38   22.83
   1  -1   4 1733.97   42.20
   1  -1   4 1852.37   43.38
   1  -1   4 1822.82   66.76
   1  -1   5   25.68    6.48
   1  -1   5   27.39    5.35
   1  -1   6 2320.55   44.01
   1  -1   6 2186.34   43.33
   1  -1   7 1834.42  107.57
   1  -1   7 1722.39   88.71
   1  -1   8  103.04   30.65
   1  -1   8  133.91   31.58
   1  -1   9  310.02   47.36
   1  -1  10   70.91   26.04
   1  -1  11   29.58   20.06
   1  -1  12   15.01   18.22
   1   0 -13   19.13   19.54
   1   0 -12   34.77   19.37
   1   0 -11  233.98   43.68
   1   0 -10  197.43   37.10
   1   0  -9  -10.40   18.47
   1   0  -8  467.50   48.13
   1   0  -8  559.72   56.99
   1   0  -7  330.16   37.26
   1   0  -7  455.94   47.20
   1   0  -6 1071.92   61.05
   1   0  -6 1003.46   65.09
   1   0  -5  846.66   49.42
   1   0  -5  887.36   55.04
   1   0  -4 1442.61   29.03
   1   0  -4 1502.02   28.89
   1   0  -4 1476.00   57.84
   1   0  -4 1425.16   62.59
   1   0  -3  389.90   26.21
   1   0  -3  344.10   26.86
   1   0  -2 2188.51   50.33
   1   0  -2 1978.98   53.70
   1   0  -1 2094.91   43.05
   1   0   2 6484.97   96.97
   1   0   2 6063.08   97.38
   1   0   3  361.66   30.98
   1   0   4 1153.99   60.18
   1   0   5 1965.23   33.34
   1   0   5 2111.10   33.86
   1   0   5 1947.59   88.36
   1   0   6   20.03   12.54
   1   0   7  543.75   56.03
   1   0   8  217.00   38.09
   1   0   8  168.26   33.83
   1   0   9  -41.65   23.10
   1   0   9    2.09   20.72
   1   0  10  118.68   33.61
   1   0  11  347.47   58.09
   1   0  12   52.14   25.60
   1   1 -13   16.74   16.46
   1   1 -12   34.74   17.73
   1   1 -11   -0.63    8.29
   1   1 -10  155.12   31.64
   1   1  -9  525.40   54.28
   1   1  -8  223.50   32.96
   1   1  -8  308.62   41.60
   1   1  -7 2429.52   98.13
   1   1  -6  372.47   36.17
   1   1  -5   19.89    4.42
   1   1  -5   33.09   11.09
   1   1  -4   12.87    7.85
   1   1  -3  125.84   14.63
   1   1   2 5310.48   83.91
   1   1   2 4926.40   79.82
   1   1   2 5029.08   89.78
   1   1   2 5212.46   77.55
   1   1   2 5078.72   78.78
   1   1   2 5066.40   75.68
   1   1   3 9830.54  126.72
   1   1   3 9999.00  137.09
   1   1   4 2125.21   74.77
   1   1   6   46.13    5.54
   1   1   8  154.54   32.10
   1   1   9  387.56   55.18
   1   1   9  283.13   43.33
   1   1  10  489.26   60.37
   1   1  11   11.88   14.21
   1   1  12  124.77   35.78
   1   2 -13  -36.03   27.25
   1   2 -12   28.04   20.00
   1   2 -11  152.05   35.21
   1   2 -10   34.00   17.15
   1   2  -9  378.18   45.88
   1   2  -8  370.63   42.59
   1   2  -7  126.69   11.14
   1   2  -7  130.45   11.61
   1   2  -7  110.25   24.86
   1   2  -6 2214.03   52.33
   1   2  -6 2124.85   51.04
   1   2  -5  846.33   33.61
   1   2  -5  827.29   56.61
   1   2  -4   19.81    7.82
   1   2  -4   24.26    6.56
   1   2  -4   18.41   11.03
   1   2  -3  548.50   28.32
   1   2  -3  612.90   31.97
   1   2  -2 1528.19   50.71
   1   2  -1 1080.97   42.89
   1   2   0   35.62   11.11
   1   2   0   14.71    8.51
   1   2   0   23.71    5.95
   1   2   1  910.02   35.78
   1   2   1  828.64   38.17
   1   2   1  898.09   34.22
   1   2   1  885.27   36.19
   1   2   1  841.89   23.13
   1   2   2  722.03   32.57
   1   2   2  674.59   34.16
   1   2   2  629.97   33.15
   1   2   2  670.83   35.84
   1   2   2  697.22   30.35
   1   2   2  751.94   35.75
   1   2   3 6837.71  122.74
   1   2   3 7317.83  107.46
   1   2   3 6794.08  107.62
   1   2   3 7024.11  100.13
   1   2   3 6789.50  127.16
   1   2   3 7272.17  119.09
   1   2   3 7268.38  123.67
   1   2   4 7518.58  103.12
   1   2   4 7430.83  111.87
   1   2   4 7635.12  117.94
   1   2   4 7872.20  142.77
   1   2   5  440.88   24.48
   1   2   5  485.74   41.08
   1   2   5  496.01   39.93
   1   2   6  231.16   17.18
   1   2   6  223.25   17.56
   1   2   6  237.03   33.28
   1   2   7   21.02    5.43
   1   2   7   18.91    6.06
   1   2   8   19.46    4.03
   1   2   8   15.53    3.98
   1   2   8   31.91   18.55
   1   2   9   71.70   24.37
   1   2  10  326.51   52.63
   1   2  11  106.25   30.65
   1   2  12   34.74   20.20
   1   3 -13  -20.00   13.09
   1   3 -12   14.41   13.14
   1   3 -11   74.80   27.77
   1   3 -10  178.06   33.72
   1   3  -9    4.01    3.62
   1   3  -9   -0.11    3.43
   1   3  -9    4.88   11.66
   1   3  -8  739.04   33.59
   1   3  -8  720.11   32.82
   1   3  -8  792.36   61.22
   1   3  -7  445.65   29.03
   1   3  -7  453.47   28.65
   1   3  -6  276.95   23.60
   1   3  -6  273.71   23.76
   1   3  -6  268.94   35.48
   1   3  -5   25.27    9.71
   1   3  -5   30.02    9.11
   1   3  -5   17.75    7.85
   1   3  -5   27.88   12.65
   1   3  -4 2243.01   67.42
   1   3  -4 2308.73   74.31
   1   3  -4 2238.97   80.54
   1   3  -3   -0.30    6.94
   1   3  -3    1.48    4.99
   1   3  -3   -4.34    5.93
   1   3  -2 4451.47  102.38
   1   3  -2 4378.31   94.53
   1   3  -1 1736.87   64.68
   1   3  -1 1701.78   59.22
   1   3   0  934.69   40.25
   1   3   0 1000.19   46.10
   1   3   0  900.58   47.14
   1   3   0  982.96   33.26
   1   3   1   42.04   11.06
   1   3   1   28.48   10.04
   1   3   1   46.98   11.77
   1   3   1   48.73   13.75
   1   3   1   19.92    8.40
   1   3   1   37.84    6.17
   1   3   1   38.86    5.68
   1   3   2 4338.14   85.89
   1   3   2 4296.21   99.25
   1   3   2 4173.69  100.43
   1   3   2 4080.15   92.34
   1   3   2 4319.48   97.85
   1   3   2 4616.82   65.06
   1   3   2 4377.10   75.54
   1   3   2 4517.35  102.05
   1   3   3  918.45   39.95
   1   3   3  916.55   47.80
   1   3   3  907.50   43.30
   1   3   3  930.90   50.41
   1   3   3 1008.56   45.39
   1   3   3 1002.17   51.92
   1   3   4  762.40   37.13
   1   3   4  714.29   42.12
   1   3   4  777.51   39.93
   1   3   4  753.45   49.28
   1   3   4  838.02   48.24
   1   3   4  710.89   48.05
   1   3   5  491.92   31.61
   1   3   5  561.40   34.38
   1   3   5  448.73   33.70
   1   3   5  532.31   43.93
   1   3   5  517.63   43.68
   1   3   6   33.81   10.21
   1   3   6   18.08    7.57
   1   3   6   18.47    9.25
   1   3   6   43.14   15.81
   1   3   6   13.34    8.95
   1   3   7   77.35   12.68
   1   3   7   94.89   13.45
   1   3   7   93.30   21.87
   1   3   7   67.48   22.86
   1   3   8  884.04   38.53
   1   3   8  790.27   35.84
   1   3   8  811.92   69.20
   1   3   9  484.95   24.72
   1   3   9  510.69   25.05
   1   3   9  486.02   59.65
   1   3  10  -13.01   18.69
   1   3  11   94.56   30.21
   1   3  12   16.33   21.51
   1   4 -13   21.87   16.93
   1   4 -12  185.58   38.91
   1   4 -11  -17.92   19.15
   1   4 -10  272.07   43.27
   1   4  -9  163.52   18.91
   1   4  -9  211.04   20.91
   1   4  -9  179.05   33.15
   1   4  -8    9.22    4.94
   1   4  -8   -2.25    3.76
   1   4  -7   84.35   16.88
   1   4  -7   69.20   13.80
   1   4  -7   79.77   14.46
   1   4  -6  555.39   38.28
   1   4  -6  623.41   41.35
   1   4  -6  540.05   42.15
   1   4  -6  535.99   49.83
   1   4  -5  454.52   35.01
   1   4  -5  474.16   36.69
   1   4  -5  470.30   39.76
   1   4  -5  493.32   42.18
   1   4  -4   74.61   16.90
   1   4  -4   54.52   13.75
   1   4  -4   94.37   17.86
   1   4  -4   65.69   14.82
   1   4  -3 1744.75   74.72
   1   4  -3 1727.85   68.90
   1   4  -3 1931.53   73.54
   1   4  -2  987.24   52.33
   1   4  -2 1084.57   58.58
   1   4  -1  495.27   40.09
   1   4   0 4496.99  105.26
   1   4   0 4465.98  118.35
   1   4   0 4684.16   88.27
   1   4   1  484.70   36.39
   1   4   1  571.52   36.69
   1   4   1  478.88   39.29
   1   4   1  474.58   33.28
   1   4   1  524.79   26.32
   1   4   1  469.39   16.71
   1   4   2 1505.34   56.36
   1   4   2 1461.71   66.19
   1   4   2 1538.07   70.47
   1   4   2 1442.28   63.22
   1   4   2 1554.92   63.58
   1   4   2 1659.77   47.42
   1   4   2 1536.84   45.69
   1   4   2 1615.04   70.55
   1   4   3 2780.23   96.01
   1   4   3 2760.64   73.84
   1   4   3 2775.95   94.45
   1   4   3 2893.56   89.02
   1   4   3 2590.10   89.21
   1   4   3 2906.04   68.82
   1   4   3 2770.35   76.53
   1   4   3 2883.40   98.46
   1   4   4   42.59   10.70
   1   4   4   44.92   13.03
   1   4   4   40.34   11.63
   1   4   4   32.65   12.18
   1   4   4   45.96   13.91
   1   4   4   36.44   13.42
   1   4   4   28.84   14.74
   1   4   5    0.27    9.47
   1   4   5    2.91    6.61
   1   4   5   10.21    5.87
   1   4   5   -4.09    3.51
   1   4   5    3.21    6.61
   1   4   5   -8.20   10.02
   1   4   5   -5.60   12.84
   1   4   6   83.75   18.80
   1   4   6  102.30   17.78
   1   4   6   86.02   16.38
   1   4   6   59.24   17.18
   1   4   6   81.61   21.02
   1   4   6   46.48   18.77
   1   4   7  389.65   33.04
   1   4   7  387.70   32.08
   1   4   7  431.30   50.79
   1   4   7  389.84   35.84
   1   4   7  339.05   43.44
   1   4   7  419.04   47.72
   1   4   8    8.20    6.72
   1   4   8   -0.91    7.38
   1   4   8   -7.68   14.46
   1   4   9  354.72   28.13
   1   4   9  360.07   28.04
   1   4   9  299.76   44.73
   1   4  10   32.41   24.01
   1   4  11   26.34   17.23
   1   4  12   32.27   20.55
   1   5 -12   61.25   22.47
   1   5 -11  241.50   42.39
   1   5 -10   -7.19   14.38
   1   5  -8  432.92   41.41
   1   5  -7   26.29   13.28
   1   5  -6   51.81   17.97
   1   5  -5  443.27   42.75
   1   5  -4  221.83   31.94
   1   5  -3    6.50   11.55
   1   5  -2  599.65   49.04
   1   5  -1 1791.62   71.10
   1   5  -1 1696.98   82.73
   1   5   0  225.12   27.82
   1   5   0  232.64   27.82
   1   5   0  234.94   32.38
   1   5   0  223.88   23.49
   1   5   1 6888.80  139.83
   1   5   1 6689.18  151.69
   1   5   1 6652.63  162.64
   1   5   1 6740.71  136.08
   1   5   1 6741.12  113.90
   1   5   1 6605.24   57.16
   1   5   2  933.32   49.83
   1   5   2  935.54   59.30
   1   5   2  984.96   63.22
   1   5   2  934.25   58.04
   1   5   2 1036.74   61.47
   1   5   2 1004.33   55.24
   1   5   2  865.46   41.19
   1   5   2  890.07   35.75
   1   5   2  971.19   61.74
   1   5   3  409.38   32.10
   1   5   3  485.88   44.84
   1   5   3  487.50   45.08
   1   5   3  420.27   38.50
   1   5   3  408.23   39.32
   1   5   3  443.29   39.38
   1   5   3  461.21   40.20
   1   5   3  466.01   31.20
   1   5   3  413.47   30.87
   1   5   3  479.95   45.14
   1   5   4   37.68    9.71
   1   5   4   53.37   15.97
   1   5   4   68.35   17.89
   1   5   4   51.18   13.86
   1   5   4   51.45   15.94
   1   5   4   48.68   13.45
   1   5   4   51.97   12.79
   1   5   4   72.58   16.99
   1   5   4   59.33   14.27
   1   5   4   57.60   16.27
   1   5   5   40.97   16.35
   1   5   5   28.02   11.28
   1   5   5   23.65   12.79
   1   5   5   30.21   12.10
   1   5   5   30.79    8.95
   1   5   5   26.42   13.25
   1   5   5   36.88   11.69
   1   5   5    3.62   10.81
   1   5   6   36.52   13.36
   1   5   6   14.98    7.93
   1   5   6   14.85   13.01
   1   5   6    0.58    4.97
   1   5   6   -8.67    9.80
   1   5   6   13.17   10.26
   1   5   6   11.77   14.19
   1   5   7  455.37   40.69
   1   5   7  515.76   41.82
   1   5   7  432.07   43.30
   1   5   7  483.80   51.37
   1   5   7  363.00   48.32
   1   5   8  422.52   37.92
   1   5   8  426.91   37.78
   1   5   8  372.55   38.64
   1   5   8  367.86   48.76
   1   5   8  375.30   53.23
   1   5   9   15.64   11.61
   1   5   9    5.82    8.37
   1   5   9    8.04   11.14
   1   5  10   56.72   24.06
   1   5  11   92.28   28.10
   1   5  12   -0.16   19.18
   1   6 -12   18.22   25.00
   1   6 -11   73.10   24.39
   1   6  -9  109.60   20.96
   1   6  -8   10.07   10.34
   1   6  -8   50.98   15.06
   1   6  -8   41.05   12.59
   1   6  -7  723.10   54.96
   1   6  -7  639.22   51.59
   1   6  -7  689.60   58.89
   1   6  -6  161.76   31.69
   1   6  -6  148.67   26.62
   1   6  -6  163.05   27.33
   1   6  -5  365.09   43.11
   1   6  -5  385.12   40.45
   1   6  -5  378.97   41.82
   1   6  -4  555.74   53.78
   1   6  -4  556.76   50.41
   1   6  -4  531.73   48.32
   1   6  -3  600.77   55.48
   1   6  -3  563.04   49.89
   1   6  -3  481.63   46.73
   1   6  -2   91.16   25.19
   1   6  -2   70.52   17.97
   1   6  -2   77.66   20.00
   1   6  -2  100.95   18.99
   1   6  -1  713.80   50.30
   1   6  -1  742.39   51.48
   1   6  -1  822.05   59.63
   1   6  -1  721.23   57.71
   1   6  -1  678.15   58.37
   1   6   0  962.30   62.45
   1   6   0  945.67   60.48
   1   6   0  971.16   55.70
   1   6   0  975.06   53.12
   1   6   0 1073.43   61.41
   1   6   0 1030.48   71.92
   1   6   1  314.71   33.70
   1   6   1  334.52   38.06
   1   6   1  336.91   42.97
   1   6   1  348.35   39.02
   1   6   1  298.03   38.17
   1   6   1  353.89   34.88
   1   6   1  317.04   29.72
   1   6   1  397.72   37.46
   1   6   2 1323.41   64.76
   1   6   2 1315.83   77.44
   1   6   2 1288.26   79.63
   1   6   2 1339.90   76.37
   1   6   2 1315.81   76.45
   1   6   2 1350.35   68.38
   1   6   2 1421.53   73.62
   1   6   2 1302.85   56.69
   1   6   2 1312.35   42.20
   1   6   2 1325.00   79.41
   1   6   3  450.76   36.25
   1   6   3  534.92   51.31
   1   6   3  452.19   47.86
   1   6   3  460.88   44.45
   1   6   3  457.29   45.30
   1   6   3  458.91   42.07
   1   6   3  517.63   45.41
   1   6   3  417.94   33.15
   1   6   3  506.68   33.26
   1   6   3  455.12   48.05
   1   6   4    0.55   12.18
   1   6   4    9.69    7.00
   1   6   4    1.32    8.75
   1   6   4    1.73    9.77
   1   6   4   24.23   14.57
   1   6   4   10.37   12.81
   1   6   4    7.55   10.32
   1   6   4   18.52   13.64
   1   6   4   -1.48    9.41
   1   6   4   25.88   12.51
   1   6   5  292.51   24.53
   1   6   5  227.51   37.04
   1   6   5  236.64   36.85
   1   6   5  338.99   39.02
   1   6   5  333.95   40.23
   1   6   5  317.65   33.42
   1   6   5  264.03   36.03
   1   6   5  312.84   34.63
   1   6   5  283.21   41.11
   1   6   6  507.07   51.61
   1   6   6  434.76   44.86
   1   6   6  454.38   44.15
   1   6   6  501.88   44.07
   1   6   6  532.01   49.39
   1   6   6  452.73   52.77
   1   6   7   20.22   11.06
   1   6   7   31.64   16.22
   1   6   7   43.55   16.13
   1   6   7   39.95   18.06
   1   6   7    3.95   14.16
   1   6   8   42.39   16.38
   1   6   8   59.63   19.40
   1   6   8   61.19   18.63
   1   6   8   43.36   17.89
   1   6   8   73.32   22.53
   1   6   9    0.82    5.43
   1   6   9    1.98    5.49
   1   6  10   18.91   18.03
   1   6  11   25.60   21.57
   1   7 -11    9.49   15.75
   1   7  -9  115.91   23.93
   1   7  -8  151.69   30.32
   1   7  -7    9.71    9.93
   1   7  -7   -8.51   14.16
   1   7  -7    8.92    7.19
   1   7  -6  518.12   55.46
   1   7  -6  467.80   50.00
   1   7  -6  527.34   52.88
   1   7  -5  608.10   61.36
   1   7  -5  648.46   57.54
   1   7  -5  634.14   57.05
   1   7  -4   -5.68   15.70
   1   7  -4  -22.03   17.07
   1   7  -4   -8.48    9.44
   1   7  -3  648.08   62.23
   1   7  -3  668.25   59.90
   1   7  -3  629.15   56.97
   1   7  -2  600.77   60.59
   1   7  -2  616.19   56.36
   1   7  -2  622.51   58.04
   1   7  -2  606.78   50.98
   1   7  -1  188.68   29.66
   1   7  -1  202.18   35.40
   1   7  -1  174.02   30.35
   1   7  -1  146.17   30.95
   1   7  -1  164.53   27.77
   1   7  -1  167.19   27.33
   1   7   0 1327.50   80.21
   1   7   0 1282.08   75.46
   1   7   0 1319.18   70.58
   1   7   0 1344.70   68.79
   1   7   0 1364.16   76.15
   1   7   0 1217.90   84.82
   1   7   0 1430.48   87.04
   1   7   0 1426.91   85.75
   1   7   1  365.06   43.14
   1   7   1  458.91   44.81
   1   7   1  431.19   50.49
   1   7   1  396.34   46.43
   1   7   1  388.66   47.75
   1   7   1  365.97   39.10
   1   7   1  386.69   41.46
   1   7   1  392.12   35.81
   1   7   2    0.85   12.18
   1   7   2   12.46   11.80
   1   7   2    7.05    9.19
   1   7   2    3.24    5.90
   1   7   2    1.10   10.78
   1   7   2    9.91    7.77
   1   7   2    5.90   10.45
   1   7   2    0.69    3.24
   1   7   2    6.06    6.20
   1   7   2  -21.46   15.28
   1   7   3   55.35   17.45
   1   7   3   56.58   15.20
   1   7   3   21.43   17.15
   1   7   3   19.18   10.10
   1   7   3   35.64   16.41
   1   7   3   26.67   11.96
   1   7   3   43.63   15.06
   1   7   3   48.13   17.92
   1   7   3   38.69   18.22
   1   7   3   46.37   11.09
   1   7   4  250.34   28.26
   1   7   4  272.62   42.83
   1   7   4  340.01   43.55
   1   7   4  266.42   39.90
   1   7   4  249.38   34.46
   1   7   4  268.72   30.18
   1   7   4  254.56   27.44
   1   7   4  256.78   39.07
   1   7   5    8.95    7.27
   1   7   5  -21.27   11.74
   1   7   5   -2.99   14.05
   1   7   5   -2.25   12.84
   1   7   5    9.44   11.55
   1   7   5   -1.54    8.29
   1   7   5   21.24   12.21
   1   7   6  398.68   52.08
   1   7   6  364.57   23.19
   1   7   6  322.04   43.55
   1   7   6  380.51   44.92
   1   7   6  334.60   37.76
   1   7   6  315.48   39.38
   1   7   6  353.35   51.51
   1   7   7  273.00   37.43
   1   7   7  214.88   37.89
   1   7   7  218.07   33.26
   1   7   7  207.61   32.24
   1   7   7  193.67   33.45
   1   7   7  237.93   43.11
   1   7   8   27.06   15.67
   1   7   8   17.84   11.36
   1   7   8    0.85    9.55
   1   7   9   18.33   18.00
   1   7   9   -4.09    7.99
   1   7   9   13.88   14.93
   1   7   9  -32.43   16.77
   1   7  10   55.59   22.20
   1   7  10  168.89   41.32
   1   7  11   15.39   19.87
   1   8  -9    9.63   14.19
   1   8  -8   31.94   16.03
   1   8  -7   27.06   17.86
   1   8  -6   14.85   12.21
   1   8  -5  217.35   37.35
   1   8  -4 1019.70   79.25
   1   8  -3  223.28   36.91
   1   8  -2  925.55   75.68
   1   8  -1  553.52   55.32
   1   8  -1  590.57   58.75
   1   8  -1  580.85   49.53
   1   8  -1  594.08   53.32
   1   8  -1  593.31   61.55
   1   8   0  151.28   28.65
   1   8   0  110.69   24.97
   1   8   0  130.07   24.78
   1   8   0  135.75   24.17
   1   8   0  119.09   30.16
   1   8   1  316.71   38.88
   1   8   1  308.70   43.00
   1   8   1  318.14   45.69
   1   8   1  253.85   32.54
   1   8   1  380.15   37.37
   1   8   2   58.91   16.22
   1   8   2   46.62   22.23
   1   8   2  105.07   20.44
   1   8   2   74.69   18.74
   1   8   2   65.66   21.98
   1   8   3   30.62   11.91
   1   8   3   22.03   11.77
   1   8   3   28.59   14.82
   1   8   3    0.11   14.76
   1   8   3   19.51    7.22
   1   8   3   17.70   11.66
   1   8   4  201.71   26.81
   1   8   4  154.27   33.64
   1   8   4  186.84   32.08
   1   8   4  179.95   27.22
   1   8   4  201.60   23.65
   1   8   4  217.41   40.20
   1   8   5  395.88   32.05
   1   8   5  365.83   47.11
   1   8   5  342.81   38.96
   1   8   5  313.28   33.39
   1   8   5  406.80   54.44
   1   8   6  101.97   24.94
   1   8   6   84.87   20.25
   1   8   6  102.90   32.49
   1   8   6  141.97   24.97
   1   8   7   11.17    8.18
   1   8   7    6.17    6.75
   1   8   7   -7.96    8.45
   1   8   7    3.16    7.79
   1   8   8   33.20   20.77
   1   8   8   60.92   20.88
   1   8   8   69.12   26.23
   1   8   9   18.36   19.35
   1   8   9  -20.28   16.52
   1   8   9   29.99   24.42
   1   8  10   29.66   16.22
   1   9  -8   35.75   19.04
   1   9  -7   83.72   26.21
   1   9  -6   87.40   26.29
   1   9  -5   81.28   24.34
   1   9  -4   78.23   23.65
   1   9  -3  430.15   55.81
   1   9  -2    5.05    8.97
   1   9  -1  408.23   51.61
   1   9  -1  361.93   42.18
   1   9   0  482.37   53.32
   1   9   0  483.82   47.97
   1   9   0  478.55   46.59
   1   9   0  546.63   62.01
   1   9   1   48.84   18.25
   1   9   1   29.69   17.84
   1   9   1   34.68   14.46
   1   9   1   76.59   19.43
   1   9   2  160.36   29.17
   1   9   2   95.11   31.47
   1   9   2  153.14   23.93
   1   9   2  172.46   29.83
   1   9   2  170.65   36.17
   1   9   3  191.67   28.37
   1   9   3  186.78   37.76
   1   9   3  185.00   31.86
   1   9   3  150.04   25.55
   1   9   3  176.08   38.66
   1   9   4   14.57    7.93
   1   9   4   22.86   13.31
   1   9   4    9.38    7.08
   1   9   4   25.22   10.87
   1   9   4   -2.33   19.07
   1   9   5   25.99   19.54
   1   9   5   28.48   21.46
   1   9   6   34.66   16.88
   1   9   6   75.10   30.02
   1   9   7   10.95   10.56
   1   9   7   37.40   22.34
   1   9   8   33.64   20.25
   1  10  -8  101.28   31.06
   1  10  -7   35.34   24.26
   1  10  -6   84.16   27.69
   1  10  -5  231.32   43.79
   1  10  -4   63.61   22.64
   1  10  -3   53.26   23.16
   1  10  -2  196.77   40.06
   1  10  -2  157.18   36.19
   1  10  -1    7.85   23.02
   1  10  -1  -18.08   15.28
   1  10   0   33.48   16.57
   1  10   0   20.33   17.59
   1  10   1  135.75   34.79
   1  10   1   86.49   25.66
   1  10   2   34.85   19.15
   1  10   2   51.01   18.22
   1  10   3   64.43   23.08
   1  10   3  114.75   34.22
   1  10   4  381.14   57.90
   1  10   4  281.84   53.84
   1  10   5  119.64   34.57
   1  10   5  165.27   41.08
   1  10   6   17.53   14.85
   1  10   7   -2.00   10.98
   1  10   8   -8.53    8.75
   1  11  -4  216.91   51.51
   1  11  -3   16.05   12.95
   1  11  -2   63.58   21.87
   1  11  -1  111.46   29.14
   1  11   0   11.22   14.41
   1  11   1   -9.27   10.43
   1  11   2  115.44   33.48
   1  12  -2   45.91   23.46
   2 -11   0   28.43   19.54
   2 -11   1   22.61   22.42
   2 -11   2  153.97   38.25
   2 -11   3   97.41   34.55
   2 -11   4   30.60   21.76
   2 -10  -4   15.67   23.46
   2 -10  -3   81.28   33.97
   2 -10  -2   21.71   21.32
   2 -10  -1   28.84   22.83
   2 -10   0  154.10   39.05
   2 -10   0  102.54   27.93
   2 -10   1  187.94   40.94
   2 -10   1  270.37   44.43
   2 -10   2   30.35   24.23
   2 -10   2   28.13   23.19
   2 -10   3  178.74   38.83
   2 -10   3   97.28   30.73
   2 -10   4  167.91   41.79
   2 -10   4  107.48   30.16
   2 -10   5   27.80   17.45
   2 -10   5   17.29   21.43
   2 -10   6  173.31   49.45
   2 -10   6  208.05   46.07
   2  -9  -6   10.84   10.92
   2  -9  -5   65.17   27.74
   2  -9  -4  119.61   31.80
   2  -9  -3  -10.13   12.95
   2  -9  -2  207.15   42.83
   2  -9  -1  312.98   53.10
   2  -9  -1  286.15   40.67
   2  -9   0    4.06   14.52
   2  -9   0   24.81   17.20
   2  -9   1   80.43   29.50
   2  -9   1  139.72   30.76
   2  -9   2  110.64   34.30
   2  -9   2  104.63   25.60
   2  -9   3   60.59   21.98
   2  -9   3   56.72   21.62
   2  -9   4  123.51   34.03
   2  -9   4  139.64   31.97
   2  -9   5  245.42   44.45
   2  -9   5  236.95   39.68
   2  -9   6   76.28   27.44
   2  -9   6   92.01   26.40
   2  -9   7   72.58   24.86
   2  -9   7   56.44   20.28
   2  -9   8  170.49   39.54
   2  -9   8  230.36   43.22
   2  -8  -6   67.28   29.28
   2  -8  -5    7.96   13.25
   2  -8  -4    3.02   17.51
   2  -8  -3   78.89   25.66
   2  -8  -2   45.96   23.52
   2  -8  -1  338.50   50.49
   2  -8  -1  276.38   38.61
   2  -8   0 1042.09   85.04
   2  -8   0  884.31   65.09
   2  -8   0 1008.72   78.18
   2  -8   1    9.55   17.37
   2  -8   1  -14.57   19.95
   2  -8   1  -12.90   15.42
   2  -8   2  558.02   62.21
   2  -8   2  613.59   55.13
   2  -8   2  616.08   65.01
   2  -8   3  190.63   39.02
   2  -8   3  220.62   35.75
   2  -8   4    7.85   17.51
   2  -8   4    0.27    7.66
   2  -8   5   29.77   17.64
   2  -8   5   16.22   15.23
   2  -8   6   59.74   24.78
   2  -8   6  132.56   27.91
   2  -8   7   73.27   21.98
   2  -8   7  108.25   26.78
   2  -8   8    7.08    9.63
   2  -8   8   32.54   17.15
   2  -8   8   51.12   20.06
   2  -8   9  187.77   38.72
   2  -8   9  198.58   38.66
   2  -7  -8   35.56   23.65
   2  -7  -7    1.73   16.13
   2  -7  -7    9.99   12.62
   2  -7  -6  140.55   27.91
   2  -7  -6   85.39   25.93
   2  -7  -5  110.12   29.55
   2  -7  -4   17.70   10.67
   2  -7  -4   11.06    9.71
   2  -7  -3  101.09   28.76
   2  -7  -2  716.63   65.53
   2  -7  -1  623.99   60.40
   2  -7  -1  720.82   55.32
   2  -7   0   32.76   19.95
   2  -7   0   29.58   18.58
   2  -7   0   40.47   15.39
   2  -7   1  346.79   47.14
   2  -7   1  287.46   34.85
   2  -7   1  312.52   44.01
   2  -7   2   53.04   21.10
   2  -7   2   75.49   25.63
   2  -7   2   47.31   15.64
   2  -7   3 1562.30   95.74
   2  -7   3 1636.64   84.54
   2  -7   3 1503.47   99.47
   2  -7   4 1050.57   77.96
   2  -7   4 1126.83   72.00
   2  -7   4 1197.98   92.88
   2  -7   5  286.20   43.30
   2  -7   5  300.91   40.97
   2  -7   6   14.68   16.49
   2  -7   6   -4.53   11.72
   2  -7   7   85.78   23.96
   2  -7   7   54.06   17.86
   2  -7   7   85.15   22.75
   2  -7   8   -1.62   13.42
   2  -7   8   -0.08    5.82
   2  -7   8    6.20   10.04
   2  -7   9    0.19   15.23
   2  -7   9    1.92    8.29
   2  -7   9   -1.29   14.38
   2  -7  10  154.30   36.58
   2  -7  10   58.69   24.61
   2  -7  11   71.70   27.71
   2  -6 -10    8.34   16.68
   2  -6  -9  -39.93   24.48
   2  -6  -9   15.92   22.06
   2  -6  -8  105.51   28.21
   2  -6  -7  211.84   32.65
   2  -6  -7  240.70   38.72
   2  -6  -6   37.84   15.61
   2  -6  -6   21.81   15.67
   2  -6  -5   33.92   17.81
   2  -6  -4  105.48   24.20
   2  -6  -4  135.25   22.03
   2  -6  -3  185.82   33.94
   2  -6  -3  191.75   32.24
   2  -6  -3  184.70   21.38
   2  -6  -2  464.26   49.06
   2  -6  -2  358.26   43.05
   2  -6  -1 1537.93   87.62
   2  -6  -1 1612.60   90.80
   2  -6  -1 1429.96   70.66
   2  -6  -1 1363.94   80.43
   2  -6   0  248.03   36.55
   2  -6   0  256.45   36.44
   2  -6   0  206.27   32.93
   2  -6   0  207.45   27.66
   2  -6   1  187.80   31.75
   2  -6   1  154.52   29.61
   2  -6   1  116.54   25.63
   2  -6   1  142.25   22.53
   2  -6   2  239.91   35.59
   2  -6   2  248.85   35.32
   2  -6   2  282.33   32.08
   2  -6   2  205.55   35.75
   2  -6   3  343.93   41.63
   2  -6   3  336.99   41.13
   2  -6   3  375.46   49.89
   2  -6   3  304.04   34.74
   2  -6   4  100.92   23.38
   2  -6   4  165.57   29.58
   2  -6   4  121.18   30.84
   2  -6   4  100.73   20.85
   2  -6   5 1491.67   86.05
   2  -6   5 1340.53   82.02
   2  -6   5 1501.41   81.66
   2  -6   5 1389.70  100.57
   2  -6   6  122.52   27.17
   2  -6   6  170.35   29.11
   2  -6   6  105.12   23.68
   2  -6   7  137.61   26.59
   2  -6   7  164.89   29.96
   2  -6   7  150.59   27.00
   2  -6   8  235.22   36.03
   2  -6   8  233.79   40.39
   2  -6   8  207.78   33.07
   2  -6   9   93.46   25.74
   2  -6   9   94.59   27.30
   2  -6   9  148.37   31.01
   2  -6  10   12.43   14.27
   2  -6  10  -11.61   16.90
   2  -6  11   42.31   28.29
   2  -6  12   54.63   25.27
   2  -5 -11   32.02   24.83
   2  -5 -10   55.98   26.37
   2  -5 -10   24.28   20.28
   2  -5  -9   37.29   20.61
   2  -5  -9   82.43   26.45
   2  -5  -8   38.20   18.55
   2  -5  -8  -12.29   17.75
   2  -5  -8   14.19   14.24
   2  -5  -7   83.64   29.55
   2  -5  -7   41.82   20.91
   2  -5  -7   52.38   16.71
   2  -5  -6  106.58   30.13
   2  -5  -6   66.54   18.71
   2  -5  -6   79.91   20.44
   2  -5  -5  184.34   28.89
   2  -5  -4   74.77   21.68
   2  -5  -4   62.84   16.71
   2  -5  -4   87.31   20.20
   2  -5  -3 2306.45   97.63
   2  -5  -3 2175.59   96.81
   2  -5  -3 2195.67   71.18
   2  -5  -2  782.29   57.49
   2  -5  -2  794.97   59.24
   2  -5  -2  671.87   31.34
   2  -5  -1  438.57   44.70
   2  -5  -1  408.20   41.65
   2  -5  -1  463.49   36.30
   2  -5   0  761.30   55.98
   2  -5   0  798.78   57.71
   2  -5   0  813.54   46.26
   2  -5   1   10.40   14.05
   2  -5   1   10.24    9.16
   2  -5   1    8.09    7.24
   2  -5   2  203.96   29.88
   2  -5   2  208.63   30.43
   2  -5   2  200.97   33.28
   2  -5   2  218.62   25.46
   2  -5   3 1047.63   65.33
   2  -5   3 1000.63   64.68
   2  -5   3 1097.80   57.54
   2  -5   3  980.54   74.01
   2  -5   4  687.90   53.89
   2  -5   4  670.39   53.43
   2  -5   4  696.18   49.01
   2  -5   4  706.99   66.87
   2  -5   5   40.86   15.61
   2  -5   5   40.09   15.09
   2  -5   5   33.48   19.04
   2  -5   5   44.04   16.27
   2  -5   6  566.17   48.40
   2  -5   6  538.15   48.24
   2  -5   6  571.58   68.71
   2  -5   6  522.21   47.22
   2  -5   6  498.59   44.78
   2  -5   7  523.58   46.26
   2  -5   7  550.61   50.74
   2  -5   8    6.64   11.42
   2  -5   8   -2.80   15.94
   2  -5   9  383.56   40.75
   2  -5   9  357.05   46.54
   2  -5  10  146.56   25.68
   2  -5  10   95.82   28.95
   2  -5  11   20.50   20.77
   2  -5  12  137.47   37.10
   2  -4 -11   48.18   23.93
   2  -4 -11    3.51   18.19
   2  -4 -10   13.58   15.28
   2  -4 -10  -24.53   22.64
   2  -4  -9  205.77   43.00
   2  -4  -9  168.18   43.25
   2  -4  -8  103.28   31.97
   2  -4  -8  145.32   36.39
   2  -4  -8   97.33   18.85
   2  -4  -7   70.58   22.42
   2  -4  -7   46.07   24.75
   2  -4  -7   52.36   15.34
   2  -4  -6   25.96   17.26
   2  -4  -6   52.30   15.26
   2  -4  -6   27.03   17.89
   2  -4  -5  524.68   42.61
   2  -4  -5  573.61   45.55
   2  -4  -5  453.78   50.65
   2  -4  -5  495.68   54.25
   2  -4  -4 1312.38   67.53
   2  -4  -4 1334.25   68.02
   2  -4  -4 1243.26   64.02
   2  -4  -3    1.23   10.37
   2  -4  -3    2.77    8.70
   2  -4  -3    7.90   10.40
   2  -4  -2 2257.66   88.88
   2  -4  -2 2247.62   87.40
   2  -4  -2 2262.76   58.67
   2  -4  -1  106.60   21.21
   2  -4  -1   98.76   22.42
   2  -4  -1  112.94   22.75
   2  -4  -1  129.00   18.06
   2  -4   0 1385.09   69.81
   2  -4   0 1415.66   69.42
   2  -4   0 1349.12   70.30
   2  -4   0 1374.50   52.22
   2  -4   1 2926.21  100.10
   2  -4   1 3177.81  102.41
   2  -4   1 3232.63   81.14
   2  -4   1 2977.85  106.71
   2  -4   2  979.94   57.76
   2  -4   2 1049.17   59.41
   2  -4   2 1023.60   47.06
   2  -4   3   -6.56    6.56
   2  -4   3    9.11    7.77
   2  -4   3    3.46    5.35
   2  -4   4  349.81   34.90
   2  -4   4  349.45   34.88
   2  -4   4  342.92   32.38
   2  -4   4  317.54   42.70
   2  -4   4  322.31   30.79
   2  -4   5  121.15   22.28
   2  -4   5  136.76   22.12
   2  -4   5  138.49   32.43
   2  -4   6    0.05    8.92
   2  -4   6   -1.84    5.27
   2  -4   6   -0.47   15.50
   2  -4   6  -12.54   16.08
   2  -4   7  163.13   23.76
   2  -4   7  164.09   24.48
   2  -4   7  154.49   38.47
   2  -4   7  144.77   27.80
   2  -4   8 1297.86   65.94
   2  -4   8 1110.94   75.73
   2  -4   9   39.10   13.39
   2  -4   9   59.57   24.34
   2  -4  10  494.74   38.94
   2  -4  10  582.77   65.14
   2  -4  11   93.68   33.70
   2  -4  12   -1.18   15.89
   2  -3 -11   37.87   20.80
   2  -3 -11   66.30   30.43
   2  -3 -10   83.53   26.64
   2  -3 -10   25.82   28.73
   2  -3  -9   37.32   10.02
   2  -3  -9   94.20   27.77
   2  -3  -8   18.22    7.93
   2  -3  -8    3.59    6.59
   2  -3  -8    3.84   10.76
   2  -3  -8   -2.69    3.21
   2  -3  -7  118.51   17.73
   2  -3  -7  129.46   12.07
   2  -3  -7  111.24   29.55
   2  -3  -7  102.27   10.56
   2  -3  -6   25.46   10.21
   2  -3  -6   48.49   14.10
   2  -3  -6   22.45   12.54
   2  -3  -6   20.31   11.85
   2  -3  -5   76.31   17.40
   2  -3  -5   65.94   16.00
   2  -3  -5   55.29   20.96
   2  -3  -5   43.99   18.41
   2  -3  -4 2433.69   82.62
   2  -3  -4 2594.57   83.88
   2  -3  -4 2575.61  105.64
   2  -3  -4 2527.40  107.48
   2  -3  -3 2908.18   89.95
   2  -3  -3 3055.32   90.22
   2  -3  -3 2883.76  107.13
   2  -3  -2   52.36   13.47
   2  -3  -2   57.62   14.21
   2  -3  -1  230.77   25.63
   2  -3  -1  225.48   25.14
   2  -3  -1  216.94   13.75
   2  -3  -1  189.50   25.63
   2  -3   0  708.42   44.29
   2  -3   0  800.51   46.68
   2  -3   0  726.34   31.69
   2  -3   0  739.62   47.61
   2  -3   1  521.69   37.84
   2  -3   1  621.00   41.19
   2  -3   1  477.38   41.22
   2  -3   1  581.35   29.22
   2  -3   2 3894.73  102.13
   2  -3   2 3899.04  101.78
   2  -3   2 4049.44   80.87
   2  -3   3 1919.38   71.92
   2  -3   3 2033.23   73.21
   2  -3   3 1903.41   66.90
   2  -3   4  220.65   25.08
   2  -3   4  208.22   24.45
   2  -3   4  145.73   21.87
   2  -3   5  304.48   29.61
   2  -3   5  313.78   29.75
   2  -3   6  827.35   47.47
   2  -3   6  825.84   47.47
   2  -3   6  876.35   58.06
   2  -3   7  299.10   29.53
   2  -3   7  305.55   29.83
   2  -3   7  279.37   45.55
   2  -3   7  264.93   36.93
   2  -3   8  272.62   27.47
   2  -3   8  237.00   25.88
   2  -3   8  234.37   37.59
   2  -3   9  330.98   29.33
   2  -3   9  320.01   44.86
   2  -3  10   14.95   19.92
   2  -3  11  113.44   32.10
   2  -3  12  176.08   43.00
   2  -2 -12   32.93   21.62
   2  -2 -11   11.22   12.18
   2  -2 -10   67.42   17.67
   2  -2 -10   83.64   26.89
   2  -2  -9  122.68   21.87
   2  -2  -9  100.90   19.59
   2  -2  -9  124.28   30.13
   2  -2  -8  151.41   15.48
   2  -2  -8  116.10   26.64
   2  -2  -8  123.95   19.51
   2  -2  -7  158.47   17.84
   2  -2  -7  182.67   21.13
   2  -2  -7  159.78   29.64
   2  -2  -7  183.16   34.14
   2  -2  -6  923.44   43.00
   2  -2  -6  856.73   41.82
   2  -2  -6  870.32   40.53
   2  -2  -6  818.02   63.19
   2  -2  -6  785.77   64.21
   2  -2  -5 2037.84   65.17
   2  -2  -5 2145.07   66.05
   2  -2  -5 2053.70   54.80
   2  -2  -5 2098.70   93.38
   2  -2  -5 2184.45   99.66
   2  -2  -4  569.05   35.32
   2  -2  -4  612.68   35.78
   2  -2  -4  572.84   25.74
   2  -2  -4  631.51   48.93
   2  -2  -4  618.58   49.61
   2  -2  -3  816.95   42.04
   2  -2  -3  891.42   43.71
   2  -2  -3  898.36   29.22
   2  -2  -3  909.39   54.30
   2  -2  -3  854.10   53.45
   2  -2  -2  243.89   23.30
   2  -2  -2  235.05   23.02
   2  -2  -2  226.02   15.28
   2  -2  -2  214.77   25.16
   2  -2  -1   80.51   10.65
   2  -2  -1   91.29   14.49
   2  -2  -1   81.00   14.93
   2  -2   0 1637.93   59.60
   2  -2   0 1729.63   61.05
   2  -2   0 1643.00   36.22
   2  -2   1 5459.29  108.17
   2  -2   1 5600.35   71.23
   2  -2   2  312.57   26.23
   2  -2   2  366.96   28.43
   2  -2   3  425.76   30.43
   2  -2   3  465.22   31.91
   2  -2   3  458.28   32.32
   2  -2   4  562.71   34.88
   2  -2   4  676.97   38.03
   2  -2   4  579.59   39.57
   2  -2   5  236.15   23.35
   2  -2   5  214.09   22.20
   2  -2   6 1191.45   49.86
   2  -2   6 1345.85   52.27
   2  -2   6 1201.19   68.13
   2  -2   7 2041.02   64.21
   2  -2   7 2126.17   65.03
   2  -2   7 2044.81  116.18
   2  -2   7 1909.80   91.59
   2  -2   8   54.30   12.18
   2  -2   8   55.79   11.85
   2  -2   8   23.10   22.75
   2  -2   8   63.41   24.48
   2  -2   9  301.62   22.67
   2  -2   9  324.07   44.95
   2  -2  10  144.91   34.96
   2  -2  11   11.20   20.99
   2  -2  12   14.19   28.40
   2  -2  13  105.97   35.73
   2  -1 -12   22.80   17.23
   2  -1 -11  183.85   38.72
   2  -1 -10   25.55   19.35
   2  -1  -9   60.51   22.31
   2  -1  -8   12.65   11.63
   2  -1  -7  395.71   21.21
   2  -1  -7  413.00   21.90
   2  -1  -7  373.90   43.25
   2  -1  -6   31.97    7.08
   2  -1  -6   29.09    7.93
   2  -1  -6   29.39   14.27
   2  -1  -6   21.62   14.16
   2  -1  -5 2406.69   61.41
   2  -1  -5 2523.03   62.56
   2  -1  -5 2566.83   75.49
   2  -1  -5 2489.89   94.04
   2  -1  -5 2567.49  101.31
   2  -1  -4 3935.21   80.67
   2  -1  -4 4218.14   82.73
   2  -1  -4 4164.85   86.74
   2  -1  -4 4103.97  110.06
   2  -1  -4 3845.62  114.51
   2  -1  -3   96.07   13.61
   2  -1  -3  104.99   14.32
   2  -1  -3   98.76   16.93
   2  -1  -3   67.67   11.47
   2  -1  -3   82.87   15.67
   2  -1  -2 2688.33   67.39
   2  -1  -2 2894.57   68.33
   2  -1  -2 2741.13   60.56
   2  -1  -2 2920.67   77.63
   2  -1  -2 2722.69   78.26
   2  -1  -1  820.18   36.82
   2  -1  -1  852.29   37.26
   2  -1  -1  802.21   34.16
   2  -1  -1  790.47   37.70
   2  -1   0   69.07   12.59
   2  -1   0   90.55   13.12
   2  -1   0   77.27   13.28
   2  -1   1 1080.26   45.66
   2  -1   1 1011.14   30.02
   2  -1   1 1006.09   40.58
   2  -1   1  990.09   40.69
   2  -1   2   20.85    8.92
   2  -1   2   25.38    8.18
   2  -1   2   18.17    8.12
   2  -1   2   18.44    7.02
   2  -1   3  829.07   37.73
   2  -1   3  818.92   37.26
   2  -1   3  800.76   49.31
   2  -1   3  785.61   40.75
   2  -1   4  395.69   26.12
   2  -1   4  444.53   27.22
   2  -1   5 4464.25   86.38
   2  -1   5 4655.98   87.15
   2  -1   6 1760.23   53.54
   2  -1   6 1870.86   55.04
   2  -1   7  625.66   30.98
   2  -1   7  599.57   29.99
   2  -1   7  685.76   65.17
   2  -1   7  599.46   52.68
   2  -1   8  892.38   34.22
   2  -1   8  888.78   34.08
   2  -1   8  870.59   67.75
   2  -1   9   -0.44    2.94
   2  -1   9  -25.46   22.01
   2  -1  10   91.81   34.60
   2  -1  11  108.06   33.86
   2  -1  12  106.19   33.07
   2  -1  13   34.16   24.53
   2   0 -13   44.10   27.22
   2   0 -12  -29.72   17.42
   2   0 -11   11.03    9.88
   2   0 -10   74.72   23.08
   2   0  -9  290.23   41.98
   2   0  -8  155.67   28.59
   2   0  -7  346.43   15.75
   2   0  -7  335.78   15.01
   2   0  -7  360.78   39.87
   2   0  -7  370.28   44.73
   2   0  -6  961.86   32.49
   2   0  -6  915.40   31.64
   2   0  -6  951.37   59.02
   2   0  -6  931.26   64.05
   2   0  -5  174.77   15.78
   2   0  -5  117.36   12.73
   2   0  -5  130.53   20.85
   2   0  -5  165.33   27.17
   2   0  -4  830.45   45.28
   2   0  -4  734.35   47.75
   2   0  -3 1935.60   62.48
   2   0  -3 1902.59   60.67
   2   0  -3 1847.65   66.54
   2   0  -2  439.97   28.32
   2   0  -2  454.19   25.33
   2   0  -2  447.77   28.59
   2   0  -1 9447.81  122.08
   2   0  -1 9115.79  105.18
   2   0   0 5555.00   97.99
   2   0   0 5831.24   95.35
   2   0   1  156.79   18.63
   2   0   1  139.48   14.13
   2   0   1  148.29   17.51
   2   0   2   13.77   10.87
   2   0   2    7.02    6.59
   2   0   2   11.61   10.95
   2   0   3   63.63   16.13
   2   0   3   49.58   12.38
   2   0   3   54.03   13.83
   2   0   4  927.45   54.52
   2   0   5  103.50   22.75
   2   0   6 4371.18   74.83
   2   0   6 4184.09   74.50
   2   0   6 4170.95  142.17
   2   0   7  283.95   18.55
   2   0   7  331.67   19.98
   2   0   7  270.64   39.93
   2   0   8  393.55   18.99
   2   0   8  382.16   18.41
   2   0   8  399.36   52.60
   2   0   8  388.99   47.39
   2   0   9  502.87   63.28
   2   0   9  392.72   51.42
   2   0  10  280.74   47.06
   2   0  11   -4.09   23.38
   2   0  12  100.95   36.39
   2   0  13  -31.36   26.81
   2   1 -13  -32.46   18.55
   2   1 -12   24.92   19.67
   2   1 -11  100.98   28.29
   2   1 -10   69.81   21.76
   2   1  -9   74.55   24.50
   2   1  -8  406.31   44.43
   2   1  -7   16.08    4.69
   2   1  -7   10.13    3.43
   2   1  -7    5.10    2.41
   2   1  -7    8.78    8.84
   2   1  -6 1142.44   60.75
   2   1  -6 1230.82   73.13
   2   1  -5 1263.97   57.65
   2   1  -5 1257.94   66.98
   2   1  -4  493.81   31.94
   2   1  -3  188.10   17.48
   2   1  -2 3889.11   92.58
   2   1  -2 3911.42   60.34
   2   1  -1  853.80   41.79
   2   1   0  432.21   29.22
   2   1   0  406.20   18.60
   2   1   1  890.29   42.86
   2   1   1  980.41   39.62
   2   1   1  998.96   32.71
   2   1   1  935.65   30.43
   2   1   2   40.04   11.03
   2   1   2   31.94   10.73
   2   1   2   26.56    9.82
   2   1   2   33.39   10.26
   2   1   3  630.44   39.90
   2   1   3  601.07   38.88
   2   1   3  595.09   35.23
   2   1   3  658.70   36.66
   2   1   4 8996.17  155.26
   2   1   4 8783.16  161.43
   2   1   4 8700.62  154.54
   2   1   4 9058.19  149.80
   2   1   5 1986.50   84.02
   2   1   6    2.09    7.13
   2   1   7   74.01   23.65
   2   1   7   94.53   24.23
   2   1   8   50.79   17.73
   2   1   8   36.91   18.91
   2   1   9   77.52   23.27
   2   1   9   14.60   19.35
   2   1  10  518.92   60.72
   2   1  11   81.00   26.84
   2   1  12   -2.17   15.42
   2   2 -13   75.35   26.62
   2   2 -12    1.34    8.37
   2   2 -11    9.63   14.27
   2   2 -10  197.29   34.93
   2   2  -9  113.57   23.82
   2   2  -8  491.18   47.55
   2   2  -8  519.36   22.06
   2   2  -8  503.39   21.38
   2   2  -7 1250.11   68.49
   2   2  -7 1331.15   42.78
   2   2  -6  236.51   27.80
   2   2  -6  185.63   17.81
   2   2  -5  245.70   25.46
   2   2  -4 2411.82   66.98
   2   2  -3   11.72    4.99
   2   2  -2 1237.03   58.42
   2   2  -1  740.28   43.30
   2   2  -1  721.13   32.46
   2   2   0  509.81   34.57
   2   2   0  572.07   17.97
   2   2   0  493.15   26.42
   2   2   1 2484.29   74.14
   2   2   1 2512.28   50.79
   2   2   1 2507.56   70.63
   2   2   1 2355.92   59.08
   2   2   2 2349.75   73.84
   2   2   2 2173.12   57.68
   2   2   2 2120.08   69.26
   2   2   2 2157.20   42.70
   2   2   2 1941.77   59.44
   2   2   2 2224.95   52.44
   2   2   2 2147.65   54.52
   2   2   3 3115.08   80.13
   2   2   3 3306.36   90.99
   2   2   3 3195.40   92.88
   2   2   3 3064.95   68.98
   2   2   3 3295.66   78.78
   2   2   3 3369.07   75.71
   2   2   4 1209.67   57.05
   2   2   4 1137.34   55.13
   2   2   4 1274.21   64.40
   2   2   4 1188.76   53.56
   2   2   4 1282.63   57.10
   2   2   4 1358.97   55.40
   2   2   5 4968.05  120.21
   2   2   5 5190.02  127.84
   2   2   6  812.28   58.89
   2   2   6  749.14   54.36
   2   2   7   12.81    6.67
   2   2   7   28.89   11.91
   2   2   7   10.13   13.69
   2   2   8  133.44   14.05
   2   2   8  141.29   30.84
   2   2   8  124.00   27.93
   2   2   9  230.63   15.23
   2   2   9  222.37   15.64
   2   2   9  298.71   45.96
   2   2   9  224.84   41.76
   2   2  10  -18.93   15.09
   2   2  11  177.43   41.02
   2   2  12   51.97   23.63
   2   3 -13   16.30   23.43
   2   3 -12  127.60   30.35
   2   3 -11  121.37   28.15
   2   3 -10  -19.10   19.18
   2   3  -9  124.44   12.68
   2   3  -9  136.93   12.38
   2   3  -9  116.48   24.23
   2   3  -8   89.32   13.06
   2   3  -8   84.90   13.61
   2   3  -8   64.48   19.70
   2   3  -7   56.77   10.84
   2   3  -7   57.82   12.35
   2   3  -7   53.62   17.62
   2   3  -6 1594.05   59.19
   2   3  -6 1694.95   73.07
   2   3  -5  713.50   40.58
   2   3  -4 1230.33   53.56
   2   3  -2  341.88   31.01
   2   3  -1   -0.19    8.01
   2   3  -1    3.98    7.46
   2   3  -1    5.16    6.91
   2   3   0  358.83   32.24
   2   3   0  370.96   32.35
   2   3   0  371.54   21.60
   2   3   0  377.58   26.78
   2   3   1  728.73   43.44
   2   3   1  672.17   43.71
   2   3   1  718.16   33.81
   2   3   1  758.61   43.08
   2   3   1  703.45   37.46
   2   3   2   90.20   13.75
   2   3   2   81.77   14.98
   2   3   2   53.29   13.58
   2   3   2   94.39   17.59
   2   3   2   78.15   11.17
   2   3   2   79.82   14.19
   2   3   3 4368.60  104.66
   2   3   3 4620.88  110.56
   2   3   3 4309.63  114.32
   2   3   3 4430.89   72.47
   2   3   3 4554.37   92.28
   2   3   3 4625.27  101.91
   2   3   4 3085.17   96.37
   2   3   4 3060.94   92.25
   2   3   4 2956.72  102.43
   2   3   4 3002.08   78.84
   2   3   4 3173.94   88.71
   2   3   4 3144.17   92.58
   2   3   5   97.14   18.41
   2   3   5  135.86   23.41
   2   3   5  113.93   21.10
   2   3   5   82.87   18.33
   2   3   5   94.64   18.22
   2   3   6  763.49   49.01
   2   3   6  728.67   41.46
   2   3   6  750.73   53.97
   2   3   6  683.97   52.49
   2   3   6  769.36   54.14
   2   3   7  933.92   68.00
   2   3   7  754.55   41.57
   2   3   7  882.77   67.09
   2   3   7  811.95   62.84
   2   3   8    5.49    3.70
   2   3   8   -6.37    4.97
   2   3   8    4.36    5.32
   2   3   8   -6.72   15.67
   2   3   9  228.80   20.83
   2   3   9  264.19   22.97
   2   3   9  235.52   42.31
   2   3   9  243.59   42.72
   2   3  10   42.42    7.19
   2   3  10   28.87    6.34
   2   3  11   12.76   12.40
   2   3  12   24.89   30.32
   2   4 -12  -24.86   20.11
   2   4 -11  113.05   28.46
   2   4 -10   40.47   16.52
   2   4  -9   79.49   22.86
   2   4  -9   61.36   11.63
   2   4  -8  349.67   39.98
   2   4  -8  275.28   27.28
   2   4  -8  344.95   29.55
   2   4  -7  518.37   44.40
   2   4  -7  476.88   36.03
   2   4  -7  529.59   38.80
   2   4  -6    2.85    7.63
   2   4  -5 1026.81   54.80
   2   4  -4  754.57   51.18
   2   4  -4  681.28   45.30
   2   4  -3  645.97   47.47
   2   4  -3  680.05   45.03
   2   4  -2 1015.69   59.30
   2   4  -2  969.24   54.00
   2   4  -1 1244.98   65.64
   2   4  -1 1246.99   66.62
   2   4   0   24.48   11.94
   2   4   0   27.74    8.20
   2   4   0    9.33   12.32
   2   4   1 2480.69   86.71
   2   4   1 2260.87   71.45
   2   4   1 2316.05   90.22
   2   4   1 2395.88   83.31
   2   4   2 2652.06   87.09
   2   4   2 2443.70   79.55
   2   4   2 2350.60   91.54
   2   4   2 2542.10   88.91
   2   4   2 2573.82   82.84
   2   4   2 2486.95   55.65
   2   4   3   36.39   11.52
   2   4   3   32.21   14.16
   2   4   3   16.82    8.67
   2   4   3   27.19   10.51
   2   4   3   48.21   14.21
   2   4   3   32.16    6.15
   2   4   3   39.82   10.02
   2   4   3   27.91    9.85
   2   4   4  155.83   22.09
   2   4   4  163.73   24.67
   2   4   4  156.24   24.59
   2   4   4  157.31   21.32
   2   4   4  158.99   25.52
   2   4   4  151.36   20.88
   2   4   4  162.53   24.81
   2   4   5  562.82   48.40
   2   4   5  538.73   41.08
   2   4   5  467.94   41.41
   2   4   5  436.82   36.50
   2   4   5  517.00   48.18
   2   4   5  453.80   39.07
   2   4   5  523.78   45.11
   2   4   6   -0.16    5.21
   2   4   6   -6.39    5.71
   2   4   6    3.62    8.34
   2   4   6    9.80    8.37
   2   4   6   -5.35   12.05
   2   4   7  784.18   48.13
   2   4   7  946.71   72.25
   2   4   7  839.56   64.57
   2   4   7  884.39   66.76
   2   4   8  638.42   42.09
   2   4   8  656.75   44.37
   2   4   9   13.75    8.07
   2   4   9   -9.19    8.70
   2   4   9    5.63    9.55
   2   4   9   21.29   20.14
   2   4  10   41.74    9.69
   2   4  10   80.81   26.75
   2   4  11   47.94   23.08
   2   4  12   21.87   22.58
   2   5 -11    6.53   12.13
   2   5 -10  173.28   32.05
   2   5  -9   80.32   22.20
   2   5  -8   32.10   12.49
   2   5  -7  590.24   45.88
   2   5  -7  528.47   43.03
   2   5  -6  295.78   32.79
   2   5  -6  339.60   35.43
   2   5  -5  180.78   28.89
   2   5  -5  191.48   26.51
   2   5  -4  624.54   51.86
   2   5  -4  678.35   49.72
   2   5  -3  877.09   62.18
   2   5  -3  883.74   56.72
   2   5  -2 1031.14   66.38
   2   5  -2 1070.99   62.70
   2   5  -1   42.04   14.85
   2   5  -1   25.00   10.04
   2   5  -1   26.15   14.74
   2   5   0 1383.97   61.66
   2   5   0 1378.18   77.02
   2   5   0 1354.77   71.87
   2   5   1   26.32   12.81
   2   5   1   36.74   11.00
   2   5   1   18.41   13.77
   2   5   1   36.71   13.17
   2   5   2 3516.72  108.20
   2   5   2 3769.33  112.34
   2   5   2 4113.49  133.19
   2   5   2 4119.08  122.71
   2   5   2 3867.29  117.75
   2   5   2 3851.27  115.71
   2   5   2 3818.53   64.07
   2   5   3 2128.94   96.15
   2   5   3 2110.22   88.47
   2   5   3 2135.36   83.50
   2   5   3 2212.16   90.31
   2   5   3 2172.49   92.09
   2   5   3 2214.30   43.85
   2   5   3 2272.31   64.26
   2   5   3 2204.56   90.52
   2   5   4   47.97   14.21
   2   5   4   53.67   14.60
   2   5   4   34.03   15.39
   2   5   4   52.03   14.90
   2   5   4   45.44   16.93
   2   5   4   36.71    8.45
   2   5   4   43.38   12.24
   2   5   4   29.80   13.34
   2   5   5  110.09   24.12
   2   5   5  129.02   20.44
   2   5   5  138.33   27.30
   2   5   5  119.58   23.08
   2   5   5  119.89   26.34
   2   5   5   95.79   20.20
   2   5   5   98.18   19.32
   2   5   5  141.95   25.24
   2   5   6  487.28   47.42
   2   5   6  516.39   40.56
   2   5   6  519.19   53.10
   2   5   6  425.51   40.45
   2   5   6  504.18   50.54
   2   5   6  465.58   44.37
   2   5   6  464.12   49.20
   2   5   7  100.38   19.24
   2   5   7  106.36   20.63
   2   5   7  125.07   20.03
   2   5   7   84.46   22.83
   2   5   7   88.69   25.90
   2   5   8  207.89   27.52
   2   5   8  206.95   28.13
   2   5   8  224.10   37.46
   2   5   8  198.72   34.66
   2   5   9   19.67   10.56
   2   5   9   31.72   10.07
   2   5  10   11.09    5.79
   2   5  10  -13.25   13.69
   2   5  10   -5.82    8.37
   2   5  11   46.84   20.66
   2   5  12  165.90   39.29
   2   6 -10   16.60   13.42
   2   6  -9  292.57   33.56
   2   6  -9  358.18   44.70
   2   6  -8  532.01   47.33
   2   6  -8  555.33   47.97
   2   6  -7    7.90    7.74
   2   6  -7    7.38    9.14
   2   6  -6  754.52   57.98
   2   6  -6  810.77   61.05
   2   6  -6  770.35   63.74
   2   6  -5  125.62   27.22
   2   6  -5  127.08   24.28
   2   6  -5  101.34   23.54
   2   6  -4   38.99   15.42
   2   6  -4   39.60   14.32
   2   6  -4   31.50   15.06
   2   6  -3  116.18   27.17
   2   6  -3   88.08   20.72
   2   6  -2  500.10   47.61
   2   6  -2  499.16   51.78
   2   6  -2  433.75   41.13
   2   6  -1  726.89   49.64
   2   6  -1  672.03   57.54
   2   6  -1  693.60   59.44
   2   6  -1  737.07   57.51
   2   6   0  545.37   50.22
   2   6   0  453.42   40.23
   2   6   0  527.81   52.90
   2   6   1 2045.55   92.64
   2   6   1 2075.29   87.70
   2   6   1 2135.88  104.52
   2   6   1 2305.57  101.53
   2   6   1 2140.33   90.28
   2   6   1 2022.50   88.58
   2   6   2  221.58   31.61
   2   6   2  243.20   31.72
   2   6   2  249.13   38.06
   2   6   2  236.34   33.34
   2   6   2  245.15   34.05
   2   6   2  246.66   13.88
   2   6   2  234.61   31.23
   2   6   2  255.36   34.74
   2   6   2  259.34   14.85
   2   6   3  324.26   35.37
   2   6   3  330.16   41.93
   2   6   3  347.34   39.87
   2   6   3  383.01   41.74
   2   6   3  361.22   41.82
   2   6   3  406.17   41.63
   2   6   3  364.73   20.22
   2   6   3  294.57   37.59
   2   6   3  353.07   25.03
   2   6   4  796.20   64.84
   2   6   4  773.54   61.03
   2   6   4  699.64   50.16
   2   6   4  755.86   59.02
   2   6   4  798.56   61.66
   2   6   4  782.70   60.59
   2   6   4  748.76   35.70
   2   6   4  782.21   44.04
   2   6   4  658.18   56.42
   2   6   5   60.89   22.34
   2   6   5   78.15   17.31
   2   6   5   34.57   14.87
   2   6   5   42.89   15.26
   2   6   5   40.97   17.48
   2   6   5   40.80   11.52
   2   6   5   33.37   17.51
   2   6   5   23.05   14.32
   2   6   5   38.61   14.16
   2   6   5   19.48   14.90
   2   6   6  613.51   44.51
   2   6   6  588.34   55.98
   2   6   6  721.87   57.32
   2   6   6  768.27   59.49
   2   6   6  698.68   45.00
   2   6   6  653.65   53.29
   2   6   6  654.97   61.63
   2   6   7  282.25   39.57
   2   6   7  280.99   37.10
   2   6   7  241.75   35.29
   2   6   7  266.74   29.17
   2   6   7  216.42   32.27
   2   6   7  179.54   35.56
   2   6   8   12.84    7.85
   2   6   8   18.99   11.17
   2   6   8   18.06   13.14
   2   6   8   -2.50   10.62
   2   6   9    7.22    6.04
   2   6   9   27.11   12.46
   2   6   9   10.40   11.55
   2   6   9   21.05   13.06
   2   6  10   47.86   19.24
   2   6  11   64.29   26.18
   2   6  12  -26.73   32.21
   2   7  -9   58.26   20.28
   2   7  -8  112.97   24.50
   2   7  -7  337.46   48.54
   2   7  -7  492.11   51.12
   2   7  -7  392.37   46.59
   2   7  -6  -13.03   20.53
   2   7  -6   29.91   14.60
   2   7  -6   13.53   12.49
   2   7  -5  614.88   63.11
   2   7  -5  746.01   62.97
   2   7  -5  645.09   59.08
   2   7  -4  494.83   56.80
   2   7  -4  510.66   52.25
   2   7  -4  461.27   50.02
   2   7  -3  212.28   38.03
   2   7  -3  193.84   32.57
   2   7  -3  225.61   37.04
   2   7  -2   47.80   19.87
   2   7  -2   27.99   16.52
   2   7  -2   41.87   14.93
   2   7  -2   19.26   17.31
   2   7  -1  617.37   51.34
   2   7  -1  470.10   51.04
   2   7  -1  556.05   59.63
   2   7  -1  654.64   59.13
   2   7  -1  537.22   53.97
   2   7  -1  659.00   53.56
   2   7   0   50.82   15.59
   2   7   0   41.60   18.03
   2   7   0   42.42   21.79
   2   7   0   23.71   15.17
   2   7   0   52.14   21.05
   2   7   0   42.78   15.67
   2   7   0   41.11   17.07
   2   7   1  224.62   32.74
   2   7   1  219.77   31.75
   2   7   1  170.54   35.23
   2   7   1  209.42   33.83
   2   7   1  250.97   39.43
   2   7   1  228.25   33.26
   2   7   1  294.51   37.21
   2   7   2  556.05   50.79
   2   7   2  659.17   63.80
   2   7   2  699.69   58.06
   2   7   2  686.52   61.19
   2   7   2  652.22   60.29
   2   7   2  655.68   55.73
   2   7   2  618.80   53.56
   2   7   2  628.38   58.83
   2   7   3  408.83   47.20
   2   7   3  460.09   53.01
   2   7   3  444.25   43.60
   2   7   3  422.36   47.44
   2   7   3  371.40   47.25
   2   7   3  377.96   43.93
   2   7   3  402.27   22.50
   2   7   3  398.57   48.38
   2   7   3  415.61   24.75
   2   7   4  239.52   31.53
   2   7   4  287.60   41.49
   2   7   4  279.89   43.19
   2   7   4  318.44   40.97
   2   7   4  259.12   38.53
   2   7   4  232.75   35.73
   2   7   4  261.50   21.46
   2   7   4  288.67   26.42
   2   7   4  225.09   37.07
   2   7   5  860.16   73.84
   2   7   5  932.11   59.98
   2   7   5 1034.60   74.14
   2   7   5  924.68   72.25
   2   7   5  950.74   73.81
   2   7   5  883.13   46.35
   2   7   5  911.12   54.77
   2   7   5  875.28   74.34
   2   7   6   40.72   14.19
   2   7   6   24.67   15.75
   2   7   6   21.98   15.15
   2   7   6   44.54   19.37
   2   7   6   41.24   15.67
   2   7   6   42.72   14.90
   2   7   6   51.34   21.81
   2   7   7    9.16    5.41
   2   7   7   21.05   13.47
   2   7   7   14.71   10.76
   2   7   7   -2.80    3.90
   2   7   7   37.98   13.42
   2   7   7   20.17   11.52
   2   7   7    2.83    6.97
   2   7   8   11.58   16.05
   2   7   8   11.25    9.58
   2   7   8  -19.84   11.36
   2   7   8   18.60   18.19
   2   7   9   15.09   12.43
   2   7   9    7.96    7.71
   2   7   9    6.89    8.40
   2   7   9   21.10   15.26
   2   7  10   -0.14    7.74
   2   7  10  -33.70   23.13
   2   7  11  113.99   34.25
   2   8  -8   51.97   20.58
   2   8  -7   16.05   12.76
   2   8  -6   66.79   21.92
   2   8  -5  105.78   28.07
   2   8  -4   52.96   20.25
   2   8  -3 1099.85   82.79
   2   8  -2  110.45   28.24
   2   8  -2  118.32   25.38
   2   8  -2   88.93   25.57
   2   8  -1  248.11   40.89
   2   8  -1  203.69   32.30
   2   8  -1  276.54   45.03
   2   8   0  631.18   57.57
   2   8   0  508.88   55.54
   2   8   0  582.74   54.69
   2   8   0  493.29   56.17
   2   8   1  347.14   43.79
   2   8   1  320.34   42.92
   2   8   1  361.82   49.69
   2   8   1  342.04   43.16
   2   8   2   24.17   12.29
   2   8   2   -0.44   14.05
   2   8   2    9.47   15.78
   2   8   2  -15.72   15.53
   2   8   3  344.92   40.34
   2   8   3  367.45   48.10
   2   8   3  366.71   44.95
   2   8   3  397.30   22.20
   2   8   3  411.63   52.99
   2   8   3  389.24   18.36
   2   8   4    8.56   13.94
   2   8   4    8.07   11.03
   2   8   4   -8.40    8.92
   2   8   4    3.18    4.77
   2   8   4   11.39   20.88
   2   8   4   11.44    7.41
   2   8   5  122.44   21.98
   2   8   5   79.66   23.05
   2   8   5   61.44   21.87
   2   8   5  110.94   17.01
   2   8   5   79.80   18.41
   2   8   5  124.85   29.58
   2   8   6  219.99   28.43
   2   8   6  185.14   37.13
   2   8   6  233.87   25.74
   2   8   6  169.06   26.45
   2   8   6  259.34   44.12
   2   8   7   57.05   21.02
   2   8   7   57.57   16.66
   2   8   7   25.46   22.34
   2   8   8   -2.72   12.79
   2   8   8   -7.68   12.32
   2   8   8   11.91    9.88
   2   8   9   52.41   22.20
   2   8   9   73.21   22.99
   2   8   9   44.18   21.29
   2   8  10   76.86   32.68
   2   9  -8   71.84   23.98
   2   9  -7   22.12   19.40
   2   9  -6   -6.20   15.86
   2   9  -5  106.36   29.33
   2   9  -4  263.34   44.86
   2   9  -3    9.16   21.76
   2   9  -3   -5.05   10.13
   2   9  -3   -8.04    9.58
   2   9  -2  645.36   61.49
   2   9  -2  654.75   69.56
   2   9  -2  729.30   74.25
   2   9  -1  439.86   53.97
   2   9  -1  350.46   50.93
   2   9  -1  378.84   46.10
   2   9  -1  471.42   59.19
   2   9   0   36.03   18.71
   2   9   0   -8.18   10.32
   2   9   0   54.55   21.27
   2   9   1  314.60   44.32
   2   9   1  327.72   49.56
   2   9   1  284.42   41.46
   2   9   2   73.24   22.34
   2   9   2  122.74   31.14
   2   9   2   96.15   25.74
   2   9   2  110.69   29.28
   2   9   3   94.28   25.05
   2   9   3   47.28   24.75
   2   9   3   73.10   25.82
   2   9   3   71.48   24.59
   2   9   4  409.08   44.92
   2   9   4  489.39   59.27
   2   9   4  588.89   61.55
   2   9   4  474.49   61.30
   2   9   5   41.76   19.84
   2   9   5   69.07   18.00
   2   9   5   44.40   20.91
   2   9   6    2.83    8.12
   2   9   6    2.22   10.98
   2   9   7    6.78   10.43
   2   9   7  -27.60   19.70
   2   9   8   46.07   19.18
   2   9   8   41.90   20.99
   2   9   9  -13.61   19.46
   2  10  -7  177.70   37.76
   2  10  -6   22.53   25.66
   2  10  -5    6.89    9.33
   2  10  -5   15.75   22.86
   2  10  -4   68.93   23.82
   2  10  -4  112.07   36.03
   2  10  -3   57.19   22.69
   2  10  -3   49.06   21.13
   2  10  -2  -25.60   18.96
   2  10  -2  -11.09    9.63
   2  10  -1  248.03   47.33
   2  10  -1  178.66   41.43
   2  10   0  471.50   61.88
   2  10   0  439.23   57.87
   2  10   1   -4.09   11.44
   2  10   1   -3.29    6.59
   2  10   2  313.06   53.78
   2  10   2  342.95   46.15
   2  10   2  307.03   50.93
   2  10   3   41.08   29.66
   2  10   3   77.55   23.43
   2  10   3   29.44   16.00
   2  10   4   -4.42    8.64
   2  10   4   34.05   18.11
   2  10   5   -7.24   20.14
   2  10   5   39.24   24.12
   2  10   6  104.60   33.48
   2  10   6  106.55   32.87
   2  10   7  -16.22   13.06
   2  10   8   27.11   20.28
   2  11  -4   44.15   22.12
   2  11  -3  102.90   31.45
   2  11  -2   82.87   33.15
   2  11  -1   -8.81    8.92
   2  11   0   78.07   28.35
   2  11   1   59.35   26.92
   2  11   1   46.37   24.64
   2  11   2  -64.02   31.20
   2  11   3  156.63   38.72
   2  11   4  152.10   39.18
   2  12  -2  120.46   36.66
   2  12  -1   74.50   29.31
   3 -11   1   94.50   27.77
   3 -11   2  -18.52   21.95
   3 -11   3   70.27   23.13
   3 -11   4   64.43   28.18
   3 -10   0   50.93   20.14
   3 -10   1   34.68   16.00
   3 -10   2  151.17   31.67
   3 -10   3  100.05   30.13
   3 -10   4   86.00   27.47
   3 -10   5  285.29   48.71
   3 -10   6   24.83   25.05
   3  -9  -6  121.42   32.98
   3  -9  -5   -1.62   12.84
   3  -9  -4    9.60   17.92
   3  -9  -3   26.84   16.46
   3  -9  -2    2.63   21.18
   3  -9  -1   94.94   33.53
   3  -9   0  328.92   55.04
   3  -9   0  174.30   33.15
   3  -9   1  124.00   32.71
   3  -9   1  140.41   28.04
   3  -9   2   42.15   23.24
   3  -9   2   11.85   12.68
   3  -9   3  197.87   40.61
   3  -9   3  115.36   28.51
   3  -9   4   94.89   30.76
   3  -9   4   97.49   25.68
   3  -9   5   -5.46   13.47
   3  -9   5   14.95   17.10
   3  -9   6  196.17   40.89
   3  -9   6  220.43   40.25
   3  -9   7   51.56   24.61
   3  -9   7   75.13   27.03
   3  -9   8   66.49   24.64
   3  -9   8  137.86   31.45
   3  -9   9  161.90   38.06
   3  -8  -7   46.15   20.61
   3  -8  -6   32.05   21.90
   3  -8  -5   82.13   26.70
   3  -8  -4   21.16   15.50
   3  -8  -3   71.92   24.42
   3  -8  -2  168.95   35.53
   3  -8  -1  111.05   28.73
   3  -8   0    0.63   12.57
   3  -8   0   -6.70    6.23
   3  -8   1  426.91   57.05
   3  -8   1  405.70   43.57
   3  -8   2   94.64   29.20
   3  -8   2   75.08   21.79
   3  -8   3   98.29   26.73
   3  -8   3   45.69   17.95
   3  -8   4  160.11   32.52
   3  -8   4  181.57   32.13
   3  -8   5  136.05   37.81
   3  -8   5  135.03   28.40
   3  -8   6   14.19   15.39
   3  -8   6  -10.81   15.45
   3  -8   7  265.54   43.00
   3  -8   7  276.49   43.41
   3  -8   8  140.71   32.85
   3  -8   8  130.59   29.99
   3  -8   9   12.10   20.99
   3  -8   9  -10.78   18.22
   3  -8  10  139.40   37.76
   3  -7  -7  238.32   38.88
   3  -7  -6   62.34   24.37
   3  -7  -5   28.04   22.75
   3  -7  -4   20.99   16.68
   3  -7  -4   27.25    9.93
   3  -7  -3  -23.93   19.26
   3  -7  -2  -22.25   13.39
   3  -7  -1  523.04   58.69
   3  -7   0  661.96   66.05
   3  -7   0  589.14   47.91
   3  -7   0  658.34   65.28
   3  -7   1    4.03   19.26
   3  -7   1    4.28   16.88
   3  -7   1   20.74   14.82
   3  -7   2  532.78   61.44
   3  -7   2  515.16   45.88
   3  -7   2  570.86   63.74
   3  -7   3  319.10   47.25
   3  -7   3  316.14   37.70
   3  -7   4   18.60   16.11
   3  -7   4   60.37   18.38
   3  -7   5  662.92   64.18
   3  -7   5  565.21   53.07
   3  -7   6   53.23   18.44
   3  -7   6   68.41   20.28
   3  -7   7   32.10   12.32
   3  -7   7   -0.30    8.73
   3  -7   8   74.86   24.56
   3  -7   8   31.72   19.73
   3  -7   8   82.90   23.08
   3  -7   9  170.40   33.72
   3  -7   9  140.11   29.83
   3  -7   9  106.63   32.13
   3  -7  10   28.24   14.90
   3  -7  10   62.26   22.47
   3  -7  10   89.78   25.77
   3  -7  11   39.13   26.04
   3  -6  -8   74.20   18.85
   3  -6  -8   61.11   25.77
   3  -6  -7   76.50   22.61
   3  -6  -7   75.27   23.46
   3  -6  -6  111.96   25.33
   3  -6  -6  179.35   30.07
   3  -6  -5    1.92   12.54
   3  -6  -4  105.12   27.28
   3  -6  -4   92.61   16.96
   3  -6  -3  475.84   52.82
   3  -6  -3  484.04   29.09
   3  -6  -2  549.10   56.14
   3  -6  -2  560.35   56.28
   3  -6  -1   57.54   21.02
   3  -6  -1   76.78   23.98
   3  -6   0   85.09   22.61
   3  -6   0   59.90   20.36
   3  -6   0   69.09   25.82
   3  -6   0   73.59   17.73
   3  -6   1  672.31   61.00
   3  -6   1  731.22   64.21
   3  -6   1  724.36   47.91
   3  -6   1  804.08   68.66
   3  -6   2   70.74   22.64
   3  -6   2   80.56   22.53
   3  -6   2   49.28   19.70
   3  -6   2   52.22   15.86
   3  -6   3 1066.60   76.34
   3  -6   3  920.29   72.61
   3  -6   3 1022.44   83.03
   3  -6   3  945.56   57.51
   3  -6   4  607.33   58.37
   3  -6   4  544.80   55.51
   3  -6   4  577.61   47.80
   3  -6   4  546.69   65.88
   3  -6   5  204.76   34.44
   3  -6   5  149.30   25.24
   3  -6   6 1198.53   80.26
   3  -6   6 1064.76   70.25
   3  -6   7  386.27   46.79
   3  -6   7  342.48   42.15
   3  -6   7  358.09   44.56
   3  -6   8    6.64    9.36
   3  -6   8  -23.27   16.60
   3  -6   8   -3.29   12.21
   3  -6   9    7.77   15.48
   3  -6   9   21.60   13.77
   3  -6   9   -0.52   12.51
   3  -6  10   67.31   21.32
   3  -6  10   48.60   18.63
   3  -6  10   63.17   25.60
   3  -6  11   19.51   16.55
   3  -6  12   19.84   21.02
   3  -5 -10   34.05   25.77
   3  -5  -9    5.87   13.69
   3  -5  -9   42.75   27.96
   3  -5  -8  204.59   32.02
   3  -5  -8  172.38   35.21
   3  -5  -7   85.70   24.06
   3  -5  -7   63.17   26.73
   3  -5  -6   -4.75   12.35
   3  -5  -6  -25.63   13.03
   3  -5  -6   11.00   15.64
   3  -5  -5   49.89   18.14
   3  -5  -5   34.68   19.65
   3  -5  -4  142.36   27.63
   3  -5  -4  148.37   29.28
   3  -5  -4  153.03   22.25
   3  -5  -3   65.99   22.47
   3  -5  -3   56.83   20.42
   3  -5  -3   43.16   12.81
   3  -5  -2  814.26   62.12
   3  -5  -2  741.18   59.79
   3  -5  -2  800.78   30.13
   3  -5  -1  726.67   59.08
   3  -5  -1  704.44   57.90
   3  -5   0    0.33    3.54
   3  -5   0    8.89   14.10
   3  -5   0    5.19    7.93
   3  -5   0    2.03    6.28
   3  -5   1  477.79   48.24
   3  -5   1  463.85   47.33
   3  -5   1  416.87   33.04
   3  -5   1  400.27   47.61
   3  -5   2 1266.61   77.05
   3  -5   2 1358.15   78.73
   3  -5   2 1308.12   58.56
   3  -5   2 1272.59   84.90
   3  -5   3  644.18   54.50
   3  -5   3  574.35   52.03
   3  -5   3  618.33   42.53
   3  -5   3  617.40   61.49
   3  -5   4  326.76   39.65
   3  -5   4  328.40   39.27
   3  -5   4  342.01   35.12
   3  -5   4  296.27   45.47
   3  -5   5  518.78   49.36
   3  -5   5  511.37   49.64
   3  -5   5  482.09   42.86
   3  -5   5  543.01   63.17
   3  -5   6  198.31   32.60
   3  -5   6  215.43   33.18
   3  -5   6  212.39   32.54
   3  -5   6  203.55   29.69
   3  -5   7  492.00   48.82
   3  -5   7  480.64   48.38
   3  -5   7  388.47   44.34
   3  -5   8  755.37   59.71
   3  -5   8  804.60   61.55
   3  -5   8  734.24   63.11
   3  -5   9  164.86   29.53
   3  -5   9  138.87   32.60
   3  -5  10   71.29   20.72
   3  -5  10   38.44   23.82
   3  -5  11   55.62   24.12
   3  -5  12    6.70   10.73
   3  -4 -11  -38.77   28.76
   3  -4 -10   66.49   25.57
   3  -4 -10  104.08   35.97
   3  -4  -9  127.68   33.01
   3  -4  -9  128.15   33.26
   3  -4  -8   11.83   20.96
   3  -4  -8   30.27   23.21
   3  -4  -8   38.22   14.02
   3  -4  -7   97.80   29.17
   3  -4  -7   84.82   22.03
   3  -4  -7   48.05   13.80
   3  -4  -7   69.45   22.23
   3  -4  -6   25.00   13.23
   3  -4  -6   30.40   11.77
   3  -4  -5   -9.82    9.52
   3  -4  -5    6.15   11.33
   3  -4  -4  437.86   43.38
   3  -4  -4  416.60   41.24
   3  -4  -3 1498.45   77.93
   3  -4  -3 1564.63   78.81
   3  -4  -3 1573.91   63.44
   3  -4  -2  398.05   40.64
   3  -4  -2  350.35   38.22
   3  -4  -2  327.80   23.79
   3  -4  -1  409.21   41.05
   3  -4  -1  371.15   38.72
   3  -4   0  907.55   60.40
   3  -4   0  959.03   61.41
   3  -4   0  876.46   39.98
   3  -4   0  802.05   59.79
   3  -4   1   22.45   15.67
   3  -4   1   11.74   12.70
   3  -4   1    0.88   17.56
   3  -4   1   -0.66    4.31
   3  -4   2 1739.34   83.36
   3  -4   2 1785.36   83.23
   3  -4   2 1842.44   60.92
   3  -4   2 1685.86   90.99
   3  -4   3 1587.52   78.84
   3  -4   3 1517.77   76.78
   3  -4   3 1507.70   58.89
   3  -4   3 1429.22   88.16
   3  -4   4   13.86   12.29
   3  -4   4    4.66    8.73
   3  -4   4   18.77   17.73
   3  -4   4   12.68    9.55
   3  -4   5   91.10   22.50
   3  -4   5   86.19   19.89
   3  -4   5  112.23   22.80
   3  -4   5   74.17   28.15
   3  -4   6  485.66   44.67
   3  -4   6  460.03   43.11
   3  -4   6  502.57   61.19
   3  -4   6  516.53   47.22
   3  -4   7  586.37   48.02
   3  -4   7  640.09   50.11
   3  -4   7  557.17   53.04
   3  -4   8   69.40   19.26
   3  -4   8   51.26   15.50
   3  -4   8   54.74   24.01
   3  -4   9  362.15   37.18
   3  -4   9  321.54   35.23
   3  -4   9  287.46   44.81
   3  -4  10   57.65   16.55
   3  -4  10   10.10   16.74
   3  -4  11  124.91   35.59
   3  -4  12  134.02   37.24
   3  -3 -11   43.44   30.92
   3  -3 -11   96.92   36.25
   3  -3 -10   20.99   16.16
   3  -3  -9  215.43   41.60
   3  -3  -8   86.41   17.23
   3  -3  -8   56.99   20.22
   3  -3  -8   66.30    9.52
   3  -3  -7   -7.35    5.24
   3  -3  -7    5.95    7.77
   3  -3  -7   -3.65    2.88
   3  -3  -7   -6.20   13.20
   3  -3  -7   -3.05    3.79
   3  -3  -6  120.68   20.58
   3  -3  -6  108.99   20.25
   3  -3  -6   95.22    8.64
   3  -3  -6  120.79   29.11
   3  -3  -5  319.18   33.42
   3  -3  -5  348.87   33.72
   3  -3  -5  262.30   14.38
   3  -3  -5  316.66   41.76
   3  -3  -5  327.28   43.22
   3  -3  -4  103.12   21.21
   3  -3  -4   63.96   17.56
   3  -3  -4   80.29    9.25
   3  -3  -4   98.32   24.59
   3  -3  -3  304.89   19.43
   3  -3  -3  316.25   33.59
   3  -3  -3  309.44   32.82
   3  -3  -2  818.15   36.00
   3  -3  -2  868.07   54.17
   3  -3  -2  874.95   53.51
   3  -3  -1 1368.63   67.94
   3  -3  -1 1369.64   67.01
   3  -3   0  464.45   39.68
   3  -3   0  551.90   43.41
   3  -3   0  489.78   24.42
   3  -3   1 5512.77  135.42
   3  -3   1 5780.31  137.20
   3  -3   1 5762.03   84.13
   3  -3   2   44.15   13.61
   3  -3   2   71.15   17.70
   3  -3   2   46.79   10.24
   3  -3   3 2667.59   93.95
   3  -3   3 2743.49   94.67
   3  -3   3 2588.83   69.31
   3  -3   4  314.74   32.19
   3  -3   4  315.89   32.96
   3  -3   5   13.56   11.36
   3  -3   5   24.17   10.29
   3  -3   5   14.71   12.43
   3  -3   6   56.58   16.00
   3  -3   6   87.20   17.26
   3  -3   6   52.05   25.49
   3  -3   6   75.24   20.53
   3  -3   7  408.47   37.43
   3  -3   7  389.90   35.81
   3  -3   7  374.01   53.86
   3  -3   7  327.99   40.36
   3  -3   8  652.28   45.66
   3  -3   8  678.37   47.39
   3  -3   8  637.68   59.16
   3  -3   9   33.15   13.34
   3  -3   9    5.71    6.45
   3  -3   9    9.00   13.50
   3  -3  10  412.18   36.08
   3  -3  10  347.89   32.57
   3  -3  10  437.09   55.70
   3  -3  11   73.40   28.84
   3  -3  12   12.87   19.70
   3  -2 -12  -19.29   20.31
   3  -2 -11  105.07   33.09
   3  -2 -10   79.05   30.65
   3  -2  -9   18.19   16.88
   3  -2  -9   11.77   10.34
   3  -2  -8   60.86   12.62
   3  -2  -8   58.69   11.85
   3  -2  -8   64.76   23.79
   3  -2  -8   66.90   15.61
   3  -2  -7  134.87   17.86
   3  -2  -7  125.76   19.35
   3  -2  -7  137.34   29.85
   3  -2  -7  140.27   19.98
   3  -2  -6   -7.08    9.25
   3  -2  -6   -1.95    8.04
   3  -2  -6    8.34   10.76
   3  -2  -6   -2.33    7.27
   3  -2  -6   26.34   13.75
   3  -2  -5  681.31   43.68
   3  -2  -5  731.85   44.23
   3  -2  -5  735.20   39.18
   3  -2  -5  719.67   57.82
   3  -2  -5  793.59   62.62
   3  -2  -4  610.35   41.22
   3  -2  -4  615.21   41.38
   3  -2  -4  654.14   35.23
   3  -2  -4  686.22   53.23
   3  -2  -4  621.98   53.07
   3  -2  -3  456.58   35.95
   3  -2  -3  536.56   38.88
   3  -2  -3  422.74   28.02
   3  -2  -3  456.05   42.09
   3  -2  -2   12.43    5.27
   3  -2  -2   -0.05    6.91
   3  -2  -2    6.45   10.02
   3  -2  -1 3290.31   82.65
   3  -2  -1 3101.03   92.97
   3  -2  -1 3356.55   94.56
   3  -2   0 2193.78   72.80
   3  -2   0 2208.93   78.92
   3  -2   0 2079.49   75.27
   3  -2   1  560.85   39.93
   3  -2   1  532.12   23.13
   3  -2   1  589.63   20.50
   3  -2   1  596.33   41.41
   3  -2   1  610.76   41.52
   3  -2   2 1780.89   49.06
   3  -2   2 1815.60   71.43
   3  -2   2 1944.05   73.24
   3  -2   3   59.96   14.87
   3  -2   3   42.81   13.28
   3  -2   3   47.20   15.01
   3  -2   4 1903.44   73.65
   3  -2   4 2022.14   74.75
   3  -2   5 1989.95   75.02
   3  -2   5 2211.18   78.29
   3  -2   6  845.95   48.60
   3  -2   6  979.78   51.94
   3  -2   6  812.28   57.19
   3  -2   7   -4.91    9.69
   3  -2   7   -0.66    8.73
   3  -2   7    4.58    9.16
   3  -2   7   16.13   19.51
   3  -2   8  305.55   27.99
   3  -2   8  293.64   28.76
   3  -2   8  249.90   48.57
   3  -2   8  285.43   41.76
   3  -2   9   17.29    8.04
   3  -2   9   14.85    7.46
   3  -2   9   -7.57   14.38
   3  -2  10    8.62    7.88
   3  -2  10    7.19    6.64
   3  -2  10   -2.11   15.28
   3  -2  11  282.91   46.62
   3  -2  12  210.38   45.55
   3  -1 -12   34.88   19.07
   3  -1 -11  -10.37   11.85
   3  -1 -10   81.74   22.45
   3  -1 -10  106.22   28.04
   3  -1  -9  122.08   24.12
   3  -1  -9  120.16   29.06
   3  -1  -8   98.54   13.14
   3  -1  -8   75.54   12.40
   3  -1  -8   93.74   20.31
   3  -1  -8   67.97   21.81
   3  -1  -7   88.44   15.28
   3  -1  -7  104.96   15.67
   3  -1  -7   96.95   19.78
   3  -1  -7  114.45   25.19
   3  -1  -6  734.16   40.28
   3  -1  -6  839.25   42.67
   3  -1  -6  740.66   48.38
   3  -1  -6  782.15   59.27
   3  -1  -6  706.06   60.78
   3  -1  -5  267.21   25.05
   3  -1  -5  229.37   23.24
   3  -1  -5  238.76   27.47
   3  -1  -5  280.68   33.34
   3  -1  -5  240.79   32.96
   3  -1  -4   29.14   10.40
   3  -1  -4   43.66   11.77
   3  -1  -4   41.32   12.92
   3  -1  -4   36.39   11.36
   3  -1  -4   25.79   11.74
   3  -1  -3 1123.04   51.42
   3  -1  -3 1188.07   51.94
   3  -1  -3 1171.91   51.18
   3  -1  -3 1189.45   58.50
   3  -1  -3 1190.32   61.58
   3  -1  -2  253.00   24.97
   3  -1  -2  242.16   24.12
   3  -1  -2  271.49   24.81
   3  -1  -2  236.53   25.44
   3  -1  -1 1045.91   49.23
   3  -1   0 6794.27  129.87
   3  -1   1 1497.30   63.83
   3  -1   1 1318.74   42.92
   3  -1   2  161.16   24.39
   3  -1   2  151.63   16.41
   3  -1   3  136.49   22.53
   3  -1   3  137.20   18.17
   3  -1   4  513.21   34.90
   3  -1   4  472.41   34.30
   3  -1   5  121.70   18.22
   3  -1   5  106.52   17.84
   3  -1   6 2837.94   82.48
   3  -1   6 2950.08   82.07
   3  -1   6 2695.19  120.30
   3  -1   7  564.58   36.55
   3  -1   7  562.33   36.03
   3  -1   7  547.24   59.54
   3  -1   7  508.93   48.60
   3  -1   8  119.20   17.29
   3  -1   8  137.15   18.33
   3  -1   8  124.63   31.61
   3  -1   8  124.55   28.65
   3  -1   9  339.76   26.92
   3  -1   9  348.52   27.08
   3  -1   9  327.66   46.70
   3  -1  10  343.41   24.97
   3  -1  10  360.67   24.81
   3  -1  10  372.88   51.20
   3  -1  11   54.69   26.84
   3  -1  12   81.55   28.95
   3  -1  13   48.90   33.53
   3   0 -12   17.53   13.75
   3   0 -11  133.11   28.37
   3   0 -11  148.81   35.29
   3   0 -10   13.99   12.65
   3   0 -10   26.40   13.50
   3   0  -9    9.93    8.15
   3   0  -9   11.03   10.56
   3   0  -8  183.66   15.75
   3   0  -8  138.19   13.12
   3   0  -8  170.43   29.94
   3   0  -8  155.56   28.92
   3   0  -7   89.89   12.38
   3   0  -7   92.31   13.91
   3   0  -7   52.68   17.15
   3   0  -7   57.19   18.85
   3   0  -7   82.59   21.68
   3   0  -6   10.48    7.90
   3   0  -6   21.71    7.63
   3   0  -6   25.35   13.12
   3   0  -6   12.95   11.11
   3   0  -6    2.91    9.22
   3   0  -5  471.53   40.17
   3   0  -5  465.41   39.49
   3   0  -5  507.83   45.25
   3   0  -4  900.97   52.41
   3   0  -4  936.61   50.65
   3   0  -4  925.22   55.98
   3   0  -3    0.58    5.82
   3   0  -3    9.85    8.18
   3   0  -3   -2.36    9.30
   3   0  -2 7983.64  140.25
   3   0  -2 7824.68  128.78
   3   0  -1 3701.06   95.05
   3   0  -1 3462.47   74.66
   3   0   0 2177.81   74.80
   3   0   1 1094.75   55.79
   3   0   1 1017.40   42.78
   3   0   1  986.99   24.48
   3   0   1 1002.55   48.73
   3   0   2  172.30   24.67
   3   0   2  186.51   19.65
   3   0   2  205.77   23.87
   3   0   3   13.34    9.49
   3   0   3   14.79    8.78
   3   0   3  -12.05   11.58
   3   0   4 1586.20   75.73
   3   0   4 1494.08   67.31
   3   0   4 1483.71   71.65
   3   0   5 1841.34   87.56
   3   0   6  109.24   24.83
   3   0   7  225.15   37.78
   3   0   8  670.75   36.69
   3   0   8  708.78   36.96
   3   0   8  715.39   70.19
   3   0   8  661.83   61.52
   3   0   9   -1.43    4.58
   3   0   9   -3.38    6.39
   3   0   9   -1.34    6.48
   3   0   9   -3.10   15.15
   3   0  10  407.40   22.89
   3   0  10  356.86   21.18
   3   0  10  325.93   52.52
   3   0  11  371.57   55.54
   3   0  12    7.85   11.11
   3   0  13   35.64   33.26
   3   1 -12   10.81   15.81
   3   1 -11   49.89   19.48
   3   1 -11   10.43   15.70
   3   1 -10  184.21   33.26
   3   1 -10  222.54   39.79
   3   1  -9   56.33   23.35
   3   1  -9   47.72   21.29
   3   1  -8  221.83   17.29
   3   1  -8  223.77   17.15
   3   1  -8  212.66   35.15
   3   1  -8  242.71   34.68
   3   1  -7  336.06   41.43
   3   1  -7  382.08   40.17
   3   1  -7  401.42   46.35
   3   1  -6  427.30   44.37
   3   1  -6  368.66   36.00
   3   1  -6  428.37   44.37
   3   1  -5  600.28   49.01
   3   1  -5  533.52   38.77
   3   1  -5  592.57   48.76
   3   1  -4  203.63   28.24
   3   1  -4  171.17   19.92
   3   1  -4  145.16   21.71
   3   1  -3 1818.59   76.80
   3   1  -3 1839.01   54.25
   3   1  -3 1665.97   64.40
   3   1  -2  893.78   30.82
   3   1  -2  843.81   49.91
   3   1  -2  776.25   38.03
   3   1  -1 8656.52  153.75
   3   1  -1 8113.70   99.99
   3   1   0 4421.64  110.94
   3   1   0 4218.42   63.55
   3   1   0 4212.63   50.63
   3   1   1  214.22   26.18
   3   1   1  226.93   15.97
   3   1   1  217.49   20.61
   3   1   2  817.55   50.52
   3   1   2  790.52   43.66
   3   1   2  798.95   34.38
   3   1   2  774.03   39.71
   3   1   3 1171.77   62.34
   3   1   3 1192.63   57.82
   3   1   3 1099.96   51.89
   3   1   3 1129.85   50.85
   3   1   4    4.31    9.22
   3   1   4    4.66   10.54
   3   1   4   18.96    8.29
   3   1   5  282.06   34.90
   3   1   5  266.00   33.70
   3   1   5  282.91   31.97
   3   1   6  368.82   40.89
   3   1   7   14.60   15.26
   3   1   7   15.37   17.97
   3   1   8  267.90   43.82
   3   1   8  249.68   37.18
   3   1   9 1340.67   99.20
   3   1   9 1162.03   84.21
   3   1  10  221.47   16.85
   3   1  10  205.80   16.46
   3   1  10  178.42   39.32
   3   1  11  184.92   41.02
   3   1  12   29.11   17.78
   3   2 -12  145.84   35.97
   3   2 -12   62.65   27.93
   3   2 -11   83.86   30.71
   3   2 -10   17.29   12.21
   3   2  -9  198.42   34.16
   3   2  -8   93.27   12.92
   3   2  -8  145.32   27.03
   3   2  -7   63.66   17.37
   3   2  -7   70.52   21.29
   3   2  -6  416.81   36.30
   3   2  -5  894.44   64.73
   3   2  -5  792.30   44.04
   3   2  -4  -14.27   10.89
   3   2  -4   13.77    6.31
   3   2  -3 2566.36   97.25
   3   2  -3 2644.98   56.31
   3   2  -2 3693.96  112.26
   3   2  -2 3794.41   43.60
   3   2  -1   15.81   10.98
   3   2  -1   14.98    6.94
   3   2   0   14.41   12.79
   3   2   0   10.81    6.78
   3   2   1  925.53   54.03
   3   2   1  940.26   38.88
   3   2   1  921.55   22.99
   3   2   2   72.33   14.46
   3   2   2   67.26   16.35
   3   2   2   69.26   10.51
   3   2   2   38.69   11.91
   3   2   2   56.36   11.42
   3   2   2   64.15    7.79
   3   2   3 4268.96  120.16
   3   2   3 4113.68  113.08
   3   2   3 3967.23   94.59
   3   2   3 4044.15   86.33
   3   2   3 4330.46   97.28
   3   2   4 2748.59   98.87
   3   2   4 2730.18   98.56
   3   2   4 2588.34   79.41
   3   2   4 2751.55   85.42
   3   2   5   17.42   11.74
   3   2   5   10.04   10.45
   3   2   5   -0.05    7.88
   3   2   5    4.80   13.34
   3   2   6  104.96   22.64
   3   2   6  116.76   21.51
   3   2   6  100.57   23.57
   3   2   7  604.01   54.74
   3   2   7  674.18   56.01
   3   2   8  434.24   52.47
   3   2   8  474.11   52.38
   3   2   9  214.53   41.22
   3   2   9  221.74   39.73
   3   2  10  250.03   20.00
   3   2  10  234.83   42.09
   3   2  11    5.46    9.71
   3   2  12   64.62   27.66
   3   3 -11  132.21   31.97
   3   3 -10  142.30   29.50
   3   3  -9    1.37    9.30
   3   3  -9   -1.89    2.20
   3   3  -8   57.10   18.08
   3   3  -8   67.56   12.81
   3   3  -7  484.51   42.09
   3   3  -7  461.08   34.22
   3   3  -6  227.48   26.32
   3   3  -5 1291.93   53.67
   3   3  -4 1965.04   95.88
   3   3  -4 1878.96   56.01
   3   3  -3  633.45   52.68
   3   3  -3  701.37   27.36
   3   3  -2 2333.09   95.38
   3   3  -1 1109.59   63.47
   3   3  -1  956.48   45.08
   3   3   0  756.96   51.70
   3   3   0  740.88   23.90
   3   3   0  714.40   38.66
   3   3   1  430.23   23.41
   3   3   1  377.25   28.84
   3   3   2  948.11   57.19
   3   3   2  874.46   39.76
   3   3   2  806.63   43.90
   3   3   2  902.94   53.76
   3   3   2  941.11   38.03
   3   3   2  955.38   40.89
   3   3   3  692.18   50.68
   3   3   3  679.58   40.17
   3   3   3  618.55   46.84
   3   3   3  687.76   28.10
   3   3   3  623.93   41.68
   3   3   3  703.76   36.11
   3   3   3  646.27   37.15
   3   3   4   88.11   17.75
   3   3   4  139.18   24.81
   3   3   4  102.30   21.07
   3   3   4  110.56   15.56
   3   3   4   84.08   16.63
   3   3   4   86.96   15.70
   3   3   5  768.87   54.41
   3   3   5  826.25   62.10
   3   3   5  737.86   45.63
   3   3   5  718.49   48.62
   3   3   5  752.96   45.88
   3   3   6   61.11   19.62
   3   3   6   55.90   16.44
   3   3   6   77.79   21.35
   3   3   6   71.51   18.49
   3   3   7  809.65   59.90
   3   3   7  713.94   57.27
   3   3   7  874.13   64.46
   3   3   8 1738.66   69.29
   3   3   8 1755.84   99.03
   3   3   8 1972.04  102.57
   3   3   9  418.13   33.09
   3   3   9  461.46   56.06
   3   3   9  409.02   52.63
   3   3  10    4.14    3.81
   3   3  10   38.09   21.87
   3   3  10   20.50   15.67
   3   3  11   -9.66   14.76
   3   3  12   -2.80   10.78
   3   4 -10  183.74   31.72
   3   4  -9   54.39   18.19
   3   4  -8  189.39   28.92
   3   4  -7   15.92    7.90
   3   4  -6  752.76   46.73
   3   4  -5  104.33   16.41
   3   4  -4 2748.40  120.54
   3   4  -3 3078.50  121.45
   3   4  -2  120.82   26.53
   3   4  -1  953.27   63.72
   3   4  -1  936.31   34.60
   3   4   0  310.62   35.73
   3   4   0  383.83   24.01
   3   4   1  176.55   18.77
   3   4   1  109.51   21.65
   3   4   2  486.68   43.52
   3   4   2  508.66   34.49
   3   4   2  493.45   43.25
   3   4   2  483.80   33.83
   3   4   3 1065.61   63.39
   3   4   3  972.37   52.22
   3   4   3 1067.45   64.62
   3   4   3 1093.65   53.51
   3   4   3 1104.44   47.28
   3   4   4  235.49   30.51
   3   4   4  268.97   30.40
   3   4   4  240.24   32.27
   3   4   4  247.73   18.38
   3   4   4  254.92   27.39
   3   4   4  201.71   23.41
   3   4   5   56.09   16.77
   3   4   5   32.30   14.32
   3   4   5   38.61   11.88
   3   4   5   52.25   16.35
   3   4   5   38.36   15.50
   3   4   5   50.16   16.19
   3   4   6 1021.26   65.28
   3   4   6 1063.85   70.03
   3   4   6 1004.64   74.17
   3   4   6 1116.37   60.94
   3   4   6 1043.88   69.34
   3   4   6 1040.72   64.10
   3   4   6 1027.38   63.94
   3   4   7  879.67   62.10
   3   4   7  827.51   65.88
   3   4   7  809.98   52.93
   3   4   7  878.33   61.41
   3   4   7  770.44   60.78
   3   4   8  360.95   35.34
   3   4   8  370.96   45.50
   3   4   8  411.60   49.17
   3   4   9  439.54   37.84
   3   4   9  359.05   47.53
   3   4   9  405.37   50.60
   3   4  10   -5.49    7.79
   3   4  10   -2.33    7.82
   3   4  11    2.36    5.13
   3   4  12   56.53   22.99
   3   5 -10  -25.27   14.74
   3   5  -9   67.45   17.67
   3   5  -8  378.76   37.02
   3   5  -8  351.92   37.37
   3   5  -8  337.87   37.95
   3   5  -7  147.52   24.20
   3   5  -7  173.56   25.88
   3   5  -6   68.27   18.60
   3   5  -5  514.14   45.33
   3   5  -4  225.23   30.62
   3   5  -4  242.02   40.47
   3   5  -3  324.75   36.19
   3   5  -3  283.81   40.78
   3   5  -2 1559.06   79.00
   3   5  -2 1776.42   95.93
   3   5  -2 1627.99   74.50
   3   5  -1  434.16   29.99
   3   5  -1  415.72   46.04
   3   5  -1  409.63   46.40
   3   5  -1  384.22   36.28
   3   5   0  872.81   63.61
   3   5   0  955.98   46.07
   3   5   0  961.97   66.62
   3   5   1 2368.46  101.28
   3   5   1 2255.99   75.21
   3   5   1 2353.26  104.68
   3   5   1 2432.84   98.07
   3   5   2   62.56   14.95
   3   5   2  103.09   24.56
   3   5   2   74.83   19.92
   3   5   2   72.96   19.43
   3   5   2   82.13   17.56
   3   5   3   56.39   14.54
   3   5   3   38.58   13.53
   3   5   3   54.39   18.41
   3   5   3   37.81   11.31
   3   5   3   32.98   10.26
   3   5   4  211.07   28.73
   3   5   4  189.01   29.06
   3   5   4  188.82   27.58
   3   5   4  223.12   31.31
   3   5   4  202.23   32.32
   3   5   4  221.17   24.34
   3   5   4  150.65   24.61
   3   5   5  774.41   57.35
   3   5   5  779.87   59.00
   3   5   5  755.64   55.35
   3   5   5  887.58   68.76
   3   5   5  713.20   36.06
   3   5   5  704.61   57.19
   3   5   5  712.04   48.21
   3   5   5  658.12   52.14
   3   5   6  191.09   31.09
   3   5   6  230.11   33.72
   3   5   6  199.54   29.33
   3   5   6  148.07   20.17
   3   5   6  179.71   33.28
   3   5   6  202.26   34.68
   3   5   6  184.59   30.27
   3   5   6  176.60   30.57
   3   5   7  997.39   66.27
   3   5   7  974.34   63.19
   3   5   7  969.87   61.38
   3   5   7 1038.06   69.64
   3   5   7  968.94   71.45
   3   5   8  142.14   25.38
   3   5   8  140.63   25.71
   3   5   8  117.25   24.23
   3   5   8  144.47   30.71
   3   5   8  154.95   31.94
   3   5   9    1.95    6.86
   3   5   9   14.38    9.14
   3   5   9   25.19   13.17
   3   5   9   -9.11    8.12
   3   5  10   78.92   19.04
   3   5  10   59.68   27.80
   3   5  10   62.40   20.77
   3   5  11   50.96   20.53
   3   5  12  -26.34   16.33
   3   6  -9   93.98   23.16
   3   6  -8   44.32   14.85
   3   6  -8   39.65   14.10
   3   6  -7  443.82   45.47
   3   6  -7  470.24   48.08
   3   6  -6   -4.64    8.92
   3   6  -5  703.89   58.58
   3   6  -4  688.14   56.99
   3   6  -4  659.66   66.93
   3   6  -3  366.85   41.63
   3   6  -3  363.97   47.33
   3   6  -3  328.24   42.94
   3   6  -2  101.53   25.00
   3   6  -2   74.28   21.84
   3   6  -2   73.43   25.96
   3   6  -2   76.75   15.09
   3   6  -2   73.43   20.20
   3   6  -1 1183.82   80.51
   3   6  -1 1057.35   75.87
   3   6  -1 1123.84   56.25
   3   6  -1 1093.84   65.58
   3   6  -1 1157.12   73.43
   3   6   0  353.78   43.71
   3   6   0  305.74   40.91
   3   6   0  337.76   31.83
   3   6   0  356.83   40.61
   3   6   0  373.90   39.02
   3   6   1  119.36   27.17
   3   6   1   84.52   17.26
   3   6   1  127.16   25.77
   3   6   1   86.11   23.46
   3   6   1  124.66   23.63
   3   6   1  106.08   23.27
   3   6   2  369.43   46.70
   3   6   2  418.02   45.19
   3   6   2  406.11   38.53
   3   6   2  397.85   43.57
   3   6   2  443.51   46.70
   3   6   2  393.71   41.54
   3   6   2  377.30   39.49
   3   6   3  474.99   53.45
   3   6   3  552.04   51.45
   3   6   3  537.30   47.00
   3   6   3  588.40   53.54
   3   6   3  538.98   52.19
   3   6   3  532.75   49.80
   3   6   3  481.49   45.82
   3   6   3  590.26   31.94
   3   6   4    9.22   10.84
   3   6   4   43.00   16.33
   3   6   4   40.47   16.85
   3   6   4    5.79   10.02
   3   6   4   44.59   16.44
   3   6   4   41.79   17.18
   3   6   4   26.95   11.47
   3   6   4   39.46   13.39
   3   6   5 1364.27   78.29
   3   6   5 1411.08   85.48
   3   6   5 1509.97   85.42
   3   6   5 1535.85   94.75
   3   6   5 1419.56   38.22
   3   6   5 1369.18   35.23
   3   6   5 1411.49   66.27
   3   6   5 1365.01   81.61
   3   6   6  697.50   56.91
   3   6   6  714.68   63.08
   3   6   6  858.57   63.72
   3   6   6  757.07   69.97
   3   6   6  741.49   41.85
   3   6   6  737.67   38.17
   3   6   6  755.92   55.81
   3   6   6  714.38   61.93
   3   6   7    0.14    8.84
   3   6   7   20.66   13.34
   3   6   7   -4.61    8.92
   3   6   7    9.47   12.21
   3   6   7   -4.99   13.12
   3   6   8   82.90   20.44
   3   6   8   62.26   18.14
   3   6   8   61.27   17.01
   3   6   8   66.43   20.39
   3   6   8   83.50   23.41
   3   6   8   71.76   21.51
   3   6   9   31.69   12.51
   3   6   9   10.48    8.34
   3   6  10   -0.30    6.59
   3   6  10   28.73   16.00
   3   6  11  105.42   31.53
   3   6  12   96.01   33.86
   3   7  -8  180.06   31.69
   3   7  -7   62.87   20.85
   3   7  -6  561.67   56.36
   3   7  -5  150.62   31.14
   3   7  -5  117.31   33.26
   3   7  -4  117.55   32.38
   3   7  -3  783.55   74.97
   3   7  -2   32.52   15.59
   3   7  -2   23.41   10.40
   3   7  -1  201.57   38.53
   3   7  -1  270.81   39.71
   3   7  -1  186.84   34.74
   3   7  -1  165.93   25.44
   3   7   0  152.13   34.35
   3   7   0  186.18   32.52
   3   7   0  160.91   30.27
   3   7   0  183.03   26.21
   3   7   0  161.84   27.66
   3   7   1 1034.30   77.71
   3   7   1 1072.11   65.83
   3   7   1 1010.23   81.55
   3   7   1 1106.27   78.07
   3   7   1 1026.92   72.99
   3   7   1 1102.90   72.61
   3   7   2  335.04   43.66
   3   7   2  347.56   49.06
   3   7   2  276.40   34.44
   3   7   2  337.49   45.33
   3   7   2  310.29   42.26
   3   7   2  318.63   41.87
   3   7   3  267.32   35.70
   3   7   3  256.95   37.65
   3   7   3  241.23   41.38
   3   7   3  302.66   42.45
   3   7   3  280.71   39.71
   3   7   4  413.06   47.36
   3   7   4  496.20   51.67
   3   7   4  513.35   54.91
   3   7   4  418.98   47.75
   3   7   4  460.83   32.21
   3   7   5   91.90   20.77
   3   7   5  112.61   25.88
   3   7   5   55.95   16.71
   3   7   5  130.29   26.78
   3   7   6  788.90   60.48
   3   7   6  736.22   33.81
   3   7   6  713.91   31.89
   3   7   6  732.24   52.52
   3   7   6  764.67   68.02
   3   7   7  169.06   27.71
   3   7   7  190.52   33.31
   3   7   7  192.90   21.49
   3   7   7  172.46   28.92
   3   7   7  185.55   35.45
   3   7   8  -11.00   10.37
   3   7   8   13.12   12.46
   3   7   8  -10.92    8.29
   3   7   8   13.86   14.93
   3   7   8    4.58   10.10
   3   7   9   18.38   11.88
   3   7   9   49.75   21.21
   3   7   9   28.13   17.92
   3   7  10   89.07   26.32
   3   7  11  -11.91   17.92
   3   8  -8  134.18   30.84
   3   8  -7  167.77   33.83
   3   8  -6  -15.15   24.15
   3   8  -6   45.88   19.54
   3   8  -5  540.84   71.76
   3   8  -5  462.58   55.68
   3   8  -4  471.64   63.77
   3   8  -4  459.70   57.24
   3   8  -3   12.29   10.87
   3   8  -3   62.45   18.36
   3   8  -3   46.21   23.76
   3   8  -2  513.35   47.58
   3   8  -2  494.63   61.60
   3   8  -1  212.96   40.91
   3   8  -1  185.63   30.68
   3   8   0   15.72   14.24
   3   8   0   19.48   11.20
   3   8   0   24.37   15.17
   3   8   1   -0.85    9.82
   3   8   1    7.44    8.20
   3   8   1   30.68   16.19
   3   8   2  256.04   37.10
   3   8   2  189.83   34.99
   3   8   2  266.74   40.20
   3   8   2  206.68   36.69
   3   8   3  146.15   29.14
   3   8   3  131.44   29.11
   3   8   3  122.08   27.82
   3   8   3  123.54   31.34
   3   8   4  733.58   69.67
   3   8   4  704.80   63.25
   3   8   4  719.97   68.46
   3   8   4  770.63   36.50
   3   8   5  541.17   60.70
   3   8   5  580.06   56.69
   3   8   5  605.55   63.74
   3   8   5  585.30   39.40
   3   8   6   25.08   17.70
   3   8   6   -0.08    7.85
   3   8   6   -4.01    5.79
   3   8   6   11.44   14.76
   3   8   7   20.14   14.38
   3   8   7   -5.32    9.00
   3   8   7   25.82   15.89
   3   8   7   -4.77    6.39
   3   8   8   54.52   24.37
   3   8   8   64.32   18.17
   3   8   8   46.68   19.59
   3   8   9   -8.92   15.39
   3   8   9   14.76   15.15
   3   8   9   -5.73   17.29
   3   8  10  120.21   32.54
   3   8  10   63.55   24.70
   3   9  -8    2.66    9.16
   3   9  -7   90.69   25.14
   3   9  -6  212.06   40.36
   3   9  -6  263.75   54.06
   3   9  -5   39.07   19.76
   3   9  -5   44.10   31.97
   3   9  -4  105.84   30.27
   3   9  -4  151.11   42.92
   3   9  -3  139.64   34.14
   3   9  -3  157.62   38.64
   3   9  -3  146.26   27.44
   3   9  -2   54.52   24.97
   3   9  -2   63.22   18.99
   3   9  -2   22.72   23.87
   3   9  -1  399.06   58.58
   3   9  -1  300.83   49.80
   3   9  -1  369.26   46.32
   3   9   0  533.49   63.06
   3   9   0  535.30   54.52
   3   9   1  342.37   51.29
   3   9   1  252.42   42.50
   3   9   1  227.04   37.48
   3   9   2  234.83   43.63
   3   9   2  155.01   31.94
   3   9   2  169.88   37.02
   3   9   3  199.13   38.36
   3   9   3  170.21   32.98
   3   9   3  150.15   34.35
   3   9   4    4.23    7.60
   3   9   4   20.09   15.61
   3   9   4   20.91   17.48
   3   9   5   32.16   21.02
   3   9   5   63.80   22.31
   3   9   5   34.88   21.73
   3   9   6  180.88   40.14
   3   9   6  214.50   41.60
   3   9   7   -0.14   17.04
   3   9   7   15.04   12.35
   3   9   8  122.44   30.65
   3   9   8  123.78   32.87
   3   9   9   47.97   22.64
   3  10  -7   17.78   21.46
   3  10  -6   78.75   31.91
   3  10  -5   57.95   19.65
   3  10  -4   13.34   13.75
   3  10  -4  -29.94   21.38
   3  10  -3   56.72   21.84
   3  10  -3   76.91   30.68
   3  10  -2  135.01   38.09
   3  10  -2   76.75   29.69
   3  10  -1   82.13   26.15
   3  10  -1   96.20   28.07
   3  10   0   12.21   16.68
   3  10   0   42.42   27.66
   3  10   1  586.37   71.32
   3  10   1  456.66   59.30
   3  10   2   44.70   27.44
   3  10   2    3.02   12.46
   3  10   2    7.57   17.31
   3  10   3  242.57   47.72
   3  10   3  146.09   35.40
   3  10   3  203.88   39.57
   3  10   4  234.23   46.68
   3  10   4  240.05   40.91
   3  10   4  295.28   50.33
   3  10   5  -13.34   14.54
   3  10   5   49.58   25.03
   3  10   6  -54.55   22.97
   3  10   6   -5.73   10.13
   3  10   7   34.93   17.97
   3  10   7    7.85   23.68
   3  10   8    9.41   19.54
   3  11  -3   13.97   23.96
   3  11  -2   35.84   25.93
   3  11  -1  174.88   45.80
   3  11   0  122.49   32.38
   3  11   1   20.55   20.20
   3  11   1    3.81    9.33
   3  11   2  168.43   40.75
   3  11   2  121.81   34.22
   3  11   3  -30.32   18.82
   3  11   4   54.06   31.67
   3  11   5   81.41   29.50
   3  12  -1   23.08   23.43
   3  12   0   38.55   23.63
   4 -10   3  113.49   26.40
   4 -10   4   20.42   17.34
   4 -10   5   49.09   20.94
   4 -10   6  134.40   32.02
   4  -9  -4  129.68   37.13
   4  -9  -3  -10.02   18.44
   4  -9  -2  265.26   51.81
   4  -9  -1   40.83   27.30
   4  -9   0    6.94   26.12
   4  -9   1   75.16   29.20
   4  -9   1   86.33   26.15
   4  -9   2   18.88   25.24
   4  -9   2   37.40   16.68
   4  -9   3   -2.99   11.66
   4  -9   3  -10.07   10.56
   4  -9   4   65.33   27.69
   4  -9   4  102.63   27.93
   4  -9   5  456.33   64.13
   4  -9   5  217.19   37.37
   4  -9   6   85.31   27.77
   4  -9   6  -16.49   20.47
   4  -9   7  154.41   37.24
   4  -9   7  133.85   34.08
   4  -9   8   68.85   23.54
   4  -8  -6  163.16   40.14
   4  -8  -5   30.95   17.26
   4  -8  -4   24.89   18.93
   4  -8  -3    7.41   15.75
   4  -8  -2   21.02   15.04
   4  -8  -1  494.25   64.90
   4  -8   0  244.13   44.43
   4  -8   1   62.84   30.73
   4  -8   1   34.00   14.27
   4  -8   2   49.75   29.22
   4  -8   2   65.61   17.26
   4  -8   3  114.32   33.37
   4  -8   3  119.06   22.89
   4  -8   4   86.93   33.59
   4  -8   4   66.79   19.29
   4  -8   5  -10.45   20.47
   4  -8   5    3.16    8.97
   4  -8   6  257.69   44.37
   4  -8   6  230.30   36.58
   4  -8   7   40.36   18.88
   4  -8   7   15.97   10.95
   4  -8   8  220.29   44.67
   4  -8   8  226.76   38.72
   4  -8   9  160.94   35.40
   4  -8   9  243.42   44.23
   4  -8  10  -11.80   20.96
   4  -7  -7   13.50   17.31
   4  -7  -6  108.85   32.00
   4  -7  -5  120.13   33.31
   4  -7  -4   16.13   22.39
   4  -7  -3  223.53   42.07
   4  -7  -2  368.68   52.03
   4  -7  -1   -4.14   14.57
   4  -7   0   51.31   27.69
   4  -7   1  278.71   45.06
   4  -7   1  240.10   29.39
   4  -7   2    1.32   23.90
   4  -7   2    1.29    8.84
   4  -7   3  384.87   51.86
   4  -7   3  362.40   38.47
   4  -7   4  492.08   60.07
   4  -7   4  525.01   47.39
   4  -7   5  154.60   34.27
   4  -7   5  119.09   24.61
   4  -7   6   32.82   18.00
   4  -7   6   44.10   18.82
   4  -7   7  118.79   34.33
   4  -7   7   56.44   21.79
   4  -7   8   -5.41    6.81
   4  -7   8   67.94   24.37
   4  -7   9    8.75    8.67
   4  -7   9    2.09   10.92
   4  -7  10  212.06   37.51
   4  -7  10  133.17   31.83
   4  -7  10  192.00   39.29
   4  -7  11    5.43   24.48
   4  -6  -7  217.52   37.37
   4  -6  -6    9.55   12.57
   4  -6  -5   92.88   27.93
   4  -6  -4  133.96   32.05
   4  -6  -4  151.28   19.46
   4  -6  -3    9.58   16.03
   4  -6  -3   -2.58    2.72
   4  -6  -2  234.04   39.43
   4  -6  -1  422.63   51.18
   4  -6   0   33.42   21.62
   4  -6   1   63.11   22.39
   4  -6   1   66.51   16.33
   4  -6   2  482.67   54.28
   4  -6   2  508.88   40.58
   4  -6   3  727.41   67.89
   4  -6   3  700.60   48.79
   4  -6   4  177.56   32.98
   4  -6   4  175.20   25.60
   4  -6   5  626.46   61.08
   4  -6   5  649.95   51.94
   4  -6   6   29.09   19.43
   4  -6   6   36.77   17.51
   4  -6   7  230.44   37.21
   4  -6   7  258.02   36.08
   4  -6   8  181.21   36.28
   4  -6   8  187.64   35.29
   4  -6   8  251.41   38.22
   4  -6   9  166.20   32.21
   4  -6   9  223.86   37.73
   4  -6   9  234.37   38.17
   4  -6  10  -14.90   11.20
   4  -6  10    0.74   18.28
   4  -6  10    0.58    6.50
   4  -6  11   52.38   26.53
   4  -6  11   86.55   25.57
   4  -5  -9   59.87   27.49
   4  -5  -8   44.43   25.19
   4  -5  -7   11.99   15.81
   4  -5  -7   25.66   22.86
   4  -5  -6  200.01   33.61
   4  -5  -6  193.92   32.93
   4  -5  -6  164.04   31.36
   4  -5  -5   -8.64   14.05
   4  -5  -5  -27.88   15.12
   4  -5  -4  453.91   51.59
   4  -5  -4  485.25   52.22
   4  -5  -4  463.38   39.87
   4  -5  -3  623.38   58.31
   4  -5  -3  574.46   56.64
   4  -5  -3  637.24   37.57
   4  -5  -2   18.58   14.46
   4  -5  -2   11.47   17.04
   4  -5  -2    9.33    5.05
   4  -5  -1  184.75   32.74
   4  -5  -1  183.66   33.15
   4  -5   0   28.73   17.86
   4  -5   0    3.54   10.40
   4  -5   0   11.00   10.29
   4  -5   1  508.44   53.89
   4  -5   1  417.06   47.03
   4  -5   1  423.40   51.81
   4  -5   1  444.28   31.86
   4  -5   2   -6.83   10.95
   4  -5   2    2.33    8.73
   4  -5   2   15.94   21.98
   4  -5   2    3.90    8.40
   4  -5   3 1488.98   90.22
   4  -5   3 1415.99   86.88
   4  -5   3 1303.65   93.41
   4  -5   3 1360.18   60.53
   4  -5   4  716.71   62.92
   4  -5   4  709.02   61.74
   4  -5   4  686.33   45.74
   4  -5   4  796.97   77.44
   4  -5   5    9.47   14.13
   4  -5   5   69.42   22.39
   4  -5   5   48.95   15.45
   4  -5   6  729.85   63.41
   4  -5   6  677.52   61.19
   4  -5   6  619.57   49.83
   4  -5   7   82.32   20.66
   4  -5   7   69.29   20.20
   4  -5   7   51.18   20.14
   4  -5   7   73.84   19.48
   4  -5   8  276.18   39.95
   4  -5   8  240.98   36.47
   4  -5   8  256.56   42.86
   4  -5   9  336.50   41.46
   4  -5   9  395.52   45.69
   4  -5   9  282.50   44.67
   4  -5  10   97.49   23.54
   4  -5  10   72.22   25.05
   4  -5  11  -10.43   20.47
   4  -5  12   32.79   18.63
   4  -4 -10   43.38   31.17
   4  -4  -9  138.08   38.36
   4  -4  -8  314.44   39.07
   4  -4  -7  204.13   30.38
   4  -4  -7  205.86   31.17
   4  -4  -6    2.74    9.80
   4  -4  -6  -11.85   13.23
   4  -4  -5  316.71   39.93
   4  -4  -5  276.76   36.47
   4  -4  -4  108.55   25.85
   4  -4  -4   86.08   23.35
   4  -4  -3  628.13   54.66
   4  -4  -3  523.91   49.94
   4  -4  -2  209.34   33.92
   4  -4  -2  266.64   35.81
   4  -4  -1   -9.66   10.13
   4  -4  -1    4.09    7.33
   4  -4  -1    1.37    3.29
   4  -4   0  231.79   33.70
   4  -4   0  223.91   32.90
   4  -4   0  231.46   36.58
   4  -4   1 1740.66   89.21
   4  -4   1 1635.54   86.05
   4  -4   1 1642.59   94.26
   4  -4   1 1571.80   50.49
   4  -4   2 1374.28   79.77
   4  -4   2 1296.71   76.94
   4  -4   2 1300.69   49.28
   4  -4   2 1334.60   87.56
   4  -4   3   60.01   18.52
   4  -4   3   62.76   19.56
   4  -4   3   81.61   31.53
   4  -4   3   62.87   12.29
   4  -4   4  467.88   47.36
   4  -4   4  434.29   45.72
   4  -4   4  417.28   33.56
   4  -4   4  433.96   54.61
   4  -4   5  253.16   34.55
   4  -4   5  295.06   38.39
   4  -4   5  322.91   48.93
   4  -4   5  249.84   29.03
   4  -4   6   28.46   15.17
   4  -4   6   13.50   10.87
   4  -4   6    1.45   13.25
   4  -4   7  584.12   52.90
   4  -4   7  579.89   52.30
   4  -4   7  579.29   56.06
   4  -4   8  473.56   46.40
   4  -4   8  436.43   45.33
   4  -4   8  368.71   48.10
   4  -4   9   75.35   20.74
   4  -4   9   66.05   18.38
   4  -4   9   65.75   25.90
   4  -4  10  451.80   45.11
   4  -4  10  394.53   42.97
   4  -4  10  420.49   57.40
   4  -4  11   31.56   24.34
   4  -4  12   10.76   15.94
   4  -3 -10   69.04   28.65
   4  -3  -9    3.95   13.67
   4  -3  -8   35.07   12.32
   4  -3  -8   -6.91   12.40
   4  -3  -7  238.89   32.35
   4  -3  -7  262.85   31.47
   4  -3  -7  206.54   17.70
   4  -3  -6   43.03   15.17
   4  -3  -6   64.68   18.80
   4  -3  -6   42.29    8.20
   4  -3  -5  378.21   39.87
   4  -3  -5  392.56   39.62
   4  -3  -5  320.91   23.16
   4  -3  -5  281.12   41.24
   4  -3  -4  654.14   35.10
   4  -3  -4  671.84   51.86
   4  -3  -4  638.04   50.24
   4  -3  -3  230.22   22.83
   4  -3  -3  251.71   33.20
   4  -3  -3  227.67   31.50
   4  -3  -2   75.52   14.35
   4  -3  -2   90.03   18.85
   4  -3  -2   95.38   22.72
   4  -3  -1  775.43   47.33
   4  -3  -1  798.12   57.02
   4  -3  -1  722.41   54.30
   4  -3   0  761.74   49.67
   4  -3   0  844.91   59.24
   4  -3   0  865.08   59.16
   4  -3   0  793.73   28.07
   4  -3   1   23.30   10.26
   4  -3   1   30.24   13.34
   4  -3   1   29.99    6.20
   4  -3   1   17.73    5.63
   4  -3   2 2291.38   96.37
   4  -3   2 2315.39   96.45
   4  -3   2 2272.12   54.08
   4  -3   3  545.59   47.99
   4  -3   3  503.14   46.90
   4  -3   3  482.31   29.00
   4  -3   4  277.34   34.00
   4  -3   4  338.12   37.51
   4  -3   5  701.29   53.26
   4  -3   5  676.07   52.66
   4  -3   5  656.37   65.53
   4  -3   5  681.61   54.08
   4  -3   6  920.34   61.38
   4  -3   6  906.21   60.51
   4  -3   6  885.55   79.60
   4  -3   6  859.20   62.89
   4  -3   7   80.18   18.47
   4  -3   7   70.14   17.78
   4  -3   7  121.81   28.37
   4  -3   8  278.02   33.09
   4  -3   8  261.04   32.32
   4  -3   8  257.06   39.02
   4  -3   9  115.85   21.81
   4  -3   9  121.45   23.19
   4  -3   9  109.40   30.98
   4  -3  10  -10.04    6.72
   4  -3  10   -2.39   11.47
   4  -3  10   -0.82   19.70
   4  -3  11  124.28   22.86
   4  -3  11   95.99   32.21
   4  -3  12  105.40   35.67
   4  -2 -11   23.82   17.95
   4  -2 -10    3.07   16.38
   4  -2  -9  231.84   42.83
   4  -2  -8  200.31   24.48
   4  -2  -8  175.51   23.35
   4  -2  -8  179.46   38.11
   4  -2  -7   32.27   13.25
   4  -2  -7   43.41   15.20
   4  -2  -7   35.59   11.20
   4  -2  -7   33.67   20.42
   4  -2  -6  532.94   43.08
   4  -2  -6  569.74   43.63
   4  -2  -6  565.24   41.22
   4  -2  -6  576.46   56.53
   4  -2  -5   48.46   12.87
   4  -2  -5   40.50   14.02
   4  -2  -5   58.37   13.80
   4  -2  -5   65.25   20.20
   4  -2  -4  174.38   26.53
   4  -2  -4  194.52   27.22
   4  -2  -4  176.85   23.57
   4  -2  -4  161.84   29.06
   4  -2  -3   95.05   18.49
   4  -2  -3  105.21   20.77
   4  -2  -3  120.85   19.26
   4  -2  -3   79.69   19.43
   4  -2  -2   61.58   15.06
   4  -2  -2   46.98   15.70
   4  -2  -2   50.68   15.83
   4  -2  -1  209.50   26.12
   4  -2  -1  231.59   29.75
   4  -2  -1  163.98   25.41
   4  -2   0 2385.28   87.73
   4  -2   0 2234.31   89.04
   4  -2   0 2309.93   87.75
   4  -2   1 6660.50  152.73
   4  -2   1 6398.67   98.70
   4  -2   1 6531.78  150.95
   4  -2   1 6686.71  148.89
   4  -2   2   71.67   17.97
   4  -2   2   82.84   12.57
   4  -2   2   75.87    9.22
   4  -2   2   74.01   18.58
   4  -2   2   79.05   20.17
   4  -2   3  614.71   52.36
   4  -2   3  613.26   37.37
   4  -2   3  585.71   46.10
   4  -2   3  598.47   45.82
   4  -2   4  316.16   34.03
   4  -2   4  264.60   31.14
   4  -2   5  255.66   30.40
   4  -2   5  235.68   30.84
   4  -2   5  183.11   30.27
   4  -2   6 1720.16   79.00
   4  -2   6 1826.30   79.80
   4  -2   6 1741.43  105.53
   4  -2   6 1650.08   84.90
   4  -2   7  666.88   49.28
   4  -2   7  700.24   49.75
   4  -2   7  623.66   66.05
   4  -2   7  658.01   57.54
   4  -2   8    5.24    8.01
   4  -2   8    5.93    8.86
   4  -2   8    4.14   19.10
   4  -2   9   24.04   12.29
   4  -2   9   37.37   12.16
   4  -2   9   18.47   14.35
   4  -2  10  186.04   24.70
   4  -2  10  186.95   23.98
   4  -2  10  208.52   42.20
   4  -2  11  128.50   20.88
   4  -2  11  130.15   38.14
   4  -2  12   38.77   21.54
   4  -1 -11   94.50   32.65
   4  -1 -10   99.85   27.49
   4  -1  -9   25.49   15.78
   4  -1  -9    9.06   10.43
   4  -1  -8  226.02   23.57
   4  -1  -8  214.20   37.07
   4  -1  -8  221.08   31.23
   4  -1  -7  243.64   26.26
   4  -1  -7  251.02   26.29
   4  -1  -7  212.69   34.63
   4  -1  -7  199.52   27.99
   4  -1  -6  293.58   30.43
   4  -1  -6  367.72   33.09
   4  -1  -6  275.44   33.23
   4  -1  -6  387.59   43.52
   4  -1  -6  315.29   43.00
   4  -1  -5  839.64   51.07
   4  -1  -5  815.82   49.50
   4  -1  -5  762.48   51.70
   4  -1  -5  909.01   62.04
   4  -1  -5  899.84   66.90
   4  -1  -4  178.63   24.53
   4  -1  -4  218.09   27.17
   4  -1  -4  190.93   25.16
   4  -1  -4  231.79   31.64
   4  -1  -3    1.65    6.94
   4  -1  -3   13.03    8.81
   4  -1  -3    7.68    5.52
   4  -1  -3   29.80   12.59
   4  -1  -2  218.01   27.33
   4  -1  -2  190.54   25.55
   4  -1  -1 1679.58   73.13
   4  -1   0   25.05   13.12
   4  -1   1  403.09   39.43
   4  -1   1  426.78   29.09
   4  -1   2 2539.58   98.18
   4  -1   2 2411.65   73.24
   4  -1   3  482.84   46.07
   4  -1   3  470.46   35.59
   4  -1   3  478.77   46.21
   4  -1   4 1871.99   92.03
   4  -1   4 1781.68   74.06
   4  -1   4 1805.01   90.55
   4  -1   5 2635.81   89.10
   4  -1   5 2701.39   91.62
   4  -1   5 2452.02  112.50
   4  -1   6    1.73    8.23
   4  -1   6   -5.79    8.20
   4  -1   6   -0.99    9.16
   4  -1   6   -3.70   16.79
   4  -1   7  556.16   42.78
   4  -1   7  605.47   43.44
   4  -1   7  584.06   62.54
   4  -1   7  548.03   52.47
   4  -1   8  159.21   24.89
   4  -1   8  149.69   22.83
   4  -1   8  124.03   31.89
   4  -1   8  123.01   26.32
   4  -1   9   10.18    8.86
   4  -1   9  -12.40   11.17
   4  -1   9   -1.67   15.04
   4  -1  10    5.84    5.27
   4  -1  10    9.63    6.50
   4  -1  10   -1.89   27.03
   4  -1  11  275.17   25.71
   4  -1  11  323.22   49.09
   4  -1  12  109.05   37.13
   4   0 -11   29.83   10.51
   4   0 -10  126.31   28.32
   4   0 -10  137.15   31.86
   4   0  -9  249.21   41.63
   4   0  -9  225.89   37.29
   4   0  -8   33.23    9.36
   4   0  -8   27.49   11.42
   4   0  -8   39.65   16.88
   4   0  -8   27.06   14.13
   4   0  -7  319.21   29.75
   4   0  -7  319.27   29.44
   4   0  -7  344.29   40.97
   4   0  -7  338.86   40.97
   4   0  -6  437.20   35.15
   4   0  -6  381.99   32.60
   4   0  -6  366.11   40.75
   4   0  -6  407.49   42.45
   4   0  -6  437.70   47.25
   4   0  -5   46.65   16.60
   4   0  -5   43.38   13.69
   4   0  -5   56.25   16.08
   4   0  -4  113.44   17.92
   4   0  -4  103.42   21.21
   4   0  -4  132.40   21.84
   4   0  -3  650.38   47.36
   4   0  -3  607.22   43.88
   4   0  -2   -4.58    7.16
   4   0  -2   -4.23    7.57
   4   0  -1 2729.30   95.63
   4   0  -1 2524.82   69.78
   4   0   0 3175.31  105.78
   4   0   1  117.36   23.08
   4   0   1  120.16   19.87
   4   0   1  106.82    8.34
   4   0   2  188.87   28.98
   4   0   2  169.00   24.50
   4   0   2  175.59   22.01
   4   0   3 1437.06   77.27
   4   0   3 1394.97   64.10
   4   0   3 1333.09   69.62
   4   0   4  795.08   60.15
   4   0   4  781.44   51.89
   4   0   4  676.01   52.66
   4   0   5  896.60   65.69
   4   0   5  857.26   58.37
   4   0   5  886.51   63.61
   4   0   6  971.76   72.58
   4   0   7   -6.91   10.15
   4   0   7   -3.87   12.43
   4   0   8  188.76   24.20
   4   0   8  177.40   23.98
   4   0   8  173.53   36.44
   4   0   8  142.55   33.45
   4   0   9  456.82   35.43
   4   0   9  507.26   37.21
   4   0   9  438.08   57.82
   4   0   9  492.25   56.58
   4   0  10  421.64   32.74
   4   0  10  381.61   30.65
   4   0  10  397.11   54.19
   4   0  11   33.50    9.93
   4   0  11   16.49   23.16
   4   0  12  105.73   35.53
   4   1 -11  162.25   34.93
   4   1 -10   24.59   19.81
   4   1 -10  -15.01   24.12
   4   1  -9  181.60   36.96
   4   1  -9  148.70   30.95
   4   1  -8  163.16   19.67
   4   1  -8  152.81   19.84
   4   1  -8  141.67   30.71
   4   1  -8  140.77   28.26
   4   1  -7  121.42   26.81
   4   1  -7   93.65   20.31
   4   1  -6  278.90   38.58
   4   1  -6  272.59   32.90
   4   1  -6  258.21   36.03
   4   1  -5  176.17   29.94
   4   1  -5  186.04   24.59
   4   1  -5  176.55   27.66
   4   1  -4 1173.45   71.23
   4   1  -4 1145.10   51.89
   4   1  -4 1146.28   62.97
   4   1  -3  183.79   29.39
   4   1  -3  115.88   18.93
   4   1  -2 2844.74  102.96
   4   1  -2 2819.96   77.60
   4   1  -1  112.97   23.13
   4   1  -1  115.88   13.75
   4   1   0 1347.88   70.30
   4   1   0 1288.67   37.24
   4   1   0 1357.57   34.25
   4   1   1 2487.36   97.36
   4   1   1 2503.11   54.00
   4   1   1 2604.06   82.90
   4   1   2  604.64   50.33
   4   1   2  562.03   41.32
   4   1   2  554.95   38.61
   4   1   2  528.85   28.51
   4   1   3 2783.49  107.78
   4   1   3 2736.57   94.34
   4   1   3 2695.52   89.13
   4   1   4 1852.23   90.72
   4   1   4 1862.14   83.09
   4   1   4 1771.28   77.85
   4   1   5  119.23   25.16
   4   1   5   98.67   21.18
   4   1   5  128.56   24.09
   4   1   6   13.97   12.73
   4   1   6    5.52    6.39
   4   1   6   -6.06    9.66
   4   1   6    4.25   11.61
   4   1   7   72.22   21.65
   4   1   7   61.38   20.25
   4   1   8  375.44   51.18
   4   1   8  384.33   45.91
   4   1   9   33.92   18.60
   4   1   9   23.65   20.72
   4   1  10  677.91   41.22
   4   1  10  650.17   39.21
   4   1  10  587.44   65.03
   4   1  11  128.56   17.01
   4   1  11   78.59   31.78
   4   1  12   26.48   19.51
   4   2 -11   76.97   28.59
   4   2 -10  234.15   44.59
   4   2 -10  172.98   34.88
   4   2  -9   -5.38   11.55
   4   2  -9   -9.03   15.20
   4   2  -8  472.68   57.62
   4   2  -8  541.86   50.43
   4   2  -7  229.62   39.02
   4   2  -7  222.51   29.75
   4   2  -6   99.28   25.46
   4   2  -6  121.50   19.56
   4   2  -6   95.24   21.35
   4   2  -5   62.48   22.31
   4   2  -5   58.17   13.31
   4   2  -5   82.24   19.70
   4   2  -4  413.30   45.88
   4   2  -4  440.52   28.10
   4   2  -4  420.79   37.24
   4   2  -3  181.96   28.40
   4   2  -3  166.07   21.51
   4   2  -2    8.53   12.24
   4   2  -2   -1.26    5.60
   4   2  -1 1864.91   86.74
   4   2  -1 1829.98   50.35
   4   2   0 2567.05  101.25
   4   2   0 2413.33   63.39
   4   2   0 2522.15   43.00
   4   2   1 1983.20   88.41
   4   2   1 1703.34   54.52
   4   2   2 5233.67  146.97
   4   2   2 4952.19   98.29
   4   2   2 5058.66  129.65
   4   2   2 5319.92  104.93
   4   2   3  920.70   64.40
   4   2   3  858.19   56.69
   4   2   3  718.66   41.74
   4   2   3  861.32   45.47
   4   2   3  932.88   50.68
   4   2   4  763.03   59.52
   4   2   4  714.92   53.95
   4   2   4  696.02   44.92
   4   2   4  777.27   48.65
   4   2   5  304.67   39.57
   4   2   5  299.12   37.84
   4   2   5  275.44   31.67
   4   2   5  298.60   32.46
   4   2   6   -2.58   10.81
   4   2   6   11.00   10.54
   4   2   6  -14.24   10.56
   4   2   6   -7.52   10.65
   4   2   7   -3.46   11.88
   4   2   7   33.04   17.18
   4   2   7   -0.08   13.56
   4   2   8  537.80   56.03
   4   2   8  546.80   55.35
   4   2   9  724.01   70.74
   4   2   9  678.65   64.07
   4   2  10  -42.37   18.58
   4   2  10   10.43   16.52
   4   2  11  162.36   39.90
   4   2  12   18.80   17.75
   4   3 -11   34.52   23.10
   4   3 -10  110.50   39.02
   4   3  -9  166.31   38.17
   4   3  -9  133.69   24.83
   4   3  -8   25.03    9.52
   4   3  -8    4.09   11.63
   4   3  -8   12.59   10.56
   4   3  -7   44.67   22.39
   4   3  -7   59.24   15.39
   4   3  -6  605.88   62.87
   4   3  -6  541.31   38.80
   4   3  -5  139.20   29.72
   4   3  -5   98.70   14.19
   4   3  -4  385.07   47.17
   4   3  -4  458.14   24.92
   4   3  -3 1642.76   90.63
   4   3  -2  557.86   52.05
   4   3  -1  -12.49   15.31
   4   3  -1   -2.33    6.53
   4   3   0  571.93   50.54
   4   3   0  526.49   34.93
   4   3   1 1815.44   88.69
   4   3   1 1725.82   62.84
   4   3   2  491.73   47.50
   4   3   2  457.76   42.59
   4   3   2  430.78   34.03
   4   3   2  447.63   21.95
   4   3   3 4732.67  145.76
   4   3   3 4700.07  138.13
   4   3   3 4763.49   87.59
   4   3   3 4623.65   79.52
   4   3   3 4874.48  112.01
   4   3   4   88.60   23.60
   4   3   4   80.10   19.04
   4   3   4   82.76   13.67
   4   3   4   48.68   14.54
   4   3   5   -7.55   14.60
   4   3   5  -14.38   11.36
   4   3   5   -2.91    4.80
   4   3   5    4.88    4.64
   4   3   5    0.88   11.47
   4   3   6  256.73   36.33
   4   3   6  241.61   36.19
   4   3   6  204.59   27.30
   4   3   6  200.42   30.54
   4   3   7  623.03   58.34
   4   3   7  709.02   65.42
   4   3   7  561.84   50.54
   4   3   7  622.83   55.37
   4   3   8    3.10    9.88
   4   3   8  -16.11   15.67
   4   3   9  347.17   47.22
   4   3   9  429.96   53.40
   4   3  10   63.69   15.06
   4   3  10   74.55   23.74
   4   3  11   27.85   21.81
   4   3  12   49.61   28.32
   4   4 -11    8.04   15.89
   4   4 -10  -19.84   21.18
   4   4  -9   61.08   26.59
   4   4  -9   48.21   14.74
   4   4  -8  477.46   62.21
   4   4  -8  393.66   39.16
   4   4  -7  412.29   38.58
   4   4  -7  439.92   60.20
   4   4  -7  456.03   38.06
   4   4  -6   49.97   25.96
   4   4  -6   46.98   12.90
   4   4  -5  267.98   45.00
   4   4  -5  330.52   25.00
   4   4  -4  232.66   40.14
   4   4  -4  222.24   16.49
   4   4  -3  430.78   49.91
   4   4  -3  426.56   15.92
   4   4  -2 1972.86  101.69
   4   4  -1 1347.75   82.57
   4   4   0  175.48   13.03
   4   4   0  137.06   27.60
   4   4   1 3597.81  129.46
   4   4   1 3593.99   72.69
   4   4   2  280.66   39.02
   4   4   2  298.77   24.50
   4   4   2  282.36   35.62
   4   4   2  313.83   24.89
   4   4   3  116.73   17.56
   4   4   3  104.44   26.04
   4   4   3  109.13   18.00
   4   4   3  112.34   24.61
   4   4   3  101.99   19.78
   4   4   3  131.74   17.07
   4   4   4    0.80    9.58
   4   4   4  -10.24   15.50
   4   4   4   14.13    9.91
   4   4   4   -1.54    3.95
   4   4   4    7.33    4.58
   4   4   4   -1.95   11.99
   4   4   4   -0.63    4.09
   4   4   5  370.85   43.71
   4   4   5  377.82   45.25
   4   4   5  401.67   29.91
   4   4   5  463.60   43.82
   4   4   5  394.75   34.25
   4   4   5  435.01   39.68
   4   4   6    3.79   11.17
   4   4   6    7.41   13.61
   4   4   6    2.44    8.48
   4   4   6    5.41   11.99
   4   4   6   -3.13   10.18
   4   4   7  913.10   70.33
   4   4   7  915.68   69.12
   4   4   7  944.76   61.82
   4   4   7  913.34   66.46
   4   4   8  495.24   51.81
   4   4   8  583.84   53.10
   4   4   8  637.08   60.64
   4   4   9  -14.02    9.47
   4   4   9   22.20   11.58
   4   4   9    8.53   13.56
   4   4  10   73.84   18.30
   4   4  10   66.98   24.34
   4   4  10   64.87   21.62
   4   4  11  107.32   29.61
   4   4  12   28.46   16.27
   4   5 -10   55.07   31.25
   4   5  -9  -52.16   24.81
   4   5  -8   12.16   18.55
   4   5  -8   38.53   16.35
   4   5  -7  215.35   42.86
   4   5  -7  250.23   28.73
   4   5  -7  184.32   28.62
   4   5  -6  543.53   68.11
   4   5  -6  531.49   36.39
   4   5  -6  511.24   47.55
   4   5  -5   -0.25   11.20
   4   5  -5   11.69    4.66
   4   5  -5   18.88   12.51
   4   5  -4  246.66   41.08
   4   5  -4  239.52   18.77
   4   5  -3  880.91   33.31
   4   5  -3  915.98   75.84
   4   5  -2  104.44   27.17
   4   5  -2  102.10   10.84
   4   5  -1 2851.08  125.81
   4   5  -1 2919.05   60.42
   4   5  -1 3082.43  103.50
   4   5   0 1278.60   82.73
   4   5   0 1281.67   45.03
   4   5   0 1190.05   64.51
   4   5   1 1037.51   73.59
   4   5   1  941.17   44.45
   4   5   1  890.54   56.31
   4   5   2  848.75   66.79
   4   5   2  825.70   46.32
   4   5   2  872.32   65.33
   4   5   2  902.23   58.31
   4   5   2  862.11   49.58
   4   5   3  298.38   40.69
   4   5   3  300.96   32.13
   4   5   3  293.39   39.90
   4   5   3  328.90   37.26
   4   5   3  257.61   28.02
   4   5   4   97.22   17.59
   4   5   4   78.92   17.23
   4   5   4   89.59   23.21
   4   5   4  115.03   25.66
   4   5   4  100.27   22.23
   4   5   4  103.42   18.66
   4   5   5   32.52   12.21
   4   5   5   23.32   12.98
   4   5   5   57.43   20.28
   4   5   5   37.48    7.22
   4   5   5   25.22   14.43
   4   5   5   36.47   12.18
   4   5   5   12.95    9.36
   4   5   6  834.23   66.68
   4   5   6  896.22   67.37
   4   5   6  929.20   76.64
   4   5   6  858.68   43.74
   4   5   6  831.11   58.15
   4   5   6  964.63   63.50
   4   5   7   53.29   17.40
   4   5   7   81.72   21.46
   4   5   7   95.02   19.26
   4   5   7   56.22   20.11
   4   5   7   91.24   21.57
   4   5   8  141.87   31.58
   4   5   8  154.57   26.56
   4   5   8  139.83   24.15
   4   5   8  158.19   29.85
   4   5   9   89.18   21.24
   4   5   9  109.92   28.48
   4   5   9   98.43   24.72
   4   5  10    6.72   19.07
   4   5  11   87.23   29.33
   4   5  12  196.31   43.93
   4   6  -9  164.15   53.43
   4   6  -8  167.99   29.31
   4   6  -8  208.90   49.15
   4   6  -7   57.65   19.04
   4   6  -7   93.93   29.99
   4   6  -7   79.66   15.92
   4   6  -6   71.70   23.21
   4   6  -6  110.20   17.10
   4   6  -6  115.36   33.67
   4   6  -5  161.40   29.25
   4   6  -5  223.28   44.81
   4   6  -4  209.92   33.09
   4   6  -4  258.32   47.03
   4   6  -3  435.86   48.13
   4   6  -3  405.81   28.35
   4   6  -3  456.27   58.47
   4   6  -2 1266.25   79.71
   4   6  -2 1111.57   85.67
   4   6  -2 1269.79   49.56
   4   6  -1    5.16    8.67
   4   6  -1   20.66    7.60
   4   6   0 1329.53   90.11
   4   6   0 1219.33   53.43
   4   6   0 1252.97   71.67
   4   6   1 1400.65   89.65
   4   6   1 1361.77   60.97
   4   6   1 1437.26   86.35
   4   6   1 1455.92   78.01
   4   6   2    9.33   10.07
   4   6   2   15.17   18.82
   4   6   2   10.78   12.68
   4   6   2   23.46   16.60
   4   6   2   21.90   11.47
   4   6   3   87.42   19.78
   4   6   3   79.80   21.27
   4   6   3   76.34   22.12
   4   6   3   80.51   20.22
   4   6   3   88.16   18.14
   4   6   4  202.43   31.12
   4   6   4  188.95   35.56
   4   6   4  211.43   35.23
   4   6   4  254.51   41.41
   4   6   4  236.84   35.29
   4   6   4  209.42   24.45
   4   6   4  221.94   30.05
   4   6   5   13.97   12.07
   4   6   5   22.97   10.51
   4   6   5   -3.70    7.85
   4   6   5   18.30   16.35
   4   6   5   10.32    8.81
   4   6   5   -1.95    3.07
   4   6   6  371.65   46.54
   4   6   6  409.41   49.17
   4   6   6  376.67   45.47
   4   6   6  385.86   18.52
   4   6   6  376.70   16.79
   4   6   6  396.18   43.82
   4   6   6  369.89   39.35
   4   6   7  372.01   45.82
   4   6   7  356.31   43.36
   4   6   7  369.04   30.10
   4   6   7  391.82   42.26
   4   6   7  334.30   42.29
   4   6   8   81.28   23.98
   4   6   8   57.62   19.26
   4   6   8  111.98   22.42
   4   6   8   48.93   18.77
   4   6   8   99.17   23.85
   4   6   9   15.50   12.07
   4   6   9    8.45   14.63
   4   6   9   -8.75    8.95
   4   6  10  201.93   32.02
   4   6  10  170.73   38.42
   4   6  11   39.13   16.46
   4   6  12   52.77   26.42
   4   7  -8  186.73   46.54
   4   7  -8   94.53   22.25
   4   7  -7  227.29   51.07
   4   7  -7  166.75   33.07
   4   7  -6  -18.06   18.28
   4   7  -5  392.37   58.17
   4   7  -4  395.44   58.26
   4   7  -3   40.61   26.56
   4   7  -3   43.79   11.42
   4   7  -2  356.86   52.41
   4   7  -2  378.04   32.65
   4   7  -1  965.09   82.46
   4   7  -1  864.09   49.69
   4   7   0  -12.87   15.50
   4   7   0   -0.05    6.86
   4   7   1  132.54   21.27
   4   7   1  109.76   29.44
   4   7   2  173.61   25.99
   4   7   2  165.27   34.60
   4   7   2  165.60   31.17
   4   7   2  207.15   30.71
   4   7   3  304.64   45.50
   4   7   3  371.62   41.43
   4   7   3  405.98   44.18
   4   7   4  312.60   39.10
   4   7   4  306.40   45.91
   4   7   4  286.78   39.54
   4   7   5  686.91   64.59
   4   7   5  562.74   55.68
   4   7   5  693.66   60.72
   4   7   5  714.21   46.81
   4   7   6   42.64   20.33
   4   7   6   20.96   11.14
   4   7   6   26.73   18.52
   4   7   7    1.10    7.00
   4   7   7  -10.67   13.06
   4   7   7    6.31    6.94
   4   7   8  115.19   24.97
   4   7   8   86.00   21.68
   4   7   8   41.32   20.72
   4   7   9   83.50   25.74
   4   7   9   54.28   17.95
   4   7   9   61.47   19.32
   4   7   9  116.48   30.68
   4   7  10   60.64   19.18
   4   7  10   31.45   15.26
   4   7  11   63.52   22.25
   4   8  -7   14.71   10.21
   4   8  -6  364.76   52.27
   4   8  -6  343.49   62.51
   4   8  -5  180.80   48.73
   4   8  -4  400.08   60.42
   4   8  -3  683.97   48.95
   4   8  -3  730.37   80.70
   4   8  -2   54.08   15.89
   4   8  -2   -2.66    5.52
   4   8  -1  451.20   59.96
   4   8  -1  450.62   41.41
   4   8   0  188.87   38.33
   4   8   0  184.67   26.86
   4   8   1  355.84   39.54
   4   8   1  341.22   48.98
   4   8   2   11.42    5.98
   4   8   2   33.67   16.66
   4   8   2   18.88   17.37
   4   8   3  255.33   36.55
   4   8   3  261.67   44.23
   4   8   3  200.89   34.79
   4   8   4   38.83   16.52
   4   8   4   54.19   25.11
   4   8   4   90.80   23.21
   4   8   5   -2.94    9.49
   4   8   5   31.45   13.88
   4   8   5    1.59   12.02
   4   8   6  198.56   37.37
   4   8   6  204.65   26.07
   4   8   6  135.39   32.43
   4   8   7   97.17   24.92
   4   8   7  118.49   31.72
   4   8   7   96.15   21.40
   4   8   8    9.14    8.12
   4   8   8   13.09    8.92
   4   8   9  153.97   35.37
   4   8   9  144.88   29.09
   4   8   9  196.86   39.27
   4   9  -7   71.23   23.08
   4   9  -6  -51.29   28.29
   4   9  -5  393.71   56.77
   4   9  -5  441.70   73.59
   4   9  -4  179.76   37.57
   4   9  -4  182.59   48.29
   4   9  -3  255.82   45.93
   4   9  -3  178.69   47.58
   4   9  -2  473.29   64.40
   4   9  -1   36.25   13.58
   4   9  -1   28.32   18.47
   4   9   0  111.93   22.80
   4   9   0   32.49   18.69
   4   9   1  207.31   32.65
   4   9   1  170.49   35.97
   4   9   2   84.54   21.84
   4   9   2   68.19   24.28
   4   9   2   51.48   21.05
   4   9   3  -14.90   14.30
   4   9   3   17.64   15.64
   4   9   4  357.54   52.30
   4   9   4  356.91   51.78
   4   9   5  168.18   39.16
   4   9   5  202.56   38.94
   4   9   5  141.89   31.83
   4   9   6    7.24   19.37
   4   9   6   16.63   16.24
   4   9   6    9.11   15.64
   4   9   7   76.72   26.51
   4   9   7  119.45   34.99
   4   9   8   56.99   22.78
   4   9   8   74.80   28.92
   4   9   9   79.49   26.37
   4   9   9   44.48   29.42
   4  10  -6   62.40   23.38
   4  10  -5   77.98   34.14
   4  10  -4   94.92   29.99
   4  10  -4   93.08   38.14
   4  10  -3  125.62   32.21
   4  10  -3   23.98   22.06
   4  10  -2   41.13   20.74
   4  10  -2   15.53   19.56
   4  10  -1  276.93   48.82
   4  10  -1  244.00   47.88
   4  10   0   95.24   30.79
   4  10   0  122.00   33.56
   4  10   1   18.88   15.61
   4  10   1   57.62   26.40
   4  10   2  245.53   49.17
   4  10   2  276.24   52.58
   4  10   2  298.74   49.83
   4  10   3   79.63   34.44
   4  10   3  126.80   35.53
   4  10   3   33.31   16.77
   4  10   4    2.80    8.81
   4  10   4  -15.56   24.34
   4  10   4    9.00   22.47
   4  10   5   40.78   25.68
   4  10   5   14.02   15.78
   4  10   6  113.63   32.35
   4  10   6   65.17   26.42
   4  10   7   19.62   19.89
   4  10   7    4.06   13.20
   4  10   8  187.88   41.41
   4  10   8  133.83   39.65
   4  11  -2   21.38   20.42
   4  11  -1   40.69   26.45
   4  11   0   33.34   21.35
   4  11   1   76.64   30.60
   4  11   1   26.42   15.26
   4  11   2    9.60   16.41
   4  11   2    0.16   11.55
   4  11   3   66.71   22.39
   4  11   3  112.48   34.27
   4  11   4  256.29   47.94
   4  11   5   58.45   33.86
   4  11   6   13.86   20.06
   4  12   0    4.83   11.33
   4  12   1   -0.16   29.11
   5  -8  -5   28.46   20.17
   5  -8  -4   28.13   28.51
   5  -8  -3   63.17   29.66
   5  -8  -2  381.47   56.61
   5  -8  -1   61.00   30.29
   5  -8   0   52.99   28.65
   5  -8   1   70.66   27.19
   5  -8   2   42.70   19.32
   5  -8   2  -15.12   11.06
   5  -8   3   99.58   29.22
   5  -8   3   79.03   20.74
   5  -8   4  170.16   39.84
   5  -8   4  172.79   27.96
   5  -8   5  262.93   47.33
   5  -8   5  196.47   32.74
   5  -8   6    8.40   20.77
   5  -8   6  -20.42   18.06
   5  -8   7  231.05   44.43
   5  -8   7  158.93   31.23
   5  -8   8   54.88   28.32
   5  -8   8   92.97   24.28
   5  -8   9   37.92   23.82
   5  -8   9   31.12   18.66
   5  -7  -6   20.55   19.32
   5  -7  -5   29.61   22.09
   5  -7  -4   38.91   23.54
   5  -7  -3  159.62   36.11
   5  -7  -2   45.25   20.91
   5  -7  -1  627.20   71.01
   5  -7   0   41.27   27.69
   5  -7   1  354.09   51.83
   5  -7   1  288.26   30.76
   5  -7   2  278.08   48.54
   5  -7   2  276.73   30.95
   5  -7   3  100.10   32.52
   5  -7   3  115.74   20.85
   5  -7   4   24.94   21.92
   5  -7   4   -3.16   12.43
   5  -7   5   73.07   24.83
   5  -7   5   53.48   18.28
   5  -7   6   65.91   25.38
   5  -7   6   57.10   17.92
   5  -7   7    4.45   14.65
   5  -7   7  -12.51   16.11
   5  -7   8  130.70   34.49
   5  -7   8   47.80   19.10
   5  -7   9  194.99   41.49
   5  -7   9  168.10   35.59
   5  -7  10  -35.18   18.14
   5  -7  10    6.06   11.83
   5  -6  -7   10.65   11.91
   5  -6  -6   10.43   14.10
   5  -6  -5   45.80   19.04
   5  -6  -4    0.25   11.50
   5  -6  -3  548.61   61.80
   5  -6  -2  431.03   54.19
   5  -6  -1   18.36   18.55
   5  -6   0  103.34   28.13
   5  -6   1   63.41   30.54
   5  -6   1   55.48   13.12
   5  -6   2  153.31   33.37
   5  -6   2  128.97   19.07
   5  -6   3  657.44   69.04
   5  -6   3  715.28   46.70
   5  -6   4  285.54   48.13
   5  -6   4  219.05   27.47
   5  -6   5    8.86   17.29
   5  -6   5   17.07   14.65
   5  -6   6  184.10   38.72
   5  -6   6  180.91   28.29
   5  -6   7  152.73   34.38
   5  -6   7  124.80   27.14
   5  -6   8   48.87   19.02
   5  -6   8   68.13   19.98
   5  -6   9   43.22   21.84
   5  -6   9   42.12   15.83
   5  -6  10  107.43   30.38
   5  -6  10   43.19   25.38
   5  -6  10  141.18   30.57
   5  -6  11   -2.36   20.09
   5  -6  11   39.82   18.00
   5  -5  -7   49.75   18.08
   5  -5  -6   27.06   16.24
   5  -5  -6   24.34   18.99
   5  -5  -5  136.27   27.74
   5  -5  -4  237.85   40.12
   5  -5  -4  219.74   28.62
   5  -5  -3  105.29   27.52
   5  -5  -3   55.59   14.41
   5  -5  -2  382.65   49.56
   5  -5  -2  408.94   19.95
   5  -5  -1   32.24   19.32
   5  -5   0   36.82   17.45
   5  -5   1  306.07   45.30
   5  -5   1  370.74   27.33
   5  -5   2  638.86   61.80
   5  -5   2  652.20   37.13
   5  -5   3  222.40   39.35
   5  -5   3  205.88   23.19
   5  -5   4  287.35   41.46
   5  -5   4  284.20   29.09
   5  -5   5  283.18   43.88
   5  -5   5  249.81   29.53
   5  -5   6    2.91    7.66
   5  -5   6   37.54   15.89
   5  -5   7  361.58   39.24
   5  -5   7  309.36   43.16
   5  -5   8  332.05   45.91
   5  -5   9   -4.75   13.09
   5  -5   9  -23.13   14.46
   5  -5  10  135.03   37.37
   5  -5  10  215.24   35.07
   5  -5  11   59.63   28.48
   5  -4  -7   86.99   23.10
   5  -4  -6  240.07   36.25
   5  -4  -5   13.58   12.51
   5  -4  -5    4.88   12.51
   5  -4  -4  533.22   54.94
   5  -4  -4  502.98   51.64
   5  -4  -3  504.13   53.84
   5  -4  -3  630.87   58.61
   5  -4  -2   26.42   16.11
   5  -4  -2   35.70   17.20
   5  -4  -1  401.81   48.40
   5  -4  -1  506.27   51.59
   5  -4   0   74.99   25.44
   5  -4   0   24.78   19.43
   5  -4   0   59.46   24.39
   5  -4   1   56.14   20.09
   5  -4   1   61.44   19.32
   5  -4   1    9.36   19.48
   5  -4   2  391.76   45.80
   5  -4   2  387.07   45.77
   5  -4   2  409.79   24.83
   5  -4   2  453.01   57.05
   5  -4   3  532.97   55.02
   5  -4   3  620.39   57.02
   5  -4   3  520.84   59.90
   5  -4   3  526.66   32.43
   5  -4   4  219.08   35.10
   5  -4   4  188.98   34.14
   5  -4   4  166.86   20.53
   5  -4   5   42.92   17.29
   5  -4   5   38.99   18.03
   5  -4   5   30.07    9.44
   5  -4   6 1312.79   85.28
   5  -4   6 1199.43   80.13
   5  -4   7  278.46   39.60
   5  -4   7  287.98   42.04
   5  -4   7  271.90   41.05
   5  -4   8  262.85   36.58
   5  -4   8  270.42   39.13
   5  -4   8  244.22   38.47
   5  -4   9  179.43   32.19
   5  -4   9  171.67   38.86
   5  -4  10   41.71   17.59
   5  -4  10   52.68   22.69
   5  -4  11  178.99   31.09
   5  -4  11  182.04   39.07
   5  -3  -7    6.83   13.34
   5  -3  -6  278.00   25.05
   5  -3  -6  291.80   36.47
   5  -3  -6  219.74   31.42
   5  -3  -5  992.40   50.43
   5  -3  -5  976.92   68.30
   5  -3  -5  999.70   67.97
   5  -3  -4  122.63   18.60
   5  -3  -4  108.55   25.79
   5  -3  -4  108.75   23.57
   5  -3  -3  173.48   23.13
   5  -3  -3  135.31   25.52
   5  -3  -3  171.42   28.76
   5  -3  -2  130.83   22.91
   5  -3  -2  123.34   29.25
   5  -3  -2  173.78   30.65
   5  -3  -1   70.60   18.14
   5  -3  -1   65.55   18.47
   5  -3  -1   63.47   19.70
   5  -3   0 1411.24   76.15
   5  -3   0 1291.85   46.04
   5  -3   0 1333.67   87.95
   5  -3   0 1360.45   80.40
   5  -3   0 1340.23   78.62
   5  -3   1 1549.10   83.23
   5  -3   1 1591.39   87.18
   5  -3   1 1356.97   79.82
   5  -3   1 1513.29   48.08
   5  -3   1 1421.15   90.25
   5  -3   2    9.22    9.44
   5  -3   2    0.71   10.21
   5  -3   2   -6.83   10.65
   5  -3   2   -6.12    4.09
   5  -3   2   -0.85    4.09
   5  -3   3   91.21   23.90
   5  -3   3  100.16   23.13
   5  -3   3   67.06   22.97
   5  -3   3   54.52   10.59
   5  -3   4  298.03   38.80
   5  -3   4  318.09   39.49
   5  -3   4  283.70   45.41
   5  -3   5  343.91   42.07
   5  -3   5  341.71   41.60
   5  -3   5  419.37   55.46
   5  -3   6   38.36   19.92
   5  -3   6   56.36   20.96
   5  -3   7 1043.02   71.23
   5  -3   7 1120.30   72.94
   5  -3   7  863.76   71.10
   5  -3   8  127.38   27.25
   5  -3   8  140.16   27.11
   5  -3   8  148.01   33.26
   5  -3   9  201.05   31.06
   5  -3   9  194.77   30.84
   5  -3   9  106.00   30.21
   5  -3  10  185.93   29.64
   5  -3  10  225.12   33.92
   5  -3  10  240.13   45.00
   5  -3  11   19.29    9.93
   5  -3  11   17.67   19.04
   5  -3  12   31.69   27.47
   5  -2  -7  182.94   27.39
   5  -2  -7  152.62   24.64
   5  -2  -7  194.39   26.86
   5  -2  -6    7.52   10.95
   5  -2  -6   23.08   14.30
   5  -2  -6    0.69   14.63
   5  -2  -5  559.45   49.61
   5  -2  -5  636.69   52.44
   5  -2  -5  615.43   47.09
   5  -2  -5  659.11   64.35
   5  -2  -4  665.92   53.70
   5  -2  -4  701.97   54.66
   5  -2  -4  606.76   47.25
   5  -2  -4  621.79   58.20
   5  -2  -3  102.68   22.58
   5  -2  -3  149.85   26.04
   5  -2  -3  125.46   24.56
   5  -2  -2  162.03   26.34
   5  -2  -2  158.96   26.53
   5  -2  -2  152.05   26.04
   5  -2  -1  833.41   57.29
   5  -2  -1  792.55   58.28
   5  -2  -1  901.60   60.53
   5  -2   0  127.90   23.32
   5  -2   0  121.29   23.57
   5  -2   0  130.59   25.11
   5  -2   1  374.36   41.93
   5  -2   1  366.65   28.78
   5  -2   1  398.24   41.32
   5  -2   1  429.96   42.37
   5  -2   2  991.55   69.53
   5  -2   2  868.42   22.09
   5  -2   2  836.10   44.29
   5  -2   2  884.59   62.10
   5  -2   2  900.45   60.92
   5  -2   3  132.26   28.29
   5  -2   3  130.42   24.83
   5  -2   3  149.11   26.97
   5  -2   3  113.57   18.17
   5  -2   3  124.88   28.35
   5  -2   4  501.96   47.42
   5  -2   4  478.66   45.36
   5  -2   4  437.53   37.21
   5  -2   4  469.01   53.86
   5  -2   5 1547.07   81.91
   5  -2   5 1499.55   79.60
   5  -2   5 1468.51   96.53
   5  -2   6  549.54   49.23
   5  -2   6  576.46   50.24
   5  -2   6  591.94   63.83
   5  -2   6  509.18   51.31
   5  -2   7  156.98   27.77
   5  -2   7  146.50   27.82
   5  -2   7  138.13   29.09
   5  -2   8  190.38   28.76
   5  -2   8  233.21   32.65
   5  -2   8  184.42   37.18
   5  -2   9   29.39   13.88
   5  -2   9   58.64   19.29
   5  -2   9   74.47   26.78
   5  -2  10    3.27    4.83
   5  -2  10   24.56   18.17
   5  -2  11  168.37   26.04
   5  -2  11  197.02   42.09
   5  -2  12  113.35   30.84
   5  -1 -10   11.44   21.92
   5  -1  -9  140.11   34.22
   5  -1  -8   69.20   15.45
   5  -1  -8   66.51   23.76
   5  -1  -8   94.48   22.80
   5  -1  -7  146.94   24.75
   5  -1  -7  170.70   26.18
   5  -1  -7  168.87   30.05
   5  -1  -6  809.29   56.09
   5  -1  -6  816.45   56.14
   5  -1  -6  730.35   56.97
   5  -1  -5   85.37   22.34
   5  -1  -5   93.79   22.39
   5  -1  -5   77.02   20.77
   5  -1  -5   92.47   22.20
   5  -1  -4  281.48   33.83
   5  -1  -4  275.94   34.08
   5  -1  -4  228.22   32.65
   5  -1  -4  262.16   36.28
   5  -1  -3   80.76   18.17
   5  -1  -3  113.14   23.68
   5  -1  -3   53.07   16.16
   5  -1  -3   80.98   19.76
   5  -1  -2    8.78    7.82
   5  -1  -1  950.96   63.17
   5  -1   0 1255.96   73.81
   5  -1   1  944.21   65.91
   5  -1   1  898.14   47.97
   5  -1   1 1044.23   69.45
   5  -1   2   84.98   24.06
   5  -1   2   65.77   17.12
   5  -1   2   81.36   15.89
   5  -1   2   69.37    7.30
   5  -1   3 1062.67   72.91
   5  -1   3  966.00   54.55
   5  -1   3 1027.63   70.52
   5  -1   4 1861.51   80.92
   5  -1   4 1911.50  100.18
   5  -1   5  322.81   45.80
   5  -1   5  241.20   32.52
   5  -1   5  269.93   39.90
   5  -1   5  255.44   35.64
   5  -1   6 1500.70   75.60
   5  -1   6 1475.56   76.91
   5  -1   6 1482.01   96.78
   5  -1   6 1355.07   80.37
   5  -1   7   17.73   14.68
   5  -1   7   -9.82   11.06
   5  -1   7   12.90   12.76
   5  -1   7    2.63   10.95
   5  -1   8  324.07   37.54
   5  -1   8  303.13   34.46
   5  -1   8  250.61   41.54
   5  -1   9  334.77   37.81
   5  -1   9  305.66   35.67
   5  -1   9  322.15   47.53
   5  -1  10  337.07   35.97
   5  -1  10  350.55   38.11
   5  -1  10  334.58   51.53
   5  -1  11   12.38    7.46
   5  -1  11   27.00   22.94
   5  -1  12   68.60   20.66
   5   0 -10   67.75   22.89
   5   0  -9   15.04   15.61
   5   0  -9    0.63    5.71
   5   0  -8  304.91   30.98
   5   0  -8  341.55   43.71
   5   0  -8  318.88   43.38
   5   0  -7   85.26   18.91
   5   0  -7   89.18   18.80
   5   0  -7   90.06   23.05
   5   0  -7  141.78   31.91
   5   0  -6  237.33   29.64
   5   0  -6  235.68   28.84
   5   0  -6  283.70   39.02
   5   0  -6  227.70   36.50
   5   0  -5  669.87   57.32
   5   0  -5  571.74   54.58
   5   0  -4  337.57   41.71
   5   0  -4  386.00   40.01
   5   0  -3  733.36   57.71
   5   0  -3  583.95   46.59
   5   0  -2 1396.95   77.93
   5   0  -2 1462.67   65.20
   5   0  -1   19.43   11.14
   5   0   0    8.59    6.81
   5   0   1   27.00   15.28
   5   0   1   22.58   12.32
   5   0   1   14.49    3.84
   5   0   2  687.57   58.58
   5   0   2  660.26   26.07
   5   0   2  693.52   46.90
   5   0   2  696.79   52.82
   5   0   3    4.61   13.67
   5   0   3   -2.36   10.34
   5   0   3  -17.07    9.63
   5   0   4 3857.25  142.94
   5   0   4 3778.75  120.76
   5   0   4 3789.91  131.74
   5   0   5 2441.10  117.36
   5   0   5 2286.75   99.80
   5   0   5 2225.42  106.74
   5   0   6   -7.82   16.77
   5   0   6    2.80   13.47
   5   0   6  -10.59   11.63
   5   0   6    1.67   15.94
   5   0   7  343.99   46.98
   5   0   7  431.69   47.03
   5   0   8   90.14   24.94
   5   0   8   18.06   15.39
   5   0   9   48.60   14.71
   5   0   9   34.79   14.43
   5   0   9   32.54   20.36
   5   0  10  342.70   35.81
   5   0  10  370.28   37.40
   5   0  10  278.52   47.03
   5   0  11  122.88   21.54
   5   0  11  125.87   36.47
   5   0  12   -8.37   22.75
   5   1 -10   79.47   29.77
   5   1  -9   38.06   15.81
   5   1  -9   19.98   12.43
   5   1  -8  156.77   21.62
   5   1  -8  135.61   32.16
   5   1  -8  116.35   23.41
   5   1  -7  348.68   48.95
   5   1  -7  317.29   38.53
   5   1  -6  455.64   41.27
   5   1  -6  381.83   47.44
   5   1  -6  408.86   46.57
   5   1  -5   10.43   14.49
   5   1  -5    0.96    6.53
   5   1  -4  764.70   62.92
   5   1  -4  786.27   55.24
   5   1  -3   58.09   19.10
   5   1  -3   65.09   14.16
   5   1  -2  285.68   37.98
   5   1  -2  277.42   26.86
   5   1  -1 1682.90   87.42
   5   1  -1 1505.99   52.11
   5   1   0  721.81   58.80
   5   1   1   21.87   15.89
   5   1   1   10.04    5.54
   5   1   2 1181.51   76.97
   5   1   2 1118.59   63.25
   5   1   2 1043.96   40.14
   5   1   2 1144.94   62.87
   5   1   3 1518.20   76.23
   5   1   3 1411.27   53.34
   5   1   3 1479.82   73.40
   5   1   4  -15.09   14.76
   5   1   4   -7.57   10.59
   5   1   4   -0.27    7.35
   5   1   5  888.78   70.60
   5   1   5  871.83   64.21
   5   1   5  861.43   62.37
   5   1   5  831.30   58.53
   5   1   6  261.59   41.43
   5   1   6  267.68   38.91
   5   1   6  237.05   36.08
   5   1   6  242.02   33.86
   5   1   7   -0.88    9.80
   5   1   7    0.60    4.34
   5   1   7   21.84   16.33
   5   1   7   14.95   20.44
   5   1   8  497.32   58.83
   5   1   8  490.90   53.67
   5   1   9  661.99   71.87
   5   1   9  684.47   65.91
   5   1  10    4.25   11.09
   5   1  11   62.56   16.33
   5   1  11  107.51   32.90
   5   1  12  -10.51   13.75
   5   2 -10  -19.56   24.50
   5   2  -9  176.41   40.31
   5   2  -8   44.95   20.17
   5   2  -8   64.07   17.18
   5   2  -7   74.75   18.22
   5   2  -7   63.74   26.40
   5   2  -6  436.63   54.63
   5   2  -6  410.39   35.62
   5   2  -6  424.83   47.06
   5   2  -5   80.87   23.54
   5   2  -5  106.03   17.01
   5   2  -5  100.98   21.05
   5   2  -4   24.42   19.98
   5   2  -4   58.94   15.26
   5   2  -3 1001.92   73.76
   5   2  -3  959.52   53.51
   5   2  -2  876.05   66.79
   5   2  -2  870.04   44.18
   5   2  -1  407.02   46.10
   5   2  -1  413.96   25.52
   5   2   0    9.33   10.62
   5   2   0    8.81    7.22
   5   2   0    5.82    3.32
   5   2   1 1432.23   84.19
   5   2   1 1276.40   48.65
   5   2   2  197.60   33.75
   5   2   2  138.16   17.31
   5   2   2  173.89   27.63
   5   2   2  153.88   22.61
   5   2   3 5203.87  165.27
   5   2   3 5475.97  152.29
   5   2   3 5245.12  124.66
   5   2   3 4886.78  108.50
   5   2   4 1796.06   98.87
   5   2   4 1959.36   94.53
   5   2   4 1790.03   77.22
   5   2   5   -8.26   11.06
   5   2   5   -4.39    8.84
   5   2   5    9.80    9.16
   5   2   5   -3.10    7.74
   5   2   6   45.47   18.88
   5   2   6   21.10   11.36
   5   2   6    9.82   14.63
   5   2   6   44.92   17.75
   5   2   7  306.51   44.29
   5   2   7  366.90   47.88
   5   2   7  325.82   43.66
   5   2   7  357.32   42.83
   5   2   8   29.17   23.63
   5   2   8   63.06   19.48
   5   2   8   42.72   18.71
   5   2   9  207.36   38.86
   5   2   9  176.93   36.39
   5   2  10  174.66   38.03
   5   2  11   37.98   20.50
   5   2  12    3.68   11.69
   5   3 -11    7.99   13.99
   5   3 -10    6.83   25.38
   5   3  -9  -11.52   27.93
   5   3  -8  367.07   57.05
   5   3  -8  378.21   38.47
   5   3  -7  310.68   48.93
   5   3  -7  320.66   31.83
   5   3  -6   58.47   11.88
   5   3  -6   29.09   17.51
   5   3  -6   64.24   18.52
   5   3  -5  681.09   32.93
   5   3  -5  623.71   66.51
   5   3  -5  687.24   55.81
   5   3  -4   79.03   20.94
   5   3  -4  111.43   20.09
   5   3  -3  187.80   33.75
   5   3  -3  148.53   22.09
   5   3  -2  -14.38   19.43
   5   3  -1 1059.46   75.08
   5   3   0  933.37   70.93
   5   3   0  887.71   46.24
   5   3   1  919.16   69.29
   5   3   1  949.48   48.27
   5   3   2 2974.56  125.79
   5   3   2 2757.34  111.30
   5   3   2 2659.66   83.45
   5   3   3   13.39   15.53
   5   3   3   24.53   11.99
   5   3   3   -5.32    6.81
   5   3   4  764.45   65.77
   5   3   4  776.72   63.00
   5   3   4  677.03   41.79
   5   3   4  732.24   49.89
   5   3   4  685.48   49.50
   5   3   5  785.09   67.72
   5   3   5  963.53   72.06
   5   3   5  742.53   53.43
   5   3   5  770.13   49.04
   5   3   5  811.05   56.61
   5   3   6   -0.11    7.68
   5   3   6   14.30   13.91
   5   3   6    8.64   10.10
   5   3   6    1.13    8.29
   5   3   6    2.00    9.52
   5   3   7  543.78   60.86
   5   3   7  582.06   53.59
   5   3   7  605.49   54.52
   5   3   8  386.60   52.58
   5   3   8  412.31   47.50
   5   3   8  434.95   49.36
   5   3   9   42.92   18.17
   5   3   9   20.47   19.40
   5   3  10    8.09   10.67
   5   3  10   20.31   14.27
   5   3  11   64.29   26.56
   5   3  12   59.87   25.44
   5   4 -10   69.12   36.11
   5   4  -9  156.27   37.78
   5   4  -8   42.75   22.72
   5   4  -7  187.22   41.00
   5   4  -7  196.88   22.97
   5   4  -6  594.60   69.97
   5   4  -6  675.38   35.56
   5   4  -5  206.38   38.33
   5   4  -5  170.73   13.45
   5   4  -4  643.33   68.24
   5   4  -3  328.29   47.55
   5   4  -2  153.09   34.68
   5   4  -1   42.70   18.30
   5   4  -1   49.83   16.08
   5   4   0  920.67   73.57
   5   4   1   31.31   17.07
   5   4   2  801.88   67.72
   5   4   2  853.14   66.46
   5   4   2  784.68   51.12
   5   4   2  802.18   31.89
   5   4   3 1487.01   92.45
   5   4   3 1560.33   89.78
   5   4   3 1373.07   69.04
   5   4   3 1496.64   46.90
   5   4   4  264.88   40.89
   5   4   4  333.29   36.82
   5   4   4  257.06   38.61
   5   4   4  300.61   22.34
   5   4   4  285.29   23.38
   5   4   5  232.36   38.80
   5   4   5  249.18   38.75
   5   4   5  249.05   23.93
   5   4   5  300.63   35.92
   5   4   5  296.35   35.15
   5   4   6  928.13   75.76
   5   4   6  881.38   76.86
   5   4   6  946.13   54.47
   5   4   6  789.07   61.49
   5   4   6  873.28   62.43
   5   4   7   63.19   21.92
   5   4   7   86.93   17.97
   5   4   7   71.40   22.20
   5   4   8  122.49   30.02
   5   4   8  131.44   24.50
   5   4   8  139.59   28.81
   5   4   9   53.04   22.34
   5   4   9   68.60   19.02
   5   4   9   54.80   21.65
   5   4  10   13.39   15.75
   5   4  10  -13.75   16.57
   5   4  11    8.64   20.99
   5   4  12  162.61   40.64
   5   5  -9  127.51   41.13
   5   5  -8  282.63   54.96
   5   5  -7    8.09   23.13
   5   5  -6  173.17   41.32
   5   5  -6  216.09   19.18
   5   5  -5  375.71   57.90
   5   5  -5  335.84   14.71
   5   5  -4  440.85   58.56
   5   5  -3   43.71   21.54
   5   5  -2  534.64   60.72
   5   5  -1   12.87   16.63
   5   5  -1   10.65    9.99
   5   5   0 1424.39   95.13
   5   5   0 1384.49   71.62
   5   5   1 2062.75  112.97
   5   5   1 2026.61   86.77
   5   5   2  387.78   49.39
   5   5   2  465.05   50.90
   5   5   2  404.00   40.09
   5   5   2  418.85   30.46
   5   5   3    8.09   13.25
   5   5   3    4.88   10.70
   5   5   3   12.32    7.99
   5   5   3   20.00    8.42
   5   5   4  367.40   49.31
   5   5   4  335.40   46.40
   5   5   4  288.29   35.95
   5   5   4  293.77   28.81
   5   5   5  173.15   26.81
   5   5   5  139.72   34.77
   5   5   5  205.44   14.08
   5   5   5  196.03   32.27
   5   5   5  224.13   26.34
   5   5   6  354.80   48.49
   5   5   6  321.73   25.66
   5   5   6  372.97   36.30
   5   5   6  330.57   39.10
   5   5   7  376.26   48.71
   5   5   7  422.39   35.32
   5   5   7  423.76   46.98
   5   5   8   40.94   18.06
   5   5   8   37.59   13.28
   5   5   8   38.06   14.35
   5   5   9   13.77   19.76
   5   5   9    6.89    7.16
   5   5  10   83.72   30.84
   5   5  11  193.15   46.13
   5   5  12   34.30   19.26
   5   6  -8  145.79   46.26
   5   6  -7   63.08   32.30
   5   6  -6   21.57   20.74
   5   6  -5  273.85   49.91
   5   6  -4  237.30   47.33
   5   6  -3 1306.94  101.91
   5   6  -2   85.37   29.39
   5   6  -1 1044.42   86.38
   5   6  -1 1046.13   30.90
   5   6  -1  931.81   64.29
   5   6   0   54.74   10.07
   5   6   0   37.57   18.82
   5   6   0   28.70   14.46
   5   6   1  815.38   75.41
   5   6   1  898.36   43.96
   5   6   1  942.05   76.09
   5   6   1  932.96   63.88
   5   6   2  945.97   80.34
   5   6   2  877.97   49.50
   5   6   2  946.90   76.59
   5   6   2  988.14   67.12
   5   6   2  928.22   54.83
   5   6   3  365.89   50.11
   5   6   3  338.91   34.16
   5   6   3  370.30   44.89
   5   6   3  377.69   35.92
   5   6   4  157.48   25.85
   5   6   4  150.73   32.93
   5   6   4  149.93   24.42
   5   6   5  769.75   73.54
   5   6   5  740.77   58.64
   5   6   5  675.08   50.33
   5   6   5  688.53   49.91
   5   6   6  112.18   22.06
   5   6   6   80.43   26.07
   5   6   6   93.90   22.69
   5   6   7    2.88   14.43
   5   6   7    3.38    4.94
   5   6   7   -4.83    9.44
   5   6   7   -3.29    4.39
   5   6   8   27.52   17.70
   5   6   8   22.34   12.07
   5   6   9  101.64   27.11
   5   6   9   61.58   19.24
   5   6  10    9.08   15.64
   5   6  11  184.15   39.46
   5   6  12   68.60   28.32
   5   7  -7  184.81   47.64
   5   7  -6  142.41   43.22
   5   7  -5   39.54   22.06
   5   7  -4  -13.86   19.73
   5   7  -3  379.06   59.90
   5   7  -3  347.14   20.63
   5   7  -2  111.82   31.94
   5   7  -2  136.95   14.08
   5   7  -1   20.44    7.90
   5   7  -1   38.17   23.38
   5   7   0  738.03   74.97
   5   7   0  682.79   40.12
   5   7   1  888.65   81.41
   5   7   1  928.98   51.29
   5   7   2    0.66    2.06
   5   7   2  -10.76    7.27
   5   7   3  853.36   78.86
   5   7   3  790.47   56.06
   5   7   3  868.64   61.77
   5   7   4   77.02   23.13
   5   7   4   31.86   12.59
   5   7   4   48.13   15.39
   5   7   5  144.33   29.42
   5   7   5  106.49   30.62
   5   7   5  117.77   25.16
   5   7   6  102.98   21.76
   5   7   6   99.11   29.44
   5   7   6  106.03   24.92
   5   7   7   69.70   22.61
   5   7   7  110.78   22.91
   5   7   7   69.15   19.62
   5   7   8   28.70   13.47
   5   7   8   12.79   10.10
   5   7   9  155.01   35.40
   5   7   9  101.72   26.84
   5   7  10  126.03   28.78
   5   7  11  -10.10   16.13
   5   8  -7   89.32   27.06
   5   8  -6   11.11   20.58
   5   8  -5  245.95   54.50
   5   8  -4  216.09   46.57
   5   8  -3   32.57   29.00
   5   8  -2  346.65   56.58
   5   8  -1  178.58   43.11
   5   8  -1  123.32   19.87
   5   8   0    7.52    9.16
   5   8   0  -16.44   17.97
   5   8   1  314.74   34.00
   5   8   1  350.60   52.05
   5   8   2  338.72   37.76
   5   8   2  349.31   52.79
   5   8   2  350.96   42.83
   5   8   3   17.40   13.56
   5   8   3   65.01   22.64
   5   8   3   42.01   14.54
   5   8   4  431.71   58.12
   5   8   4  459.90   49.56
   5   8   4  494.74   51.97
   5   8   5  216.83   41.57
   5   8   5  159.18   30.43
   5   8   6   27.80   10.13
   5   8   6   46.87   19.78
   5   8   6   34.68   16.88
   5   8   7    2.03    7.11
   5   8   7  -18.19   13.17
   5   8   7  -11.14   16.27
   5   8   8   71.15   27.44
   5   8   8   77.49   23.08
   5   8   8   30.40   19.10
   5   8  10  146.26   38.50
   5   9  -7   36.82   28.24
   5   9  -6  208.52   44.01
   5   9  -4  182.42   48.29
   5   9  -3  222.92   51.20
   5   9  -2   28.13   23.93
   5   9  -1  519.36   70.77
   5   9   0  506.68   67.06
   5   9   1  -29.69   17.42
   5   9   2  177.87   39.32
   5   9   2  232.88   37.35
   5   9   3  120.49   31.83
   5   9   3   59.87   22.42
   5   9   4   -2.33   11.20
   5   9   4   -2.09   14.38
   5   9   5   22.28   20.09
   5   9   5   -3.43    5.49
   5   9   6  158.16   35.40
   5   9   6  111.90   27.85
   5   9   7    4.14   10.34
   5   9   7   16.24   15.17
   5   9   8   95.46   37.21
   5   9   8   74.34   30.79
   5   9   9  106.55   31.42
   5   9   9  110.45   33.81
   5  10  -3  113.19   32.79
   5  10  -2  305.38   58.53
   5  10  -1   24.83   27.74
   5  10   0  202.32   52.79
   5  10   1  211.48   44.84
   5  10   1  165.63   35.23
   5  10   2   16.77   14.08
   5  10   2   77.11   22.89
   5  10   3  161.29   41.32
   5  10   3  127.08   31.47
   5  10   4   87.07   34.52
   5  10   4  127.05   29.96
   5  10   5   97.22   28.87
   5  10   5   99.58   26.92
   5  10   6   -4.56   11.42
   5  10   7   69.12   24.45
   5  10   8   14.98   21.68
   5  11   0    1.89   17.59
   5  11   1   76.39   29.77
   5  11   1   51.37   20.74
   5  11   2   48.54   22.25
   5  11   2   40.17   23.27
   5  11   3   10.21   21.54
   5  11   3    5.93   19.78
   5  11   4   27.66   24.42
   5  11   5   83.36   27.14
   6  -7  -5  -24.97   22.39
   6  -7  -4   29.11   25.24
   6  -7  -3   51.75   22.69
   6  -7  -2  149.85   40.86
   6  -7  -1  -25.11   20.94
   6  -7   0   91.35   36.22
   6  -7   1  166.59   35.95
   6  -7   2   22.45   23.76
   6  -7   3  220.95   51.09
   6  -7   4  175.12   40.61
   6  -7   5  -13.06   19.18
   6  -7   5    7.11    8.07
   6  -7   6   55.35   24.15
   6  -7   6   38.33   14.71
   6  -7   7  147.33   35.12
   6  -7   7  119.47   26.56
   6  -7   8   96.81   31.06
   6  -7   8   48.32   16.49
   6  -7   9   56.66   26.34
   6  -7   9    5.73   12.98
   6  -7  10  122.19   35.78
   6  -7  10  120.57   29.33
   6  -6  -6   10.51   11.14
   6  -6  -5  -16.60   16.60
   6  -6  -4   16.57   16.03
   6  -6  -3   19.78   18.00
   6  -6  -2   92.75   26.48
   6  -6  -1  373.32   53.89
   6  -6   0   48.68   21.43
   6  -6   1  188.60   40.50
   6  -6   2  514.69   62.01
   6  -6   2  491.07   32.82
   6  -6   3   -3.95   17.20
   6  -6   3   12.90    5.90
   6  -6   4  329.45   49.89
   6  -6   4  229.04   26.10
   6  -6   5  133.58   33.75
   6  -6   5  144.03   23.16
   6  -6   6   20.14   20.47
   6  -6   6   15.45    7.24
   6  -6   7   32.49   23.90
   6  -6   7  -25.33   12.65
   6  -6   8  163.76   38.39
   6  -6   8  140.85   28.35
   6  -6   9  132.37   36.52
   6  -6   9  135.01   29.69
   6  -6  10   33.39   19.70
   6  -6  10    0.44    4.36
   6  -6  11   83.72   26.10
   6  -5  -6  -11.72   12.16
   6  -5  -5   -4.34    6.97
   6  -5  -4  142.00   33.64
   6  -5  -3  326.15   46.76
   6  -5  -2  124.00   32.52
   6  -5  -1    0.36    9.99
   6  -5   0  339.68   47.88
   6  -5   1  200.83   39.29
   6  -5   2  188.62   36.80
   6  -5   2  211.54   18.47
   6  -5   3  643.94   67.64
   6  -5   3  584.01   33.83
   6  -5   4  -23.13   19.10
   6  -5   4    4.25    4.14
   6  -5   5  229.59   42.01
   6  -5   5  321.87   31.39
   6  -5   6  367.20   49.53
   6  -5   6  389.62   38.14
   6  -5   7  110.01   28.10
   6  -5   7  122.52   22.39
   6  -5   8   17.40   15.67
   6  -5   8   25.57   14.98
   6  -5   9  110.25   31.23
   6  -5  10   21.79   17.56
   6  -4  -7    3.87   15.23
   6  -4  -6   17.67   17.37
   6  -4  -5  154.19   29.83
   6  -4  -4   52.38   19.89
   6  -4  -3   70.74   21.87
   6  -4  -2  232.86   40.67
   6  -4  -1   52.88   21.38
   6  -4  -1   51.23   10.02
   6  -4   0  281.32   41.43
   6  -4   0  306.23   19.67
   6  -4   1  791.45   69.73
   6  -4   2  225.09   39.68
   6  -4   3   16.24   14.52
   6  -4   3   16.08    6.06
   6  -4   4  139.67   30.57
   6  -4   4  174.79   20.03
   6  -4   5  150.70   32.96
   6  -4   5  157.40   21.32
   6  -4   6   57.51   21.24
   6  -4   6   61.33   15.67
   6  -4   7  519.77   56.09
   6  -4   8  164.34   31.50
   6  -4   9   40.97   24.48
   6  -4   9   67.37   21.07
   6  -4  10  158.60   36.33
   6  -4  10  106.77   26.32
   6  -4  11   24.89   23.68
   6  -4  11   81.99   23.43
   6  -3  -7    6.64   17.62
   6  -3  -6  -13.80   11.36
   6  -3  -5   78.29   17.01
   6  -3  -5  113.35   26.04
   6  -3  -4  548.64   46.90
   6  -3  -4  491.78   52.85
   6  -3  -3  818.07   57.43
   6  -3  -3  845.70   69.75
   6  -3  -2    8.07   10.24
   6  -3  -2   -1.04   10.59
   6  -3  -1  639.41   55.15
   6  -3  -1  592.24   58.97
   6  -3   0   81.44   22.50
   6  -3   0   85.04   15.15
   6  -3   0   58.37   23.93
   6  -3   1  609.33   57.98
   6  -3   1  674.56   38.31
   6  -3   1  760.86   64.76
   6  -3   2  457.48   53.86
   6  -3   2  455.92   50.08
   6  -3   2  516.09   34.85
   6  -3   3   -2.96    6.09
   6  -3   3    3.65    4.66
   6  -3   4   13.09   17.67
   6  -3   4   48.82    9.69
   6  -3   5  326.24   44.18
   6  -3   6 1157.56   81.83
   6  -3   7   86.88   23.90
   6  -3   8  243.97   42.56
   6  -3   8  226.63   36.77
   6  -3   9  103.06   33.48
   6  -3   9   60.94   18.88
   6  -3  10   20.31   16.60
   6  -3  10   -6.20   11.28
   6  -3  11  139.45   37.35
   6  -3  11  121.94   27.03
   6  -2  -7  -29.85   12.07
   6  -2  -6   22.80   13.14
   6  -2  -6   38.80   16.49
   6  -2  -6   65.72   21.51
   6  -2  -5   29.96   14.90
   6  -2  -5   25.79   14.98
   6  -2  -5   33.56   17.62
   6  -2  -4    3.10    5.38
   6  -2  -4    6.23   16.74
   6  -2  -4   15.64   13.47
   6  -2  -3  604.12   53.15
   6  -2  -3  603.71   55.76
   6  -2  -3  573.11   53.48
   6  -2  -2 1134.07   73.57
   6  -2  -2 1053.86   73.76
   6  -2  -2 1081.99   73.37
   6  -2  -1    6.70   12.65
   6  -2  -1    7.19    7.05
   6  -2  -1    9.99   13.80
   6  -2   0 1633.89   91.18
   6  -2   0 1656.34   91.10
   6  -2   0 1476.58   84.87
   6  -2   1  248.47   37.92
   6  -2   1  220.56   25.33
   6  -2   1  245.42   38.80
   6  -2   1  302.58   39.93
   6  -2   1  258.62   36.33
   6  -2   2  338.42   44.32
   6  -2   2  293.58   30.18
   6  -2   2  271.44   41.54
   6  -2   2  296.19   39.90
   6  -2   2  279.23   37.87
   6  -2   3  370.85   49.04
   6  -2   3  364.51   18.17
   6  -2   3  335.26   33.83
   6  -2   3  345.36   47.31
   6  -2   3  408.69   45.99
   6  -2   3  351.48   43.16
   6  -2   4  106.47   25.88
   6  -2   4  151.19   28.10
   6  -2   4  136.87   27.39
   6  -2   4  166.97   34.25
   6  -2   4  172.60   25.14
   6  -2   5    0.80    9.27
   6  -2   5   -8.12   18.38
   6  -2   5   15.15   13.12
   6  -2   6  467.00   51.26
   6  -2   6  438.14   47.72
   6  -2   7  321.95   42.37
   6  -2   7  413.11   46.43
   6  -2   7  342.97   47.03
   6  -2   8   47.77   20.77
   6  -2   8   54.47   18.99
   6  -2   8   73.37   24.42
   6  -2   9  146.42   29.42
   6  -2   9  169.11   29.47
   6  -2   9  114.43   32.35
   6  -2  10  411.85   44.81
   6  -2  10  386.05   54.85
   6  -2  11    8.67   11.14
   6  -2  11   21.21   26.32
   6  -1  -7   28.32   15.15
   6  -1  -7   18.71   13.61
   6  -1  -6   13.50   16.24
   6  -1  -6   17.04   16.08
   6  -1  -6   20.72   12.29
   6  -1  -5  139.29   26.07
   6  -1  -5  216.23   32.57
   6  -1  -5  205.77   32.52
   6  -1  -5  256.07   40.01
   6  -1  -4  287.46   37.40
   6  -1  -4  290.40   36.47
   6  -1  -4  317.21   41.57
   6  -1  -4  306.12   41.63
   6  -1  -3   35.56   14.76
   6  -1  -3   -4.12    5.10
   6  -1  -3   22.72   12.81
   6  -1  -2 1016.79   72.09
   6  -1  -2 1115.03   71.32
   6  -1  -2 1093.49   71.81
   6  -1  -1  778.20   64.92
   6  -1   0  -23.08   13.88
   6  -1   1  286.86   40.83
   6  -1   1  359.93   35.15
   6  -1   1  340.92   44.54
   6  -1   2  201.22   33.28
   6  -1   2  218.67   27.47
   6  -1   2  268.50   38.75
   6  -1   3    4.23   18.41
   6  -1   3    7.79    9.19
   6  -1   3    7.85    8.20
   6  -1   3    5.05    3.29
   6  -1   4 1436.54   94.97
   6  -1   4 1374.31   73.76
   6  -1   4 1445.24   91.95
   6  -1   5 1050.95   70.08
   6  -1   5 1144.03   85.59
   6  -1   6   46.62   18.17
   6  -1   6   39.18   16.88
   6  -1   6   38.58   15.75
   6  -1   6   35.43   16.00
   6  -1   7  132.65   27.93
   6  -1   7   93.49   23.46
   6  -1   7  120.38   30.62
   6  -1   8  120.30   25.19
   6  -1   8  124.55   27.25
   6  -1   8  113.57   29.85
   6  -1   9   19.78   12.27
   6  -1   9   28.46   16.74
   6  -1   9   13.64   17.95
   6  -1  10  127.27   28.89
   6  -1  10  150.26   29.14
   6  -1  10   55.35   28.26
   6  -1  11  346.54   40.58
   6  -1  11  394.70   59.63
   6  -1  12  -17.67   22.36
   6   0  -8   -8.42   12.73
   6   0  -7  117.96   25.52
   6   0  -7  134.13   29.61
   6   0  -6  424.20   43.68
   6   0  -6  440.93   43.55
   6   0  -6  414.29   50.71
   6   0  -5   94.64   23.16
   6   0  -5   98.73   22.86
   6   0  -5  114.26   27.99
   6   0  -5   95.41   25.46
   6   0  -4  419.56   48.43
   6   0  -4  385.01   43.14
   6   0  -3  630.90   58.17
   6   0  -3  551.74   47.11
   6   0  -2  232.88   36.39
   6   0  -2  246.91   29.39
   6   0  -1 1154.68   79.47
   6   0   0  188.82   33.42
   6   0   1   45.58   16.33
   6   0   1   25.30   12.43
   6   0   2  118.62   27.30
   6   0   2  116.57   26.51
   6   0   2  165.38   26.62
   6   0   2  141.34   11.74
   6   0   3 1335.73   89.95
   6   0   3 1188.29   69.81
   6   0   3 1132.92   42.01
   6   0   3 1233.40   77.77
   6   0   4  360.29   49.06
   6   0   4  305.76   37.35
   6   0   4  308.95   40.78
   6   0   5  270.20   44.65
   6   0   5  327.63   39.46
   6   0   5  316.00   43.52
   6   0   6  771.97   73.87
   6   0   6  794.66   66.24
   6   0   6  812.61   72.41
   6   0   6  765.91   64.18
   6   0   7   12.10   16.52
   6   0   7    8.37   15.31
   6   0   7    0.25   11.58
   6   0   8  256.87   41.90
   6   0   9  578.44   51.29
   6   0   9  548.80   50.87
   6   0   9  513.24   58.39
   6   0  10   45.33   17.67
   6   0  10   45.93   14.35
   6   0  10   48.54   18.93
   6   0  11  149.36   27.80
   6   0  11   75.82   30.87
   6   0  12   46.87   27.71
   6   1  -9   22.69   23.93
   6   1  -8  -19.62   14.60
   6   1  -7   -7.82   10.73
   6   1  -7  -13.14   14.90
   6   1  -6  115.06   27.55
   6   1  -5  762.37   69.37
   6   1  -5  873.58   67.23
   6   1  -4  146.58   32.38
   6   1  -4  111.79   21.68
   6   1  -3 1089.89   80.18
   6   1  -3  964.96   58.83
   6   1  -2 1338.72   87.48
   6   1  -2 1286.91   60.34
   6   1  -1   80.54   23.63
   6   1   0  343.82   46.29
   6   1   1  123.54   28.02
   6   1   1   77.30   10.48
   6   1   2    3.79   14.90
   6   1   2    4.17    5.32
   6   1   2    1.95    7.96
   6   1   2    1.54    5.13
   6   1   3  363.50   50.22
   6   1   3  286.91   24.23
   6   1   3  323.38   38.42
   6   1   3  299.59   37.37
   6   1   4 1404.55   93.82
   6   1   4 1535.44   86.30
   6   1   4 1397.44   59.00
   6   1   4 1614.60   86.55
   6   1   5  275.50   42.72
   6   1   5  304.53   39.49
   6   1   5  320.50   42.45
   6   1   6   -0.08   13.20
   6   1   6   17.48   15.81
   6   1   6   34.41   18.74
   6   1   6    4.20    9.52
   6   1   7  679.06   71.98
   6   1   7  756.77   68.57
   6   1   7  750.46   69.67
   6   1   7  675.33   61.60
   6   1   8  459.51   59.60
   6   1   8  382.87   53.95
   6   1   8  489.26   55.43
   6   1   9  288.37   47.99
   6   1  10  233.16   42.04
   6   1  11    7.71   12.79
   6   1  11  -25.60   20.69
   6   1  12   48.71   30.57
   6   2  -9   64.70   23.41
   6   2  -8   66.05   26.51
   6   2  -7  226.93   43.03
   6   2  -6   88.41   27.41
   6   2  -6  161.59   32.16
   6   2  -5  153.09   33.23
   6   2  -5  111.60   22.91
   6   2  -4  784.95   70.88
   6   2  -4  653.16   51.26
   6   2  -3   -3.18   11.36
   6   2  -3   -2.14    6.28
   6   2  -2  470.10   53.86
   6   2  -2  492.91   35.12
   6   2  -1  860.96   70.44
   6   2  -1  843.97   37.84
   6   2   0  248.11   41.11
   6   2   1  593.20   61.08
   6   2   1  525.89   32.19
   6   2   2 1634.93  100.16
   6   2   2 1639.82   87.84
   6   2   2 1459.62   56.09
   6   2   3   43.33   16.99
   6   2   3   29.33   16.71
   6   2   3   32.13   12.32
   6   2   3   24.78    9.49
   6   2   4    5.60   13.53
   6   2   4   25.90   12.81
   6   2   4   11.00   11.11
   6   2   5  103.81   29.11
   6   2   5  161.10   29.99
   6   2   5  120.43   22.91
   6   2   5  120.21   23.41
   6   2   6  455.75   57.13
   6   2   6  463.35   53.62
   6   2   6  520.15   52.19
   6   2   6  541.28   52.38
   6   2   7  247.37   38.55
   6   2   7  236.40   46.92
   6   2   7  282.69   40.86
   6   2   8  921.85   84.90
   6   2   8 1004.77   80.10
   6   2   8  969.51   76.20
   6   2   9  248.42   47.99
   6   2   9  176.33   35.26
   6   2   9  259.39   45.61
   6   2  10   18.08   17.45
   6   2  11   14.74   20.28
   6   2  12    9.71   16.74
   6   3 -10   15.04   20.33
   6   3  -9   51.29   29.14
   6   3  -8   33.34   24.15
   6   3  -7   30.76   23.82
   6   3  -6  563.13   67.56
   6   3  -6  535.60   55.29
   6   3  -5   35.10   19.13
   6   3  -5    3.02    4.31
   6   3  -4  625.39   67.09
   6   3  -4  652.91   50.16
   6   3  -3  527.67   60.29
   6   3  -3  401.64   35.84
   6   3  -2  285.21   46.21
   6   3  -2  215.54   22.94
   6   3  -1   27.88   16.22
   6   3  -1   -0.66    4.97
   6   3   0  549.43   60.04
   6   3   0  548.42   19.15
   6   3   1  446.07   52.63
   6   3   2  172.68   36.06
   6   3   2  244.08   36.03
   6   3   3  854.79   74.36
   6   3   3  928.49   71.10
   6   3   4  543.94   61.38
   6   3   4  449.06   39.18
   6   3   4  457.23   51.59
   6   3   4  525.67   41.49
   6   3   5  184.67   38.86
   6   3   5  191.89   27.17
   6   3   5  238.15   38.96
   6   3   5  209.04   28.70
   6   3   6  726.37   73.02
   6   3   6  767.77   58.75
   6   3   6  745.03   56.01
   6   3   6  772.82   62.12
   6   3   7  638.75   71.10
   6   3   7  604.45   54.50
   6   3   7  662.46   57.24
   6   3   7  597.21   56.99
   6   3   8   12.73   20.11
   6   3   8    2.74   13.25
   6   3   8   32.02   15.23
   6   3   9  168.98   37.15
   6   3   9  162.80   34.22
   6   3   9  221.19   39.43
   6   3  10  -28.13   19.54
   6   3  10  -10.87   10.73
   6   3  11   10.95   10.59
   6   3  12   99.77   34.88
   6   4  -9   49.97   35.73
   6   4  -8  328.54   60.56
   6   4  -7  189.17   42.70
   6   4  -6   80.78   28.62
   6   4  -5  509.73   66.60
   6   4  -5  461.30   47.50
   6   4  -4   26.81   17.48
   6   4  -4   11.61   10.32
   6   4  -3  479.73   61.71
   6   4  -3  395.33   35.73
   6   4  -2  445.27   57.27
   6   4  -1  109.16   31.53
   6   4   0   74.55   23.30
   6   4   0   37.98   14.02
   6   4   1  489.12   58.42
   6   4   1  516.53   41.05
   6   4   2  797.66   74.09
   6   4   2  845.81   69.86
   6   4   2  824.16   53.23
   6   4   3  188.49   38.88
   6   4   3  201.08   35.92
   6   4   3  126.09   23.38
   6   4   4  232.28   41.13
   6   4   4  292.87   34.82
   6   4   4  317.10   44.70
   6   4   5  591.53   65.36
   6   4   5  571.91   38.88
   6   4   5  651.24   54.17
   6   4   6  222.02   43.66
   6   4   6  203.93   26.04
   6   4   6  225.06   34.27
   6   4   6  240.70   35.34
   6   4   7 1584.66  108.50
   6   4   7 1567.10   79.25
   6   4   7 1560.30   90.91
   6   4   8  103.67   27.58
   6   4   8   73.05   20.22
   6   4   8   79.74   27.03
   6   4   9    9.16   20.80
   6   4   9   -4.53   16.00
   6   4   9  -13.56   16.03
   6   4  10   -6.89    9.22
   6   4  10  -11.11   18.80
   6   4  11   91.29   29.72
   6   4  12   25.16   19.59
   6   5  -8  -22.06   25.68
   6   5  -7  311.99   55.13
   6   5  -6  111.96   35.84
   6   5  -5   72.80   29.14
   6   5  -4  626.76   75.38
   6   5  -3  297.23   49.67
   6   5  -2   47.53   22.34
   6   5  -1  674.56   71.26
   6   5  -1  628.52   49.97
   6   5   0   23.63   23.43
   6   5   0   41.60   16.35
   6   5   1   22.28   12.24
   6   5   1   35.73    8.26
   6   5   2  211.86   39.21
   6   5   2  167.63   29.00
   6   5   2  215.40   17.89
   6   5   3  665.94   70.99
   6   5   3  628.57   52.63
   6   5   3  623.03   30.79
   6   5   4  192.88   39.51
   6   5   4  179.76   31.36
   6   5   4  179.79   18.66
   6   5   5 1084.35   90.88
   6   5   6  687.43   72.52
   6   5   6  650.88   35.95
   6   5   6  661.00   55.95
   6   5   7   -7.44    8.51
   6   5   7  -12.73   16.68
   6   5   7   -1.84    8.51
   6   5   8  100.92   29.22
   6   5   8   85.86   21.87
   6   5   9   -9.38   15.15
   6   5   9  -23.96   16.55
   6   5  10   13.14   12.87
   6   5  10   14.43   10.89
   6   5  11   46.10   25.27
   6   5  12  132.01   33.70
   6   6  -7    9.19   27.33
   6   6  -6  128.89   41.82
   6   6  -5  127.54   34.71
   6   6  -4   -9.14   22.12
   6   6  -3  531.68   69.86
   6   6  -2  548.66   69.73
   6   6  -1  -19.67   22.83
   6   6   0  275.17   45.55
   6   6   0  304.69   38.77
   6   6   1  233.95   46.54
   6   6   1  240.07   33.26
   6   6   2   60.37   22.34
   6   6   2   33.97   10.81
   6   6   3  503.96   64.76
   6   6   3  563.45   37.51
   6   6   4  785.01   79.93
   6   6   4  783.74   45.72
   6   6   5    1.76   11.88
   6   6   5   -2.00    3.38
   6   6   6  240.62   43.44
   6   6   6  270.97   36.25
   6   6   7  155.31   27.47
   6   6   7  124.36   35.64
   6   6   8   33.23   15.97
   6   6   8    7.71   15.56
   6   6   9    4.77   20.58
   6   6   9   47.77   19.81
   6   6  10  104.19   30.95
   6   6  10  130.86   32.57
   6   6  11   -7.77   10.13
   6   7  -6   41.35   21.98
   6   7  -5  250.69   55.59
   6   7  -4  144.47   42.26
   6   7  -3   -2.50    9.22
   6   7  -2  150.89   43.08
   6   7  -1  440.58   63.88
   6   7   0  342.81   56.69
   6   7   1   29.47   19.92
   6   7   2  492.60   68.11
   6   7   2  472.41   40.64
   6   7   3    9.14   18.88
   6   7   3    2.91    5.84
   6   7   4  956.37   90.55
   6   7   4  969.57   59.05
   6   7   5  774.52   79.91
   6   7   5  692.37   52.36
   6   7   6   78.70   25.66
   6   7   6   21.13   11.50
   6   7   7  -15.86   12.35
   6   7   7   -7.71   14.90
   6   7   7   -0.85    2.36
   6   7   8   35.01   17.62
   6   7   8    5.27   15.34
   6   7   9   14.65   13.23
   6   7   9    8.73    8.59
   6   7  10   83.50   27.49
   6   7  10   60.67   26.12
   6   7  11   59.08   25.74
   6   8  -4  201.05   50.54
   6   8  -3   87.62   32.71
   6   8  -2   32.08   17.95
   6   8  -1    2.69   24.50
   6   8   0  524.46   71.78
   6   8   1  359.85   58.61
   6   8   2   89.81   32.65
   6   8   2   74.97   19.29
   6   8   3  524.82   70.93
   6   8   3  550.69   50.43
   6   8   4    0.16    9.41
   6   8   4   -9.36   16.74
   6   8   4   10.98   12.65
   6   8   5  122.93   34.33
   6   8   5  201.74   32.19
   6   8   6  108.75   33.26
   6   8   6   68.63   21.54
   6   8   7   68.41   20.14
   6   8   7   31.80   18.19
   6   8   8   27.66   23.13
   6   9  -3  107.35   40.28
   6   9  -2  172.16   42.29
   6   9  -1   92.75   38.75
   6   9   0   24.01   16.85
   6   9   1  188.92   44.10
   6   9   1  287.74   40.36
   6   9   2   76.80   31.50
   6   9   2   35.26   18.36
   6   9   3  108.44   32.13
   6   9   3  220.48   36.17
   6   9   4  357.46   58.97
   6   9   4  293.31   41.16
   6   9   5  154.35   37.54
   6   9   5  136.38   29.83
   6   9   6   27.52   20.11
   6   9   6   11.96   10.02
   6   9   7   25.24   16.99
   6  10  -1  152.81   49.91
   6  10   0  122.60   44.12
   6  10   1   55.59   33.34
   6  10   2  189.86   46.73
   6  10   3    8.04   17.81
   6  10   4   39.49   27.63
   6  10   5   96.26   31.25
   6  10   6   13.36   16.33
   6  11   2   19.43   20.53
   6  11   3   49.50   21.79
   6  11   4   76.28   34.88
   7  -6  -5  -17.12   19.04
   7  -6  -4   97.22   33.56
   7  -6  -3  191.61   40.80
   7  -6  -2   76.53   26.07
   7  -6  -1   21.27   22.12
   7  -6   0   11.63   19.13
   7  -6   1  105.64   32.13
   7  -6   2   69.51   22.53
   7  -6   3  381.66   57.49
   7  -6   4  134.13   35.62
   7  -6   5   38.11   29.14
   7  -6   6   56.77   25.96
   7  -6   7   96.53   30.10
   7  -6   8   17.95   15.81
   7  -6   9   78.37   28.10
   7  -6  10   12.51   11.72
   7  -5  -6   -7.44   25.00
   7  -5  -5   48.87   25.08
   7  -5  -4  -19.51   15.64
   7  -5  -3   23.41   14.35
   7  -5  -2   17.45   16.66
   7  -5  -1   31.03   19.67
   7  -5   0   29.47   19.48
   7  -5   1  510.91   62.67
   7  -5   2  746.40   75.57
   7  -5   3   -1.07   11.28
   7  -5   4  265.51   47.44
   7  -5   5   10.07   14.71
   7  -5   6  109.79   32.02
   7  -5   6   94.17   18.47
   7  -5   7  210.96   39.82
   7  -5   7  211.67   29.77
   7  -5   8  125.73   32.68
   7  -5   8  107.40   23.02
   7  -5   9  -16.22   20.25
   7  -5   9   21.24   12.18
   7  -5  10   20.20   13.47
   7  -5  10    7.77   12.57
   7  -4  -6  -18.00   16.38
   7  -4  -5   73.32   28.98
   7  -4  -4  128.01   29.91
   7  -4  -3   15.97   13.58
   7  -4  -2   31.06   16.85
   7  -4  -1   54.69   21.35
   7  -4   0  203.91   39.73
   7  -4   1   26.18   17.89
   7  -4   1   37.98    7.68
   7  -4   2  353.26   50.43
   7  -4   3  376.72   52.38
   7  -4   4   -4.14    7.38
   7  -4   4   -2.25    4.42
   7  -4   5  353.70   51.07
   7  -4   5  322.50   27.91
   7  -4   6  418.49   54.33
   7  -4   6  385.48   32.93
   7  -4   7    8.81   11.88
   7  -4   7   -8.34    7.38
   7  -4   8  192.25   37.92
   7  -4   9  -10.56    9.00
   7  -4  10   11.44    9.88
   7  -4  11   -1.10    8.92
   7  -3  -6  156.55   32.00
   7  -3  -5   92.97   26.89
   7  -3  -4   28.70   14.46
   7  -3  -4   12.27   13.77
   7  -3  -3   41.22   14.52
   7  -3  -3   60.34   21.79
   7  -3  -2   57.35   16.88
   7  -3  -2   66.30   24.26
   7  -3  -1   19.62   13.64
   7  -3  -1  -19.51   18.99
   7  -3   0  729.55   66.49
   7  -3   0  688.06   44.32
   7  -3   0  731.09   69.29
   7  -3   1  639.33   63.03
   7  -3   1  643.06   42.53
   7  -3   1  680.73   65.25
   7  -3   2   29.77   16.30
   7  -3   2   19.07    9.22
   7  -3   2   59.00   22.47
   7  -3   3   51.04   27.39
   7  -3   3   54.08   23.98
   7  -3   3   56.22   14.71
   7  -3   4  179.02   36.93
   7  -3   4  254.26   18.17
   7  -3   5   29.91   15.81
   7  -3   5   21.65    8.04
   7  -3   6  262.52   43.85
   7  -3   7  385.31   51.34
   7  -3   8   -0.11   16.08
   7  -3   9   89.92   29.20
   7  -3  10  109.43   32.21
   7  -3  10  172.41   33.86
   7  -3  11   33.26   14.74
   7  -2  -6   40.39   19.48
   7  -2  -5   79.82   24.34
   7  -2  -5   63.94   23.76
   7  -2  -4   42.81   18.49
   7  -2  -4   47.94   18.49
   7  -2  -3   69.92   20.00
   7  -2  -3   87.75   22.91
   7  -2  -2  200.18   33.09
   7  -2  -2  159.51   31.17
   7  -2  -1 1381.75   90.83
   7  -2  -1 1526.03   93.30
   7  -2   0  216.17   40.58
   7  -2   0  173.97   27.91
   7  -2   0  224.40   37.62
   7  -2   1  165.96   32.74
   7  -2   1  134.48   22.20
   7  -2   1  118.32   30.18
   7  -2   2  241.17   41.52
   7  -2   2  229.92   29.77
   7  -2   2  272.18   40.23
   7  -2   3   95.35   27.44
   7  -2   3   59.57   16.11
   7  -2   3  110.56   26.62
   7  -2   4  637.98   69.48
   7  -2   4  601.51   50.30
   7  -2   4  625.19   60.72
   7  -2   5  719.53   74.55
   7  -2   5  551.71   50.27
   7  -2   5  636.06   60.56
   7  -2   6  115.30   28.21
   7  -2   7   22.91   19.48
   7  -2   8  106.03   27.33
   7  -2   9   94.28   29.17
   7  -2   9   87.67   30.24
   7  -2  10    2.30   18.69
   7  -2  10  -30.82   22.28
   7  -2  11  233.32   46.95
   7  -2  11  240.18   41.57
   7  -1  -6   20.39   15.86
   7  -1  -6   44.59   17.23
   7  -1  -5   51.94   18.82
   7  -1  -5   28.07   17.40
   7  -1  -4  -17.84   13.45
   7  -1  -4   -6.23   11.83
   7  -1  -3   80.21   21.76
   7  -1  -3   62.54   22.86
   7  -1  -2   -5.57    7.08
   7  -1  -2   -3.92   11.52
   7  -1  -1  372.86   47.64
   7  -1   0 2140.57  115.91
   7  -1   1 1104.13   84.38
   7  -1   1 1045.77   64.73
   7  -1   2   66.24   25.03
   7  -1   2   28.81   14.63
   7  -1   2   31.39   14.30
   7  -1   3  459.37   56.64
   7  -1   3  408.99   42.78
   7  -1   3  437.34   15.42
   7  -1   3  501.28   56.01
   7  -1   4    4.56    8.59
   7  -1   4   -1.87   11.58
   7  -1   4    2.09    5.87
   7  -1   4   -4.39    6.72
   7  -1   5  690.67   73.16
   7  -1   5  629.94   57.54
   7  -1   6  285.90   48.60
   7  -1   6  282.30   41.19
   7  -1   6  310.07   43.52
   7  -1   7   12.29   17.56
   7  -1   8    5.82   12.98
   7  -1   9  298.08   42.48
   7  -1   9  237.60   44.40
   7  -1  10  319.76   43.14
   7  -1  10  251.85   53.65
   7  -1  11  -14.27   18.44
   7  -1  11   16.68   25.08
   7   0  -7    9.88   14.32
   7   0  -7   13.28   16.27
   7   0  -6   81.52   22.50
   7   0  -6  129.68   31.20
   7   0  -5  167.85   29.91
   7   0  -5  187.39   35.01
   7   0  -5  153.99   30.90
   7   0  -4   54.61   20.17
   7   0  -4   48.13   17.40
   7   0  -3   88.58   26.53
   7   0  -2  591.00   62.97
   7   0  -1  244.55   41.00
   7   0   0  108.94   32.74
   7   0   1  265.95   43.03
   7   0   1  263.10   35.43
   7   0   2  415.44   52.66
   7   0   2  379.19   42.04
   7   0   2  488.24   53.76
   7   0   3  201.96   37.92
   7   0   3  205.14   35.97
   7   0   3  247.56   34.35
   7   0   3  261.23   18.85
   7   0   4 1603.85  109.65
   7   0   4 1600.17   89.45
   7   0   4 1590.21   56.33
   7   0   4 1710.09  101.45
   7   0   5  107.92   36.03
   7   0   5   93.57   30.21
   7   0   5  197.18   33.92
   7   0   5  132.29   20.80
   7   0   6   67.89   25.85
   7   0   6   26.07   15.04
   7   0   6   48.57   18.22
   7   0   7  115.91   36.82
   7   0   8  243.37   42.50
   7   0   9    9.27    7.52
   7   0   9   28.70   17.37
   7   0  10  222.98   35.23
   7   0  10  167.00   40.20
   7   0  11   37.59   19.02
   7   0  11   89.98   29.66
   7   1  -8   53.18   25.24
   7   1  -7   39.62   19.73
   7   1  -7   56.94   23.96
   7   1  -6   71.78   23.21
   7   1  -5   -1.29    6.83
   7   1  -5  -14.65    9.25
   7   1  -4  366.76   51.42
   7   1  -4  406.52   43.96
   7   1  -3  235.08   40.75
   7   1  -3  238.12   31.91
   7   1  -2  322.28   47.61
   7   1  -1  567.10   62.73
   7   1   0  491.56   60.01
   7   1   1   82.07   22.61
   7   1   1   85.72   23.35
   7   1   2 1141.15   89.59
   7   1   2 1036.25   72.19
   7   1   2 1068.32   39.76
   7   1   3   42.31   20.85
   7   1   3   74.88   19.46
   7   1   3   94.20   22.36
   7   1   3   60.59   10.34
   7   1   4    0.38    9.91
   7   1   4   12.51   13.31
   7   1   4   -0.19   12.38
   7   1   4    5.49    8.48
   7   1   5   68.24   24.64
   7   1   5   83.58   25.49
   7   1   5  106.66   25.46
   7   1   6  420.11   59.02
   7   1   6  516.53   57.10
   7   1   6  353.70   37.07
   7   1   6  423.29   52.74
   7   1   7   16.30   13.80
   7   1   7    7.00   16.30
   7   1   8  492.27   67.12
   7   1   8  580.14   63.14
   7   1   9  475.76   61.63
   7   1  10   16.08   11.17
   7   1  11   69.86   24.83
   7   1  11    0.60    7.74
   7   2  -8  -33.75   17.42
   7   2  -7  -18.03   20.44
   7   2  -6   27.25   16.96
   7   2  -5  118.24   34.19
   7   2  -5   99.66   24.42
   7   2  -4   34.71   20.99
   7   2  -4   21.73   13.80
   7   2  -3  908.24   82.62
   7   2  -3  775.43   52.66
   7   2  -2 1251.98   95.71
   7   2  -2 1183.22   56.58
   7   2  -1   28.70   17.89
   7   2   0 1037.65   85.67
   7   2   1   62.18   25.33
   7   2   1   57.05   12.73
   7   2   2  458.14   59.13
   7   2   2  435.36   49.09
   7   2   2  433.39   31.01
   7   2   3  822.71   79.08
   7   2   3  935.21   72.61
   7   2   3  763.27   44.04
   7   2   3  919.08   65.01
   7   2   4  151.74   35.86
   7   2   4  138.76   26.84
   7   2   4  163.27   31.97
   7   2   5   -5.63    6.67
   7   2   5   -7.05    8.84
   7   2   5   12.65    9.60
   7   2   6   28.10   17.20
   7   2   6   24.17   10.78
   7   2   7  590.07   53.37
   7   2   7  533.00   58.09
   7   2   7  575.58   58.61
   7   2   8   91.05   25.30
   7   2   8  136.21   33.37
   7   2   8  117.77   27.58
   7   2   9  455.34   64.07
   7   2   9  403.40   53.51
   7   2  10   99.80   29.58
   7   2  11   38.94   22.91
   7   3  -9   26.29   26.64
   7   3  -8   69.86   30.38
   7   3  -7  105.07   36.88
   7   3  -6    9.74   14.30
   7   3  -5   80.04   31.12
   7   3  -5  116.68   24.97
   7   3  -4  124.55   33.50
   7   3  -4   72.06   19.62
   7   3  -3   16.13   16.13
   7   3  -3   -0.05    4.61
   7   3  -2  525.09   66.35
   7   3  -2  536.26   36.82
   7   3  -1  925.83   83.28
   7   3  -1  929.81   37.10
   7   3   0  -28.54   16.88
   7   3   1 1547.81  108.06
   7   3   2  536.59   65.14
   7   3   2  401.61   50.93
   7   3   3   26.01   20.17
   7   3   3   33.09   24.26
   7   3   4   37.48   24.83
   7   3   4   18.03    9.16
   7   3   4   11.42    8.70
   7   3   5  209.59   41.71
   7   3   5  184.81   27.82
   7   3   5  164.48   27.41
   7   3   6   33.94   19.81
   7   3   6    8.04   11.39
   7   3   6   19.02   12.38
   7   3   7  685.45   77.24
   7   3   7  600.77   56.42
   7   3   7  558.43   54.28
   7   3   7  596.16   60.23
   7   3   8  305.41   55.59
   7   3   8  329.20   46.73
   7   3   8  366.90   49.42
   7   3   9   37.32   16.13
   7   3   9   38.47   26.37
   7   3   9   63.96   23.54
   7   3  10   15.83   11.85
   7   3  10    9.69   21.05
   7   3  11  119.94   34.57
   7   4  -8  -27.28   25.82
   7   4  -7  141.70   40.31
   7   4  -6  130.18   39.38
   7   4  -5   49.75   24.59
   7   4  -4  450.29   64.59
   7   4  -4  430.59   42.04
   7   4  -3  487.77   65.64
   7   4  -3  422.82   37.76
   7   4  -2   38.83   20.91
   7   4  -2   36.77    9.52
   7   4  -1  305.55   52.90
   7   4  -1  314.82   22.72
   7   4   0  462.91   61.52
   7   4   0  412.81   37.15
   7   4   1   11.69   17.26
   7   4   1   14.79    9.38
   7   4   2  267.90   46.07
   7   4   2  220.59   28.84
   7   4   3  465.58   60.64
   7   4   3  430.10   41.63
   7   4   4  167.77   36.80
   7   4   4  154.43   25.57
   7   4   5  246.44   44.84
   7   4   5  191.04   25.79
   7   4   5  220.56   33.12
   7   4   6  608.92   74.28
   7   4   6  565.21   45.03
   7   4   7   27.60   12.54
   7   4   7    9.33   22.36
   7   4   7   42.18   15.70
   7   4   8   66.30   25.00
   7   4   8   86.44   28.51
   7   4   8   76.70   22.17
   7   4   9  126.25   30.07
   7   4   9   90.88   30.24
   7   4  10   34.60   22.14
   7   4  10   30.21   22.01
   7   4  11   25.11   23.65
   7   5  -7   44.26   21.81
   7   5  -6   62.23   28.57
   7   5  -5  291.11   54.55
   7   5  -4   85.37   29.50
   7   5  -3  334.74   59.02
   7   5  -3  357.93   35.15
   7   5  -2  634.39   76.17
   7   5  -2  687.95   44.18
   7   5  -1  182.31   43.19
   7   5  -1  169.09   18.38
   7   5   0  609.31   73.32
   7   5   0  672.89   52.68
   7   5   0  732.81   29.69
   7   5   1  224.43   44.04
   7   5   1  224.10   32.30
   7   5   2  303.49   51.34
   7   5   2  273.69   34.33
   7   5   3   14.65   12.46
   7   5   3   24.86   15.59
   7   5   4  450.92   62.23
   7   5   4  419.89   44.37
   7   5   5   63.06   25.60
   7   5   6  262.60   47.09
   7   5   7  403.86   58.72
   7   5   8   44.21   21.95
   7   5   8   23.16   15.72
   7   5   9    4.97    7.71
   7   5   9   12.73   16.46
   7   5  10  284.14   47.36
   7   5  10  227.64   51.29
   7   5  11   58.12   24.39
   7   6  -5   52.30   30.54
   7   6  -4  732.87   86.90
   7   6  -3  194.25   45.88
   7   6  -2  397.99   65.36
   7   6  -1  449.44   64.90
   7   6   0   -7.79   13.20
   7   6   1  129.41   36.08
   7   6   1  141.34   16.52
   7   6   2  153.20   43.44
   7   6   2  133.69   13.56
   7   6   3  144.61   37.54
   7   6   3   73.57    9.96
   7   6   4   96.81   34.57
   7   6   5  493.62   67.39
   7   6   6  306.53   57.43
   7   6   7  -15.01   23.76
   7   6   8   83.47   25.38
   7   6   8   33.50   22.25
   7   6   9   56.28   21.54
   7   6   9   52.66   22.86
   7   6  10   41.24   24.12
   7   6  10   94.89   33.92
   7   6  11  125.02   33.45
   7   6  11   46.13   27.25
   7   7  -4   67.50   27.52
   7   7  -3  234.75   53.10
   7   7  -2   -9.14   11.50
   7   7  -1  169.74   41.38
   7   7   0  413.38   63.33
   7   7   1  416.27   66.35
   7   7   1  411.46   34.41
   7   7   2    9.55   17.48
   7   7   2   -8.15    8.70
   7   7   3  122.00   33.94
   7   7   3  207.47   23.21
   7   7   4   22.67   24.34
   7   7   4   -3.21    4.20
   7   7   5  124.85   36.14
   7   7   6  189.97   43.05
   7   7   7  198.23   44.34
   7   7   8  -12.40   12.38
   7   7   9  219.03   39.95
   7   7   9  241.14   48.98
   7   7  10   59.87   20.53
   7   7  10   39.71   26.18
   7   8  -2  131.52   41.13
   7   8  -1   43.63   23.63
   7   8   0   16.46   26.45
   7   8   1  196.20   48.95
   7   8   2  193.15   47.00
   7   8   3  -13.28   17.73
   7   8   4  185.44   44.78
   7   8   5  126.20   35.34
   7   8   6   -8.62   23.68
   7   8   7   89.98   34.22
   7   8   8   99.14   34.77
   7   8   9    9.44   25.44
   7   9   0  178.36   47.11
   7   9   1    4.91   22.89
   7   9   2  158.47   42.64
   7   9   3  194.82   49.12
   7   9   4   23.65   20.53
   7   9   5   50.13   29.00
   7   9   6  214.69   45.52
   7   9   7   11.14   19.10
   7  10   3    3.10   27.03
   7  10   4  240.40   57.57
   7  10   5   17.81    7.19
   7  10   6   71.89   29.06
   8  -5  -3   70.93   30.40
   8  -5  -2  -19.35   17.70
   8  -5  -1  107.95   34.05
   8  -5   0  146.50   38.66
   8  -5   1   63.72   30.79
   8  -5   2  209.67   44.81
   8  -5   3  176.41   41.54
   8  -5   4  -28.46   16.30
   8  -5   5  115.17   33.37
   8  -5   6  201.44   45.39
   8  -5   7   71.29   31.58
   8  -5   8   -3.87   16.41
   8  -5   9   49.25   20.74
   8  -4  -5  148.86   33.81
   8  -4  -4   25.57   17.42
   8  -4  -3   83.28   28.78
   8  -4  -2   38.39   19.78
   8  -4  -1   -1.37   11.58
   8  -4   0   82.21   32.60
   8  -4   1  320.97   51.67
   8  -4   2  149.96   38.69
   8  -4   3  -28.73   23.41
   8  -4   4  386.99   60.75
   8  -4   5  121.29   37.68
   8  -4   6  142.63   33.72
   8  -4   7  289.41   50.43
   8  -4   8   39.57   18.28
   8  -4   9   10.70   17.73
   8  -4  10   96.81   34.77
   8  -3  -5  147.66   32.85
   8  -3  -4  175.20   36.19
   8  -3  -3   67.64   22.64
   8  -3  -2   62.48   20.25
   8  -3  -2   67.15   23.49
   8  -3  -1   97.82   27.77
   8  -3  -1  150.26   34.57
   8  -3   0   -5.43   21.46
   8  -3   0   -7.38   15.37
   8  -3   1   33.09   15.48
   8  -3   1    7.93   20.25
   8  -3   2  119.56   34.63
   8  -3   2  194.91   40.91
   8  -3   3  118.07   32.96
   8  -3   3  133.77   35.07
   8  -3   4   20.06   17.40
   8  -3   5  570.75   65.88
   8  -3   6  511.18   62.34
   8  -3   7   37.57   23.35
   8  -3   8  135.42   33.23
   8  -3   9   10.78   13.75
   8  -3  10   43.08   20.66
   8  -3  11   95.79   27.39
   8  -2  -6  151.28   39.57
   8  -2  -5   82.18   26.04
   8  -2  -4    1.84   21.21
   8  -2  -3  116.37   26.92
   8  -2  -3  146.28   33.23
   8  -2  -2   12.51    9.66
   8  -2  -2    5.52   15.28
   8  -2  -1   14.93   12.38
   8  -2  -1   66.79   25.08
   8  -2   0  311.36   47.80
   8  -2   0  353.65   39.29
   8  -2   0  394.15   53.26
   8  -2   1  165.24   36.47
   8  -2   1  139.81   24.67
   8  -2   1  135.31   33.64
   8  -2   2  -16.74   17.70
   8  -2   2   -6.89    7.55
   8  -2   2    9.47   16.63
   8  -2   3  164.17   37.26
   8  -2   3  166.81   27.08
   8  -2   3  180.23   35.84
   8  -2   4  370.91   54.96
   8  -2   4  315.92   39.21
   8  -2   4  357.32   50.85
   8  -2   5   -9.06   19.92
   8  -2   5    4.12   10.32
   8  -2   5  -15.94   21.13
   8  -2   6  172.68   38.50
   8  -2   7   72.72   24.39
   8  -2   8   13.01   18.28
   8  -2   9  174.24   37.59
   8  -2  10  216.01   40.36
   8  -2  11   14.24   19.78
   8  -1  -6   11.50   13.01
   8  -1  -5  114.86   30.24
   8  -1  -5  117.36   27.11
   8  -1  -4  -18.82   13.94
   8  -1  -4   11.33   14.21
   8  -1  -3    8.20   13.97
   8  -1  -3  -11.88   17.92
   8  -1  -2  174.00   40.06
   8  -1  -2  153.34   31.83
   8  -1  -1  212.63   38.22
   8  -1  -1  283.87   42.64
   8  -1   0   -9.14   12.81
   8  -1   0   23.02   12.68
   8  -1   0  -25.05   18.30
   8  -1   1  206.95   42.56
   8  -1   1  197.62   31.17
   8  -1   2  677.55   71.92
   8  -1   2  739.37   59.19
   8  -1   3   26.37   17.78
   8  -1   3    3.73   10.51
   8  -1   4  661.25   73.90
   8  -1   4  686.50   60.18
   8  -1   4  731.74   25.88
   8  -1   5  148.18   38.06
   8  -1   5  155.15   34.30
   8  -1   5  128.09   30.73
   8  -1   5  111.82   16.05
   8  -1   6   18.28   17.31
   8  -1   6   32.87   16.49
   8  -1   6   66.65   27.96
   8  -1   7  129.68   37.07
   8  -1   7  136.35   32.68
   8  -1   8  115.06   30.02
   8  -1   9  -15.15   10.04
   8  -1  10  108.42   28.35
   8  -1  11  161.79   33.09
   8   0  -6   92.23   27.14
   8   0  -6   96.34   24.89
   8   0  -5   30.62   22.03
   8   0  -5  -10.62    8.59
   8   0  -4  134.84   34.08
   8   0  -4  116.48   29.64
   8   0  -3   12.40   16.22
   8   0  -2   49.72   19.46
   8   0  -1    3.02    7.41
   8   0   0  327.69   50.13
   8   0   1   94.06   27.14
   8   0   1  101.83   24.20
   8   0   2 1057.27   91.79
   8   0   2 1049.14   74.99
   8   0   3 1361.69  105.73
   8   0   3 1241.55   82.87
   8   0   3 1327.06   30.43
   8   0   4  144.01   35.40
   8   0   4   77.24   22.45
   8   0   4  119.50   15.28
   8   0   5  150.81   37.43
   8   0   5  183.96   34.93
   8   0   5  214.50   23.02
   8   0   6    1.56    8.89
   8   0   7   64.59   24.31
   8   0   8  293.94   53.73
   8   0   9  309.83   45.03
   8   0  10   48.46   23.74
   8   0  10   40.39   17.18
   8   0  11  -17.18   13.50
   8   1  -6  147.76   36.08
   8   1  -6  153.80   32.02
   8   1  -5  162.94   37.13
   8   1  -4   37.24   23.74
   8   1  -3  228.96   44.18
   8   1  -2  181.21   38.53
   8   1  -1   19.65   13.50
   8   1   0   52.38   20.85
   8   1   1  128.31   35.26
   8   1   1  107.24   26.56
   8   1   2  105.64   29.36
   8   1   2   48.35   20.28
   8   1   3  831.38   86.02
   8   1   3  776.09   69.37
   8   1   3  801.11   37.46
   8   1   4  877.04   86.79
   8   1   4  945.80   77.05
   8   1   4  958.84   46.21
   8   1   4  983.10   78.56
   8   1   5   42.29   21.46
   8   1   5   45.25   22.83
   8   1   6  120.90   36.69
   8   1   6   76.70   17.97
   8   1   7  379.69   61.11
   8   1   7  262.79   33.31
   8   1   8    1.21    7.41
   8   1   9  164.17   42.48
   8   1  10   73.13   27.36
   8   1  11    8.34    8.23
   8   2  -7   88.14   37.59
   8   2  -6  -47.39   21.98
   8   2  -5   78.01   28.35
   8   2  -4  104.99   34.63
   8   2  -3   21.18   16.44
   8   2  -2  153.20   37.10
   8   2  -1  661.25   74.64
   8   2   0  140.66   35.70
   8   2   1  547.24   70.38
   8   2   2  777.27   80.84
   8   2   2  761.11   40.36
   8   2   3  -13.61   16.52
   8   2   3   -4.47    6.94
   8   2   4   -4.83    8.59
   8   2   4  -11.11   10.40
   8   2   5  172.32   42.92
   8   2   5  180.28   31.28
   8   2   5  210.27   29.39
   8   2   6   13.53   15.75
   8   2   6   40.45   18.08
   8   2   6   -3.02   14.05
   8   2   7  263.48   41.13
   8   2   7  178.77   30.24
   8   2   8  538.46   73.21
   8   2   9   38.42   25.00
   8   2   9   50.19   23.63
   8   2  10   -7.19   13.99
   8   3  -7   82.81   30.73
   8   3  -6   31.39   25.68
   8   3  -5  -70.99   33.34
   8   3  -4   15.67   14.49
   8   3  -3  171.47   41.63
   8   3  -2  230.44   46.70
   8   3  -1   31.83   30.60
   8   3   0 1255.44  105.21
   8   3   1  125.26   42.26
   8   3   2  406.42   62.92
   8   3   3  517.82   70.74
   8   3   3  436.82   37.15
   8   3   4  -11.99   12.43
   8   3   4   16.63   10.21
   8   3   5  140.11   37.10
   8   3   5  137.89   27.06
   8   3   5   91.27   21.02
   8   3   6  304.53   55.13
   8   3   6  286.47   36.55
   8   3   6  299.89   39.68
   8   3   7  133.85   37.40
   8   3   7  162.34   29.94
   8   3   8   12.38   11.03
   8   3   8   19.67   18.69
   8   3   9   71.07   24.97
   8   3   9   25.71   28.54
   8   3  10   38.20   19.26
   8   3  10   84.35   31.67
   8   4  -6  120.79   49.94
   8   4  -5   94.56   31.47
   8   4  -4   27.30   18.25
   8   4  -3   -7.41   19.48
   8   4  -2  246.25   49.04
   8   4  -1  130.48   38.25
   8   4   0  182.70   43.63
   8   4   1  912.85   92.01
   8   4   1  816.01   53.59
   8   4   2  486.18   67.26
   8   4   2  501.69   43.77
   8   4   3   25.60   15.31
   8   4   3   15.83   11.09
   8   4   4  343.88   59.87
   8   4   4  259.36   34.03
   8   4   5   60.18   29.47
   8   4   5   60.07   18.60
   8   4   6  230.11   48.49
   8   4   6  256.95   33.89
   8   4   7  209.92   46.70
   8   4   8   64.98   25.33
   8   4   9   -0.14   11.39
   8   4   9    6.81   24.78
   8   4  10   97.63   29.44
   8   4  10   62.10   29.17
   8   5  -5    3.16   14.32
   8   5  -4  267.24   55.40
   8   5  -3  206.51   47.03
   8   5  -2   21.92   22.83
   8   5  -1  428.72   65.28
   8   5   0  151.63   49.75
   8   5   1   71.81   29.14
   8   5   1   19.98   14.05
   8   5   2  326.15   55.48
   8   5   2  265.29   34.63
   8   5   3  282.00   53.45
   8   5   3  308.89   38.39
   8   5   4   20.96   19.51
   8   5   5  520.70   72.88
   8   5   6  247.81   49.53
   8   5   7  -21.49   21.27
   8   5   8  -19.89   19.67
   8   5   9  122.14   36.47
   8   5  10   32.00   18.03
   8   5  10    7.99   11.14
   8   5  11  156.24   41.30
   8   6  -4   66.27   29.42
   8   6  -3  344.21   61.05
   8   6  -2  174.85   43.63
   8   6  -1  170.73   43.74
   8   6   0  439.62   70.41
   8   6   1  255.36   53.67
   8   6   2  116.89   34.16
   8   6   3  231.65   52.79
   8   6   4   80.89   32.32
   8   6   5   -7.77   18.08
   8   6   6   50.35   23.90
   8   6   7  140.08   38.83
   8   6   8   20.11   18.85
   8   6   9  178.39   45.08
   8   6  10  145.24   39.60
   8   6  10  119.17   37.26
   8   7  -2  195.40   51.53
   8   7  -1  347.09   61.74
   8   7   0   -1.95   14.79
   8   7   1  274.54   60.48
   8   7   2  135.83   39.32
   8   7   3   55.73   26.53
   8   7   4  294.62   58.53
   8   7   5   73.48   34.27
   8   7   6   99.94   34.16
   8   7   7    4.56   15.89
   8   7   8  158.71   49.34
   8   7   9  -12.59   16.00
   8   7  10   56.64   26.34
   8   8   0  428.42   73.70
   8   8   1   45.58   26.62
   8   8   2  364.35   66.24
   8   8   3  194.52   50.22
   8   8   4    8.31   18.63
   8   8   5    3.24   22.20
   8   8   6    5.63   14.19
   8   8   7   39.54   23.13
   8   8   8  144.39   47.39
   8   9   5  163.71   46.15
   9  -4   1   16.30   16.55
   9  -4   2  118.05   36.77
   9  -4   3  157.53   40.25
   9  -4   4  -33.12   20.77
   9  -4   5  119.83   35.92
   9  -3  -4   16.38   27.11
   9  -3  -3   74.03   30.13
   9  -3  -2   50.98   22.91
   9  -3  -1  112.28   29.72
   9  -3  -1   27.82   19.95
   9  -3   0  183.46   41.19
   9  -3   0  269.98   48.35
   9  -3   1   63.33   22.94
   9  -3   1   67.53   24.89
   9  -3   2  -14.87   15.26
   9  -3   2  -24.89   19.92
   9  -3   3   29.77   22.28
   9  -3   3   16.11   14.85
   9  -3   4  149.88   38.77
   9  -3   5   18.30   16.19
   9  -3   6  178.14   40.80
   9  -3   7  239.99   48.13
   9  -3   8   40.01   26.67
   9  -3   9   95.38   37.13
   9  -2  -5   58.20   25.27
   9  -2  -4  227.94   43.08
   9  -2  -3   32.60   24.37
   9  -2  -2  213.57   42.92
   9  -2  -2  285.90   46.73
   9  -2  -1  163.38   37.24
   9  -2  -1  145.27   38.88
   9  -2   0   11.06   13.75
   9  -2   0   -4.94   13.88
   9  -2   1   50.27   26.42
   9  -2   1   94.75   28.21
   9  -2   2   28.07   22.28
   9  -2   2    9.63   17.92
   9  -2   3   12.92   14.13
   9  -2   3   -9.66   17.59
   9  -2   4   84.08   28.18
   9  -2   4   74.01   24.75
   9  -2   5  429.22   64.57
   9  -2   5  411.66   58.58
   9  -2   6  185.39   39.18
   9  -2   7  -15.01   18.82
   9  -2   8  177.76   43.36
   9  -2   9    4.69   12.98
   9  -2  10   66.40   25.52
   9  -2  11   85.15   29.11
   9  -1  -5   54.25   28.78
   9  -1  -4   97.74   28.32
   9  -1  -3   73.43   31.58
   9  -1  -3  217.11   42.26
   9  -1  -2   45.33   20.83
   9  -1  -2    4.66   17.92
   9  -1  -1  237.69   46.65
   9  -1  -1  222.70   40.69
   9  -1   0  225.45   43.71
   9  -1   0  253.93   46.79
   9  -1   1   -0.44   10.45
   9  -1   1  -15.26   17.56
   9  -1   1   23.35   22.03
   9  -1   2   74.66   28.07
   9  -1   2   16.33   17.01
   9  -1   2   69.18   22.64
   9  -1   3  205.75   46.76
   9  -1   3  138.52   28.84
   9  -1   3  235.16   41.38
   9  -1   4   23.93   20.58
   9  -1   4    6.48    7.60
   9  -1   4   14.08   15.06
   9  -1   5   66.35   23.27
   9  -1   5  100.05   31.01
   9  -1   6  134.26   36.36
   9  -1   6  138.71   40.17
   9  -1   7   75.13   25.35
   9  -1   7   68.19   27.49
   9  -1   8   24.17   17.78
   9  -1   9  258.62   47.88
   9  -1  10   80.73   27.55
   9  -1  11   30.95   21.92
   9   0  -5  138.44   33.39
   9   0  -4  -23.63   19.21
   9   0  -4   32.35   22.91
   9   0  -3  111.98   27.85
   9   0  -3   72.99   28.95
   9   0  -2  142.39   36.50
   9   0  -1    1.98    5.30
   9   0   0   25.71   21.21
   9   0   1  133.44   34.71
   9   0   2  118.71   37.70
   9   0   3  258.07   51.01
   9   0   4  793.40   85.70
   9   0   5  233.79   52.14
   9   0   6  -14.95   19.21
   9   0   7   97.58   27.99
   9   0   8   37.87   23.65
   9   0   9   86.49   27.58
   9   0  10  179.54   39.29
   9   0  11  -18.93   13.75
   9   1  -5   79.03   29.17
   9   1  -5   96.07   30.76
   9   1  -4  263.84   51.07
   9   1  -3   33.78   26.29
   9   1  -2   15.67   22.39
   9   1  -1   62.12   21.40
   9   1   0   38.99   23.43
   9   1   1   12.70   16.49
   9   1   2  230.77   47.36
   9   1   3  179.57   40.78
   9   1   4    3.70   10.98
   9   1   5  467.94   68.11
   9   1   6  282.30   55.15
   9   1   7   84.73   34.35
   9   1   8  273.39   57.27
   9   1   9   -4.23   27.30
   9   1  11   14.27   16.05
   9   2  -6  198.36   48.73
   9   2  -5   40.91   21.90
   9   2  -4  182.70   42.78
   9   2  -3  337.07   60.64
   9   2  -2  117.06   35.95
   9   2  -1   -6.26   14.57
   9   2   0   96.18   33.86
   9   2   1   -6.56   11.63
   9   2   2   79.38   33.34
   9   2   3  220.04   47.75
   9   2   4  397.80   64.92
   9   2   5    6.34   23.24
   9   2   6  578.99   80.70
   9   2   7  416.84   69.94
   9   2   8  -27.33   24.94
   9   2   9   32.38   27.36
   9   3  -5  125.07   41.27
   9   3  -4   86.79   31.23
   9   3  -3   21.40   29.85
   9   3  -2  147.63   38.96
   9   3  -1  112.97   34.57
   9   3   0   79.03   32.76
   9   3   1  425.07   68.16
   9   3   2  365.69   64.05
   9   3   3   36.91   20.55
   9   3   4  126.28   39.27
   9   3   5  168.45   45.22
   9   3   6   50.41   26.23
   9   3   7  283.62   61.77
   9   3   8  117.58   36.22
   9   3   9   13.80   17.97
   9   4  -4   91.76   43.47
   9   4  -3  103.56   39.07
   9   4  -2   10.02   18.99
   9   4  -1   38.66   29.31
   9   4   0  130.29   38.80
   9   4   1    7.38   14.19
   9   4   2  363.25   61.52
   9   4   3  596.44   81.52
   9   4   4   31.01   29.17
   9   4   4   10.40   11.69
   9   4   5  493.37   72.44
   9   4   6  148.18   39.54
   9   4   7  -47.77   29.64
   9   4   8   14.41   27.11
   9   4   9   -6.28   25.88
   9   5  -3  130.81   43.52
   9   5  -2    9.38   12.10
   9   5  -1   21.38   17.97
   9   5   0   -5.13   14.02
   9   5   1  375.79   63.44
   9   5   2  207.36   50.02
   9   5   3  248.39   55.21
   9   5   4  426.31   68.68
   9   5   5  -25.19   27.85
   9   5   6  261.59   59.05
   9   5   7  118.32   37.73
   9   5   8  -15.12   22.06
   9   6  -1   86.11   40.61
   9   6   0   -6.45    9.36
   9   6   1   26.37   20.17
   9   6   2  308.87   62.34
   9   6   3   64.51   38.03
   9   6   4  262.14   58.80
   9   6   5  309.69   64.65
   9   6   6   64.68   23.63
   9   6   7  -27.63   24.92
   9   7   2   71.04   33.12
   9   7   3  193.62   49.15
   9   7   4   22.09   32.85
   9   7   5   78.75   34.11
  10  -3   1  -54.52   24.56
  10  -3   2   51.34   31.61
  10  -2  -1   60.42   27.03
  10  -2   0  236.81   46.43
  10  -2   1   10.32   16.85
  10  -2   2    5.16   19.37
  10  -2   3  139.94   41.16
  10  -2   4   36.33   28.46
  10  -2   5   35.43   21.73
  10  -1  -2  284.03   52.60
  10  -1  -1  187.77   41.35
  10  -1   0  -10.56   12.29
  10  -1   0  -44.15   28.46
  10  -1   1  205.75   42.59
  10  -1   1  148.78   39.32
  10  -1   2   11.61   12.51
  10  -1   2   -3.87   19.84
  10  -1   3   98.95   34.44
  10  -1   3  111.90   37.68
  10  -1   4  101.97   31.14
  10  -1   4  199.52   45.30
  10  -1   5   38.42   24.39
  10  -1   5   88.91   31.42
  10  -1   6   -6.78   21.13
  10  -1   6  -20.44   23.38
  10   0  -3   76.83   33.31
  10   0  -2    8.84   10.89
  10   0  -2   11.06   13.67
  10   0  -1  276.07   46.73
  10   0  -1  189.31   49.53
  10   0   0  212.08   50.63
  10   0   1   28.43   21.05
  10   0   2  247.48   51.64
  10   0   3  147.49   42.78
  10   0   4   61.74   32.98
  10   0   5    6.20   20.20
  10   0   6   -0.19   18.30
  10   0   8  168.98   40.78
  10   1  -4  -51.67   25.14
  10   1  -3  144.01   45.85
  10   1  -2  169.00   49.04
  10   1  -1  -40.06   22.28
  10   1   0   85.64   31.06
  10   1   1   54.39   24.23
  10   1   2   49.01   27.71
  10   1   3  188.76   46.10
  10   1   4  209.18   48.84
  10   1   5   24.28   22.89
  10   1   6  143.10   43.11
  10   2  -4  193.10   54.00
  10   2  -3  -26.64   34.52
  10   2  -2  192.52   46.73
  10   2  -1   94.20   36.58
  10   2   0  -12.95   20.66
  10   2   1  194.36   50.49
  10   2   2   55.02   25.52
  10   2   3  102.85   39.40
  10   2   4   39.71   23.98
  10   2   5  190.54   50.33
  10   2   6   29.20   23.10
  10   3  -2   68.46   31.34
  10   3  -1  221.55   53.62
  10   3   0  122.71   40.89
  10   3   1   30.27   31.01
  10   3   2   35.18   22.01
  10   3   3  102.19   38.20
  10   3   4  107.73   37.92
  10   3   5   46.46   23.38
  10   3   6  351.37   70.14
  10   4   0   57.10   29.03
  10   4   1  289.19   59.27
  10   4   2   74.39   35.70
  10   4   3  -13.03   20.33
  10   4   4  203.33   54.88
  10   4   5   15.48   29.83
  11  -2   1   35.15   25.49
  11  -1   0   97.55   35.12
  11  -1   1    1.54   18.33
  11   0  -1  115.99   36.08
  11   0   0    1.78   20.85
  11   0   1  289.58   57.57
   0   0   0    0.00    0.00

_computing_structure_solution     'SHELXT 2014/5 (Sheldrick, 2014)'
;
_shelx_hkl_checksum              12757
loop_
_space_group_symop_operation_xyz
'x, y, z'
'-x, -y, -z'
loop_
_atom_site_label
_atom_site_type_symbol
_atom_site_fract_x
_atom_site_fract_y
_atom_site_fract_z
_atom_site_U_iso_or_equiv
_atom_site_adp_type
_atom_site_occupancy
_atom_site_site_symmetry_order
_atom_site_calc_flag
_atom_site_refinement_flags_posn
_atom_site_refinement_flags_adp
_atom_site_refinement_flags_occupancy
_atom_site_disorder_assembly
_atom_site_disorder_group
In1 In 0.73901(3) 0.19165(2) 0.33841(2) 0.03553(9) Uani 1 1 d . . . . .
Cl1 Cl 0.77180(12) 0.30411(10) 0.53418(10) 0.0508(3) Uani 1 1 d . . . . .
Cl2 Cl 1.02694(11) 0.13266(11) 0.24892(10) 0.0556(3) Uani 1 1 d . . . . .
Cl3 Cl 0.65649(13) 0.42471(11) 0.24584(12) 0.0660(3) Uani 1 1 d . . . . .
Cl4 Cl 0.66755(14) 0.03567(12) 0.18042(10) 0.0621(3) Uani 1 1 d . . . . .
N1 N 0.4698(3) 0.1892(3) 0.4537(3) 0.0342(7) Uani 1 1 d . . . . .
N2 N 0.2844(3) 0.0326(3) 0.5509(3) 0.0333(6) Uani 1 1 d . . . . .
C1 C 0.3476(4) 0.3009(4) 0.4613(4) 0.0438(9) Uani 1 1 d . . . . .
H1 H 0.369285 0.393520 0.432147 0.053 Uiso 1 1 calc R U . . .
C2 C 0.1918(4) 0.2812(4) 0.5111(4) 0.0482(10) Uani 1 1 d . . . . .
H2 H 0.107808 0.358928 0.516312 0.058 Uiso 1 1 calc R U . . .
C3 C 0.1637(4) 0.1436(4) 0.5529(3) 0.0409(9) Uani 1 1 d . . . . .
H3 H 0.058524 0.126721 0.583469 0.049 Uiso 1 1 calc R U . . .
C4 C 0.4321(4) 0.0606(3) 0.5014(3) 0.0296(7) Uani 1 1 d . . . . .
N3 N 0.7359(4) 0.2775(3) 0.8680(3) 0.0467(8) Uani 1 1 d . . . . .
C5 C 0.7346(6) 0.4133(5) 0.8226(4) 0.0614(12) Uani 1 1 d . . . . .
H5 H 0.646304 0.458921 0.795531 0.074 Uiso 1 1 calc R U . . .
C6 C 0.8612(8) 0.4849(6) 0.8158(5) 0.0828(16) Uani 1 1 d . . . . .
H6 H 0.860674 0.579634 0.783582 0.099 Uiso 1 1 calc R U . . .
C7 C 0.9886(7) 0.4187(8) 0.8559(6) 0.097(2) Uani 1 1 d . . . . .
H7 H 1.076225 0.467682 0.851120 0.117 Uiso 1 1 calc R U . . .
C8 C 0.9890(6) 0.2817(7) 0.9028(6) 0.0904(17) Uani 1 1 d . . . . .
H8 H 1.076488 0.235584 0.930778 0.108 Uiso 1 1 calc R U . . .
C9 C 0.8596(6) 0.2115(5) 0.9089(4) 0.0650(12) Uani 1 1 d . . . . .
H9 H 0.858132 0.117201 0.941752 0.078 Uiso 1 1 calc R U . . .
C10 C 0.5969(6) 0.1988(5) 0.8723(5) 0.0731(14) Uani 1 1 d . . . . .
H10A H 0.625910 0.094684 0.887976 0.088 Uiso 1 1 calc R U . . .
H10B H 0.569981 0.204851 0.790597 0.088 Uiso 1 1 calc R U . . .
C11 C 0.4530(5) 0.2649(5) 0.9749(4) 0.0673(12) Uani 1 1 d . . . . .
H11A H 0.421591 0.366998 0.957781 0.101 Uiso 1 1 calc R U . . .
H11B H 0.479564 0.259460 1.055829 0.101 Uiso 1 1 calc R U . . .
H11C H 0.366158 0.210613 0.976542 0.101 Uiso 1 1 calc R U . . .
loop_
_atom_site_aniso_label
_atom_site_aniso_U_11
_atom_site_aniso_U_22
_atom_site_aniso_U_33
_atom_site_aniso_U_23
_atom_site_aniso_U_13
_atom_site_aniso_U_12
In1 0.03119(15) 0.03272(14) 0.04494(16) 0.00874(10) -0.01092(11) -0.00961(10)
Cl1 0.0454(6) 0.0483(5) 0.0599(7) -0.0116(4) -0.0190(5) -0.0007(4)
Cl2 0.0358(5) 0.0550(6) 0.0694(7) -0.0035(5) 0.0011(5) -0.0095(4)
Cl3 0.0477(6) 0.0558(6) 0.0983(9) 0.0438(6) -0.0216(6) -0.0145(5)
Cl4 0.0741(8) 0.0702(7) 0.0529(7) 0.0018(5) -0.0262(6) -0.0287(6)
N1 0.0259(16) 0.0288(14) 0.0486(18) 0.0073(12) -0.0103(13) -0.0048(12)
N2 0.0250(16) 0.0308(14) 0.0430(18) 0.0034(12) -0.0069(13) -0.0035(12)
C1 0.041(2) 0.0315(19) 0.059(3) 0.0130(16) -0.0149(19) -0.0028(16)
C2 0.031(2) 0.039(2) 0.071(3) 0.0107(18) -0.0102(19) 0.0021(16)
C3 0.026(2) 0.042(2) 0.053(2) 0.0066(17) -0.0091(17) -0.0017(16)
C4 0.0263(19) 0.0272(17) 0.037(2) 0.0034(13) -0.0111(15) -0.0029(13)
N3 0.050(2) 0.0448(19) 0.045(2) -0.0084(15) -0.0073(16) -0.0146(16)
C5 0.080(3) 0.052(3) 0.058(3) 0.002(2) -0.025(2) -0.015(2)
C6 0.118(5) 0.067(3) 0.066(3) 0.000(2) -0.007(3) -0.050(3)
C7 0.066(4) 0.140(6) 0.085(4) -0.033(4) 0.012(3) -0.061(4)
C8 0.045(3) 0.117(5) 0.104(5) -0.014(4) -0.016(3) -0.002(3)
C9 0.063(3) 0.057(3) 0.067(3) 0.003(2) -0.006(2) 0.002(2)
C10 0.073(3) 0.077(3) 0.075(3) -0.012(2) -0.013(3) -0.041(3)
C11 0.053(3) 0.083(3) 0.071(3) 0.005(2) -0.018(2) -0.022(2)
loop_
_atom_type_symbol
_atom_type_description
_atom_type_scat_dispersion_real
_atom_type_scat_dispersion_imag
_atom_type_scat_source
C C 0.0033 0.0016 'International Tables Vol C Tables 4.2.6.8 and 6.1.1.4'
H H 0.0000 0.0000 'International Tables Vol C Tables 4.2.6.8 and 6.1.1.4'
Cl Cl 0.1484 0.1585 'International Tables Vol C Tables 4.2.6.8 and 6.1.1.4'
In In -0.7276 1.3100 'International Tables Vol C Tables 4.2.6.8 and 6.1.1.4'
N N 0.0061 0.0033 'International Tables Vol C Tables 4.2.6.8 and 6.1.1.4'
loop_
_geom_angle_atom_site_label_1
_geom_angle_atom_site_label_2
_geom_angle_atom_site_label_3
_geom_angle
_geom_angle_site_symmetry_1
_geom_angle_site_symmetry_3
_geom_angle_publ_flag
N1 In1 N2 69.43(9) . 2_656 ?
N1 In1 Cl2 164.71(7) . . ?
N2 In1 Cl2 95.34(7) 2_656 . ?
N1 In1 Cl3 89.99(7) . . ?
N2 In1 Cl3 158.83(7) 2_656 . ?
Cl2 In1 Cl3 105.30(4) . . ?
N1 In1 Cl1 85.33(7) . . ?
N2 In1 Cl1 87.47(7) 2_656 . ?
Cl2 In1 Cl1 92.91(4) . . ?
Cl3 In1 Cl1 95.99(4) . . ?
N1 In1 Cl4 83.79(7) . . ?
N2 In1 Cl4 79.17(7) 2_656 . ?
Cl2 In1 Cl4 94.90(4) . . ?
Cl3 In1 Cl4 94.19(4) . . ?
Cl1 In1 Cl4 165.08(4) . . ?
C4 N1 C1 116.7(3) . . ?
C4 N1 In1 117.3(2) . . ?
C1 N1 In1 125.4(2) . . ?
C4 N2 C3 116.9(3) . . ?
C4 N2 In1 116.7(2) . 2_656 ?
C3 N2 In1 125.3(2) . 2_656 ?
N1 C1 C2 121.4(3) . . ?
N1 C1 H1 119.3 . . ?
C2 C1 H1 119.3 . . ?
C3 C2 C1 117.9(3) . . ?
C3 C2 H2 121.0 . . ?
C1 C2 H2 121.0 . . ?
N2 C3 C2 121.5(3) . . ?
N2 C3 H3 119.3 . . ?
C2 C3 H3 119.3 . . ?
N2 C4 N1 125.5(3) . . ?
N2 C4 C4 117.9(3) . 2_656 ?
N1 C4 C4 116.7(4) . 2_656 ?
C9 N3 C5 120.8(4) . . ?
C9 N3 C10 119.7(4) . . ?
C5 N3 C10 119.4(4) . . ?
N3 C5 C6 120.1(5) . . ?
N3 C5 H5 120.0 . . ?
C6 C5 H5 120.0 . . ?
C7 C6 C5 119.7(5) . . ?
C7 C6 H6 120.1 . . ?
C5 C6 H6 120.1 . . ?
C8 C7 C6 120.1(5) . . ?
C8 C7 H7 120.0 . . ?
C6 C7 H7 120.0 . . ?
C7 C8 C9 119.2(5) . . ?
C7 C8 H8 120.4 . . ?
C9 C8 H8 120.4 . . ?
N3 C9 C8 120.1(5) . . ?
N3 C9 H9 119.9 . . ?
C8 C9 H9 119.9 . . ?
N3 C10 C11 111.4(3) . . ?
N3 C10 H10A 109.3 . . ?
C11 C10 H10A 109.3 . . ?
N3 C10 H10B 109.3 . . ?
C11 C10 H10B 109.3 . . ?
H10A C10 H10B 108.0 . . ?
C10 C11 H11A 109.5 . . ?
C10 C11 H11B 109.5 . . ?
H11A C11 H11B 109.5 . . ?
C10 C11 H11C 109.5 . . ?
H11A C11 H11C 109.5 . . ?
H11B C11 H11C 109.5 . . ?
loop_
_geom_bond_atom_site_label_1
_geom_bond_atom_site_label_2
_geom_bond_distance
_geom_bond_site_symmetry_2
_geom_bond_publ_flag
In1 N1 2.374(3) . ?
In1 N2 2.377(3) 2_656 ?
In1 Cl2 2.4329(10) . ?
In1 Cl3 2.4336(10) . ?
In1 Cl1 2.4541(9) . ?
In1 Cl4 2.4751(10) . ?
N1 C4 1.333(4) . ?
N1 C1 1.344(4) . ?
N2 C4 1.329(4) . ?
N2 C3 1.341(4) . ?
C1 C2 1.369(5) . ?
C1 H1 0.9300 . ?
C2 C3 1.368(5) . ?
C2 H2 0.9300 . ?
C3 H3 0.9300 . ?
C4 C4 1.486(6) 2_656 ?
N3 C9 1.326(5) . ?
N3 C5 1.330(5) . ?
N3 C10 1.486(5) . ?
C5 C6 1.349(6) . ?
C5 H5 0.9300 . ?
C6 C7 1.348(8) . ?
C6 H6 0.9300 . ?
C7 C8 1.347(8) . ?
C7 H7 0.9300 . ?
C8 C9 1.364(7) . ?
C8 H8 0.9300 . ?
C9 H9 0.9300 . ?
C10 C11 1.504(6) . ?
C10 H10A 0.9700 . ?
C10 H10B 0.9700 . ?
C11 H11A 0.9600 . ?
C11 H11B 0.9600 . ?
C11 H11C 0.9600 . ?
loop_
_geom_hbond_atom_site_label_D
_geom_hbond_atom_site_label_H
_geom_hbond_atom_site_label_A
_geom_hbond_distance_DH
_geom_hbond_distance_HA
_geom_hbond_distance_DA
_geom_hbond_angle_DHA
_geom_hbond_site_symmetry_A
_geom_hbond_publ_flag
C1 H1 Cl1 0.93 2.83 3.589(3) 139.8 2_666 yes
C1 H1 Cl3 0.93 2.85 3.432(4) 121.4 . yes
C3 H3 Cl1 0.93 2.93 3.559(4) 126.3 1_455 yes
C5 H5 Cl3 0.93 2.83 3.749(5) 169.2 2_666 yes
C6 H6 Cl2 0.93 2.92 3.773(5) 152.8 2_766 yes
C9 H9 Cl2 0.93 2.96 3.461(4) 115.3 2_756 yes
C9 H9 Cl4 0.93 2.87 3.522(5) 127.8 1_556 yes
C11 H11B Cl4 0.96 2.96 3.699(5) 135.1 1_556 yes
C11 H11C Cl4 0.96 2.91 3.627(4) 132.6 2_656 yes
loop_
_geom_torsion_atom_site_label_1
_geom_torsion_atom_site_label_2
_geom_torsion_atom_site_label_3
_geom_torsion_atom_site_label_4
_geom_torsion
_geom_torsion_site_symmetry_1
_geom_torsion_site_symmetry_2
_geom_torsion_site_symmetry_3
_geom_torsion_site_symmetry_4
_geom_torsion_publ_flag
C4 N1 C1 C2 -2.5(5) . . . . ?
In1 N1 C1 C2 168.5(3) . . . . ?
N1 C1 C2 C3 -0.1(6) . . . . ?
C4 N2 C3 C2 -2.8(5) . . . . ?
In1 N2 C3 C2 165.1(3) 2_656 . . . ?
C1 C2 C3 N2 2.9(6) . . . . ?
C3 N2 C4 N1 -0.2(5) . . . . ?
In1 N2 C4 N1 -169.1(2) 2_656 . . . ?
C3 N2 C4 C4 179.7(3) . . . 2_656 ?
In1 N2 C4 C4 10.8(5) 2_656 . . 2_656 ?
C1 N1 C4 N2 2.8(5) . . . . ?
In1 N1 C4 N2 -169.0(3) . . . . ?
C1 N1 C4 C4 -177.1(3) . . . 2_656 ?
In1 N1 C4 C4 11.0(4) . . . 2_656 ?
C9 N3 C5 C6 1.0(6) . . . . ?
C10 N3 C5 C6 -178.7(4) . . . . ?
N3 C5 C6 C7 -0.4(7) . . . . ?
C5 C6 C7 C8 -0.2(8) . . . . ?
C6 C7 C8 C9 0.1(9) . . . . ?
C5 N3 C9 C8 -1.1(6) . . . . ?
C10 N3 C9 C8 178.7(4) . . . . ?
C7 C8 C9 N3 0.5(8) . . . . ?
C9 N3 C10 C11 107.7(5) . . . . ?
C5 N3 C10 C11 -72.5(5) . . . . ?
