#------------------------------------------------------------------------------
#$Date: 2021-11-20 01:57:14 +0200 (Sat, 20 Nov 2021) $
#$Revision: 270765 $
#$URL: file:///home/coder/svn-repositories/cod/cif/7/70/88/7708895.cif $
#------------------------------------------------------------------------------
#
# This file is available in the Crystallography Open Database (COD),
# http://www.crystallography.net/
#
# All data on this site have been placed in the public domain by the
# contributors.
#
data_7708895
loop_
_publ_author_name
'Glenn, Jennifer R.'
'Cho, Jeong Bin'
'Wang, Yiqun'
'Craig, Andrew J.'
'Zhang, Jian-Han'
'Cribbs, Marvene'
'Stoyko, Stanislav S.'
'Rosello, Kate E.'
'Barton, Christopher'
'Bonnoni, Allyson'
'Grima-Gallardo, Pedro'
'MacNeil, Joseph H.'
'Rondinelli, James M.'
'Jang, Joon I.'
'Aitken, Jennifer A.'
_publ_section_title
;
 Cu4MnGe2S7 and Cu2MnGeS4: two polar thiogermanates exhibiting second
 harmonic generation in the infrared and structures derived from hexagonal
 diamond
;
_journal_name_full               'Dalton Transactions'
_journal_paper_doi               10.1039/D1DT02535J
_journal_year                    2021
_chemical_formula_sum            'Cu4 Ge2 Mn S7'
_chemical_formula_weight         678.70
_chemical_name_common            Cu4MnGe2S7
_chemical_name_systematic
'tetracopper manganese digermanium heptasulfide'
_space_group_crystal_system      monoclinic
_space_group_IT_number           9
_space_group_name_Hall           'C -2yc'
_space_group_name_H-M_alt        'C 1 c 1'
_atom_sites_solution_primary     direct
_atom_sites_solution_secondary   difmap
_audit_creation_method           SHELXL-2018/3
_audit_update_record
;
2021-07-23 deposited with the CCDC.	2021-11-08 downloaded from the CCDC.
;
_cell_angle_alpha                90
_cell_angle_beta                 93.1517(9)
_cell_angle_gamma                90
_cell_formula_units_Z            4
_cell_length_a                   16.7332(3)
_cell_length_b                   6.47600(10)
_cell_length_c                   9.8022(2)
_cell_measurement_reflns_used    4243
_cell_measurement_temperature    296(2)
_cell_measurement_theta_max      32.791
_cell_measurement_theta_min      2.4375
_cell_volume                     1060.60(3)
_computing_cell_refinement       'SAINT (Bruker, 2001)'
_computing_data_collection       'SMART (Bruker, 2001)'
_computing_data_reduction        'SAINT (Bruker, 2001)'
_computing_molecular_graphics    'ShelXle (Huschle 2011)'
_computing_publication_material  'publCIF (Westrip, 2010)'
_computing_structure_refinement  'SHELXL-2018/3 (Sheldrick, 2018)'
_computing_structure_solution    'SHELXS-2018/3 (Sheldrick, 2018)'
_diffrn_ambient_temperature      296(2)
_diffrn_measured_fraction_theta_full 1.000
_diffrn_measured_fraction_theta_max 1.000
_diffrn_measurement_device_type  'Bruker SMART ApexII'
_diffrn_measurement_method       '\f and \w Scans'
_diffrn_radiation_type           MoK\a
_diffrn_radiation_wavelength     0.71073
_diffrn_reflns_av_R_equivalents  0.0154
_diffrn_reflns_av_unetI/netI     0.0392
_diffrn_reflns_Laue_measured_fraction_full 1.000
_diffrn_reflns_Laue_measured_fraction_max 1.000
_diffrn_reflns_limit_h_max       21
_diffrn_reflns_limit_h_min       -21
_diffrn_reflns_limit_k_max       8
_diffrn_reflns_limit_k_min       -8
_diffrn_reflns_limit_l_max       12
_diffrn_reflns_limit_l_min       -12
_diffrn_reflns_number            4396
_diffrn_reflns_point_group_measured_fraction_full 0.986
_diffrn_reflns_point_group_measured_fraction_max 0.984
_diffrn_reflns_theta_full        25.242
_diffrn_reflns_theta_max         27.474
_diffrn_reflns_theta_min         2.438
_diffrn_source                   'fine-focus sealed tube'
_exptl_absorpt_coefficient_mu    15.925
_exptl_absorpt_correction_T_max  0.4352
_exptl_absorpt_correction_T_min  0.2800
_exptl_absorpt_correction_type   multi-scan
_exptl_absorpt_process_details   'SADABS (Sheldrick, 2002)'
_exptl_crystal_colour            black
_exptl_crystal_density_diffrn    4.250
_exptl_crystal_density_method    'not measured'
_exptl_crystal_description       'irregular polyhedron'
_exptl_crystal_F_000             1268
_exptl_crystal_size_max          0.180
_exptl_crystal_size_mid          0.135
_exptl_crystal_size_min          0.102
_refine_diff_density_max         0.695
_refine_diff_density_min         -0.891
_refine_diff_density_rms         0.181
_refine_ls_abs_structure_details
;
 Refined as an inversion twin.
;
_refine_ls_abs_structure_Flack   0.063(12)
_refine_ls_extinction_coef       0.00567(18)
_refine_ls_extinction_expression Fc^*^=kFc[1+0.001xFc^2^\l^3^/sin(2\q)]^-1/4^
_refine_ls_extinction_method     'SHELXL-2018/3 (Sheldrick 2018)'
_refine_ls_goodness_of_fit_ref   1.068
_refine_ls_hydrogen_treatment    undef
_refine_ls_matrix_type           full
_refine_ls_number_parameters     129
_refine_ls_number_reflns         2405
_refine_ls_number_restraints     2
_refine_ls_restrained_S_all      1.067
_refine_ls_R_factor_all          0.0223
_refine_ls_R_factor_gt           0.0210
_refine_ls_shift/su_max          0.001
_refine_ls_shift/su_mean         0.000
_refine_ls_structure_factor_coef Fsqd
_refine_ls_weighting_details     'w=1/[\s^2^(Fo^2^)] where P=(Fo^2^+2Fc^2^)/3'
_refine_ls_weighting_scheme      calc
_refine_ls_wR_factor_gt          0.0521
_refine_ls_wR_factor_ref         0.0551
_reflns_Friedel_coverage         0.965
_reflns_Friedel_fraction_full    0.972
_reflns_Friedel_fraction_max     0.968
_reflns_number_gt                2282
_reflns_number_total             2405
_reflns_threshold_expression     'I > 2\s(I)'
_cod_data_source_file            d1dt02535j2.cif
_cod_data_source_block           Cu4MnGe2S7
_cod_original_sg_symbol_H-M      'C c'
_cod_database_code               7708895
_shelx_shelxl_version_number     2018/3
_shelx_space_group_comment
;
The symmetry employed for this shelxl refinement is uniquely defined
by the following loop, which should always be used as a source of
symmetry information in preference to the above space-group names.
They are only intended as comments.
;
_shelx_estimated_absorpt_t_min   0.162
_shelx_estimated_absorpt_t_max   0.293
_shelx_res_file
;
TITL Cu4MnGe2S7 in Cc
    Cu4MnGe2S7.res
    created by SHELXL-2018/3 at 14:37:08 on 26-Jul-2020
CELL 0.71073  16.73320   6.47600   9.80220  90.0000  93.1517  90.0000
ZERR    4.00   0.00030   0.00010   0.00020   0.0000   0.0009   0.0000
LATT -7
SYMM X, -Y, 0.5+Z
SFAC S MN CU GE
UNIT 28 4 16 8
LIST 6 ! automatically inserted. Change 6 to 4 for CHECKCIF!!
TEMP 296
SIZE 0.102 0.135 0.18

L.S. 4
SHEL 999 0.77
ACTA
BOND
FMAP 2
PLAN 20
TWIN
WGHT    0.000000
EXTI    0.005673
BASF   0.06335
FVAR       0.05346
CU1   3   -0.001926    0.179998   -0.001307    11.00000    0.01794    0.02444 =
         0.01636   -0.00144    0.00161   -0.00275
CU2   3    0.065491    0.339317    0.360350    11.00000    0.01886    0.01670 =
         0.02115   -0.00117   -0.00215   -0.00034
CU3   3    0.212369    0.319600    0.079884    11.00000    0.01682    0.02159 =
         0.02055   -0.00028   -0.00010    0.00159
CU4   3    0.353251    0.678308    0.283506    11.00000    0.01835    0.01907 =
         0.01857   -0.00043    0.00217   -0.00080
MN    2    0.283943    0.151556    0.437294    11.00000    0.01267    0.01574 =
         0.01437   -0.00033    0.00059    0.00035
GE1   4    0.428023    0.163441    0.156720    11.00000    0.00754    0.00904 =
         0.00939   -0.00086   -0.00004    0.00022
GE2   4    0.638805    0.324972    0.227986    11.00000    0.00862    0.00799 =
         0.00963    0.00001   -0.00059    0.00020
S1    1    0.033221    0.167426    0.565709    11.00000    0.00759    0.00941 =
         0.01001   -0.00115    0.00077    0.00037
S2    1    0.170084    0.151776    0.272578    11.00000    0.01402    0.00810 =
         0.01315   -0.00059    0.00039   -0.00052
S3    1    0.240679    0.664860    0.137361    11.00000    0.01188    0.01107 =
         0.01296   -0.00065    0.00104    0.00173
S4    1    0.328464    0.192293   -0.002117    11.00000    0.00778    0.01398 =
         0.01044    0.00180   -0.00048   -0.00035
S5    1    0.393015    0.339948    0.338273    11.00000    0.01154    0.01042 =
         0.01021   -0.00161    0.00200    0.00123
S6    1    0.461559    0.160285    0.697308    11.00000    0.01037    0.00873 =
         0.01081   -0.00018    0.00197   -0.00073
S7    1    0.608483    0.166573    0.416008    11.00000    0.01238    0.01012 =
         0.00946    0.00113    0.00122    0.00025
HKLF 4




REM  Cu4MnGe2S7 in Cc
REM wR2 = 0.0551, GooF = S = 1.068, Restrained GooF = 1.067 for all data
REM R1 = 0.0210 for 2282 Fo > 4sig(Fo) and 0.0223 for all 2405 data
REM 129 parameters refined using 2 restraints

END

WGHT      0.0000      0.0000

REM Highest difference peak  0.695,  deepest hole -0.891,  1-sigma level  0.181
Q1    1   0.4404  0.0052  0.6804  11.00000  0.05    0.65
Q2    1   0.2123  0.5023  0.0860  11.00000  0.05    0.60
Q3    1   0.1494 -0.0027  0.2359  11.00000  0.05    0.58
Q4    1   0.3464  0.4946  0.2835  11.00000  0.05    0.53
Q5    1   0.0057 -0.0005  0.0247  11.00000  0.05    0.52
Q6    1   0.3625  0.9931  0.2987  11.00000  0.05    0.51
Q7    1   0.5105  0.0334  0.7479  11.00000  0.05    0.51
Q8    1   0.0726  0.5199  0.3612  11.00000  0.05    0.51
Q9    1   0.2877 -0.0169  0.4423  11.00000  0.05    0.50
Q10   1   0.2777  0.5027 -0.0704  11.00000  0.05    0.48
Q11   1   0.3432 -0.0107  0.0340  11.00000  0.05    0.48
Q12   1   0.6402  0.0023  0.2188  11.00000  0.05    0.47
Q13   1   0.0026  0.4914  0.0120  11.00000  0.05    0.47
Q14   1   0.2205  0.0094  0.0936  11.00000  0.05    0.45
Q15   1   0.0285  0.4770  0.3200  11.00000  0.05    0.45
Q16   1   0.1934 -0.0135  0.2954  11.00000  0.05    0.44
Q17   1   0.6414  0.0011  0.4622  11.00000  0.05    0.44
Q18   1   0.2259  0.0231  0.3420  11.00000  0.05    0.44
Q19   1   0.2883  0.0491  0.3728  11.00000  0.05    0.43
Q20   1  -0.0510  0.0233 -0.0418  11.00000  0.05    0.42
;
_shelx_res_checksum              64802
_shelx_hkl_file
;
  -1  -3 -14    3.86    0.54
   1  -3 -14    6.53    0.65
   0  -2 -14   20.60    1.32
   2  -2 -14    0.85    0.27
   4  -2 -14    1.45    0.17
   6  -2 -14    0.80    0.29
   1  -1 -14    1.92    0.22
   3  -1 -14    2.70    0.23
   5  -1 -14    0.03    0.15
   7  -1 -14    1.28    0.32
  -2   0 -14    0.82    0.28
   0   0 -14   72.41    3.78
   2   0 -14    1.62    0.18
   4   0 -14    2.64    0.45
   6   0 -14    4.01    0.57
   8   0 -14    6.10    0.64
  -1   1 -14    1.43    0.33
   1   1 -14    2.08    0.26
   3   1 -14    2.73    0.21
   5   1 -14   -0.08    0.14
   7   1 -14    1.19    0.32
   2   2 -14    0.67    0.13
   4   2 -14    1.58    0.34
   6   2 -14    0.36    0.21
   5   3 -14    0.05    0.18
  -2  -4 -13    4.63    0.50
   0  -4 -13    0.08    0.15
   2  -4 -13   81.40    5.07
   4  -4 -13    4.70    0.61
  -7  -3 -13    0.50    0.20
  -5  -3 -13    0.69    0.22
  -3  -3 -13    0.69    0.21
  -1  -3 -13    0.71    0.15
   1  -3 -13    1.09    0.18
   3  -3 -13    0.62    0.13
   5  -3 -13    0.13    0.08
   7  -3 -13    0.29    0.19
  -8  -2 -13    8.25    0.73
  -6  -2 -13    2.86    0.39
  -4  -2 -13    3.79    0.41
  -2  -2 -13    3.46    0.31
   0  -2 -13    0.36    0.11
   2  -2 -13  107.33    4.43
   4  -2 -13    4.14    0.29
   6  -2 -13    5.78    0.58
   8  -2 -13    2.65    0.44
  10  -2 -13    3.43    0.51
  -7  -1 -13    0.35    0.17
  -5  -1 -13   20.98    1.57
  -3  -1 -13    1.15    0.23
  -1  -1 -13   13.61    0.68
   1  -1 -13    6.46    0.40
   3  -1 -13    4.71    0.32
   5  -1 -13    1.42    0.32
   7  -1 -13    2.71    0.43
   9  -1 -13  102.04    5.53
  11  -1 -13    3.71    0.54
  -8   0 -13    0.02    0.12
  -6   0 -13    0.05    0.10
  -4   0 -13    0.02    0.09
  -2   0 -13    0.01    0.09
   0   0 -13   -0.02    0.06
   2   0 -13    0.19    0.09
   4   0 -13    0.06    0.06
   6   0 -13    0.01    0.13
   8   0 -13    0.07    0.15
  10   0 -13    0.05    0.16
  12   0 -13    0.15    0.21
  -9   1 -13   10.34    0.84
  -7   1 -13    0.11    0.12
  -5   1 -13   22.00    1.57
  -3   1 -13    1.18    0.22
  -1   1 -13   13.50    0.90
   1   1 -13    6.80    0.39
   3   1 -13    4.77    0.30
   5   1 -13    1.15    0.30
   7   1 -13    3.08    0.46
   9   1 -13   98.99    5.50
  11   1 -13    3.75    0.53
  -8   2 -13    7.32    0.68
  -6   2 -13    2.95    0.37
  -4   2 -13    4.27    0.39
  -2   2 -13    3.67    0.35
   0   2 -13    0.39    0.13
   2   2 -13  107.85    4.45
   4   2 -13    4.23    0.49
   6   2 -13    5.11    0.56
   8   2 -13    2.71    0.42
  10   2 -13    2.96    0.49
  -3   3 -13    1.21    0.22
  -1   3 -13    0.86    0.17
   1   3 -13    0.86    0.16
   5   3 -13    0.09    0.17
   7   3 -13    0.49    0.23
   9   3 -13    0.56    0.25
   6   4 -13    4.37    0.58
  -5  -5 -12    0.79    0.28
  -3  -5 -12   26.57    1.26
  -1  -5 -12    1.32    0.32
   1  -5 -12    3.96    0.55
   3  -5 -12    0.83    0.28
   5  -5 -12    2.55    0.43
  -6  -4 -12    1.05    0.25
  -4  -4 -12    3.52    0.33
  -2  -4 -12    2.01    0.24
   0  -4 -12    0.97    0.17
   2  -4 -12    0.41    0.12
   4  -4 -12    1.43    0.19
   6  -4 -12    1.96    0.18
   8  -4 -12    3.60    0.52
  10  -4 -12    2.72    0.49
  -7  -3 -12    1.78    0.33
  -5  -3 -12    0.34    0.17
  -3  -3 -12   98.49    3.73
  -1  -3 -12    1.88    0.21
   1  -3 -12    3.35    0.29
   3  -3 -12    4.58    0.32
   5  -3 -12    7.68    0.41
   7  -3 -12    8.86    0.76
   9  -3 -12    0.51    0.20
  11  -3 -12   73.58    4.56
  -8  -2 -12    1.62    0.34
  -6  -2 -12    0.42    0.17
  -4  -2 -12    1.05    0.22
  -2  -2 -12    3.46    0.27
   0  -2 -12    6.87    0.42
   2  -2 -12    0.53    0.12
   4  -2 -12    4.89    0.31
   6  -2 -12    0.69    0.22
   8  -2 -12    2.85    0.43
  10  -2 -12    1.98    0.36
  12  -2 -12    1.47    0.33
  14  -2 -12    0.00    0.24
  -7  -1 -12    0.27    0.14
  -5  -1 -12    0.13    0.11
  -3  -1 -12   28.01    1.58
  -1  -1 -12    0.58    0.12
   1  -1 -12    0.81    0.14
   3  -1 -12    1.66    0.19
   5  -1 -12    2.47    0.18
   7  -1 -12    1.51    0.31
   9  -1 -12    0.49    0.20
  11  -1 -12   23.03    1.61
  13  -1 -12    1.08    0.29
  -8   0 -12    4.49    0.44
  -6   0 -12    2.38    0.31
  -4   0 -12    8.13    0.60
  -2   0 -12   11.94    0.84
   0   0 -12   17.51    0.84
   2   0 -12    0.30    0.09
   4   0 -12   16.51    0.77
   6   0 -12    0.31    0.18
   8   0 -12   10.24    0.85
  10   0 -12    9.07    0.80
  12   0 -12    4.66    0.54
  14   0 -12    0.12    0.17
  -9   1 -12    1.53    0.28
  -7   1 -12    0.53    0.17
  -5   1 -12    0.03    0.09
  -3   1 -12   29.11    1.57
  -1   1 -12    0.45    0.13
   1   1 -12    0.71    0.12
   3   1 -12    2.16    0.18
   5   1 -12    2.02    0.35
   7   1 -12    1.58    0.31
   9   1 -12    0.25    0.17
  11   1 -12   22.08    1.59
  13   1 -12    1.75    0.36
  -8   2 -12    1.80    0.29
  -6   2 -12    0.33    0.13
  -4   2 -12    1.21    0.22
  -2   2 -12    3.35    0.33
   0   2 -12    6.97    0.53
   2   2 -12    0.48    0.10
   4   2 -12    5.21    0.52
   6   2 -12    0.78    0.24
   8   2 -12    2.27    0.40
  10   2 -12    1.96    0.37
  12   2 -12    1.68    0.36
 -11   3 -12    4.82    0.83
  -9   3 -12    6.72    0.61
  -7   3 -12    1.53    0.29
  -5   3 -12    0.24    0.12
  -3   3 -12   98.42    5.19
  -1   3 -12    2.16    0.26
   1   3 -12    3.64    0.32
   3   3 -12    4.41    0.27
   5   3 -12    6.99    0.65
   7   3 -12    9.05    0.77
   9   3 -12    0.51    0.23
  11   3 -12   75.75    4.58
 -10   4 -12   26.55    1.85
  -6   4 -12    0.82    0.20
  -4   4 -12    3.05    0.34
  -2   4 -12    2.09    0.27
   0   4 -12    0.78    0.16
   2   4 -12    0.37    0.10
   4   4 -12    1.55    0.33
   6   4 -12    2.05    0.37
   8   4 -12    3.09    0.49
  10   4 -12    3.35    0.51
   1   5 -12    3.95    0.33
  -6  -6 -11    2.21    0.42
  -4  -6 -11    2.73    0.34
  -2  -6 -11    2.71    0.34
   0  -6 -11    2.76    0.44
   2  -6 -11    0.08    0.17
   4  -6 -11    0.73    0.27
  -5  -5 -11    2.59    0.28
  -3  -5 -11    0.02    0.09
  -1  -5 -11  105.29    4.40
   1  -5 -11    2.62    0.28
   3  -5 -11    8.42    0.48
   5  -5 -11    4.51    0.32
   7  -5 -11    2.94    0.22
   9  -5 -11    2.15    0.40
  -6  -4 -11    1.60    0.22
  -4  -4 -11   15.52    0.77
  -2  -4 -11    4.23    0.33
   0  -4 -11    5.05    0.35
   2  -4 -11    0.81    0.15
   4  -4 -11    1.75    0.20
   6  -4 -11  137.42    5.38
   8  -4 -11    5.12    0.54
  10  -4 -11    1.29    0.30
  12  -4 -11    1.02    0.28
  -7  -3 -11    0.71    0.21
  -5  -3 -11    0.80    0.14
  -3  -3 -11    0.00    0.07
  -1  -3 -11    0.01    0.07
   1  -3 -11    0.57    0.12
   3  -3 -11    0.16    0.08
   5  -3 -11    0.80    0.13
   7  -3 -11    0.72    0.22
   9  -3 -11    1.05    0.25
  11  -3 -11    0.10    0.15
  13  -3 -11    0.30    0.18
  15  -3 -11    0.96    0.29
  -6  -2 -11    0.35    0.14
  -4  -2 -11   17.88    0.84
  -2  -2 -11    6.81    0.40
   0  -2 -11    4.55    0.30
   2  -2 -11    0.64    0.12
   4  -2 -11    1.51    0.17
   6  -2 -11  173.09    6.66
   8  -2 -11    4.79    0.47
  10  -2 -11    0.88    0.24
  12  -2 -11    1.25    0.30
  14  -2 -11    3.53    0.50
  16  -2 -11    7.16    0.70
  -7  -1 -11    4.55    0.42
  -5  -1 -11    8.28    0.60
  -3  -1 -11    0.13    0.07
  -1  -1 -11  199.38    8.09
   1  -1 -11    6.64    0.38
   3  -1 -11    7.38    0.40
   5  -1 -11    4.01    0.25
   7  -1 -11    6.13    0.57
   9  -1 -11   12.48    1.00
  11  -1 -11    1.71    0.32
  15  -1 -11    0.46    0.21
  17  -1 -11    0.17    0.20
 -16   0 -11   -0.07    0.15
 -14   0 -11   -0.01    0.15
 -12   0 -11    0.00    0.13
  -8   0 -11   -0.02    0.08
  -6   0 -11   -0.06    0.07
  -4   0 -11   -0.05    0.06
  -2   0 -11   -0.02    0.05
   0   0 -11    0.00    0.05
   2   0 -11   -0.01    0.04
   4   0 -11    0.00    0.05
   6   0 -11    0.01    0.10
   8   0 -11   -0.01    0.11
  10   0 -11   -0.08    0.11
  12   0 -11   -0.04    0.11
  14   0 -11    0.06    0.15
  16   0 -11    0.00    0.15
 -13   1 -11    0.64    0.22
 -11   1 -11   13.45    1.11
  -9   1 -11    1.30    0.20
  -7   1 -11    4.24    0.41
  -5   1 -11    8.30    0.59
  -3   1 -11    0.32    0.11
  -1   1 -11  200.16    8.08
   1   1 -11    6.95    0.38
   3   1 -11    7.51    0.39
   5   1 -11    4.13    0.44
   7   1 -11    6.51    0.59
   9   1 -11   12.98    1.01
  11   1 -11    1.60    0.31
  15   1 -11    0.46    0.22
  17   1 -11    0.69    0.39
 -14   2 -11    7.61    0.74
 -12   2 -11    9.82    0.88
 -10   2 -11    0.15    0.16
  -8   2 -11   31.20    1.58
  -6   2 -11    0.36    0.13
  -4   2 -11   18.13    1.15
  -2   2 -11    6.77    0.51
   0   2 -11    4.68    0.29
   2   2 -11    0.67    0.11
   4   2 -11    1.42    0.13
   6   2 -11  173.37    9.53
   8   2 -11    5.18    0.51
  10   2 -11    0.66    0.22
  12   2 -11    1.95    0.36
  14   2 -11    4.07    0.55
  16   2 -11    6.20    0.70
 -13   3 -11    0.02    0.17
 -11   3 -11    0.84    0.27
  -9   3 -11    2.26    0.24
  -7   3 -11    0.86    0.15
  -5   3 -11    0.92    0.19
  -3   3 -11    0.01    0.07
  -1   3 -11    0.06    0.07
   1   3 -11    0.50    0.10
   3   3 -11    0.25    0.07
   5   3 -11    0.85    0.23
   7   3 -11    0.38    0.19
   9   3 -11    1.33    0.29
  11   3 -11    0.42    0.20
  13   3 -11    0.40    0.22
  15   3 -11    1.09    0.37
 -12   4 -11    8.77    0.84
 -10   4 -11    0.60    0.15
  -8   4 -11   21.13    1.15
  -6   4 -11    1.38    0.19
  -4   4 -11   15.67    0.75
  -2   4 -11    4.39    0.39
   0   4 -11    4.39    0.38
   2   4 -11    0.73    0.11
   4   4 -11    1.94    0.34
   6   4 -11  133.33    7.68
   8   4 -11    4.39    0.56
  10   4 -11    1.78    0.35
  12   4 -11    1.06    0.30
  -9   5 -11    3.80    0.58
  -7   5 -11    4.05    0.33
  -5   5 -11    2.31    0.25
  -3   5 -11   -0.03    0.07
  -1   5 -11  106.25    6.09
   1   5 -11    3.20    0.28
  -6   6 -11    2.23    0.43
  -4   6 -11    2.74    0.48
  -2   6 -11    2.73    0.45
   0   6 -11    2.54    0.31
  -8  -6 -10    0.10    0.18
  -6  -6 -10   70.01    3.88
  -4  -6 -10    1.49    0.22
  -2  -6 -10    2.56    0.29
   0  -6 -10    3.66    0.34
   2  -6 -10    5.34    0.39
   4  -6 -10    5.13    0.36
   6  -6 -10    0.05    0.08
   8  -6 -10   73.86    3.13
  10  -6 -10    4.61    0.67
  -7  -5 -10    0.28    0.17
  -5  -5 -10    4.24    0.33
  -3  -5 -10    8.03    0.48
  -1  -5 -10    1.73    0.21
   1  -5 -10    8.69    0.50
   3  -5 -10    2.74    0.27
   5  -5 -10    5.80    0.35
   7  -5 -10    1.65    0.17
   9  -5 -10    2.58    0.40
  11  -5 -10    0.26    0.19
  13  -5 -10    0.93    0.30
  -6  -4 -10   22.08    0.94
  -4  -4 -10    0.62    0.13
  -2  -4 -10    0.55    0.12
   0  -4 -10    7.24    0.42
   2  -4 -10    4.92    0.33
   4  -4 -10    0.63    0.12
   6  -4 -10    0.22    0.08
   8  -4 -10   26.69    1.80
  10  -4 -10    2.99    0.43
  12  -4 -10    4.63    0.51
  14  -4 -10    3.07    0.44
  16  -4 -10    0.64    0.26
 -15  -3 -10    1.29    0.32
  -5  -3 -10   12.96    0.63
  -3  -3 -10   13.11    0.70
  -1  -3 -10    0.19    0.08
   1  -3 -10   26.78    1.18
   3  -3 -10    0.42    0.10
   5  -3 -10   12.43    0.64
   7  -3 -10    8.49    0.42
   9  -3 -10    4.61    0.49
  11  -3 -10    0.57    0.19
  13  -3 -10    3.58    0.47
  15  -3 -10  155.00    8.72
  17  -3 -10    8.80    0.79
 -16  -2 -10    4.56    0.57
 -14  -2 -10    2.76    0.43
 -12  -2 -10    4.72    0.49
  -6  -2 -10   56.72    3.18
  -4  -2 -10    0.99    0.14
  -2  -2 -10    4.05    0.28
   0  -2 -10    1.32    0.16
   2  -2 -10    2.80    0.23
   4  -2 -10    6.75    0.36
   6  -2 -10    0.19    0.06
   8  -2 -10   48.77    3.04
  10  -2 -10    1.71    0.30
  12  -2 -10    1.60    0.30
  14  -2 -10    0.29    0.18
  16  -2 -10    0.48    0.22
  18  -2 -10    2.90    0.47
 -17  -1 -10    0.48    0.24
 -15  -1 -10    0.55    0.22
 -13  -1 -10   50.06    2.92
 -11  -1 -10    0.45    0.19
  -9  -1 -10    0.97    0.21
  -7  -1 -10    3.58    0.35
  -5  -1 -10    3.71    0.36
  -3  -1 -10    3.49    0.25
  -1  -1 -10    0.04    0.05
   1  -1 -10    8.33    0.43
   3  -1 -10    0.08    0.06
   5  -1 -10    4.01    0.25
   7  -1 -10    3.37    0.39
   9  -1 -10    1.52    0.28
  11  -1 -10    0.08    0.12
  13  -1 -10    1.17    0.27
  15  -1 -10   47.46    2.81
  17  -1 -10    2.51    0.42
  19  -1 -10    1.09    0.30
 -16   0 -10   17.52    1.22
 -14   0 -10    6.37    0.64
 -12   0 -10   11.02    0.88
  -8   0 -10    0.61    0.12
  -6   0 -10  200.21   10.40
  -4   0 -10    3.08    0.28
  -2   0 -10    8.16    0.45
   0   0 -10    6.35    0.36
   2   0 -10   10.75    0.52
   4   0 -10   14.81    0.67
   6   0 -10    1.11    0.25
   8   0 -10  203.62   11.78
  10   0 -10    7.79    0.69
  12   0 -10   11.98    0.92
  14   0 -10    5.05    0.51
  16   0 -10    2.19    0.38
  18   0 -10    8.50    0.82
 -17   1 -10    1.08    0.31
 -15   1 -10    0.34    0.20
 -13   1 -10   47.81    2.92
 -11   1 -10    0.59    0.19
  -9   1 -10    0.81    0.16
  -7   1 -10    3.67    0.35
  -5   1 -10    3.65    0.25
  -3   1 -10    3.53    0.33
  -1   1 -10    0.05    0.05
   1   1 -10    7.77    0.41
   3   1 -10    0.12    0.05
   5   1 -10    4.00    0.42
   7   1 -10    3.69    0.41
   9   1 -10    1.45    0.29
  11   1 -10    0.09    0.13
  13   1 -10    1.03    0.26
  15   1 -10   46.29    2.80
  17   1 -10    2.16    0.40
  19   1 -10    1.12    0.39
 -16   2 -10    4.78    0.63
 -14   2 -10    2.60    0.44
 -12   2 -10    3.60    0.51
 -10   2 -10    0.30    0.18
  -8   2 -10    0.37    0.10
  -6   2 -10   58.51    2.26
  -4   2 -10    0.95    0.14
  -2   2 -10    3.96    0.36
   0   2 -10    1.10    0.13
   2   2 -10    3.21    0.21
   4   2 -10    6.46    0.33
   6   2 -10    0.09    0.11
   8   2 -10   48.55    3.05
  10   2 -10    2.14    0.34
  12   2 -10    1.35    0.30
  14   2 -10   -0.01    0.11
  16   2 -10    0.53    0.23
  18   2 -10    3.19    0.52
 -15   3 -10    1.46    0.35
 -13   3 -10  152.63    8.83
 -11   3 -10    3.14    0.48
  -9   3 -10    2.56    0.25
  -7   3 -10    8.87    0.48
  -5   3 -10   12.72    0.62
  -3   3 -10   13.64    0.95
  -1   3 -10    0.01    0.05
   1   3 -10   26.49    1.15
   3   3 -10    0.41    0.08
   5   3 -10   12.81    0.97
   7   3 -10    8.31    0.71
   9   3 -10    4.90    0.52
  11   3 -10    0.35    0.18
  13   3 -10    2.75    0.43
  15   3 -10  150.63    8.73
  17   3 -10    9.69    0.92
 -14   4 -10    1.21    0.35
 -12   4 -10    0.94    0.29
 -10   4 -10    0.28    0.12
  -8   4 -10    1.36    0.19
  -6   4 -10   21.97    0.93
  -4   4 -10    0.63    0.12
  -2   4 -10    0.63    0.12
   0   4 -10    6.49    0.37
   2   4 -10    4.87    0.28
   4   4 -10    0.79    0.21
   6   4 -10    0.20    0.15
   8   4 -10   26.66    1.80
  10   4 -10    3.23    0.46
  12   4 -10    4.42    0.51
  14   4 -10    2.77    0.46
 -11   5 -10    2.55    0.47
  -9   5 -10    0.25    0.12
  -7   5 -10    0.37    0.12
  -5   5 -10    3.80    0.30
  -3   5 -10    7.19    0.45
  -1   5 -10    1.66    0.18
   1   5 -10    8.83    0.45
   3   5 -10    2.65    0.21
  -8   6 -10    0.33    0.22
  -6   6 -10   70.46    2.72
  -4   6 -10    1.35    0.18
  -2   6 -10    2.64    0.25
   0   6 -10    3.66    0.28
   2   6 -10    5.97    0.34
  -3   7 -10    1.56    0.39
  -1   7 -10    1.60    0.38
   1   7 -10    0.65    0.26
   3   7 -10    2.89    0.48
  -7  -7  -9   11.90    1.00
  -5  -7  -9    1.18    0.30
  -3  -7  -9    1.92    0.26
  -1  -7  -9    0.47    0.14
   1  -7  -9    0.00    0.09
   3  -7  -9   96.95    3.87
   5  -7  -9    3.85    0.36
   7  -7  -9    1.94    0.38
  -8  -6  -9    1.88    0.36
  -6  -6  -9    0.02    0.13
  -4  -6  -9    0.14    0.11
  -2  -6  -9    1.32    0.20
   0  -6  -9    0.94    0.16
   2  -6  -9    1.81    0.22
   4  -6  -9    2.03    0.23
   6  -6  -9    4.07    0.30
   8  -6  -9    1.09    0.14
  10  -6  -9    1.09    0.29
  12  -6  -9    3.07    0.48
 -15  -5  -9    4.82    0.66
  -9  -5  -9    0.07    0.14
  -7  -5  -9   13.33    1.03
  -5  -5  -9    4.15    0.31
  -3  -5  -9    2.09    0.24
  -1  -5  -9    0.31    0.11
   1  -5  -9    0.07    0.08
   3  -5  -9  158.75    6.24
   5  -5  -9    3.62    0.27
   7  -5  -9    1.17    0.15
   9  -5  -9    4.89    0.52
  11  -5  -9    5.94    0.58
  13  -5  -9    2.96    0.44
  15  -5  -9    0.01    0.14
 -16  -4  -9    0.68    0.24
 -14  -4  -9   12.21    1.05
 -12  -4  -9    0.10    0.15
  -8  -4  -9    8.15    0.65
  -6  -4  -9    0.08    0.07
  -4  -4  -9  199.71    8.24
  -2  -4  -9    5.73    0.36
   0  -4  -9    7.62    0.41
   2  -4  -9    2.78    0.24
   4  -4  -9    5.76    0.36
   6  -4  -9   13.03    0.64
   8  -4  -9    1.65    0.13
  10  -4  -9   47.90    2.89
  12  -4  -9    1.06    0.25
  14  -4  -9    0.62    0.22
  16  -4  -9    2.36    0.39
  18  -4  -9    2.33    0.42
 -17  -3  -9    0.13    0.17
 -15  -3  -9    0.62    0.24
 -13  -3  -9    0.68    0.22
 -11  -3  -9    1.14    0.24
  -9  -3  -9    1.23    0.23
  -7  -3  -9    1.86    0.28
  -5  -3  -9    3.03    0.23
  -3  -3  -9    2.77    0.21
  -1  -3  -9    0.11    0.07
   1  -3  -9    0.78    0.12
   3  -3  -9    1.36    0.16
   5  -3  -9    0.28    0.08
   7  -3  -9    1.40    0.13
   9  -3  -9    2.35    0.34
  11  -3  -9    2.11    0.34
  13  -3  -9    1.81    0.31
  15  -3  -9    0.01    0.13
  17  -3  -9    0.44    0.22
  19  -3  -9    0.73    0.27
 -18  -2  -9   19.61    1.35
 -16  -2  -9    0.98    0.26
 -14  -2  -9   12.70    1.00
 -12  -2  -9    2.60    0.36
 -10  -2  -9    4.94    0.43
  -8  -2  -9    7.19    0.56
  -6  -2  -9    0.10    0.06
  -4  -2  -9  276.11   11.00
  -2  -2  -9    4.92    0.29
   0  -2  -9   11.70    0.55
   2  -2  -9    7.27    0.39
   4  -2  -9    7.08    0.38
   6  -2  -9    7.77    0.41
   8  -2  -9    0.71    0.18
  10  -2  -9   54.38    2.95
  12  -2  -9    0.57    0.19
  14  -2  -9    1.14    0.27
  16  -2  -9    4.90    0.54
  18  -2  -9    2.98    0.46
  20  -2  -9    1.33    0.33
 -17  -1  -9    7.92    0.73
 -15  -1  -9   13.13    1.01
 -13  -1  -9    0.77    0.23
 -11  -1  -9   45.84    3.04
  -9  -1  -9    1.57    0.26
  -7  -1  -9   25.45    1.10
  -5  -1  -9    7.84    0.34
  -3  -1  -9    8.82    0.45
  -1  -1  -9    0.89    0.12
   1  -1  -9    2.11    0.17
   3  -1  -9  362.71   13.94
   5  -1  -9    7.24    0.36
   7  -1  -9    1.64    0.27
   9  -1  -9    2.75    0.37
  11  -1  -9    5.83    0.53
  13  -1  -9   13.34    1.00
  15  -1  -9    0.19    0.15
  17  -1  -9   35.86    2.48
  19  -1  -9    1.80    0.36
  21  -1  -9    2.24    0.41
 -18   0  -9   -0.03    0.15
 -16   0  -9    0.01    0.13
 -14   0  -9   -0.04    0.11
 -12   0  -9   -0.04    0.10
 -10   0  -9    0.02    0.09
  -8   0  -9    0.01    0.05
  -6   0  -9   -0.01    0.04
  -2   0  -9    0.00    0.04
   0   0  -9    0.00    0.04
   2   0  -9   -0.01    0.04
   4   0  -9    0.01    0.04
   6   0  -9    0.00    0.08
   8   0  -9    0.09    0.11
  10   0  -9    0.02    0.10
  12   0  -9   -0.04    0.10
  14   0  -9    0.04    0.12
  16   0  -9   -0.01    0.13
  18   0  -9    0.07    0.16
  20   0  -9   -0.02    0.17
 -17   1  -9    9.44    0.78
 -15   1  -9   12.30    1.00
 -13   1  -9    0.92    0.25
 -11   1  -9   46.11    3.06
  -9   1  -9    1.60    0.28
  -7   1  -9   26.52    1.11
  -5   1  -9    8.28    0.42
  -3   1  -9    8.90    0.37
  -1   1  -9    1.17    0.11
   1   1  -9    2.26    0.17
   3   1  -9  357.43   13.93
   5   1  -9    7.38    0.57
   7   1  -9    2.18    0.32
   9   1  -9    2.09    0.33
  11   1  -9    5.44    0.52
  13   1  -9   14.62    1.02
  15   1  -9    0.28    0.18
  17   1  -9   35.14    2.48
  19   1  -9    1.80    0.38
 -18   2  -9   22.41    1.64
 -16   2  -9    1.26    0.31
 -14   2  -9   11.99    1.02
 -12   2  -9    2.80    0.41
 -10   2  -9    4.70    0.47
  -8   2  -9    7.30    0.40
  -6   2  -9    0.13    0.06
  -4   2  -9  278.27   15.52
  -2   2  -9    4.77    0.23
   0   2  -9   11.58    0.44
   2   2  -9    7.54    0.38
   4   2  -9    7.12    0.35
   6   2  -9    7.94    0.66
   8   2  -9    0.44    0.17
  10   2  -9   55.92    2.97
  12   2  -9    0.39    0.17
  14   2  -9    1.17    0.27
  16   2  -9    5.12    0.56
  18   2  -9    2.68    0.46
  20   2  -9    1.48    0.41
 -17   3  -9    0.03    0.19
 -15   3  -9    0.65    0.27
 -13   3  -9    0.66    0.25
 -11   3  -9    1.39    0.29
  -9   3  -9    1.25    0.17
  -7   3  -9    1.92    0.20
  -5   3  -9    2.78    0.22
  -3   3  -9    2.38    0.20
  -1   3  -9    0.14    0.05
   1   3  -9    0.76    0.09
   3   3  -9    1.19    0.11
   5   3  -9    0.29    0.14
   7   3  -9    1.13    0.24
   9   3  -9    2.46    0.37
  11   3  -9    2.30    0.37
  13   3  -9    1.41    0.30
  15   3  -9    0.02    0.15
  17   3  -9    0.70    0.26
 -14   4  -9   14.12    1.15
 -12   4  -9    0.11    0.18
 -10   4  -9    2.73    0.44
  -8   4  -9    8.45    0.46
  -6   4  -9    0.13    0.08
  -4   4  -9  205.78    8.24
  -2   4  -9    5.75    0.33
   0   4  -9    7.16    0.31
   2   4  -9    2.83    0.19
   4   4  -9    5.98    0.26
   6   4  -9   12.61    0.95
   8   4  -9    1.68    0.31
  10   4  -9   46.78    2.89
  12   4  -9    1.29    0.28
  14   4  -9    1.16    0.29
  16   4  -9    2.80    0.44
 -13   5  -9    0.17    0.18
 -11   5  -9   26.71    2.11
  -9   5  -9    0.11    0.10
  -7   5  -9   14.06    0.73
  -5   5  -9    3.90    0.30
  -3   5  -9    2.11    0.21
  -1   5  -9    0.16    0.07
   1   5  -9    0.18    0.07
   3   5  -9  157.46    6.19
   5   5  -9    3.98    0.42
 -10   6  -9    2.20    0.27
  -8   6  -9    1.76    0.23
  -6   6  -9    0.02    0.08
  -4   6  -9    1.03    0.14
  -2   6  -9    1.18    0.16
   0   6  -9    0.48    0.11
   2   6  -9    1.84    0.17
   4   6  -9    2.41    0.40
   6   6  -9    3.98    0.54
  -7   7  -9   12.88    1.41
  -5   7  -9    1.11    0.32
  -3   7  -9    2.03    0.24
  -1   7  -9    0.54    0.12
   1   7  -9    0.08    0.08
   3   7  -9   94.03    5.54
   5   7  -9    3.19    0.52
   7   7  -9    2.73    0.46
  -2  -8  -8    7.14    0.88
 -11  -7  -8    2.94    0.47
  -9  -7  -8    9.76    0.85
  -7  -7  -8    0.29    0.19
  -5  -7  -8    1.03    0.27
  -3  -7  -8   11.08    0.63
  -1  -7  -8    6.84    0.45
   1  -7  -8    1.43    0.21
   3  -7  -8    0.28    0.11
   5  -7  -8   18.34    0.91
   7  -7  -8    3.65    0.29
   9  -7  -8    5.13    0.32
  11  -7  -8    4.22    0.56
 -10  -6  -8    5.38    0.57
  -8  -6  -8    6.05    0.60
  -6  -6  -8    3.48    0.48
  -4  -6  -8    0.00    0.08
  -2  -6  -8   16.07    0.82
   0  -6  -8    0.02    0.07
   2  -6  -8   10.69    0.59
   4  -6  -8    3.18    0.28
   6  -6  -8    2.66    0.25
   8  -6  -8    1.18    0.15
  10  -6  -8    0.60    0.22
  12  -6  -8  143.14    8.09
  14  -6  -8    7.19    0.68
  -9  -5  -8   49.81    2.84
  -7  -5  -8    0.92    0.22
  -5  -5  -8    8.07    0.48
  -3  -5  -8    2.93    0.27
  -1  -5  -8    5.03    0.33
   1  -5  -8    9.37    0.51
   3  -5  -8    0.02    0.06
   5  -5  -8   49.30    2.19
   7  -5  -8    2.36    0.20
   9  -5  -8    1.47    0.12
  11  -5  -8    0.20    0.15
  13  -5  -8    0.83    0.24
  15  -5  -8    5.20    0.57
  17  -5  -8    1.05    0.37
 -16  -4  -8   36.41    2.31
 -14  -4  -8    0.03    0.13
  -8  -4  -8    2.57    0.35
  -6  -4  -8    2.27    0.26
  -4  -4  -8    1.62    0.18
  -2  -4  -8    4.26    0.30
   0  -4  -8    1.81    0.20
   2  -4  -8    7.24    0.43
   4  -4  -8    7.45    0.42
   6  -4  -8    4.37    0.28
   8  -4  -8    0.22    0.06
  10  -4  -8    0.25    0.14
  12  -4  -8   53.00    3.16
  14  -4  -8    2.51    0.37
  16  -4  -8    2.02    0.35
  18  -4  -8    2.20    0.38
 -17  -3  -8    4.20    0.57
 -15  -3  -8    6.48    0.65
 -11  -3  -8    1.62    0.28
  -9  -3  -8  199.63    7.56
  -7  -3  -8    2.17    0.28
  -5  -3  -8    9.39    0.52
  -3  -3  -8    5.65    0.32
  -1  -3  -8    9.38    0.47
   1  -3  -8   12.38    0.59
   3  -3  -8    0.46    0.09
   5  -3  -8  269.07   10.91
   7  -3  -8    8.67    0.43
   9  -3  -8   14.13    1.03
  11  -3  -8    4.07    0.42
  13  -3  -8    2.26    0.34
  15  -3  -8    7.65    0.69
  17  -3  -8    3.45    0.46
  19  -3  -8   77.60    4.25
 -18  -2  -8    0.70    0.25
 -16  -2  -8   51.57    3.08
 -14  -2  -8    1.25    0.28
 -12  -2  -8    0.55    0.17
 -10  -2  -8    1.65    0.27
  -8  -2  -8    4.95    0.44
  -6  -2  -8    7.64    0.33
  -4  -2  -8    0.67    0.08
  -2  -2  -8   26.05    1.09
   0  -2  -8    2.51    0.19
   2  -2  -8    6.48    0.35
   4  -2  -8    3.48    0.23
   6  -2  -8    4.33    0.24
   8  -2  -8    0.33    0.14
  10  -2  -8    1.47    0.26
  12  -2  -8  102.69    5.94
  14  -2  -8    3.64    0.41
  16  -2  -8    2.01    0.34
  18  -2  -8    0.32    0.18
  20  -2  -8    0.54    0.24
 -19  -1  -8    3.86    0.55
 -17  -1  -8    1.01    0.28
 -15  -1  -8    1.57    0.31
 -13  -1  -8    0.26    0.14
 -11  -1  -8    0.66    0.17
  -9  -1  -8   64.89    3.52
  -7  -1  -8    0.55    0.13
  -5  -1  -8    2.06    0.14
  -3  -1  -8    3.62    0.18
  -1  -1  -8    3.22    0.20
   1  -1  -8    2.56    0.18
   3  -1  -8    0.36    0.07
   5  -1  -8   93.56    3.83
   7  -1  -8    2.68    0.30
   9  -1  -8    5.15    0.46
  11  -1  -8    2.27    0.32
  13  -1  -8    0.76    0.20
  15  -1  -8    1.88    0.34
  17  -1  -8    0.79    0.24
  19  -1  -8   22.58    1.44
  21  -1  -8    0.88    0.28
 -18   0  -8    3.94    0.55
 -16   0  -8  205.74   11.68
 -14   0  -8    2.31    0.37
 -12   0  -8    3.07    0.39
 -10   0  -8   12.24    0.85
  -8   0  -8   17.97    0.81
  -6   0  -8   20.61    1.35
  -4   0  -8    0.25    0.05
  -2   0  -8   84.89    2.73
   0   0  -8    1.64    0.11
   2   0  -8   20.21    0.92
   4   0  -8   12.55    0.57
   6   0  -8    8.76    0.63
   8   0  -8    1.15    0.21
  10   0  -8    6.61    0.56
  12   0  -8  410.00   22.80
  14   0  -8   14.41    1.05
  16   0  -8    6.56    0.58
  18   0  -8   -0.05    0.14
  20   0  -8    1.64    0.34
 -19   1  -8    3.26    0.51
 -17   1  -8    1.03    0.29
 -15   1  -8    1.64    0.34
 -13   1  -8    0.47    0.19
 -11   1  -8    0.65    0.19
  -9   1  -8   70.04    3.57
  -7   1  -8    0.60    0.10
  -5   1  -8    1.96    0.22
  -3   1  -8    3.39    0.17
  -1   1  -8    3.24    0.16
   1   1  -8    2.69    0.15
   3   1  -8    0.40    0.07
   5   1  -8   93.08    5.47
   7   1  -8    2.75    0.32
   9   1  -8    4.74    0.46
  11   1  -8    2.32    0.33
  13   1  -8    0.74    0.21
  15   1  -8    1.68    0.32
  17   1  -8    0.69    0.23
  19   1  -8   22.20    1.46
  21   1  -8    0.90    0.27
 -18   2  -8    0.94    0.28
 -16   2  -8   49.70    3.10
 -14   2  -8    1.33    0.28
 -12   2  -8    0.50    0.17
 -10   2  -8    1.82    0.29
  -8   2  -8    5.36    0.32
  -6   2  -8    7.87    0.42
  -4   2  -8    0.62    0.10
  -2   2  -8   25.73    0.88
   0   2  -8    2.30    0.14
   2   2  -8    6.44    0.27
   4   2  -8    3.60    0.17
   6   2  -8    3.77    0.38
   8   2  -8    0.26    0.13
  10   2  -8    2.01    0.31
  12   2  -8  104.14    5.96
  14   2  -8    3.59    0.47
  16   2  -8    1.35    0.30
  18   2  -8    0.15    0.16
  20   2  -8    1.19    0.32
 -17   3  -8    4.22    0.60
 -15   3  -8    7.14    0.69
 -13   3  -8    0.42    0.19
 -11   3  -8    1.47    0.29
  -9   3  -8  201.31    7.52
  -7   3  -8    2.33    0.20
  -5   3  -8    9.15    0.52
  -3   3  -8    4.99    0.30
  -1   3  -8    9.18    0.37
   1   3  -8   12.33    0.47
   3   3  -8    0.55    0.07
   5   3  -8  268.88   10.92
   7   3  -8    8.66    0.52
   9   3  -8   14.62    1.05
  11   3  -8    3.81    0.42
  13   3  -8    1.94    0.33
  15   3  -8    7.89    0.72
  17   3  -8    3.09    0.46
  19   3  -8   69.61    4.23
 -16   4  -8   36.79    2.36
 -14   4  -8    0.15    0.17
 -12   4  -8    1.21    0.30
 -10   4  -8    5.48    0.56
  -8   4  -8    2.39    0.24
  -6   4  -8    2.21    0.22
  -4   4  -8    1.48    0.17
  -2   4  -8    3.97    0.28
   0   4  -8    1.73    0.13
   2   4  -8    7.58    0.33
   4   4  -8    7.84    0.37
   6   4  -8    4.66    0.31
   8   4  -8    0.24    0.09
  10   4  -8    0.41    0.18
  12   4  -8   52.90    3.18
  14   4  -8    2.53    0.41
 -15   5  -8    4.03    0.63
 -13   5  -8    0.41    0.23
 -11   5  -8    0.16    0.18
  -9   5  -8   48.84    2.02
  -7   5  -8    1.12    0.17
  -5   5  -8    7.97    0.46
  -3   5  -8    2.50    0.22
  -1   5  -8    4.67    0.30
   1   5  -8    9.51    0.47
   3   5  -8    0.03    0.04
   5   5  -8   49.69    3.15
   7   5  -8    2.14    0.34
   9   5  -8    1.09    0.24
 -12   6  -8    2.72    0.50
 -10   6  -8    5.78    0.41
  -8   6  -8    5.93    0.41
  -6   6  -8    3.46    0.31
  -4   6  -8   -0.01    0.06
  -2   6  -8   16.36    0.79
   0   6  -8    0.07    0.06
   2   6  -8   10.19    0.55
   4   6  -8    3.63    0.49
   6   6  -8    2.42    0.40
   8   6  -8    1.14    0.29
  10   6  -8    0.76    0.23
  -9   7  -8   10.22    0.61
  -7   7  -8    0.26    0.11
  -5   7  -8    0.95    0.17
  -3   7  -8   10.99    0.59
  -1   7  -8    6.51    0.40
   1   7  -8    1.48    0.16
   3   7  -8    0.21    0.06
   5   7  -8   18.79    1.39
   7   7  -8    3.45    0.51
   9   7  -8    5.04    0.59
  11   7  -8    3.67    0.54
  -2   8  -8    5.39    0.84
   0   8  -8    1.86    0.42
   2   8  -8    7.40    0.41
   4   8  -8    1.61    0.39
   6   8  -8    1.52    0.46
  -6  -8  -7    2.02    0.43
  -4  -8  -7    0.85    0.25
  -2  -8  -7    1.60    0.24
   0  -8  -7   79.24    3.24
   2  -8  -7    1.75    0.23
   4  -8  -7    1.21    0.20
   6  -8  -7    6.21    0.63
   8  -8  -7    4.95    0.55
 -11  -7  -7    4.41    0.59
  -9  -7  -7    1.18    0.29
  -7  -7  -7  104.64    6.26
  -5  -7  -7    1.98    0.35
  -3  -7  -7    5.83    0.39
  -1  -7  -7    1.39    0.20
   1  -7  -7    3.44    0.32
   3  -7  -7    6.72    0.43
   5  -7  -7    0.74    0.14
   7  -7  -7   32.51    1.38
   9  -7  -7    1.19    0.15
  11  -7  -7    1.95    0.37
  13  -7  -7    0.39    0.20
 -12  -6  -7    1.56    0.33
 -10  -6  -7    4.10    0.52
  -8  -6  -7    6.29    0.56
  -6  -6  -7    5.57    0.54
  -4  -6  -7    0.16    0.09
  -2  -6  -7    1.69    0.21
   0  -6  -7    1.97    0.23
   2  -6  -7    0.41    0.11
   4  -6  -7    3.70    0.29
   6  -6  -7    6.80    0.39
   8  -6  -7    7.22    0.42
  10  -6  -7    5.08    0.54
  12  -6  -7    0.20    0.16
  14  -6  -7    2.12    0.36
 -11  -5  -7    4.33    0.45
  -9  -5  -7    0.72    0.21
  -7  -5  -7  200.13   11.22
  -5  -5  -7    2.32    0.25
  -3  -5  -7   11.33    0.57
  -1  -5  -7    8.38    0.46
   1  -5  -7    3.81    0.28
   3  -5  -7    0.55    0.11
   5  -5  -7    0.08    0.07
   7  -5  -7   50.19    1.94
   9  -5  -7    0.84    0.10
  11  -5  -7    1.92    0.33
  13  -5  -7    4.68    0.50
  15  -5  -7    4.65    0.49
 -18  -4  -7    5.38    0.63
 -10  -4  -7   24.53    1.48
  -8  -4  -7    4.72    0.44
  -6  -4  -7    7.56    0.58
  -4  -4  -7    0.70    0.12
  -2  -4  -7    0.60    0.11
   0  -4  -7  355.65   14.01
   2  -4  -7    5.80    0.33
   4  -4  -7    4.61    0.29
   6  -4  -7    1.32    0.15
   8  -4  -7    6.11    0.33
  10  -4  -7   17.83    1.18
  12  -4  -7   -0.02    0.09
  14  -4  -7   50.99    3.35
  16  -4  -7    1.21    0.28
 -19  -3  -7    0.02    0.15
 -17  -3  -7    0.56    0.22
 -15  -3  -7    3.64    0.48
  -9  -3  -7    0.07    0.08
  -7  -3  -7    0.15    0.10
  -5  -3  -7    1.10    0.14
  -3  -3  -7    0.57    0.10
  -1  -3  -7    2.81    0.20
   1  -3  -7    2.32    0.19
   3  -3  -7    3.80    0.25
   5  -3  -7    0.99    0.12
   7  -3  -7    1.59    0.14
   9  -3  -7    2.05    0.29
  11  -3  -7    2.97    0.33
  13  -3  -7    2.16    0.32
  15  -3  -7    2.85    0.38
  17  -3  -7    0.22    0.16
 -20  -2  -7    5.16    0.59
 -18  -2  -7    9.03    0.82
 -16  -2  -7    0.37    0.18
 -14  -2  -7   47.56    3.21
 -12  -2  -7    0.52    0.17
 -10  -2  -7   25.20    1.55
  -8  -2  -7    4.93    0.29
  -6  -2  -7    5.06    0.23
  -4  -2  -7    0.17    0.05
  -2  -2  -7    0.48    0.06
   0  -2  -7  453.08   14.45
   2  -2  -7    6.06    0.31
   4  -2  -7    1.51    0.13
   6  -2  -7    5.29    0.28
   8  -2  -7    6.66    0.55
  10  -2  -7    9.24    0.68
  12  -2  -7    0.17    0.11
  14  -2  -7   62.30    3.93
  16  -2  -7    4.22    0.45
  18  -2  -7    5.04    0.53
 -19  -1  -7    0.79    0.26
 -17  -1  -7   14.61    1.16
 -15  -1  -7    0.22    0.13
 -13  -1  -7    3.23    0.36
 -11  -1  -7   11.92    0.82
  -9  -1  -7    0.90    0.18
  -7  -1  -7  377.03   12.47
  -5  -1  -7    6.34    0.26
  -3  -1  -7   10.70    0.38
  -1  -1  -7    7.56    0.30
   1  -1  -7   10.24    0.38
   3  -1  -7   13.80    0.64
   5  -1  -7    1.37    0.09
   7  -1  -7  162.65    8.33
   9  -1  -7    1.16    0.20
  11  -1  -7    0.84    0.21
  13  -1  -7    5.34    0.49
  15  -1  -7    4.63    0.45
  17  -1  -7    2.95    0.40
  19  -1  -7    2.76    0.41
 -20   0  -7   -0.03    0.15
 -18   0  -7    0.11    0.14
 -16   0  -7   -0.04    0.10
 -14   0  -7    0.20    0.13
 -12   0  -7   -0.06    0.07
 -10   0  -7    0.07    0.09
  -8   0  -7    0.02    0.04
  -6   0  -7   -0.01    0.03
  -4   0  -7   -0.02    0.02
  -2   0  -7   -0.02    0.02
   0   0  -7    0.07    0.03
   2   0  -7   -0.01    0.02
   4   0  -7    0.02    0.02
   6   0  -7    0.01    0.06
   8   0  -7   -0.03    0.06
  10   0  -7   -0.01    0.07
  12   0  -7   -0.03    0.08
  14   0  -7   -0.07    0.09
  16   0  -7   -0.04    0.10
  18   0  -7   -0.13    0.11
  20   0  -7    0.01    0.14
 -19   1  -7    0.60    0.24
 -17   1  -7   14.80    1.18
 -15   1  -7    0.22    0.15
 -13   1  -7    2.35    0.37
 -11   1  -7   11.79    0.83
  -9   1  -7    1.11    0.21
  -7   1  -7  385.80   15.29
  -5   1  -7    6.47    0.26
  -3   1  -7   10.37    0.38
  -1   1  -7    7.60    0.30
   1   1  -7   10.15    0.39
   3   1  -7   13.15    0.51
   5   1  -7    1.38    0.12
   7   1  -7  159.06    8.33
   9   1  -7    1.71    0.27
  11   1  -7    0.70    0.18
  13   1  -7    4.93    0.49
  15   1  -7    4.30    0.44
  17   1  -7    2.21    0.35
  19   1  -7    2.50    0.42
  21   1  -7   98.24    5.93
 -20   2  -7    5.19    0.68
 -18   2  -7    9.09    0.84
 -16   2  -7    0.16    0.16
 -14   2  -7   48.64    3.24
 -12   2  -7    0.41    0.17
 -10   2  -7   25.03    1.56
  -8   2  -7    4.66    0.29
  -6   2  -7    4.82    0.29
  -4   2  -7    0.22    0.05
  -2   2  -7    0.45    0.07
   0   2  -7  460.37   14.46
   2   2  -7    5.82    0.24
   4   2  -7    1.47    0.08
   6   2  -7    5.36    0.30
   8   2  -7    6.98    0.37
  10   2  -7    8.97    0.69
  12   2  -7    0.13    0.11
  14   2  -7   62.38    3.95
  16   2  -7    3.70    0.49
  18   2  -7    5.40    0.55
  20   2  -7    3.27    0.47
  22   2  -7    0.58    0.25
 -19   3  -7    0.05    0.17
 -17   3  -7    0.30    0.20
 -15   3  -7    3.28    0.48
 -13   3  -7    1.36    0.30
 -11   3  -7    1.47    0.29
  -9   3  -7   -0.01    0.06
  -7   3  -7    0.20    0.08
  -5   3  -7    1.03    0.13
  -3   3  -7    0.71    0.08
  -1   3  -7    2.54    0.15
   1   3  -7    2.25    0.14
   3   3  -7    3.91    0.19
   5   3  -7    0.75    0.12
   7   3  -7    1.59    0.17
   9   3  -7    2.12    0.19
  11   3  -7    2.35    0.34
  13   3  -7    1.66    0.31
  15   3  -7    2.41    0.37
  17   3  -7    0.23    0.16
  19   3  -7    0.05    0.15
 -18   4  -7    6.03    0.67
 -16   4  -7    0.95    0.30
 -14   4  -7   30.86    2.33
 -12   4  -7    1.88    0.36
 -10   4  -7   25.01    1.57
  -8   4  -7    4.64    0.31
  -6   4  -7    6.97    0.41
  -4   4  -7    0.80    0.12
  -2   4  -7    0.44    0.09
   0   4  -7  365.88   14.00
   2   4  -7    5.79    0.25
   4   4  -7    4.50    0.21
   6   4  -7    1.54    0.18
   8   4  -7    5.99    0.53
  10   4  -7   17.51    0.82
  12   4  -7    0.00    0.06
 -15   5  -7    5.21    0.69
 -13   5  -7    4.16    0.57
 -11   5  -7    3.49    0.52
  -9   5  -7    0.71    0.14
  -7   5  -7  192.81    7.93
  -5   5  -7    1.50    0.19
  -3   5  -7   11.60    0.56
  -1   5  -7    8.13    0.44
   1   5  -7    3.60    0.24
   3   5  -7    0.53    0.09
   5   5  -7    0.17    0.13
   7   5  -7   51.45    2.82
   9   5  -7    0.73    0.22
  11   5  -7    2.11    0.34
  13   5  -7    5.22    0.51
 -14   6  -7    1.78    0.41
 -12   6  -7    1.93    0.42
 -10   6  -7    5.12    0.58
  -8   6  -7    5.90    0.38
  -6   6  -7    5.97    0.38
  -4   6  -7    0.16    0.08
  -2   6  -7    1.61    0.18
   0   6  -7    2.30    0.20
   2   6  -7    0.34    0.08
   4   6  -7    3.31    0.21
   6   6  -7    6.44    0.62
   8   6  -7    9.12    0.74
  10   6  -7    5.44    0.55
  12   6  -7    0.17    0.16
  14   6  -7    1.65    0.33
 -11   7  -7    5.13    0.80
  -9   7  -7    0.84    0.17
  -7   7  -7  106.00    4.43
  -5   7  -7    2.05    0.24
  -3   7  -7    5.30    0.35
  -1   7  -7    0.93    0.14
   1   7  -7    3.31    0.26
   3   7  -7    6.39    0.37
   5   7  -7    0.63    0.24
   7   7  -7   34.21    2.10
   9   7  -7    1.54    0.34
  11   7  -7    1.58    0.36
  13   7  -7    0.52    0.25
  -4   8  -7    0.56    0.26
  -2   8  -7    1.18    0.18
   0   8  -7   78.76    3.21
   2   8  -7    1.61    0.16
   4   8  -7    1.14    0.33
   6   8  -7    6.66    0.73
   8   8  -7    3.98    0.59
  -8  -8  -6    6.35    0.66
  -6  -8  -6    2.09    0.37
  -4  -8  -6    2.56    0.42
  -2  -8  -6    6.93    0.47
   0  -8  -6    0.54    0.15
   2  -8  -6   24.49    1.17
   4  -8  -6    1.64    0.21
   6  -8  -6    1.90    0.22
   8  -8  -6    0.50    0.22
  10  -8  -6    1.15    0.29
 -13  -7  -6    4.21    0.55
 -11  -7  -6    1.27    0.31
  -9  -7  -6    3.44    0.48
  -7  -7  -6    2.28    0.38
  -5  -7  -6    0.86    0.23
  -3  -7  -6    1.66    0.23
  -1  -7  -6    8.04    0.48
   1  -7  -6    9.62    0.52
   3  -7  -6    8.58    0.48
   5  -7  -6    0.47    0.12
   7  -7  -6    0.42    0.11
   9  -7  -6   34.04    1.48
  11  -7  -6    2.27    0.37
  13  -7  -6    1.82    0.35
 -12  -6  -6  103.14    5.46
 -10  -6  -6    1.29    0.27
  -8  -6  -6    5.63    0.58
  -6  -6  -6    3.88    0.42
  -4  -6  -6    5.60    0.51
  -2  -6  -6    5.30    0.36
   0  -6  -6    0.14    0.09
   2  -6  -6  177.84    7.40
   4  -6  -6    4.81    0.33
   6  -6  -6   13.08    0.67
   8  -6  -6    2.20    0.21
  10  -6  -6    0.49    0.08
  12  -6  -6    4.33    0.48
  14  -6  -6    1.38    0.29
 -11  -5  -6    4.73    0.47
  -9  -5  -6    6.11    0.57
  -7  -5  -6    1.72    0.29
  -5  -5  -6   23.20    1.43
  -3  -5  -6    4.02    0.28
  -1  -5  -6   14.25    0.70
   1  -5  -6    5.99    0.36
   3  -5  -6    7.15    0.40
   5  -5  -6    1.03    0.14
   7  -5  -6    0.93    0.13
   9  -5  -6  110.51    4.40
  11  -5  -6    2.57    0.37
  13  -5  -6    2.30    0.35
  15  -5  -6    1.90    0.33
 -12  -4  -6   34.10    1.93
 -10  -4  -6    0.19    0.12
  -8  -4  -6    0.51    0.15
  -6  -4  -6   14.65    0.95
  -4  -4  -6    8.35    0.43
  -2  -4  -6    2.41    0.20
   0  -4  -6    0.13    0.07
   2  -4  -6   82.22    3.41
   4  -4  -6    3.93    0.35
   6  -4  -6    9.64    0.47
   8  -4  -6    6.52    0.33
  10  -4  -6    1.75    0.28
  12  -4  -6    0.26    0.13
  14  -4  -6    0.38    0.16
  16  -4  -6   26.12    1.60
 -19  -3  -6  145.80    8.63
 -17  -3  -6    0.49    0.21
 -11  -3  -6   11.66    0.78
  -9  -3  -6    9.67    0.74
  -7  -3  -6    0.07    0.08
  -5  -3  -6   89.59    3.53
  -3  -3  -6    1.43    0.15
  -1  -3  -6   21.39    0.97
   1  -3  -6    6.16    0.34
   3  -3  -6    4.87    0.28
   5  -3  -6    1.95    0.16
   7  -3  -6    2.98    0.18
   9  -3  -6  547.76   29.12
  11  -3  -6   14.77    1.03
  13  -3  -6    7.55    0.61
  15  -3  -6    0.34    0.15
  17  -3  -6    2.38    0.36
 -20  -2  -6    1.68    0.37
 -18  -2  -6    3.82    0.53
 -16  -2  -6   -0.02    0.11
 -14  -2  -6    0.35    0.16
 -12  -2  -6   87.68    4.85
 -10  -2  -6    0.51    0.13
  -8  -2  -6    6.27    0.51
  -6  -2  -6    1.70    0.14
  -4  -2  -6    3.67    0.22
  -2  -2  -6    8.50    0.41
   0  -2  -6    0.16    0.05
   2  -2  -6  154.94    5.06
   4  -2  -6    3.11    0.19
   6  -2  -6    2.34    0.11
   8  -2  -6    0.47    0.12
  10  -2  -6    1.41    0.24
  12  -2  -6    6.19    0.53
  14  -2  -6    1.47    0.26
  16  -2  -6   51.39    2.94
  18  -2  -6    2.20    0.34
 -21  -1  -6    1.05    0.29
 -19  -1  -6   49.64    3.06
 -17  -1  -6    0.17    0.15
 -15  -1  -6    0.86    0.22
 -13  -1  -6    3.55    0.39
 -11  -1  -6    3.51    0.35
  -9  -1  -6    4.03    0.37
  -7  -1  -6    0.30    0.05
  -5  -1  -6   29.81    1.23
  -3  -1  -6    0.03    0.03
  -1  -1  -6    6.49    0.26
   1  -1  -6    3.59    0.16
   3  -1  -6    1.69    0.10
   5  -1  -6    0.32    0.04
   7  -1  -6    1.28    0.20
   9  -1  -6  188.10   10.74
  11  -1  -6    4.07    0.39
  13  -1  -6    2.26    0.31
  15  -1  -6    0.30    0.14
  17  -1  -6    0.83    0.22
  19  -1  -6    3.06    0.43
 -20   0  -6    3.19    0.51
 -18   0  -6    7.95    0.73
 -16   0  -6    0.72    0.22
 -14   0  -6    3.87    0.39
 -12   0  -6  287.29   15.66
 -10   0  -6    1.75    0.24
  -8   0  -6   15.89    0.76
  -6   0  -6    4.87    0.21
  -4   0  -6    9.00    0.34
  -2   0  -6   16.79    0.59
   0   0  -6    0.88    0.07
   2   0  -6  511.14   17.09
   4   0  -6   10.09    0.31
   6   0  -6   17.17    1.11
   8   0  -6    4.56    0.39
  10   0  -6    3.41    0.34
  12   0  -6   13.44    0.99
  14   0  -6    4.94    0.46
  16   0  -6  205.48   10.92
  18   0  -6    5.65    0.50
  20   0  -6    2.10    0.35
 -21   1  -6    1.34    0.34
 -19   1  -6   51.26    3.08
 -17   1  -6    0.18    0.15
 -15   1  -6    0.74    0.22
 -13   1  -6    3.87    0.40
 -11   1  -6    3.29    0.35
  -9   1  -6    3.91    0.38
  -7   1  -6    0.29    0.07
  -5   1  -6   30.30    1.00
  -3   1  -6    0.03    0.02
  -1   1  -6    6.59    0.27
   1   1  -6    3.84    0.17
   3   1  -6    1.72    0.08
   5   1  -6    0.32    0.06
   7   1  -6    1.00    0.10
   9   1  -6  194.55    7.57
  11   1  -6    4.32    0.39
  13   1  -6    2.26    0.32
  15   1  -6    0.30    0.15
  17   1  -6    1.09    0.24
  19   1  -6    3.39    0.46
  21   1  -6    0.06    0.15
 -20   2  -6    1.74    0.37
 -18   2  -6    4.08    0.55
 -16   2  -6    0.03    0.12
 -14   2  -6    0.27    0.15
 -12   2  -6   89.20    4.88
 -10   2  -6    0.67    0.18
  -8   2  -6    7.19    0.39
  -6   2  -6    1.70    0.15
  -4   2  -6    3.80    0.17
  -2   2  -6    8.42    0.32
   0   2  -6    0.11    0.03
   2   2  -6  152.72    4.39
   4   2  -6    3.06    0.12
   6   2  -6    2.46    0.17
   8   2  -6    0.45    0.08
  10   2  -6    1.53    0.15
  12   2  -6    6.37    0.37
  14   2  -6    1.46    0.27
  16   2  -6   50.72    2.95
  18   2  -6    2.35    0.38
  20   2  -6    0.61    0.23
 -19   3  -6  153.77    8.66
 -17   3  -6    0.47    0.20
 -15   3  -6    3.03    0.45
 -13   3  -6    8.90    0.73
 -11   3  -6   11.78    0.86
  -9   3  -6   10.02    0.54
  -7   3  -6    0.13    0.06
  -5   3  -6   89.70    3.53
  -3   3  -6    1.47    0.11
  -1   3  -6   21.77    0.79
   1   3  -6    6.82    0.28
   3   3  -6    4.78    0.21
   5   3  -6    1.88    0.18
   7   3  -6    2.96    0.21
   9   3  -6  529.87   20.58
  11   3  -6   15.81    0.73
  13   3  -6    7.72    0.43
  15   3  -6    0.29    0.15
  17   3  -6    2.39    0.38
 -18   4  -6    1.32    0.34
 -16   4  -6    0.42    0.21
 -14   4  -6    3.93    0.53
 -12   4  -6   32.86    1.94
 -10   4  -6    0.20    0.14
  -8   4  -6    0.67    0.12
  -6   4  -6   14.15    0.67
  -4   4  -6    7.86    0.42
  -2   4  -6    2.38    0.19
   0   4  -6    0.14    0.05
   2   4  -6   80.43    3.39
   4   4  -6    3.94    0.22
   6   4  -6    9.34    0.49
   8   4  -6    6.49    0.38
  10   4  -6    1.72    0.19
  12   4  -6    0.06    0.10
  14   4  -6    0.32    0.14
 -17   5  -6    1.26    0.34
 -15   5  -6    0.55    0.25
 -13   5  -6    0.19    0.18
 -11   5  -6    5.11    0.54
  -9   5  -6    7.00    0.42
  -7   5  -6    1.87    0.21
  -5   5  -6   23.02    1.01
  -3   5  -6    3.81    0.26
  -1   5  -6   14.72    0.68
   1   5  -6    6.02    0.33
   3   5  -6    6.73    0.36
   5   5  -6    0.79    0.21
   7   5  -6    0.88    0.22
   9   5  -6  109.33    6.31
  11   5  -6    2.55    0.38
  13   5  -6    1.78    0.32
  15   5  -6    1.82    0.33
 -14   6  -6    3.06    0.52
 -12   6  -6  104.72    5.59
 -10   6  -6    1.53    0.35
  -8   6  -6    5.92    0.42
  -6   6  -6    4.17    0.31
  -4   6  -6    5.79    0.36
  -2   6  -6    5.68    0.35
   0   6  -6    0.04    0.05
   2   6  -6  180.69    7.38
   4   6  -6    5.16    0.29
   6   6  -6   12.96    1.03
   8   6  -6    2.10    0.36
  10   6  -6    0.40    0.18
  12   6  -6    4.03    0.55
  14   6  -6    1.33    0.31
  16   6  -6   72.17    3.97
 -11   7  -6    1.42    0.39
  -9   7  -6    2.65    0.30
  -7   7  -6    3.22    0.30
  -5   7  -6    1.00    0.16
  -3   7  -6    1.85    0.21
  -1   7  -6    7.10    0.43
   1   7  -6    9.02    0.48
   3   7  -6    8.21    0.43
   5   7  -6    0.54    0.24
   7   7  -6    0.33    0.20
   9   7  -6   33.39    2.24
  11   7  -6    2.16    0.40
  13   7  -6    1.94    0.39
  15   7  -6    4.65    0.62
  -8   8  -6    6.67    0.51
  -6   8  -6    2.38    0.27
  -4   8  -6    2.80    0.28
  -2   8  -6    7.47    0.45
   0   8  -6    0.74    0.13
   2   8  -6   24.12    1.14
   4   8  -6    1.55    0.38
   6   8  -6    1.95    0.42
   8   8  -6    0.66    0.27
  10   8  -6    0.91    0.32
  -1  -9  -5    0.10    0.18
   1  -9  -5    3.23    0.53
   3  -9  -5    5.45    0.63
 -10  -8  -5   76.63    4.85
  -8  -8  -5    0.73    0.24
  -6  -8  -5    6.44    0.61
  -4  -8  -5    3.92    0.52
  -2  -8  -5    1.11    0.26
   0  -8  -5    0.81    0.16
   2  -8  -5    1.21    0.19
   4  -8  -5   21.46    1.01
   6  -8  -5    0.76    0.15
   8  -8  -5    1.74    0.20
  10  -8  -5    4.91    0.31
 -13  -7  -5   15.49    1.14
 -11  -7  -5    1.20    0.29
  -9  -7  -5    1.73    0.33
  -7  -7  -5    1.28    0.28
  -5  -7  -5    0.32    0.17
  -3  -7  -5  180.35    9.84
  -1  -7  -5    3.17    0.29
   1  -7  -5    5.21    0.36
   3  -7  -5    0.08    0.08
   5  -7  -5    3.65    0.29
   7  -7  -5   12.79    0.64
   9  -7  -5    0.19    0.08
  11  -7  -5   32.65    1.50
 -14  -6  -5    1.81    0.35
 -12  -6  -5    0.02    0.12
 -10  -6  -5    0.24    0.14
  -8  -6  -5    1.67    0.30
  -6  -6  -5    1.21    0.24
  -4  -6  -5    4.18    0.41
  -2  -6  -5    5.06    0.34
   0  -6  -5    7.99    0.46
   2  -6  -5    2.35    0.23
   4  -6  -5    3.61    0.26
   6  -6  -5    3.90    0.27
   8  -6  -5    9.20    0.47
  10  -6  -5    5.54    0.31
  12  -6  -5    8.63    0.69
 -13  -5  -5   12.36    0.94
 -11  -5  -5    3.00    0.39
  -9  -5  -5    2.11    0.31
  -7  -5  -5    1.14    0.22
  -5  -5  -5    2.93    0.32
  -3  -5  -5  297.61   11.61
  -1  -5  -5    3.04    0.22
   1  -5  -5    1.39    0.16
   3  -5  -5   11.10    0.56
   5  -5  -5    8.91    0.48
   7  -5  -5    1.64    0.17
   9  -5  -5    0.02    0.04
  11  -5  -5   46.08    3.05
  13  -5  -5    4.89    0.50
 -12  -4  -5    2.97    0.37
 -10  -4  -5  288.42   16.26
  -8  -4  -5    3.44    0.33
  -6  -4  -5    9.46    0.62
  -4  -4  -5    3.68    0.24
  -2  -4  -5    8.32    0.58
   0  -4  -5    9.32    0.49
   2  -4  -5    0.81    0.12
   4  -4  -5  164.11    6.23
   6  -4  -5    2.80    0.19
   8  -4  -5    3.26    0.20
  10  -4  -5    2.24    0.31
  12  -4  -5    3.53    0.36
  14  -4  -5    4.12    0.39
 -21  -3  -5    0.68    0.26
 -19  -3  -5    0.39    0.20
 -11  -3  -5    4.74    0.40
  -9  -3  -5    4.91    0.41
  -7  -3  -5    0.27    0.10
  -5  -3  -5    1.04    0.12
  -3  -3  -5    2.97    0.19
  -1  -3  -5    0.28    0.07
   1  -3  -5    1.68    0.15
   3  -3  -5    9.75    0.63
   5  -3  -5    8.55    0.42
   7  -3  -5    5.57    0.23
   9  -3  -5    0.18    0.09
  11  -3  -5    1.91    0.27
  13  -3  -5    1.51    0.25
  15  -3  -5    1.03    0.21
 -22  -2  -5    0.58    0.27
 -20  -2  -5   10.96    0.96
 -18  -2  -5    2.54    0.40
 -16  -2  -5    2.03    0.35
 -10  -2  -5  356.07   21.84
  -8  -2  -5    1.92    0.19
  -6  -2  -5   11.82    0.50
  -4  -2  -5   10.64    0.49
  -2  -2  -5    7.38    0.35
   0  -2  -5    2.67    0.17
   2  -2  -5    0.07    0.04
   4  -2  -5  217.53    6.87
   6  -2  -5    0.44    0.04
   8  -2  -5    1.55    0.21
  10  -2  -5    6.03    0.49
  12  -2  -5    4.90    0.41
  14  -2  -5    2.35    0.30
  16  -2  -5    2.09    0.30
 -21  -1  -5    7.60    0.75
 -19  -1  -5    0.98    0.28
 -17  -1  -5   50.41    3.26
 -15  -1  -5    1.20    0.26
 -13  -1  -5   30.88    1.87
 -11  -1  -5    4.90    0.44
  -9  -1  -5    8.86    0.43
  -7  -1  -5    0.41    0.05
  -5  -1  -5    0.99    0.08
  -3  -1  -5  591.96   19.28
  -1  -1  -5    5.51    0.20
   1  -1  -5    3.25    0.14
   3  -1  -5    3.80    0.16
   5  -1  -5    6.66    0.24
   7  -1  -5   17.27    1.08
   9  -1  -5    0.16    0.08
  11  -1  -5  162.13    9.36
  13  -1  -5    2.60    0.30
  15  -1  -5    3.41    0.38
  17  -1  -5    2.31    0.32
 -22   0  -5   -0.09    0.13
 -20   0  -5    0.10    0.15
 -18   0  -5    0.10    0.12
 -16   0  -5    0.14    0.12
 -14   0  -5   -0.01    0.07
 -12   0  -5    0.02    0.08
 -10   0  -5    0.03    0.07
  -8   0  -5    0.00    0.02
  -6   0  -5    0.01    0.02
  -4   0  -5    0.01    0.02
  -2   0  -5    0.02    0.02
   0   0  -5    0.01    0.02
   2   0  -5    0.03    0.02
   4   0  -5    0.25    0.03
   6   0  -5    0.04    0.02
   8   0  -5    0.01    0.03
  10   0  -5    0.00    0.03
  12   0  -5   -0.02    0.06
  14   0  -5   -0.01    0.08
  16   0  -5   -0.04    0.08
  18   0  -5    0.02    0.10
 -21   1  -5    7.66    0.76
 -19   1  -5    1.25    0.30
 -17   1  -5   48.18    3.24
 -15   1  -5    1.10    0.25
 -13   1  -5   30.88    1.88
 -11   1  -5    4.84    0.44
  -9   1  -5    9.07    0.45
  -7   1  -5    0.47    0.05
  -5   1  -5    1.16    0.08
  -3   1  -5  593.70   19.26
  -1   1  -5    5.08    0.20
   1   1  -5    3.25    0.15
   3   1  -5    3.72    0.14
   5   1  -5    6.23    0.32
   7   1  -5   17.37    0.75
   9   1  -5    0.17    0.05
  11   1  -5  162.40    6.60
  13   1  -5    2.57    0.20
  15   1  -5    3.86    0.39
  17   1  -5    2.48    0.34
  19   1  -5    0.54    0.19
 -22   2  -5    0.85    0.31
 -20   2  -5   11.42    0.97
 -18   2  -5    2.35    0.40
 -16   2  -5    2.25    0.37
 -14   2  -5    8.83    0.71
 -12   2  -5    2.92    0.39
 -10   2  -5  367.26   21.93
  -8   2  -5    1.66    0.24
  -6   2  -5   11.74    0.51
  -4   2  -5   10.81    0.40
  -2   2  -5    7.18    0.28
   0   2  -5    2.75    0.13
   2   2  -5    0.07    0.02
   4   2  -5  221.97    5.95
   6   2  -5    0.35    0.07
   8   2  -5    1.55    0.14
  10   2  -5    6.24    0.34
  12   2  -5    4.80    0.29
  14   2  -5    2.23    0.20
  16   2  -5    1.77    0.20
  18   2  -5  165.80    9.41
  20   2  -5    9.47    0.76
 -21   3  -5    0.40    0.23
 -19   3  -5    0.32    0.18
 -17   3  -5    1.14    0.28
 -15   3  -5    0.94    0.24
 -13   3  -5    2.85    0.40
 -11   3  -5    4.76    0.45
  -9   3  -5    4.95    0.45
  -7   3  -5    0.18    0.06
  -5   3  -5    0.81    0.11
  -3   3  -5    2.66    0.19
  -1   3  -5    0.20    0.04
   1   3  -5    1.78    0.11
   3   3  -5    9.40    0.31
   5   3  -5    8.28    0.43
   7   3  -5    5.30    0.31
   9   3  -5    0.02    0.03
  11   3  -5    2.11    0.30
  13   3  -5    1.77    0.27
  15   3  -5    1.41    0.27
  17   3  -5    0.01    0.07
 -20   4  -5   12.68    1.10
 -18   4  -5    0.18    0.19
 -16   4  -5    1.37    0.31
 -14   4  -5    9.12    0.74
 -12   4  -5    3.02    0.42
 -10   4  -5  279.75   16.33
  -8   4  -5    3.31    0.23
  -6   4  -5    9.38    0.44
  -4   4  -5    3.66    0.23
  -2   4  -5    7.25    0.39
   0   4  -5    8.57    0.47
   2   4  -5    0.70    0.09
   4   4  -5  165.31    6.21
   6   4  -5    2.97    0.32
   8   4  -5    3.14    0.34
  10   4  -5    2.08    0.29
  12   4  -5    3.57    0.37
  14   4  -5    4.21    0.40
  16   4  -5    1.12    0.24
  18   4  -5  135.50    8.11
 -17   5  -5   24.08    1.98
 -15   5  -5    0.64    0.25
 -13   5  -5   13.77    1.04
 -11   5  -5    2.35    0.41
  -9   5  -5    1.85    0.21
  -7   5  -5    1.22    0.15
  -5   5  -5    3.02    0.24
  -3   5  -5  305.76   11.61
  -1   5  -5    2.83    0.21
   1   5  -5    2.25    0.35
   3   5  -5   10.87    0.53
   5   5  -5    9.01    0.73
   7   5  -5    1.93    0.32
   9   5  -5   -0.05    0.08
  11   5  -5   45.93    3.08
  13   5  -5    5.80    0.55
  15   5  -5    6.53    0.63
  17   5  -5    4.02    0.47
  19   5  -5    1.22    0.30
 -16   6  -5    1.85    0.43
 -14   6  -5    2.27    0.44
 -12   6  -5    0.05    0.14
 -10   6  -5    0.09    0.15
  -8   6  -5    1.51    0.20
  -6   6  -5    1.24    0.16
  -4   6  -5    3.88    0.29
  -2   6  -5    4.95    0.32
   0   6  -5    7.82    0.44
   2   6  -5    2.51    0.19
   4   6  -5    3.54    0.23
   6   6  -5    3.80    0.45
   8   6  -5    8.70    0.76
  10   6  -5    4.97    0.53
  12   6  -5    8.29    0.73
  14   6  -5    0.60    0.22
  16   6  -5    0.33    0.19
  18   6  -5    1.56    0.35
 -13   7  -5   16.00    1.27
 -11   7  -5    1.32    0.35
  -9   7  -5    1.55    0.23
  -7   7  -5    1.32    0.19
  -5   7  -5    0.15    0.09
  -3   7  -5  178.49    6.96
  -1   7  -5    3.04    0.24
   1   7  -5    4.86    0.32
   3   7  -5    0.14    0.06
   5   7  -5    4.44    0.51
   7   7  -5   12.46    1.02
   9   7  -5    0.21    0.16
  11   7  -5   33.42    2.30
  13   7  -5    0.81    0.27
  15   7  -5    1.93    0.40
 -10   8  -5   82.22    5.27
  -8   8  -5    0.93    0.18
  -6   8  -5    6.49    0.42
  -4   8  -5    4.23    0.34
  -2   8  -5    1.01    0.16
   0   8  -5    0.63    0.12
   2   8  -5    1.06    0.14
   4   8  -5   21.62    0.97
   6   8  -5    0.72    0.28
   8   8  -5    1.02    0.31
  10   8  -5    4.52    0.64
   3   9  -5    5.01    0.38
  -3  -9  -4    0.32    0.19
  -1  -9  -4   66.27    3.99
   1  -9  -4    2.07    0.26
   3  -9  -4    7.62    0.48
   5  -9  -4    0.56    0.21
   7  -9  -4    0.07    0.15
 -12  -8  -4    3.14    0.56
 -10  -8  -4    1.77    0.36
  -8  -8  -4   10.19    0.83
  -6  -8  -4    1.34    0.30
  -4  -8  -4   12.82    0.97
  -2  -8  -4    4.39    0.47
   0  -8  -4    3.27    0.30
   2  -8  -4    1.61    0.21
   4  -8  -4    0.11    0.09
   6  -8  -4   51.70    2.22
   8  -8  -4    1.04    0.16
  10  -8  -4    1.80    0.19
 -15  -7  -4    9.50    0.78
 -13  -7  -4    0.25    0.18
 -11  -7  -4    0.28    0.18
  -9  -7  -4   14.92    1.10
  -7  -7  -4    8.14    0.70
  -5  -7  -4    4.31    0.45
  -3  -7  -4    0.11    0.12
  -1  -7  -4   34.96    1.62
   1  -7  -4    3.59    0.28
   3  -7  -4    7.87    0.46
   5  -7  -4    6.14    0.37
   7  -7  -4    2.87    0.25
   9  -7  -4    1.70    0.19
  11  -7  -4    0.58    0.10
 -14  -6  -4    3.85    0.52
 -12  -6  -4    0.87    0.24
 -10  -6  -4    0.10    0.13
  -8  -6  -4   30.54    1.96
  -6  -6  -4    0.20    0.12
  -4  -6  -4   14.67    1.05
  -2  -6  -4    1.12    0.16
   0  -6  -4    1.90    0.20
   2  -6  -4    3.44    0.26
   4  -6  -4    0.18    0.08
   6  -6  -4  373.74   14.69
   8  -6  -4    8.94    0.46
  10  -6  -4    7.23    0.37
  12  -6  -4    1.14    0.23
 -13  -5  -4    0.37    0.17
 -11  -5  -4    9.54    0.77
  -9  -5  -4    4.94    0.47
  -7  -5  -4    4.70    0.44
  -5  -5  -4   11.45    0.79
  -3  -5  -4    1.10    0.14
  -1  -5  -4  104.37    4.44
   1  -5  -4    2.95    0.22
   3  -5  -4    4.19    0.26
   5  -5  -4    2.81    0.21
   7  -5  -4    3.10    0.22
   9  -5  -4    7.83    0.42
  11  -5  -4    1.16    0.22
  13  -5  -4   57.84    3.25
  15  -5  -4    3.42    0.52
  17  -5  -4    3.20    0.51
  19  -5  -4    0.49    0.26
 -14  -4  -4    2.04    0.32
 -12  -4  -4    4.49    0.42
 -10  -4  -4    3.26    0.32
  -8  -4  -4    9.00    0.68
  -6  -4  -4    0.70    0.16
  -4  -4  -4    7.98    0.42
  -2  -4  -4   13.01    0.59
   0  -4  -4   10.39    0.49
   2  -4  -4    0.29    0.07
   4  -4  -4    0.23    0.07
   6  -4  -4  159.64    6.39
   8  -4  -4    3.88    0.22
  10  -4  -4    2.39    0.27
  12  -4  -4    6.34    0.39
  14  -4  -4    5.48    0.37
  16  -4  -4    0.42    0.20
  18  -4  -4    0.35    0.22
  20  -4  -4    1.74    0.41
 -21  -3  -4    3.90    0.57
 -13  -3  -4    0.72    0.18
 -11  -3  -4   13.78    1.01
  -9  -3  -4    3.10    0.29
  -7  -3  -4    4.42    0.35
  -5  -3  -4   10.76    0.51
  -3  -3  -4    0.53    0.08
  -1  -3  -4  489.45   19.67
   1  -3  -4    6.19    0.32
   3  -3  -4   15.64    0.69
   5  -3  -4    2.64    0.13
   7  -3  -4    1.17    0.07
   9  -3  -4    9.11    0.69
  11  -3  -4    2.51    0.22
  13  -3  -4  291.77   16.39
  15  -3  -4    6.29    0.38
  17  -3  -4    2.14    0.39
  19  -3  -4    0.82    0.28
  21  -3  -4    3.14    0.52
 -22  -2  -4   39.06    2.53
 -20  -2  -4    0.45    0.20
 -18  -2  -4    0.65    0.21
 -12  -2  -4    3.96    0.35
 -10  -2  -4    0.38    0.10
  -8  -2  -4   52.28    2.88
  -6  -2  -4    2.56    0.16
  -4  -2  -4   14.60    0.61
  -2  -2  -4    7.08    0.33
   0  -2  -4    7.10    0.34
   2  -2  -4    0.79    0.09
   4  -2  -4    1.11    0.07
   6  -2  -4  329.24   10.31
   8  -2  -4    3.41    0.30
  10  -2  -4    2.51    0.21
  12  -2  -4    2.25    0.20
  14  -2  -4    2.82    0.42
  16  -2  -4   12.17    0.63
  18  -2  -4    0.08    0.15
  20  -2  -4    9.74    0.89
  22  -2  -4   -0.14    0.17
 -23  -1  -4    0.30    0.21
 -21  -1  -4    1.01    0.29
 -19  -1  -4    0.62    0.22
 -17  -1  -4    1.85    0.32
 -15  -1  -4   71.53    3.91
 -13  -1  -4    0.09    0.09
 -11  -1  -4    2.98    0.33
  -9  -1  -4    3.36    0.24
  -7  -1  -4    1.99    0.12
  -5  -1  -4    2.99    0.17
  -3  -1  -4    0.02    0.02
  -1  -1  -4  217.42    8.73
   1  -1  -4    1.98    0.09
   3  -1  -4    6.26    0.28
   7  -1  -4    0.52    0.12
   9  -1  -4    1.78    0.19
  11  -1  -4    0.86    0.13
  13  -1  -4   97.86    3.78
  15  -1  -4    1.26    0.28
  17  -1  -4    0.76    0.15
  19  -1  -4    0.59    0.23
  21  -1  -4    0.94    0.29
  23  -1  -4    1.53    0.38
 -22   0  -4  158.10    9.10
 -20   0  -4    0.36    0.18
 -18   0  -4    2.01    0.33
 -16   0  -4    7.46    0.62
 -14   0  -4   10.81    0.78
 -12   0  -4   12.97    0.93
 -10   0  -4    0.37    0.11
  -8   0  -4  171.26    5.51
  -6   0  -4    2.91    0.13
  -4   0  -4   31.69    1.06
  -2   0  -4    7.68    0.29
   0   0  -4    5.07    0.20
   2   0  -4    1.50    0.06
   4   0  -4    3.50    0.17
   6   0  -4  996.31   37.69
   8   0  -4   18.11    0.77
  10   0  -4    9.48    0.43
  12   0  -4    0.36    0.07
  14   0  -4    2.23    0.21
  16   0  -4   26.39    1.18
  18   0  -4    0.37    0.11
  20   0  -4   34.28    2.22
  22   0  -4    0.98    0.31
 -23   1  -4    0.09    0.18
 -21   1  -4    1.24    0.31
 -19   1  -4    0.34    0.19
 -17   1  -4    2.15    0.34
 -15   1  -4   72.16    3.91
 -13   1  -4    0.15    0.10
 -11   1  -4    2.84    0.33
  -9   1  -4    3.26    0.19
  -7   1  -4    1.98    0.13
  -5   1  -4    3.24    0.14
  -3   1  -4    0.05    0.02
  -1   1  -4  212.45   12.34
   1   1  -4    1.96    0.10
   3   1  -4    6.10    0.20
   5   1  -4    2.17    0.14
   7   1  -4    0.73    0.08
   9   1  -4    1.48    0.13
  11   1  -4    0.74    0.10
  13   1  -4   95.75    3.74
  15   1  -4    1.39    0.16
  17   1  -4    0.86    0.13
  19   1  -4    0.47    0.17
 -22   2  -4   38.64    2.52
 -20   2  -4    0.74    0.25
 -18   2  -4    0.42    0.18
 -16   2  -4    0.46    0.18
 -14   2  -4    3.68    0.39
 -12   2  -4    3.88    0.41
 -10   2  -4    0.49    0.14
  -8   2  -4   53.08    2.05
  -6   2  -4    2.82    0.26
  -4   2  -4   14.72    0.61
  -2   2  -4    7.06    0.26
   0   2  -4    7.39    0.28
   2   2  -4    0.76    0.05
   4   2  -4    0.93    0.14
   6   2  -4  330.17   12.66
   8   2  -4    3.35    0.21
  10   2  -4    2.45    0.18
  12   2  -4    1.77    0.18
  14   2  -4    2.75    0.32
  16   2  -4   12.19    0.86
  18   2  -4   -0.02    0.05
 -21   3  -4    4.39    0.58
 -19   3  -4    0.97    0.27
 -17   3  -4    5.88    0.55
 -15   3  -4  214.56   11.35
 -13   3  -4    0.81    0.19
 -11   3  -4   13.04    1.04
  -9   3  -4    2.68    0.19
  -7   3  -4    4.44    0.38
  -5   3  -4    9.95    0.51
  -3   3  -4    0.52    0.08
  -1   3  -4  501.68   19.73
   1   3  -4    6.13    0.31
   3   3  -4   15.18    0.47
   5   3  -4    2.48    0.18
   7   3  -4    1.16    0.13
   9   3  -4    9.46    0.50
  11   3  -4    2.36    0.20
  13   3  -4  290.79   11.52
  15   3  -4    5.80    0.50
  17   3  -4    2.99    0.39
  19   3  -4    0.82    0.23
 -20   4  -4    0.83    0.29
 -18   4  -4    0.35    0.20
 -16   4  -4    4.74    0.54
 -14   4  -4    2.40    0.39
 -12   4  -4    4.23    0.45
 -10   4  -4    3.18    0.35
  -8   4  -4    8.60    0.71
  -6   4  -4    0.82    0.12
  -4   4  -4    7.73    0.42
  -2   4  -4   13.42    0.59
   0   4  -4   10.46    0.48
   2   4  -4    0.38    0.07
   4   4  -4    0.24    0.04
   6   4  -4  167.97    9.12
   8   4  -4    3.78    0.36
  10   4  -4    2.56    0.29
  12   4  -4    6.15    0.53
  14   4  -4    5.44    0.50
  16   4  -4    0.53    0.18
  18   4  -4    0.33    0.17
  20   4  -4    2.03    0.37
 -19   5  -4    0.09    0.19
 -17   5  -4   -0.03    0.14
 -15   5  -4   54.15    3.12
 -13   5  -4    0.71    0.25
 -11   5  -4    9.58    0.82
  -9   5  -4    4.67    0.51
  -7   5  -4    4.65    0.30
  -5   5  -4   11.25    0.56
  -3   5  -4    1.03    0.13
  -1   5  -4  105.49    4.43
   1   5  -4    2.71    0.19
   3   5  -4    4.04    0.23
   5   5  -4    2.68    0.15
   7   5  -4    3.13    0.42
   9   5  -4    8.05    0.68
  11   5  -4    1.32    0.27
  13   5  -4   52.88    3.15
  15   5  -4    3.19    0.45
  17   5  -4    2.78    0.43
  19   5  -4    0.51    0.22
  21   5  -4    2.62    0.45
 -16   6  -4    4.10    0.63
 -14   6  -4    4.07    0.59
 -12   6  -4    0.76    0.29
 -10   6  -4    0.25    0.18
  -8   6  -4   33.60    1.41
  -6   6  -4    0.14    0.07
  -4   6  -4   14.37    0.74
  -2   6  -4    1.23    0.15
   0   6  -4    1.67    0.17
   2   6  -4    3.36    0.24
   4   6  -4    0.07    0.05
   6   6  -4  370.64   20.88
   8   6  -4    8.55    0.74
  10   6  -4    6.80    0.63
  12   6  -4    0.60    0.22
  14   6  -4    1.53    0.33
  16   6  -4   10.74    0.90
  18   6  -4    0.65    0.26
 -15   7  -4   10.82    0.93
 -13   7  -4    0.05    0.18
 -11   7  -4    0.25    0.20
  -9   7  -4   14.94    1.19
  -7   7  -4    8.13    0.50
  -5   7  -4    3.83    0.31
  -3   7  -4    0.13    0.07
  -1   7  -4   34.85    1.61
   1   7  -4    3.28    0.25
   3   7  -4    7.86    0.42
   5   7  -4    6.26    0.63
   7   7  -4    3.73    0.54
   9   7  -4    1.82    0.35
  11   7  -4    0.59    0.23
  13   7  -4   20.20    1.38
  15   7  -4    0.78    0.29
 -10   8  -4    1.95    0.45
  -8   8  -4   10.13    0.57
  -6   8  -4    1.22    0.20
  -4   8  -4   13.14    0.68
  -2   8  -4    4.56    0.34
   0   8  -4    3.33    0.27
   2   8  -4    1.24    0.15
   4   8  -4    0.03    0.05
   6   8  -4   53.40    3.31
   8   8  -4    1.01    0.31
  10   8  -4    1.77    0.40
  12   8  -4    1.55    0.38
  -3   9  -4    0.17    0.19
  -1   9  -4   67.04    4.12
   1   9  -4    2.04    0.24
   3   9  -4    7.10    0.41
   5   9  -4    0.59    0.34
  -5  -9  -3    3.21    0.47
  -3  -9  -3    4.40    0.53
  -1  -9  -3    2.70    0.42
   1  -9  -3    2.53    0.27
   3  -9  -3    1.78    0.24
   5  -9  -3    8.17    0.56
   7  -9  -3    5.22    0.53
 -12  -8  -3    3.02    0.48
 -10  -8  -3    2.20    0.40
  -8  -8  -3    4.75    0.54
  -6  -8  -3  111.82    6.17
  -4  -8  -3    0.86    0.23
  -2  -8  -3    1.24    0.27
   0  -8  -3   10.86    0.61
   2  -8  -3    6.91    0.45
   4  -8  -3    0.02    0.08
   6  -8  -3    0.00    0.08
   8  -8  -3   17.54    0.83
  10  -8  -3    4.25    0.40
  12  -8  -3    4.19    0.34
 -15  -7  -3    2.05    0.40
 -13  -7  -3  103.28    6.26
 -11  -7  -3    0.41    0.19
  -9  -7  -3    5.44    0.54
  -7  -7  -3    0.87    0.24
  -5  -7  -3    2.78    0.40
  -3  -7  -3    4.95    0.48
  -1  -7  -3    0.26    0.09
   1  -7  -3   71.75    2.74
   3  -7  -3    1.65    0.20
   5  -7  -3    6.73    0.39
   7  -7  -3    0.04    0.07
   9  -7  -3    1.55    0.18
  11  -7  -3    5.37    0.37
 -16  -6  -3    4.44    0.55
 -14  -6  -3    6.98    0.60
 -12  -6  -3    7.17    0.64
 -10  -6  -3    0.02    0.10
  -8  -6  -3    1.63    0.29
  -6  -6  -3    3.89    0.41
  -4  -6  -3   -0.01    0.09
  -2  -6  -3    3.50    0.28
   0  -6  -3   15.83    0.75
   2  -6  -3   14.31    0.71
   4  -6  -3   13.75    0.63
   6  -6  -3    0.59    0.11
   8  -6  -3    4.60    0.29
  10  -6  -3    4.06    0.25
  12  -6  -3    4.55    0.51
  14  -6  -3    3.54    0.52
  16  -6  -3    1.38    0.35
  18  -6  -3    0.52    0.27
 -15  -5  -3    3.69    0.46
 -13  -5  -3  198.71   11.41
 -11  -5  -3    0.05    0.09
  -9  -5  -3    8.22    0.64
  -7  -5  -3    7.48    0.61
  -5  -5  -3    3.27    0.34
  -3  -5  -3    1.47    0.16
  -1  -5  -3    1.76    0.17
   1  -5  -3  120.09    4.41
   3  -5  -3    0.26    0.08
   5  -5  -3    2.03    0.19
   7  -5  -3    8.70    0.43
   9  -5  -3    9.89    0.40
  11  -5  -3    1.59    0.31
  13  -5  -3    0.39    0.19
  15  -5  -3  157.15    8.98
  17  -5  -3    8.91    0.84
  19  -5  -3    3.35    0.56
 -14  -4  -3    2.56    0.35
 -12  -4  -3    4.58    0.45
 -10  -4  -3    2.57    0.28
  -8  -4  -3    2.05    0.27
  -6  -4  -3  513.86   26.80
  -4  -4  -3    2.42    0.18
  -2  -4  -3    6.61    0.37
   0  -4  -3    1.17    0.13
   2  -4  -3    4.77    0.28
   4  -4  -3   18.36    0.79
   6  -4  -3    0.32    0.07
   8  -4  -3  159.49    5.33
  10  -4  -3    1.20    0.15
  12  -4  -3    1.38    0.18
  14  -4  -3    0.60    0.15
  16  -4  -3    0.14    0.16
  18  -4  -3    3.03    0.49
  20  -4  -3    1.13    0.32
  22  -4  -3   86.46    5.13
 -13  -3  -3    0.08    0.09
 -11  -3  -3    0.94    0.18
  -9  -3  -3    1.39    0.21
  -7  -3  -3    4.15    0.24
  -5  -3  -3    4.95    0.27
  -3  -3  -3    7.42    0.36
  -1  -3  -3    1.96    0.14
   1  -3  -3    4.76    0.25
   3  -3  -3    2.83    0.18
   5  -3  -3    8.06    0.31
   7  -3  -3    8.28    0.27
   9  -3  -3    9.54    0.47
  11  -3  -3    0.58    0.11
  13  -3  -3    0.04    0.06
  15  -3  -3    1.85    0.36
  17  -3  -3    0.21    0.17
  19  -3  -3    0.02    0.14
  21  -3  -3    0.79    0.29
  23  -3  -3    0.88    0.32
 -22  -2  -3    0.65    0.24
 -20  -2  -3   36.26    2.45
 -12  -2  -3    2.41    0.25
 -10  -2  -3    1.53    0.19
  -8  -2  -3    5.50    0.26
  -6  -2  -3  599.81   23.19
  -4  -2  -3    1.81    0.11
  -2  -2  -3    1.26    0.10
   0  -2  -3    6.98    0.45
   2  -2  -3    5.17    0.26
   4  -2  -3    3.23    0.14
   6  -2  -3    0.24    0.03
   8  -2  -3  218.57    8.76
  10  -2  -3    4.78    0.47
  12  -2  -3    6.28    0.37
  14  -2  -3    3.52    0.25
  16  -2  -3    1.27    0.19
  18  -2  -3    3.07    0.48
  20  -2  -3    1.92    0.39
  22  -2  -3  117.37    6.89
  24  -2  -3    6.16    0.80
 -23  -1  -3   11.66    1.02
 -21  -1  -3    0.58    0.24
 -19  -1  -3    0.59    0.21
 -17  -1  -3    9.15    0.74
 -15  -1  -3    6.11    0.54
 -11  -1  -3    2.17    0.19
  -9  -1  -3    9.26    0.54
  -7  -1  -3    5.66    0.27
  -5  -1  -3    7.34    0.33
  -3  -1  -3    4.28    0.20
  -1  -1  -3    0.01    0.02
   1  -1  -3  344.06   13.13
   3  -1  -3    2.54    0.11
   5  -1  -3    0.83    0.13
   7  -1  -3    3.63    0.22
   9  -1  -3    2.77    0.19
  11  -1  -3    3.64    0.24
  13  -1  -3    1.74    0.18
  15  -1  -3  367.80   14.35
  17  -1  -3   11.17    0.61
  19  -1  -3    5.29    0.57
  21  -1  -3    0.98    0.29
  23  -1  -3    0.01    0.18
 -24   0  -3    0.15    0.21
 -22   0  -3    0.01    0.15
 -20   0  -3    0.02    0.11
 -18   0  -3   -0.07    0.08
 -16   0  -3    0.08    0.10
 -14   0  -3    0.01    0.08
 -12   0  -3    0.08    0.08
 -10   0  -3    0.02    0.02
  -8   0  -3    0.02    0.02
  -4   0  -3    0.01    0.01
  -2   0  -3    0.01    0.01
   0   0  -3    0.02    0.01
   2   0  -3    0.03    0.01
   4   0  -3    0.02    0.02
   6   0  -3   -0.01    0.02
  10   0  -3   -0.02    0.03
  12   0  -3    0.01    0.03
  14   0  -3   -0.01    0.03
  16   0  -3    0.03    0.06
  18   0  -3    0.02    0.08
  20   0  -3    0.03    0.14
  22   0  -3    0.41    0.22
  24   0  -3   -0.04    0.20
 -23   1  -3   12.51    1.04
 -21   1  -3    0.65    0.24
 -19   1  -3    0.56    0.20
 -17   1  -3    9.08    0.74
 -15   1  -3    6.11    0.54
 -13   1  -3  405.55   23.55
  -9   1  -3    9.90    0.41
  -7   1  -3    5.85    0.29
  -5   1  -3    7.48    0.33
  -3   1  -3    4.31    0.16
  -1   1  -3    0.04    0.02
   1   1  -3  351.56   10.72
   3   1  -3    2.63    0.10
   5   1  -3    0.83    0.09
   7   1  -3    3.60    0.20
   9   1  -3    2.94    0.18
  11   1  -3    3.75    0.19
  13   1  -3    1.87    0.19
  15   1  -3  356.71   14.33
  17   1  -3   11.21    0.59
  19   1  -3    5.17    0.54
  21   1  -3    1.45    0.33
 -22   2  -3    0.80    0.28
 -20   2  -3   36.87    2.45
 -18   2  -3    0.81    0.23
 -16   2  -3   22.54    1.42
 -14   2  -3    1.06    0.23
 -12   2  -3    2.32    0.32
 -10   2  -3    1.43    0.22
  -8   2  -3    5.00    0.27
  -6   2  -3  558.87   23.23
  -4   2  -3    1.59    0.17
  -2   2  -3    1.33    0.10
   0   2  -3    6.80    0.26
   2   2  -3    5.24    0.18
   4   2  -3    3.24    0.19
   6   2  -3    0.20    0.05
   8   2  -3  216.27    8.74
  10   2  -3    4.94    0.29
  12   2  -3    6.12    0.35
  14   2  -3    3.50    0.20
  16   2  -3    1.46    0.18
  18   2  -3    2.68    0.38
  20   2  -3    2.43    0.36
 -23   3  -3    0.26    0.29
 -21   3  -3    2.20    0.42
 -19   3  -3    0.87    0.26
 -17   3  -3    1.19    0.28
 -15   3  -3    0.01    0.09
 -13   3  -3    0.08    0.10
 -11   3  -3    0.98    0.20
  -9   3  -3    1.24    0.14
  -7   3  -3    3.61    0.35
  -5   3  -3    5.45    0.28
  -3   3  -3    7.34    0.36
  -1   3  -3    1.89    0.14
   1   3  -3    4.55    0.24
   3   3  -3    2.73    0.13
   5   3  -3    7.59    0.58
   7   3  -3    8.26    0.58
   9   3  -3    9.00    0.64
  11   3  -3    0.69    0.16
  13   3  -3    0.10    0.09
  17   3  -3    0.11    0.12
  19   3  -3   -0.05    0.12
  21   3  -3    1.89    0.35
  23   3  -3    1.04    0.29
 -22   4  -3    1.25    0.44
 -20   4  -3   24.25    1.91
 -18   4  -3    0.40    0.21
 -16   4  -3   25.33    1.63
 -14   4  -3    3.01    0.42
 -12   4  -3    4.87    0.49
 -10   4  -3    2.46    0.32
  -8   4  -3    2.06    0.17
  -6   4  -3  472.27   18.94
  -4   4  -3    2.08    0.21
  -2   4  -3    6.54    0.36
   0   4  -3    1.24    0.11
   2   4  -3    4.95    0.27
   4   4  -3   18.11    0.62
   6   4  -3    0.40    0.14
   8   4  -3  157.31    9.27
  10   4  -3    1.23    0.23
  12   4  -3    1.69    0.29
  14   4  -3    0.40    0.15
  16   4  -3    0.07    0.11
  18   4  -3    4.03    0.45
  20   4  -3    1.20    0.30
  22   4  -3   78.53    4.85
 -19   5  -3    2.06    0.44
 -17   5  -3    3.00    0.50
 -15   5  -3    2.88    0.46
 -13   5  -3  198.88   11.47
 -11   5  -3    0.04    0.10
  -9   5  -3    8.68    0.71
  -7   5  -3    7.47    0.43
  -5   5  -3    3.06    0.23
  -3   5  -3    1.22    0.14
  -1   5  -3    2.22    0.17
   1   5  -3  118.07    4.40
   3   5  -3    0.18    0.05
   5   5  -3    2.08    0.14
   7   5  -3    8.61    0.69
   9   5  -3    9.24    0.74
  11   5  -3    1.42    0.28
  13   5  -3    0.41    0.17
  15   5  -3  151.99    8.91
  17   5  -3    9.51    0.80
  19   5  -3    3.98    0.53
  21   5  -3    1.87    0.39
 -18   6  -3    0.79    0.30
 -16   6  -3    3.87    0.59
 -14   6  -3    6.14    0.64
 -12   6  -3    7.62    0.71
 -10   6  -3    0.02    0.13
  -8   6  -3    1.37    0.18
  -6   6  -3    3.75    0.28
  -4   6  -3    0.04    0.06
  -2   6  -3    3.27    0.26
   0   6  -3   15.59    0.74
   2   6  -3   14.68    0.70
   4   6  -3   12.52    0.60
   6   6  -3    0.67    0.22
   8   6  -3    6.00    0.56
  10   6  -3    3.29    0.46
  12   6  -3    4.76    0.51
  14   6  -3    3.33    0.49
  16   6  -3    1.37    0.32
  18   6  -3    0.59    0.24
 -15   7  -3    2.62    0.52
 -13   7  -3  106.41    6.37
 -11   7  -3    0.55    0.25
  -9   7  -3    5.51    0.59
  -7   7  -3    0.89    0.16
  -5   7  -3    2.77    0.27
  -3   7  -3    4.48    0.32
  -1   7  -3    0.22    0.08
   1   7  -3   71.45    2.73
   3   7  -3    1.74    0.16
   5   7  -3    6.33    0.34
   7   7  -3    0.01    0.12
   9   7  -3    1.76    0.37
  11   7  -3    4.54    0.62
  13   7  -3    0.12    0.17
  15   7  -3   97.39    5.81
 -12   8  -3    2.41    0.49
 -10   8  -3    2.43    0.46
  -8   8  -3    4.99    0.37
  -6   8  -3  110.75    4.36
  -4   8  -3    1.23    0.18
  -2   8  -3    1.43    0.18
   0   8  -3   10.71    0.59
   2   8  -3    7.30    0.42
   4   8  -3    0.10    0.06
   6   8  -3    0.01    0.15
   8   8  -3   16.48    1.31
  10   8  -3    4.64    0.65
  12   8  -3    4.47    0.65
  -5   9  -3    3.10    0.34
  -3   9  -3    4.93    0.38
  -1   9  -3    2.42    0.26
   1   9  -3    2.55    0.23
   3   9  -3    1.82    0.19
   5   9  -3    9.61    0.88
  -7  -9  -2    5.76    0.74
  -5  -9  -2    1.11    0.29
  -3  -9  -2    2.78    0.43
  -1  -9  -2    3.03    0.45
   1  -9  -2    1.59    0.22
   3  -9  -2  132.77    5.53
   5  -9  -2    3.98    0.35
 -12  -8  -2    3.95    0.54
 -10  -8  -2    1.76    0.37
  -8  -8  -2    7.02    0.67
  -6  -8  -2    1.04    0.27
  -4  -8  -2   32.43    2.21
  -2  -8  -2    0.94    0.23
   0  -8  -2    4.68    0.33
   2  -8  -2    2.35    0.25
   4  -8  -2    2.50    0.26
   6  -8  -2    4.30    0.33
   8  -8  -2    0.60    0.13
  10  -8  -2   26.56    1.56
  12  -8  -2    2.17    0.23
 -17  -7  -2    1.71    0.37
 -15  -7  -2    3.09    0.48
 -13  -7  -2    3.05    0.45
  -9  -7  -2    0.72    0.22
  -7  -7  -2    4.64    0.49
  -5  -7  -2   12.72    0.90
  -3  -7  -2   11.96    0.89
  -1  -7  -2    1.43    0.19
   1  -7  -2    1.27    0.17
   3  -7  -2   68.82    2.86
   5  -7  -2    2.58    0.24
   7  -7  -2    2.21    0.22
   9  -7  -2    9.73    0.50
  11  -7  -2    8.89    0.52
  13  -7  -2    1.48    0.35
  15  -7  -2    0.20    0.20
  17  -7  -2    0.67    0.28
 -16  -6  -2    0.22    0.19
 -14  -6  -2    7.39    0.71
 -12  -6  -2    3.84    0.49
 -10  -6  -2    2.76    0.38
  -8  -6  -2    2.72    0.39
  -6  -6  -2    1.16    0.23
  -4  -6  -2  254.20   14.57
  -2  -6  -2    1.65    0.19
   0  -6  -2   12.45    0.60
   2  -6  -2    1.05    0.14
   4  -6  -2    0.13    0.07
   6  -6  -2    6.78    0.38
   8  -6  -2    0.02    0.05
  10  -6  -2  200.56    6.21
  12  -6  -2    3.39    0.21
  14  -6  -2    2.42    0.42
  16  -6  -2    1.25    0.33
  18  -6  -2    2.42    0.46
 -15  -5  -2    1.87    0.32
 -13  -5  -2    1.12    0.24
 -11  -5  -2   26.81    1.66
  -9  -5  -2    1.74    0.27
  -7  -5  -2   23.79    1.46
  -5  -5  -2   11.37    0.77
  -3  -5  -2    9.83    0.50
  -1  -5  -2    2.71    0.20
   1  -5  -2    0.06    0.05
   3  -5  -2  219.50    8.81
   5  -5  -2    1.19    0.12
   7  -5  -2    3.00    0.18
   9  -5  -2    6.14    0.34
  11  -5  -2    7.12    0.31
  13  -5  -2   19.10    1.32
  15  -5  -2    0.26    0.18
  17  -5  -2   14.16    1.10
  19  -5  -2    0.84    0.31
  21  -5  -2    0.50    0.41
 -16  -4  -2   -0.02    0.10
 -14  -4  -2    0.37    0.14
 -12  -4  -2   13.29    0.92
 -10  -4  -2    6.83    0.55
  -8  -4  -2    4.45    0.39
  -6  -4  -2    0.18    0.09
  -4  -4  -2  118.04    4.99
  -2  -4  -2    1.44    0.14
   0  -4  -2    8.92    0.44
   2  -4  -2    8.80    0.42
   4  -4  -2    5.55    0.25
   6  -4  -2    2.92    0.16
   8  -4  -2    0.34    0.07
  10  -4  -2   85.56    2.35
  12  -4  -2    0.79    0.13
  14  -4  -2    3.12    0.44
  16  -4  -2    3.79    0.52
  18  -4  -2    6.39    0.66
  20  -4  -2    0.76    0.28
  22  -4  -2    0.01    0.18
 -23  -3  -2    0.12    0.19
 -15  -3  -2    4.06    0.40
 -13  -3  -2    0.50    0.14
 -11  -3  -2  102.67    5.80
  -9  -3  -2    1.14    0.18
  -7  -3  -2   26.43    1.14
  -5  -3  -2    0.62    0.08
  -3  -3  -2    0.65    0.08
  -1  -3  -2    3.93    0.22
   1  -3  -2    0.34    0.06
   3  -3  -2  793.88   26.31
   5  -3  -2   10.39    0.38
   7  -3  -2    7.67    0.25
   9  -3  -2    0.14    0.10
  11  -3  -2    1.14    0.14
  13  -3  -2   25.04    1.10
  15  -3  -2    0.69    0.22
  17  -3  -2   42.85    2.72
  19  -3  -2    0.36    0.20
  21  -3  -2    2.64    0.47
  23  -3  -2    2.83    0.52
 -22  -2  -2    0.24    0.17
 -20  -2  -2    0.80    0.24
 -14  -2  -2    6.09    0.49
 -12  -2  -2    1.49    0.20
 -10  -2  -2    1.64    0.19
  -8  -2  -2    5.68    0.42
  -6  -2  -2    1.51    0.10
  -4  -2  -2  246.08    9.96
  -2  -2  -2    2.66    0.14
   0  -2  -2    5.10    0.31
   2  -2  -2    3.43    0.17
   4  -2  -2    3.24    0.12
   6  -2  -2    7.43    0.24
   8  -2  -2    1.11    0.12
  10  -2  -2  171.51    6.64
  12  -2  -2    3.05    0.27
  14  -2  -2    2.46    0.20
  16  -2  -2    0.66    0.20
  18  -2  -2    1.47    0.31
  20  -2  -2    4.56    0.59
  22  -2  -2    0.17    0.19
  24  -2  -2   22.76    1.76
 -23  -1  -2    0.11    0.19
 -21  -1  -2    0.37    0.19
 -19  -1  -2    2.23    0.36
 -17  -1  -2    1.51    0.29
 -13  -1  -2    0.77    0.20
 -11  -1  -2   34.27    2.06
  -9  -1  -2    0.23    0.06
  -7  -1  -2    5.39    0.38
  -5  -1  -2    1.74    0.10
  -3  -1  -2    0.81    0.06
  -1  -1  -2    0.68    0.06
   1  -1  -2    0.15    0.03
   3  -1  -2  408.62   13.27
   5  -1  -2    3.68    0.19
   7  -1  -2    1.51    0.13
   9  -1  -2    0.61    0.09
  11  -1  -2    0.90    0.12
  13  -1  -2    4.72    0.29
  15  -1  -2    0.09    0.06
  17  -1  -2   13.51    0.99
  19  -1  -2    0.33    0.19
  21  -1  -2    1.28    0.32
  23  -1  -2    0.72    0.27
  25  -1  -2    0.30    0.27
 -24   0  -2    3.95    0.56
 -22   0  -2    1.86    0.35
 -20   0  -2    8.75    0.70
 -18   0  -2  232.88   12.41
 -16   0  -2    0.23    0.13
 -14   0  -2   15.06    1.09
 -12   0  -2    1.43    0.21
 -10   0  -2    0.71    0.07
  -8   0  -2   12.68    0.57
  -6   0  -2    2.38    0.13
  -4   0  -2  565.99   19.69
  -2   0  -2    4.52    0.16
   0   0  -2   11.88    0.39
   2   0  -2    1.74    0.07
   4   0  -2    0.51    0.04
   6   0  -2   10.24    0.37
   8   0  -2    2.66    0.13
  10   0  -2  582.99   22.97
  12   0  -2    6.76    0.36
  14   0  -2    5.38    0.30
  16   0  -2    0.67    0.12
  18   0  -2    2.80    0.41
  20   0  -2   11.37    0.86
  22   0  -2    0.27    0.20
  24   0  -2   80.88    4.86
 -23   1  -2    0.26    0.19
 -21   1  -2    0.29    0.18
 -19   1  -2    2.30    0.38
 -17   1  -2    1.32    0.26
 -15   1  -2    2.70    0.32
 -13   1  -2    0.79    0.17
 -11   1  -2   40.81    2.15
  -9   1  -2    0.14    0.07
  -7   1  -2    5.66    0.38
  -5   1  -2    1.82    0.11
  -3   1  -2    0.86    0.05
  -1   1  -2    0.60    0.05
   1   1  -2    0.13    0.02
   3   1  -2  419.82   23.09
   5   1  -2    3.36    0.25
   7   1  -2    1.87    0.12
   9   1  -2    0.57    0.08
  11   1  -2    0.99    0.12
  13   1  -2    5.06    0.30
  15   1  -2    0.14    0.06
  17   1  -2   12.97    0.53
  19   1  -2    0.38    0.17
  21   1  -2    1.72    0.34
 -24   2  -2    1.11    0.31
 -22   2  -2    0.36    0.19
 -20   2  -2    1.11    0.27
 -18   2  -2   64.63    3.55
 -16   2  -2   -0.05    0.08
 -14   2  -2    6.26    0.55
 -12   2  -2    1.58    0.25
 -10   2  -2    1.68    0.25
  -8   2  -2    6.21    0.31
  -6   2  -2    1.56    0.14
  -4   2  -2  243.11    9.99
  -2   2  -2    2.61    0.22
   0   2  -2    4.65    0.21
   2   2  -2    3.21    0.11
   4   2  -2    3.40    0.19
   6   2  -2    7.54    0.37
   8   2  -2    1.13    0.12
  10   2  -2  169.50    5.40
  12   2  -2    3.46    0.18
  14   2  -2    2.59    0.20
  16   2  -2    0.60    0.12
  18   2  -2    2.11    0.32
  20   2  -2    4.29    0.46
 -23   3  -2    0.46    0.23
 -21   3  -2    1.73    0.35
 -19   3  -2    3.12    0.47
 -17   3  -2    5.22    0.51
 -15   3  -2    3.99    0.44
 -13   3  -2    0.35    0.13
 -11   3  -2   99.59    5.83
  -9   3  -2    1.22    0.15
  -7   3  -2   26.69    1.16
  -5   3  -2    0.64    0.09
  -3   3  -2    0.65    0.08
  -1   3  -2    3.73    0.21
   1   3  -2    0.37    0.06
   3   3  -2  847.40   26.33
   5   3  -2   10.33    0.69
   7   3  -2    7.59    0.55
   9   3  -2    0.08    0.08
  11   3  -2    1.09    0.22
  13   3  -2   25.02    1.56
  15   3  -2    0.36    0.15
  17   3  -2   43.63    2.66
  19   3  -2    0.49    0.19
  21   3  -2    2.03    0.37
  23   3  -2    2.21    0.40
 -22   4  -2    0.72    0.29
 -20   4  -2    3.32    0.51
 -18   4  -2   24.80    1.51
 -16   4  -2    0.04    0.13
 -14   4  -2    0.37    0.17
 -12   4  -2   13.94    0.96
 -10   4  -2    7.68    0.61
  -8   4  -2    4.60    0.28
  -6   4  -2    0.13    0.06
  -4   4  -2  121.62    5.00
  -2   4  -2    1.63    0.14
   0   4  -2    8.52    0.43
   2   4  -2    8.64    0.41
   4   4  -2    5.51    0.22
   6   4  -2    2.83    0.31
   8   4  -2    0.30    0.12
  10   4  -2   84.45    4.80
  12   4  -2    0.70    0.18
  14   4  -2    3.14    0.36
  16   4  -2    2.62    0.40
  18   4  -2    7.29    0.63
  20   4  -2    0.36    0.19
  22   4  -2    0.09    0.18
 -21   5  -2    0.74    0.29
 -19   5  -2   -0.07    0.14
 -17   5  -2    2.92    0.47
 -15   5  -2    1.95    0.37
 -13   5  -2    1.19    0.28
 -11   5  -2   26.16    1.71
  -9   5  -2    1.91    0.33
  -7   5  -2   23.95    1.04
  -5   5  -2   11.39    0.54
  -3   5  -2    9.65    0.50
  -1   5  -2    2.57    0.19
   1   5  -2    0.01    0.03
   3   5  -2  220.74    8.80
   5   5  -2    1.24    0.10
   7   5  -2    2.54    0.36
   9   5  -2    6.45    0.55
  11   5  -2    7.13    0.63
  13   5  -2   18.45    1.29
  15   5  -2    0.42    0.18
  17   5  -2   12.78    1.03
  19   5  -2    0.74    0.25
  21   5  -2    0.16    0.19
 -18   6  -2   76.56    4.27
 -16   6  -2    0.57    0.26
 -14   6  -2    7.47    0.75
 -12   6  -2    3.64    0.51
 -10   6  -2    2.67    0.43
  -8   6  -2    3.06    0.27
  -6   6  -2    1.42    0.17
  -4   6  -2  248.11   10.30
  -2   6  -2    1.72    0.18
   0   6  -2   11.23    0.58
   2   6  -2    0.87    0.11
   4   6  -2    0.09    0.05
   6   6  -2    5.95    0.61
   8   6  -2    0.07    0.12
  10   6  -2  197.39   10.89
  12   6  -2    3.97    0.53
  14   6  -2    2.13    0.40
  16   6  -2    1.29    0.32
  18   6  -2    2.36    0.43
 -17   7  -2    1.14    0.38
 -15   7  -2    3.84    0.60
 -13   7  -2    4.06    0.57
  -9   7  -2    0.76    0.27
  -7   7  -2    4.54    0.34
  -5   7  -2   12.64    0.63
  -3   7  -2   11.77    0.62
  -1   7  -2    1.16    0.16
   1   7  -2    1.05    0.14
   3   7  -2   70.04    2.87
   5   7  -2    2.65    0.18
   7   7  -2    2.73    0.44
   9   7  -2    9.47    0.84
  11   7  -2    9.32    0.83
  13   7  -2    1.25    0.32
  15   7  -2    0.21    0.20
 -12   8  -2    3.14    0.55
 -10   8  -2    1.48    0.37
  -8   8  -2    6.92    0.45
  -6   8  -2    1.28    0.19
  -4   8  -2   33.23    1.56
  -2   8  -2    0.90    0.15
   0   8  -2    4.25    0.31
   2   8  -2    2.39    0.21
   4   8  -2    2.30    0.20
   6   8  -2    3.62    0.59
   8   8  -2    0.27    0.19
  10   8  -2   25.25    1.79
  12   8  -2    2.63    0.50
  -7   9  -2    6.38    0.45
  -5   9  -2    1.17    0.18
  -3   9  -2    2.01    0.24
  -1   9  -2    3.17    0.28
   1   9  -2    1.36    0.18
   3   9  -2  136.98    5.53
   5   9  -2    4.66    0.64
   7   9  -2    4.39    0.63
  -7  -9  -1    0.19    0.19
  -5  -9  -1    2.38    0.43
  -3  -9  -1    7.72    0.73
  -1  -9  -1    7.55    0.68
   1  -9  -1    9.29    0.56
   3  -9  -1    1.00    0.18
   5  -9  -1    2.77    0.28
 -12  -8  -1    2.71    0.46
 -10  -8  -1    2.87    0.48
  -8  -8  -1    1.72    0.35
  -6  -8  -1    4.00    0.50
  -4  -8  -1    3.14    0.42
   0  -8  -1    0.17    0.10
   2  -8  -1    0.66    0.14
   4  -8  -1    7.42    0.44
   6  -8  -1   10.37    0.55
   8  -8  -1    0.88    0.20
  10  -8  -1    0.28    0.14
  12  -8  -1   76.28    4.44
 -17  -7  -1    0.89    0.30
 -15  -7  -1    0.71    0.26
 -13  -7  -1    3.03    0.45
 -11  -7  -1    2.79    0.42
  -9  -7  -1  185.32   10.47
  -7  -7  -1    0.72    0.22
  -5  -7  -1    6.19    0.58
  -3  -7  -1    0.14    0.12
  -1  -7  -1    2.07    0.23
   1  -7  -1   11.67    0.60
   3  -7  -1    0.87    0.14
   5  -7  -1   61.87    2.79
   7  -7  -1    0.46    0.11
   9  -7  -1    2.31    0.30
  11  -7  -1    0.61    0.14
  13  -7  -1    0.05    0.05
  15  -7  -1    3.63    0.54
  17  -7  -1    0.04    0.21
 -18  -6  -1    0.02    0.16
 -14  -6  -1    0.98    0.25
 -12  -6  -1    1.75    0.31
 -10  -6  -1    3.81    0.41
  -8  -6  -1    5.88    0.54
  -6  -6  -1    7.67    0.66
  -4  -6  -1    4.09    0.40
  -2  -6  -1    6.74    0.37
   0  -6  -1    2.41    0.21
   2  -6  -1   14.81    0.72
   4  -6  -1   14.04    0.67
   6  -6  -1   16.85    0.63
   8  -6  -1    2.68    0.17
  10  -6  -1    0.06    0.07
  12  -6  -1    3.45    0.23
  14  -6  -1    0.86    0.28
  16  -6  -1    0.12    0.17
  18  -6  -1    4.40    0.63
 -17  -5  -1    0.94    0.25
 -15  -5  -1    2.73    0.39
 -13  -5  -1    4.08    0.42
 -11  -5  -1    9.31    0.71
  -9  -5  -1  334.96   17.36
  -7  -5  -1    0.47    0.15
  -5  -5  -1    1.40    0.22
  -3  -5  -1   13.92    0.66
  -1  -5  -1    9.27    0.47
   1  -5  -1    0.69    0.10
   3  -5  -1    0.04    0.04
   5  -5  -1  108.45    3.72
   7  -5  -1    4.54    0.30
   9  -5  -1    5.91    0.28
  11  -5  -1    3.99    0.23
  13  -5  -1    4.09    0.46
  15  -5  -1    3.53    0.50
  17  -5  -1    1.34    0.33
  19  -5  -1  106.30    6.17
  21  -5  -1    3.66    0.62
 -16  -4  -1  204.02   11.81
 -14  -4  -1    0.86    0.20
 -12  -4  -1    8.54    0.59
 -10  -4  -1    1.01    0.19
  -8  -4  -1    2.94    0.30
  -6  -4  -1    1.35    0.21
  -4  -4  -1    0.64    0.09
  -2  -4  -1  243.54    9.27
   0  -4  -1    2.66    0.18
   2  -4  -1    9.43    0.37
   4  -4  -1    1.55    0.11
   6  -4  -1    1.57    0.15
   8  -4  -1    7.05    0.28
  10  -4  -1    0.05    0.03
  12  -4  -1  374.10   21.32
  14  -4  -1    7.41    0.66
  16  -4  -1    3.84    0.53
  18  -4  -1    1.75    0.36
  20  -4  -1    0.86    0.28
  22  -4  -1   13.34    1.12
 -23  -3  -1    0.53    0.23
 -15  -3  -1    3.62    0.35
 -13  -3  -1    0.00    0.07
 -11  -3  -1    0.52    0.13
  -9  -3  -1    3.02    0.29
  -7  -3  -1    0.03    0.05
  -5  -3  -1    1.51    0.12
  -3  -3  -1   15.85    0.69
  -1  -3  -1   14.74    0.95
   1  -3  -1   12.30    0.44
   3  -3  -1    1.07    0.08
   5  -3  -1    5.27    0.27
   7  -3  -1    2.39    0.10
   9  -3  -1    4.58    0.15
  11  -3  -1    3.68    0.29
  15  -3  -1    0.54    0.19
  17  -3  -1    0.50    0.20
  19  -3  -1    0.20    0.18
  21  -3  -1    0.26    0.21
  23  -3  -1    0.43    0.25
 -24  -2  -1    1.43    0.34
 -22  -2  -1    0.76    0.26
 -14  -2  -1    1.09    0.17
 -12  -2  -1    7.22    0.46
 -10  -2  -1    4.59    0.37
  -8  -2  -1    3.04    0.25
  -6  -2  -1    2.85    0.21
  -4  -2  -1    2.79    0.19
  -2  -2  -1  299.19   11.56
   0  -2  -1    0.23    0.04
   2  -2  -1    0.63    0.06
   4  -2  -1    3.44    0.15
   6  -2  -1    5.06    0.16
   8  -2  -1    2.59    0.19
  10  -2  -1    0.40    0.07
  12  -2  -1  477.40   18.97
  14  -2  -1   12.70    0.92
  16  -2  -1    4.57    0.51
  18  -2  -1    1.25    0.29
  20  -2  -1   -0.02    0.13
  22  -2  -1   11.40    1.02
  24  -2  -1    0.77    0.30
 -23  -1  -1   27.45    1.98
 -21  -1  -1    0.70    0.24
 -19  -1  -1   24.72    1.55
 -17  -1  -1    0.95    0.23
 -13  -1  -1    3.38    0.26
 -11  -1  -1    7.60    0.48
  -9  -1  -1  686.70   36.93
  -7  -1  -1    0.10    0.04
  -3  -1  -1    0.19    0.04
  -1  -1  -1    1.09    0.07
   1  -1  -1    8.04    0.49
   3  -1  -1    1.24    0.05
   5  -1  -1  354.37   14.10
   7  -1  -1    1.88    0.13
   9  -1  -1    1.05    0.10
  11  -1  -1    0.95    0.11
  13  -1  -1    0.58    0.09
  15  -1  -1    6.00    0.57
  17  -1  -1    1.41    0.29
  19  -1  -1  227.64   12.32
  21  -1  -1    8.63    0.75
  23  -1  -1    5.30    0.59
  25  -1  -1    0.12    0.21
 -24   0  -1   -0.11    0.14
 -22   0  -1    0.20    0.16
 -20   0  -1   -0.06    0.10
 -18   0  -1    0.06    0.10
 -16   0  -1    0.09    0.10
 -14   0  -1    0.06    0.08
 -12   0  -1    0.05    0.04
 -10   0  -1    0.00    0.02
  -8   0  -1    0.01    0.02
  -6   0  -1    0.04    0.02
  -4   0  -1    0.01    0.01
  -2   0  -1    1.19    0.06
   0   0  -1    0.02    0.01
   2   0  -1    0.02    0.01
   4   0  -1    0.00    0.01
   6   0  -1    0.10    0.06
   8   0  -1    0.00    0.02
  10   0  -1    0.00    0.02
  12   0  -1    0.08    0.05
  14   0  -1    0.05    0.05
  16   0  -1    0.10    0.12
  18   0  -1    0.05    0.11
  20   0  -1   -0.07    0.12
  22   0  -1    0.00    0.15
  24   0  -1   -0.07    0.18
 -25   1  -1    1.00    0.33
 -23   1  -1   26.72    1.96
 -21   1  -1    0.91    0.25
 -19   1  -1   24.64    1.55
 -17   1  -1    1.09    0.24
 -15   1  -1    3.04    0.34
 -13   1  -1    3.54    0.32
 -11   1  -1    7.89    0.53
  -9   1  -1  641.59   37.06
  -7   1  -1    0.03    0.04
  -5   1  -1    3.39    0.31
  -3   1  -1    0.15    0.03
  -1   1  -1    1.25    0.09
   1   1  -1    7.93    0.28
   3   1  -1    1.18    0.08
   5   1  -1  350.39   11.54
   7   1  -1    2.03    0.11
   9   1  -1    0.97    0.08
  11   1  -1    0.95    0.11
  13   1  -1    0.71    0.09
  15   1  -1    5.90    0.38
  17   1  -1    1.81    0.21
  19   1  -1  224.03   12.27
  21   1  -1    8.67    0.73
 -24   2  -1    1.51    0.35
 -22   2  -1    0.51    0.22
 -20   2  -1    5.51    0.56
 -18   2  -1    6.48    0.60
 -16   2  -1  285.23   16.72
 -14   2  -1    0.83    0.19
 -12   2  -1    7.50    0.52
 -10   2  -1    5.28    0.42
  -8   2  -1    2.94    0.18
  -6   2  -1    2.98    0.15
  -2   2  -1  311.69   11.55
   0   2  -1    0.22    0.04
   2   2  -1    0.56    0.04
   4   2  -1    3.32    0.28
   6   2  -1    4.73    0.24
   8   2  -1    2.33    0.15
  10   2  -1    0.49    0.08
  12   2  -1  473.45   18.97
  14   2  -1   12.62    0.62
  16   2  -1    5.10    0.33
  18   2  -1    1.37    0.19
  20   2  -1    0.16    0.14
 -23   3  -1    0.78    0.26
 -21   3  -1    0.19    0.17
 -19   3  -1    1.49    0.30
 -17   3  -1    3.33    0.38
 -15   3  -1    3.51    0.39
 -13   3  -1    0.03    0.07
 -11   3  -1    0.46    0.14
  -9   3  -1    3.30    0.32
  -7   3  -1    0.03    0.03
  -5   3  -1    1.45    0.12
  -3   3  -1   16.03    0.70
  -1   3  -1   15.02    0.67
   1   3  -1   12.97    0.55
   3   3  -1    1.26    0.07
   5   3  -1    5.25    0.41
   7   3  -1    2.39    0.25
   9   3  -1    4.39    0.24
  11   3  -1    3.51    0.22
  13   3  -1    1.92    0.31
  15   3  -1    0.57    0.18
  17   3  -1    0.40    0.17
  19   3  -1    0.19    0.15
  21   3  -1    0.09    0.15
  23   3  -1    0.64    0.25
 -22   4  -1    0.24    0.21
 -20   4  -1    4.45    0.54
 -18   4  -1    6.87    0.63
 -16   4  -1  204.04   11.87
 -14   4  -1    0.87    0.21
 -12   4  -1    8.10    0.61
 -10   4  -1    1.31    0.23
  -8   4  -1    2.59    0.20
  -6   4  -1    1.14    0.13
  -4   4  -1    0.57    0.09
  -2   4  -1  254.30    9.28
   0   4  -1    2.52    0.17
   2   4  -1    8.90    0.44
   4   4  -1    1.53    0.09
   6   4  -1    1.70    0.26
   8   4  -1    6.65    0.54
  10   4  -1    0.06    0.09
  12   4  -1  362.71   21.28
  14   4  -1    7.17    0.62
  16   4  -1    4.06    0.46
  18   4  -1    1.48    0.31
  20   4  -1    0.77    0.25
  22   4  -1   13.18    1.06
 -21   5  -1    1.21    0.34
 -19   5  -1    7.57    0.73
 -17   5  -1    0.86    0.26
 -15   5  -1    1.95    0.37
 -13   5  -1    4.59    0.46
 -11   5  -1    8.63    0.74
  -9   5  -1  315.72   17.40
  -7   5  -1    0.38    0.09
  -5   5  -1    1.41    0.15
  -3   5  -1   13.57    0.65
  -1   5  -1    8.82    0.46
   1   5  -1    0.61    0.09
   3   5  -1    0.02    0.03
   5   5  -1  106.84    4.55
   7   5  -1    5.01    0.49
   9   5  -1    5.58    0.54
  11   5  -1    3.69    0.42
  13   5  -1    4.06    0.44
  15   5  -1    2.47    0.42
  17   5  -1    0.92    0.26
  19   5  -1  107.40    6.12
  21   5  -1    3.64    0.54
 -20   6  -1    1.44    0.39
 -18   6  -1    0.36    0.24
 -14   6  -1    1.27    0.31
 -12   6  -1    1.75    0.35
 -10   6  -1    4.15    0.54
  -8   6  -1    6.05    0.58
  -6   6  -1    8.51    0.48
  -4   6  -1    3.90    0.27
  -2   6  -1    5.80    0.35
   0   6  -1    2.31    0.20
   2   6  -1   15.48    0.71
   4   6  -1   14.27    0.66
   6   6  -1   16.51    0.74
   8   6  -1    2.38    0.38
  10   6  -1    0.15    0.13
  12   6  -1    4.22    0.54
  14   6  -1    0.85    0.25
  16   6  -1    0.12    0.17
  18   6  -1    4.28    0.58
 -17   7  -1    0.87    0.34
 -15   7  -1    0.74    0.30
 -13   7  -1    3.62    0.53
 -11   7  -1    3.16    0.50
  -9   7  -1  191.55   10.54
  -7   7  -1    0.84    0.15
  -5   7  -1    6.21    0.40
  -3   7  -1    0.25    0.09
  -1   7  -1    1.93    0.20
   1   7  -1   11.74    0.59
   3   7  -1    0.74    0.11
   5   7  -1   63.72    2.80
   7   7  -1    0.41    0.19
   9   7  -1    2.27    0.42
  11   7  -1    1.25    0.33
  13   7  -1    0.16    0.18
  15   7  -1    2.18    0.45
 -14   8  -1    0.58    0.28
 -12   8  -1    3.19    0.52
 -10   8  -1    2.98    0.51
  -8   8  -1    1.89    0.29
  -6   8  -1    3.14    0.29
  -4   8  -1    3.53    0.29
  -2   8  -1   30.08    1.57
   0   8  -1    0.07    0.08
   2   8  -1    0.66    0.12
   4   8  -1    7.29    0.41
   6   8  -1   10.03    0.90
   8   8  -1    0.66    0.26
  10   8  -1    0.21    0.22
  12   8  -1   78.90    4.78
  -9   9  -1    2.82    0.51
  -7   9  -1    0.12    0.11
  -5   9  -1    2.55    0.29
  -3   9  -1    8.98    0.52
  -1   9  -1    6.90    0.45
   1   9  -1    9.47    0.54
   3   9  -1    0.90    0.14
   5   9  -1    2.97    0.21
   7   9  -1    2.72    0.51
  -7  -9   0   58.51    3.82
  -5  -9   0    0.26    0.18
  -3  -9   0    5.42    0.56
  -1  -9   0    0.04    0.14
   1  -9   0    0.29    0.12
   3  -9   0    4.89    0.37
   5  -9   0    0.67    0.22
 -12  -8   0    0.24    0.19
 -10  -8   0   14.53    1.11
  -8  -8   0    5.82    0.60
  -6  -8   0    3.25    0.45
  -4  -8   0    2.36    0.36
  -2  -8   0    0.20    0.14
   0  -8   0   73.18    4.25
   2  -8   0    0.21    0.10
   4  -8   0    1.63    0.21
   6  -8   0    3.51    0.28
   8  -8   0    5.29    0.51
  10  -8   0   14.72    0.99
  12  -8   0    0.50    0.14
 -17  -7   0    0.14    0.18
 -15  -7   0    9.65    0.86
 -13  -7   0    5.07    0.56
 -11  -7   0    4.49    0.50
  -9  -7   0    0.35    0.17
  -7  -7   0   33.10    2.19
  -5  -7   0    1.57    0.28
  -3  -7   0    5.63    0.52
  -1  -7   0    5.82    0.51
   1  -7   0    5.60    0.36
   3  -7   0    6.28    0.37
   5  -7   0    2.11    0.21
   7  -7   0   37.16    1.52
   9  -7   0    0.30    0.13
  11  -7   0    4.72    0.39
  13  -7   0    5.84    0.34
  15  -7   0   10.96    0.93
  17  -7   0    0.00    0.20
 -18  -6   0    1.33    0.32
 -16  -6   0    0.66    0.23
 -14  -6   0   21.29    1.53
 -12  -6   0    0.37    0.17
 -10  -6   0   15.00    1.08
  -8  -6   0    0.75    0.20
  -6  -6   0    1.72    0.28
  -4  -6   0    6.03    0.52
  -2  -6   0    3.71    0.27
   0  -6   0  482.05   19.12
   2  -6   0    4.03    0.27
   4  -6   0    6.84    0.37
   6  -6   0    1.16    0.15
   8  -6   0    0.60    0.09
  10  -6   0   15.25    0.74
  12  -6   0    0.34    0.08
  14  -6   0   24.96    1.62
  16  -6   0    0.55    0.23
  18  -6   0    0.44    0.25
 -17  -5   0    5.64    0.58
 -15  -5   0    4.80    0.49
 -13  -5   0    1.76    0.30
 -11  -5   0    7.19    0.59
  -9  -5   0    3.49    0.34
  -7  -5   0  104.32    6.33
  -5  -5   0    1.74    0.26
  -3  -5   0   10.31    0.47
  -1  -5   0    6.09    0.33
   1  -5   0    5.41    0.25
   3  -5   0    8.37    0.36
   5  -5   0    1.49    0.13
   7  -5   0  117.26    3.65
   9  -5   0    2.88    0.17
  11  -5   0    7.29    0.38
  13  -5   0    2.44    0.39
  15  -5   0    4.74    0.53
  17  -5   0    7.29    0.70
  19  -5   0    0.17    0.18
  21  -5   0   25.02    1.88
 -18  -4   0    3.44    0.39
 -16  -4   0    2.85    0.37
 -14  -4   0    5.15    0.46
 -12  -4   0    0.33    0.13
 -10  -4   0    2.81    0.30
  -8  -4   0   11.80    0.78
  -6  -4   0   11.65    0.76
  -4  -4   0    1.02    0.12
  -2  -4   0    1.95    0.16
   0  -4   0  215.42    6.95
   2  -4   0    2.07    0.12
   4  -4   0    1.19    0.10
   6  -4   0   11.12    0.43
   8  -4   0   11.30    0.43
  10  -4   0    3.15    0.15
  12  -4   0    0.35    0.16
  16  -4   0    2.08    0.38
  18  -4   0    3.22    0.49
  20  -4   0    1.52    0.36
  22  -4   0    2.29    0.44
 -17  -3   0   10.40    0.82
 -15  -3   0    2.82    0.30
 -13  -3   0    0.77    0.16
 -11  -3   0    4.92    0.44
  -9  -3   0    3.30    0.32
  -7  -3   0  531.40   29.70
  -5  -3   0    0.82    0.09
  -3  -3   0    8.58    0.39
  -1  -3   0    0.08    0.04
   1  -3   0    0.23    0.04
   3  -3   0    8.07    0.31
   5  -3   0    0.56    0.06
   7  -3   0  554.04   14.91
   9  -3   0    4.33    0.15
  11  -3   0    6.43    0.32
  13  -3   0    0.39    0.16
  15  -3   0    2.87    0.42
  17  -3   0   13.08    0.94
  19  -3   0   -0.02    0.12
  21  -3   0  102.53    6.37
  23  -3   0    5.63    0.67
 -24  -2   0    0.55    0.24
 -22  -2   0    0.06    0.15
 -16  -2   0    0.27    0.11
 -14  -2   0   35.81    2.04
 -12  -2   0    0.67    0.13
 -10  -2   0   16.44    1.03
  -8  -2   0    6.15    0.41
  -6  -2   0    6.72    0.47
  -4  -2   0    2.26    0.17
  -2  -2   0    0.78    0.07
   0  -2   0  379.98   12.11
   2  -2   0    0.48    0.05
   4  -2   0    1.95    0.10
   6  -2   0    7.32    0.22
   8  -2   0    5.80    0.29
  10  -2   0   16.63    0.73
  12  -2   0    0.71    0.09
  14  -2   0   32.97    2.11
  16  -2   0    0.31    0.15
  18  -2   0    0.97    0.26
  20  -2   0    1.07    0.28
  22  -2   0    0.19    0.19
  24  -2   0    0.21    0.21
 -25  -1   0    0.51    0.25
 -23  -1   0    3.12    0.47
 -21  -1   0   36.31    2.17
 -19  -1   0    0.07    0.11
 -15  -1   0    1.79    0.20
 -13  -1   0    0.85    0.14
 -11  -1   0    1.78    0.19
  -9  -1   0    0.54    0.09
  -7  -1   0  242.45   13.48
  -5  -1   0    0.13    0.04
  -3  -1   0    1.81    0.15
  -1  -1   0    1.16    0.06
   1  -1   0    1.23    0.07
   3  -1   0    2.14    0.08
   5  -1   0    0.08    0.02
   7  -1   0  246.64    9.55
   9  -1   0    0.68    0.07
  11  -1   0    2.35    0.15
  13  -1   0    0.59    0.09
  15  -1   0    2.03    0.31
  17  -1   0    1.84    0.31
  19  -1   0    0.02    0.12
  21  -1   0   31.77    2.19
  23  -1   0    2.38    0.45
  25  -1   0    0.63    0.32
 -24   0   0    1.29    0.31
 -22   0   0    2.46    0.39
 -20   0   0    4.28    0.44
 -18   0   0    5.27    0.50
 -16   0   0    0.98    0.20
 -14   0   0  118.78    6.68
 -12   0   0    0.91    0.16
   2   0   0    3.35    0.12
   4   0   0    5.50    0.20
   6   0   0    1.60    0.08
   8   0   0    0.50    0.05
  10   0   0   32.26    1.09
  12   0   0    0.91    0.10
  14   0   0  116.58    6.70
  16   0   0    0.46    0.17
  18   0   0    6.00    0.55
  20   0   0    3.74    0.50
  22   0   0    2.10    0.40
  24   0   0    1.07    0.32
 -25   1   0    0.61    0.25
 -23   1   0    2.30    0.40
 -21   1   0   35.02    2.15
 -19   1   0    0.11    0.12
 -17   1   0    2.37    0.33
 -15   1   0    1.81    0.26
 -13   1   0    0.91    0.17
 -11   1   0    2.08    0.22
  -9   1   0    0.37    0.10
  -7   1   0  222.12   13.48
  -5   1   0    0.23    0.06
  -3   1   0    2.04    0.11
  -1   1   0    1.16    0.07
   1   1   0    1.19    0.08
   3   1   0    2.30    0.11
   5   1   0    0.10    0.03
   7   1   0  249.03    9.54
   9   1   0    0.78    0.14
  11   1   0    2.14    0.16
  13   1   0    0.80    0.12
  15   1   0    1.92    0.20
  17   1   0    2.31    0.34
  19   1   0   -0.05    0.10
  21   1   0   32.16    2.17
 -24   2   0    0.65    0.26
 -22   2   0    0.22    0.17
 -20   2   0    0.67    0.21
 -18   2   0    0.31    0.15
 -16   2   0    0.15    0.10
 -14   2   0   35.56    2.09
 -12   2   0    0.64    0.15
 -10   2   0   16.99    1.06
  -8   2   0    5.98    0.42
  -6   2   0    7.02    0.33
  -4   2   0    2.29    0.13
  -2   2   0    0.64    0.07
   0   2   0  378.12   14.87
   2   2   0    0.58    0.04
   4   2   0    2.00    0.08
   6   2   0    7.27    0.33
   8   2   0    5.58    0.29
  10   2   0   17.46    0.75
  12   2   0    0.56    0.10
  14   2   0   33.62    1.47
  16   2   0    0.33    0.10
  18   2   0    0.89    0.16
  20   2   0    0.91    0.24
 -23   3   0    7.41    1.05
 -21   3   0  119.24    6.32
 -19   3   0    0.04    0.13
 -17   3   0   10.67    0.85
 -15   3   0    2.75    0.32
 -13   3   0    0.69    0.17
 -11   3   0    4.73    0.45
  -9   3   0    3.31    0.34
  -7   3   0  519.47   21.10
  -5   3   0    0.74    0.09
  -3   3   0    8.57    0.39
  -1   3   0    0.10    0.04
   1   3   0    0.24    0.04
   3   3   0    8.21    0.31
   5   3   0    0.54    0.03
   7   3   0  516.37   21.00
   9   3   0    4.11    0.23
  11   3   0    6.33    0.32
  13   3   0    0.56    0.17
  15   3   0    2.37    0.35
  17   3   0   13.38    0.92
  19   3   0    0.09    0.13
  21   3   0  103.47    6.31
 -20   4   0    1.39    0.33
 -18   4   0    3.40    0.47
 -16   4   0    2.82    0.39
 -14   4   0    4.78    0.47
 -12   4   0    0.13    0.11
 -10   4   0    1.97    0.31
  -8   4   0   12.09    0.55
  -6   4   0   11.71    0.54
  -4   4   0    1.05    0.12
  -2   4   0    1.49    0.14
   0   4   0  218.02    8.53
   2   4   0    2.05    0.15
   4   4   0    1.22    0.08
   6   4   0   11.47    0.40
   8   4   0   10.52    0.81
  10   4   0    2.80    0.33
  12   4   0    0.44    0.16
  14   4   0    5.90    0.53
  16   4   0    2.44    0.39
  18   4   0    3.03    0.47
  20   4   0    1.63    0.36
  22   4   0    2.31    0.44
 -19   5   0    0.29    0.20
 -17   5   0    5.95    0.62
 -15   5   0    5.14    0.52
 -13   5   0    1.69    0.31
 -11   5   0    7.10    0.62
  -9   5   0    3.21    0.37
  -7   5   0  105.93    4.48
  -5   5   0    1.92    0.18
  -3   5   0    9.32    0.45
  -1   5   0    5.87    0.32
   1   5   0    5.45    0.31
   3   5   0    8.03    0.44
   5   5   0    1.59    0.13
   7   5   0  112.52    6.41
   9   5   0    3.49    0.39
  11   5   0    7.13    0.64
  13   5   0    1.94    0.35
  15   5   0    5.01    0.53
  17   5   0    7.37    0.67
  19   5   0    0.10    0.17
  21   5   0   25.20    1.76
 -16   6   0    0.62    0.24
 -14   6   0   22.93    1.58
 -12   6   0    0.65    0.23
 -10   6   0   16.32    1.13
  -8   6   0    0.90    0.23
  -6   6   0    1.19    0.15
  -4   6   0    6.49    0.38
  -2   6   0    3.70    0.26
   0   6   0  490.03   19.12
   2   6   0    3.92    0.26
   4   6   0    6.48    0.36
   6   6   0    0.98    0.10
   8   6   0    0.94    0.26
  10   6   0   15.65    1.16
  12   6   0    0.35    0.19
  14   6   0   23.23    1.61
  16   6   0    0.30    0.19
  18   6   0    0.53    0.25
 -15   7   0   10.69    0.92
 -13   7   0    5.77    0.62
 -11   7   0    4.07    0.57
  -9   7   0    0.54    0.22
  -7   7   0   33.82    1.54
  -5   7   0    1.73    0.20
  -3   7   0    5.13    0.35
  -1   7   0    6.00    0.36
   1   7   0    5.99    0.36
   3   7   0    5.60    0.34
   5   7   0    1.74    0.16
   7   7   0   38.39    2.32
   9   7   0    0.29    0.19
  11   7   0    4.80    0.64
  13   7   0    6.29    0.67
  15   7   0   10.54    0.95
 -12   8   0    0.44    0.24
 -10   8   0   14.94    1.15
  -8   8   0    6.51    0.66
  -6   8   0    2.98    0.30
  -4   8   0    2.38    0.25
  -2   8   0    0.47    0.12
   0   8   0   71.69    3.00
   2   8   0    0.23    0.09
   4   8   0    1.65    0.18
   6   8   0    3.21    0.21
   8   8   0    6.46    0.69
  10   8   0   13.00    1.17
  12   8   0    0.29    0.23
  -9   9   0    0.68    0.29
  -7   9   0   60.80    2.68
  -5   9   0    0.47    0.14
  -3   9   0    4.98    0.38
  -1   9   0    0.20    0.10
   1   9   0    0.24    0.10
   3   9   0    5.18    0.35
   5   9   0    0.53    0.09
   7   9   0   74.51    4.02
  -7  -9   1    2.72    0.45
  -5  -9   1    3.13    0.47
  -3  -9   1    0.54    0.21
  -1  -9   1    9.90    0.81
   1  -9   1    8.31    0.69
   3  -9   1    8.52    0.51
   5  -9   1    3.70    0.47
 -12  -8   1   79.48    4.68
 -10  -8   1    0.58    0.22
  -8  -8   1    1.49    0.32
  -6  -8   1    9.84    0.81
  -4  -8   1    7.00    0.64
  -2  -8   1    1.40    0.27
   0  -8   1    0.13    0.13
   2  -8   1   23.27    1.14
   4  -8   1    3.00    0.27
   6  -8   1    2.52    0.37
   8  -8   1    2.43    0.35
  10  -8   1    4.02    0.39
  12  -8   1    3.11    0.31
  14  -8   1    0.72    0.15
 -17  -7   1    0.26    0.21
 -15  -7   1    3.75    0.52
 -13  -7   1    0.06    0.16
 -11  -7   1    0.33    0.17
  -9  -7   1    2.69    0.39
  -7  -7   1    0.70    0.21
  -5  -7   1   75.55    4.02
  -3  -7   1    1.16    0.23
  -1  -7   1   11.18    0.84
   1  -7   1    2.31    0.23
   3  -7   1    0.29    0.10
   5  -7   1    6.86    0.39
   7  -7   1    0.86    0.21
   9  -7   1  178.08   10.38
  11  -7   1    2.63    0.29
  13  -7   1    2.44    0.21
  15  -7   1    1.30    0.34
  17  -7   1    0.56    0.28
 -20  -6   1    4.17    0.73
 -18  -6   1    4.24    0.57
 -16  -6   1    0.07    0.14
 -14  -6   1    1.04    0.27
 -12  -6   1    2.88    0.42
 -10  -6   1    0.12    0.12
  -8  -6   1    1.79    0.30
  -6  -6   1   15.76    1.10
  -4  -6   1   14.31    0.96
  -2  -6   1   15.49    1.01
   0  -6   1    2.72    0.22
   2  -6   1    6.06    0.36
   4  -6   1    3.85    0.27
   6  -6   1    9.01    0.38
   8  -6   1    6.51    0.38
  10  -6   1    3.79    0.27
  12  -6   1    1.10    0.14
  14  -6   1    1.42    0.31
  18  -6   1    0.00    0.18
 -19  -5   1   99.12    6.04
 -17  -5   1    1.15    0.27
 -15  -5   1    3.57    0.40
 -13  -5   1    3.15    0.42
 -11  -5   1    3.40    0.37
  -9  -5   1    6.96    0.53
  -7  -5   1    5.85    0.46
  -5  -5   1  126.00    6.47
  -3  -5   1   -0.01    0.05
  -1  -5   1    0.15    0.10
   1  -5   1    9.22    0.37
   3  -5   1   14.67    0.53
   5  -5   1    1.35    0.12
   7  -5   1    0.38    0.06
   9  -5   1  299.22   12.24
  11  -5   1    9.55    0.47
  13  -5   1    3.54    0.49
  15  -5   1    2.48    0.41
  17  -5   1    1.21    0.31
  19  -5   1    7.45    0.75
 -18  -4   1    1.44    0.28
 -16  -4   1    5.66    0.48
 -14  -4   1    6.99    0.58
 -12  -4   1  398.07   21.25
 -10  -4   1    0.01    0.07
  -8  -4   1    6.00    0.49
  -6  -4   1    1.90    0.21
  -4  -4   1    1.33    0.14
  -2  -4   1    9.41    0.45
   0  -4   1    2.42    0.15
   2  -4   1  220.01    7.56
   4  -4   1    0.65    0.07
   6  -4   1    2.00    0.12
   8  -4   1    3.05    0.15
  10  -4   1    0.85    0.10
  12  -4   1    6.51    0.59
  14  -4   1    0.56    0.20
  16  -4   1  219.59   11.92
  18  -4   1    6.35    0.64
  20  -4   1    5.49    0.62
  22  -4   1    0.10    0.19
 -17  -3   1    0.49    0.16
 -15  -3   1    1.13    0.21
 -13  -3   1    2.01    0.27
 -11  -3   1    3.68    0.32
  -7  -3   1    2.51    0.14
  -5  -3   1    4.96    0.37
  -3  -3   1    1.00    0.10
  -1  -3   1   12.07    0.43
   1  -3   1   15.79    0.54
   3  -3   1   16.14    0.56
   5  -3   1    1.75    0.10
   7  -3   1    0.06    0.02
   9  -3   1    3.67    0.13
  11  -3   1    0.62    0.16
  13  -3   1    0.09    0.10
  15  -3   1    3.91    0.42
  17  -3   1    2.54    0.40
  19  -3   1    1.75    0.35
  21  -3   1    0.27    0.20
  23  -3   1    0.68    0.27
 -24  -2   1    1.17    0.31
 -22  -2   1   13.29    0.99
 -16  -2   1    5.73    0.44
 -14  -2   1   12.55    0.83
 -12  -2   1  514.48   26.81
 -10  -2   1    0.38    0.10
  -8  -2   1    1.79    0.20
  -6  -2   1    4.78    0.35
  -4  -2   1    3.66    0.17
   0  -2   1    0.13    0.02
   2  -2   1  281.06    9.44
   4  -2   1    2.04    0.10
   6  -2   1    2.30    0.09
   8  -2   1    3.11    0.11
  10  -2   1    5.32    0.26
  12  -2   1    5.27    0.49
  14  -2   1    0.68    0.18
  16  -2   1  302.47   16.76
  18  -2   1    7.27    0.64
  20  -2   1    6.15    0.61
  22  -2   1    0.40    0.21
  24  -2   1    0.79    0.30
 -25  -1   1    0.24    0.20
 -23  -1   1    4.42    0.51
 -21  -1   1    7.04    0.65
 -19  -1   1  207.62   12.22
 -15  -1   1    8.16    0.53
  -1  -1   1    8.08    0.33
   1  -1   1    1.34    0.05
   3  -1   1    0.23    0.02
   5  -1   1    4.82    0.14
   7  -1   1    0.02    0.01
   9  -1   1  669.23   26.06
  11  -1   1    7.06    0.34
  13  -1   1    2.75    0.30
  15  -1   1    4.07    0.39
  17  -1   1    1.33    0.27
  19  -1   1   22.29    1.55
  21  -1   1    0.87    0.26
  23  -1   1   33.50    2.07
 -24   0   1    0.06    0.16
 -22   0   1   -0.13    0.10
 -20   0   1    0.09    0.12
 -18   0   1   -0.01    0.08
 -16   0   1   -0.06    0.07
 -14   0   1    0.01    0.07
   0   0   1    0.03    0.01
   2   0   1    1.40    0.06
   4   0   1    0.04    0.02
   6   0   1   -0.01    0.02
   8   0   1    0.03    0.04
  10   0   1    0.05    0.05
  12   0   1    0.00    0.06
  14   0   1    0.01    0.07
  16   0   1    0.06    0.10
  18   0   1   -0.03    0.09
  20   0   1   -0.03    0.11
  22   0   1    0.10    0.15
  24   0   1   -0.02    0.16
 -23   1   1    4.17    0.50
 -21   1   1    7.11    0.65
 -19   1   1  208.59   12.21
 -17   1   1    1.96    0.28
 -15   1   1    8.74    0.56
 -13   1   1    0.59    0.14
 -11   1   1    0.91    0.15
  -7   1   1    2.52    0.18
  -5   1   1  396.65   20.06
  -3   1   1    1.18    0.10
  -1   1   1    8.29    0.34
   1   1   1    1.28    0.05
   3   1   1    0.27    0.02
   5   1   1    4.60    0.29
   7   1   1    0.01    0.02
   9   1   1  646.42   36.87
  11   1   1    6.96    0.37
  13   1   1    2.62    0.21
  15   1   1    3.73    0.26
  17   1   1    1.30    0.25
  19   1   1   21.09    1.51
  21   1   1    0.89    0.25
  23   1   1   37.06    2.34
 -22   2   1   13.44    1.16
 -20   2   1    0.16    0.15
 -18   2   1    1.16    0.25
 -16   2   1    5.48    0.47
 -14   2   1   12.71    0.86
 -12   2   1  478.75   26.81
 -10   2   1    0.40    0.10
  -8   2   1    1.66    0.19
  -6   2   1    4.65    0.23
  -4   2   1    3.51    0.18
   0   2   1    0.14    0.03
   2   2   1  290.48    9.42
   4   2   1    2.05    0.07
   6   2   1    2.31    0.14
   8   2   1    3.15    0.18
  10   2   1    5.37    0.28
  12   2   1    5.66    0.33
  14   2   1    0.82    0.13
  16   2   1  303.14   11.83
  18   2   1    7.13    0.43
 -19   3   1    0.11    0.12
 -17   3   1    0.40    0.15
 -15   3   1    0.81    0.18
 -13   3   1    1.78    0.26
 -11   3   1    3.44    0.33
  -9   3   1    4.30    0.37
  -7   3   1    2.45    0.16
  -5   3   1    4.96    0.26
  -3   3   1    1.02    0.10
  -1   3   1   12.01    0.55
   1   3   1   15.91    0.54
   3   3   1   16.22    0.55
   5   3   1    1.83    0.07
   7   3   1    0.03    0.03
   9   3   1    3.65    0.21
  11   3   1    0.69    0.10
  13   3   1    0.01    0.07
  15   3   1    3.90    0.42
  17   3   1    2.42    0.39
  19   3   1    1.71    0.34
  21   3   1    0.30    0.20
 -18   4   1    1.03    0.25
 -16   4   1    4.80    0.46
 -14   4   1    7.42    0.60
 -12   4   1  388.18   21.26
 -10   4   1    0.07    0.09
  -8   4   1    5.46    0.50
  -6   4   1    1.68    0.16
  -4   4   1    1.28    0.14
  -2   4   1    9.85    0.46
   0   4   1    2.47    0.13
   2   4   1  231.76    7.55
   4   4   1    0.57    0.06
   6   4   1    1.90    0.09
   8   4   1    3.33    0.34
  10   4   1    0.53    0.17
  12   4   1    5.91    0.58
  14   4   1    0.98    0.24
  16   4   1  211.75   11.91
  18   4   1    5.77    0.60
  20   4   1    5.71    0.60
  22   4   1    0.20    0.20
 -17   5   1    1.33    0.36
 -15   5   1    3.53    0.47
 -13   5   1    3.51    0.41
 -11   5   1    3.59    0.39
  -9   5   1    7.57    0.58
  -7   5   1    5.91    0.32
  -5   5   1  123.59    4.58
  -3   5   1    0.00    0.04
  -1   5   1    0.16    0.11
   1   5   1    9.79    0.47
   3   5   1   13.69    0.65
   5   5   1    1.46    0.13
   7   5   1    0.31    0.04
   9   5   1  301.65   17.41
  11   5   1    9.17    0.76
  13   5   1    3.22    0.47
  15   5   1    1.68    0.33
  17   5   1    0.79    0.25
  19   5   1    6.84    0.71
 -14   6   1    0.95    0.28
 -12   6   1    2.90    0.44
 -10   6   1    0.18    0.14
  -8   6   1    2.30    0.37
  -6   6   1   16.07    0.78
  -4   6   1   13.21    0.67
  -2   6   1   15.09    0.72
   0   6   1    2.52    0.20
   2   6   1    5.91    0.35
   4   6   1    4.14    0.26
   6   6   1    9.60    0.45
   8   6   1    6.05    0.60
  10   6   1    3.52    0.51
  12   6   1    0.95    0.29
  14   6   1    1.45    0.34
  18   6   1    0.13    0.17
 -13   7   1    0.07    0.26
 -11   7   1    0.55    0.22
  -9   7   1    2.67    0.42
  -7   7   1    0.80    0.16
  -5   7   1   75.48    2.84
  -3   7   1    1.08    0.15
  -1   7   1   11.56    0.59
   1   7   1    2.06    0.21
   3   7   1    0.22    0.08
   5   7   1    6.89    0.38
   7   7   1    0.89    0.09
   9   7   1  181.79   10.57
  11   7   1    1.95    0.42
  13   7   1    2.32    0.45
  15   7   1    1.06    0.33
 -10   8   1    0.32    0.21
  -8   8   1    1.23    0.31
  -6   8   1   10.19    0.57
  -4   8   1    7.31    0.45
  -2   8   1    1.36    0.18
   0   8   1    0.22    0.09
   2   8   1   23.63    1.14
   4   8   1    2.88    0.24
   6   8   1    2.55    0.20
   8   8   1    1.83    0.42
  10   8   1    4.40    0.64
  12   8   1    2.99    0.57
  -7   9   1    3.08    0.31
  -5   9   1    2.76    0.29
  -3   9   1    0.75    0.16
  -1   9   1    9.73    0.56
   1   9   1    7.68    0.46
   3   9   1    8.05    0.48
   5   9   1    2.88    0.22
   7   9   1    0.13    0.22
  -7  -9   2    3.52    0.52
  -5  -9   2    3.68    0.52
  -3  -9   2  138.05    7.86
  -1  -9   2    1.54    0.32
   1  -9   2    3.36    0.46
   3  -9   2    1.77    0.34
   5  -9   2    0.54    0.22
 -12  -8   2    2.53    0.46
 -10  -8   2   22.85    1.69
  -8  -8   2    0.47    0.19
  -6  -8   2    6.44    0.57
  -4  -8   2    2.92    0.41
  -2  -8   2    1.95    0.33
   0  -8   2    3.30    0.44
   2  -8   2    0.85    0.16
   4  -8   2   36.68    1.55
   6  -8   2    1.19    0.26
   8  -8   2    6.67    0.60
  10  -8   2    1.94    0.29
  12  -8   2    4.26    0.46
 -17  -7   2    0.57    0.25
 -15  -7   2    0.21    0.19
 -13  -7   2    0.83    0.25
 -11  -7   2    9.16    0.77
  -9  -7   2    9.78    0.79
  -7  -7   2    2.16    0.34
  -5  -7   2    2.27    0.34
  -3  -7   2   67.95    4.06
  -1  -7   2    1.65    0.26
   1  -7   2    1.61    0.20
   3  -7   2   12.34    0.62
   5  -7   2   11.44    0.60
   7  -7   2    5.05    0.48
   9  -7   2    0.78    0.20
  11  -7   2    1.99    0.27
  13  -7   2    2.53    0.23
  15  -7   2    3.55    0.55
  17  -7   2    1.67    0.40
 -20  -6   2    4.88    0.64
 -18  -6   2    2.69    0.44
 -16  -6   2    1.29    0.30
 -12  -6   2    2.36    0.39
 -10  -6   2  173.43   10.78
  -8  -6   2    0.03    0.09
  -6  -6   2    7.42    0.57
  -4  -6   2    0.13    0.10
  -2  -6   2    1.02    0.19
   0  -6   2   12.04    0.60
   2  -6   2    1.63    0.18
   4  -6   2  259.32   14.58
   6  -6   2    1.83    0.15
   8  -6   2    4.00    0.27
  10  -6   2    2.64    0.23
  12  -6   2    3.26    0.25
  14  -6   2    9.09    0.44
  16  -6   2    0.23    0.19
  18  -6   2   64.34    4.20
 -19  -5   2    0.56    0.24
 -17  -5   2   14.13    1.02
 -15  -5   2    0.17    0.14
 -13  -5   2   18.33    1.25
 -11  -5   2    9.15    0.64
  -9  -5   2    5.90    0.50
  -7  -5   2    3.14    0.32
  -5  -5   2    1.42    0.23
  -3  -5   2  230.23   12.45
  -1  -5   2    0.05    0.05
   1  -5   2    2.14    0.19
   3  -5   2   10.14    0.49
   5  -5   2   10.42    0.42
   7  -5   2   22.52    0.82
   9  -5   2    1.85    0.18
  11  -5   2   25.96    1.14
  13  -5   2    1.53    0.13
  15  -5   2    2.54    0.40
  17  -5   2    2.36    0.42
  19  -5   2   -0.03    0.16
 -18  -4   2    6.21    0.58
 -16  -4   2    3.53    0.39
 -14  -4   2    3.39    0.36
 -12  -4   2    0.45    0.14
 -10  -4   2   77.47    4.76
  -8  -4   2    0.36    0.12
  -6  -4   2    2.22    0.25
  -4  -4   2    5.33    0.30
  -2  -4   2    8.72    0.33
   0  -4   2    9.13    0.35
   2  -4   2    1.78    0.11
   4  -4   2  128.90    4.07
   6  -4   2    0.14    0.04
   8  -4   2    4.85    0.21
  10  -4   2    7.23    0.37
  12  -4   2   13.50    0.61
  14  -4   2    0.77    0.21
  16  -4   2   -0.06    0.11
  18  -4   2   19.34    1.45
  20  -4   2    3.24    0.51
 -19  -3   2    1.47    0.27
 -17  -3   2   43.41    2.61
 -15  -3   2    0.41    0.14
 -13  -3   2   24.27    1.53
 -11  -3   2    1.64    0.23
  -9  -3   2    0.26    0.05
  -7  -3   2    7.68    0.35
  -5  -3   2    9.60    0.43
  -3  -3   2  820.62   26.26
  -1  -3   2    0.21    0.03
   1  -3   2    3.82    0.16
   3  -3   2    0.88    0.07
   5  -3   2    0.90    0.07
   7  -3   2   27.75    0.92
   9  -3   2    1.05    0.10
  11  -3   2  100.77    3.31
  13  -3   2    0.21    0.12
  15  -3   2    5.23    0.48
  17  -3   2    4.95    0.52
  19  -3   2    4.38    0.49
  21  -3   2    1.06    0.29
  23  -3   2    0.09    0.29
 -24  -2   2   27.61    1.75
 -22  -2   2    0.11    0.15
 -18  -2   2    1.56    0.26
 -16  -2   2    0.57    0.16
 -14  -2   2    2.15    0.26
  -6  -2   2    8.50    0.49
  -4  -2   2    3.41    0.22
  -2  -2   2    3.02    0.15
   0  -2   2    3.96    0.16
   2  -2   2    2.29    0.12
   4  -2   2  260.61    8.17
   6  -2   2    1.54    0.07
   8  -2   2    6.09    0.23
  10  -2   2    1.91    0.22
  12  -2   2    1.63    0.24
  14  -2   2    6.58    0.55
  16  -2   2    0.02    0.09
  18  -2   2   55.95    3.53
  20  -2   2    0.80    0.25
  22  -2   2    0.22    0.17
 -23  -1   2    0.87    0.26
 -21  -1   2    1.16    0.27
 -19  -1   2    0.58    0.18
  -5  -1   2    3.22    0.25
  -3  -1   2  404.08   23.00
  -1  -1   2    0.04    0.02
   1  -1   2    0.62    0.05
   3  -1   2    0.67    0.06
   5  -1   2    1.72    0.09
   7  -1   2    6.19    0.22
   9  -1   2    0.09    0.06
  11  -1   2   37.17    2.13
  13  -1   2    0.22    0.10
  15  -1   2    2.89    0.32
  17  -1   2    1.31    0.26
  19  -1   2    1.83    0.34
  21  -1   2    0.19    0.16
  23  -1   2    0.32    0.21
 -22   0   2    0.23    0.18
 -20   0   2    8.81    0.73
 -18   0   2    3.05    0.33
 -16   0   2    0.98    0.19
 -14   0   2    3.78    0.37
  -2   0   2    1.84    0.15
   0   0   2   11.83    0.49
   2   0   2    4.08    0.27
   4   0   2  662.70   19.72
   6   0   2    2.69    0.10
   8   0   2   15.12    0.83
  10   0   2    0.81    0.13
  12   0   2    1.24    0.20
  14   0   2   18.15    1.09
  16   0   2    0.21    0.12
  18   0   2  206.37   12.38
  20   0   2    6.65    0.66
  22   0   2    1.40    0.32
  24   0   2    3.44    0.53
 -19   1   2    0.84    0.20
 -17   1   2   13.03    0.90
 -15   1   2    0.10    0.08
 -13   1   2    4.52    0.38
 -11   1   2    1.12    0.15
  -9   1   2    0.65    0.11
  -7   1   2    1.74    0.15
  -5   1   2    3.45    0.23
  -3   1   2  423.30   16.22
  -1   1   2    0.07    0.02
   1   1   2    0.65    0.04
   3   1   2    0.69    0.06
   5   1   2    1.77    0.08
   7   1   2    6.20    0.29
   9   1   2    0.07    0.04
  11   1   2   33.80    1.49
  13   1   2    0.33    0.08
  15   1   2    2.79    0.30
  17   1   2    2.09    0.32
  19   1   2    1.76    0.31
  21   1   2    0.35    0.18
  23   1   2    0.29    0.22
 -18   2   2    1.17    0.24
 -16   2   2    0.47    0.15
 -14   2   2    2.05    0.25
 -12   2   2    2.91    0.29
 -10   2   2  150.96    9.32
  -8   2   2    1.20    0.13
  -6   2   2    8.71    0.35
  -4   2   2    3.40    0.17
  -2   2   2    3.00    0.14
   0   2   2    4.00    0.17
   2   2   2    2.39    0.11
   4   2   2  258.46    7.06
   6   2   2    1.48    0.06
   8   2   2    6.48    0.31
  10   2   2    2.15    0.15
  12   2   2    1.66    0.16
  14   2   2    7.40    0.39
  16   2   2    0.09    0.08
  18   2   2   57.75    2.48
 -17   3   2   44.02    2.61
 -15   3   2    0.40    0.14
 -13   3   2   24.34    1.52
 -11   3   2    1.38    0.21
  -9   3   2    0.40    0.12
  -7   3   2    7.59    0.36
  -5   3   2    9.46    0.45
  -3   3   2  837.72   45.72
  -1   3   2    0.22    0.04
   1   3   2    3.86    0.17
   3   3   2    0.71    0.06
   5   3   2    0.80    0.05
   7   3   2   28.05    0.79
   9   3   2    1.11    0.12
  11   3   2  106.36    4.11
  13   3   2    0.24    0.08
  15   3   2    5.57    0.50
  17   3   2    5.24    0.53
  19   3   2    4.35    0.49
  21   3   2    0.59    0.23
 -14   4   2    2.99    0.35
 -12   4   2    0.62    0.17
 -10   4   2   76.97    4.76
  -8   4   2    0.15    0.10
  -6   4   2    2.44    0.18
  -4   4   2    5.38    0.30
  -2   4   2    8.30    0.34
   0   4   2    9.50    0.36
   2   4   2    1.87    0.10
   4   4   2  129.10    4.06
   6   4   2    0.17    0.03
   8   4   2    4.64    0.44
  10   4   2    7.86    0.62
  12   4   2   13.10    0.97
  14   4   2    0.93    0.22
  16   4   2    0.05    0.13
  18   4   2   18.92    1.45
  20   4   2    3.59    0.54
  22   4   2    0.76    0.41
 -13   5   2   18.49    1.25
 -11   5   2    8.36    0.64
  -9   5   2    5.38    0.50
  -7   5   2    3.32    0.35
  -5   5   2    1.59    0.16
  -3   5   2  223.13    7.19
  -1   5   2    0.00    0.03
   1   5   2    1.92    0.17
   3   5   2   10.46    0.50
   5   5   2   10.66    0.52
   7   5   2   22.63    0.99
   9   5   2    2.11    0.36
  11   5   2   26.00    1.72
  13   5   2    1.48    0.32
  15   5   2    2.47    0.41
  17   5   2    1.99    0.40
  19   5   2    0.14    0.17
 -10   6   2  173.29   10.80
  -8   6   2    0.11    0.12
  -6   6   2    7.27    0.40
  -4   6   2    0.10    0.05
  -2   6   2    0.99    0.14
   0   6   2   12.31    0.60
   2   6   2    1.94    0.17
   4   6   2  274.80   10.30
   6   6   2    1.68    0.15
   8   6   2    3.94    0.45
  10   6   2    2.34    0.40
  12   6   2    3.13    0.49
  14   6   2    9.35    0.82
  16   6   2    0.30    0.21
  18   6   2   66.60    4.24
  -9   7   2    9.29    0.80
  -7   7   2    2.23    0.37
  -5   7   2    1.99    0.23
  -3   7   2   70.51    2.88
  -1   7   2    1.38    0.17
   1   7   2    1.43    0.17
   3   7   2   12.03    0.61
   5   7   2   11.00    0.59
   7   7   2    5.34    0.30
   9   7   2    1.16    0.32
  11   7   2    2.28    0.44
  13   7   2    2.94    0.51
  15   7   2    3.69    0.59
  -6   8   2    6.19    0.38
  -4   8   2    3.00    0.26
  -2   8   2    2.08    0.23
   0   8   2    3.40    0.29
   2   8   2    1.23    0.16
   4   8   2   36.88    1.55
   6   8   2    1.15    0.14
   8   8   2    6.58    0.74
  10   8   2    1.63    0.41
  12   8   2    4.43    0.66
  -5   9   2    3.89    0.42
  -3   9   2  139.48    5.55
  -1   9   2    1.70    0.22
   1   9   2    3.15    0.28
   3   9   2    1.75    0.20
   5   9   2    0.64    0.12
   7   9   2    7.16    0.77
  -7  -9   3    3.73    0.58
  -5  -9   3    8.33    0.75
  -3  -9   3    2.21    0.38
  -1  -9   3    2.18    0.37
   1  -9   3    1.92    0.34
   3  -9   3    5.79    0.59
   5  -9   3    4.11    0.53
 -12  -8   3    5.59    0.58
 -10  -8   3    5.43    0.56
  -6  -8   3   -0.02    0.12
  -4  -8   3    0.00    0.11
  -2  -8   3    7.93    0.66
   0  -8   3   11.53    0.85
   2  -8   3    0.69    0.15
   4  -8   3    1.13    0.26
   6  -8   3  102.47    6.13
   8  -8   3    4.95    0.51
  10  -8   3    1.93    0.31
 -15  -7   3   98.33    5.76
 -13  -7   3   -0.05    0.13
 -11  -7   3    3.23    0.48
  -9  -7   3    1.54    0.30
  -7  -7   3   -0.01    0.11
  -5  -7   3    6.71    0.57
  -3  -7   3    1.57    0.28
  -1  -7   3   54.69    3.81
   1  -7   3    0.27    0.10
   3  -7   3    5.37    0.34
   5  -7   3    3.05    0.40
   7  -7   3    0.94    0.22
   9  -7   3    4.31    0.45
  11  -7   3    0.44    0.14
  13  -7   3  109.34    6.08
  15  -7   3    2.69    0.47
  17  -7   3    4.91    0.85
 -18  -6   3    0.88    0.29
 -16  -6   3    1.06    0.28
 -14  -6   3    3.27    0.46
 -12  -6   3    3.60    0.47
 -10  -6   3    3.69    0.41
  -8  -6   3    4.56    0.46
  -6  -6   3    0.43    0.16
  -4  -6   3   11.79    0.87
  -2  -6   3   15.45    1.00
   0  -6   3   15.93    0.75
   2  -6   3    3.98    0.26
   4  -6   3    0.19    0.08
   6  -6   3    4.42    0.42
   8  -6   3    2.00    0.21
  10  -6   3    0.09    0.07
  12  -6   3    6.94    0.41
  14  -6   3    5.02    0.31
  16  -6   3    4.41    0.59
  18  -6   3    0.68    0.28
 -21  -5   3    2.18    0.41
 -19  -5   3    4.47    0.55
 -17  -5   3   10.19    0.81
 -15  -5   3  159.10    8.90
 -13  -5   3    0.19    0.13
 -11  -5   3    1.67    0.28
  -9  -5   3    9.40    0.72
  -7  -5   3    7.95    0.63
  -3  -5   3    0.17    0.10
  -1  -5   3  102.10    4.39
   1  -5   3    1.37    0.16
   3  -5   3    0.76    0.09
   5  -5   3    3.48    0.18
   7  -5   3    8.24    0.43
   9  -5   3    7.94    0.43
  11  -5   3    0.08    0.06
  13  -5   3  207.52    8.02
  15  -5   3    3.23    0.45
  17  -5   3    4.38    0.57
  19  -5   3    1.90    0.40
 -20  -4   3    0.94    0.26
 -16  -4   3    0.06    0.12
 -14  -4   3    0.70    0.18
 -12  -4   3    2.48    0.31
 -10  -4   3    1.73    0.24
  -8  -4   3  173.43    9.25
  -6  -4   3    0.28    0.11
  -4  -4   3   17.07    1.10
  -2  -4   3    5.24    0.22
   0  -4   3    1.29    0.09
   2  -4   3    7.60    0.29
   4  -4   3    2.04    0.13
   6  -4   3  478.59   15.46
   8  -4   3    1.49    0.15
  10  -4   3    1.71    0.15
  12  -4   3    5.36    0.29
  14  -4   3    2.57    0.38
  16  -4   3   22.72    1.58
  18  -4   3    0.34    0.18
  20  -4   3   30.92    1.98
 -19  -3   3    0.10    0.13
 -17  -3   3    0.15    0.12
 -15  -3   3    2.15    0.31
 -13  -3   3    0.12    0.11
 -11  -3   3    0.26    0.11
  -9  -3   3    8.80    0.43
  -7  -3   3    7.52    0.49
  -5  -3   3    8.32    0.37
  -3  -3   3    2.85    0.13
  -1  -3   3    4.42    0.19
   1  -3   3    1.79    0.12
   3  -3   3    7.42    0.28
   5  -3   3    5.25    0.21
   7  -3   3    3.85    0.16
   9  -3   3    0.93    0.10
  11  -3   3    0.91    0.09
  13  -3   3    0.21    0.11
  15  -3   3   -0.08    0.08
  17  -3   3    0.82    0.22
  19  -3   3    1.20    0.29
  21  -3   3    2.42    0.43
 -18  -2   3    4.51    0.41
 -10  -2   3    5.90    0.41
  -8  -2   3  220.49   12.33
  -6  -2   3    0.21    0.06
  -4  -2   3    3.50    0.23
  -2  -2   3    5.05    0.24
   0  -2   3    6.88    0.31
   2  -2   3    1.77    0.10
   4  -2   3    1.31    0.07
   6  -2   3  594.98   18.91
   8  -2   3    4.84    0.20
  10  -2   3    0.89    0.06
  12  -2   3    2.75    0.29
  14  -2   3    1.63    0.27
  16  -2   3   20.65    1.39
  18  -2   3    0.95    0.24
  20  -2   3   43.27    2.49
  22  -2   3    0.70    0.25
 -19  -1   3    5.63    0.49
  -7  -1   3    3.92    0.31
  -5  -1   3    1.34    0.14
  -3  -1   3    2.16    0.19
  -1  -1   3  321.30   13.11
   1  -1   3    0.10    0.03
   5  -1   3    7.50    0.34
   7  -1   3    5.96    0.22
   9  -1   3    7.87    0.30
  11  -1   3    1.69    0.23
  13  -1   3  427.27   23.53
  15  -1   3    6.36    0.52
  17  -1   3    9.24    0.73
  19  -1   3    0.64    0.20
  21  -1   3    0.28    0.18
  23  -1   3   13.45    1.06
 -18   0   3   -0.02    0.08
 -16   0   3   -0.01    0.07
 -14   0   3    0.07    0.07
  -6   0   3    0.02    0.05
  -4   0   3    0.22    0.07
  -2   0   3    0.02    0.02
   0   0   3    0.03    0.02
   2   0   3    0.05    0.02
   4   0   3    0.04    0.02
   8   0   3    0.02    0.01
  10   0   3   -0.04    0.04
  12   0   3    0.04    0.06
  14   0   3    0.02    0.07
  16   0   3    0.08    0.08
  18   0   3    0.02    0.10
  20   0   3    0.01    0.12
  22   0   3    0.00    0.14
  24   0   3   -0.07    0.17
 -17   1   3   12.51    0.81
 -15   1   3  367.02   20.22
 -13   1   3    1.99    0.20
  -9   1   3    2.54    0.21
  -7   1   3    3.78    0.25
  -5   1   3    1.25    0.09
  -3   1   3    2.27    0.18
  -1   1   3  313.96   10.68
   1   1   3    0.12    0.02
   5   1   3    7.63    0.24
   7   1   3    5.99    0.19
   9   1   3    7.75    0.40
  11   1   3    1.71    0.16
  13   1   3  434.34   23.51
  15   1   3    5.99    0.50
  17   1   3    9.58    0.71
  19   1   3    0.77    0.21
  21   1   3    0.41    0.19
  23   1   3   13.63    1.05
 -14   2   3    3.43    0.32
 -12   2   3    7.98    0.49
 -10   2   3    5.65    0.38
  -8   2   3  238.29   12.33
  -6   2   3    0.14    0.04
  -4   2   3    3.38    0.15
  -2   2   3    5.34    0.26
   0   2   3    6.71    0.25
   2   2   3    1.72    0.08
   4   2   3    1.27    0.08
   6   2   3  596.71   16.38
   8   2   3    4.67    0.26
  10   2   3    0.81    0.10
  12   2   3    2.84    0.20
  14   2   3    1.27    0.16
  16   2   3   19.95    1.40
 -13   3   3    0.14    0.09
 -11   3   3    0.47    0.12
  -9   3   3    8.85    0.61
  -7   3   3    7.49    0.37
  -5   3   3    8.36    0.32
  -3   3   3    2.93    0.15
  -1   3   3    4.79    0.20
   1   3   3    1.73    0.10
   3   3   3    7.58    0.28
   5   3   3    5.24    0.18
   7   3   3    3.74    0.14
   9   3   3    1.10    0.12
  11   3   3    0.81    0.11
  13   3   3    0.09    0.06
  15   3   3    0.01    0.11
  17   3   3    0.84    0.25
  19   3   3    0.98    0.28
 -12   4   3    2.60    0.36
 -10   4   3    1.90    0.26
  -8   4   3  176.55    9.24
  -6   4   3    0.36    0.07
  -4   4   3   17.38    0.65
  -2   4   3    5.43    0.24
   0   4   3    1.20    0.10
   2   4   3    7.96    0.30
   4   4   3    2.24    0.12
   6   4   3  482.74   15.46
   8   4   3    1.68    0.09
  10   4   3    1.68    0.29
  12   4   3    5.82    0.52
  14   4   3    2.54    0.39
  16   4   3   23.08    1.60
  18   4   3    0.51    0.22
  20   4   3   32.61    2.02
  -9   5   3    9.15    0.71
  -7   5   3    8.22    0.64
  -5   5   3    3.03    0.17
  -3   5   3    0.19    0.06
  -1   5   3  101.95    3.58
   1   5   3    1.58    0.13
   3   5   3    0.72    0.11
   5   5   3    3.66    0.23
   7   5   3    8.34    0.40
   9   5   3    7.92    0.68
  11   5   3    0.11    0.13
  13   5   3  197.11   11.48
  15   5   3    3.40    0.49
  17   5   3    3.71    0.55
  19   5   3    2.00    0.42
  -8   6   3    4.91    0.34
  -6   6   3    0.48    0.09
  -4   6   3   12.52    0.51
  -2   6   3   15.69    0.72
   0   6   3   15.16    0.74
   2   6   3    4.33    0.27
   4   6   3    0.16    0.06
   6   6   3    4.10    0.26
   8   6   3    1.91    0.14
  10   6   3    0.23    0.16
  12   6   3    7.57    0.72
  14   6   3    5.40    0.61
  16   6   3    3.84    0.57
  18   6   3    1.04    0.34
 -13   7   3    0.09    0.15
 -11   7   3    3.82    0.53
  -5   7   3    6.23    0.39
  -3   7   3    1.57    0.19
  -1   7   3   60.15    2.72
   1   7   3    0.21    0.08
   3   7   3    5.15    0.32
   5   7   3    3.27    0.24
   7   7   3    0.72    0.11
   9   7   3    4.17    0.60
  11   7   3    0.43    0.23
  13   7   3  111.03    6.40
  15   7   3    3.36    0.55
  -6   8   3    0.01    0.10
  -4   8   3   -0.04    0.08
  -2   8   3    8.12    0.46
   0   8   3   11.72    0.60
   2   8   3    0.71    0.13
   4   8   3    0.93    0.14
   6   8   3  100.30    4.31
   8   8   3    5.23    0.71
  10   8   3    2.04    0.48
  12   8   3    2.12    0.49
  -5   9   3    7.95    0.66
  -3   9   3    2.12    0.31
  -1   9   3    2.39    0.32
   1   9   3    2.57    0.26
   3   9   3    5.76    0.38
   5   9   3    3.75    0.30
   7   9   3    2.30    0.49
  -5  -9   4    0.68    0.24
  -3  -9   4    6.82    0.66
  -1  -9   4    2.78    0.42
   3  -9   4    0.43    0.21
 -12  -8   4    1.52    0.53
 -10  -8   4    2.68    0.43
  -8  -8   4    1.02    0.28
  -6  -8   4   53.46    3.21
  -4  -8   4    0.27    0.16
  -2  -8   4    0.86    0.24
   0  -8   4    2.97    0.40
   2  -8   4    3.85    0.43
   4  -8   4   12.58    0.98
   6  -8   4    1.34    0.29
   8  -8   4    9.25    0.77
  10  -8   4    1.40    0.38
 -15  -7   4    1.02    0.30
 -13  -7   4   16.87    1.29
 -11  -7   4    0.21    0.17
  -9  -7   4    1.71    0.32
  -7  -7   4    2.99    0.42
  -5  -7   4    5.66    0.53
  -3  -7   4    7.64    0.63
  -1  -7   4    3.71    0.38
   1  -7   4   40.76    2.26
   3  -7   4    0.00    0.07
   5  -7   4    3.89    0.49
   7  -7   4    8.57    0.71
   9  -7   4   15.22    1.06
  11  -7   4    0.64    0.17
  15  -7   4    6.89    0.44
 -18  -6   4    0.41    0.22
 -16  -6   4   10.95    0.90
 -14  -6   4    1.65    0.34
 -12  -6   4    1.13    0.26
 -10  -6   4    7.06    0.61
  -8  -6   4    8.64    0.70
  -6  -6   4  378.60   20.80
  -4  -6   4    0.18    0.11
  -2  -6   4    3.96    0.36
   0  -6   4    1.50    0.23
   2  -6   4    1.22    0.24
   4  -6   4   16.87    0.74
   6  -6   4    0.09    0.10
   8  -6   4   30.25    1.36
  10  -6   4    0.02    0.07
  12  -6   4    1.59    0.18
  14  -6   4    3.99    0.27
  16  -6   4    4.22    0.57
  18  -6   4    1.21    0.34
 -21  -5   4    2.70    0.45
 -19  -5   4    0.22    0.18
 -17  -5   4    2.60    0.43
 -15  -5   4    3.39    0.46
 -13  -5   4   46.90    3.12
 -11  -5   4    1.25    0.25
  -9  -5   4    9.90    0.69
  -7  -5   4    3.75    0.36
  -5  -5   4    2.48    0.29
  -3  -5   4    3.34    0.33
  -1  -5   4    2.53    0.21
   1  -5   4  115.95    4.44
   3  -5   4    0.88    0.09
   5  -5   4   10.83    0.43
   7  -5   4    4.88    0.30
   9  -5   4    5.28    0.31
  11  -5   4   10.51    0.52
  13  -5   4    0.39    0.09
  15  -5   4   46.32    3.02
  17  -5   4   -0.01    0.15
  19  -5   4    0.03    0.18
 -20  -4   4    1.96    0.37
 -18  -4   4    0.20    0.15
 -16  -4   4    0.50    0.18
 -14  -4   4    6.06    0.52
 -12  -4   4    5.95    0.53
 -10  -4   4    1.83    0.28
  -8  -4   4    3.37    0.34
  -6  -4   4  166.58    9.07
  -4  -4   4    0.28    0.10
  -2  -4   4    0.44    0.05
   0  -4   4    9.69    0.38
   2  -4   4   12.37    0.46
   4  -4   4    8.75    0.33
   6  -4   4    0.81    0.08
   8  -4   4   10.01    0.47
  10  -4   4    2.02    0.18
  12  -4   4    4.21    0.25
  14  -4   4    2.30    0.35
  16  -4   4    5.39    0.53
  18  -4   4    0.63    0.22
  20  -4   4    0.48    0.23
 -19  -3   4    1.73    0.30
 -17  -3   4    1.75    0.31
 -15  -3   4    4.42    0.47
  -9  -3   4   11.78    0.67
  -7  -3   4    1.29    0.13
  -5  -3   4    2.51    0.20
  -3  -3   4   15.64    0.67
  -1  -3   4    6.21    0.30
   1  -3   4  507.54   16.12
   3  -3   4    0.52    0.06
   5  -3   4   11.45    0.40
   7  -3   4    3.89    0.23
   9  -3   4    2.58    0.18
  11  -3   4   16.83    0.70
  13  -3   4    0.55    0.06
  15  -3   4  189.84   11.29
  17  -3   4    4.48    0.49
  19  -3   4    0.84    0.24
  21  -3   4    4.21    0.58
 -20  -2   4   10.98    0.82
 -16  -2   4   11.78    0.86
 -14  -2   4    2.93    0.31
 -12  -2   4    2.17    0.28
 -10  -2   4    2.76    0.26
  -8  -2   4    3.63    0.30
  -6  -2   4  317.97   17.87
  -4  -2   4    1.19    0.10
  -2  -2   4    0.77    0.08
   0  -2   4    7.28    0.33
   2  -2   4    6.31    0.31
   4  -2   4   14.00    0.61
   6  -2   4    2.59    0.12
   8  -2   4   47.81    2.03
  10  -2   4    0.48    0.07
  12  -2   4    4.42    0.17
  14  -2   4    2.80    0.33
  16  -2   4    0.43    0.15
  18  -2   4    0.17    0.14
  20  -2   4    0.39    0.19
  22  -2   4   38.85    2.51
 -13  -1   4   85.49    5.31
 -11  -1   4    0.68    0.15
  -9  -1   4    2.03    0.22
  -7  -1   4    0.81    0.14
  -5  -1   4    2.38    0.21
  -3  -1   4    6.19    0.29
  -1  -1   4    1.99    0.12
   1  -1   4  226.77    8.73
   3  -1   4    0.01    0.02
   5  -1   4    3.82    0.19
   7  -1   4    1.94    0.16
   9  -1   4    2.87    0.13
  11  -1   4    3.77    0.14
  13  -1   4    0.08    0.08
  15  -1   4   60.36    3.84
  17  -1   4    1.74    0.30
  19  -1   4    0.24    0.15
  21  -1   4    0.85    0.26
  23  -1   4    0.25    0.20
 -14   0   4    3.09    0.27
 -10   0   4    8.12    0.65
  -8   0   4   18.04    1.15
  -6   0   4  880.62   53.40
  -4   0   4    3.17    0.28
  -2   0   4    1.73    0.10
   0   0   4    5.63    0.25
   2   0   4    8.85    0.50
   4   0   4   32.95    1.31
   6   0   4    2.76    0.16
   8   0   4  171.17    5.50
  10   0   4    0.27    0.03
  12   0   4   14.11    0.90
  14   0   4    9.97    0.73
  16   0   4    7.01    0.58
  18   0   4    1.53    0.28
  20   0   4    0.13    0.14
  22   0   4  157.54    9.07
  24   0   4    7.09    0.74
 -13   1   4   85.25    5.23
 -11   1   4    0.64    0.11
  -9   1   4    1.80    0.15
  -7   1   4    0.75    0.07
  -5   1   4    2.13    0.23
  -3   1   4    6.44    0.30
  -1   1   4    2.05    0.12
   1   1   4  231.94   12.37
   3   1   4    0.04    0.02
   5   1   4    3.55    0.15
   7   1   4    1.77    0.08
   9   1   4    3.06    0.11
  11   1   4    3.51    0.31
  13   1   4    0.08    0.07
  15   1   4   60.98    3.82
  17   1   4    1.93    0.30
  19   1   4    0.40    0.17
  21   1   4    1.13    0.28
  23   1   4    0.47    0.23
 -10   2   4    2.54    0.22
  -8   2   4    3.67    0.21
  -6   2   4  310.62   10.33
  -4   2   4    1.18    0.07
  -2   2   4    0.76    0.06
   0   2   4    7.23    0.27
   2   2   4    6.63    0.26
   4   2   4   13.60    0.49
   6   2   4    2.60    0.12
   8   2   4   49.31    1.65
  10   2   4    0.53    0.14
  12   2   4    4.83    0.43
  14   2   4    3.32    0.37
  16   2   4    0.63    0.17
  18   2   4    0.21    0.13
  -9   3   4   11.69    0.69
  -7   3   4    1.41    0.14
  -5   3   4    2.85    0.15
  -3   3   4   16.23    0.70
  -1   3   4    6.36    0.25
   1   3   4  506.68   16.16
   3   3   4    0.50    0.06
   5   3   4   11.58    0.41
   7   3   4    3.84    0.18
   9   3   4    2.51    0.10
  11   3   4   16.67    0.73
  13   3   4    0.59    0.11
  15   3   4  195.84   11.35
  17   3   4    4.45    0.51
  19   3   4    1.09    0.29
  -8   4   4    2.60    0.38
  -6   4   4  158.01    5.23
  -4   4   4    0.17    0.05
  -2   4   4    0.42    0.07
   0   4   4    9.88    0.39
   2   4   4   12.28    0.47
   4   4   4    8.85    0.33
   6   4   4    1.05    0.09
   8   4   4    9.53    0.37
  10   4   4    1.90    0.32
  12   4   4    4.09    0.45
  14   4   4    2.76    0.42
  16   4   4    5.21    0.56
  18   4   4    0.36    0.20
  20   4   4    0.30    0.22
 -11   5   4    1.21    0.27
  -9   5   4    9.60    0.72
  -7   5   4    3.75    0.39
  -5   5   4    2.46    0.17
  -3   5   4    3.38    0.20
  -1   5   4    2.66    0.16
   1   5   4  113.95    3.61
   3   5   4    0.88    0.12
   5   5   4   10.72    0.53
   7   5   4    4.79    0.28
   9   5   4    5.20    0.28
  11   5   4   10.42    0.83
  13   5   4    0.67    0.23
  15   5   4   48.51    3.09
  17   5   4    0.11    0.17
  19   5   4   -0.02    0.17
 -14   6   4    2.40    0.41
 -12   6   4    1.22    0.29
 -10   6   4    6.34    0.62
  -8   6   4    8.47    0.71
  -6   6   4  364.53   20.81
  -4   6   4    0.13    0.06
  -2   6   4    3.68    0.27
   0   6   4    1.47    0.17
   2   6   4    1.21    0.15
   4   6   4   15.55    0.73
   6   6   4    0.12    0.06
   8   6   4   30.69    1.34
  10   6   4    0.04    0.12
  12   6   4    1.79    0.35
  14   6   4    4.02    0.58
  16   6   4    3.91    0.61
 -15   7   4    1.09    0.32
 -13   7   4   17.27    1.32
 -11   7   4    0.49    0.22
  -5   7   4    5.91    0.51
  -3   7   4    7.90    0.61
  -1   7   4    3.91    0.28
   1   7   4   39.64    1.61
   3   7   4   -0.01    0.06
   5   7   4    3.94    0.27
   7   7   4    8.92    0.46
   9   7   4   15.25    1.19
  11   7   4    0.23    0.21
  13   7   4    0.03    0.18
  15   7   4    6.60    0.78
  -4   8   4    0.11    0.12
  -2   8   4    0.70    0.18
   0   8   4    3.43    0.34
   2   8   4    3.95    0.31
   4   8   4   12.29    0.65
   6   8   4    1.44    0.17
   8   8   4    8.88    0.48
  10   8   4    1.68    0.43
  12   8   4    4.29    0.74
  -5   9   4    0.84    0.21
  -3   9   4    7.21    0.60
  -1   9   4    2.23    0.34
   5   9   4    1.40    0.39
   7   9   4    4.03    0.65
  -5  -9   5    7.39    0.80
  -3  -9   5    5.25    0.56
  -1  -9   5    4.10    0.51
 -10  -8   5    4.70    0.55
  -8  -8   5    3.01    0.44
  -6  -8   5    0.88    0.25
  -2  -8   5    0.89    0.24
   0  -8   5    0.11    0.14
   4  -8   5    5.68    0.56
   6  -8   5    5.47    0.60
   8  -8   5    1.17    0.27
 -15  -7   5    3.24    0.70
 -13  -7   5    1.01    0.28
 -11  -7   5   40.97    2.32
  -9  -7   5    0.18    0.15
  -7  -7   5   12.74    0.96
  -5  -7   5    4.10    0.43
  -3  -7   5    0.09    0.12
  -1  -7   5    5.37    0.48
   1  -7   5    3.07    0.34
   3  -7   5  172.35    9.86
   5  -7   5    0.09    0.14
   7  -7   5    1.85    0.32
   9  -7   5    2.41    0.34
  11  -7   5    1.79    0.28
  13  -7   5   14.03    1.00
 -18  -6   5    1.55    0.40
 -16  -6   5    0.40    0.20
 -14  -6   5    0.56    0.22
 -12  -6   5    8.06    0.71
 -10  -6   5    5.14    0.53
  -8  -6   5    8.84    0.72
  -6  -6   5    4.21    0.41
  -4  -6   5    3.75    0.38
  -2  -6   5    2.57    0.29
   0  -6   5    8.42    0.61
   2  -6   5    5.14    0.32
   4  -6   5    3.99    0.42
   6  -6   5    0.94    0.22
   8  -6   5    1.78    0.20
  10  -6   5    0.07    0.08
  12  -6   5    0.03    0.14
  14  -6   5    1.70    0.18
  16  -6   5    2.62    0.43
 -19  -5   5    0.70    0.26
 -17  -5   5    4.66    0.50
 -15  -5   5    7.43    0.66
 -13  -5   5    7.07    0.58
 -11  -5   5   55.98    3.10
  -9  -5   5    0.03    0.08
  -7  -5   5    1.84    0.27
  -5  -5   5    9.85    0.69
  -3  -5   5   11.32    0.77
  -1  -5   5    0.58    0.14
   1  -5   5    2.64    0.35
   3  -5   5  288.44    9.45
   5  -5   5    2.94    0.22
   7  -5   5    0.87    0.13
   9  -5   5    1.64    0.18
  11  -5   5    2.55    0.36
  13  -5   5   12.40    0.62
  15  -5   5    0.48    0.07
  17  -5   5   31.86    2.01
 -22  -4   5    3.85    0.53
 -20  -4   5    6.83    0.68
 -18  -4   5  137.81    8.13
 -16  -4   5    0.94    0.24
 -14  -4   5    2.25    0.37
 -12  -4   5    3.47    0.38
 -10  -4   5    2.26    0.31
  -8  -4   5    3.37    0.34
  -6  -4   5    2.11    0.29
  -4  -4   5  148.53    8.80
  -2  -4   5    0.87    0.10
   0  -4   5   10.52    0.39
   2  -4   5    7.86    0.31
   4  -4   5    3.36    0.17
   6  -4   5    7.81    0.41
   8  -4   5    3.09    0.22
  10  -4   5  296.92   11.48
  12  -4   5    2.67    0.20
  14  -4   5    7.87    0.40
  16  -4   5    1.16    0.27
  18  -4   5    0.22    0.18
  20  -4   5   13.69    1.08
 -21  -3   5    0.31    0.19
 -19  -3   5    0.40    0.18
  -9  -3   5    0.03    0.06
  -7  -3   5    5.01    0.38
  -5  -3   5    8.78    0.55
  -3  -3   5    8.91    0.43
  -1  -3   5    1.96    0.14
   1  -3   5    0.35    0.06
   3  -3   5    3.00    0.14
   5  -3   5    1.14    0.08
   7  -3   5    0.26    0.06
   9  -3   5    5.09    0.28
  11  -3   5    4.45    0.26
  13  -3   5    2.64    0.18
  15  -3   5    0.89    0.21
  17  -3   5    1.11    0.26
  19  -3   5    0.19    0.18
  21  -3   5    0.46    0.22
 -14  -2   5    1.82    0.28
 -12  -2   5    4.52    0.40
 -10  -2   5    7.01    0.50
  -4  -2   5  200.82   11.91
  -2  -2   5    0.03    0.03
   2  -2   5    7.42    0.35
   4  -2   5   11.11    0.49
   6  -2   5    9.71    0.71
   8  -2   5    1.37    0.13
  10  -2   5  397.65   15.46
  12  -2   5    3.26    0.19
  14  -2   5    8.83    0.68
  16  -2   5    1.83    0.30
  18  -2   5    1.28    0.28
  20  -2   5   12.86    0.96
  22  -2   5    0.54    0.24
 -19  -1   5    0.69    0.23
 -17  -1   5    2.14    0.36
 -15  -1   5    5.07    0.45
 -13  -1   5    3.92    0.36
 -11  -1   5  170.84    9.37
  -9  -1   5    0.20    0.10
  -7  -1   5   17.58    1.09
  -5  -1   5    6.74    0.47
  -3  -1   5    4.20    0.21
  -1  -1   5    3.93    0.19
   1  -1   5    4.50    0.25
   3  -1   5  616.41   23.62
   5  -1   5    0.69    0.08
   7  -1   5    0.38    0.06
   9  -1   5    9.45    0.43
  11  -1   5    5.14    0.26
  13  -1   5   29.59    1.83
  15  -1   5    0.95    0.20
  17  -1   5   56.60    3.24
  19  -1   5    1.25    0.27
  21  -1   5    9.36    0.77
 -24   0   5    0.02    0.22
 -22   0   5    0.00    0.17
 -20   0   5    0.09    0.15
 -18   0   5   -0.02    0.12
 -16   0   5   -0.05    0.11
 -14   0   5   -0.03    0.09
 -12   0   5    0.00    0.09
 -10   0   5    0.07    0.08
  -8   0   5    0.06    0.08
  -6   0   5    0.02    0.06
  -4   0   5    0.09    0.04
  -2   0   5   -0.03    0.03
   0   0   5    0.06    0.03
   2   0   5    0.00    0.02
   4   0   5    0.05    0.03
   6   0   5    0.02    0.03
   8   0   5   -0.02    0.02
  10   0   5    0.06    0.03
  12   0   5    0.02    0.06
  14   0   5   -0.06    0.06
  16   0   5    0.03    0.08
  18   0   5    0.04    0.11
  20   0   5    0.01    0.12
  22   0   5    0.05    0.16
 -23   1   5    2.20    0.46
 -21   1   5    6.39    0.67
 -19   1   5    0.37    0.20
 -17   1   5    1.95    0.36
 -15   1   5    4.97    0.48
 -13   1   5    4.27    0.41
 -11   1   5  174.75    9.44
  -9   1   5    0.38    0.14
  -7   1   5   16.44    1.12
  -5   1   5    6.73    0.33
  -3   1   5    4.23    0.22
  -1   1   5    3.83    0.29
   1   1   5    4.07    0.33
   3   1   5  604.28   23.65
   5   1   5    0.79    0.09
   7   1   5    0.35    0.06
   9   1   5    9.40    0.42
  11   1   5    5.65    0.42
  13   1   5   28.53    1.81
  15   1   5    0.82    0.18
  17   1   5   60.06    3.23
  19   1   5    1.59    0.30
  21   1   5    8.65    0.75
  23   1   5    4.22    0.61
 -22   2   5    5.20    0.70
 -14   2   5    1.64    0.32
 -12   2   5    4.39    0.46
 -10   2   5    6.32    0.55
  -8   2   5    2.99    0.31
  -6   2   5    0.19    0.10
  -4   2   5  198.17    8.44
  -2   2   5    0.04    0.02
   2   2   5    7.17    0.28
   4   2   5   10.69    0.40
   6   2   5   10.22    0.40
   8   2   5    1.53    0.10
  10   2   5  411.73   12.63
  12   2   5    3.04    0.23
  14   2   5    8.56    0.64
  16   2   5    1.89    0.29
  18   2   5    1.43    0.27
 -13   3   5    1.42    0.29
 -11   3   5    2.13    0.34
  -9   3   5   -0.01    0.08
  -7   3   5    4.91    0.47
  -5   3   5    8.80    0.44
  -3   3   5    9.54    0.36
  -1   3   5    2.07    0.11
   1   3   5    0.41    0.05
   3   3   5    2.98    0.18
   5   3   5    1.15    0.09
   7   3   5    0.21    0.04
   9   3   5    4.99    0.22
  11   3   5    4.41    0.28
  13   3   5    2.49    0.22
  15   3   5    1.46    0.30
  17   3   5    1.49    0.33
 -20   4   5    9.47    0.84
 -18   4   5  154.30    8.27
 -16   4   5    1.18    0.30
 -14   4   5    2.71    0.45
 -12   4   5    3.29    0.46
 -10   4   5    1.89    0.34
  -8   4   5    3.32    0.38
  -6   4   5    2.64    0.37
  -4   4   5  144.14    6.23
  -2   4   5    0.88    0.09
   0   4   5   10.67    0.39
   2   4   5    7.76    0.32
   4   4   5    3.40    0.17
   6   4   5    7.45    0.32
   8   4   5    3.07    0.17
  10   4   5  290.40   11.46
  12   4   5    2.24    0.36
  14   4   5    7.81    0.71
  16   4   5    1.17    0.31
  18   4   5    0.20    0.19
 -19   5   5    0.94    0.32
 -17   5   5    4.02    0.58
 -15   5   5    8.72    0.75
 -13   5   5    6.50    0.61
 -11   5   5   60.42    3.19
  -9   5   5   -0.05    0.09
  -7   5   5    1.99    0.32
  -5   5   5    9.41    0.49
  -3   5   5   11.40    0.56
  -1   5   5    0.79    0.10
   1   5   5    2.21    0.15
   3   5   5  285.42   11.59
   5   5   5    3.07    0.21
   7   5   5    0.80    0.11
   9   5   5    1.86    0.14
  11   5   5    2.75    0.43
  13   5   5   13.64    1.03
  15   5   5    0.78    0.28
  17   5   5   35.06    2.09
 -18   6   5    3.24    0.60
 -16   6   5    0.20    0.21
 -14   6   5    0.73    0.25
 -12   6   5    8.00    0.74
 -10   6   5    5.87    0.56
  -8   6   5    9.01    0.74
  -4   6   5    3.72    0.27
  -2   6   5    2.59    0.32
   0   6   5    8.54    0.45
   2   6   5    5.39    0.33
   4   6   5    3.81    0.27
   6   6   5    0.93    0.13
   8   6   5    1.43    0.14
  10   6   5    0.13    0.15
  12   6   5    0.07    0.14
  14   6   5    2.58    0.48
  16   6   5    2.08    0.43
 -15   7   5    2.85    0.50
 -13   7   5    1.24    0.32
 -11   7   5   41.58    2.32
  -5   7   5    3.85    0.51
  -3   7   5    0.22    0.13
  -1   7   5    5.75    0.47
   1   7   5    2.85    0.31
   3   7   5  164.74    6.92
   5   7   5    0.23    0.08
   7   7   5    1.46    0.16
   9   7   5    2.09    0.15
  11   7   5    1.71    0.39
  13   7   5   15.07    1.24
  -2   8   5    0.88    0.20
   0   8   5    0.29    0.13
   2   8   5    1.37    0.22
   4   8   5    4.79    0.40
   6   8   5    5.57    0.37
   8   8   5    0.82    0.11
  10   8   5   88.07    5.02
  -3  -9   6    1.26    0.31
  -8  -8   6    0.74    0.25
  -6  -8   6    1.23    0.31
  -4  -8   6    1.28    0.30
  -2  -8   6   28.02    1.68
   4  -8   6    3.50    0.51
   6  -8   6    2.33    0.39
 -13  -7   6    2.00    0.39
 -11  -7   6    1.83    0.35
  -9  -7   6   34.30    2.20
  -7  -7   6    0.26    0.17
  -5  -7   6    0.40    0.17
  -3  -7   6    8.12    0.67
  -1  -7   6    8.14    0.68
   3  -7   6    2.02    0.36
   5  -7   6    2.64    0.39
   7  -7   6    2.03    0.35
   9  -7   6    3.13    0.41
  11  -7   6    1.43    0.26
 -16  -6   6   63.19    3.97
 -14  -6   6    1.40    0.33
 -12  -6   6    5.85    0.56
 -10  -6   6    0.60    0.20
  -8  -6   6    2.69    0.38
  -6  -6   6   14.12    0.99
  -4  -6   6    5.66    0.49
  -2  -6   6  200.76   10.45
   0  -6   6    0.23    0.11
   2  -6   6    5.96    0.35
   4  -6   6    5.32    0.53
   6  -6   6    3.58    0.45
   8  -6   6    7.99    0.44
  10  -6   6    1.17    0.17
  12  -6   6   85.79    3.79
  14  -6   6    1.55    0.18
  16  -6   6    0.02    0.18
 -19  -5   6    9.73    0.83
 -17  -5   6    3.38    0.47
 -15  -5   6    1.30    0.29
 -13  -5   6    2.73    0.40
 -11  -5   6    2.70    0.38
  -9  -5   6  108.66    6.31
  -7  -5   6    1.13    0.22
  -5  -5   6    0.46    0.15
  -3  -5   6    6.34    0.52
  -1  -5   6    5.88    0.47
   1  -5   6   13.84    0.99
   3  -5   6    3.62    0.20
   5  -5   6   21.90    0.99
   7  -5   6    1.86    0.19
   9  -5   6    7.29    0.40
  11  -5   6    4.44    0.30
  13  -5   6    0.11    0.07
  15  -5   6    0.32    0.07
  17  -5   6    1.20    0.32
 -20  -4   6    0.72    0.23
 -18  -4   6    0.48    0.21
 -16  -4   6   23.77    1.63
 -14  -4   6    0.21    0.13
  -2  -4   6   88.29    3.38
   0  -4   6    0.08    0.04
   2  -4   6    2.49    0.14
   4  -4   6    7.77    0.32
   6  -4   6   13.94    0.65
   8  -4   6    1.10    0.14
  10  -4   6    0.19    0.07
  12  -4   6   27.35    1.27
  14  -4   6    2.89    0.21
  16  -4   6    0.50    0.20
  18  -4   6    0.80    0.26
 -21  -3   6    0.38    0.21
 -19  -3   6   16.02    1.19
  -9  -3   6  518.58   29.04
  -7  -3   6    2.94    0.26
  -5  -3   6    1.71    0.19
  -3  -3   6    4.70    0.35
  -1  -3   6    6.67    0.34
   1  -3   6   23.18    0.96
   3  -3   6    1.38    0.14
   5  -3   6   85.71    2.86
   7  -3   6    0.07    0.05
   9  -3   6   11.76    0.53
  11  -3   6   10.95    0.54
  13  -3   6    8.32    0.42
  15  -3   6    1.74    0.31
  17  -3   6    0.59    0.21
  19  -3   6  149.02    8.60
 -14  -2   6    1.39    0.25
 -12  -2   6    8.18    0.57
 -10  -2   6    1.42    0.23
  -8  -2   6    0.54    0.13
  -6  -2   6    2.29    0.23
  -4  -2   6    3.30    0.28
  -2  -2   6  163.04    6.22
   0  -2   6    0.11    0.05
   2  -2   6    8.09    0.40
   4  -2   6    3.71    0.22
   6  -2   6    1.91    0.15
   8  -2   6    8.04    0.38
  10  -2   6    0.58    0.09
  12  -2   6   79.02    3.36
  14  -2   6    0.29    0.13
  16  -2   6    0.13    0.11
  18  -2   6    4.06    0.45
  20  -2   6    1.21    0.29
 -19  -1   6    3.93    0.44
 -17  -1   6    1.37    0.27
 -15  -1   6    0.46    0.17
 -13  -1   6    2.08    0.32
 -11  -1   6    4.15    0.39
  -9  -1   6  192.01   10.76
  -7  -1   6    1.03    0.18
  -5  -1   6    0.43    0.11
  -3  -1   6    1.66    0.13
  -1  -1   6    3.76    0.21
   1  -1   6    7.42    0.48
   3  -1   6    0.11    0.04
   5  -1   6   28.93    1.23
   7  -1   6    0.14    0.05
   9  -1   6    4.34    0.24
  11  -1   6    3.12    0.19
  13  -1   6    3.48    0.19
  15  -1   6    0.50    0.16
  17  -1   6    0.17    0.12
  19  -1   6   46.14    2.99
  21  -1   6    1.19    0.30
 -22   0   6    1.53    0.38
 -20   0   6    1.31    0.34
 -18   0   6    3.76    0.54
 -16   0   6  180.74   10.95
 -14   0   6    4.63    0.47
 -12   0   6   16.76    1.06
 -10   0   6    3.53    0.36
  -8   0   6    3.95    0.39
  -6   0   6   18.24    1.14
  -4   0   6   10.86    0.70
  -2   0   6  567.10   21.01
   0   0   6    0.54    0.08
   2   0   6   17.89    1.04
   4   0   6    9.14    0.59
   6   0   6    4.81    0.35
   8   0   6   18.84    0.76
  10   0   6    1.15    0.11
  12   0   6  275.65   11.00
  14   0   6    3.01    0.35
  16   0   6    1.15    0.24
  18   0   6    8.28    0.69
  20   0   6    4.27    0.47
  22   0   6   11.62    0.96
 -23   1   6    4.53    0.65
 -21   1   6    0.19    0.20
 -19   1   6    3.92    0.55
 -17   1   6    0.91    0.27
 -15   1   6    0.29    0.16
 -13   1   6    2.24    0.37
 -11   1   6    3.63    0.40
  -9   1   6  187.54   10.80
  -7   1   6    0.76    0.19
  -5   1   6    0.40    0.07
  -3   1   6    1.53    0.13
  -1   1   6    3.61    0.21
   1   1   6    7.73    0.34
   3   1   6    0.06    0.04
   5   1   6   29.20    1.23
   7   1   6    0.12    0.04
   9   1   6    4.17    0.23
  11   1   6    3.09    0.18
  13   1   6    3.32    0.34
  15   1   6    0.65    0.17
  17   1   6    0.08    0.11
  19   1   6   49.95    3.00
  21   1   6    1.63    0.32
 -22   2   6    0.43    0.27
 -20   2   6    0.61    0.26
 -18   2   6    2.60    0.45
 -16   2   6   44.17    3.00
 -14   2   6    1.33    0.29
 -12   2   6    7.70    0.64
 -10   2   6    1.15    0.25
  -8   2   6    0.42    0.16
  -6   2   6    2.42    0.34
  -4   2   6    2.93    0.20
  -2   2   6  163.37    6.23
   0   2   6    0.10    0.03
   2   2   6    8.42    0.32
   4   2   6    4.03    0.18
   6   2   6    1.70    0.11
   8   2   6    7.89    0.31
  10   2   6    0.67    0.07
  12   2   6   84.00    4.79
  14   2   6    0.30    0.12
  16   2   6   -0.04    0.09
  18   2   6    3.96    0.43
 -21   3   6    0.56    0.28
 -19   3   6   18.03    1.32
 -17   3   6    2.37    0.44
 -15   3   6    0.51    0.22
 -13   3   6    7.33    0.68
 -11   3   6   14.84    1.10
  -9   3   6  491.48   29.17
  -7   3   6    2.85    0.40
  -5   3   6    2.08    0.33
  -3   3   6    4.78    0.28
  -1   3   6    6.60    0.27
   1   3   6   23.32    0.78
   3   3   6    1.49    0.11
   5   3   6   86.64    2.87
   7   3   6    0.03    0.02
   9   3   6   11.55    0.52
  11   3   6   11.34    0.43
  13   3   6    8.69    0.47
  15   3   6    2.31    0.38
 -20   4   6    1.16    0.36
 -18   4   6    0.73    0.29
 -16   4   6   23.43    1.69
 -14   4   6    0.34    0.19
 -12   4   6    0.15    0.14
 -10   4   6    2.09    0.34
  -8   4   6    5.69    0.57
  -6   4   6    9.65    0.76
  -4   4   6    4.08    0.27
  -2   4   6   86.13    3.41
   0   4   6    0.09    0.04
   2   4   6    2.60    0.15
   4   4   6    7.86    0.33
   6   4   6   13.53    0.52
   8   4   6    1.06    0.10
  10   4   6    0.22    0.05
  12   4   6   27.38    1.89
  14   4   6    2.84    0.44
  16   4   6    0.52    0.22
  18   4   6    1.06    0.31
 -19   5   6    8.67    1.15
 -17   5   6    4.07    0.58
 -15   5   6    1.60    0.36
 -13   5   6    2.26    0.41
 -11   5   6    2.56    0.40
  -9   5   6  109.66    6.37
  -7   5   6    1.26    0.27
  -5   5   6    0.70    0.21
  -3   5   6    6.83    0.39
  -1   5   6    5.40    0.33
   1   5   6   14.30    0.67
   3   5   6    3.91    0.20
   5   5   6   20.92    0.97
   7   5   6    1.94    0.17
   9   5   6    7.08    0.37
  11   5   6    4.87    0.52
  13   5   6    0.08    0.16
  15   5   6    0.30    0.21
  17   5   6    1.52    0.38
 -16   6   6   61.31    3.99
 -14   6   6    1.02    0.29
 -12   6   6    6.28    0.60
 -10   6   6    0.43    0.20
  -8   6   6    2.59    0.41
  -6   6   6   15.30    1.04
  -4   6   6    5.69    0.35
  -2   6   6  193.04   10.43
   0   6   6    0.15    0.10
   2   6   6    5.38    0.45
   4   6   6    5.22    0.33
   6   6   6    3.76    0.26
   8   6   6    8.07    0.41
  10   6   6    0.90    0.10
  12   6   6   87.80    5.51
  14   6   6    1.64    0.38
  16   6   6    0.12    0.23
 -15   7   6    4.13    0.61
 -13   7   6    1.61    0.37
 -11   7   6    1.84    0.37
  -9   7   6   37.28    2.52
  -3   7   6    6.67    0.62
  -1   7   6    7.74    0.66
   1   7   6    7.86    0.60
   3   7   6    2.41    0.29
   7   7   6    2.08    0.20
   9   7   6    3.15    0.22
  11   7   6    1.90    0.42
  13   7   6    4.34    0.64
  -4   8   6    1.54    0.30
  -2   8   6   26.10    1.61
   0   8   6    0.60    0.17
   2   8   6    6.85    0.57
   4   8   6    3.28    0.31
   6   8   6    2.35    0.25
   8   8   6    7.62    0.48
  10   8   6    0.75    0.37
  -8  -8   7    5.69    0.73
  -6  -8   7    7.24    0.67
  -4  -8   7    0.45    0.20
  -2  -8   7    1.35    0.30
   4  -8   7    0.65    0.25
 -11  -7   7    2.58    0.43
  -9  -7   7    0.59    0.22
  -7  -7   7   25.35    1.96
  -5  -7   7    0.56    0.20
  -3  -7   7    7.55    0.61
  -1  -7   7    3.32    0.39
   3  -7   7    5.18    0.64
   5  -7   7    2.44    0.38
   7  -7   7  110.06    6.25
   9  -7   7    0.98    0.25
 -14  -6   7    1.48    0.33
 -12  -6   7    0.15    0.14
 -10  -6   7    5.45    0.55
  -8  -6   7    8.42    0.69
  -6  -6   7    5.84    0.56
  -4  -6   7    3.89    0.40
  -2  -6   7    0.65    0.17
   0  -6   7    3.48    0.33
   4  -6   7    0.46    0.18
   6  -6   7    5.82    0.54
   8  -6   7    5.06    0.50
  10  -6   7    4.10    0.31
  12  -6   7    1.84    0.21
  14  -6   7    2.20    0.40
 -17  -5   7    0.54    0.21
 -15  -5   7    3.82    0.51
 -13  -5   7    5.46    0.54
 -11  -5   7    3.54    0.44
  -9  -5   7    1.13    0.25
  -7  -5   7   39.11    2.76
  -5  -5   7    0.00    0.08
  -3  -5   7    1.04    0.20
  -1  -5   7    4.11    0.36
   1  -5   7    8.48    0.60
   3  -5   7   10.38    0.54
   5  -5   7    1.59    0.19
   7  -5   7  202.24    7.92
   9  -5   7    0.97    0.14
  11  -5   7    4.05    0.29
  13  -5   7    3.68    0.28
  15  -5   7    4.00    0.27
  17  -5   7    8.14    0.84
 -20  -4   7    1.27    0.32
 -18  -4   7    3.10    0.47
 -16  -4   7    2.19    0.35
  -2  -4   7    4.85    0.40
   0  -4   7  355.22   19.75
   2  -4   7    0.46    0.07
   4  -4   7    0.98    0.13
   6  -4   7    7.29    0.40
   8  -4   7    4.44    0.29
  10  -4   7   21.36    1.01
  12  -4   7    1.21    0.15
  14  -4   7   38.51    1.58
  16  -4   7    1.16    0.28
  18  -4   7    6.98    0.65
 -21  -3   7    0.68    0.24
  -9  -3   7    2.34    0.26
  -7  -3   7    1.50    0.21
  -5  -3   7    0.91    0.16
  -3  -3   7    4.14    0.33
  -1  -3   7    2.44    0.19
   1  -3   7    2.57    0.18
   3  -3   7    0.54    0.09
   5  -3   7    0.99    0.13
   7  -3   7    0.11    0.06
   9  -3   7    0.01    0.05
  11  -3   7    0.80    0.12
  13  -3   7    1.57    0.15
  15  -3   7    2.63    0.38
  17  -3   7    0.84    0.24
  19  -3   7    0.04    0.14
 -14  -2   7   74.56    3.94
 -12  -2   7    0.22    0.12
 -10  -2   7    8.68    0.65
  -8  -2   7    7.31    0.53
  -6  -2   7    5.77    0.44
  -4  -2   7    0.99    0.18
  -2  -2   7    4.89    0.29
   0  -2   7  440.08   17.69
   2  -2   7    0.34    0.07
   4  -2   7    0.38    0.11
   6  -2   7    5.16    0.29
   8  -2   7    5.41    0.29
  10  -2   7   24.11    1.05
  12  -2   7    0.31    0.07
  14  -2   7   56.96    2.21
  16  -2   7    0.53    0.19
  18  -2   7    9.48    0.80
  20  -2   7    5.03    0.56
 -19  -1   7    3.27    0.47
 -17  -1   7    1.66    0.33
 -15  -1   7    4.01    0.44
 -13  -1   7    5.76    0.51
 -11  -1   7    1.15    0.23
  -9  -1   7    0.89    0.19
  -7  -1   7  130.04    8.29
  -5  -1   7    1.27    0.20
  -3  -1   7   16.52    0.68
  -1  -1   7   11.01    0.70
   1  -1   7    7.47    0.38
   3  -1   7    8.80    0.46
   5  -1   7    6.16    0.33
   7  -1   7  398.63   15.29
   9  -1   7    0.91    0.11
  11  -1   7   10.70    0.52
  13  -1   7    2.96    0.18
  15  -1   7    0.02    0.10
  17  -1   7   18.04    1.18
  19  -1   7    0.44    0.20
  21  -1   7   21.56    1.66
 -22   0   7    0.07    0.20
 -20   0   7    0.09    0.16
 -18   0   7    0.02    0.14
 -16   0   7   -0.08    0.12
 -14   0   7    0.12    0.13
 -12   0   7   -0.03    0.09
 -10   0   7    0.01    0.09
  -8   0   7    0.01    0.08
  -6   0   7    0.01    0.07
  -4   0   7    0.05    0.07
  -2   0   7   -0.01    0.03
   0   0   7    0.04    0.04
   2   0   7    0.02    0.04
   4   0   7    0.06    0.04
   6   0   7    0.00    0.03
   8   0   7    0.01    0.04
  10   0   7    0.05    0.04
  12   0   7    0.00    0.03
  14   0   7    0.61    0.17
  16   0   7    0.06    0.11
  18   0   7   -0.02    0.10
  20   0   7   -0.02    0.13
 -21   1   7  105.83    6.03
 -19   1   7    2.98    0.46
 -17   1   7    1.25    0.30
 -15   1   7    4.06    0.47
 -13   1   7    5.61    0.54
 -11   1   7    1.22    0.25
  -9   1   7    0.81    0.22
  -7   1   7  137.62    8.35
  -5   1   7    1.35    0.24
  -3   1   7   15.07    0.65
  -1   1   7   10.26    0.49
   1   1   7    7.61    0.38
   3   1   7    9.00    0.46
   5   1   7    5.64    0.32
   7   1   7  400.19   15.28
   9   1   7    0.99    0.11
  11   1   7   10.95    0.52
  13   1   7    3.03    0.32
  15   1   7    0.11    0.11
  17   1   7   17.73    1.16
  19   1   7    0.84    0.24
  21   1   7   20.61    1.47
 -20   2   7    3.55    0.55
 -18   2   7    5.82    0.62
 -16   2   7    5.06    0.53
 -14   2   7   69.70    4.02
 -12   2   7    0.15    0.13
 -10   2   7    9.43    0.75
  -8   2   7    7.21    0.62
  -6   2   7    5.95    0.52
  -4   2   7    1.10    0.23
  -2   2   7    5.03    0.30
   0   2   7  442.54   17.70
   2   2   7    0.25    0.06
   4   2   7    0.47    0.08
   6   2   7    5.18    0.28
   8   2   7    4.90    0.27
  10   2   7   23.81    1.03
  12   2   7    0.38    0.06
  14   2   7   57.93    3.19
  16   2   7    0.71    0.19
  18   2   7   10.24    0.78
 -19   3   7    0.12    0.20
 -17   3   7   -0.02    0.14
 -15   3   7    2.09    0.38
 -13   3   7    1.74    0.34
 -11   3   7    2.31    0.38
  -9   3   7    2.33    0.38
  -7   3   7    1.44    0.29
  -5   3   7    0.59    0.18
  -3   3   7    4.13    0.26
  -1   3   7    2.48    0.20
   1   3   7    2.34    0.18
   3   3   7    0.60    0.08
   5   3   7    0.94    0.10
   7   3   7    0.27    0.06
   9   3   7   -0.01    0.03
  11   3   7    1.05    0.09
 -18   4   7    3.42    0.54
 -16   4   7    2.14    0.39
 -14   4   7   62.77    3.48
 -12   4   7   -0.03    0.11
 -10   4   7   16.19    1.22
  -8   4   7    6.43    0.60
  -6   4   7    1.99    0.34
  -4   4   7    5.02    0.47
  -2   4   7    5.01    0.32
   0   4   7  343.38   14.00
   2   4   7    0.41    0.09
   4   4   7    1.13    0.13
   6   4   7    7.36    0.32
   8   4   7    4.69    0.23
  10   4   7   22.80    1.00
  12   4   7    1.48    0.29
  14   4   7   39.65    2.37
 -17   5   7    1.00    0.31
 -15   5   7    3.73    0.54
 -13   5   7    5.47    0.59
 -11   5   7    2.71    0.43
  -9   5   7    1.20    0.30
  -7   5   7   39.18    2.81
  -5   5   7    0.01    0.10
  -3   5   7    1.08    0.15
  -1   5   7    4.20    0.37
   1   5   7    8.23    0.44
   3   5   7    9.99    0.52
   5   5   7    1.58    0.19
   7   5   7  200.16    7.90
   9   5   7    1.11    0.13
  11   5   7    4.07    0.23
  13   5   7    3.20    0.49
  15   5   7    3.71    0.55
  17   5   7    7.67    0.79
 -16   6   7    2.11    0.44
 -14   6   7    1.57    0.37
 -12   6   7    0.21    0.18
 -10   6   7    5.98    0.61
  -8   6   7    8.63    0.74
  -6   6   7    6.59    0.62
  -2   6   7    0.63    0.17
   0   6   7    2.49    0.32
   2   6   7    1.73    0.25
   4   6   7    0.34    0.12
   6   6   7    5.63    0.45
   8   6   7    4.53    0.31
  10   6   7    3.73    0.25
  12   6   7    2.07    0.40
  14   6   7    1.51    0.37
 -13   7   7    0.69    0.28
 -11   7   7    2.77    0.46
  -3   7   7    8.01    0.61
  -1   7   7    3.88    0.39
   1   7   7    1.37    0.25
   3   7   7    4.03    0.42
   5   7   7    2.35    0.28
   7   7   7  111.01    6.09
   9   7   7    0.90    0.13
  13   7   7    1.12    0.40
  -4   8   7    0.53    0.20
  -2   8   7    1.47    0.27
   0   8   7   70.70    4.47
   2   8   7    1.21    0.22
  -6  -8   8    2.97    0.53
  -4  -8   8    1.23    0.31
  -9  -7   8    5.95    0.60
  -7  -7   8    2.91    0.45
  -5  -7   8   20.41    1.33
  -3  -7   8    0.15    0.15
   5  -7   8    1.46    0.31
   7  -7   8    0.26    0.18
 -14  -6   8    6.63    0.67
 -12  -6   8  136.62    8.08
 -10  -6   8    0.58    0.22
  -8  -6   8    0.95    0.24
  -6  -6   8    2.26    0.37
  -4  -6   8    3.48    0.39
  -2  -6   8   12.39    0.84
   0  -6   8   -0.02    0.06
   4  -6   8    0.09    0.13
   6  -6   8    4.73    0.48
   8  -6   8    6.79    0.59
  10  -6   8    5.62    0.39
  12  -6   8    2.21    0.39
  14  -6   8    0.32    0.21
 -15  -5   8    6.78    0.63
 -13  -5   8    0.96    0.27
 -11  -5   8    0.43    0.18
  -9  -5   8    0.91    0.23
  -7  -5   8    2.38    0.36
  -5  -5   8   59.52    3.17
  -3  -5   8    0.03    0.09
  -1  -5   8    8.59    0.67
   1  -5   8    4.45    0.40
   3  -5   8    2.87    0.24
   5  -5   8    8.84    0.47
   7  -5   8    1.03    0.16
   9  -5   8   44.24    1.97
  11  -5   8    0.61    0.13
  13  -5   8    0.52    0.12
  15  -5   8    4.87    0.31
 -18  -4   8    1.31    0.31
  -2  -4   8    8.66    0.58
   0  -4   8    1.87    0.25
   2  -4   8    5.35    0.24
   4  -4   8    1.16    0.15
   6  -4   8    2.85    0.23
   8  -4   8    2.46    0.23
  10  -4   8    5.72    0.35
  12  -4   8    0.66    0.12
  14  -4   8    0.09    0.06
  16  -4   8   33.03    2.25
  -9  -3   8   15.88    1.00
  -7  -3   8    8.74    0.64
  -5  -3   8  292.17   15.42
  -3  -3   8    0.37    0.12
  -1  -3   8   12.06    0.82
   1  -3   8    8.71    0.46
   3  -3   8    5.12    0.31
   5  -3   8   11.46    0.53
   7  -3   8    1.57    0.17
   9  -3   8  174.31    7.49
  11  -3   8    0.96    0.13
  13  -3   8    1.12    0.13
  15  -3   8    7.51    0.38
  17  -3   8    4.43    0.50
 -14  -2   8    3.09    0.37
 -12  -2   8   99.91    5.90
 -10  -2   8    1.83    0.27
  -8  -2   8    0.40    0.13
  -6  -2   8    3.60    0.36
  -4  -2   8    3.72    0.34
  -2  -2   8    6.27    0.49
   0  -2   8    2.37    0.18
   2  -2   8   23.61    1.08
   4  -2   8    0.70    0.11
   6  -2   8    8.04    0.41
   8  -2   8    5.13    0.30
  10  -2   8    1.12    0.14
  12  -2   8    0.36    0.08
  14  -2   8    1.44    0.13
  16  -2   8   47.14    3.03
  18  -2   8    0.39    0.19
 -19  -1   8   18.02    1.47
 -17  -1   8    0.62    0.22
 -15  -1   8    2.71    0.40
 -13  -1   8    0.87    0.22
 -11  -1   8    1.63    0.29
  -9  -1   8    5.16    0.46
  -7  -1   8    2.89    0.31
  -5  -1   8  101.28    5.48
  -3  -1   8    0.36    0.12
  -1  -1   8    2.59    0.19
   1  -1   8    2.98    0.20
   3  -1   8    3.42    0.22
   5  -1   8    2.65    0.19
   7  -1   8    0.44    0.09
   9  -1   8   56.16    2.46
  11  -1   8    0.53    0.09
  13  -1   8    0.53    0.08
  15  -1   8    1.62    0.30
  17  -1   8    1.17    0.26
  19  -1   8    2.56    0.41
 -22   0   8   14.17    1.14
 -20   0   8    2.74    0.45
 -18   0   8    0.20    0.18
 -16   0   8    5.27    0.57
 -14   0   8   14.50    1.07
 -12   0   8  405.84   22.82
 -10   0   8    6.73    0.59
  -8   0   8    1.66    0.28
  -6   0   8    7.44    0.61
  -4   0   8   12.80    0.88
  -2   0   8   22.61    0.94
   0   0   8    1.90    0.16
   2   0   8   81.10    3.36
   4   0   8    0.33    0.07
   6   0   8   23.15    0.97
   8   0   8   17.70    0.80
  10   0   8   11.23    0.55
  12   0   8    1.83    0.16
  14   0   8    2.59    0.35
  16   0   8  205.13   11.62
  18   0   8    3.54    0.48
  20   0   8    3.37    0.48
 -21   1   8    0.63    0.29
 -19   1   8   19.17    1.46
 -17   1   8    0.66    0.25
 -15   1   8    2.33    0.39
 -13   1   8    1.01    0.27
 -11   1   8    1.99    0.35
  -9   1   8    5.54    0.52
  -7   1   8    2.39    0.34
  -5   1   8   97.46    5.51
  -3   1   8    0.22    0.12
  -1   1   8    2.78    0.19
   1   1   8    2.83    0.20
   3   1   8    3.34    0.22
   5   1   8    2.95    0.19
   7   1   8    0.49    0.09
   9   1   8   57.49    2.45
  11   1   8    0.56    0.09
  13   1   8    0.53    0.08
  15   1   8    1.79    0.30
  17   1   8    1.39    0.28
  19   1   8    2.88    0.43
 -20   2   8    0.87    0.32
 -18   2   8    0.37    0.23
 -16   2   8    2.02    0.39
 -14   2   8    4.10    0.53
 -12   2   8  106.73    6.04
 -10   2   8    2.45    0.40
  -8   2   8    0.34    0.17
  -6   2   8    4.44    0.44
  -4   2   8    3.64    0.39
  -2   2   8    6.78    0.36
   0   2   8    2.51    0.19
   2   2   8   24.88    1.09
   4   2   8    0.64    0.10
   6   2   8    8.25    0.41
   8   2   8    4.82    0.28
  10   2   8    1.16    0.13
  12   2   8    0.31    0.07
  14   2   8    1.26    0.25
  16   2   8   51.91    3.04
  18   2   8    0.60    0.21
 -19   3   8   64.87    4.30
 -17   3   8    2.49    0.48
 -15   3   8   11.09    0.84
 -13   3   8    1.79    0.36
 -11   3   8    3.92    0.53
  -9   3   8   15.22    1.12
  -7   3   8    9.67    0.77
  -5   3   8  288.42   15.54
  -3   3   8    0.61    0.18
  -1   3   8   11.93    0.59
   1   3   8    8.96    0.47
   3   3   8    5.01    0.30
   5   3   8   12.47    0.53
   7   3   8    1.54    0.16
   9   3   8  179.55    7.47
  11   3   8    0.92    0.11
  13   3   8    1.11    0.23
 -18   4   8    1.90    0.42
 -16   4   8    1.15    0.33
 -14   4   8    2.18    0.40
 -12   4   8   51.25    3.23
 -10   4   8    0.18    0.16
  -8   4   8    0.32    0.18
  -6   4   8    3.92    0.46
  -4   4   8    7.47    0.66
  -2   4   8    8.49    0.44
   0   4   8    2.07    0.20
   2   4   8    5.30    0.45
   4   4   8    1.15    0.14
   6   4   8    2.61    0.27
   8   4   8    2.42    0.17
  10   4   8    5.51    0.32
  12   4   8    1.08    0.26
 -15   5   8    5.61    0.63
 -13   5   8    1.07    0.30
 -11   5   8    0.39    0.22
  -9   5   8    0.58    0.24
  -7   5   8    2.31    0.40
  -5   5   8   55.59    3.21
  -3   5   8   -0.03    0.08
  -1   5   8    8.62    0.49
   1   5   8    4.95    0.43
   3   5   8    2.93    0.22
   5   5   8    8.21    0.60
   7   5   8    1.10    0.18
   9   5   8   43.70    2.68
  11   5   8    0.51    0.08
  13   5   8    0.82    0.26
  15   5   8    5.13    0.58
 -14   6   8    7.09    0.73
 -12   6   8  141.88    8.15
 -10   6   8    0.46    0.24
  -8   6   8    1.10    0.29
  -6   6   8    1.94    0.36
  -4   6   8    3.56    0.46
  -2   6   8   12.46    0.83
   0   6   8    0.23    0.13
   2   6   8   17.11    1.10
   4   6   8    0.02    0.08
   6   6   8    4.92    0.39
   8   6   8    6.43    0.47
  10   6   8    5.41    0.39
  14   6   8    0.86    0.34
 -11   7   8    4.76    0.63
  -3   7   8    0.27    0.15
  -1   7   8    1.58    0.28
   1   7   8    6.79    0.57
   3   7   8    9.80    0.77
   5   7   8    1.15    0.21
   7   7   8    0.35    0.12
  -2   8   8    6.86    0.68
  -7  -7   9    2.73    0.45
  -5  -7   9    3.81    0.50
  -3  -7   9   86.90    5.44
   5  -7   9    1.44    0.33
 -12  -6   9    3.54    0.50
 -10  -6   9    0.68    0.23
  -8  -6   9    0.73    0.22
  -6  -6   9    4.51    0.47
  -4  -6   9    2.09    0.33
  -2  -6   9    1.86    0.30
   4  -6   9    0.38    0.19
   6  -6   9   -0.07    0.12
   8  -6   9    2.06    0.34
  12  -6   9    5.00    0.61
 -15  -5   9    0.05    0.18
 -13  -5   9    2.96    0.46
 -11  -5   9    6.12    0.59
  -9  -5   9    4.55    0.50
  -5  -5   9    2.79    0.40
  -3  -5   9  148.73    8.81
  -1  -5   9    0.05    0.10
   3  -5   9    2.05    0.26
   5  -5   9    3.96    0.29
   7  -5   9   15.07    0.72
   9  -5   9    0.10    0.09
  11  -5   9   33.94    1.44
  13  -5   9    0.05    0.14
  -2  -4   9    3.09    0.31
   0  -4   9    5.56    0.50
   2  -4   9    5.20    0.33
   4  -4   9  207.84    8.24
   6  -4   9    0.22    0.12
   8  -4   9    7.31    0.43
  10  -4   9    2.82    0.25
  12  -4   9    0.24    0.09
  14  -4   9   15.30    0.71
  -7  -3   9    1.36    0.22
  -5  -3   9    0.21    0.11
  -3  -3   9    1.36    0.23
  -1  -3   9    0.98    0.19
   1  -3   9    0.22    0.08
   3  -3   9    2.20    0.21
   5  -3   9    2.37    0.23
   7  -3   9    1.74    0.19
   9  -3   9    1.22    0.16
  11  -3   9    0.94    0.14
  13  -3   9    0.37    0.09
  15  -3   9    0.90    0.12
 -14  -2   9    1.98    0.46
 -12  -2   9    0.48    0.17
 -10  -2   9   41.23    2.88
  -8  -2   9    0.69    0.18
  -6  -2   9    9.91    0.67
  -4  -2   9    6.99    0.56
  -2  -2   9    7.29    0.57
   0  -2   9   10.01    0.77
   2  -2   9    5.05    0.30
   4  -2   9  275.75   11.00
   6  -2   9    0.05    0.06
   8  -2   9    6.79    0.39
  10  -2   9    3.92    0.27
  12  -2   9    2.42    0.21
  14  -2   9   14.10    0.66
  16  -2   9    0.79    0.24
 -17  -1   9   43.68    2.53
 -15  -1   9    0.28    0.16
 -13  -1   9   12.95    0.98
 -11  -1   9    5.45    0.51
  -9  -1   9    3.10    0.35
  -7  -1   9    2.08    0.31
  -5  -1   9    6.07    0.54
  -3  -1   9  348.13   19.75
  -1  -1   9    2.25    0.29
   1  -1   9    1.56    0.16
   3  -1   9    9.33    0.47
   5  -1   9    8.21    0.43
   7  -1   9   24.48    1.11
   9  -1   9    1.79    0.17
  11  -1   9   54.54    2.13
  13  -1   9    1.03    0.13
  15  -1   9   13.15    0.98
  17  -1   9    7.13    0.68
 -20   0   9    0.02    0.20
 -18   0   9   -0.07    0.15
 -16   0   9   -0.13    0.12
 -14   0   9    0.05    0.14
 -12   0   9    0.03    0.12
 -10   0   9   -0.07    0.10
  -8   0   9    0.11    0.12
  -6   0   9    0.06    0.09
  -4   0   9   -0.09    0.07
  -2   0   9    0.00    0.08
   0   0   9    0.01    0.05
   2   0   9    0.02    0.04
   6   0   9    0.02    0.05
   8   0   9    0.02    0.05
  10   0   9    0.00    0.05
  12   0   9   -0.01    0.04
  14   0   9    0.04    0.04
  16   0   9    0.09    0.13
  18   0   9   -0.02    0.13
 -19   1   9    2.74    0.47
 -17   1   9   46.50    2.62
 -15   1   9    0.23    0.19
 -13   1   9   14.23    1.07
 -11   1   9    5.38    0.55
  -9   1   9    3.35    0.44
  -7   1   9    1.75    0.30
  -5   1   9    5.63    0.55
  -3   1   9  333.74   19.78
  -1   1   9    1.87    0.29
   1   1   9    1.76    0.17
   3   1   9    9.47    0.47
   5   1   9    8.62    0.43
   7   1   9   24.71    1.10
   9   1   9    1.74    0.17
  11   1   9   52.48    2.12
  13   1   9    0.96    0.12
  15   1   9   13.71    0.98
  17   1   9    6.51    0.65
  19   1   9    3.52    0.50
 -18   2   9    2.57    0.47
 -16   2   9    6.15    0.64
 -14   2   9    2.07    0.40
 -12   2   9    0.20    0.17
 -10   2   9   44.70    2.99
  -8   2   9    0.78    0.23
  -6   2   9    9.40    0.72
  -4   2   9    6.98    0.61
  -2   2   9    7.08    0.61
   0   2   9   10.11    0.55
   2   2   9    4.44    0.29
   4   2   9  283.50   11.01
   6   2   9    0.14    0.07
   8   2   9    6.70    0.37
  10   2   9    4.09    0.26
  12   2   9    2.07    0.18
  14   2   9   15.31    1.01
  16   2   9    0.81    0.23
  18   2   9   14.37    1.23
 -17   3   9    0.39    0.25
 -15   3   9    0.01    0.16
 -13   3   9    1.65    0.37
 -11   3   9    2.88    0.45
  -9   3   9    2.40    0.41
  -7   3   9    1.20    0.28
  -5   3   9    0.39    0.17
  -3   3   9    1.42    0.28
  -1   3   9    0.89    0.14
   1   3   9    0.29    0.09
   3   3   9    2.60    0.21
   5   3   9    2.57    0.21
   7   3   9    2.05    0.19
   9   3   9    1.30    0.15
  11   3   9    0.84    0.11
  13   3   9    0.51    0.18
 -16   4   9    2.33    0.45
 -14   4   9    1.10    0.33
 -12   4   9    0.72    0.27
  -8   4   9    1.08    0.29
  -6   4   9   14.03    1.03
  -4   4   9    6.07    0.58
  -2   4   9    3.02    0.26
   0   4   9    6.04    0.39
   2   4   9    5.53    0.35
   4   4   9  214.46    8.23
   6   4   9    0.16    0.08
   8   4   9    7.39    0.41
  10   4   9    2.65    0.26
  12   4   9    0.24    0.07
 -15   5   9   -0.07    0.17
 -13   5   9    2.68    0.48
 -11   5   9    5.12    0.61
  -9   5   9    4.97    0.56
  -5   5   9    2.79    0.45
  -3   5   9  149.98    8.89
  -1   5   9    0.04    0.08
   1   5   9    0.32    0.10
   3   5   9    2.32    0.31
   5   5   9    3.50    0.36
   7   5   9   14.15    0.94
   9   5   9    0.09    0.08
  11   5   9   33.29    1.87
 -12   6   9    3.26    0.54
 -10   6   9    0.76    0.27
  -8   6   9    0.53    0.25
  -6   6   9    4.59    0.59
  -4   6   9    2.00    0.38
  -2   6   9    2.00    0.31
   0   6   9    0.70    0.20
   2   6   9    1.41    0.25
   4   6   9    0.71    0.17
   6   6   9   -0.02    0.08
   8   6   9    1.56    0.23
  10   6   9    2.28    0.23
  -1   7   9    0.14    0.14
   1   7   9    0.85    0.21
   3   7   9    2.04    0.30
  -5  -7  10    4.81    0.55
 -10  -6  10    5.08    0.56
  -8  -6  10   78.31    4.53
  -6  -6  10   -0.08    0.11
  -4  -6  10    4.57    0.49
   4  -6  10    0.94    0.29
   6  -6  10   55.40    3.79
 -13  -5  10    0.65    0.25
 -11  -5  10    0.03    0.15
  -9  -5  10    2.60    0.41
  -7  -5  10    1.71    0.32
  -5  -5  10    4.45    0.50
  -3  -5  10    3.07    0.40
  -1  -5  10    7.76    0.74
   5  -5  10    3.69    0.31
   7  -5  10    0.29    0.11
   9  -5  10    0.34    0.12
  11  -5  10    2.02    0.37
  -2  -4  10    4.67    0.44
   0  -4  10    6.46    0.54
   2  -4  10    1.12    0.22
   4  -4  10    0.71    0.14
   6  -4  10   16.79    0.90
   8  -4  10    1.12    0.17
  10  -4  10    0.55    0.13
  12  -4  10    0.75    0.14
  -7  -3  10    8.96    0.67
  -5  -3  10   14.89    0.95
  -3  -3  10    0.94    0.20
  -1  -3  10   26.37    1.66
   1  -3  10    0.18    0.12
   3  -3  10   15.71    0.72
   5  -3  10   11.33    0.61
   7  -3  10    8.15    0.47
   9  -3  10    1.63    0.20
  11  -3  10    2.31    0.23
  13  -3  10  152.20    6.16
  15  -3  10    1.34    0.16
 -12  -2  10    1.62    0.30
 -10  -2  10    1.78    0.31
  -8  -2  10   52.16    3.03
  -6  -2  10    0.18    0.13
  -4  -2  10    5.31    0.51
  -2  -2  10    3.19    0.34
   0  -2  10    1.55    0.26
   2  -2  10    4.85    0.30
   4  -2  10    0.92    0.14
   6  -2  10   50.84    2.25
   8  -2  10    0.51    0.10
  10  -2  10    0.81    0.13
  12  -2  10    4.56    0.30
  14  -2  10    2.37    0.21
  16  -2  10    3.49    0.53
 -17  -1  10    2.13    0.39
 -15  -1  10   41.62    2.75
 -13  -1  10    0.95    0.25
 -11  -1  10    0.19    0.15
  -9  -1  10    1.25    0.27
  -7  -1  10    3.21    0.43
  -5  -1  10    4.60    0.44
  -3  -1  10    0.24    0.13
   1  -1  10    0.02    0.06
   3  -1  10    4.47    0.28
   5  -1  10    3.67    0.26
   7  -1  10    3.40    0.25
   9  -1  10    0.51    0.11
  11  -1  10    0.48    0.11
  13  -1  10   46.87    1.99
  15  -1  10    0.47    0.08
 -18   0  10   11.43    0.90
 -16   0  10    2.15    0.38
 -14   0  10    3.43    0.50
 -12   0  10   11.78    0.92
 -10   0  10    9.05    0.72
  -8   0  10  213.58   11.80
  -6   0  10    1.77    0.31
  -4   0  10   13.25    1.00
  -2   0  10    9.94    0.78
   0   0  10    6.83    0.38
   2   0  10   10.20    0.49
   4   0  10    1.90    0.20
   6   0  10  177.23    7.36
   8   0  10    0.45    0.10
  10   0  10    3.43    0.25
  12   0  10   11.49    0.57
  14   0  10    7.12    0.38
  16   0  10   14.14    1.13
 -19   1  10    0.60    0.31
 -17   1  10    1.91    0.41
 -15   1  10   45.23    2.84
 -13   1  10    1.13    0.28
 -11   1  10   -0.04    0.12
  -9   1  10    1.43    0.29
  -7   1  10    3.74    0.43
  -5   1  10    4.43    0.47
  -3   1  10    0.24    0.14
  -1   1  10    8.25    0.66
   1   1  10    0.04    0.06
   3   1  10    4.33    0.28
   5   1  10    3.96    0.27
   7   1  10    3.33    0.25
   9   1  10    0.51    0.11
  11   1  10    0.38    0.09
  13   1  10   46.96    1.99
  15   1  10    0.69    0.23
  17   1  10    0.73    0.24
 -18   2  10    4.48    0.64
 -16   2  10    0.65    0.28
 -14   2  10    0.32    0.22
 -12   2  10    1.86    0.37
 -10   2  10    1.83    0.36
  -8   2  10   53.23    3.12
  -6   2  10    0.10    0.13
  -4   2  10    6.08    0.60
  -2   2  10    3.36    0.44
   0   2  10    1.47    0.18
   2   2  10    4.69    0.30
   4   2  10    0.72    0.13
   6   2  10   51.25    2.24
   8   2  10    0.46    0.10
  10   2  10    0.96    0.13
  12   2  10    4.64    0.29
  14   2  10    2.67    0.40
  16   2  10    3.79    0.51
 -17   3  10    7.09    1.05
 -15   3  10  149.57    8.79
 -13   3  10    3.38    0.54
 -11   3  10    0.57    0.23
  -9   3  10    5.11    0.57
  -7   3  10    8.43    0.77
  -5   3  10   15.36    1.06
  -3   3  10    0.85    0.25
  -1   3  10   26.32    1.19
   1   3  10    0.20    0.09
   3   3  10   16.06    0.72
   5   3  10   12.62    0.62
   7   3  10    8.49    0.46
   9   3  10    1.74    0.19
  11   3  10    2.39    0.21
  13   3  10  154.80    6.11
 -14   4  10    2.70    0.49
 -12   4  10    4.25    0.61
 -10   4  10    3.24    0.51
  -8   4  10   29.92    1.90
  -6   4  10    0.12    0.16
  -4   4  10    0.55    0.22
  -2   4  10    5.10    0.54
   0   4  10    7.08    0.42
   2   4  10    1.27    0.17
   4   4  10    0.78    0.14
   6   4  10   17.29    0.89
   8   4  10    1.19    0.16
  10   4  10    0.47    0.12
  12   4  10    0.74    0.13
 -13   5  10    0.75    0.29
 -11   5  10    0.41    0.22
  -9   5  10    2.79    0.48
  -7   5  10    1.97    0.40
  -5   5  10    4.56    0.62
  -3   5  10    2.49    0.44
  -1   5  10    7.53    0.48
   1   5  10    1.23    0.18
   3   5  10    8.84    0.48
   5   5  10    4.09    0.40
   7   5  10    0.16    0.11
   9   5  10    0.40    0.12
  11   5  10    1.97    0.21
 -10   6  10    5.42    0.69
  -8   6  10   79.69    4.59
  -6   6  10    0.11    0.19
  -4   6  10    4.72    0.60
   0   6  10    3.41    0.43
   2   6  10    4.32    0.40
   4   6  10    0.87    0.21
   6   6  10   53.57    3.75
  -1   7  10    2.57    0.39
  -6  -6  11    0.50    0.22
  -4  -6  11    0.96    0.25
 -11  -5  11    0.09    0.23
  -5  -5  11    4.05    0.47
  -3  -5  11    7.62    0.66
   5  -5  11    2.42    0.39
   7  -5  11    3.38    0.32
   9  -5  11    4.17    0.54
   0  -4  11    4.67    0.46
   2  -4  11    4.78    0.46
   4  -4  11   14.63    0.76
   6  -4  11    1.55    0.20
   8  -4  11   28.37    1.19
  10  -4  11    0.66    0.15
  -7  -3  11    0.58    0.19
  -5  -3  11    0.45    0.18
  -3  -3  11    0.22    0.14
  -1  -3  11    0.35    0.16
   1  -3  11    0.08    0.11
   3  -3  11   -0.02    0.07
   5  -3  11    0.60    0.13
   7  -3  11    0.95    0.16
   9  -3  11    1.83    0.22
  11  -3  11    0.73    0.14
  13  -3  11    0.23    0.19
 -12  -2  11    2.28    0.37
 -10  -2  11    0.25    0.16
  -8  -2  11    3.67    0.44
  -6  -2  11  158.47    9.49
  -4  -2  11    1.31    0.26
  -2  -2  11    1.22    0.24
   0  -2  11    4.74    0.46
   2  -2  11    6.79    0.42
   4  -2  11   17.18    0.84
   6  -2  11    0.41    0.11
   8  -2  11   39.43    1.61
  10  -2  11    0.16    0.09
  12  -2  11   10.97    0.57
  14  -2  11    6.94    0.74
 -17  -1  11    0.54    0.33
 -15  -1  11    0.18    0.17
 -13  -1  11   18.67    1.36
 -11  -1  11    1.33    0.30
  -9  -1  11   15.19    1.04
  -7  -1  11    6.08    0.57
  -5  -1  11    4.08    0.45
  -3  -1  11    6.27    0.60
  -1  -1  11    6.51    0.58
   1  -1  11  209.94   11.51
   3  -1  11    0.17    0.08
   5  -1  11    7.02    0.42
   7  -1  11    4.10    0.30
   9  -1  11    1.49    0.18
  11  -1  11   16.13    0.76
  13  -1  11    0.39    0.10
  15  -1  11   17.01    1.00
 -18   0  11   -0.04    0.20
 -16   0  11    0.00    0.17
 -14   0  11    0.17    0.17
 -12   0  11    0.08    0.15
 -10   0  11   -0.06    0.12
  -8   0  11    0.00    0.12
  -6   0  11    0.13    0.14
  -4   0  11   -0.06    0.10
  -2   0  11    0.07    0.12
   0   0  11    0.00    0.10
   2   0  11   -0.01    0.06
   4   0  11    0.00    0.06
   6   0  11   -0.01    0.06
   8   0  11    0.00    0.07
  10   0  11   -0.01    0.06
  12   0  11    0.02    0.06
  14   0  11    0.04    0.06
 -17   1  11    1.34    0.35
 -15   1  11    0.17    0.21
 -13   1  11   21.18    1.44
 -11   1  11    1.31    0.32
  -9   1  11   14.15    1.06
  -7   1  11    5.78    0.60
  -5   1  11    3.98    0.53
  -3   1  11    7.05    0.65
  -1   1  11    6.09    0.59
   1   1  11  208.31    8.12
   3   1  11    0.20    0.08
   5   1  11    7.27    0.43
   7   1  11    4.33    0.30
   9   1  11    1.61    0.19
  11   1  11   16.20    0.76
  13   1  11    0.53    0.11
  15   1  11   15.84    1.21
 -16   2  11    7.37    0.73
 -14   2  11    3.06    0.50
 -12   2  11    2.07    0.40
 -10   2  11    0.37    0.20
  -8   2  11    3.27    0.51
  -6   2  11  157.60    9.58
  -4   2  11    1.11    0.30
  -2   2  11    1.61    0.33
   0   2  11    4.15    0.32
   2   2  11    6.77    0.41
   4   2  11   18.30    0.85
   6   2  11    0.57    0.12
   8   2  11   40.13    1.60
  10   2  11    0.17    0.08
  12   2  11   11.03    0.56
  14   2  11    7.23    0.68
 -15   3  11    0.78    0.35
 -13   3  11    0.19    0.22
 -11   3  11    0.21    0.19
  -9   3  11    1.42    0.36
  -7   3  11    0.53    0.24
  -5   3  11    0.61    0.26
  -3   3  11    0.27    0.18
  -1   3  11    0.48    0.22
   1   3  11    0.21    0.09
   3   3  11   -0.02    0.07
   5   3  11    0.67    0.13
   7   3  11    1.02    0.16
   9   3  11    2.09    0.22
  11   3  11    0.75    0.13
  13   3  11    0.15    0.07
 -12   4  11    1.68    0.39
 -10   4  11    1.87    0.39
  -8   4  11    4.11    0.59
  -6   4  11  125.76    7.76
  -4   4  11    1.94    0.39
  -2   4  11    1.97    0.36
   0   4  11    5.32    0.36
   2   4  11    4.94    0.34
   4   4  11   14.63    0.75
   6   4  11    2.13    0.22
   8   4  11   27.40    1.16
  10   4  11    0.78    0.16
 -11   5  11   -0.05    0.19
  -9   5  11    2.75    0.48
  -7   5  11    2.87    0.48
  -5   5  11    5.02    0.65
  -3   5  11    6.26    0.70
  -1   5  11    3.11    0.35
   1   5  11  110.65    4.41
   3   5  11    0.05    0.09
   5   5  11    2.14    0.31
  -8   6  11    0.77    0.31
  -6   6  11    0.59    0.29
  -4   6  11    1.11    0.31
   0   6  11    2.20    0.36
   2   6  11    2.39    0.44
  -5  -5  12    2.49    0.40
   5  -5  12    0.85    0.27
   7  -5  12    1.29    0.30
   0  -4  12    1.07    0.26
   2  -4  12    2.40    0.36
   4  -4  12    3.31    0.32
   6  -4  12    0.48    0.14
   8  -4  12    0.09    0.15
  -5  -3  12    5.81    0.60
  -3  -3  12    4.15    0.47
   1  -3  12    1.15    0.27
   3  -3  12   86.06    5.28
   5  -3  12    0.33    0.12
   7  -3  12    3.15    0.29
   9  -3  12    7.65    0.46
 -10  -2  12    1.94    0.35
  -8  -2  12    2.41    0.39
  -6  -2  12    0.97    0.24
  -4  -2  12    4.58    0.50
  -2  -2  12    0.41    0.18
   0  -2  12    8.00    0.66
   2  -2  12    2.92    0.41
   4  -2  12    0.83    0.15
   6  -2  12    0.32    0.11
   8  -2  12    1.80    0.21
  10  -2  12   36.00    1.59
 -15  -1  12    1.77    0.37
 -13  -1  12    1.44    0.33
 -11  -1  12   25.51    1.63
  -9  -1  12    0.26    0.19
  -7  -1  12    1.54    0.32
  -5  -1  12    1.81    0.35
  -3  -1  12    1.93    0.33
  -1  -1  12    1.16    0.26
   1  -1  12    0.44    0.18
   3  -1  12   23.29    1.13
   5  -1  12   -0.01    0.07
   7  -1  12    0.81    0.14
   9  -1  12    1.50    0.19
  11  -1  12    1.54    0.19
 -16   0  12    4.54    0.85
 -14   0  12    0.48    0.23
 -12   0  12    4.80    0.55
 -10   0  12    9.97    0.84
  -8   0  12   10.76    0.88
  -6   0  12    0.82    0.24
  -4   0  12   17.46    1.21
  -2   0  12    0.30    0.17
   0   0  12   19.55    1.28
   2   0  12   12.34    0.63
   4   0  12    7.24    0.44
   6   0  12    1.08    0.17
   8   0  12    3.98    0.31
  10   0  12  145.33    5.85
  12   0  12    0.50    0.20
 -15   1  12    1.99    0.48
 -13   1  12    1.72    0.37
 -11   1  12   23.92    1.64
  -9   1  12    0.52    0.24
  -7   1  12    2.13    0.40
  -5   1  12    2.04    0.39
  -3   1  12    2.37    0.40
  -1   1  12    1.02    0.24
   1   1  12    0.58    0.21
   3   1  12   22.61    1.12
   5   1  12   -0.01    0.07
   7   1  12    1.11    0.16
   9   1  12    1.72    0.21
  11   1  12    1.47    0.19
 -14   2  12    0.00    0.22
 -12   2  12    2.11    0.44
 -10   2  12    1.94    0.42
  -8   2  12    2.63    0.46
  -6   2  12    0.71    0.26
  -4   2  12    4.26    0.57
  -2   2  12    0.59    0.23
   0   2  12    8.05    0.69
   2   2  12    3.29    0.30
   4   2  12    1.23    0.18
   6   2  12    0.23    0.10
   8   2  12    1.53    0.19
  10   2  12   35.89    1.57
  12   2  12   -0.06    0.13
 -11   3  12   80.76    4.65
  -9   3  12    0.92    0.29
  -7   3  12    7.42    0.79
  -5   3  12    7.09    0.73
  -3   3  12    4.73    0.61
  -1   3  12    5.93    0.57
   1   3  12    1.27    0.20
   3   3  12   81.20    3.72
   5   3  12    0.34    0.11
   7   3  12    3.16    0.28
   9   3  12    7.19    0.68
  11   3  12    5.49    0.57
 -10   4  12    3.11    0.53
  -8   4  12    4.62    0.64
  -6   4  12    2.35    0.46
  -4   4  12    2.79    0.47
  -2   4  12    0.25    0.22
   0   4  12    1.28    0.20
   2   4  12    2.01    0.24
   4   4  12    3.26    0.31
   6   4  12    0.64    0.14
   8   4  12    0.07    0.15
  -7   5  12    4.76    0.68
  -5   5  12    2.33    0.47
  -3   5  12    1.07    0.34
  -1   5  12    5.46    0.67
   1   5  12    0.90    0.18
   3   5  12   21.42    1.23
   2  -4  13    3.36    0.46
   4  -4  13    2.82    0.44
  -5  -3  13    0.05    0.16
  -3  -3  13    0.78    0.24
  -1  -3  13    0.65    0.23
   1  -3  13    0.76    0.25
   3  -3  13    1.00    0.29
   5  -3  13    0.49    0.14
   7  -3  13    0.34    0.22
 -10  -2  13    3.44    0.50
  -8  -2  13    2.63    0.42
  -6  -2  13    5.05    0.55
  -4  -2  13    3.70    0.50
  -2  -2  13  113.41    6.35
   0  -2  13    0.16    0.17
   2  -2  13    3.07    0.45
   4  -2  13    3.26    0.31
   6  -2  13    2.75    0.28
   8  -2  13   10.53    0.82
 -13  -1  13    0.67    0.27
 -11  -1  13    2.68    0.45
  -9  -1  13   84.87    5.47
  -7  -1  13    2.27    0.41
  -5  -1  13    2.34    0.38
  -3  -1  13    5.41    0.55
  -1  -1  13    6.56    0.64
   1  -1  13   12.55    1.00
   3  -1  13    1.41    0.20
   5  -1  13   26.82    1.17
   7  -1  13    0.47    0.13
   9  -1  13   11.96    0.94
 -12   0  13    0.05    0.19
 -10   0  13    0.05    0.16
  -8   0  13    0.03    0.14
  -6   0  13   -0.09    0.12
  -4   0  13    0.10    0.16
  -2   0  13    0.09    0.15
   0   0  13    0.06    0.14
   2   0  13    0.16    0.14
   4   0  13    0.01    0.08
   6   0  13    0.05    0.09
   8   0  13    0.06    0.08
 -11   1  13    2.97    0.50
  -9   1  13   87.54    5.53
  -7   1  13    3.07    0.48
  -5   1  13    2.92    0.47
  -3   1  13    5.49    0.59
  -1   1  13    5.88    0.62
   1   1  13   12.75    1.02
   3   1  13    1.57    0.21
   5   1  13   27.31    1.18
   7   1  13    0.29    0.11
   9   1  13   11.62    0.93
 -10   2  13    3.47    0.57
  -8   2  13    2.68    0.49
  -6   2  13    5.69    0.65
  -4   2  13    4.00    0.60
  -2   2  13  111.91    6.42
   0   2  13    0.52    0.23
   2   2  13    3.06    0.30
   4   2  13    3.71    0.32
   6   2  13    2.74    0.28
   8   2  13   10.29    0.82
  -7   3  13    0.41    0.25
  -5   3  13    0.31    0.24
  -3   3  13    0.63    0.27
  -1   3  13    0.74    0.27
   1   3  13    0.76    0.16
   3   3  13    1.01    0.18
   5   3  13    0.29    0.12
   7   3  13    0.19    0.19
  -4   4  13    5.12    0.71
  -2   4  13   90.28    5.18
   0   4  13    0.06    0.20
   2   4  13    3.44    0.34
   4   4  13    3.21    0.52
   6   4  13    1.21    0.37
  -3  -3  14   11.51    0.94
  -1  -3  14    6.31    0.64
   1  -3  14    4.11    0.54
  -8  -2  14    1.58    0.35
  -6  -2  14    1.13    0.30
  -4  -2  14    2.21    0.41
  -2  -2  14    0.44    0.23
   0  -2  14   15.89    1.28
   2  -2  14    0.73    0.25
   4  -2  14    1.38    0.29
  -9  -1  14    0.82    0.35
  -7  -1  14    3.07    0.45
  -5  -1  14    0.11    0.17
  -3  -1  14    2.56    0.43
  -1  -1  14    2.40    0.41
   1  -1  14    1.36    0.32
   3  -1  14    0.38    0.21
   5  -1  14    0.86    0.27
  -8   0  14    5.01    0.68
  -6   0  14    5.03    0.64
  -4   0  14    4.07    0.54
  -2   0  14    1.11    0.31
   0   0  14   56.42    3.89
   2   0  14    0.88    0.27
   4   0  14    4.81    0.37
  -7   1  14    2.03    0.52
  -5   1  14   -0.04    0.18
  -3   1  14    2.97    0.47
  -1   1  14    1.67    0.37
   1   1  14    1.52    0.36
   3   1  14    0.12    0.10
  -4   2  14    2.10    0.51
  -2   2  14    0.24    0.21
   0   2  14   17.46    1.35
   2   2  14    0.71    0.16
   0   0   0    0.00    0.00
;
_shelx_hkl_checksum              44534
loop_
_space_group_symop_operation_xyz
'x, y, z'
'x, -y, z+1/2'
'x+1/2, y+1/2, z'
'x+1/2, -y+1/2, z+1/2'
loop_
_atom_site_label
_atom_site_type_symbol
_atom_site_fract_x
_atom_site_fract_y
_atom_site_fract_z
_atom_site_U_iso_or_equiv
_atom_site_adp_type
_atom_site_occupancy
_atom_site_site_symmetry_order
_atom_site_calc_flag
_atom_site_refinement_flags_posn
_atom_site_refinement_flags_adp
_atom_site_refinement_flags_occupancy
_atom_site_disorder_assembly
_atom_site_disorder_group
Cu1 Cu -0.00193(6) 0.18000(17) -0.00131(13) 0.0196(3) Uani 1 1 d . . . . .
Cu2 Cu 0.06549(5) 0.3393(2) 0.36035(14) 0.0190(2) Uani 1 1 d . . . . .
Cu3 Cu 0.21237(5) 0.3196(2) 0.07988(12) 0.0197(3) Uani 1 1 d . . . . .
Cu4 Cu 0.35325(4) 0.67831(12) 0.28351(9) 0.0186(3) Uani 1 1 d . . . . .
Mn Mn 0.28394(8) 0.15156(18) 0.43729(12) 0.0143(2) Uani 1 1 d . . . . .
Ge1 Ge 0.42802(3) 0.16344(7) 0.15672(6) 0.00867(19) Uani 1 1 d . . . . .
Ge2 Ge 0.63880(4) 0.32497(18) 0.22799(10) 0.00879(19) Uani 1 1 d . . . . .
S1 S 0.03322(11) 0.16743(19) 0.56571(13) 0.0090(3) Uani 1 1 d . . . . .
S2 S 0.17008(10) 0.15178(17) 0.27258(13) 0.0118(4) Uani 1 1 d . . . . .
S3 S 0.24068(10) 0.6649(2) 0.13736(14) 0.0120(4) Uani 1 1 d . . . . .
S4 S 0.32846(10) 0.19229(18) -0.00212(15) 0.0108(3) Uani 1 1 d . . . . .
S5 S 0.39302(10) 0.33995(19) 0.33827(13) 0.0107(3) Uani 1 1 d . . . . .
S6 S 0.46156(9) 0.16029(18) 0.69731(14) 0.0099(4) Uani 1 1 d . . . . .
S7 S 0.60848(10) 0.1666(2) 0.41601(15) 0.0106(3) Uani 1 1 d . . . . .
loop_
_atom_site_aniso_label
_atom_site_aniso_U_11
_atom_site_aniso_U_22
_atom_site_aniso_U_33
_atom_site_aniso_U_23
_atom_site_aniso_U_13
_atom_site_aniso_U_12
Cu1 0.0179(4) 0.0244(4) 0.0164(5) -0.0014(3) 0.0016(3) -0.0028(4)
Cu2 0.0189(5) 0.0167(4) 0.0211(4) -0.0012(3) -0.0021(3) -0.0003(3)
Cu3 0.0168(5) 0.0216(5) 0.0205(5) -0.0003(3) -0.0001(4) 0.0016(3)
Cu4 0.0183(5) 0.0191(4) 0.0186(6) -0.0004(3) 0.0022(4) -0.0008(4)
Mn 0.0127(4) 0.0157(4) 0.0144(5) -0.0003(4) 0.0006(4) 0.0003(5)
Ge1 0.0075(3) 0.0090(3) 0.0094(3) -0.0009(2) 0.0000(2) 0.0002(3)
Ge2 0.0086(3) 0.0080(2) 0.0096(4) 0.00001(19) -0.0006(2) 0.0002(2)
S1 0.0076(6) 0.0094(5) 0.0100(6) -0.0012(4) 0.0008(5) 0.0004(5)
S2 0.0140(9) 0.0081(6) 0.0132(7) -0.0006(4) 0.0004(6) -0.0005(5)
S3 0.0119(10) 0.0111(6) 0.0130(6) -0.0006(4) 0.0010(6) 0.0017(4)
S4 0.0078(8) 0.0140(5) 0.0104(5) 0.0018(5) -0.0005(5) -0.0003(5)
S5 0.0115(8) 0.0104(6) 0.0102(6) -0.0016(4) 0.0020(6) 0.0012(4)
S6 0.0104(9) 0.0087(5) 0.0108(6) -0.0002(4) 0.0020(6) -0.0007(4)
S7 0.0124(9) 0.0101(6) 0.0095(5) 0.0011(4) 0.0012(6) 0.0002(5)
loop_
_atom_type_symbol
_atom_type_description
_atom_type_scat_dispersion_real
_atom_type_scat_dispersion_imag
_atom_type_scat_source
S S 0.1246 0.1234 'International Tables Vol C Tables 4.2.6.8 and 6.1.1.4'
Mn Mn 0.3368 0.7283 'International Tables Vol C Tables 4.2.6.8 and 6.1.1.4'
Cu Cu 0.3201 1.2651 'International Tables Vol C Tables 4.2.6.8 and 6.1.1.4'
Ge Ge 0.1547 1.8001 'International Tables Vol C Tables 4.2.6.8 and 6.1.1.4'
loop_
_geom_angle_atom_site_label_1
_geom_angle_atom_site_label_2
_geom_angle_atom_site_label_3
_geom_angle
_geom_angle_site_symmetry_1
_geom_angle_site_symmetry_3
_geom_angle_publ_flag
S7 Cu1 S5 112.64(8) 4_454 4_454 ?
S7 Cu1 S6 111.09(5) 4_454 4_454 ?
S5 Cu1 S6 111.91(7) 4_454 4_454 ?
S7 Cu1 S1 108.24(7) 4_454 2_554 ?
S5 Cu1 S1 107.49(5) 4_454 2_554 ?
S6 Cu1 S1 105.05(8) 4_454 2_554 ?
S7 Cu2 S6 112.34(6) 3_455 4_454 ?
S7 Cu2 S2 109.68(7) 3_455 . ?
S6 Cu2 S2 107.38(8) 4_454 . ?
S7 Cu2 S1 108.22(9) 3_455 . ?
S6 Cu2 S1 112.92(7) 4_454 . ?
S2 Cu2 S1 106.09(5) . . ?
S4 Cu3 S7 112.99(9) . 4_454 ?
S4 Cu3 S2 114.71(6) . . ?
S7 Cu3 S2 109.47(7) 4_454 . ?
S4 Cu3 S3 105.22(6) . . ?
S7 Cu3 S3 105.37(7) 4_454 . ?
S2 Cu3 S3 108.48(9) . . ?
S6 Cu4 S3 115.07(6) 2_564 . ?
S6 Cu4 S4 110.68(6) 2_564 2_565 ?
S3 Cu4 S4 113.32(7) . 2_565 ?
S6 Cu4 S5 106.88(6) 2_564 . ?
S3 Cu4 S5 108.61(6) . . ?
S4 Cu4 S5 101.12(6) 2_565 . ?
S4 Mn S2 112.62(7) 2 . ?
S4 Mn S3 110.71(8) 2 2_565 ?
S2 Mn S3 106.13(7) . 2_565 ?
S4 Mn S5 109.38(7) 2 . ?
S2 Mn S5 108.17(7) . . ?
S3 Mn S5 109.75(6) 2_565 . ?
S6 Ge1 S5 114.92(6) 2_554 . ?
S6 Ge1 S4 112.35(5) 2_554 . ?
S5 Ge1 S4 107.29(6) . . ?
S6 Ge1 S1 109.36(6) 2_554 4_554 ?
S5 Ge1 S1 107.92(5) . 4_554 ?
S4 Ge1 S1 104.40(6) . 4_554 ?
S7 Ge2 S2 110.10(9) . 3 ?
S7 Ge2 S3 109.62(6) . 3_545 ?
S2 Ge2 S3 110.25(7) 3 3_545 ?
S7 Ge2 S1 112.63(8) . 4_554 ?
S2 Ge2 S1 106.16(6) 3 4_554 ?
S3 Ge2 S1 108.00(8) 3_545 4_554 ?
Ge1 S1 Ge2 107.21(6) 4_455 4_455 ?
Ge1 S1 Cu2 108.61(5) 4_455 . ?
Ge2 S1 Cu2 111.74(10) 4_455 . ?
Ge1 S1 Cu1 111.78(8) 4_455 2 ?
Ge2 S1 Cu1 111.93(6) 4_455 2 ?
Cu2 S1 Cu1 105.59(7) . 2 ?
Ge2 S2 Cu3 111.43(7) 3_445 . ?
Ge2 S2 Cu2 113.31(9) 3_445 . ?
Cu3 S2 Cu2 108.93(6) . . ?
Ge2 S2 Mn 107.37(6) 3_445 . ?
Cu3 S2 Mn 106.14(9) . . ?
Cu2 S2 Mn 109.40(7) . . ?
Ge2 S3 Cu4 110.65(7) 3_455 . ?
Ge2 S3 Cu3 113.03(9) 3_455 . ?
Cu4 S3 Cu3 109.41(5) . . ?
Ge2 S3 Mn 111.25(7) 3_455 2_564 ?
Cu4 S3 Mn 102.30(8) . 2_564 ?
Cu3 S3 Mn 109.66(7) . 2_564 ?
Ge1 S4 Cu3 113.62(7) . . ?
Ge1 S4 Cu4 119.99(8) . 2_564 ?
Cu3 S4 Cu4 112.59(6) . 2_564 ?
Ge1 S4 Mn 107.70(5) . 2_554 ?
Cu3 S4 Mn 99.32(10) . 2_554 ?
Cu4 S4 Mn 100.29(7) 2_564 2_554 ?
Ge1 S5 Cu1 107.10(8) . 4 ?
Ge1 S5 Cu4 112.44(7) . . ?
Cu1 S5 Cu4 113.98(6) 4 . ?
Ge1 S5 Mn 107.30(5) . . ?
Cu1 S5 Mn 105.10(6) 4 . ?
Cu4 S5 Mn 110.45(8) . . ?
Ge1 S6 Cu4 107.58(7) 2 2_565 ?
Ge1 S6 Cu2 107.62(6) 2 4 ?
Cu4 S6 Cu2 109.07(6) 2_565 4 ?
Ge1 S6 Cu1 110.48(7) 2 4 ?
Cu4 S6 Cu1 110.89(6) 2_565 4 ?
Cu2 S6 Cu1 111.09(8) 4 4 ?
Ge2 S7 Cu1 108.88(6) . 4 ?
Ge2 S7 Cu2 108.44(8) . 3_545 ?
Cu1 S7 Cu2 103.71(10) 4 3_545 ?
Ge2 S7 Cu3 111.55(12) . 4 ?
Cu1 S7 Cu3 109.25(7) 4 4 ?
Cu2 S7 Cu3 114.62(7) 3_545 4 ?
loop_
_geom_bond_atom_site_label_1
_geom_bond_atom_site_label_2
_geom_bond_distance
_geom_bond_site_symmetry_2
_geom_bond_publ_flag
Cu1 S7 2.2852(18) 4_454 ?
Cu1 S5 2.2969(17) 4_454 ?
Cu1 S6 2.3161(18) 4_454 ?
Cu1 S1 2.4077(14) 2_554 ?
Cu2 S7 2.2942(15) 3_455 ?
Cu2 S6 2.2963(16) 4_454 ?
Cu2 S2 2.3332(19) . ?
Cu2 S1 2.3879(17) . ?
Cu3 S4 2.2959(17) . ?
Cu3 S7 2.3029(16) 4_454 ?
Cu3 S2 2.3230(18) . ?
Cu3 S3 2.348(2) . ?
Cu4 S6 2.2933(18) 2_564 ?
Cu4 S3 2.3046(16) . ?
Cu4 S4 2.321(2) 2_565 ?
Cu4 S5 2.3437(16) . ?
Mn S4 2.4119(17) 2 ?
Mn S2 2.429(2) . ?
Mn S3 2.4371(18) 2_565 ?
Mn S5 2.441(2) . ?
Ge1 S6 2.2008(13) 2_554 ?
Ge1 S5 2.2207(14) . ?
Ge1 S4 2.2247(15) . ?
Ge1 S1 2.2949(16) 4_554 ?
Ge2 S7 2.1930(14) . ?
Ge2 S2 2.2179(15) 3 ?
Ge2 S3 2.2218(16) 3_545 ?
Ge2 S1 2.3120(15) 4_554 ?
