#------------------------------------------------------------------------------
#$Date: 2021-09-09 01:53:06 +0300 (Thu, 09 Sep 2021) $
#$Revision: 269052 $
#$URL: file:///home/coder/svn-repositories/cod/cif/7/70/82/7708242.cif $
#------------------------------------------------------------------------------
#
# This file is available in the Crystallography Open Database (COD),
# http://www.crystallography.net/
#
# All data on this site have been placed in the public domain by the
# contributors.
#
data_7708242
loop_
_publ_author_name
'Lei, Caijin'
'Yang, Hongwei'
'Zhang, Qinghua'
'Cheng, Guangbin'
_publ_section_title
;
 Synthesis of nitrogen-rich and thermostable energetic materials based on
 hetarenecarboxylic acids
;
_journal_name_full               'Dalton Transactions'
_journal_paper_doi               10.1039/D1DT02854E
_journal_year                    2021
_chemical_formula_moiety         '2(N O3), C5 H9 N11, H2 O'
_chemical_formula_sum            'C5 H11 N13 O7'
_chemical_formula_weight         365.27
_space_group_crystal_system      triclinic
_space_group_IT_number           2
_space_group_name_Hall           '-P 1'
_space_group_name_H-M_alt        'P -1'
_atom_sites_solution_hydrogens   mixed
_atom_sites_solution_primary     dual
_audit_creation_date             2020-11-23
_audit_creation_method
;
Olex2 1.2
(compiled 2018.05.29 svn.r3508 for OlexSys, GUI svn.r5506)
;
_audit_update_record
;
2021-04-19 deposited with the CCDC.	2021-09-08 downloaded from the CCDC.
;
_cell_angle_alpha                77.516(4)
_cell_angle_beta                 75.288(4)
_cell_angle_gamma                89.243(3)
_cell_formula_units_Z            2
_cell_length_a                   6.5824(11)
_cell_length_b                   9.6308(11)
_cell_length_c                   11.1986(16)
_cell_measurement_reflns_used    2571
_cell_measurement_temperature    160
_cell_measurement_theta_max      26.226
_cell_measurement_theta_min      2.168
_cell_volume                     669.76(17)
_computing_cell_refinement       'SAINT V8.40A (?, 2016)'
_computing_data_reduction        'SAINT V8.40A (?, 2016)'
_computing_molecular_graphics    'Olex2 (Dolomanov et al., 2009)'
_computing_publication_material  'Olex2 (Dolomanov et al., 2009)'
_computing_structure_refinement  'ShelXL (Sheldrick, 2015)'
_computing_structure_solution    'XT (Sheldrick, 2015)'
_diffrn_ambient_temperature      160.0
_diffrn_measured_fraction_theta_full 0.993
_diffrn_measured_fraction_theta_max 0.990
_diffrn_measurement_device_type  'D8 VENTURE'
_diffrn_measurement_method       '\f and \w scans'
_diffrn_radiation_type           MoK\a
_diffrn_radiation_wavelength     0.71073
_diffrn_reflns_av_R_equivalents  0.0576
_diffrn_reflns_av_unetI/netI     0.0762
_diffrn_reflns_Laue_measured_fraction_full 0.993
_diffrn_reflns_Laue_measured_fraction_max 0.990
_diffrn_reflns_limit_h_max       8
_diffrn_reflns_limit_h_min       -8
_diffrn_reflns_limit_k_max       12
_diffrn_reflns_limit_k_min       -12
_diffrn_reflns_limit_l_max       13
_diffrn_reflns_limit_l_min       -14
_diffrn_reflns_number            7581
_diffrn_reflns_point_group_measured_fraction_full 0.993
_diffrn_reflns_point_group_measured_fraction_max 0.990
_diffrn_reflns_theta_full        25.242
_diffrn_reflns_theta_max         26.445
_diffrn_reflns_theta_min         1.927
_diffrn_standards_number         0
_exptl_absorpt_coefficient_mu    0.163
_exptl_absorpt_correction_T_max  0.7454
_exptl_absorpt_correction_T_min  0.6596
_exptl_absorpt_correction_type   multi-scan
_exptl_absorpt_process_details
'SADABS-2016/2 (Bruker,2016/2) was used for absorption correction. wR2(int) was 0.1258 before and 0.0630 after correction. The Ratio of minimum to maximum transmission is 0.8849. The \l/2 correction factor is Not present.'
_exptl_crystal_colour            colourless
_exptl_crystal_colour_primary    colourless
_exptl_crystal_density_diffrn    1.811
_exptl_crystal_description       block
_exptl_crystal_F_000             376
_exptl_crystal_size_max          0.16
_exptl_crystal_size_mid          0.09
_exptl_crystal_size_min          0.04
_refine_diff_density_max         0.606
_refine_diff_density_min         -0.356
_refine_diff_density_rms         0.100
_refine_ls_extinction_method     none
_refine_ls_goodness_of_fit_ref   1.049
_refine_ls_hydrogen_treatment    mixed
_refine_ls_matrix_type           full
_refine_ls_number_parameters     241
_refine_ls_number_reflns         2733
_refine_ls_number_restraints     1
_refine_ls_restrained_S_all      1.049
_refine_ls_R_factor_all          0.1151
_refine_ls_R_factor_gt           0.0720
_refine_ls_shift/su_max          0.000
_refine_ls_shift/su_mean         0.000
_refine_ls_structure_factor_coef Fsqd
_refine_ls_weighting_details
'w=1/[\s^2^(Fo^2^)+(0.1169P)^2^+0.3698P] where P=(Fo^2^+2Fc^2^)/3'
_refine_ls_weighting_scheme      calc
_refine_ls_wR_factor_gt          0.1770
_refine_ls_wR_factor_ref         0.2144
_reflns_Friedel_coverage         0.000
_reflns_number_gt                1793
_reflns_number_total             2733
_reflns_threshold_expression     'I > 2\s(I)'
_iucr_refine_instructions_details
;
TITL lcj_a.res in P-1
    lcj.res
    created by SHELXL-2018/3 at 12:32:46 on 23-Nov-2020
REM Old TITL LCJ in P-1
REM SHELXT solution in P-1
REM R1 0.206, Rweak 0.017, Alpha 0.052, Orientation as input
REM Formula found by SHELXT: C17 N O7
CELL 0.71073 6.5824 9.6308 11.1986 77.516 75.288 89.243
ZERR 2 0.0011 0.0011 0.0016 0.004 0.004 0.003
LATT 1
SFAC C H N O
UNIT 10 22 26 14
SADI N7 H7b N7 H7a

L.S. 4
PLAN  20
SIZE 0.16 0.09 0.04
TEMP -113.15
BOND $H
list 4
fmap 2
ACTA
REM <olex2.extras>
REM <HklSrc "%.\\LCJ.hkl">
REM </olex2.extras>

WGHT    0.116900    0.369800
FVAR       0.92434
O7    4    0.045952    0.486763    0.847924    11.00000    0.04436    0.03083 =
         0.01722   -0.00666   -0.00360    0.00757
O2    4    0.697613    0.025022    0.180461    11.00000    0.05427    0.03442 =
         0.01928   -0.01008   -0.00644    0.00499
O5    4    0.185691    0.363024    0.709475    11.00000    0.06605    0.02475 =
         0.02375   -0.00983   -0.00805    0.01829
O6    4    0.111334    0.582220    0.647078    11.00000    0.06504    0.02774 =
         0.01996    0.00045   -0.00519    0.01212
O3    4    0.577208    0.103181    0.351358    11.00000    0.04265    0.04336 =
         0.03189   -0.02289   -0.00899    0.01559
O4    4    0.752465   -0.088293    0.358750    11.00000    0.06051    0.02500 =
         0.03503    0.00128   -0.01457    0.00909
N4    3    0.211727    1.026801    0.147040    11.00000    0.03058    0.01741 =
         0.01726   -0.00519   -0.00742    0.00559
N8    3    0.295019    0.587783    0.381217    11.00000    0.03102    0.02266 =
         0.01268   -0.00712   -0.00387    0.00872
AFIX  43
H8    2    0.243960    0.611324    0.454399    11.00000   -1.20000
AFIX   0
N6    3    0.225869    0.901862    0.329041    11.00000    0.03316    0.02087 =
         0.01550   -0.00625   -0.00674    0.00511
N10   3    0.421903    0.470835    0.237952    11.00000    0.03588    0.01927 =
         0.01674   -0.00576   -0.00487    0.00587
AFIX  43
H10   2    0.470138    0.401058    0.200730    11.00000   -1.20000
AFIX   6

O1    4    0.598526    0.301653    0.090816    11.00000    0.08626    0.03198 =
         0.02065   -0.01083   -0.01059    0.01988
H1A   2    0.609518    0.313923    0.010096    11.00000   -1.50000
H1B   2    0.624349    0.212524    0.114506    11.00000   -1.50000
AFIX   0

N5    3    0.270140    0.894113    0.122930    11.00000    0.03116    0.01767 =
         0.01958   -0.00648   -0.00672    0.00713
N2    3    0.098010    1.226851    0.174779    11.00000    0.03876    0.01927 =
         0.01641   -0.00537   -0.00706    0.00748
N9    3    0.403811    0.607612    0.174514    11.00000    0.03293    0.02173 =
         0.01644   -0.00388   -0.00595    0.00481
N12   3    0.115850    0.477815    0.734108    11.00000    0.03020    0.02766 =
         0.02065   -0.00663   -0.00807    0.00511
N1    3    0.114140    1.153841    0.294964    11.00000    0.03633    0.02003 =
         0.01779   -0.00353   -0.00602    0.00611
N13   3    0.675628    0.012415    0.298221    11.00000    0.03499    0.02553 =
         0.02221   -0.00823   -0.00515    0.00093
N3    3    0.154426    1.188841   -0.034873    11.00000    0.04058    0.02653 =
         0.01608   -0.00338   -0.00826    0.00552
AFIX  93
H3A   2    0.112673    1.272965   -0.066053    11.00000   -1.20000
H3B   2    0.196357    1.128571   -0.084142    11.00000   -1.20000
AFIX   0
N7    3    0.210141    0.846524    0.457461    11.00000    0.04321    0.02621 =
         0.01249   -0.00309   -0.00341    0.00513
N11   3    0.352125    0.343206    0.452221    11.00000    0.04985    0.01951 =
         0.01967   -0.00426   -0.00717    0.01015
AFIX  93
H11A  2    0.395153    0.262191    0.432534    11.00000   -1.20000
H11B  2    0.305482    0.347835    0.532131    11.00000   -1.20000
AFIX   0
C2    1    0.180436    1.034353    0.270503    11.00000    0.03110    0.02221 =
         0.01416   -0.00593   -0.00588    0.00156
C4    1    0.327694    0.675584    0.262904    11.00000    0.02936    0.02034 =
         0.01315   -0.00433   -0.00643    0.00105
C1    1    0.154160    1.153488    0.084359    11.00000    0.02675    0.02020 =
         0.01941   -0.00479   -0.00592    0.00210
C5    1    0.357521    0.457176    0.362365    11.00000    0.02837    0.02261 =
         0.02007   -0.00656   -0.00856    0.00381
C3    1    0.276089    0.823411    0.237093    11.00000    0.02861    0.01950 =
         0.01605   -0.00596   -0.00625    0.00346
H2    2    0.048783    1.321116    0.162131    11.00000    0.03065
H7A   2    0.077843    0.844738    0.503277    11.00000    0.03599
H7B   2    0.303447    0.898141    0.477983    11.00000    0.05884
HKLF 4




REM  lcj_a.res in P-1
REM wR2 = 0.2144, GooF = S = 1.049, Restrained GooF = 1.049 for all data
REM R1 = 0.0720 for 1793 Fo > 4sig(Fo) and 0.1151 for all 2733 data
REM 241 parameters refined using 1 restraints

END  
     
WGHT      0.1185      0.3330 

REM Highest difference peak  0.606,  deepest hole -0.356,  1-sigma level  0.100
Q1    1   0.0207  1.0182  0.1703  11.00000  0.05    0.61
Q2    1   0.9058  0.0336  0.1615  11.00000  0.05    0.49
Q3    1   0.4766  0.0357  0.1686  11.00000  0.05    0.48
Q4    1   0.5677 -0.0960  0.3444  11.00000  0.05    0.47
Q5    1   0.0611  0.9020  0.3509  11.00000  0.05    0.46
Q6    1   0.9489 -0.0975  0.3549  11.00000  0.05    0.43
Q7    1   0.2827  0.5810  0.6460  11.00000  0.05    0.42
Q8    1   0.0037  0.3543  0.7197  11.00000  0.05    0.41
Q9    1   0.4750  0.0238  0.2989  11.00000  0.05    0.41
Q10   1   0.1329  0.6547  0.2794  11.00000  0.05    0.40
Q11   1   0.6719  0.5153  0.1515  11.00000  0.05    0.39
Q12   1   0.4115  0.3573  0.7278  11.00000  0.05    0.39
Q13   1   0.2927  1.2844  0.0951  11.00000  0.05    0.37
Q14   1   0.3595  1.0907 -0.1298  11.00000  0.05    0.37
Q15   1   0.2499  0.4670  0.2433  11.00000  0.05    0.37
Q16   1   0.3993  0.9139  0.3430  11.00000  0.05    0.36
Q17   1   0.3881  0.3128  0.0828  11.00000  0.05    0.36
Q18   1   0.2165  0.4854  0.8551  11.00000  0.05    0.35
Q19   1  -0.0660  1.1112  0.3386  11.00000  0.05    0.35
Q20   1  -0.1221  0.5700  0.6464  11.00000  0.05    0.35

  REM The information below was added by Olex2.
  REM
  REM R1 = 0.0720 for 1793 Fo > 4sig(Fo) and 0.1151 for all 7581 data
  REM n/a parameters refined using n/a restraints
  REM Highest difference peak 0.61, deepest hole -0.36
  REM Mean Shift 0, Max Shift 0.000.

  REM +++ Tabular Listing of Refinement Information +++
  REM R1_all = 0.1151
  REM R1_gt = 0.0720
  REM wR_ref = 0.2144
  REM GOOF = 1.049
  REM Shift_max = 0.000
  REM Shift_mean = 0
  REM Reflections_all = 7581
  REM Reflections_gt = 1793
  REM Parameters = n/a
  REM Hole = -0.36
  REM Peak = 0.61
  REM Flack = n/a

  
;
_cod_data_source_file            d1dt02854e2.cif
_cod_data_source_block           lcj
_cod_database_code               7708242
_shelx_shelxl_version_number     2018/3
_shelx_space_group_comment
;
The symmetry employed for this shelxl refinement is uniquely defined
by the following loop, which should always be used as a source of
symmetry information in preference to the above space-group names.
They are only intended as comments.
;
_shelx_estimated_absorpt_t_max   0.994
_shelx_estimated_absorpt_t_min   0.974
_olex2_refinement_description
;
1. Fixed Uiso
 At 1.2 times of:
  All N(H) groups, All N(H,H) groups
 At 1.5 times of:
  All O(H,H) groups
2. Restrained distances
 N7-H7B \\sim N7-H7A
 with sigma of 0.02
3.a Free rotating group:
 O1(H1A,H1B)
3.b Aromatic/amide H refined with riding coordinates:
 N8(H8), N10(H10)
3.c X=CH2 refined with riding coordinates:
 N3(H3A,H3B), N11(H11A,H11B)
;
_olex2_submission_special_instructions 'No special instructions were received'
loop_
_space_group_symop_operation_xyz
'x, y, z'
'-x, -y, -z'
loop_
_atom_site_label
_atom_site_type_symbol
_atom_site_fract_x
_atom_site_fract_y
_atom_site_fract_z
_atom_site_U_iso_or_equiv
_atom_site_adp_type
_atom_site_occupancy
_atom_site_site_symmetry_order
_atom_site_calc_flag
_atom_site_refinement_flags_posn
_atom_site_refinement_flags_adp
_atom_site_refinement_flags_occupancy
_atom_site_disorder_assembly
_atom_site_disorder_group
O7 O 0.0460(4) 0.4868(3) 0.8479(2) 0.0314(7) Uani 1 1 d . . . . .
O2 O 0.6976(5) 0.0250(3) 0.1805(3) 0.0359(7) Uani 1 1 d . . . . .
O5 O 0.1857(5) 0.3630(3) 0.7095(3) 0.0383(8) Uani 1 1 d . . . . .
O6 O 0.1113(5) 0.5822(3) 0.6471(3) 0.0396(8) Uani 1 1 d . . . . .
O3 O 0.5772(5) 0.1032(3) 0.3514(3) 0.0372(8) Uani 1 1 d . . . . .
O4 O 0.7525(5) -0.0883(3) 0.3588(3) 0.0411(8) Uani 1 1 d . . . . .
N4 N 0.2117(5) 1.0268(3) 0.1470(3) 0.0213(7) Uani 1 1 d . . . . .
N8 N 0.2950(5) 0.5878(3) 0.3812(3) 0.0220(7) Uani 1 1 d . . . . .
H8 H 0.243960 0.611324 0.454399 0.026 Uiso 1 1 calc R . . . .
N6 N 0.2259(5) 0.9019(3) 0.3290(3) 0.0228(7) Uani 1 1 d . . . . .
N10 N 0.4219(5) 0.4708(3) 0.2380(3) 0.0241(7) Uani 1 1 d . . . . .
H10 H 0.470138 0.401058 0.200730 0.029 Uiso 1 1 calc R . . . .
O1 O 0.5985(6) 0.3017(3) 0.0908(3) 0.0463(9) Uani 1 1 d . . . . .
H1A H 0.609518 0.313923 0.010096 0.069 Uiso 1 1 d G . . . .
H1B H 0.624349 0.212524 0.114506 0.069 Uiso 1 1 d G . . . .
N5 N 0.2701(5) 0.8941(3) 0.1229(3) 0.0225(7) Uani 1 1 d . . . . .
N2 N 0.0980(5) 1.2269(4) 0.1748(3) 0.0247(7) Uani 1 1 d . . . . .
N9 N 0.4038(5) 0.6076(3) 0.1745(3) 0.0239(7) Uani 1 1 d . . . . .
N12 N 0.1158(5) 0.4778(4) 0.7341(3) 0.0257(8) Uani 1 1 d . . . . .
N1 N 0.1141(5) 1.1538(3) 0.2950(3) 0.0250(7) Uani 1 1 d . . . . .
N13 N 0.6756(5) 0.0124(4) 0.2982(3) 0.0275(8) Uani 1 1 d . . . . .
N3 N 0.1544(5) 1.1888(4) -0.0349(3) 0.0278(8) Uani 1 1 d . . . . .
H3A H 0.112673 1.272965 -0.066053 0.033 Uiso 1 1 calc R . . . .
H3B H 0.196357 1.128571 -0.084142 0.033 Uiso 1 1 calc R . . . .
N7 N 0.2101(6) 0.8465(4) 0.4575(3) 0.0282(8) Uani 1 1 d D . . . .
N11 N 0.3521(5) 0.3432(3) 0.4522(3) 0.0301(8) Uani 1 1 d . . . . .
H11A H 0.395153 0.262191 0.432534 0.036 Uiso 1 1 calc R . . . .
H11B H 0.305482 0.347835 0.532131 0.036 Uiso 1 1 calc R . . . .
C2 C 0.1804(6) 1.0344(4) 0.2705(3) 0.0222(8) Uani 1 1 d . . . . .
C4 C 0.3277(6) 0.6756(4) 0.2629(3) 0.0207(8) Uani 1 1 d . . . . .
C1 C 0.1542(6) 1.1535(4) 0.0844(3) 0.0221(8) Uani 1 1 d . . . . .
C5 C 0.3575(6) 0.4572(4) 0.3624(3) 0.0230(8) Uani 1 1 d . . . . .
C3 C 0.2761(6) 0.8234(4) 0.2371(3) 0.0210(8) Uani 1 1 d . . . . .
H2 H 0.049(6) 1.321(5) 0.162(4) 0.031(11) Uiso 1 1 d . . . . .
H7A H 0.078(5) 0.845(5) 0.503(4) 0.036(12) Uiso 1 1 d D . . . .
H7B H 0.303(7) 0.898(5) 0.478(5) 0.059(17) Uiso 1 1 d D . . . .
loop_
_atom_site_aniso_label
_atom_site_aniso_U_11
_atom_site_aniso_U_22
_atom_site_aniso_U_33
_atom_site_aniso_U_23
_atom_site_aniso_U_13
_atom_site_aniso_U_12
O7 0.0444(17) 0.0308(17) 0.0172(14) -0.0067(12) -0.0036(12) 0.0076(13)
O2 0.0543(19) 0.0344(18) 0.0193(15) -0.0101(13) -0.0064(13) 0.0050(14)
O5 0.066(2) 0.0247(17) 0.0238(16) -0.0098(12) -0.0080(14) 0.0183(14)
O6 0.065(2) 0.0277(17) 0.0200(15) 0.0004(13) -0.0052(13) 0.0121(14)
O3 0.0426(17) 0.0434(19) 0.0319(17) -0.0229(14) -0.0090(13) 0.0156(14)
O4 0.061(2) 0.0250(17) 0.0350(18) 0.0013(14) -0.0146(15) 0.0091(15)
N4 0.0306(17) 0.0174(17) 0.0173(16) -0.0052(12) -0.0074(12) 0.0056(13)
N8 0.0310(17) 0.0227(18) 0.0127(15) -0.0071(13) -0.0039(12) 0.0087(13)
N6 0.0332(18) 0.0209(18) 0.0155(16) -0.0063(13) -0.0067(13) 0.0051(13)
N10 0.0359(18) 0.0193(18) 0.0167(16) -0.0058(13) -0.0049(13) 0.0059(14)
O1 0.086(2) 0.0320(19) 0.0207(16) -0.0108(13) -0.0106(16) 0.0199(17)
N5 0.0312(17) 0.0177(17) 0.0196(16) -0.0065(13) -0.0067(13) 0.0071(13)
N2 0.0388(19) 0.0193(18) 0.0164(16) -0.0054(13) -0.0071(13) 0.0075(14)
N9 0.0329(18) 0.0217(18) 0.0164(16) -0.0039(13) -0.0060(13) 0.0048(13)
N12 0.0302(17) 0.028(2) 0.0206(17) -0.0066(15) -0.0081(13) 0.0051(14)
N1 0.0363(18) 0.0200(18) 0.0178(16) -0.0035(13) -0.0060(13) 0.0061(14)
N13 0.0350(18) 0.0255(19) 0.0222(18) -0.0082(15) -0.0051(14) 0.0009(15)
N3 0.0406(19) 0.0265(19) 0.0161(16) -0.0034(13) -0.0083(14) 0.0055(15)
N7 0.043(2) 0.026(2) 0.0125(16) -0.0031(14) -0.0034(14) 0.0051(16)
N11 0.050(2) 0.0195(18) 0.0197(17) -0.0043(14) -0.0072(15) 0.0101(15)
C2 0.031(2) 0.022(2) 0.0142(18) -0.0059(15) -0.0059(15) 0.0016(16)
C4 0.0294(19) 0.020(2) 0.0132(17) -0.0043(15) -0.0064(14) 0.0011(15)
C1 0.0268(19) 0.020(2) 0.0194(19) -0.0048(15) -0.0059(14) 0.0021(15)
C5 0.028(2) 0.023(2) 0.0201(19) -0.0066(16) -0.0086(15) 0.0038(16)
C3 0.0286(19) 0.019(2) 0.0161(18) -0.0060(15) -0.0063(14) 0.0035(15)
loop_
_atom_type_symbol
_atom_type_description
_atom_type_scat_dispersion_real
_atom_type_scat_dispersion_imag
_atom_type_scat_source
C C 0.0033 0.0016 'International Tables Vol C Tables 4.2.6.8 and 6.1.1.4'
H H 0.0000 0.0000 'International Tables Vol C Tables 4.2.6.8 and 6.1.1.4'
N N 0.0061 0.0033 'International Tables Vol C Tables 4.2.6.8 and 6.1.1.4'
O O 0.0106 0.0060 'International Tables Vol C Tables 4.2.6.8 and 6.1.1.4'
loop_
_geom_angle_atom_site_label_1
_geom_angle_atom_site_label_2
_geom_angle_atom_site_label_3
_geom_angle
_geom_angle_site_symmetry_1
_geom_angle_site_symmetry_3
_geom_angle_publ_flag
C2 N4 N5 114.2(3) . . ?
C2 N4 C1 107.1(3) . . ?
C1 N4 N5 138.2(3) . . ?
C4 N8 H8 126.9 . . ?
C5 N8 H8 126.9 . . ?
C5 N8 C4 106.2(3) . . ?
C2 N6 N7 129.2(3) . . ?
C2 N6 C3 106.4(3) . . ?
C3 N6 N7 124.2(3) . . ?
N9 N10 H10 124.2 . . ?
C5 N10 H10 124.2 . . ?
C5 N10 N9 111.5(3) . . ?
H1A O1 H1B 104.5 . . ?
C3 N5 N4 100.8(3) . . ?
N1 N2 H2 121(3) . . ?
C1 N2 N1 114.7(3) . . ?
C1 N2 H2 124(3) . . ?
C4 N9 N10 104.7(3) . . ?
O5 N12 O7 119.6(3) . . ?
O6 N12 O7 120.0(3) . . ?
O6 N12 O5 120.4(3) . . ?
C2 N1 N2 100.5(3) . . ?
O3 N13 O2 119.0(3) . . ?
O4 N13 O2 120.2(3) . . ?
O4 N13 O3 120.8(3) . . ?
H3A N3 H3B 120.0 . . ?
C1 N3 H3A 120.0 . . ?
C1 N3 H3B 120.0 . . ?
N6 N7 H7A 111(3) . . ?
N6 N7 H7B 106(3) . . ?
H7A N7 H7B 116(4) . . ?
H11A N11 H11B 120.0 . . ?
C5 N11 H11A 120.0 . . ?
C5 N11 H11B 120.0 . . ?
N4 C2 N6 104.1(3) . . ?
N1 C2 N4 114.6(3) . . ?
N1 C2 N6 141.2(3) . . ?
N8 C4 C3 125.4(3) . . ?
N9 C4 N8 111.5(3) . . ?
N9 C4 C3 123.0(3) . . ?
N2 C1 N4 103.0(3) . . ?
N3 C1 N4 127.0(3) . . ?
N3 C1 N2 130.0(4) . . ?
N10 C5 N8 106.1(3) . . ?
N11 C5 N8 125.3(3) . . ?
N11 C5 N10 128.6(3) . . ?
N6 C3 C4 123.1(3) . . ?
N5 C3 N6 114.4(3) . . ?
N5 C3 C4 122.5(3) . . ?
loop_
_geom_bond_atom_site_label_1
_geom_bond_atom_site_label_2
_geom_bond_distance
_geom_bond_site_symmetry_2
_geom_bond_publ_flag
O7 N12 1.262(4) . ?
O2 N13 1.268(4) . ?
O5 N12 1.250(4) . ?
O6 N12 1.246(4) . ?
O3 N13 1.246(4) . ?
O4 N13 1.238(4) . ?
N4 N5 1.392(4) . ?
N4 C2 1.363(4) . ?
N4 C1 1.370(5) . ?
N8 H8 0.8800 . ?
N8 C4 1.376(5) . ?
N8 C5 1.361(5) . ?
N6 N7 1.399(4) . ?
N6 C2 1.369(5) . ?
N6 C3 1.377(4) . ?
N10 H10 0.8800 . ?
N10 N9 1.374(4) . ?
N10 C5 1.327(5) . ?
O1 H1A 0.8701 . ?
O1 H1B 0.8699 . ?
N5 C3 1.322(5) . ?
N2 N1 1.407(4) . ?
N2 C1 1.332(5) . ?
N2 H2 0.95(4) . ?
N9 C4 1.296(5) . ?
N1 C2 1.285(5) . ?
N3 H3A 0.8800 . ?
N3 H3B 0.8800 . ?
N3 C1 1.304(5) . ?
N7 H7A 0.89(3) . ?
N7 H7B 0.90(3) . ?
N11 H11A 0.8800 . ?
N11 H11B 0.8800 . ?
N11 C5 1.313(5) . ?
C4 C3 1.444(5) . ?
loop_
_refln_index_h
_refln_index_k
_refln_index_l
_refln_F_squared_meas
_refln_F_squared_sigma
0 0 -1 31.1 4
0 0 -2 7096.19 148.49
0 0 3 134.99 7.5
0 0 3 140.09 12.2
0 0 3 125.09 9.3
0 0 -3 135.39 8.3
0 0 -3 128.79 9.3
0 0 -3 135.29 12.2
0 0 4 824.82 30.8
0 0 4 858.21 25.4
0 0 -4 825.42 30.7
0 0 -4 850.21 37.4
0 0 -4 850.51 28.3
0 0 5 517.85 19.5
0 0 5 522.35 25.7
0 0 -5 520.75 31.6
0 0 -5 512.95 22.4
0 0 -5 532.35 26.3
0 0 6 387.56 23.7
0 0 6 427.06 17.7
0 0 -6 415.96 21.5
0 0 -6 427.16 25.1
0 0 -6 418.26 30.4
0 0 7 37.9 5.3
0 0 7 27.9 8.5
0 0 -7 45 11.2
0 0 -7 23 10.8
0 0 -7 45.2 8.6
0 0 8 15.2 4.1
0 0 -8 4.9 5.5
0 0 -8 16.6 8.8
0 0 -8 4.9 4
0 0 9 100.59 9
0 0 9 113.29 15.2
0 0 -9 91.19 20.9
0 0 -9 132.79 22.3
0 0 10 352.66 18.2
0 0 -10 344.07 30.3
0 0 -10 319.67 23.6
0 0 -11 491.85 30.2
0 0 -11 443.06 37.1
0 0 12 6.9 4.2
0 0 -12 18.8 10.5
0 0 -12 -2.7 6.4
0 0 13 5.6 5.9
0 0 -13 21.9 9.5
-1 1 -13 4.3 12.2
-1 1 -13 44 16.6
1 -1 13 15 7.5
-1 1 -12 11.6 9.3
1 -1 12 -2 4.2
-1 1 -11 -2 6
-1 1 -11 8.9 11.6
1 -1 11 14.2 5.5
-1 1 -10 13.7 8
-1 1 -10 28.2 10.9
1 -1 10 31 7.3
-1 1 -9 128.59 16.6
-1 1 -9 109.99 23.3
-1 1 -9 191.28 21.1
1 -1 9 168.98 19.2
1 -1 9 154.78 14.1
-1 1 -8 55.49 12.6
-1 1 -8 38.3 10.3
-1 1 -8 24.3 13.2
1 -1 8 27 10.4
1 -1 8 34 7.5
-1 1 -7 111.39 13.9
-1 1 -7 128.69 18.4
1 -1 7 100.89 13.9
-1 1 -6 523.55 29.9
-1 1 -6 510.35 28.3
-1 1 -6 497.75 34
1 -1 6 480.05 24.1
1 -1 6 504.85 27.2
-1 1 -5 261.07 18.4
-1 1 -5 260.97 21.9
1 -1 5 293.77 18.9
1 -1 5 265.47 16.4
-1 1 -4 14.4 4.5
-1 1 -3 133.89 11.4
-1 1 -3 107.39 9.9
1 -1 3 129.69 10.5
1 -1 3 104.49 9.2
-1 1 -2 2.9 2
-1 1 -2 2.1 2.1
-1 1 -2 0.1 2
1 -1 2 1.7 1.7
1 -1 2 1.5 2
-1 1 -1 140.39 8.1
-1 1 -1 145.79 9.5
1 -1 1 140.69 8.9
1 -1 1 127.59 9.5
-1 1 0 7.6 2.2
1 -1 0 9.6 2.4
-1 1 1 146.59 7.1
-1 1 1 143.89 7.2
1 -1 -1 154.18 7.4
1 -1 -1 170.78 6.8
-1 1 2 957.2 32.1
-1 1 2 898.61 30
-1 1 2 946.51 21.9
1 -1 -2 968 21.1
1 -1 -2 964.9 31.4
1 -1 -2 927.01 30.4
-1 1 3 204.68 14.4
-1 1 3 184.28 13.5
1 -1 -3 185.98 13.9
1 -1 -3 181.38 12.8
-1 1 4 2015.9 62.59
1 -1 -4 2015.8 65.09
1 -1 -4 2045.7 59.29
-1 1 5 424.66 24.5
1 -1 -5 404.26 23.2
1 -1 -5 399.26 27.2
-1 1 6 1690.03 60.19
1 -1 -6 1721.73 68.19
1 -1 -6 1689.63 58.69
-1 1 7 5.2 4.1
1 -1 -7 9.3 6.3
1 -1 -7 -1.4 2.7
-1 1 8 213.18 20.9
1 -1 -8 222.28 20.3
1 -1 -8 168.48 22.6
1 -1 -9 2.5 3.5
1 -1 -9 2.4 7.5
1 -1 -10 253.47 25.4
1 -1 -11 -2.6 5.5
1 -1 -12 30.5 10.5
-2 2 -13 45.4 17.2
-2 2 -12 -16.4 7.5
2 -2 12 -7.8 4.2
-2 2 -11 135.89 27.5
2 -2 11 116.89 14.4
-2 2 -10 94.39 21
-2 2 -10 84.79 20.3
2 -2 10 107.59 13.7
-2 2 -9 406.56 40.2
-2 2 -9 404.36 40.2
2 -2 9 444.86 28.5
-2 2 -8 204.28 22.1
-2 2 -8 241.18 24.1
-2 2 -8 223.08 26.2
2 -2 8 215.98 20.8
2 -2 8 227.28 19
-2 2 -7 64.59 13.7
-2 2 -7 68.29 16
-2 2 -7 63.79 15.9
2 -2 7 67.79 12.4
2 -2 7 69.09 14.3
-2 2 -6 -3.4 2.3
-2 2 -6 1.2 3.8
-2 2 -6 -0.2 3.7
2 -2 6 0.8 2.8
2 -2 6 -0.3 2.2
-2 2 -5 285.47 23.4
-2 2 -5 261.07 22.4
-2 2 -5 262.47 21.5
2 -2 5 281.27 19.8
2 -2 5 289.17 20.9
-2 2 -4 30.5 8.1
-2 2 -4 25.5 7.6
-2 2 -4 27.6 8.8
2 -2 4 32.5 8.9
2 -2 4 15.4 6.4
-2 2 -3 908.01 36.9
-2 2 -3 930.31 39.1
-2 2 -3 909.11 40.7
2 -2 3 866.51 37.8
2 -2 3 863.81 34.9
-2 2 -2 84.99 8.4
-2 2 -2 87.29 10.3
2 -2 2 89.69 9.4
2 -2 2 75.09 9.9
-2 2 -1 392.96 21.2
-2 2 -1 372.46 15
2 -2 1 400.36 19.5
-2 2 0 88.09 8.9
2 -2 0 95.69 8.4
-2 2 1 892.51 31
2 -2 -1 891.71 28
2 -2 -1 938.31 23
-2 2 2 94.09 7.7
2 -2 -2 96.99 7.8
2 -2 -2 96.19 6.5
2 -2 -2 101.89 11.2
-2 2 3 58.29 5.4
2 -2 -3 50.99 6.9
2 -2 -3 60.19 18.7
2 -2 -3 62.69 4.5
-2 2 4 129.59 14.5
2 -2 -4 146.09 14.3
2 -2 -4 132.59 13.4
-2 2 5 282.77 22.8
2 -2 -5 296.27 21.5
2 -2 -5 289.67 22.3
-2 2 6 60.09 13.3
2 -2 -6 58.99 12.2
2 -2 -6 48.7 11.8
-2 2 7 54.59 14.6
2 -2 -7 60.89 13.1
2 -2 -7 56.79 14.4
2 -2 -8 418.36 30
2 -2 -8 415.66 35.4
2 -2 -9 5.3 6.2
2 -2 -9 0.1 9.4
2 -2 -10 189.08 21.7
2 -2 -11 7.3 6.7
2 -2 -12 -0.3 5.6
-3 3 -12 -9.2 10.2
3 -3 12 7.9 8.3
-3 3 -11 -5.2 9
3 -3 11 -1.6 5.7
-3 3 -10 38.7 14.9
3 -3 10 55.59 12.6
-3 3 -9 5.7 8.1
-3 3 -8 102.79 20.7
-3 3 -8 105.29 22
-3 3 -8 97.59 24.6
3 -3 8 126.39 15.6
-3 3 -7 -3.5 6.3
-3 3 -7 13.1 6.9
-3 3 -7 1.9 5.6
3 -3 7 6 5
3 -3 7 -1.3 4.9
-3 3 -6 488.65 41.9
-3 3 -6 337.77 31.2
-3 3 -6 375.06 29.6
3 -3 6 365.36 26.4
-3 3 -5 125.19 15.5
-3 3 -5 113.69 15.3
-3 3 -5 116.69 21.6
3 -3 5 145.79 15.7
3 -3 5 97.79 14.4
-3 3 -4 754.62 41.3
-3 3 -4 749.53 44.8
3 -3 4 726.83 40.1
3 -3 4 759.82 37.2
-3 3 -3 87.59 10.6
-3 3 -3 89.29 15.9
3 -3 3 98.49 11.8
3 -3 3 102.19 14.2
-3 3 -2 126.29 10.3
-3 3 -2 127.89 14.9
3 -3 2 107.59 12
3 -3 2 126.59 15.6
-3 3 -1 10.1 5.6
-3 3 -1 18.5 3.7
-3 3 -1 19.8 3
3 -3 1 11.2 5.2
-3 3 0 220.28 17.7
3 -3 0 215.68 15
-3 3 1 105.89 11.6
3 -3 -1 121.69 10.5
-3 3 2 174.08 14.1
3 -3 -2 192.88 12.2
3 -3 -2 185.88 9
-3 3 3 40.8 7.7
3 -3 -3 46 6.3
3 -3 -3 47.5 12
3 -3 -3 43.1 5.1
-3 3 4 44 5.7
3 -3 -4 50.99 8
3 -3 -4 44.9 11.3
3 -3 -4 53.79 5.6
3 -3 -5 230.18 28.9
3 -3 -5 236.88 21.5
3 -3 -6 234.08 21.6
3 -3 -6 227.18 21.7
3 -3 -7 31 9.9
3 -3 -8 13.9 8.7
3 -3 -8 30.6 11
3 -3 -9 186.38 22.2
3 -3 -9 179.48 24.8
3 -3 -10 36.2 10.5
-4 4 -11 24.6 15
4 -4 11 -0.8 7.7
-4 4 -10 -0.6 9
4 -4 10 2.9 6.1
-4 4 -9 76.89 23.2
4 -4 9 124.29 17.8
-4 4 -8 32.8 14.2
4 -4 8 39 11.5
-4 4 -7 236.98 32
4 -4 7 247.48 24
-4 4 -6 38.2 11.8
4 -4 6 25.7 9.2
-4 4 -5 5.3 8.1
-4 4 -5 2.3 4.2
4 -4 5 -0.8 3.6
4 -4 5 -0.2 5.1
-4 4 -4 40.2 9.3
-4 4 -4 18.3 8.3
4 -4 4 37.2 11.4
4 -4 4 12.4 5.6
-4 4 -3 66.69 9.1
4 -4 3 53.99 14.3
4 -4 3 69.79 13.4
-4 4 -2 87.69 8.8
-4 4 -2 59.59 6.6
-4 4 -2 73.49 15.1
4 -4 2 58.99 11.5
-4 4 -1 648.14 38.2
4 -4 1 634.44 32.9
-4 4 0 29.2 10.1
4 -4 0 37.6 8.7
-4 4 1 447.86 29.3
4 -4 -1 460.05 24.6
-4 4 2 252.17 20.8
4 -4 -2 248.68 16.6
-4 4 3 284.97 20.8
4 -4 -3 285.77 27.2
4 -4 -3 303.97 17.2
-4 4 4 16.2 5.6
4 -4 -4 9.4 3.8
4 -4 -4 6.4 4
4 -4 -4 11 7.2
-4 4 5 72.89 8.1
4 -4 -5 64.99 11.1
4 -4 -5 58.89 15.1
4 -4 -6 7 5.9
4 -4 -6 0.4 4.7
4 -4 -7 8.7 8.4
4 -4 -7 17.7 8
4 -4 -8 76.69 17.5
4 -4 -8 74.59 17.7
4 -4 -9 9 11.5
4 -4 -9 -1.8 7.2
5 -5 9 7 6.9
5 -5 8 2.5 5.8
-5 5 -7 25 11.4
5 -5 7 24.9 8.5
-5 5 -6 217.28 22.4
5 -5 6 190.18 21.4
-5 5 -5 4.1 6.8
5 -5 5 -3.9 3.9
-5 5 -4 76.99 15.2
5 -5 4 85.79 16.8
-5 5 -3 251.27 17.1
-5 5 -3 237.38 15.8
5 -5 2 5.7 4.5
-5 5 -1 4.2 8.1
5 -5 1 29.1 8.7
-5 5 0 10.7 8.2
5 -5 0 8 4.8
-5 5 1 75.89 16.7
5 -5 -1 69.19 12.3
-5 5 2 13.7 9.6
5 -5 -2 22.5 7
-5 5 3 52.09 11.9
5 -5 -3 41.1 9.3
5 -5 -3 39.7 13.7
-5 5 4 15.7 7
5 -5 -4 24.3 6
5 -5 -4 7.4 8.3
-5 5 5 141.79 24.9
5 -5 -5 122.59 23.6
5 -5 -6 24.5 7.8
5 -5 -6 44.2 14
5 -5 -7 179.28 24.6
5 -5 -8 13.3 9.7
-6 6 -7 -7.7 25
6 -6 7 -6.1 7.3
-6 6 -6 -15.5 10.6
6 -6 6 6 6.9
-6 6 -5 -0.7 9.4
-6 6 -5 -2 8.1
6 -6 5 24.9 10.4
-6 6 -4 4.2 5.4
-6 6 -4 5.2 5.3
6 -6 4 17.8 8.1
6 -6 3 20.7 8.7
6 -6 2 27.2 8.8
6 -6 1 -6.3 4.1
6 -6 0 278.37 23.8
6 -6 -1 28.4 8.4
-6 6 2 36.5 14.5
6 -6 -2 11.3 6.7
6 -6 -2 4.6 8.9
-6 6 3 115.59 22.5
6 -6 -3 91.19 20.4
6 -6 -3 120.89 15
-6 6 4 -18.5 11.6
6 -6 -4 13.5 8.5
6 -6 -5 42.3 14.6
7 -6 0 3.4 8
7 -6 1 -6.3 6.6
7 -6 2 142.79 18.6
7 -6 3 37.2 10.9
6 -5 -4 230.58 18.1
6 -5 -4 242.08 29.9
-6 5 4 230.78 23.1
6 -5 -3 185.18 25.2
6 -5 -3 228.58 17.9
-6 5 3 178.78 22.4
6 -5 -2 134.59 26.4
6 -5 -2 197.68 17.3
-6 5 2 188.68 24.2
6 -5 -1 18.6 5.7
-6 5 1 -1.8 10
6 -5 0 204.78 20.3
6 -5 1 4.8 6.2
6 -5 2 185.88 20.1
6 -5 3 -1.7 4.4
6 -5 4 8.7 6.4
-6 5 -4 0 3.9
6 -5 5 0.2 5.5
6 -5 6 19.7 9.6
-6 5 -6 23.1 11.4
6 -5 7 33.4 10.8
-6 5 -7 39 14.4
6 -5 8 15.6 7.2
-6 5 -8 31.8 17.4
5 -4 -8 26.4 14.2
5 -4 -8 73.09 18.8
5 -4 -7 31.6 11.5
5 -4 -7 40 10.9
5 -4 -6 1 5.3
5 -4 -6 30.3 11.2
5 -4 -5 62.89 7.6
5 -4 -5 32.3 11.9
-5 4 5 42.7 8.1
5 -4 -4 2.4 3
-5 4 4 -1.9 4.4
5 -4 -3 0.2 3.4
5 -4 -3 -7.5 5.6
-5 4 3 6.3 5.5
5 -4 -2 19.5 6.1
5 -4 -2 12.8 7.6
-5 4 2 27.3 9.5
5 -4 -1 1.3 3.9
-5 4 1 11 6.6
5 -4 0 2.6 2.4
-5 4 0 -0.7 5.8
5 -4 1 39.2 9.8
5 -4 2 146.69 16.2
-5 4 -2 115.19 22
5 -4 3 133.19 16.9
-5 4 -3 143.29 20.9
-5 4 -3 145.69 11.4
5 -4 4 6.1 5.1
-5 4 -4 13.2 6.2
5 -4 5 49.8 12.7
-5 4 -5 61.09 12.8
5 -4 6 280.67 26
-5 4 -6 233.48 22.3
5 -4 7 -1.7 5.6
-5 4 -7 12.8 7.3
5 -4 8 242.08 25.2
-5 4 -8 255.67 28.8
5 -4 9 9.6 6.7
5 -4 10 17.2 8.9
4 -3 -10 -11.1 7.4
4 -3 -9 36 15.2
4 -3 -9 37.1 12.8
4 -3 -8 166.28 21.3
4 -3 -8 144.49 19.9
4 -3 -7 82.69 16.8
4 -3 -7 112.89 16.7
4 -3 -6 -0.7 5.5
4 -3 -6 6.3 7.1
4 -3 -5 4.4 4.7
4 -3 -5 9.5 4.6
4 -3 -4 92.99 18.2
4 -3 -4 93.49 10.2
4 -3 -4 104.09 8.1
-4 3 4 116.79 11.3
4 -3 -3 559.94 36.5
4 -3 -3 507.65 18.8
4 -3 -3 507.65 21.7
-4 3 3 511.05 27.4
4 -3 -2 370.66 19.9
4 -3 -2 325.77 27.7
-4 3 2 323.47 22.9
4 -3 -1 70.19 13.6
-4 3 1 73.59 13.6
4 -3 0 26.9 7.1
-4 3 0 29.1 9.4
4 -3 1 58.29 11.5
-4 3 -1 91.89 12.9
4 -3 2 401.86 30.7
4 -3 2 410.76 26.8
-4 3 -2 422.36 17.5
-4 3 -2 402.56 30.4
4 -3 3 -3.1 4
4 -3 3 -2.5 2.2
-4 3 -3 5 5.2
-4 3 -3 0.1 2.4
4 -3 4 129.99 15.7
4 -3 4 130.69 18
-4 3 -4 115.99 12.8
-4 3 -4 129.59 18.6
4 -3 5 1.3 3.1
4 -3 5 -12.4 5.1
-4 3 -5 4.4 4.4
-4 3 -5 -3.7 6.3
4 -3 6 111.79 21.1
4 -3 6 120.99 16
-4 3 -6 111.99 15.4
-4 3 -6 109.49 21
4 -3 7 18.5 8.1
-4 3 -7 21.5 9.6
4 -3 8 147.39 19
-4 3 -8 165.58 22.6
-4 3 -8 149.49 28.4
4 -3 9 150.18 18.8
-4 3 -9 129.29 26.2
4 -3 10 25.2 8.9
-4 3 -10 2.4 10.8
4 -3 11 -1.7 5
-4 3 -11 26.1 13
4 -3 12 10.8 6.9
-4 3 -12 -3.6 10.4
3 -2 -11 0.8 8.1
3 -2 -10 97.49 21.2
3 -2 -9 33.8 18.2
3 -2 -9 58.79 16.9
3 -2 -8 581.24 38
3 -2 -7 26.8 10
3 -2 -7 24.8 9.1
3 -2 -6 73.59 15.4
3 -2 -6 104.29 14
3 -2 -5 147.29 15.8
3 -2 -5 145.19 16.1
3 -2 -4 8.7 4.4
3 -2 -4 7.1 4.5
3 -2 -4 7.4 1.8
3 -2 -3 125.99 8.1
3 -2 -3 116.19 10.5
3 -2 -3 136.89 14.8
-3 2 3 133.59 10.5
3 -2 -2 8.2 3
3 -2 -2 16.2 3.4
3 -2 -2 10.1 5.2
-3 2 2 8.4 3.7
3 -2 -1 190.98 13.4
-3 2 1 202.68 15.5
3 -2 0 683.33 29.3
-3 2 0 624.34 31
3 -2 1 475.85 25.1
-3 2 -1 444.26 14.1
-3 2 -1 454.55 27
3 -2 2 35.2 9.1
-3 2 -2 35.1 5.2
-3 2 -2 45.7 10.3
3 -2 3 36.3 8.9
3 -2 3 22.8 8.1
-3 2 -3 25.3 6.8
-3 2 -3 20.4 8
3 -2 4 200.08 18.6
3 -2 4 191.98 17.9
-3 2 -4 179.18 18.8
-3 2 -4 171.08 15.9
3 -2 5 645.94 36.3
3 -2 5 690.43 36.7
-3 2 -5 696.73 40.7
-3 2 -5 623.54 39.6
-3 2 -5 713.53 38.1
3 -2 6 332.87 26
3 -2 6 362.46 26.5
-3 2 -6 382.96 30
-3 2 -6 371.36 29.9
-3 2 -6 348.97 30.3
3 -2 7 244.68 21.4
3 -2 7 226.88 21.4
-3 2 -7 219.38 24.5
-3 2 -7 268.57 27.1
-3 2 -7 212.88 24.1
3 -2 8 32.5 9.6
3 -2 8 41 11.2
-3 2 -8 42.4 12.9
-3 2 -8 10.4 8.7
-3 2 -8 33.8 13.1
3 -2 9 64.89 13.9
-3 2 -9 57.89 17.9
-3 2 -9 46.5 13.2
-3 2 -10 113.59 25.7
3 -2 11 24.5 9.2
-3 2 -11 24.2 13.8
3 -2 12 15.1 8.9
-3 2 -12 -0.8 11.8
2 -1 -12 29.9 11.7
2 -1 -11 4.1 6.9
2 -1 -10 0.9 7.6
2 -1 -9 140.69 31.6
2 -1 -9 172.28 19.4
2 -1 -8 42.1 11.2
2 -1 -8 45.8 15
2 -1 -7 -0.3 4
2 -1 -7 1.9 2.9
-2 1 7 1.5 3.8
2 -1 -6 285.27 24.8
2 -1 -6 275.27 21.8
-2 1 6 280.17 23.8
2 -1 -5 218.18 19.7
2 -1 -5 180.48 16
-2 1 5 181.98 17.6
2 -1 -4 -0.1 1.6
2 -1 -4 7.6 3.4
-2 1 4 3.4 3.4
2 -1 -3 93.49 10.4
2 -1 -3 89.89 4.3
2 -1 -3 86.39 9.7
-2 1 3 90.99 10.8
2 -1 -2 44.5 5.9
2 -1 -2 45.1 4.4
2 -1 -2 47.3 8.8
-2 1 2 46.6 5.1
2 -1 -1 3337.77 77.09
2 -1 -1 3194.38 71.69
-2 1 1 3217.38 78.79
2 -1 0 29.8 6.1
-2 1 0 22.4 5.5
2 -1 1 715.53 21.5
2 -1 1 693.83 28.3
-2 1 -1 733.73 30.1
-2 1 -1 708.43 21.4
2 -1 2 86.29 9.8
2 -1 2 82.19 9.3
2 -1 2 83.19 7.9
-2 1 -2 77.79 9.8
-2 1 -2 84.29 7.9
2 -1 3 2167.78 64.79
2 -1 3 2215.18 65.09
2 -1 3 2120.99 62.89
-2 1 -3 2043.2 62.39
-2 1 -3 2151.98 67.09
-2 1 -3 2126.29 66.39
2 -1 4 180.08 16.1
2 -1 4 203.38 16
2 -1 4 187.48 15.6
-2 1 -4 199.08 17.3
-2 1 -4 174.18 16.1
-2 1 -4 172.98 16.4
2 -1 5 48 10.1
-2 1 -5 40.7 10.5
-2 1 -5 35.6 8.8
-2 1 -5 44.5 10.8
2 -1 6 99.59 12
2 -1 6 98.79 12
-2 1 -6 85.89 13.9
-2 1 -6 106.89 14.8
-2 1 -6 109.69 14.8
2 -1 7 67.69 13.2
2 -1 7 64.59 11.9
-2 1 -7 66.89 14.3
-2 1 -7 76.19 16.4
-2 1 -7 84.19 17.5
2 -1 8 143.39 15.1
2 -1 8 121.19 15.1
-2 1 -8 123.39 17.6
-2 1 -8 126.29 17.7
2 -1 9 218.48 19.6
2 -1 9 206.08 22.2
-2 1 -9 242.78 24.9
-2 1 -9 202.28 23.3
-2 1 -9 254.37 28.7
2 -1 10 815.22 39.5
-2 1 -10 792.02 58.29
-2 1 -10 764.92 49.1
2 -1 11 149.69 16.7
-2 1 -11 105.49 24.2
-2 1 -11 160.48 26.7
2 -1 12 21.6 8.2
-2 1 -12 30.9 14.6
2 -1 13 -4.1 5
-2 1 -13 3.1 10.5
1 0 -12 52.49 16.1
1 0 -11 16.6 10.5
1 0 -10 -2.6 5.8
1 0 -10 0.6 3.3
1 0 -9 15 7.7
1 0 -8 76.29 8.2
-1 0 8 125.99 15.8
1 0 -7 33 10.8
1 0 -7 69.39 13.8
1 0 -7 46.4 5.9
-1 0 7 56.39 12.6
1 0 -6 42.3 11.3
1 0 -5 2.2 3.8
1 0 -4 694.03 29
1 0 -4 685.13 33.9
1 0 -4 681.23 19.2
-1 0 4 623.94 32.7
-1 0 3 132.09 10.7
1 0 -2 6.8 2.9
-1 0 2 7.3 3.2
1 0 -1 1323.77 35.8
1 0 -1 1343.17 32.6
-1 0 1 1330.27 36
1 0 0 3.5 1.7
-1 0 0 3.1 1.7
-1 0 0 2.8 1.3
1 0 1 159.58 8.4
1 0 1 149.29 8.6
1 0 1 148.79 9.3
-1 0 -1 136.09 7.9
-1 0 -1 155.78 9.7
1 0 2 147.89 9.3
1 0 2 146.79 10.4
1 0 2 142.09 10.3
-1 0 -2 145.59 10.4
-1 0 -2 152.58 10.6
-1 0 -2 139.99 9.7
1 0 3 6.3 3
1 0 3 14.2 3.9
1 0 3 0.8 2.5
-1 0 -3 7.1 3.6
-1 0 -3 6.6 3.7
-1 0 -3 11.8 3.8
1 0 4 1479.25 44.8
1 0 4 1415.86 45.2
1 0 4 1435.76 52.19
-1 0 -4 1453.05 52.79
-1 0 -4 1435.16 47.1
-1 0 -4 1427.86 45.6
1 0 5 582.64 26.3
1 0 5 517.95 31.7
1 0 5 563.64 26
-1 0 -5 654.33 29.3
-1 0 -5 535.35 32.3
-1 0 -5 517.65 26.9
1 0 6 939.81 47.4
1 0 6 906.91 37.4
1 0 6 923.81 36
-1 0 -6 923.21 47.7
-1 0 -6 923.81 39.8
-1 0 -6 979.7 40.5
1 0 7 732.43 31.8
1 0 7 692.93 34
-1 0 -7 709.73 44.1
-1 0 -7 739.43 36.6
-1 0 -7 632.34 34.8
1 0 8 3.7 3.1
1 0 8 -0.5 3.5
-1 0 -8 11.5 7
-1 0 -8 -2.1 4.5
-1 0 -8 -0.5 3
1 0 9 440.36 24.6
1 0 9 459.75 31.2
-1 0 -9 434.76 38.2
-1 0 -9 428.16 30.5
-1 0 -9 446.66 31.9
1 0 10 21.9 6.4
-1 0 -10 21.7 7.6
-1 0 -10 5.7 5.2
1 0 11 1 3.3
-1 0 -11 7.3 7.2
1 0 12 22 6.3
-1 0 -12 21.8 10.9
-1 0 -12 22.7 12.9
-1 0 -13 43.8 16.4
-1 0 -13 35.4 15.8
0 1 -12 -13.6 7.2
0 1 -12 4.8 9.7
0 -1 12 5.3 5
0 1 -11 92.49 20.5
0 1 -11 79.19 15.7
0 -1 11 71.79 9.2
0 1 -10 -1 5.5
0 -1 10 1.3 3.3
0 1 -9 48.9 14
0 1 -9 52.69 11.2
0 -1 9 68.89 9.1
0 1 -8 505.85 28.9
0 1 -8 520.45 40.6
0 1 -8 531.55 34.1
0 -1 8 540.95 23.3
0 -1 8 490.55 32
0 1 -7 15.5 6.2
0 1 -7 14.2 6.1
0 1 -7 16.3 7
0 -1 7 12.9 4.3
0 -1 7 12.6 6
0 1 -6 252.97 24
0 1 -6 223.08 16
0 1 -6 224.48 18.2
0 -1 6 218.18 12.9
0 -1 6 219.38 17.6
0 1 -5 1167.08 51.09
0 1 -5 1073.19 37.6
0 -1 5 1132.49 33.7
0 -1 5 1121.89 41.2
0 1 -4 60.99 6.8
0 1 -4 55.99 7.6
0 1 -4 60.79 9.4
0 -1 4 58.99 5.7
0 -1 4 57.39 7.2
0 1 -3 533.95 22.4
0 1 -3 600.54 20.8
0 -1 3 576.84 19.1
0 -1 3 587.04 22.4
0 1 -2 314.37 14.3
0 1 -2 324.67 12.6
0 -1 2 305.77 13.6
0 -1 2 327.67 12.2
0 1 -1 64.49 4.3
0 1 -1 59.79 4.6
0 -1 1 69.09 4.6
0 -1 1 64.29 4.7
0 1 0 269.57 9.7
0 1 0 256.57 11.2
0 -1 0 261.07 11.4
0 1 1 303.17 10.4
0 1 1 295.97 12.8
0 -1 -1 294.37 12.8
0 -1 -1 301.97 10.2
0 1 2 150.18 10.5
0 1 2 148.29 7.9
0 1 2 152.88 8.5
0 -1 -2 151.28 8.4
0 -1 -2 154.78 10.6
0 1 3 175.68 13.4
0 1 3 162.28 9
0 1 3 156.48 10.1
0 -1 -3 160.48 13
0 -1 -3 146.19 8.7
0 -1 -3 153.38 10.2
0 1 4 62.89 7.2
0 1 4 57.69 5.8
0 1 4 73.99 9.9
0 -1 -4 63.49 9.6
0 -1 -4 63.59 7.5
0 -1 -4 62.49 6.1
0 1 5 29.9 8.5
0 1 5 30.1 6.9
0 1 5 26.5 5.1
0 -1 -5 30.1 6.9
0 -1 -5 16 6.6
0 -1 -5 20.9 5
0 1 6 389.86 23.5
0 1 6 436.76 18.7
0 1 6 430.46 30.4
0 -1 -6 388.86 19.9
0 -1 -6 410.76 23.7
0 -1 -6 423.66 30.1
0 1 7 4.5 2.8
0 1 7 4.9 5
0 1 7 1.5 3.8
0 -1 -7 4 4.8
0 -1 -7 10.9 4.1
0 -1 -7 7.8 4.9
0 1 8 1.2 2.6
0 1 8 2.7 4
0 -1 -8 4.4 5.8
0 -1 -8 1.7 3.3
0 -1 -8 1.2 5.2
0 1 9 491.45 32.9
0 1 9 510.65 21.3
0 -1 -9 511.35 33.5
0 -1 -9 477.55 26.2
0 -1 -9 486.05 40.6
0 1 10 178.38 12
0 -1 -10 160.38 15.6
0 -1 -10 177.68 21
0 1 11 6.2 2.9
0 -1 -11 -3.7 4.9
0 1 12 45.1 6.8
0 -1 -12 66.59 17.6
0 1 13 8.9 4.4
0 -1 -13 24.2 17
-1 2 -12 26 15.1
-1 2 -12 33.4 15.6
1 -2 12 39.3 10.2
-1 2 -11 66.69 17.6
-1 2 -11 61.39 16.4
1 -2 11 41.5 9.5
-1 2 -10 89.09 18.7
-1 2 -10 34.2 11.9
1 -2 10 72.49 9.8
-1 2 -9 602.14 38.3
-1 2 -9 580.14 39.9
1 -2 9 621.54 30.5
-1 2 -8 124.09 18.7
-1 2 -8 125.79 17.1
-1 2 -8 119.19 17.1
1 -2 8 133.29 15.8
1 -2 8 118.99 12.3
-1 2 -7 10.9 5.7
-1 2 -7 6.9 6.4
-1 2 -7 9.7 5.4
1 -2 7 -1 4.2
-1 2 -6 836.92 40.9
-1 2 -6 774.12 37.7
-1 2 -6 806.02 45.9
1 -2 6 844.72 38
1 -2 6 827.02 33.3
-1 2 -5 311.67 21.4
-1 2 -5 358.26 24.4
-1 2 -5 405.16 28.7
1 -2 5 324.77 19
1 -2 5 384.56 22.8
-1 2 -4 858.01 36.7
-1 2 -4 859.31 42.1
-1 2 -4 913.31 38.2
1 -2 4 858.01 35.1
1 -2 4 872.31 32.4
-1 2 -3 95.69 9.7
1 -2 3 86.59 8.5
1 -2 3 115.89 10.7
-1 2 -2 174.18 13.4
-1 2 -2 180.18 12.2
1 -2 2 186.88 13.3
1 -2 2 176.88 11.4
-1 2 -1 1729.43 46.5
1 -2 1 1698.93 49.4
1 -2 1 1609.74 44.4
-1 2 0 42.6 4.7
-1 2 0 41.8 5
1 -2 0 36 4.2
-1 2 1 44.4 4.9
-1 2 1 57.59 4.9
1 -2 -1 44.1 5.1
-1 2 2 8.1 3.1
1 -2 -2 9 3.8
1 -2 -2 9.8 3.4
-1 2 3 1062.49 26.1
-1 2 3 1072.59 38.8
-1 2 3 1100.29 38.5
1 -2 -3 1088.89 37.4
1 -2 -3 1072.79 38.6
-1 2 4 186.08 8.6
1 -2 -4 195.78 16
-1 2 5 425.66 27.1
-1 2 5 418.56 11.4
-1 2 5 370.76 12.1
-1 2 5 427.36 25.4
1 -2 -5 434.16 24
1 -2 -5 388.96 26.1
1 -2 -6 168.68 29
-1 2 7 9.1 5.7
1 -2 -7 13.8 6.6
1 -2 -7 9.5 7.4
-1 2 8 120.59 15.6
1 -2 -8 100.39 20.3
1 -2 -8 169.18 17.6
1 -2 -9 11.8 4.9
1 -2 -10 50.39 12.7
1 -2 -11 35.5 11.3
1 -2 -12 52.29 14.7
1 -2 -13 9.5 9.7
-2 3 -12 20.5 21.9
2 -3 12 15.3 6.7
-2 3 -11 8.3 10.8
2 -3 11 6.5 6.5
-2 3 -10 22.9 12.7
2 -3 10 31.8 8.6
-2 3 -9 -1.4 8.8
-2 3 -9 10 8.7
2 -3 9 -1.7 3.8
-2 3 -8 173.48 22.7
-2 3 -8 202.98 22.3
-2 3 -8 155.48 21.9
2 -3 8 175.98 19
2 -3 8 176.88 16.9
-2 3 -7 2.9 5.3
-2 3 -7 -0.2 4.7
2 -3 7 0 2.4
2 -3 7 6.2 5.2
-2 3 -6 223.88 23.6
-2 3 -6 243.18 24.5
-2 3 -6 221.68 21.2
2 -3 6 222.58 18.3
2 -3 6 213.28 19.9
-2 3 -5 108.89 15.7
-2 3 -5 88.79 12.9
-2 3 -5 98.29 13.5
2 -3 5 90.49 12.1
2 -3 5 83.79 10.8
-2 3 -4 102.29 13.6
-2 3 -4 123.79 15.8
-2 3 -4 112.39 13.5
2 -3 4 111.19 11.9
2 -3 4 88.19 11.9
-2 3 -3 278.87 20.3
2 -3 3 309.37 21.8
2 -3 3 284.47 18.7
-2 3 -2 956.3 39.5
2 -3 2 1031.9 42.4
2 -3 2 1050.79 38
2 -3 1 8.6 3.8
-2 3 0 268.67 13.7
-2 3 0 299.57 17.6
2 -3 0 239.68 14.5
-2 3 1 43.6 6.1
-2 3 1 45.2 4.9
2 -3 -1 50.09 5.9
2 -3 -1 46.6 5
-2 3 2 3368.06 82.89
-2 3 2 3339.07 80.59
2 -3 -2 3393.66 82.39
2 -3 -2 3584.14 80.49
-2 3 3 133.49 11.3
-2 3 3 132.49 9.4
2 -3 -3 159.88 15.2
2 -3 -3 167.38 10
2 -3 -3 145.39 12.2
-2 3 4 104.99 11.5
-2 3 4 100.89 7.1
2 -3 -4 98.59 11.2
2 -3 -4 94.89 12.4
-2 3 5 33.7 9.5
-2 3 5 35.9 3.4
2 -3 -5 45.3 11.2
2 -3 -5 34 10.9
-2 3 6 2.8 3.5
2 -3 -6 2.9 4.7
2 -3 -6 6.4 4.9
-2 3 7 45.3 12
2 -3 -7 49.5 12.2
2 -3 -7 42.7 12.1
2 -3 -8 199.28 23.5
2 -3 -8 214.08 21.5
2 -3 -9 39.2 15
2 -3 -9 26.8 10.4
2 -3 -10 17.7 8.2
2 -3 -11 29.1 10.8
2 -3 -12 6.2 8
-3 4 -11 -4.7 13.4
3 -4 11 -4.5 5.5
-3 4 -10 -4.2 8
3 -4 10 -6.6 4.4
-3 4 -9 121.89 25.8
3 -4 9 104.49 14.7
-3 4 -8 88.69 19.7
-3 4 -8 119.39 27
3 -4 8 132.39 16.5
-3 4 -7 12.5 8.1
-3 4 -7 3.7 7.9
3 -4 7 16.2 6.7
-3 4 -6 43.4 13.2
-3 4 -6 23 11.1
-3 4 -6 43.9 14.3
3 -4 6 42.2 12.7
3 -4 6 55.39 12.4
-3 4 -5 132.29 17.3
-3 4 -5 116.79 17
3 -4 5 135.89 15.3
-3 4 -4 31.2 8.4
-3 4 -4 23.1 8.9
3 -4 4 19.5 8.7
3 -4 4 33.3 9.2
-3 4 -3 20 7.8
-3 4 -3 33.5 8.4
3 -4 3 21.9 7
3 -4 3 32.2 10.4
-3 4 -2 64.09 8.7
-3 4 -2 73.89 14.9
3 -4 2 68.69 14.3
3 -4 2 74.69 9.8
-3 4 -1 5.9 4.1
-3 4 -1 7.2 3.2
3 -4 1 4.9 3
-3 4 0 139.19 8.9
-3 4 0 158.88 15.5
3 -4 0 171.08 13.7
-3 4 1 13.6 2.1
-3 4 1 5.8 4
3 -4 -1 13.5 5.2
-3 4 2 72.59 5.9
-3 4 2 68.29 9.7
3 -4 -2 64.99 7.7
3 -4 -2 67.69 6.2
-3 4 3 28.7 5.7
-3 4 3 31 6.8
3 -4 -3 12.5 6.5
3 -4 -3 30 6.4
3 -4 -3 21.7 5.5
-3 4 4 8.4 4.1
3 -4 -4 6.1 4.2
3 -4 -4 6.1 4.1
-3 4 5 28.6 5.5
3 -4 -5 10.7 5.9
3 -4 -5 14 6.5
3 -4 -6 476.45 33
3 -4 -6 435.56 29.7
3 -4 -7 7.6 6.4
3 -4 -8 355.46 31.4
3 -4 -8 404.16 32
3 -4 -9 201.38 26.1
3 -4 -9 180.28 22.9
3 -4 -10 142.09 20.1
-4 5 -10 5.1 12.6
4 -5 10 1.3 6.4
4 -5 9 75.89 16.1
4 -5 8 6.1 4.5
-4 5 -7 10.8 8.4
4 -5 7 -4.9 3.6
-4 5 -6 905.81 50.69
4 -5 6 877.11 46.9
-4 5 -5 10 7
-4 5 -4 75.09 14.8
4 -5 4 49.3 20.8
4 -5 4 66.79 14
-4 5 -3 4.4 5.3
-4 5 -3 -5.2 6.3
4 -5 3 20.8 9.2
4 -5 3 16.9 5.9
-4 5 -2 24.1 5.9
-4 5 -2 38.9 11.1
-4 5 -2 19.3 6.1
4 -5 2 19 9.2
4 -5 2 22.8 7.7
-4 5 -1 110.89 8.1
-4 5 -1 106.59 18.9
-4 5 -1 92.39 8.2
4 -5 1 101.69 12.2
-4 5 0 102.49 14.9
4 -5 0 124.29 13.5
-4 5 1 4.2 6.2
4 -5 -1 3.1 2.8
-4 5 2 41.6 10.5
4 -5 -2 35.1 7.9
-4 5 3 -10.7 4.5
4 -5 -3 -1.5 3.4
4 -5 -3 -1.3 5
-4 5 4 18.9 6.5
4 -5 -4 25.1 6.5
4 -5 -4 23.9 5.1
-4 5 5 61.69 10.1
4 -5 -5 68.09 16.7
4 -5 -5 65.99 9.9
-4 5 6 -1.5 3
4 -5 -6 -0.2 5.4
4 -5 -6 -0.2 5.7
4 -5 -7 16.2 9.2
4 -5 -7 2.2 7.9
4 -5 -8 34.3 11.2
4 -5 -8 51.29 15
4 -5 -9 -22.2 10.4
-5 6 -7 8.5 12.3
5 -6 7 12.8 7.3
-5 6 -6 47.5 13.8
5 -6 6 35.6 9.1
-5 6 -5 -15.9 7
-5 6 -4 239.78 36.3
-5 6 -4 237.48 20.1
5 -6 4 217.48 21.7
-5 6 -3 19.4 7.2
-5 6 -3 27.8 6.7
5 -6 3 21.8 8.1
-5 6 -2 55.59 5.5
-5 6 -2 64.29 5.7
5 -6 2 48.4 12
5 -6 1 71.19 14
-5 6 0 20.7 9.9
5 -6 0 2.3 5.6
-5 6 1 34.7 12.8
5 -6 -1 25.6 7.7
5 -6 -2 63.69 11.9
-5 6 3 68.19 14.3
5 -6 -3 38.8 14.4
5 -6 -3 41.9 10
-5 6 4 166.98 18.4
5 -6 -4 109.39 21.7
-5 6 5 6.2 8
5 -6 -5 6.2 8.8
5 -6 -6 65.39 18.2
5 -6 -7 3.9 9.3
5 -6 -7 1.6 6.4
-6 7 -5 -22 14.3
6 -7 5 42.2 12.3
-6 7 -4 -8.5 6.7
-6 7 -4 6.8 6.9
6 -7 4 -1.6 5.9
6 -7 3 26 10.3
6 -7 2 159.48 19.2
6 -7 1 -0.9 5.5
6 -7 0 20.7 7.4
6 -7 -1 5.5 6.6
6 -7 -2 16 6.9
6 -7 -2 -15.4 10.2
6 -7 -3 33.1 10.6
6 -7 -3 9 9.8
7 -5 -2 4.7 6.5
7 -5 -2 24 11.1
7 -5 -1 5.2 6.8
7 -5 0 3.6 5.7
7 -5 1 -10.6 5.2
7 -5 2 -10.5 6
7 -5 3 10.7 8.5
7 -5 4 5.1 6.5
7 -5 5 56.69 14.3
6 -4 -6 11.7 12
6 -4 -5 -6.5 8.8
6 -4 -4 34.7 8.2
6 -4 -4 34.8 13.1
-6 4 4 20.4 10.1
6 -4 -3 1.6 8
6 -4 -3 15.1 5.9
-6 4 3 14.5 8.6
6 -4 -2 -0.5 4.2
6 -4 -2 22.5 9.8
-6 4 2 -4.4 7.6
6 -4 -1 13.1 6.6
-6 4 1 16.9 9.6
6 -4 0 64.39 12.9
-6 4 0 79.89 18.4
6 -4 1 11.9 6.2
-6 4 -1 22.4 14.8
6 -4 3 14.5 6.6
6 -4 4 50.09 12.7
6 -4 5 37.8 12.5
-6 4 -5 44.2 15.3
6 -4 6 86.69 18.6
-6 4 -6 108.39 18.1
6 -4 7 342.07 32.1
-6 4 -7 385.66 31.3
6 -4 8 24.6 9.5
-6 4 -8 31.3 17.4
6 -4 9 0.6 7.6
5 -3 -8 38.6 13
5 -3 -8 2 15.4
5 -3 -7 150.58 18.8
5 -3 -7 111.19 21.6
5 -3 -6 13.1 7.8
5 -3 -6 22.4 8.6
5 -3 -5 137.29 13.4
5 -3 -5 137.99 19.6
5 -3 -4 81.39 7.4
5 -3 -4 79.59 18
5 -3 -4 72.99 7.3
5 -3 -4 73.99 7.5
-5 3 4 59.99 10.4
5 -3 -3 -3.8 2.3
-5 3 3 -2.4 5.1
5 -3 -2 10.4 8
5 -3 -2 11.2 4.6
-5 3 2 2.3 6.4
5 -3 -1 50.89 10.9
-5 3 1 48.5 12.9
5 -3 0 -1.3 4.2
-5 3 0 1.1 4.1
5 -3 1 58.19 12.4
-5 3 -1 55.99 15.1
5 -3 2 21.4 8.7
-5 3 -2 29.4 11.8
5 -3 3 29.9 10.7
5 -3 3 21.2 9.1
-5 3 -3 25.7 5.7
-5 3 -3 45.6 13.8
5 -3 4 18.7 8.8
5 -3 4 -6.8 9.3
-5 3 -4 23 6.7
-5 3 -4 14.3 8.4
5 -3 5 204.28 21.7
-5 3 -5 163.38 17.7
5 -3 6 3.6 5.1
-5 3 -6 4.6 6.8
5 -3 7 33.9 10
-5 3 -7 27 11.6
5 -3 8 8.5 7.5
-5 3 -8 8.1 10.6
5 -3 9 40.8 13
5 -3 10 18.9 9.9
-5 3 -11 4.5 12.3
4 -2 -10 4.5 9.9
4 -2 -9 38 11.2
4 -2 -8 85.09 17.4
4 -2 -8 123.99 23
4 -2 -7 -1.5 5.6
4 -2 -7 5.4 6.1
4 -2 -6 19.9 8.4
4 -2 -6 28.9 11.1
4 -2 -5 11 7.2
4 -2 -5 16.4 6.8
4 -2 -4 -0.2 2.8
4 -2 -4 -0.3 3.1
4 -2 -3 142.49 10.7
4 -2 -3 131.19 11.1
4 -2 -3 136.79 17
-4 2 3 137.19 12.7
4 -2 -2 129.89 11.6
4 -2 -2 118.49 15.6
4 -2 -2 114.79 7.1
4 -2 -2 120.39 7.6
-4 2 2 112.19 13.1
4 -2 -1 360.56 21.8
-4 2 1 356.76 24.6
4 -2 0 107.09 12.4
-4 2 0 118.89 14.5
4 -2 1 26.7 7.9
-4 2 -1 30.7 9.4
4 -2 2 146.29 15.9
-4 2 -2 121.29 9.1
-4 2 -2 177.68 19.3
4 -2 3 15.2 8.3
4 -2 3 15.4 6.8
-4 2 -3 16.4 4.9
-4 2 -3 17.1 7.5
4 -2 4 268.97 24.2
4 -2 4 287.07 23.8
-4 2 -4 285.57 26
-4 2 -4 284.97 20.7
4 -2 5 7.5 5.7
4 -2 5 24.2 8
-4 2 -5 11.8 5.7
-4 2 -5 8.3 5.5
4 -2 6 63.49 14.3
4 -2 6 65.99 14.9
-4 2 -6 87.19 13
-4 2 -6 62.59 15.3
4 -2 7 42.1 11.2
4 -2 7 64.49 15.1
-4 2 -7 51.69 13.8
-4 2 -7 21.7 11.1
-4 2 -7 45.1 12.2
4 -2 8 49.99 13
-4 2 -8 57.79 15.5
4 -2 9 20.4 6.9
-4 2 -9 21.4 10.3
4 -2 10 -3.4 4.6
-4 2 -10 -1.2 9.5
4 -2 11 20.2 9.6
-4 2 -11 32.5 14.1
4 -2 12 2 6.1
3 -1 -11 30.1 11.2
3 -1 -10 38 12.5
3 -1 -9 6.7 5.8
3 -1 -8 6.2 5
3 -1 -8 -8.7 5
3 -1 -7 21.9 8.3
3 -1 -7 19.3 8.8
3 -1 -6 18.7 7.6
3 -1 -6 20.4 8.5
-3 1 6 17.8 9.5
3 -1 -5 90.29 12.9
3 -1 -5 64.19 13
3 -1 -4 449.46 28.2
3 -1 -4 498.95 28.9
3 -1 -4 507.35 14.4
3 -1 -3 133.19 8.9
3 -1 -3 127.19 12.1
3 -1 -3 135.59 14.2
3 -1 -2 240.48 14.5
3 -1 -2 252.17 19.4
3 -1 -2 241.18 14.5
-3 1 2 250.57 15.6
3 -1 -1 1.3 2.7
3 -1 -1 4.9 2.1
-3 1 1 1.3 2.5
3 -1 0 12.2 4.9
3 -1 0 16.7 2.6
-3 1 0 15 5.6
3 -1 1 14.1 3
3 -1 1 10.4 5.1
-3 1 -1 13.5 3.2
-3 1 -1 15.8 5.9
3 -1 2 294.67 21.5
3 -1 2 282.37 20.5
3 -1 2 288.97 15.4
-3 1 -2 272.97 15.3
-3 1 -2 295.97 21.9
3 -1 3 3 2.6
3 -1 3 3.6 3.6
3 -1 3 8.2 4
-3 1 -3 -0.1 3
-3 1 -3 8.7 5
3 -1 4 314.57 21.7
3 -1 4 295.77 22
3 -1 4 308.37 23.2
-3 1 -4 305.97 21.1
-3 1 -4 299.27 24
3 -1 5 143.49 15
3 -1 5 162.88 17.3
3 -1 5 151.98 17
-3 1 -5 141.39 17
-3 1 -5 111.19 15.3
-3 1 -5 147.49 16
3 -1 6 105.39 14.1
3 -1 6 94.79 13.3
3 -1 6 84.39 12.8
-3 1 -6 93.79 14.2
-3 1 -6 107.29 15.4
-3 1 -6 106.69 19.7
3 -1 7 627.14 36.3
3 -1 7 573.34 34.2
-3 1 -7 624.24 40.6
-3 1 -7 598.84 39.6
-3 1 -7 551.64 38.7
3 -1 8 218.58 21.3
3 -1 8 227.98 21.6
-3 1 -8 186.88 34.1
-3 1 -8 208.78 24.1
3 -1 9 55.19 13.5
-3 1 -9 53.59 13.8
-3 1 -9 26.5 12.4
-3 1 -9 62.49 17.3
3 -1 10 446.46 31.6
-3 1 -10 493.65 40.8
-3 1 -10 464.15 50.09
3 -1 11 31.6 10.1
-3 1 -11 45.4 15.3
3 -1 12 45.2 11.3
-3 1 -12 31.9 13.1
3 -1 13 1.8 6.3
-3 1 -13 8.4 10
2 0 -11 0.3 7.8
2 0 -10 -9.1 5.5
2 0 -9 327.47 28.2
2 0 -8 50.29 13.1
2 0 -8 21.2 9.5
2 0 -7 2.2 4.9
2 0 -7 7 4.6
-2 0 7 11.1 6.8
2 0 -6 90.99 14.4
2 0 -6 90.29 12.5
-2 0 6 90.89 16.7
2 0 -5 3.1 3.2
2 0 -5 -3.9 3
-2 0 5 -4.6 2.8
2 0 -4 77.09 5.2
2 0 -4 100.39 11
2 0 -4 91.69 14.7
2 0 -4 75.99 4
-2 0 4 72.99 10.2
2 0 -3 44.1 4.6
2 0 -3 51.09 7.6
-2 0 3 32.5 7.3
2 0 -2 609.74 22
2 0 -2 641.94 26.9
2 0 -1 64.99 7.4
2 0 -1 59.09 6.6
-2 0 1 69.19 7.1
2 0 0 3741.83 91.89
2 0 0 3757.52 86.89
-2 0 0 3855.91 93.09
2 0 1 825.92 31.6
2 0 1 810.32 27
-2 0 -1 778.02 26.7
-2 0 -1 804.92 32
2 0 2 134.89 12.2
2 0 2 118.49 10.5
2 0 2 113.09 9.5
-2 0 -2 117.69 11.9
-2 0 -2 111.69 9.7
2 0 3 436.36 21.8
2 0 3 444.06 24.5
2 0 3 432.96 23.1
-2 0 -3 415.66 24.5
-2 0 -3 441.16 22.9
-2 0 -3 435.26 23.3
2 0 4 94.29 11.5
2 0 4 106.09 10.6
2 0 4 82.99 10.6
-2 0 -4 93.19 11.4
-2 0 -4 87.09 11.2
-2 0 -4 87.19 10.9
2 0 5 600.64 28.8
2 0 5 563.54 33.2
2 0 5 587.04 30.8
-2 0 -5 577.24 33.1
-2 0 -5 576.14 32.4
-2 0 -5 598.14 31.9
2 0 6 222.88 17.7
2 0 6 193.48 20.4
2 0 6 233.08 19.4
-2 0 -6 209.28 19.9
-2 0 -6 217.58 19.2
-2 0 -6 233.48 22.3
2 0 7 159.38 16.3
2 0 7 152.38 16
2 0 7 152.58 19.7
-2 0 -7 153.18 17.1
-2 0 -7 136.59 17.5
-2 0 -7 165.58 20
2 0 8 12.2 5.3
2 0 8 1.1 4.2
2 0 8 9.6 7.6
-2 0 -8 5.9 6.5
-2 0 -8 -2.9 6
-2 0 -8 7.9 6.6
2 0 9 447.76 30.7
2 0 9 460.85 29.4
-2 0 -9 477.65 35
-2 0 -9 439.86 33.5
-2 0 -9 509.05 40.9
2 0 10 38.1 9.6
-2 0 -10 24.5 8.5
-2 0 -10 16.5 11.3
2 0 11 31.1 9.8
-2 0 -11 40.7 16.8
-2 0 -11 55.29 15.3
2 0 12 133.29 14.9
-2 0 -12 126.49 26.3
-2 0 -12 100.69 21.4
2 0 13 2.1 5.5
-2 0 -13 11.6 11
1 1 -12 0.1 5.6
1 1 -12 25.7 13
1 1 -11 11 6.9
1 1 -11 15.4 7.7
1 1 -10 6 5.8
1 1 -10 -9.6 4.7
1 1 -9 37.5 21.6
1 1 -9 69.99 10.1
1 1 -8 191.08 24.7
1 1 -8 234.38 17
1 1 -8 222.88 21.2
-1 -1 8 239.88 22.2
1 1 -7 162.98 13
1 1 -7 184.18 18.1
1 1 -7 151.28 20.6
-1 -1 7 173.38 17.5
1 1 -6 1474.35 53.99
1 1 -6 1444.86 44.1
1 1 -6 1450.25 65.69
-1 -1 6 1536.65 54.99
1 1 -5 0.3 3.8
1 1 -5 2.7 1.8
1 1 -4 141.19 11.8
1 1 -4 121.79 7.8
-1 -1 4 110.29 10.5
1 1 -3 1383.16 41.6
1 1 -3 1358.96 34.4
-1 -1 3 1324.17 41.3
1 1 -2 929.01 25.9
1 1 -2 901.21 28.7
-1 -1 2 913.21 29.1
1 1 -1 91.79 6.1
-1 -1 1 105.39 6.8
1 1 0 98.99 5
1 1 0 94.89 8.4
-1 -1 0 91.79 8.3
1 1 1 321.67 15.9
1 1 1 338.97 11.1
1 1 1 316.47 16
-1 -1 -1 344.67 16.6
1 1 2 788.02 22.8
1 1 2 774.42 29
1 1 2 757.72 28.2
-1 -1 -2 765.72 23
-1 -1 -2 767.52 28
-1 -1 -2 770.82 29.5
1 1 3 43.9 8.5
1 1 3 54.59 7
-1 -1 -3 41.9 8.5
-1 -1 -3 42.2 6.2
1 1 4 1.9 1.7
1 1 4 1.1 2.3
1 1 4 2.8 3.1
-1 -1 -4 1.4 2.3
-1 -1 -4 1.5 2.3
1 1 5 97.29 10.5
1 1 5 91.29 12.6
-1 -1 -5 116.19 11.7
-1 -1 -5 100.19 12.8
1 1 6 264.97 18.2
1 1 6 296.57 25.1
1 1 6 282.47 18.7
-1 -1 -6 276.17 19.8
-1 -1 -6 348.17 21.5
-1 -1 -6 275.37 24
1 1 7 54.09 14.3
1 1 8 7.7 6
1 1 8 7.6 6.2
1 1 8 6.9 4.8
-1 -1 -8 11.3 6.6
-1 -1 -8 29.2 10.7
-1 -1 -8 11.7 6
1 1 9 170.88 18.6
1 1 9 179.78 15.5
1 1 9 151.98 21.4
-1 -1 -9 175.48 23.7
-1 -1 -9 134.99 16.6
-1 -1 -9 199.88 21.2
1 1 10 -0.2 3.8
-1 -1 -10 0.2 6.2
-1 -1 -10 9.4 7.1
-1 -1 -11 30.3 10.1
-1 -1 -11 39.8 11.6
1 1 12 53.09 10
-1 -1 -12 64.19 16.6
-1 -1 -12 63.79 19.7
1 1 13 11.9 5.1
-1 -1 -13 42.5 11.9
-1 -1 -13 -3.4 8.7
0 2 -12 -2.4 7.9
0 2 -11 -5.1 9.2
0 2 -11 11.2 8.5
0 -2 11 3.7 5
0 2 -10 634.14 38.5
0 2 -10 738.33 46.7
0 -2 10 670.33 32.1
0 2 -9 585.04 34.7
0 2 -9 564.84 44.4
0 -2 9 602.94 28.7
0 2 -8 1645.04 60.39
0 2 -8 1637.64 66.29
0 2 -8 1624.64 79.69
0 -2 8 1622.94 64.29
0 -2 8 1635.94 52.19
0 2 -7 4 3.9
0 2 -7 4.5 4.7
0 2 -7 1.7 5.4
0 -2 7 1.4 4.5
0 -2 7 -1.3 3.7
0 2 -6 175.18 14.7
0 2 -6 173.88 20.6
0 2 -6 168.68 16.5
0 -2 6 165.38 12.3
0 -2 6 159.28 15.1
0 2 -5 -2.6 1.7
0 2 -5 1 2.7
0 -2 5 2.1 2.7
0 -2 5 1.8 1.8
0 2 -4 310.87 19.2
0 2 -4 328.27 17.4
0 -2 4 300.47 27.6
0 -2 4 331.67 16.3
0 2 -3 1056.79 33.4
0 2 -3 1017 35.7
0 -2 3 1059.29 34.9
0 -2 3 1040.7 32.5
0 2 -2 2199.48 57.39
0 2 -2 2320.97 55.29
0 -2 2 2108.09 55.59
0 -2 2 2169.18 55.39
0 2 -1 2.8 2
0 2 -1 -1.2 1.8
0 -2 1 1.7 2.2
0 -2 1 5.9 2.9
0 2 0 2773.82 71.09
0 2 0 2676.83 63.99
0 -2 0 2829.12 62.59
0 -2 0 2690.93 70.59
0 2 1 1471.65 43.9
0 -2 -1 1446.16 43.9
0 2 2 4975.9 110.99
0 2 2 5059.89 119.49
0 -2 -2 5041 110.19
0 -2 -2 5263.47 120.29
0 2 3 2581.44 70.79
0 2 3 2429.16 63.09
0 -2 -3 2491.85 71.39
0 -2 -3 2473.05 61.99
0 2 4 1032.7 33.3
0 2 4 1091.19 42.6
0 2 4 989.4 35
0 -2 -4 1000 34.6
0 -2 -4 978.9 42.2
0 2 5 278.47 15.8
0 2 5 320.87 23.4
0 2 5 290.67 18.6
0 -2 -5 319.67 19
0 -2 -5 310.17 23.4
0 2 6 917.01 39.5
0 2 6 1007.7 47.9
0 2 6 1000.2 34.1
0 -2 -6 951.9 47.3
0 -2 -6 991.2 39.2
0 2 7 99.09 12.6
0 2 7 105.39 19.9
0 2 7 83.09 8.7
0 -2 -7 100.19 12
0 -2 -7 90.99 14.6
0 2 8 344.97 31.2
0 2 8 291.17 23.5
0 2 8 291.07 16.7
0 -2 -8 319.27 29.3
0 -2 -8 298.57 23
0 2 9 69.39 7.8
0 2 9 50.89 13.7
0 2 9 71.89 18.1
0 -2 -9 73.29 17.1
0 -2 -9 52.19 12.8
0 2 10 121.29 9.9
0 -2 -10 110.99 16.4
0 2 11 21.4 4.6
0 -2 -11 11.1 8.5
0 2 12 4.3 2.7
0 -2 -12 8.7 6.4
0 -2 -13 13.9 17.1
-1 3 -12 12.3 20
1 -3 12 25.2 7.7
-1 3 -11 28.1 11.9
-1 3 -11 7.1 19.5
1 -3 11 17.6 8
-1 3 -10 -2.8 8.7
-1 3 -10 13.3 12.9
1 -3 10 20.8 7.3
-1 3 -9 170.28 23.1
1 -3 9 148.19 15.3
-1 3 -8 10 9.8
-1 3 -8 -3 6.8
-1 3 -8 -6.1 6.2
1 -3 8 -6 5.4
1 -3 8 12.1 5.2
-1 3 -7 41.5 12.7
-1 3 -7 38.9 10.4
-1 3 -7 30.1 11.7
1 -3 7 34.7 10.7
1 -3 7 42.5 9
-1 3 -6 427.16 27.5
-1 3 -6 485.35 31.9
-1 3 -6 452.35 34.9
1 -3 6 465.65 24.7
1 -3 6 440.76 27
-1 3 -5 7 5.5
-1 3 -5 4.6 2.9
1 -3 5 3.5 2.3
1 -3 5 2.9 3
-1 3 -4 733.83 33.7
-1 3 -4 741.23 44.1
1 -3 4 788.12 33.5
1 -3 4 692.33 31.1
-1 3 -3 552.24 26.3
-1 3 -3 532.45 29.2
1 -3 3 552.74 24.5
-1 3 -2 81.89 10.2
-1 3 -2 71.19 8
1 -3 2 72.19 8.9
-1 3 -1 3.3 2
1 -3 1 1.7 2.5
-1 3 0 2650.43 65.69
-1 3 0 2670.03 70.59
1 -3 0 2454.25 64.79
-1 3 1 661.73 26.6
-1 3 1 619.34 22.5
1 -3 -1 591.54 25.4
1 -3 -1 668.73 24.1
-1 3 2 221.28 11.2
-1 3 2 214.28 14.6
1 -3 -2 228.58 15.2
1 -3 -2 215.88 14.9
-1 3 3 78.99 6.1
-1 3 3 69.89 8.7
1 -3 -3 71.19 9.3
1 -3 -3 65.29 8.4
-1 3 4 20.8 6.2
1 -3 -4 20.4 6.1
1 -3 -4 23.3 6.9
-1 3 5 12.9 4.9
-1 3 5 11.4 5.3
1 -3 -5 21.7 7.3
1 -3 -5 17.2 5.7
-1 3 6 251.57 12.9
-1 3 6 262.67 11
-1 3 6 252.77 22.5
-1 3 6 252.77 21.3
1 -3 -6 255.27 23.3
1 -3 -6 279.47 20.5
-1 3 7 28.3 8.2
-1 3 7 54.09 4.7
-1 3 7 37.5 11.1
1 -3 -7 32.7 11
1 -3 -7 53.39 11.4
-1 3 8 754.12 46.8
-1 3 8 750.02 42.7
-1 3 8 734.03 19.1
-1 3 8 717.33 19.2
1 -3 -8 700.83 38.8
1 -3 -8 735.63 46.8
1 -3 -9 437.16 30.8
1 -3 -9 424.56 37.6
1 -3 -10 -3.2 5.2
1 -3 -11 170.78 21
1 -3 -12 8.3 7.8
1 -3 -13 -13.3 8.1
-2 4 -11 35.2 11.8
2 -4 11 4.2 5.6
-2 4 -10 15 12.2
-2 4 -9 117.89 25.3
2 -4 8 -1.6 3.6
-2 4 -7 276.27 29.3
-2 4 -7 238.48 24.5
-2 4 -7 292.07 30.6
2 -4 7 209.48 21
2 -4 7 269.97 21.3
-2 4 -6 19.1 9.6
-2 4 -6 23.5 10.6
-2 4 -6 21.7 8.6
2 -4 6 28.4 7.4
2 -4 6 26.6 14.5
-2 4 -5 254.57 23
-2 4 -5 282.37 25.8
-2 4 -5 256.27 24.7
2 -4 5 268.07 20
2 -4 5 246.68 21.3
-2 4 -4 136.09 15.7
-2 4 -4 133.79 17.3
2 -4 4 127.79 14.9
2 -4 4 135.49 13.4
-2 4 -3 156.08 16.1
2 -4 3 153.48 16.4
2 -4 3 175.18 14.8
-2 4 -2 369.56 23.7
2 -4 2 355.36 24.8
2 -4 2 408.46 22.5
-2 4 -1 489.15 26.5
-2 4 -1 470.05 25.9
2 -4 1 444.56 22.8
2 -4 1 483.15 29.2
-2 4 0 907.41 34.6
-2 4 0 910.11 35.7
2 -4 0 844.02 32.7
-2 4 1 2.6 2.2
2 -4 -1 1.8 2.5
-2 4 2 22.8 5.8
-2 4 2 32 7
2 -4 -2 20.4 5.1
2 -4 -2 31.4 7
-2 4 3 1.2 1.9
-2 4 3 0.5 2
2 -4 -3 -2.9 1.8
-2 4 4 1234.88 46.4
-2 4 4 1201.68 37
2 -4 -4 1223.28 47.8
2 -4 -4 1289.57 51.09
-2 4 5 22.5 7.1
-2 4 5 30.7 4.5
2 -4 -5 30.5 9.7
2 -4 -5 25.5 8.3
-2 4 6 60.49 14.3
-2 4 6 54.29 5.1
2 -4 -6 63.79 13.9
2 -4 -6 53.29 12.2
-2 4 7 8.2 5.2
2 -4 -7 6.6 5.8
2 -4 -7 -1.5 4
-2 4 8 468.75 35.8
2 -4 -8 517.25 38.2
2 -4 -9 13.8 10.5
2 -4 -9 33.8 11.9
2 -4 -10 121.19 17.7
2 -4 -11 58.69 15
2 -4 -12 -2.6 6.5
-3 5 -11 7.4 13.6
3 -5 11 -3.1 6.5
-3 5 -10 70.79 20.5
3 -5 10 67.99 16.2
3 -5 9 69.79 16.6
-3 5 -8 76.49 20.3
3 -5 8 75.59 15.1
-3 5 -7 268.77 32.8
-3 5 -7 317.57 32.2
3 -5 7 351.06 26.8
-3 5 -6 256.17 27.7
3 -5 6 290.37 23.7
-3 5 -5 151.58 20.1
-3 5 -5 174.98 20.9
3 -5 5 137.89 18.1
3 -5 5 181.28 17.8
-3 5 -4 29.1 9.8
-3 5 -4 40.9 10.6
3 -5 4 49.5 11.3
3 -5 4 40.3 12.1
-3 5 -3 42.9 12.1
3 -5 3 45.8 12.1
3 -5 3 37.2 9.1
-3 5 -2 582.44 35.3
-3 5 -2 632.24 34.4
3 -5 2 563.74 36.8
3 -5 2 583.54 31.1
-3 5 -1 207.68 16.8
-3 5 -1 182.68 18.2
3 -5 1 192.18 16.3
-3 5 0 67.39 12.6
-3 5 0 38.7 8
3 -5 0 56.39 10.2
-3 5 1 74.19 13.4
-3 5 1 65.69 7.5
3 -5 -1 57.49 8.6
-3 5 2 0.6 3
-3 5 2 2.6 2.6
3 -5 -2 0.3 2.2
-3 5 3 38.2 7.3
-3 5 3 30.7 7.6
3 -5 -3 34.7 7.6
3 -5 -3 26 9.3
3 -5 -3 37.4 8.4
-3 5 4 6.5 4.2
3 -5 -4 6.8 5
3 -5 -4 8.5 5.2
-3 5 5 20 7
-3 5 5 6.2 3.9
3 -5 -5 12.9 6.5
-3 5 6 172.08 17.6
-3 5 6 145.89 11
3 -5 -6 183.28 20.3
3 -5 -6 138.79 16.7
3 -5 -7 49.8 12.9
3 -5 -7 34.7 11.3
3 -5 -8 4.7 9.3
3 -5 -8 8.1 6.9
3 -5 -9 45.9 15
3 -5 -9 44.9 14.1
3 -5 -10 17 10.2
4 -6 9 18.2 9.1
4 -6 7 16.7 7.9
-4 6 -6 -2.2 7.5
4 -6 6 12.9 6.9
-4 6 -5 -3 6.9
4 -6 5 -2.1 3.9
-4 6 -4 10.6 6.8
4 -6 4 0.1 4.2
-4 6 -3 -5.5 6
-4 6 -3 6.2 5.9
4 -6 3 3.4 5.2
-4 6 -2 76.89 12.1
-4 6 -2 72.79 15.8
-4 6 -2 69.49 10
4 -6 2 96.39 13.3
-4 6 -1 267.57 17.9
-4 6 -1 264.57 16.4
-4 6 -1 304.87 27.1
4 -6 1 213.48 30.5
4 -6 1 262.47 21.1
-4 6 0 445.06 18.3
-4 6 0 462.25 33.1
-4 6 0 449.36 18.8
4 -6 0 493.25 29.2
-4 6 1 117.09 15.7
4 -6 -1 107.89 12.8
-4 6 2 5.9 6
4 -6 -2 -0.9 4.3
-4 6 3 737.83 40.1
4 -6 -3 837.32 37.8
4 -6 -3 767.12 50.59
-4 6 4 -3 4.9
4 -6 -4 0.8 4.8
4 -6 -4 2.2 3.2
-4 6 5 656.53 33
4 -6 -5 657.43 30.5
4 -6 -5 640.34 45
-4 6 6 9.9 5.4
4 -6 -6 7.1 9.7
4 -6 -6 5.8 7.1
4 -6 -7 65.29 17.2
4 -6 -7 49 11.9
4 -6 -8 -1.3 8.2
4 -6 -8 18.1 9.2
4 -6 -9 -17.7 11.8
4 -6 -9 -0.4 7.5
5 -7 7 1.4 6.6
-5 7 -6 -10.7 11.3
5 -7 6 -8.2 4.9
-5 7 -5 24.3 11.5
-5 7 -5 18.8 12.3
5 -7 5 24.6 8.8
-5 7 -4 8.6 7.8
-5 7 -4 -0.1 8.8
5 -7 4 2.6 5.9
-5 7 -3 429.56 28.4
5 -7 3 473.05 33.3
-5 7 -2 50.69 8.2
-5 7 -2 40.5 7.9
5 -7 2 69.19 15
5 -7 1 173.28 19.1
5 -7 0 6.7 7.9
5 -7 -1 1 5.7
-5 7 2 30.9 12.8
5 -7 -2 33.6 9.2
-5 7 3 1.2 8.5
5 -7 -3 15.2 9.2
5 -7 -3 0 5.1
-5 7 4 68.19 16
5 -7 -4 28 12.1
-5 7 5 54.29 14.4
5 -7 -5 55.09 17.7
-5 7 6 0.5 8.1
5 -7 -6 26.5 18.2
6 -8 2 1.6 6.9
6 -8 1 1.3 6.4
6 -8 0 2.8 7.1
6 -8 -1 16 9.2
7 -4 -3 22.4 11
7 -4 -3 -2.4 6.7
-7 4 3 -4.5 12
7 -4 -2 21.3 10.2
7 -4 -2 24.8 8.2
-7 4 2 -7.3 11.7
7 -4 -1 31.1 13
7 -4 -1 43.4 10.6
7 -4 0 1.8 6.4
7 -4 1 -0.5 4.6
7 -4 2 34.7 11.4
7 -4 3 4.5 6.3
7 -4 4 44.1 13.3
7 -4 5 60.89 14.2
7 -4 6 63.89 16
7 -4 7 3.7 8.5
-7 4 -7 -1.8 13.3
6 -3 -6 -1.9 5.7
6 -3 -6 -2.2 5.1
6 -3 -6 1.6 11.3
6 -3 -5 -1.1 7.3
6 -3 -4 7.2 4.2
6 -3 -4 9.5 9
6 -3 -3 4.1 7.1
6 -3 -3 10.7 4.7
-6 3 3 5.4 7.8
6 -3 -2 59.59 16.1
6 -3 -2 62.19 11.8
-6 3 2 65.19 14.1
6 -3 -1 30 9.2
-6 3 1 18.8 10.7
6 -3 0 297.17 24.3
-6 3 0 365.16 32.4
6 -3 1 43.9 11.9
-6 3 -1 65.49 15.7
6 -3 2 248.18 24.1
-6 3 -2 251.87 36.9
6 -3 4 23.8 9.6
-6 3 -4 11.8 5.2
6 -3 5 -4.1 4.5
6 -3 6 5.3 6.3
-6 3 -6 -4.6 7.4
6 -3 7 52.99 14.7
-6 3 -7 60.89 16.3
6 -3 8 47.8 14.5
-6 3 -8 64.99 17.6
6 -3 9 13.7 9.1
6 -3 10 33.8 13.4
5 -2 -8 2.9 8.4
5 -2 -7 -9.4 5
5 -2 -7 -10.2 8.8
5 -2 -6 5.3 7.2
5 -2 -6 8.6 7.7
5 -2 -5 236.98 25
5 -2 -5 239.08 19.7
5 -2 -5 226.08 8.6
5 -2 -4 6.1 4.5
5 -2 -4 4.5 3.9
5 -2 -4 1.7 5
5 -2 -4 2.3 2.6
5 -2 -3 77.59 7.8
5 -2 -3 67.69 16
5 -2 -3 74.79 9.1
5 -2 -3 73.49 7.1
-5 2 3 65.09 13
5 -2 -2 54.39 10.7
5 -2 -2 45.9 13.2
-5 2 2 58.79 12.1
5 -2 -1 18.8 7.1
-5 2 1 4.4 5.8
5 -2 0 71.59 13.1
-5 2 0 76.19 15.7
5 -2 1 28.6 9.3
-5 2 -1 30.3 9.5
5 -2 2 4.5 4.4
-5 2 -2 12.8 8.6
5 -2 3 18.1 8.8
-5 2 -3 15.9 4.9
5 -2 4 -0.8 4.2
5 -2 4 3.2 5.5
-5 2 -4 -10.6 6.1
-5 2 -4 4.6 3.9
5 -2 5 19.2 7.5
5 -2 5 22.5 10.8
-5 2 -5 8.4 8.2
5 -2 6 194.88 21.8
-5 2 -6 158.58 19.1
5 -2 7 31.3 11.8
-5 2 -7 1.3 9
5 -2 8 18.2 7.7
-5 2 -8 -8.2 9.7
5 -2 9 17.2 8.5
5 -2 10 8 6.4
-5 2 -10 17.3 13.5
5 -2 11 11.9 7.6
-5 2 -11 3.8 9.7
4 -1 -10 17.3 10.1
4 -1 -9 119.59 16.9
4 -1 -8 172.48 24.1
4 -1 -8 162.78 21.3
4 -1 -7 32.7 12.1
4 -1 -7 44 12.9
4 -1 -6 131.09 17.9
4 -1 -6 199.68 41.5
4 -1 -5 15.2 6.7
4 -1 -5 11.9 5.9
4 -1 -4 171.78 18.2
4 -1 -4 120.29 14.4
4 -1 -4 130.19 9.5
4 -1 -3 2.6 2.8
4 -1 -3 0.5 3.7
4 -1 -3 -2 2.4
4 -1 -2 7 4.9
4 -1 -2 2.3 2.4
4 -1 -2 2.5 2.9
4 -1 -2 -0.6 2.4
4 -1 -1 3.2 3.3
4 -1 -1 0.4 2.4
-4 1 1 4 4.1
4 -1 0 340.77 14.7
4 -1 0 363.76 23.9
-4 1 0 332.07 24.6
4 -1 1 516.05 30.2
4 -1 1 476.25 18.6
-4 1 -1 475.35 31
4 -1 2 15.3 7.3
4 -1 2 11 3.8
-4 1 -2 16.5 4.6
-4 1 -2 11.4 6
4 -1 3 283.47 23.8
4 -1 3 262.67 22.7
4 -1 3 289.97 18.4
-4 1 -3 272.47 18.4
-4 1 -3 300.07 26.2
4 -1 4 137.29 16.3
4 -1 4 154.88 18
4 -1 4 157.88 15.4
-4 1 -4 141.49 14.7
-4 1 -4 163.88 19.1
4 -1 5 103.99 13.7
4 -1 5 133.29 17
4 -1 5 112.29 15.1
-4 1 -5 111.59 14
-4 1 -5 139.49 18.4
4 -1 6 114.49 15.9
4 -1 6 90.69 17.5
4 -1 6 99.19 17.5
-4 1 -6 90.89 14.4
4 -1 7 4.1 3.9
4 -1 7 18.4 8.4
4 -1 7 8.2 5.3
-4 1 -7 6.9 5.8
-4 1 -7 16 8.4
-4 1 -7 12.1 7.1
4 -1 8 233.48 23.3
4 -1 8 193.28 21.8
-4 1 -8 207.38 26.7
-4 1 -8 252.07 27.3
-4 1 -9 9.3 8.9
-4 1 -9 -6.6 9.1
4 -1 10 305.87 28.6
-4 1 -10 253.97 30.1
4 -1 11 233.78 24.4
-4 1 -11 244.68 30.3
4 -1 12 25.8 9.9
-4 1 -12 16.1 12.8
3 0 -11 6.3 8.3
3 0 -10 56.39 13.3
3 0 -9 133.69 17.5
3 0 -8 45.9 14.1
3 0 -8 81.79 17.1
3 0 -7 52.49 12.7
3 0 -6 70.79 16.8
3 0 -6 68.29 14.8
-3 0 6 74.19 15.1
3 0 -5 204.98 21.6
3 0 -5 231.38 8.6
3 0 -5 228.68 19.4
-3 0 5 193.18 20.2
3 0 -4 381.96 24.9
3 0 -4 411.66 17.2
3 0 -3 913.21 38.9
3 0 -3 884.71 31.2
3 0 -2 -0.9 3.2
3 0 -2 1.2 1.9
3 0 -1 280.67 19
3 0 -1 253.47 17.1
3 0 -1 254.87 16.7
-3 0 1 269.87 17.8
3 0 0 2.5 2.4
3 0 0 2.2 2.7
-3 0 0 6.2 3.7
3 0 1 5.8 4
3 0 1 4.1 2.5
-3 0 -1 1 2.1
-3 0 -1 7.4 4.3
3 0 2 18 7.1
3 0 2 22.6 5.8
3 0 2 9.1 5.3
-3 0 -2 16.1 6.5
-3 0 -2 21.3 5.4
3 0 3 19.4 6.4
3 0 3 20.7 10.6
3 0 3 14.2 5.2
-3 0 -3 9.6 4.4
-3 0 -3 11 5.2
3 0 4 15.5 6.6
3 0 4 6 5.3
3 0 4 12.5 5.4
-3 0 -4 11.2 6.1
-3 0 -4 9.5 5.6
-3 0 -4 14.7 5.3
3 0 5 91.39 13.2
3 0 5 100.69 11.9
3 0 5 72.79 11.6
-3 0 -5 88.69 12.5
-3 0 -5 89.59 16.7
-3 0 -5 93.69 13
3 0 6 34.6 9.4
3 0 6 33 10.1
3 0 6 44.8 12
-3 0 -6 49.4 13.1
-3 0 -6 39.9 11.3
-3 0 -6 48.2 12.4
3 0 7 197.48 18.8
3 0 7 203.18 22.5
3 0 7 218.38 21.1
-3 0 -7 183.98 21.1
-3 0 -7 205.18 22
-3 0 -7 192.18 21.1
3 0 8 16.5 8.7
3 0 8 8.8 7.5
3 0 8 13.8 6.6
-3 0 -8 13.7 8.8
-3 0 -8 18.1 8.2
-3 0 -8 24.5 9.9
3 0 9 248.98 23.9
3 0 9 232.98 22.4
3 0 9 227.58 27.1
-3 0 -9 240.78 27.8
-3 0 -9 288.27 29.2
-3 0 -9 215.78 24.8
3 0 10 55.99 14.1
-3 0 -10 77.89 19.3
-3 0 -10 107.69 23.5
3 0 11 12.9 6.8
-3 0 -11 -2.9 5.6
3 0 12 4.1 5.3
-3 0 -12 1.5 8.1
3 0 13 5.9 6.6
-3 0 -13 14.6 10.6
2 1 -11 9 9.1
2 1 -10 90.19 18.8
2 1 -9 323.17 14.2
2 1 -9 326.47 28.2
2 1 -8 6.2 3.4
2 1 -8 -3.6 6.9
2 1 -8 15.1 7.6
2 1 -7 15.2 8.2
2 1 -7 10.8 7.4
2 1 -7 25 5.4
-2 -1 7 24.6 9.1
2 1 -6 134.49 9.2
2 1 -6 178.08 21.5
2 1 -6 136.29 14.9
-2 -1 6 140.29 15.4
2 1 -5 15.7 6.6
2 1 -5 15.5 3.3
-2 -1 5 5.4 4.8
2 1 -4 279.77 12
2 1 -4 282.77 19
-2 -1 4 292.67 20.1
2 1 -3 13.2 4.7
2 1 -2 24.4 5.8
-2 -1 2 25 6.2
2 1 -1 2591.24 65.99
2 1 -1 2660.23 70.39
2 1 -1 2653.13 75.79
2 1 0 9999 214.78
2 1 0 9652.53 214.48
2 1 2 6463.55 154.68
2 1 2 6516.15 143.59
2 1 2 6662.73 152.78
-2 -1 -2 6556.44 153.98
-2 -1 -2 6474.15 151.58
2 1 3 885.41 37.2
2 1 3 872.11 30.9
2 1 3 909.51 38.5
-2 -1 -3 882.31 37.5
-2 -1 -3 900.11 39
-2 -1 -3 942.11 33.5
2 1 4 3.9 2.9
2 1 4 -3 1.5
2 1 4 3.7 2.9
-2 -1 -4 -2.8 2.5
-2 -1 -4 -1.7 2.4
-2 -1 -4 0.6 1.9
2 1 5 608.54 35.1
2 1 5 647.94 33.2
2 1 5 641.24 28.4
-2 -1 -5 621.84 33.9
-2 -1 -5 639.84 36.4
-2 -1 -5 664.73 31.3
2 1 6 10.7 4.8
2 1 6 8.7 5.8
-2 -1 -6 3 3.9
-2 -1 -6 7.8 5.9
-2 -1 -6 12.1 6
2 1 7 239.78 20.7
2 1 7 200.18 17.3
2 1 7 227.88 23.6
-2 -1 -7 206.78 22.4
-2 -1 -7 212.58 19.1
-2 -1 -7 241.18 21.9
2 1 8 40.9 12.7
2 1 8 25.4 9
2 1 8 31.9 9.1
-2 -1 -8 27.1 10.8
-2 -1 -8 22.8 9.8
-2 -1 -8 28.3 9.1
2 1 9 6.4 4.7
2 1 9 -3.9 7.4
2 1 9 15 6.9
-2 -1 -9 15.1 9.2
-2 -1 -9 7.8 6.4
-2 -1 -9 5.7 5.5
2 1 10 207.88 40.7
2 1 10 164.58 18
-2 -1 -10 176.08 21.5
-2 -1 -10 160.98 19.9
2 1 11 -3.6 2.9
-2 -1 -11 -1 7.2
-2 -1 -11 12.2 9.8
2 1 12 226.58 20.3
-2 -1 -12 171.18 23.6
-2 -1 -12 189.68 25.3
2 1 13 14.2 7.3
-2 -1 -13 2.1 12.6
-2 -1 -13 23.6 12.9
1 2 -12 14.7 14.4
1 2 -11 2.9 7.6
1 2 -11 18 10.3
1 2 -10 -2.9 8.1
1 2 -10 -4.9 5.7
1 2 -9 135.79 14.7
1 2 -9 148.69 26.3
-1 -2 8 31.5 9.4
1 2 -7 1.3 4.7
1 2 -7 -10.8 5.7
1 2 -7 -0.1 3.7
-1 -2 7 0.6 4.6
1 2 -6 193.48 17.8
1 2 -6 174.28 13.4
-1 -2 6 160.48 15.5
1 2 -5 55.99 17.9
-1 -2 5 43.5 15.2
1 2 -4 466.95 23.6
1 2 -4 428.76 18.6
-1 -2 4 454.25 22.8
1 2 -3 129.59 9
1 2 -2 531.75 20.6
1 2 -2 531.75 20.2
-1 -2 2 527.65 20
1 2 -1 768.42 22.1
-1 -2 1 753.42 21.9
1 2 0 1 2.4
-1 -2 0 1.3 2.5
1 2 1 10.8 4.8
-1 -2 -1 10.3 4.4
1 2 2 471.75 24.7
1 2 2 471.85 14.5
-1 -2 -2 476.75 14.8
-1 -2 -2 468.25 24.3
1 2 3 1336.87 48.8
1 2 3 1391.06 46.3
1 2 3 1434.56 37.5
-1 -2 -3 1365.66 49.5
-1 -2 -3 1401.66 37.5
1 2 4 71.89 9.1
1 2 4 49.1 10.2
-1 -2 -4 77.09 10.8
1 2 5 2055.89 72.39
1 2 5 2060.39 64.19
1 2 5 2115.89 59.89
-1 -2 -5 2103.59 73.89
-1 -2 -5 2137.09 59.89
1 2 6 150.88 13.5
1 2 6 133.89 13.4
1 2 6 162.18 18.5
-1 -2 -6 137.59 13.5
-1 -2 -6 149.69 13.9
-1 -2 -6 139.09 17.7
1 2 7 1563.34 54.99
1 2 7 1632.34 56.19
1 2 7 1523.45 67.19
-1 -2 -7 1493.65 54.29
-1 -2 -7 1499.75 67.29
1 2 8 1.4 5.8
1 2 8 14.1 6.9
1 2 8 5.8 4.8
-1 -2 -8 5.4 3.6
-1 -2 -8 8.6 4.8
1 2 9 343.57 32.8
1 2 9 312.47 24.6
1 2 9 315.37 22.9
-1 -2 -9 280.17 29.9
-1 -2 -9 366.36 25.8
-1 -2 -9 368.46 27.1
1 2 10 204.18 17.4
1 2 10 170.28 25.7
-1 -2 -10 195.18 21.3
1 2 11 147.79 29.6
1 2 11 119.39 13.6
-1 -2 -11 132.39 24.1
1 2 12 45.9 9.2
-1 -2 -12 81.39 19.4
1 2 13 40.3 8.2
-1 -2 -13 31 11.9
0 3 -12 -21.7 10
0 3 -12 -24.6 12.1
0 3 -11 -2.8 7.3
0 3 -11 -7.4 9.4
0 3 -10 172.98 22.7
0 3 -10 171.48 20.8
0 -3 10 146.09 15.7
0 3 -9 2.5 6.7
0 3 -9 -2.6 7.1
0 -3 9 11.5 5.5
0 3 -8 212.28 19.9
0 3 -8 191.58 21.6
0 -3 8 174.28 18.4
0 -3 8 184.08 16.2
0 3 -7 116.89 14.1
0 3 -7 96.89 20.4
0 3 -7 106.39 15.2
0 -3 7 112.99 14.8
0 -3 7 113.69 11.9
0 3 -6 140.89 16.1
0 3 -6 91.89 11.9
0 -3 6 85.59 11.6
0 -3 6 94.49 10.5
0 3 -5 23 8.2
0 3 -5 18 6.1
0 -3 5 33.6 7.9
0 -3 5 34.7 8.3
0 3 -4 56.89 7.5
0 3 -4 51.69 10.4
0 -3 4 60.59 7.6
0 -3 4 49.9 9.5
0 3 -3 635.34 26.9
0 3 -3 575.84 27.4
0 -3 3 589.84 25.8
0 -3 3 582.34 25.2
0 3 -2 369.36 19.7
0 3 -2 408.16 18.7
0 -3 2 361.76 19.1
0 -3 2 395.56 18.3
0 3 -1 276.87 14.6
0 3 -1 283.37 15.2
0 -3 1 265.67 15.9
0 -3 1 284.17 14.2
0 3 0 241.78 13.7
0 3 0 243.68 17.9
0 -3 0 247.98 12.5
0 3 1 103.39 11.6
0 -3 -1 105.69 11.1
0 3 2 89.39 10.7
0 -3 -2 78.79 10.1
0 -3 -2 92.99 7.4
0 3 3 26.1 7.6
0 3 3 24.7 5.3
0 -3 -3 32.7 6.2
0 -3 -3 44.7 9.6
0 3 4 103.69 12.7
0 3 4 98.29 10.2
0 -3 -4 103.59 13.2
0 -3 -4 115.29 9.9
0 3 5 379.56 22.3
0 3 5 408.76 21.6
0 3 5 402.26 27.2
0 -3 -5 332.97 25.8
0 -3 -5 394.56 21.4
0 3 6 144.59 13
0 3 6 154.38 18.2
0 3 6 141.69 14.4
0 -3 -6 122.79 16.2
0 -3 -6 137.19 13.6
0 3 7 215.78 19.4
0 3 7 234.48 23.7
0 3 7 242.18 16.6
0 -3 -7 234.08 24.8
0 -3 -7 247.38 19.3
0 3 8 83.49 15.5
0 3 8 85.59 19.2
0 3 8 82.19 9.4
0 -3 -8 80.79 18.6
0 -3 -8 85.19 12
0 3 9 333.77 32.5
0 3 9 378.56 20.6
0 3 9 342.07 27.6
0 -3 -9 343.17 34.4
0 -3 -9 342.57 26.3
0 3 10 98.49 22.5
0 3 10 73.79 8.4
0 -3 -10 95.69 18.8
0 3 11 241.48 30.3
0 3 11 218.48 13.7
0 -3 -11 190.88 23
0 3 12 10.9 3.8
0 -3 -12 0.7 8
0 -3 -13 7.7 7.8
-1 4 -11 21.2 12
1 -4 11 30.5 9.9
-1 4 -10 85.09 18.7
1 -4 10 97.49 14.1
-1 4 -9 8.1 8.5
-1 4 -9 -4 7.1
1 -4 9 -5.5 3
-1 4 -8 165.38 27.9
-1 4 -8 143.29 18.7
1 -4 8 141.59 15.3
-1 4 -7 24.7 9.3
-1 4 -7 32.4 9.4
-1 4 -7 11.8 10.2
1 -4 7 39.7 10.9
-1 4 -6 6.8 5.3
-1 4 -6 1.8 4.7
1 -4 6 -4.4 3.6
1 -4 6 1.8 3.1
-1 4 -5 1190.48 53.79
-1 4 -5 1189.38 49.7
1 -4 5 1183.38 47.5
1 -4 5 1165.68 44.6
-1 4 -4 503.25 28.1
-1 4 -4 530.95 32.5
1 -4 4 495.25 27.1
1 -4 4 491.25 25.8
-1 4 -3 685.43 37.5
-1 4 -3 587.54 30.4
1 -4 3 718.63 32.3
1 -4 3 719.93 30.8
-1 4 -2 240.08 16.7
1 -4 2 179.38 24.5
1 -4 2 250.17 17.1
-1 4 -1 289.27 21.9
-1 4 -1 273.67 17.1
1 -4 1 285.87 18.7
1 -4 1 279.67 17.4
-1 4 0 21.3 6.7
-1 4 1 578.34 23.9
-1 4 1 615.34 30.3
1 -4 -1 585.14 28.8
1 -4 -1 633.74 27.2
-1 4 2 136.49 13.3
-1 4 2 140.59 10.3
1 -4 -2 123.99 12.8
-1 4 3 318.17 15.9
-1 4 3 354.56 22.2
1 -4 -3 344.07 20.7
1 -4 -3 342.07 22.5
-1 4 4 10.9 5.1
-1 4 4 2.9 2.3
1 -4 -4 5.1 3.4
1 -4 -4 -0.2 2.6
-1 4 5 6.7 4.4
-1 4 5 1 3.6
-1 4 5 1.9 2
1 -4 -5 2.7 3.4
1 -4 -5 3.8 3.9
-1 4 6 557.14 33.2
-1 4 6 508.95 33.6
-1 4 6 551.84 20.6
1 -4 -6 561.54 30.1
1 -4 -6 508.45 34.6
-1 4 7 35.2 9.6
1 -4 -7 13.1 6.6
1 -4 -7 30.4 8.3
-1 4 8 15.2 7.8
1 -4 -8 14.9 7.6
-1 4 9 62.09 5.3
-1 4 9 61.09 5
-1 4 9 70.59 17.8
1 -4 -9 50.69 16
1 -4 -9 80.09 19.4
-1 4 10 334.97 42.6
1 -4 -10 340.77 28.5
1 -4 -11 -7 5.5
1 -4 -12 12.5 9.3
2 -5 11 19.2 9.5
-2 5 -10 13.9 13.5
2 -5 10 -1.1 5.4
-2 5 -9 -19 9.5
2 -5 9 0.3 4.1
-2 5 -8 295.67 31.7
2 -5 8 310.87 24.8
-2 5 -7 10.8 9.4
-2 5 -7 16.2 10.8
2 -5 7 15 6.5
-2 5 -6 841.52 47.1
-2 5 -6 796.92 51.29
-2 5 -6 877.41 52.49
2 -5 6 799.82 42.7
2 -5 6 859.01 41.3
-2 5 -5 57.79 16.9
-2 5 -5 59.69 13.2
2 -5 5 58.09 12.8
2 -5 5 55.49 11.5
-2 5 -4 35.7 9.6
2 -5 4 53.69 12.7
2 -5 4 60.09 11.7
-2 5 -3 57.79 12.1
2 -5 3 61.99 12.9
2 -5 3 40.4 9.5
-2 5 -2 2.4 3.9
2 -5 2 2.7 3.6
2 -5 2 -3.4 2.5
-2 5 -1 553.34 30.1
-2 5 -1 612.84 33.8
2 -5 1 568.74 33.3
2 -5 1 534.15 27.8
-2 5 0 286.27 19.9
-2 5 0 302.17 21.7
2 -5 0 307.77 19.8
-2 5 1 94.19 10.3
-2 5 1 104.49 11.8
2 -5 -1 99.69 11
-2 5 2 633.94 28.2
-2 5 2 667.43 31.7
2 -5 -2 582.14 46.1
2 -5 -2 642.34 30.9
-2 5 3 1552.14 54.09
-2 5 3 1425.16 47.3
2 -5 -3 1528.65 54.39
2 -5 -3 1577.84 59.19
-2 5 4 243.48 19.3
-2 5 4 245.38 15.4
2 -5 -4 261.97 22.1
2 -5 -4 240.38 20.2
-2 5 5 151.38 11.4
-2 5 5 140.79 16
2 -5 -5 175.48 17.7
2 -5 -5 151.38 16.5
-2 5 6 275.77 23.8
-2 5 6 313.47 15.4
2 -5 -6 352.76 26.6
2 -5 -6 283.67 25.4
-2 5 7 27.7 4.9
-2 5 7 15.6 9.1
2 -5 -7 21.9 8.6
2 -5 -7 48.4 12.8
-2 5 8 136.09 18
-2 5 8 110.99 6.9
-2 5 8 119.29 6.4
2 -5 -8 118.99 16.6
2 -5 -8 133.19 23.6
-2 5 9 55.69 15.8
2 -5 -9 79.99 17.2
2 -5 -9 69.49 18.6
2 -5 -10 33.5 12.3
2 -5 -11 2.3 5.3
3 -6 10 9.2 6.7
-3 6 -9 7.1 10.3
3 -6 9 -1.8 5.3
3 -6 8 12.5 6.4
3 -6 7 8.3 5.4
-3 6 -6 -5.3 8.3
3 -6 6 8.9 6.7
-3 6 -5 152.38 20.6
3 -6 5 137.19 17
3 -6 4 66.39 14.9
3 -6 4 73.59 13.8
-3 6 -3 18.5 8.6
-3 6 -3 17.6 8.5
3 -6 3 11 5.7
3 -6 3 8.6 6.9
-3 6 -2 296.17 27
-3 6 -2 284.27 24.8
3 -6 2 299.47 22.7
-3 6 -1 20 6.5
-3 6 -1 12.7 7.4
3 -6 1 11.8 6.5
3 -6 1 12.2 5.6
-3 6 0 43.4 9.6
-3 6 0 41.8 11.1
3 -6 0 56.79 11.7
-3 6 1 8.6 4.5
-3 6 1 2 4.6
3 -6 -1 11.6 5.5
-3 6 2 183.58 14.8
-3 6 2 202.28 18
3 -6 -2 200.58 17.3
-3 6 3 -0.4 3.2
-3 6 3 5 3.9
3 -6 -3 13.5 8.1
3 -6 -3 -3.3 2.9
-3 6 4 37.3 8.8
-3 6 4 29.5 8
3 -6 -4 29.7 9.7
3 -6 -4 17.5 6.7
-3 6 5 -0.2 3.3
-3 6 5 6.8 4.7
3 -6 -5 6.7 6.1
3 -6 -5 4.2 4.5
-3 6 6 93.19 16.4
3 -6 -6 58.19 14.7
3 -6 -6 58.89 13.9
-3 6 7 212.68 21.7
-3 6 7 198.58 13.4
3 -6 -7 198.08 22.6
3 -6 -7 194.28 22.4
3 -6 -8 215.18 23.9
3 -6 -8 244.88 27.3
3 -6 -9 36.6 13.5
3 -6 -9 27.1 13.1
3 -6 -10 12.5 9.2
4 -7 7 112.19 20.3
-4 7 -6 44.6 15.1
4 -7 6 41 12.5
4 -7 5 -3 3.1
-4 7 -4 7 9.7
-4 7 -4 41.5 11.9
4 -7 4 25.5 8.7
-4 7 -3 54.09 14.3
-4 7 -3 33.1 9.9
4 -7 3 54.39 12.8
-4 7 -2 91.99 19.4
4 -7 2 84.89 15.9
-4 7 -1 4.2 5.9
4 -7 1 14.9 7.5
-4 7 0 178.98 23
-4 7 0 186.58 15.1
4 -7 0 213.58 19.8
-4 7 1 132.09 17.9
-4 7 1 130.09 11.1
4 -7 -1 161.58 17.5
-4 7 2 290.97 25.8
-4 7 2 252.47 14.1
4 -7 -2 269.77 22.8
-4 7 3 72.89 7.9
-4 7 3 80.99 16
4 -7 -3 61.49 16.5
-4 7 4 18.1 5.3
-4 7 4 5.1 7.4
4 -7 -4 19.5 10.5
-4 7 5 35.1 10.6
4 -7 -5 51.99 10.1
4 -7 -5 35.8 12.6
-4 7 6 -4.6 6.3
4 -7 -6 -6.7 5.2
4 -7 -6 0.6 6.7
-4 7 7 3.2 9.8
4 -7 -7 2.4 7.7
4 -7 -7 6.3 9.6
4 -7 -8 15.2 11.5
-5 8 -5 -10 14.3
5 -8 5 -1 5.3
-5 8 -4 15.1 10.2
-5 8 -4 18.9 13.6
5 -8 4 15.1 7.2
-5 8 -3 3.2 7.5
-5 8 -3 12.2 10.9
-5 8 -2 3.9 6.9
-5 8 -2 4 5.9
5 -8 2 24.9 8.7
5 -8 0 9.2 6.9
5 -8 -1 -1.4 6.3
5 -8 -2 46.3 13.5
5 -8 -3 -12.6 8.1
-5 8 4 20.8 12.2
5 -8 -4 2.6 9.2
-5 8 5 23.3 14.2
5 -8 -5 -17.4 7.7
7 -3 -3 -5.4 9.9
7 -3 -3 9.1 5.6
7 -3 -2 9.4 6.2
7 -3 -2 -7.9 7.8
-7 3 2 23.8 13.3
7 -3 -1 9.4 7.3
-7 3 1 7.7 10.7
7 -3 0 17.8 6.9
7 -3 1 0.9 5.6
7 -3 2 9.4 8.3
7 -3 3 36.4 12.1
7 -3 4 15.6 8
7 -3 5 15.7 9
-7 3 -5 -5 5.5
7 -3 6 153.58 21.1
7 -3 7 24.3 11.7
-7 3 -7 2.6 12
7 -3 8 82.19 19.9
-7 3 -8 49.3 28.2
6 -2 -6 10.7 8.1
6 -2 -6 -2.3 6.3
6 -2 -6 1.6 9.4
6 -2 -5 4.1 5.6
6 -2 -5 3.2 2.5
6 -2 -4 5.7 4
6 -2 -4 2.1 6.4
6 -2 -4 1.5 4.2
6 -2 -4 1.2 3.3
6 -2 -3 92.39 12
6 -2 -3 91.59 20.5
6 -2 -2 5.7 9.2
6 -2 -2 12 6.2
-6 2 2 12.5 9
6 -2 -1 96.19 21.3
6 -2 -1 108.69 14.3
-6 2 1 117.39 20.1
6 -2 0 45.9 11.2
-6 2 0 27.4 12.3
6 -2 1 5.7 4.7
-6 2 -1 0 7.3
6 -2 2 8.6 6.8
-6 2 -2 24.5 11
6 -2 3 24.7 8.5
-6 2 -3 13.3 4.1
6 -2 4 15 9.4
-6 2 -4 11.1 5.3
6 -2 5 8.3 7.5
-6 2 -5 8 6.9
6 -2 6 15.5 7.7
-6 2 -6 6.8 7
6 -2 7 28.6 10.6
-6 2 -7 25.6 11.8
6 -2 8 14.1 9.2
-6 2 -8 26.5 13.6
6 -2 10 117.39 22.9
5 -1 -8 161.28 21.8
5 -1 -7 135.39 21.4
5 -1 -7 184.18 20.8
5 -1 -6 64.49 14.7
5 -1 -5 13.8 8.4
5 -1 -5 38.1 12
5 -1 -5 31.2 3.6
5 -1 -4 95.59 12.6
5 -1 -4 91.69 17.9
5 -1 -4 99.79 14.7
5 -1 -4 100.69 9.7
5 -1 -3 73.09 11
5 -1 -3 66.29 9.7
5 -1 -3 63.29 10.8
5 -1 -3 46.9 13.9
5 -1 -2 9.1 4.5
5 -1 -2 11.6 4.3
5 -1 -2 19.4 7.9
5 -1 -2 12.4 7.3
5 -1 -1 25.2 5
5 -1 -1 19.4 7.3
5 -1 -1 19.1 8.7
-5 1 1 12.5 6.7
5 -1 0 92.39 7.5
5 -1 0 103.39 14.2
-5 1 0 92.89 17.5
5 -1 1 174.28 10.5
5 -1 1 175.18 18.6
-5 1 -1 188.78 21.1
5 -1 2 24.5 5.2
5 -1 2 7 6.7
-5 1 -2 30.7 10.5
-5 1 -2 15.5 5.1
5 -1 3 27.9 6.8
5 -1 3 25.5 9.6
5 -1 3 25.7 9.4
-5 1 -3 36.1 8.2
-5 1 -3 23.8 9.8
5 -1 4 10.4 6.4
5 -1 4 5 4.5
-5 1 -4 2.8 4.1
-5 1 -4 -2.3 5.3
5 -1 5 159.48 20.2
5 -1 5 142.29 18
-5 1 -5 145.09 16.3
-5 1 -5 155.58 21.6
5 -1 6 97.69 14.4
5 -1 6 76.99 15
5 -1 6 95.49 19.4
-5 1 -6 109.69 15.6
-5 1 -6 63.29 20.1
5 -1 7 475.85 35.5
-5 1 -7 536.75 38.5
5 -1 8 14.2 7.3
-5 1 -8 13.8 9.8
5 -1 9 -7.3 3.7
-5 1 -9 1.5 11.5
-5 1 -9 -8.9 6.5
5 -1 10 129.69 19.1
-5 1 -10 111.69 22.8
5 -1 11 -11.1 4.4
-5 1 -11 3.2 10.1
5 -1 12 3.1 9.6
-5 1 -12 19.8 21.7
4 0 -9 41.4 13
4 0 -8 9.9 7.3
4 0 -7 16.3 8.7
4 0 -7 20.3 10.7
4 0 -6 76.99 18.4
4 0 -6 104.59 15
4 0 -5 25.1 4.5
4 0 -5 36.8 9.5
4 0 -5 30.3 3.7
4 0 -5 31.2 10.6
4 0 -4 5.9 4.9
4 0 -4 -0.7 3.6
4 0 -4 4.3 3.1
4 0 -3 4.8 4.1
4 0 -3 -2.5 4.4
4 0 -3 5.4 3.8
4 0 -2 72.49 13.6
4 0 -2 70.29 10
4 0 -2 68.79 10.7
4 0 -1 71.49 13.2
4 0 -1 74.59 10.5
4 0 -1 58.59 8.5
4 0 0 270.07 21.2
4 0 0 266.97 17.2
-4 0 0 273.47 22.2
4 0 1 19.3 7.2
4 0 1 7.4 4.1
-4 0 -1 21.6 8
-4 0 -1 17.5 5.4
4 0 2 340.67 25.9
4 0 2 358.26 21.2
-4 0 -2 343.77 21.3
-4 0 -2 340.27 26.9
4 0 3 308.77 23.4
4 0 3 324.97 25.9
4 0 3 336.27 21.4
-4 0 -3 303.07 26.5
-4 0 -3 308.57 20.8
4 0 4 514.95 33.8
4 0 4 461.55 28.3
4 0 4 478.95 30.1
-4 0 -4 503.15 34.8
-4 0 -4 507.35 35.8
4 0 5 3.3 4
4 0 5 3.1 3.7
4 0 5 -1 3.6
-4 0 -5 -0.6 3.7
-4 0 -5 3.4 4.8
4 0 6 8.7 8.2
4 0 6 11.4 6.3
4 0 6 16.2 7.5
-4 0 -6 10.4 6.4
-4 0 -6 18.6 10.1
-4 0 -6 15.8 7.5
4 0 7 72.09 14.6
4 0 7 110.59 20.4
4 0 7 103.89 20.7
-4 0 -7 117.19 22.4
-4 0 -7 112.09 16.5
-4 0 -7 113.29 21.1
4 0 8 120.39 22.5
4 0 8 78.09 15.2
4 0 8 116.29 17.6
-4 0 -8 99.09 20.4
-4 0 -8 92.99 19.8
4 0 9 29.1 10.6
4 0 9 10 8.7
-4 0 -9 14.9 11.9
-4 0 -9 28.9 12.3
4 0 10 0.7 5.9
4 0 10 -1.7 7.3
-4 0 -10 9.5 7
4 0 11 377.46 33.1
-4 0 -11 319.17 36.5
4 0 12 31.9 12.3
-4 0 -12 37.4 16
4 0 13 46.8 13.8
-4 0 -13 12.8 23.8
3 1 -10 15.4 9.3
3 1 -9 18.8 8.8
3 1 -8 2.2 4.8
3 1 -7 6.9 2.1
3 1 -7 11.8 6.2
3 1 -7 6.9 2.1
3 1 -7 8.7 8.6
-3 -1 7 -0.9 6.4
3 1 -6 10.1 2.9
3 1 -6 16.9 7.1
3 1 -6 12.9 3.9
3 1 -6 7.7 6.3
-3 -1 6 0.9 4.8
3 1 -5 0.8 1.5
3 1 -5 0.2 2.3
3 1 -5 1.9 3.7
-3 -1 5 5.6 4.2
3 1 -4 15.1 4.5
3 1 -4 16.9 5.9
-3 -1 4 5.4 4.7
3 1 -3 334.17 21
3 1 -3 318.37 19.4
3 1 -2 230.58 20.3
3 1 -2 224.48 16.2
3 1 -2 217.48 16.3
3 1 -1 29.6 8.1
3 1 -1 23.7 6.6
3 1 -1 31.3 6.9
3 1 0 679.93 32.8
3 1 0 652.73 30.9
3 1 1 135.89 14.4
3 1 1 156.78 13.9
-3 -1 -1 163.78 15.7
-3 -1 -1 171.98 15.1
3 1 2 14 5.2
3 1 2 16.2 5.8
3 1 2 15.7 5.6
-3 -1 -2 15.3 6
-3 -1 -2 25.8 7.7
3 1 3 1.7 2.4
3 1 3 -2.8 1.5
3 1 3 -0.1 3.2
-3 -1 -3 1.6 2.2
-3 -1 -3 -1.4 3.1
3 1 4 44.2 10.4
3 1 4 40.2 11.3
3 1 4 53.89 12.2
-3 -1 -4 52.79 12.1
-3 -1 -4 39.9 9.8
3 1 5 90.89 10.7
3 1 5 88.09 13
-3 -1 -5 78.29 14.9
-3 -1 -5 82.59 17.7
-3 -1 -5 74.09 12
3 1 6 0.7 3.3
3 1 6 4.8 4.4
3 1 6 -1.8 3.9
-3 -1 -6 -4 3.8
-3 -1 -6 7.2 5.3
-3 -1 -6 -0.7 2.1
3 1 7 445.86 34.3
3 1 7 448.26 27.2
3 1 7 428.66 31.2
-3 -1 -7 505.05 35.6
-3 -1 -7 422.46 30.4
-3 -1 -7 451.25 35
3 1 8 108.19 21.7
3 1 8 75.89 13.9
3 1 8 106.19 19.2
-3 -1 -8 98.09 19.4
-3 -1 -8 92.19 18.2
-3 -1 -8 105.69 21.3
3 1 9 24 8.3
3 1 9 40.4 11.6
3 1 9 28.6 11.9
-3 -1 -9 30 11.8
-3 -1 -9 19.8 9.6
3 1 10 322.57 28.7
-3 -1 -10 346.07 37.3
-3 -1 -10 310.67 31.7
3 1 11 37.9 11
3 1 11 11.1 10.3
-3 -1 -11 6.1 11
-3 -1 -11 28.4 13.2
3 1 12 0.4 6.4
-3 -1 -12 -9.3 8.9
3 1 13 8.3 7
-3 -1 -13 1.6 9.2
2 2 -11 13.6 9.3
2 2 -11 -4.6 4.8
2 2 -10 86.29 11.6
2 2 -10 90.19 20
2 2 -9 1.7 5.8
2 2 -9 2.8 7.2
2 2 -8 2 4.4
2 2 -7 314.27 24.9
2 2 -7 286.07 17.6
2 2 -7 326.57 32.6
-2 -2 7 356.26 26.8
2 2 -6 190.98 17.5
2 2 -6 181.38 12.2
-2 -2 6 199.98 19.2
2 2 -5 7.7 4.4
2 2 -5 11.8 3.2
-2 -2 5 3.8 3.9
2 2 -4 332.67 20.3
2 2 -4 315.37 15.6
-2 -2 4 325.67 20.8
2 2 -3 87.29 9.2
2 2 -3 88.39 8.3
-2 -2 3 79.79 9.5
2 2 -2 81.19 8
-2 -2 2 73.89 8.1
2 2 -1 1.9 2.7
2 2 -1 0.8 1.4
-2 -2 1 4 2.2
2 2 0 996.8 41.7
2 2 0 1014.9 28.5
2 2 1 82.99 10.4
2 2 1 111.29 12.4
-2 -2 -1 89.89 11.1
2 2 2 208.58 17.2
2 2 2 231.28 11.1
2 2 2 212.38 17.6
-2 -2 -2 212.78 18
2 2 3 622.94 22.2
2 2 3 641.24 33.4
2 2 3 618.34 32.1
-2 -2 -3 617.64 32.2
-2 -2 -3 622.24 24
2 2 4 466.05 28.2
2 2 4 477.05 30.1
2 2 4 499.65 21
-2 -2 -4 467.65 22.3
2 2 5 7.2 4.9
2 2 5 7.2 3.7
-2 -2 -5 6.6 4
-2 -2 -5 3.1 3.4
-2 -2 -5 5.4 3.9
2 2 6 128.19 16.5
2 2 6 119.39 11.5
2 2 6 94.09 13.3
-2 -2 -6 119.19 16.6
-2 -2 -6 86.29 12.7
2 2 7 174.98 20.7
2 2 7 151.28 14.3
2 2 7 166.38 17.3
-2 -2 -7 159.08 15.7
-2 -2 -7 155.68 20.9
-2 -2 -7 174.98 19
2 2 8 83.59 19.1
2 2 8 83.29 15.9
2 2 8 87.39 15
-2 -2 -8 65.29 15.4
-2 -2 -8 78.99 18.9
-2 -2 -8 92.79 13.1
2 2 9 91.99 21.3
2 2 9 92.99 17.1
2 2 9 92.59 13.4
-2 -2 -9 102.59 19.1
-2 -2 -9 106.89 15.2
-2 -2 -9 137.69 26.8
2 2 10 199.18 24.8
2 2 10 246.68 23
2 2 10 249.68 32.1
-2 -2 -10 282.77 26.5
-2 -2 -10 217.08 22.8
2 2 11 22.3 8.7
2 2 11 13.9 9
-2 -2 -11 24.1 10.6
-2 -2 -11 14.5 9.6
2 2 12 16 8
2 2 12 27.1 13.4
-2 -2 -12 12 10.6
-2 -2 -12 32.6 12.5
2 2 13 53.29 12.8
-2 -2 -13 63.29 18.3
-2 -2 -14 11.1 12.4
1 3 -11 101.09 21.6
1 3 -11 176.18 21.3
1 3 -10 15.7 10.6
1 3 -10 -2.3 7.5
1 3 -9 276.97 23.1
1 3 -9 272.07 26.3
1 3 -8 163.78 19.3
1 3 -8 136.59 15.1
-1 -3 8 143.99 19.9
1 3 -7 178.48 15.9
1 3 -7 190.88 19.8
-1 -3 7 184.68 22.2
1 3 -6 190.08 18.4
1 3 -6 178.08 14.8
-1 -3 6 187.28 17.2
1 3 -5 258.97 16.8
1 3 -5 275.77 20.2
-1 -3 5 288.27 19.8
1 3 -4 177.78 12.7
1 3 -4 170.98 14.5
-1 -3 4 184.58 14.4
1 3 -3 464.45 22.4
1 3 -3 424.56 20.1
-1 -3 3 438.86 20.8
1 3 -2 124.39 9.7
1 3 -2 82.49 8.5
-1 -3 2 112.39 8.5
1 3 -1 1404.46 37.6
1 3 -1 1478.25 57.09
-1 -3 1 1365.66 35.9
1 3 0 480.25 27.9
-1 -3 0 420.96 12.2
-1 -3 0 433.16 26.3
1 3 1 192.58 17.2
-1 -3 -1 181.78 16.4
1 3 2 68.79 4.6
1 3 2 71.89 10.6
-1 -3 -2 89.09 11.6
1 3 3 104.29 13.4
1 3 3 121.89 7.9
-1 -3 -3 114.19 13.3
-1 -3 -3 123.29 7.5
1 3 4 173.78 17.7
1 3 4 209.98 12.5
1 3 4 200.38 16.6
-1 -3 -4 199.78 11.8
-1 -3 -4 195.38 19.1
1 3 5 377.46 23.8
1 3 5 344.57 18.6
1 3 5 342.27 32
-1 -3 -5 345.67 27.1
-1 -3 -5 349.07 18.3
1 3 6 150.88 13.2
1 3 6 153.78 15.6
1 3 6 167.78 19.2
-1 -3 -6 164.58 19.3
-1 -3 -6 140.89 26.5
1 3 7 95.39 11.4
1 3 7 81.79 12
1 3 7 86.99 18.3
-1 -3 -7 104.99 21.1
1 3 8 79.99 11.8
1 3 8 93.19 12.8
1 3 8 78.89 18.6
-1 -3 -8 89.99 12.1
-1 -3 -8 79.99 17.7
1 3 9 20.2 8.4
1 3 9 20 6.3
1 3 9 4.5 6
-1 -3 -9 46.2 13
1 3 11 24.2 13.9
1 3 11 32.5 9.9
-1 -3 -11 47.1 14.8
1 3 12 11.4 9.5
-1 -3 -12 55.69 13.3
1 3 13 14.7 6.7
-1 -3 -13 5.7 8.9
0 4 -11 22.2 12
0 4 -10 17.7 11
0 4 -10 10.3 10.5
0 4 -9 70.19 15.8
0 4 -9 97.99 20.2
0 -4 9 95.59 13.3
0 4 -8 105.99 20.8
0 4 -8 104.89 15.1
0 -4 8 108.99 13.6
0 4 -7 201.18 22
0 4 -7 187.28 18.5
0 -4 7 196.58 17.9
0 -4 7 227.48 20.4
0 4 -6 31.5 10.3
0 4 -6 33.8 8.9
0 -4 6 24.5 7.6
0 -4 6 17 6.8
0 4 -5 793.12 40.2
0 4 -5 831.22 37
0 -4 5 817.12 36.9
0 -4 5 832.62 36.7
0 4 -4 64.09 9.1
0 4 -4 58.09 11.6
0 -4 4 64.09 11.3
0 -4 4 45.9 9.4
0 4 -3 229.88 16
0 4 -3 229.48 17.8
0 -4 3 176.08 21.8
0 -4 3 189.08 15.8
0 4 -2 43.2 6.2
0 4 -2 36.3 8.4
0 -4 2 40.1 7.9
0 -4 2 31.3 9.9
0 4 -1 1132.99 50.99
0 4 -1 1171.28 39
0 -4 1 1153.78 36.9
0 4 0 542.65 31.5
0 -4 0 542.45 21.9
0 4 1 1324.87 52.39
0 4 1 1345.87 43.1
0 -4 -1 1255.67 50.09
0 4 2 2231.28 73.09
0 -4 -2 2325.87 73.69
0 -4 -2 2179.08 57.99
0 4 3 2540.95 80.29
0 -4 -3 2459.35 79.49
0 -4 -3 2427.26 64.49
0 4 4 1130.29 42.2
0 4 4 1357.66 53.79
0 -4 -4 1305.57 41.7
0 -4 -4 1252.47 52.79
0 4 5 21.3 8.1
0 4 5 19.5 7
0 -4 -5 8.2 4.7
0 -4 -5 17.9 6
0 4 6 7 4.5
0 4 6 -1.4 4.5
0 4 6 4.8 3.5
0 -4 -6 -1.7 3.4
0 -4 -6 4.4 3.2
0 4 7 52.59 12.5
0 4 7 48.8 10.5
0 4 7 55.99 15.6
0 -4 -7 77.89 14.4
0 -4 -7 59.29 16
0 4 8 52.99 14.5
0 4 8 51.39 12.8
0 4 8 47.9 9.9
0 -4 -8 56.59 11.9
0 -4 -8 95.89 20.6
0 4 9 320.07 31.8
0 4 9 295.87 20.4
0 4 9 284.87 25.4
0 -4 -9 297.97 24.1
0 -4 -9 314.67 31.9
0 4 10 12.5 4.6
0 4 10 -2.6 8.3
0 -4 -10 -1.1 5
0 4 11 58.69 9.8
0 4 11 60.09 17.5
0 -4 -11 55.69 14.8
0 4 12 109.89 27.3
0 -4 -12 131.89 24
0 -4 -13 13.3 8.7
-1 5 -11 35.9 18.5
1 -5 11 32.4 11.5
-1 5 -10 35.4 13.3
1 -5 10 14.3 8.5
-1 5 -9 6.2 9.1
1 -5 9 19.3 8
-1 5 -8 157.28 21.7
1 -5 8 164.18 18
-1 5 -7 35.4 10.5
-1 5 -7 17.7 9.3
1 -5 7 31.7 10.3
1 -5 7 46.5 11.7
-1 5 -6 188.78 23
-1 5 -6 157.38 18
1 -5 6 181.58 17.5
-1 5 -5 20.4 7
-1 5 -5 36.2 11.7
1 -5 5 22.1 7
1 -5 5 21.8 6.8
-1 5 -3 11.9 6.6
1 -5 3 33.2 8.4
1 -5 3 20.5 7.1
-1 5 -2 41 9.2
1 -5 2 40.7 9.3
1 -5 2 34.8 8.5
-1 5 -1 175.28 18.8
-1 5 -1 144.29 13.3
1 -5 1 166.58 15.1
1 -5 1 154.68 14.7
-1 5 0 204.28 15.5
-1 5 0 243.68 21.4
1 -5 0 249.78 18.5
-1 5 1 100.49 10.1
-1 5 1 85.59 12.3
1 -5 -1 82.39 11.6
-1 5 2 35.5 7
-1 5 2 28.5 8
1 -5 -2 34.8 9.2
-1 5 3 7 5.3
1 -5 -3 3.9 4
1 -5 -3 1.9 2.7
-1 5 4 35.6 10.1
1 -5 -4 46.5 9.5
1 -5 -4 43.8 11.1
-1 5 5 -0.7 2
-1 5 5 4.8 4.5
1 -5 -5 4.8 3.1
1 -5 -5 0.9 4
-1 5 6 6.7 2.6
1 -5 -6 8.5 5.7
1 -5 -6 8.6 5
-1 5 7 813.52 47.1
-1 5 7 813.82 35.8
-1 5 7 816.52 51.19
-1 5 7 843.62 29.4
1 -5 -7 790.52 39.8
1 -5 -7 798.92 48.8
-1 5 8 346.47 28.6
-1 5 8 308.27 15.7
-1 5 8 295.57 28.7
-1 5 8 309.07 20.3
1 -5 -8 290.47 30.8
1 -5 -8 328.77 25.7
-1 5 9 213.18 12
-1 5 9 238.98 15.1
1 -5 -9 202.48 27
1 -5 -9 347.37 42.5
-1 5 10 464.95 65.19
-1 5 10 639.44 19.9
-1 5 10 602.24 22
1 -5 -10 585.94 38.2
-1 5 11 9.3 9.8
1 -5 -11 -1.9 5.3
1 -5 -12 8.6 7
-2 6 -10 5.9 11.2
2 -6 10 -4.2 4.7
-2 6 -9 -1.7 8.6
2 -6 9 -3.5 3.9
-2 6 -8 53.19 19.4
2 -6 8 97.49 17.9
-2 6 -7 8.8 11.2
2 -6 7 11.9 5.6
-2 6 -6 225.68 27.7
2 -6 6 185.18 37.5
2 -6 6 209.38 24.5
2 -6 5 403.96 29.3
2 -6 5 481.55 31.1
-2 6 -4 165.68 19.3
2 -6 4 186.18 18.8
2 -6 4 176.08 17.8
-2 6 -3 15 7.6
2 -6 3 28.4 8.7
2 -6 3 19.1 8.4
-2 6 -2 99.99 13.9
-2 6 -2 110.99 17
2 -6 2 123.99 15.8
2 -6 2 100.69 12.5
-2 6 -1 200.58 18.2
2 -6 1 182.08 17.1
2 -6 1 218.88 21.2
-2 6 0 54.59 13.8
-2 6 0 43.9 10
2 -6 0 79.89 13.9
-2 6 1 142.29 13.9
-2 6 1 132.19 15.7
2 -6 -1 142.69 15
-2 6 2 31 8.5
-2 6 2 26.4 7.3
2 -6 -2 30.1 10.1
-2 6 3 186.68 18.3
-2 6 3 173.28 14.4
2 -6 -3 159.08 17.5
2 -6 -3 162.68 18.1
-2 6 4 45.3 8.6
-2 6 4 49.8 11.6
2 -6 -4 43 10.9
2 -6 -4 52.49 12
-2 6 5 -6.4 3.8
-2 6 5 1.2 3.3
2 -6 -5 -3.4 4.8
2 -6 -5 2.4 4.7
-2 6 6 73.49 8.9
-2 6 6 72.79 15.2
2 -6 -6 58.29 13.4
2 -6 -6 65.99 15.9
-2 6 7 5.8 5.5
-2 6 7 1.1 2.7
2 -6 -7 9.8 7.4
2 -6 -7 1.3 5
-2 6 8 -0.6 4.4
-2 6 8 2.3 2.8
-2 6 8 3.9 7
2 -6 -8 5 4.7
2 -6 -8 -3.6 6.4
-2 6 9 123.59 8
-2 6 9 138.29 25
-2 6 9 121.69 9
2 -6 -9 105.29 21.7
2 -6 -9 126.29 28.2
-2 6 10 25.3 12.8
2 -6 -10 12.3 8.1
2 -6 -11 -8.3 7.9
3 -7 8 19.2 8.9
3 -7 7 12.1 6.6
3 -7 6 100.29 18.6
3 -7 5 6.9 5.1
-3 7 -4 4.2 6.8
3 -7 4 5.7 5.7
-3 7 -3 673.53 45.7
3 -7 3 588.14 41
3 -7 3 628.54 37.8
-3 7 -2 504.05 36.2
3 -7 2 421.66 35.5
3 -7 2 501.95 32.3
-3 7 -1 13.1 7.7
-3 7 -1 -7 5.2
3 -7 1 -2.3 5
3 -7 1 3 5.4
-3 7 0 156.58 17.2
-3 7 0 132.09 16.5
3 -7 0 143.59 16.6
-3 7 1 90.89 12.5
-3 7 1 82.09 12.3
3 -7 -1 89.19 15.3
-3 7 2 154.18 15.6
-3 7 2 130.29 15.7
-3 7 3 10.2 6.6
-3 7 3 24.4 7.6
3 -7 -3 14.7 8.6
-3 7 4 257.27 21
-3 7 4 239.18 19.5
3 -7 -4 258.57 21.8
3 -7 -4 261.27 25.7
-3 7 5 128.79 15.7
-3 7 5 119.79 13.6
3 -7 -5 107.19 15.3
3 -7 -5 103.59 19.9
-3 7 6 57.39 10.3
-3 7 6 73.69 14.7
3 -7 -6 53.59 13.7
3 -7 -6 68.99 15.3
-3 7 7 87.59 10.3
-3 7 7 85.29 16.7
3 -7 -7 83.29 18.5
3 -7 -7 69.89 15.8
3 -7 -8 57.29 16
3 -7 -9 47.1 14.8
3 -7 -9 61.59 19
3 -7 -10 20.6 11
4 -8 7 42.2 14.4
-4 8 -6 -13.1 13.1
4 -8 6 -0.5 4.6
-4 8 -5 147.89 28.2
-4 8 -5 174.28 25
4 -8 5 190.08 21.4
-4 8 -4 36.3 13.8
-4 8 -4 17.4 12.6
4 -8 4 9.2 7.9
-4 8 -3 28.1 11.8
4 -8 3 16 8.2
-4 8 -2 154.38 21.5
4 -8 2 176.78 20.2
-4 8 -1 130.79 28.4
4 -8 1 131.09 17.6
-4 8 0 50.49 10.8
4 -8 0 49.99 13.3
-4 8 1 8.7 6.3
4 -8 -1 18.2 9
-4 8 2 2.5 4.7
-4 8 3 -6 7.6
-4 8 3 20.4 5.9
4 -8 -3 6.1 7.1
-4 8 4 159.28 14.2
-4 8 4 146.19 19.4
4 -8 -4 107.99 21.9
-4 8 5 8.3 6.6
-4 8 5 5.4 9.3
4 -8 -5 8.5 7.9
-4 8 6 87.09 15.1
4 -8 -6 40.2 13
4 -8 -6 52.29 12.8
-4 8 7 4.9 8.8
4 -8 -7 26.3 11.5
4 -8 -7 13.6 10.8
-5 9 -3 -9.1 12.7
-5 9 -3 24.5 14.7
5 -9 3 7.5 7.6
-5 9 -2 -16.8 8.6
5 -9 2 35.1 11
-5 9 -1 -4.7 7.3
-5 9 -1 11.9 6.7
5 -9 1 8.5 7.7
-5 9 0 -1.4 3.9
5 -9 0 15.1 8.7
5 -9 -1 13.4 9.4
5 -9 -2 33.7 16.5
7 -2 -4 15.4 6
7 -2 -4 10.6 9.2
7 -2 -3 31.6 9.2
7 -2 -3 50.29 17.3
7 -2 -2 11 11.4
7 -2 -2 1.4 5.5
7 -2 -1 -0.7 5.4
7 -2 -1 17.8 9.5
-7 2 1 -2.3 11
7 -2 0 -6.2 4.7
7 -2 1 -5.6 5.1
7 -2 2 19.8 8.4
7 -2 3 39 12.1
7 -2 4 36 12.1
7 -2 5 -6.7 6.3
-7 2 -5 22.7 7.8
7 -2 6 88.69 19.3
-7 2 -6 56.69 14.2
7 -2 7 40 15
-7 2 -7 -2.2 10.9
7 -2 8 8.3 14.5
-7 2 -8 3 14.8
7 -2 9 32.8 11.7
6 -1 -6 9.2 9.5
6 -1 -6 21.7 10.5
6 -1 -6 20.2 11
6 -1 -5 -2.3 7.2
6 -1 -5 -10.4 5.9
6 -1 -4 19.7 7.9
6 -1 -4 8.9 6.5
6 -1 -4 13 6
6 -1 -4 4.2 4.7
6 -1 -3 10.7 6.5
6 -1 -3 23.5 10.4
6 -1 -3 19.8 7.1
6 -1 -3 12 5.8
6 -1 -2 25 9.4
6 -1 -2 8.3 3.9
6 -1 -2 4.9 6.1
6 -1 -2 12.1 4
6 -1 -1 56.59 12.4
6 -1 -1 56.79 5.8
6 -1 -1 58.69 5.7
6 -1 -1 62.49 16.6
-6 1 1 53.59 13.4
6 -1 0 -5.8 4.2
6 -1 0 -1.4 1.5
6 -1 1 -0.3 1.9
6 -1 1 10.1 5.5
-6 1 -1 -6 6.4
6 -1 2 31 10.8
6 -1 2 50.19 6.3
-6 1 -2 33.5 12.5
6 -1 3 5.7 3.4
6 -1 3 2.8 8.2
6 -1 3 -0.4 4.7
-6 1 -3 4.8 8.6
-6 1 -3 7.3 4.8
6 -1 4 48 10
6 -1 4 30 15.2
6 -1 4 46.4 13.7
-6 1 -4 29.2 8.2
6 -1 5 33.1 11.5
-6 1 -5 48 11
6 -1 6 47.5 11.7
6 -1 6 33.4 12.6
-6 1 -6 47.7 12.4
6 -1 7 12.2 8.2
6 -1 7 8.3 6.6
-6 1 -7 12.7 10.5
6 -1 8 48.7 15.3
-6 1 -8 17.5 15.2
6 -1 9 17.5 10.2
6 -1 10 21.4 8.7
6 -1 11 -9.7 6.8
5 0 -7 9.7 10.9
5 0 -7 -7.6 5.6
5 0 -5 4 6.3
5 0 -5 -1.1 4.7
5 0 -5 4.6 7.5
5 0 -5 3.9 3.1
5 0 -4 9.8 4.6
5 0 -4 -6 5.1
5 0 -4 -3.8 3.2
5 0 -4 -0.5 5
5 0 -3 60.69 13.7
5 0 -3 53.69 13.5
5 0 -3 76.49 10.8
5 0 -2 106.19 13.5
5 0 -2 105.29 14.8
5 0 -2 133.09 15.4
5 0 -1 3.8 5.4
5 0 -1 1.3 4.2
5 0 -1 1.8 3.7
5 0 0 -1.2 3.7
5 0 0 -1.2 3
-5 0 0 -8.2 4.2
5 0 1 1.8 2.8
5 0 1 -3.7 4
-5 0 -1 -10.9 4.7
5 0 2 1.5 3.3
5 0 2 -2.4 3.4
-5 0 -2 -4.4 2.6
-5 0 -2 1.3 4.8
5 0 3 36.5 9
5 0 3 8.5 6
5 0 3 24.3 10.9
-5 0 -3 39.6 9.2
-5 0 -3 18.8 8.9
5 0 4 23 7.7
5 0 4 12.9 7.2
5 0 4 29.8 10.5
-5 0 -4 2.7 5.2
-5 0 -4 1.2 8.5
5 0 5 116.29 16.9
5 0 5 90.69 13.4
5 0 5 76.59 15.2
-5 0 -5 109.89 14.9
-5 0 -5 78.69 18.3
5 0 6 11.2 7.3
5 0 6 9.5 6.6
5 0 6 13 7.5
-5 0 -6 8.6 5.8
-5 0 -6 17.6 12
5 0 7 10.7 7
5 0 7 5.3 7.4
5 0 7 5.9 6
-5 0 -7 16.8 8.6
5 0 8 68.29 16.9
-5 0 -8 53.99 15.9
5 0 9 63.99 17.9
5 0 9 60.39 16.9
-5 0 -9 131.69 30
-5 0 -9 58.09 17.4
5 0 10 276.97 30.3
5 0 10 285.37 31.8
-5 0 -10 261.37 32.4
5 0 11 33.2 12.5
-5 0 -11 53.19 17.7
5 0 12 77.59 19.1
-5 0 -12 48.8 18.9
4 1 -9 14.6 8.5
4 1 -8 166.28 20.6
4 1 -7 -3.4 5.3
4 1 -6 13.4 8.2
4 1 -6 19.2 4.5
4 1 -6 21 8.6
4 1 -6 20.2 3.6
4 1 -5 -3 2.2
4 1 -5 4.1 3.5
4 1 -5 -2.7 3.8
4 1 -4 20.5 6.2
4 1 -4 18.8 6.8
4 1 -3 2.7 3.4
4 1 -3 6.8 4.9
4 1 -3 -4.4 2.8
4 1 -2 3.4 3.5
4 1 -2 -5.4 2.9
4 1 -2 -2.4 2.7
4 1 -1 514.75 28.5
4 1 -1 513.25 30.7
4 1 -1 506.35 30.2
4 1 0 575.24 31.7
4 1 0 516.75 33.1
4 1 1 659.83 33.1
4 1 1 644.24 36.7
-4 -1 -1 700.53 38.2
-4 -1 -1 623.34 33.2
4 1 2 896.31 45.1
4 1 2 874.41 40.2
-4 -1 -2 834.92 39.5
-4 -1 -2 827.52 44.1
4 1 3 251.77 20.3
4 1 3 228.18 18.5
4 1 3 238.68 22.8
-4 -1 -3 210.98 20.4
-4 -1 -3 240.88 23
4 1 4 70.49 14.7
4 1 4 70.39 13.1
4 1 4 68.69 10.8
-4 -1 -4 78.39 17
-4 -1 -4 67.69 13.4
4 1 5 0.2 5.4
4 1 5 5.4 4.5
-4 -1 -5 -3.3 3.7
-4 -1 -5 8 6.6
4 1 6 477.75 34.3
4 1 6 459.65 34.8
4 1 6 456.35 28.3
-4 -1 -6 468.65 34.1
-4 -1 -6 467.05 33.2
-4 -1 -6 475.95 36.7
4 1 7 4.3 5.1
4 1 7 0.2 4.6
4 1 7 1.6 4.5
-4 -1 -7 -1.3 5.6
-4 -1 -7 4.6 6.2
-4 -1 -7 1.6 4.8
4 1 8 88.19 18.5
4 1 8 102.29 20.9
4 1 8 81.99 15.7
-4 -1 -8 91.99 24.9
-4 -1 -8 78.99 18.7
-4 -1 -8 84.29 18.3
4 1 9 60.69 17.5
4 1 9 65.39 17.2
4 1 9 44.3 10.9
-4 -1 -9 43.8 14.4
-4 -1 -9 64.29 17.3
4 1 10 353.36 38.6
4 1 10 364.56 36.3
-4 -1 -10 272.87 30.2
4 1 11 36 15.3
4 1 11 30.8 11.3
-4 -1 -11 25.1 14.2
4 1 12 -2 8.8
4 1 12 -1.1 6.7
-4 -1 -12 7.1 10.8
4 1 13 83.99 19.5
-4 -1 -13 64.69 22.2
3 2 -10 40.5 13.8
3 2 -9 10.3 3.4
3 2 -9 7.1 5.9
3 2 -9 7.8 3.6
3 2 -8 33.5 7.1
3 2 -8 35.8 11.5
3 2 -8 29.3 6.3
3 2 -7 28.2 9.4
3 2 -7 18.9 5.4
-3 -2 7 37.3 18.4
3 2 -6 441.66 19.4
3 2 -6 469.25 29.5
-3 -2 6 437.06 31.3
3 2 -5 317.27 22.7
3 2 -5 323.87 16.1
-3 -2 5 308.17 24.1
3 2 -4 160.78 12
3 2 -4 189.28 16.2
-3 -2 4 152.68 15.6
3 2 -3 52.59 9.7
-3 -2 3 61.69 11.7
3 2 -2 14.5 4.7
3 2 -2 12.5 5.7
3 2 -1 292.67 16.7
3 2 -1 295.67 21.7
3 2 -1 287.37 23.7
3 2 0 29.9 9
3 2 0 35.7 9.3
3 2 0 41.6 5.8
3 2 1 24.7 7.9
3 2 1 8.2 5
-3 -2 -1 18.7 7.3
3 2 2 238.18 14.9
3 2 2 241.48 21.1
3 2 2 257.97 20.6
-3 -2 -2 221.98 19.7
3 2 3 125.59 15.5
3 2 3 113.49 14.4
3 2 3 118.89 10.6
3 2 4 110.79 10.3
3 2 4 120.69 15.4
3 2 4 112.59 15.1
-3 -2 -4 121.59 15.3
-3 -2 -4 119.39 14.7
-3 -2 -4 107.29 11.7
3 2 5 54.69 10
3 2 5 79.99 16.5
3 2 5 72.99 15.1
-3 -2 -5 76.39 10.6
-3 -2 -5 60.59 13.4
-3 -2 -5 63.19 13.9
3 2 6 190.78 21.4
3 2 6 187.28 15.7
3 2 6 192.68 20.7
-3 -2 -6 203.18 22.3
-3 -2 -6 227.68 22.9
-3 -2 -6 180.68 17.5
3 2 7 102.09 20.3
3 2 7 105.29 11.8
3 2 7 96.49 18.2
-3 -2 -7 95.89 14.1
-3 -2 -7 109.49 16.1
-3 -2 -7 107.99 21.3
3 2 8 165.18 22.1
3 2 8 185.68 17
3 2 8 197.48 22.3
-3 -2 -8 185.68 21.3
-3 -2 -8 174.08 28.2
-3 -2 -8 172.88 19.8
3 2 9 129.09 25.4
3 2 9 117.49 14.3
3 2 9 108.59 16
-3 -2 -9 101.69 19.1
-3 -2 -9 92.89 24.1
-3 -2 -9 105.19 23.6
3 2 10 25.6 16.2
3 2 10 16.8 10.5
-3 -2 -10 35.6 12.1
-3 -2 -10 34.3 10.8
3 2 11 15.1 7
3 2 11 12 8.5
-3 -2 -11 -9.7 8.5
-3 -2 -11 -2.6 4.7
3 2 12 31.6 14.5
3 2 12 61.29 18
-3 -2 -12 40.3 11.9
3 2 13 29.3 13.4
3 2 13 23.4 9.9
-3 -2 -13 32 13.2
2 3 -10 11.9 7.8
2 3 -10 20.3 9.7
2 3 -9 577.24 40.7
2 3 -9 582.74 31.4
2 3 -8 12.4 5.7
2 3 -7 636.54 29.3
2 3 -7 649.34 37.3
-2 -3 7 600.64 36.6
2 3 -6 15.3 4.9
2 3 -6 27.7 8.8
-2 -3 6 22.6 8.4
2 3 -5 26.3 6.2
2 3 -5 44.3 9.9
-2 -3 5 31 8.3
2 3 -4 108.69 10.2
2 3 -4 103.09 11.2
-2 -3 4 126.59 12.7
2 3 -3 126.19 11
2 3 -3 105.89 10.7
-2 -3 3 120.09 11.3
2 3 -2 275.37 14.7
2 3 -2 295.87 26.3
-2 -3 2 274.97 15.7
2 3 -1 434.46 30.4
2 3 -1 390.26 15.9
-2 -3 1 446.76 17.9
2 3 0 350.66 25.9
2 3 0 322.77 11.6
2 3 1 660.13 15.6
2 3 1 525.35 14
2 3 1 534.85 32.6
-2 -3 -1 537.35 33.1
2 3 2 2349.46 76.79
2 3 2 2171.68 49.1
-2 -3 -2 2330.17 87.79
2 3 3 8.7 3.9
2 3 3 4.7 2.1
2 3 3 10.8 5.6
-2 -3 -3 9.8 2.9
-2 -3 -3 6.9 4.8
2 3 4 362.96 28.8
2 3 4 402.46 16.9
2 3 4 416.96 27.5
-2 -3 -4 390.86 18.5
-2 -3 -4 381.66 28
2 3 5 445.86 32.1
2 3 5 415.06 29.5
2 3 5 413.76 19.7
-2 -3 -5 415.76 21.4
-2 -3 -5 423.26 31
2 3 6 702.63 41.8
2 3 6 688.83 29.7
2 3 6 674.83 38.2
-2 -3 -6 696.23 42.8
-2 -3 -6 703.03 31
2 3 7 259.97 23.3
2 3 7 191.98 15.9
2 3 7 205.78 24
-2 -3 -7 165.28 15.8
-2 -3 -7 223.88 24.9
2 3 8 75.89 10.7
2 3 8 46.9 15.1
2 3 8 48.2 12
-2 -3 -8 66.39 13.6
-2 -3 -8 82.99 20
2 3 9 63.19 15.3
2 3 9 43.3 12.7
2 3 9 42.9 15.5
-2 -3 -9 52.99 13.3
-2 -3 -9 36.5 14
2 3 10 123.49 15.8
2 3 10 142.49 18.6
-2 -3 -10 143.59 18.3
2 3 11 14.5 9.4
2 3 11 21.9 8.4
-2 -3 -11 13.8 8.1
2 3 12 -1.8 7
2 3 12 14.8 11.8
-2 -3 -12 24.5 10.2
2 3 13 0.2 10.9
2 3 13 5.6 6.4
-2 -3 -13 0.9 8.7
-2 -3 -14 3.2 12
1 4 -10 -7.8 9.6
1 4 -10 4.9 10.4
1 4 -9 41.1 14.3
1 4 -8 1.8 8.4
1 4 -8 9.2 6.4
1 4 -7 6.8 6.6
1 4 -7 15.5 5.9
-1 -4 7 11 6.2
1 4 -6 247.18 18.4
1 4 -6 256.67 22.3
-1 -4 6 240.38 20.6
1 4 -5 0 4.8
1 4 -5 9.1 4.4
-1 -4 5 1.4 4
1 4 -3 621.14 28.1
1 4 -3 712.83 30.2
-1 -4 3 720.83 28.3
1 4 -2 100.49 10.2
-1 -4 2 152.98 10.2
1 4 -1 103.59 22.6
1 4 -1 98.59 10.5
1 4 -1 133.69 9.5
-1 -4 1 115.19 7.7
1 4 0 169.68 18.5
-1 -4 0 163.28 7.6
1 4 1 2844.32 90.19
-1 -4 -1 2630.84 58.69
-1 -4 -1 2817.82 89.09
1 4 2 1.9 2.4
-1 -4 -2 2.2 4.9
1 4 3 66.89 6.1
1 4 3 79.49 16
-1 -4 -3 95.89 6.6
-1 -4 -3 83.79 16.5
1 4 4 71.99 7.6
-1 -4 -4 73.49 14.7
1 4 5 2.6 3.2
1 4 5 1.8 2.7
1 4 5 -2.7 3.1
-1 -4 -5 2.7 2.4
-1 -4 -5 0.3 1.5
1 4 6 -6.8 3.1
1 4 6 -1 3.2
-1 -4 -6 -0.9 2.2
-1 -4 -6 -3.1 3.6
1 4 7 310.77 25.4
1 4 7 340.87 22.7
1 4 7 369.46 31.8
-1 -4 -7 427.26 23.9
-1 -4 -7 338.57 31.1
1 4 8 246.48 20
1 4 8 254.27 21.9
1 4 8 279.57 29
-1 -4 -8 206.98 30.7
-1 -4 -8 230.88 19.8
1 4 9 730.03 39.4
1 4 9 658.03 47.8
1 4 9 733.43 39.5
-1 -4 -9 732.53 38.3
-1 -4 -9 726.43 52.09
1 4 10 71.49 18.4
1 4 10 107.09 18
-1 -4 -10 78.99 15.6
1 4 11 73.39 14
1 4 11 90.09 22.1
1 4 12 109.49 15.3
1 4 12 131.59 28.5
-1 -4 -12 165.08 28.3
1 4 13 16.3 13.5
1 4 13 18.5 7.1
-1 -4 -13 25.6 10.4
0 5 -10 5.9 9.2
0 5 -9 40.6 13.8
0 5 -8 48.5 14.5
0 5 -8 46.2 14.5
0 5 -7 72.59 16.3
0 5 -7 64.19 13.7
0 -5 7 63.29 13
0 5 -6 103.29 14.5
0 5 -6 135.09 17.6
0 -5 6 96.39 13
0 5 -5 204.98 17.7
0 5 -5 213.38 21.4
0 -5 5 179.18 16.5
0 5 -4 5 4.3
0 5 -4 5.9 4.1
0 -5 4 12.1 5.3
0 5 -3 385.36 25.4
0 5 -3 365.66 22.4
0 -5 3 406.06 22.3
0 5 -2 1.3 3.9
0 5 -2 1.9 5
0 5 -2 4 2.4
0 -5 2 0.1 2.4
0 5 -1 1042.9 38.8
0 5 -1 942.21 50.09
0 -5 1 1015.4 35.5
0 5 0 2.7 2.7
0 -5 0 8.4 3.2
0 5 1 762.42 41.9
0 5 1 737.63 31.9
0 -5 -1 760.12 40.8
0 5 2 108.69 10.9
0 5 2 75.89 15.4
0 -5 -2 84.99 13.1
0 -5 -2 99.39 9.3
0 5 3 82.19 16.3
0 -5 -3 98.09 9.6
0 -5 -3 113.49 15
0 5 4 639.44 38.8
0 -5 -4 643.24 27.4
0 -5 -4 614.44 37.9
0 5 5 523.85 35.8
0 -5 -5 509.85 35.3
0 5 6 67.59 13.3
0 5 6 81.29 17.2
0 -5 -6 86.09 18.9
0 -5 -6 69.79 10.1
0 5 7 11.4 8.1
0 5 7 15.1 6.3
0 5 7 10.1 6.1
0 -5 -7 25.8 10.1
0 -5 -7 8.7 6.3
0 5 8 443.16 36.4
0 5 8 397.96 27.1
0 5 8 403.76 30.2
0 -5 -8 382.76 26.3
0 5 9 783.22 51.19
0 5 9 735.33 43.3
0 5 9 677.23 42
0 -5 -9 700.83 50.89
0 -5 -9 761.52 39.8
0 5 10 122.99 24.8
0 5 10 109.69 24.5
0 -5 -10 161.88 18.9
0 5 11 11.5 9
0 5 11 11.4 9.1
0 -5 -11 3.1 6
0 5 12 116.89 28.1
0 -5 -12 130.09 23.9
0 5 13 -1.6 3.8
0 5 13 1.6 12.5
0 -5 -13 -3.9 9.5
-1 6 -10 2.8 14.7
1 -6 10 2.1 7.2
-1 6 -9 41.8 14.7
1 -6 9 64.49 14.8
-1 6 -8 67.89 18.8
1 -6 8 42.2 12
-1 6 -7 120.49 26
1 -6 7 164.08 19.4
-1 6 -6 50.09 13.8
1 -6 6 44 11.4
1 -6 6 37.9 10.8
-1 6 -5 483.05 32.5
-1 6 -5 470.15 35.8
1 -6 5 496.15 32.3
1 -6 5 487.65 30.5
-1 6 -4 19.5 8.3
-1 6 -4 30.3 9.5
1 -6 4 27.3 8.4
1 -6 4 28 9.1
-1 6 -3 3.4 4.5
1 -6 3 3.8 4.7
1 -6 3 5.4 5.3
-1 6 -2 360.16 24.2
-1 6 -2 370.96 32.1
1 -6 2 353.06 23.5
1 -6 2 374.66 26.4
-1 6 -1 382.36 32.1
-1 6 -1 419.16 25.3
1 -6 1 445.36 28.4
1 -6 1 448.56 26.7
-1 6 0 237.68 18.3
-1 6 0 259.87 24.4
1 -6 0 284.37 21.1
-1 6 1 64.19 15.3
-1 6 1 53.09 9.8
-1 6 2 122.89 11.9
1 -6 -2 129.19 16
-1 6 3 8.7 6.2
1 -6 -3 2.4 3.3
1 -6 -3 2.6 3.5
-1 6 4 6.4 6.2
-1 6 4 6.3 3.6
1 -6 -4 7.6 5.9
1 -6 -4 14.8 6
-1 6 5 6.8 6
1 -6 -5 11.3 5.7
1 -6 -5 -0.2 5.2
-1 6 6 3.4 6.2
-1 6 6 7.8 3.5
1 -6 -6 -4.2 3.7
1 -6 -6 -3.3 6.3
-1 6 7 203.98 22.9
-1 6 7 224.68 15.4
1 -6 -7 229.58 20.4
1 -6 -7 199.78 24.1
-1 6 8 42.7 12.6
-1 6 9 9.4 5.2
-1 6 9 12.6 7.6
1 -6 -9 5.9 9.8
1 -6 -9 4 6.4
-1 6 11 -1.2 2.6
-1 6 11 5.2 3.7
-1 6 11 20 10.6
1 -6 -11 13.4 8.8
-1 6 12 35.3 17.9
1 -6 -12 31.5 11.5
-2 7 -9 19.5 14.1
2 -7 9 0.3 7.4
-2 7 -8 30 13.5
2 -7 8 14 8.2
2 -7 7 -2.2 4.4
2 -7 6 96.09 18.2
2 -7 5 63.59 14.5
2 -7 5 28.8 11.9
-2 7 -4 -1.3 8
2 -7 4 -3.2 4.1
2 -7 4 -4 7.4
-2 7 -3 101.19 22.6
2 -7 3 86.49 16.7
2 -7 3 35.4 18.2
-2 7 -2 38.5 11.4
-2 7 -2 33 10.4
2 -7 2 32.3 9.9
2 -7 2 50.99 12.1
-2 7 -1 264.57 26
-2 7 -1 262.77 22.1
2 -7 1 231.78 22.2
2 -7 1 231.08 21.7
-2 7 0 -2.5 4
-2 7 0 8.3 6.7
2 -7 0 -3.4 3.7
2 -7 0 -0.4 5.5
-2 7 1 856.51 40.8
-2 7 1 976.3 49.3
-2 7 2 17.7 6.5
-2 7 2 -2.1 3.9
-2 7 3 434.76 30.8
-2 7 3 419.86 25.3
2 -7 -3 466.55 31.9
2 -7 -3 428.36 30.4
-2 7 4 342.47 22.1
-2 7 4 345.87 27.5
2 -7 -4 359.86 29.1
2 -7 -4 377.06 28.4
-2 7 5 332.27 26.8
-2 7 5 335.07 21.3
2 -7 -5 362.56 29.4
2 -7 -5 380.46 28.8
-2 7 6 650.73 30
-2 7 6 655.43 40.5
2 -7 -6 668.43 39.9
2 -7 -6 650.83 45.8
-2 7 7 91.39 10.5
-2 7 7 97.79 15.7
2 -7 -7 88.29 20
2 -7 -7 80.09 17.6
-2 7 8 32.3 7
-2 7 8 40.3 12.3
2 -7 -8 40.8 16.7
2 -7 -8 15.8 9.7
-2 7 9 3.4 12.2
-2 7 9 16.2 6.9
-2 7 9 31.8 7.1
2 -7 -9 4.7 6.7
-2 7 10 1.3 4.1
-2 7 10 3.7 9.6
-2 7 10 -4.9 3.2
2 -7 -10 -2.6 6.8
-2 7 11 16.3 12.9
3 -8 7 -2.7 5.2
3 -8 6 -3.2 4.4
-3 8 -5 7.4 13
3 -8 5 7.5 6
-3 8 -4 28.3 12.6
3 -8 4 17.5 8.8
-3 8 -3 47.5 16.9
3 -8 3 68.39 16.5
-3 8 -2 219.88 26.2
3 -8 2 202.38 23
-3 8 -1 208.18 24.7
3 -8 1 171.38 20.6
-3 8 0 61.09 14.1
3 -8 0 75.09 19.8
3 -8 0 66.79 20.3
-3 8 1 25.7 9.5
-3 8 2 14.7 7.6
-3 8 2 18.4 8.5
-3 8 3 49.2 11.8
-3 8 3 59.39 13.2
3 -8 -3 43.7 14.8
-3 8 4 35.2 9.7
-3 8 4 37.2 10.3
3 -8 -4 45.8 12.1
3 -8 -4 44.1 13.3
-3 8 5 68.69 13.2
-3 8 5 78.79 12.8
3 -8 -5 61.99 14.9
3 -8 -5 70.29 15.2
-3 8 6 36.9 12.5
-3 8 6 21.7 8.4
3 -8 -6 51.79 13.9
3 -8 -6 18 9.4
-3 8 7 28.1 9.8
-3 8 7 39.6 13.4
3 -8 -7 38.6 13.2
3 -8 -7 31.8 11.4
-3 8 8 6.5 6.6
-3 8 8 21.7 12.2
3 -8 -8 22.6 11.2
3 -8 -8 37.2 14.9
-3 8 9 -1.4 6.7
-3 8 9 -9.7 6.8
-3 8 9 23.8 11.8
3 -8 -9 19.1 11.5
-4 9 -5 36.5 17.8
4 -9 5 10.3 9
-4 9 -4 2.1 15
-4 9 -4 13 12.5
4 -9 4 7.5 7
-4 9 -3 -17 11.5
4 -9 3 21.1 8.1
-4 9 -2 -3.7 10
4 -9 2 -3.4 5
-4 9 -1 -11.5 8.3
4 -9 1 -7.3 4.7
-4 9 0 9.6 9.1
4 -9 0 -2.8 8.1
-4 9 2 146.69 15.9
-4 9 3 -0.4 6.4
4 -9 -3 21.6 10.3
4 -9 -4 74.79 20.7
4 -9 -5 23.4 13.7
-4 9 6 -2.5 12.9
-4 9 6 4.9 8.6
4 -9 -6 19.7 10.8
8 -2 1 52.99 14
8 -2 2 70.49 17.7
8 -2 3 10.1 8.3
8 -2 4 18.5 8.7
8 -2 5 -10.2 7.8
7 -1 -4 67.49 18.4
7 -1 -4 60.79 10.2
7 -1 -4 67.39 11.5
7 -1 -3 -0.8 8
7 -1 -3 3 3.8
7 -1 -3 5.7 6.9
7 -1 -3 -3.6 3.9
7 -1 -2 68.39 17.7
7 -1 -2 65.79 13
7 -1 -1 -0.9 7.1
7 -1 0 22.6 10.2
7 -1 0 7.3 6
7 -1 1 19.1 9.8
7 -1 2 -6.7 4
7 -1 3 11.2 5.5
7 -1 4 14.1 8.9
-7 1 -4 12.9 6.8
7 -1 5 7.4 6.6
-7 1 -5 2.4 7.7
7 -1 6 9.4 8.2
-7 1 -6 13.9 11.7
7 -1 7 11.8 8.4
-7 1 -7 32.4 13.8
7 -1 8 8.1 6.6
-7 1 -8 22.8 14.3
7 -1 9 10.2 7.6
6 0 -6 20.3 12.8
6 0 -6 12.6 9.1
6 0 -6 13.4 11.1
6 0 -5 6.9 4.2
6 0 -5 18.7 9
6 0 -5 1 8.7
6 0 -5 8.9 8.5
6 0 -4 21.4 8.2
6 0 -4 1.4 8
6 0 -4 20.4 10
6 0 -3 17.8 7.4
6 0 -3 15.7 8.2
6 0 -3 16.7 8.7
6 0 -3 16.4 8.3
6 0 -2 8.3 5.5
6 0 -2 -0.4 5.4
6 0 -2 0.3 6.1
6 0 -1 -2.2 5.2
6 0 -1 -0.9 4.1
6 0 -1 6.9 4.8
6 0 0 19.4 8.6
6 0 0 11.1 6.2
6 0 0 10.2 7.2
6 0 1 6.5 4.4
6 0 1 8 4.9
-6 0 -1 -11.8 7.6
6 0 2 105.19 11.9
6 0 2 123.19 18
-6 0 -2 95.99 20.9
6 0 3 2.8 8.1
6 0 3 17.3 8
6 0 3 16 6.4
-6 0 -3 6.1 6.9
-6 0 -3 14.3 10.2
6 0 4 153.28 20.1
6 0 4 107.59 20.6
6 0 4 118.19 16.8
-6 0 -4 109.99 14.6
6 0 5 20.4 11.4
6 0 5 21.6 8
6 0 5 19.9 9.7
-6 0 -5 28.2 10.7
6 0 6 45.8 12.7
6 0 6 61.49 16.2
-6 0 -6 42.2 12
6 0 7 17.6 8.9
6 0 7 3.8 6.6
-6 0 -7 -1.6 9.1
6 0 8 3.6 6.6
6 0 8 1.8 6.3
-6 0 -8 -1.6 9
6 0 9 89.19 20.9
6 0 9 103.29 22.2
6 0 10 37.1 13.4
6 0 11 67.09 18.6
5 1 -8 -4.4 6.3
5 1 -7 77.19 16.8
5 1 -6 20.4 10.2
5 1 -6 -0.4 5.9
5 1 -6 12.3 3.9
5 1 -6 13.7 10.8
5 1 -6 6.2 2.9
5 1 -5 21.6 10.5
5 1 -5 19.2 6.7
5 1 -4 14.8 9.5
5 1 -4 21.5 8.8
5 1 -4 8.3 5.6
5 1 -3 191.48 18.4
5 1 -3 185.88 21.7
5 1 -3 181.68 18.5
5 1 -2 114.09 14.4
5 1 -2 138.69 17.8
5 1 -2 128.29 16
5 1 -1 35.7 10.9
5 1 -1 28.5 9.5
5 1 -1 35.8 10.2
5 1 0 188.28 20
5 1 0 168.98 17.5
5 1 0 175.18 18.1
5 1 1 36.2 9.9
5 1 1 45 12.5
5 1 2 2.5 4.2
5 1 2 6.4 5.6
-5 -1 -2 4.7 5.1
5 1 3 20 6.9
5 1 3 0 5.5
5 1 3 21.6 8.5
-5 -1 -3 10.2 7.5
-5 -1 -3 15.7 7.4
5 1 4 17.3 8
5 1 4 20.9 9.1
5 1 4 16.3 8.3
-5 -1 -4 8.2 6.8
-5 -1 -4 12.7 10.1
5 1 5 22.3 8.9
5 1 5 12.1 6.8
5 1 5 5.7 7.8
-5 -1 -5 12.6 8.1
-5 -1 -5 17 7.7
5 1 6 -1.2 4.7
5 1 6 -1 3.4
5 1 6 -3.2 3
-5 -1 -6 -6.9 4.8
-5 -1 -6 -3.7 6.2
5 1 7 39.6 12.6
5 1 7 36.9 11.8
5 1 7 43.1 14.9
-5 -1 -7 38.3 13.7
5 1 8 41.1 12.5
5 1 8 36.4 11
5 1 8 28.2 10.9
-5 -1 -8 35.4 14.7
5 1 9 11.3 8.8
5 1 9 21.1 9.4
5 1 10 311.67 31.9
5 1 10 297.67 33
-5 -1 -10 322.37 33.8
5 1 11 1.2 9
-5 -1 -11 0.2 8.9
5 1 12 2.4 8.3
5 1 12 -5.8 6.8
-5 -1 -12 -2.3 13.3
4 2 -9 12.9 7
4 2 -8 156.48 19.4
4 2 -7 3.9 6.3
4 2 -7 -2.4 3.2
4 2 -6 140.09 10.4
4 2 -6 150.78 14.3
4 2 -6 178.08 18.2
4 2 -5 1.7 4.1
4 2 -5 -0.4 3.6
4 2 -4 71.69 10.8
4 2 -4 79.79 11.3
4 2 -4 76.99 18.5
4 2 -3 8.5 4.6
4 2 -3 1.2 4.1
4 2 -3 -2.4 4.7
4 2 -2 1.5 4.9
4 2 -2 6.6 4
4 2 -2 5.2 3.5
4 2 -1 189.68 20.1
4 2 -1 153.98 17.3
4 2 -1 144.59 16.1
4 2 0 22.1 8.4
4 2 0 22.9 8.4
4 2 0 21.2 6.2
4 2 1 4583.44 130.99
4 2 1 4503.65 126.89
-4 -2 -1 4470.45 128.49
4 2 2 979.9 40.4
4 2 2 1039.8 51.09
4 2 2 1035.9 48.4
-4 -2 -2 1002 48
4 2 3 2199.38 80.49
4 2 3 1824.92 72.19
-4 -2 -3 2047.6 74.49
4 2 4 93.89 14.3
4 2 4 73.39 9.7
4 2 4 70.39 15.7
-4 -2 -4 83.99 17.1
-4 -2 -4 83.59 17
4 2 5 6.4 6.5
4 2 5 4.1 3.7
4 2 5 4.2 4.7
-4 -2 -5 -5.4 4.1
-4 -2 -5 -1.1 4
4 2 6 108.09 16.6
4 2 6 72.79 10.7
4 2 6 76.49 17
-4 -2 -6 83.69 15.9
-4 -2 -6 62.39 15.8
-4 -2 -6 80.89 17.9
4 2 7 121.09 18.1
4 2 7 123.39 14.2
4 2 7 130.69 19.3
-4 -2 -7 143.19 23.4
-4 -2 -7 114.09 18.4
-4 -2 -7 129.19 18.9
4 2 8 11 7.6
4 2 8 0.5 5.2
4 2 8 10 6.9
-4 -2 -8 5.8 7.4
-4 -2 -8 9.1 6.1
-4 -2 -8 2.8 8.4
4 2 9 23.6 10.9
4 2 9 15.4 8.3
4 2 9 12.8 8.7
-4 -2 -9 12.2 8.4
-4 -2 -9 15.5 11.1
-4 -2 -9 36.8 15.3
4 2 10 -2.6 5.1
-4 -2 -10 3.3 7.1
4 2 11 64.09 18.6
4 2 11 87.39 19.6
-4 -2 -11 87.19 21.8
4 2 12 18.7 11.2
4 2 12 13.6 10.2
-4 -2 -12 7.2 10.1
4 2 13 69.69 17.7
4 2 13 52.29 17.4
-4 -2 -13 61.19 20.3
3 3 -9 10 9.1
3 3 -9 22.6 11.4
3 3 -8 77.49 16.6
3 3 -8 114.99 12.6
3 3 -7 18.7 7.5
3 3 -7 6.7 4.8
3 3 -6 5.3 4.2
3 3 -6 -1 3.4
-3 -3 6 0.2 5.3
3 3 -5 32.2 6.6
3 3 -5 50.39 11.1
-3 -3 5 31.2 9.6
3 3 -4 10.6 4.6
3 3 -4 8.8 4.4
-3 -3 4 13.9 5.2
3 3 -3 7.6 7.1
-3 -3 3 6.5 4.7
3 3 -2 7.2 6.1
3 3 -2 11.6 4
3 3 -1 -0.1 1.6
3 3 -1 -6.1 2.8
3 3 0 470.05 32.7
3 3 0 475.15 18.8
3 3 1 83.89 15.5
3 3 1 81.39 6.7
-3 -3 -1 84.09 13.3
3 3 2 84.19 15.7
3 3 2 68.59 7
-3 -3 -2 83.49 16.2
3 3 3 298.37 25.5
3 3 3 319.17 25.8
3 3 3 273.47 14
-3 -3 -3 287.37 25.3
3 3 4 248.48 24.1
3 3 4 264.77 24.9
3 3 4 244.28 14.2
-3 -3 -4 245.28 23.6
3 3 5 28.5 10.2
3 3 5 13.9 7.3
3 3 5 18.8 5.3
-3 -3 -5 23.4 7.2
-3 -3 -5 27.9 10.1
3 3 6 290.17 26.6
3 3 6 324.57 28.9
3 3 6 280.87 17.9
-3 -3 -6 306.57 28.9
-3 -3 -6 274.87 21
3 3 7 486.25 35.9
3 3 7 502.15 38.6
3 3 7 492.35 26
-3 -3 -7 501.95 30
-3 -3 -7 501.65 39.2
3 3 8 278.57 26.5
3 3 8 267.07 28.8
3 3 8 232.98 18.9
-3 -3 -8 235.58 27.7
-3 -3 -8 247.98 22.8
3 3 9 27.5 9
3 3 9 37.7 11.7
3 3 9 58.89 17.1
-3 -3 -9 19.9 8.4
-3 -3 -9 25.2 12.4
3 3 10 34.7 11.7
3 3 10 10.2 7.5
3 3 10 35.2 13.1
-3 -3 -10 36.1 12.9
3 3 11 350.26 38.4
3 3 11 330.87 31
-3 -3 -11 312.97 29.3
3 3 12 -5.4 6
-3 -3 -12 -4.6 6.2
3 3 13 23.6 13.6
3 3 13 42.5 13
-3 -3 -13 57.59 18.5
2 4 -10 2.4 10.3
2 4 -10 6.1 9.9
2 4 -9 21.7 9
2 4 -9 32.2 12.1
2 4 -8 3.8 6.1
2 4 -8 4.7 6.9
2 4 -7 111.69 16.2
2 4 -7 65.29 11.6
-2 -4 7 102.99 17.9
2 4 -6 13.9 7.5
2 4 -6 20.3 6.4
-2 -4 6 5.5 6.8
2 4 -5 175.88 14.9
2 4 -5 215.78 18.6
-2 -4 5 185.98 17.3
2 4 -4 14.4 4.5
2 4 -4 14.8 5.7
-2 -4 4 14.9 5.9
2 4 -3 -0.1 2.6
2 4 -3 3.5 3.2
2 4 -2 177.98 12.1
2 4 -2 176.98 22.2
-2 -4 2 186.68 12.2
2 4 -1 25.3 8.9
2 4 -1 35.3 4.7
-2 -4 1 32.1 4.4
2 4 0 127.09 16.9
2 4 0 122.49 6.3
2 4 1 13.2 7.5
-2 -4 -1 16.6 7.8
2 4 2 65.59 14.7
-2 -4 -2 92.09 14
2 4 3 127.79 16.8
2 4 3 117.99 6.1
-2 -4 -3 127.19 7.1
-2 -4 -3 107.19 15.4
2 4 4 -1.9 1.2
2 4 4 -2.6 1.8
2 4 4 1.5 4.6
-2 -4 -4 -0.5 3.2
-2 -4 -4 0.3 1.9
2 4 5 351.46 17.3
2 4 5 363.56 28.1
2 4 5 356.36 30.3
-2 -4 -5 356.76 29.8
-2 -4 -5 355.66 18.3
2 4 6 6.4 4.1
2 4 6 9 7.2
2 4 6 5.4 5.6
-2 -4 -6 14.5 7.2
-2 -4 -6 7.6 5.1
2 4 7 -3.3 2
2 4 7 2.4 4.1
2 4 7 -4 4.2
-2 -4 -7 -2.2 3.2
-2 -4 -7 6.6 6.2
2 4 8 68.69 15.6
2 4 8 58.79 16.6
2 4 8 64.09 12.2
-2 -4 -8 76.89 15
-2 -4 -8 65.99 17.6
2 4 9 144.99 28.8
2 4 9 118.19 17.7
2 4 9 145.09 16
-2 -4 -9 142.19 16.1
-2 -4 -9 124.19 24.6
2 4 10 13.7 9.8
2 4 10 28.2 10.5
2 4 10 5.7 6.7
-2 -4 -10 40.7 11.8
2 4 11 90.69 19.4
2 4 11 83.59 22.4
-2 -4 -11 90.29 18.6
2 4 12 127.29 31
2 4 12 133.99 19.4
-2 -4 -12 140.59 26.4
2 4 13 26.2 10.9
2 4 13 -6.9 11.5
-2 -4 -13 21 12.3
1 5 -10 9.5 10.7
1 5 -9 73.39 18.2
1 5 -9 34.5 14.4
1 5 -8 51.59 16
1 5 -8 39.8 11.2
1 5 -7 138.09 18.9
1 5 -7 67.69 12.9
-1 -5 7 106.99 15.5
1 5 -6 19.8 8.2
1 5 -6 11.7 5.7
-1 -5 6 13.4 6.8
1 5 -5 177.68 16.5
1 5 -5 177.18 18.1
-1 -5 5 146.59 15.1
1 5 -4 238.88 18.3
1 5 -4 267.07 21.1
-1 -5 4 265.87 18.3
1 5 -3 938.71 38.5
1 5 -3 831.62 35.8
-1 -5 3 869.51 34
1 5 -2 83.79 10.3
1 5 -2 67.69 9.3
1 5 -2 67.19 17.1
-1 -5 2 83.99 7.8
1 5 -1 63.79 11.2
1 5 -1 64.49 15.6
1 5 -1 84.69 8.8
-1 -5 1 69.99 6.3
1 5 0 29.2 7.3
1 5 0 20.2 8.7
-1 -5 0 41.4 4.3
1 5 1 43.1 12
-1 -5 -1 35.6 10.7
-1 -5 -1 49.8 4.4
1 5 2 285.97 25.9
-1 -5 -2 265.37 10.9
-1 -5 -2 288.07 25.5
1 5 3 94.19 18.7
-1 -5 -3 100.89 18.9
-1 -5 -3 99.29 6.9
1 5 4 154.88 19.1
-1 -5 -4 149.09 19.7
-1 -5 -4 169.38 10.9
1 5 5 20.8 5.9
1 5 5 38 12
-1 -5 -5 28.3 6.1
-1 -5 -5 22.5 7.2
1 5 6 155.68 21
1 5 6 107.89 15.2
1 5 6 110.19 11.9
-1 -5 -6 105.49 11.2
-1 -5 -6 115.39 22.6
1 5 7 91.99 15.4
1 5 7 91.69 19.6
1 5 7 81.79 16.1
-1 -5 -7 79.09 10
-1 -5 -7 85.39 19.5
1 5 8 111.39 15.1
1 5 8 58.89 12.8
-1 -5 -8 80.69 19.4
1 5 9 19.7 7.6
-1 -5 -9 28.3 11.2
1 5 10 416.66 38.5
1 5 10 433.66 41
1 5 10 467.65 33.1
-1 -5 -10 484.95 32.1
1 5 12 20.3 13.9
1 5 12 25.9 10
-1 -5 -12 44.3 15.1
1 5 13 -8.7 10.5
1 5 13 -2.9 7.5
-1 -5 -13 12.2 10
0 6 -9 14.6 12.4
0 6 -8 17.4 10.7
0 6 -7 492.35 38
0 6 -6 774.42 43.2
0 6 -6 787.02 46.9
0 -6 6 760.82 38.7
0 6 -5 410.06 27.7
0 6 -5 398.36 31.6
0 -6 5 412.36 26.1
0 6 -4 259.37 23.7
0 6 -4 303.97 23.4
0 -6 4 273.87 19.8
0 6 -3 343.97 25.8
0 6 -3 373.56 24
0 6 -3 350.46 34.3
0 -6 3 317.47 20.6
0 6 -2 8.2 8.2
0 6 -2 25.1 6.6
0 -6 2 8.8 4.4
0 6 -1 258.07 27.2
0 6 -1 229.68 17.5
0 -6 1 275.77 17.3
0 6 0 384.26 23.4
0 6 0 373.86 31.2
0 -6 0 402.16 21
0 6 1 106.49 16.8
0 6 1 135.09 13.5
0 -6 -1 99.49 15.4
0 -6 -1 113.79 11.4
0 6 2 309.47 20.7
0 6 2 311.37 27.6
0 -6 -2 292.17 26.6
0 6 3 256.07 24.8
0 6 3 228.28 17.9
0 -6 -3 192.38 21.8
0 -6 -3 232.48 15.8
0 6 4 4019.2 123.59
0 -6 -4 3636.64 95.89
0 -6 -4 3682.13 120.09
0 6 5 115.69 17.3
0 -6 -5 115.29 22
0 -6 -5 115.39 11.9
0 6 6 9.3 7.9
0 -6 -6 24.3 8.9
0 -6 -6 35.3 8.3
0 6 7 326.77 25.5
0 6 7 348.97 31.3
0 -6 -7 315.67 31.1
0 -6 -7 341.97 23.5
0 6 8 403.36 29.2
0 6 8 429.66 37.3
0 -6 -8 405.16 27.6
0 -6 -8 418.46 37.8
0 6 9 86.69 21.4
0 6 9 87.69 16.2
0 6 9 105.29 20.4
0 -6 -9 95.29 13.9
0 6 10 1.5 6.8
0 6 10 2.8 5.7
0 -6 -10 3 5.8
0 6 11 -6.3 8.7
0 6 11 14 8.5
0 -6 -11 16.9 9.7
0 6 12 10.4 12.1
0 6 12 -7.8 6
0 -6 -12 9.7 9.1
-1 7 -9 -1.1 11
-1 7 -8 -0.7 10.7
-1 7 -7 6.6 9.5
1 -7 7 1.2 6.1
-1 7 -6 -3.9 9.7
1 -7 6 -8.5 4.8
1 -7 5 34.3 11
1 -7 5 40.6 11.8
-1 7 -4 16.5 9.7
1 -7 4 6 4.8
1 -7 4 5.6 6.7
-1 7 -3 -0.1 5.5
-1 7 -3 8 7.4
1 -7 3 21.7 7.4
-1 7 -2 3.1 4.3
-1 7 -2 -1.1 6.7
1 -7 2 16 7.2
-1 7 -1 421.46 36.6
-1 7 -1 430.16 27.7
1 -7 1 464.55 28
-1 7 0 126.49 18.9
-1 7 0 143.59 15.3
1 -7 0 124.39 14.9
-1 7 1 49.9 15
-1 7 1 46.1 9.8
-1 7 2 74.89 16.1
-1 7 2 82.59 10
1 -7 -2 64.59 15.4
-1 7 3 223.88 23.5
-1 7 3 192.98 16
1 -7 -3 216.38 22.8
1 -7 -3 212.38 18.7
-1 7 4 128.69 22.9
-1 7 4 120.89 12.3
1 -7 -4 152.58 16.1
1 -7 -4 127.59 18.2
-1 7 5 4.3 3.9
-1 7 5 10.7 7.4
1 -7 -5 -1.9 3.7
1 -7 -5 6.2 8
-1 7 6 29.1 7.9
-1 7 6 12.7 7.6
1 -7 -6 29.2 9
1 -7 -6 31.7 11.1
-1 7 7 6.8 4.6
-1 7 7 22.4 8.6
1 -7 -7 17 6.6
-1 7 8 216.18 15.6
-1 7 8 221.08 25.8
1 -7 -8 210.08 27.2
1 -7 -8 200.98 20.3
-1 7 9 175.48 13.6
-1 7 9 167.18 24
-1 7 9 146.89 17.7
1 -7 -9 206.78 21.2
-1 7 10 228.98 30.3
-1 7 10 238.98 15.8
-1 7 10 221.18 20.5
1 -7 -10 219.78 24.1
-1 7 11 -6.3 5.7
-1 7 11 -4.5 7.8
1 -7 -11 7.1 7.4
2 -8 8 6.7 9.6
2 -8 7 41.8 14.2
2 -8 6 69.99 15.6
-2 8 -5 120.49 29
2 -8 5 122.59 22
-2 8 -4 12.8 12.6
2 -8 4 37.7 12.5
-2 8 -3 7.1 8
2 -8 3 15.3 9
2 -8 3 8.2 8
-2 8 -2 3.2 7.7
2 -8 2 10.9 8.2
2 -8 2 2.4 5.4
-2 8 -1 151.88 23.7
-2 8 0 104.89 22.4
2 -8 0 80.09 15.8
-2 8 1 292.67 24
-2 8 1 289.67 28.8
-2 8 2 45.7 10.5
-2 8 2 28.7 10.1
-2 8 3 43.3 13
-2 8 3 50.29 10.7
2 -8 -3 56.19 14
2 -8 -3 46.7 12.8
-2 8 4 93.29 18.6
2 -8 -4 112.79 17.4
2 -8 -4 71.69 16.4
-2 8 5 12.8 8.8
-2 8 5 17.7 6.4
2 -8 -5 23.9 8.9
2 -8 -5 -5.2 7.4
-2 8 6 6.6 5.9
-2 8 6 -1 4.5
2 -8 -6 -0.6 4.9
2 -8 -6 -6.4 6.9
-2 8 7 -8.1 7.4
-2 8 7 5.1 5.9
2 -8 -7 13.8 10.1
2 -8 -7 -0.2 5.7
-2 8 8 9 6
-2 8 8 14.4 8.6
2 -8 -8 1.1 6.2
2 -8 -8 2.3 12
-2 8 9 10.2 5
-2 8 9 -6.5 7
2 -8 -9 10.8 7.9
-2 8 10 4.4 7.9
-2 8 10 -7.3 11.5
2 -8 -10 7.9 10.3
-3 9 -6 24.5 18.1
3 -9 6 53.39 14.6
-3 9 -5 97.19 24.2
3 -9 5 96.89 19.8
-3 9 -4 47.1 18.7
3 -9 4 43.5 13.5
-3 9 -3 0.3 10.8
3 -9 3 11.6 7.9
-3 9 -2 177.48 25
3 -9 2 144.69 20.9
3 -9 1 9.6 7.3
-3 9 0 342.37 33.2
-3 9 1 106.79 16.8
-3 9 2 53.59 13.4
-3 9 3 20.5 10.1
3 -9 -3 21.8 8.4
-3 9 4 4.7 7.6
3 -9 -4 -11.4 5.9
-3 9 5 12.7 6.8
-3 9 5 -3 6.7
3 -9 -5 -13.2 6.9
3 -9 -5 18.5 10.2
-3 9 6 -12.6 6.8
-3 9 6 15.1 9
3 -9 -6 3.9 10.5
3 -9 -6 -3.7 6.9
-3 9 7 9.2 11.8
-3 9 7 -6 8.7
3 -9 -7 20 14.4
3 -9 -7 14.8 9.8
-3 9 8 -4.8 8.6
-3 9 8 23.1 11.6
3 -9 -8 12.4 14.9
3 -9 -8 6.6 9.4
-4 10 -2 7.1 14
4 -10 2 22.3 16.1
-4 10 -1 5 13.4
-4 10 0 13.6 11
-4 10 1 15.2 11.8
4 -10 -3 130.79 26.8
-4 10 4 -11.8 7.7
4 -10 -4 -20 10.4
8 -1 1 15.9 8.5
8 -1 1 10.4 9.2
8 -1 2 -2.8 7.6
8 -1 3 -6.8 6.7
8 -1 4 -10.3 5.7
8 -1 5 -17.8 7.8
8 -1 6 -11.8 7.3
7 0 -4 5.6 10
7 0 -4 16.9 11.1
7 0 -3 7.7 8
7 0 -3 10.6 7.1
7 0 -3 13.8 8.1
7 0 -2 28.6 12.2
7 0 -2 59.09 13.2
7 0 -2 33.9 9.3
7 0 -1 17.2 6.6
7 0 -1 9 7.7
7 0 -1 7.1 5.9
7 0 0 12.2 8.6
7 0 0 16.5 6
7 0 0 5 8
7 0 1 55.39 17
7 0 1 54.19 9.4
7 0 2 19.2 10
7 0 2 6 4.5
7 0 3 -3.4 4.8
7 0 3 -1 7.5
7 0 4 3.9 5.7
-7 0 -4 16.7 7.2
7 0 5 18.3 10.3
7 0 5 28.7 8.5
7 0 6 90.49 14.5
7 0 6 57.99 16
-7 0 -6 66.89 17.4
7 0 7 41.7 12.4
7 0 7 15.9 9.3
-7 0 -7 -0.1 11.7
7 0 8 85.89 20.2
7 0 8 78.39 17.4
-7 0 -8 61.39 20
7 0 9 37.4 13.3
6 1 -6 1.8 8.4
6 1 -6 4.9 3.1
6 1 -6 6.3 13
6 1 -5 27.7 7.7
6 1 -5 17.7 13.4
6 1 -5 26.2 11.8
6 1 -5 24.7 11.7
6 1 -4 0.2 5.6
6 1 -4 -8.4 6.9
6 1 -4 1.2 6.8
6 1 -3 -6.2 5.3
6 1 -3 6.6 6.3
6 1 -2 8.7 6.6
6 1 -2 -9.3 5.3
6 1 -1 109.09 15.7
6 1 -1 60.29 13.6
6 1 -1 84.59 13.3
6 1 0 3.5 6.7
6 1 0 12 6.2
6 1 1 42 12.3
6 1 2 14.2 7.9
6 1 3 67.29 17.1
6 1 3 61.59 13.7
6 1 3 57.79 14.5
-6 -1 -3 55.29 15.3
-6 -1 -3 71.79 15.8
6 1 4 199.08 42.2
6 1 4 232.28 21.8
6 1 4 262.27 28.7
-6 -1 -4 224.58 23.5
6 1 5 16.7 7
6 1 5 6.5 7.1
6 1 5 17.4 9.1
-6 -1 -5 2.1 7.3
6 1 6 9.6 8.4
6 1 6 1.2 6.5
6 1 6 1 5.7
-6 -1 -6 3.1 7.8
6 1 7 -4.6 5.3
6 1 7 -9.9 4.4
-6 -1 -7 -16.1 10
6 1 8 97.49 20.7
6 1 8 131.39 26.6
-6 -1 -8 73.79 19.8
6 1 9 19 10.1
6 1 9 30.2 15.4
6 1 10 28.7 11.9
6 1 11 18.2 9.7
6 1 11 1.9 7.1
5 2 -7 17.1 8.1
5 2 -7 -5.5 3.4
5 2 -7 4.7 10.3
5 2 -7 5.5 3.2
5 2 -6 30.1 15.5
5 2 -6 14 8.4
5 2 -6 16.9 7.2
5 2 -5 13.5 11.4
5 2 -5 8.7 4.8
5 2 -5 4.8 6.4
5 2 -5 12.7 6.9
5 2 -4 9.1 6.1
5 2 -4 -2.8 6.7
5 2 -4 10.3 6
5 2 -3 51.49 12.5
5 2 -3 32.6 9.9
5 2 -3 43.8 13.7
5 2 -2 1.4 5.7
5 2 -2 -2.6 5.5
5 2 -2 1.2 5.5
5 2 -1 99.19 18.5
5 2 -1 106.39 13.1
5 2 -1 110.19 17.2
5 2 0 114.49 16.1
5 2 0 123.19 14
5 2 0 108.39 16.1
5 2 1 65.19 14.2
5 2 1 48.3 13.7
5 2 2 185.58 22
5 2 2 174.28 19.8
-5 -2 -2 186.68 20.2
5 2 3 16.3 7.9
5 2 3 22.3 8.5
5 2 3 5 5.9
-5 -2 -3 17.1 9.2
5 2 4 2.5 6
5 2 4 5.3 5.5
5 2 4 2.8 5
-5 -2 -4 11.1 7.1
-5 -2 -4 5.3 8
5 2 5 4.4 5.1
5 2 5 1.7 5.9
5 2 5 6.8 4.7
-5 -2 -5 0 6.8
-5 -2 -5 9.9 7
5 2 6 22.8 10.4
5 2 6 26 8.6
5 2 6 35.5 11.3
-5 -2 -6 28.6 12.3
-5 -2 -6 29.9 11.5
5 2 7 3.2 6.7
5 2 7 24.6 8.4
5 2 7 13.1 8.3
5 2 8 39.8 13.5
5 2 8 52.59 15.9
5 2 8 32 11.2
-5 -2 -8 45.3 14.6
5 2 9 26.9 11.1
5 2 9 28.5 12.4
5 2 9 44.9 13.1
-5 -2 -9 35.7 13.5
5 2 10 106.89 22.7
5 2 10 78.29 18.1
-5 -2 -10 102.19 21.4
5 2 11 32.3 14.8
5 2 11 32.7 15.4
-5 -2 -11 13.3 13
5 2 12 58.49 17.7
5 2 12 46.5 16
-5 -2 -12 39 16.4
4 3 -8 13.2 7.5
4 3 -8 -3.9 6
4 3 -7 -0.8 6.5
4 3 -7 1.7 3.8
4 3 -6 73.39 14.4
4 3 -6 55.39 11.5
4 3 -6 59.99 8.6
-4 -3 6 66.49 22.3
4 3 -5 104.19 11.2
4 3 -5 111.59 13.7
4 3 -5 105.39 24.1
4 3 -5 119.59 15.3
4 3 -4 99.59 14.9
4 3 -4 122.79 13.7
4 3 -4 88.69 21.7
4 3 -3 1.6 4
4 3 -3 7.7 7.3
4 3 -3 0.5 5
4 3 -2 39.6 11.6
4 3 -2 43.8 13.3
4 3 -2 31.4 7.2
4 3 -1 8.9 4.5
4 3 -1 7.7 6.7
4 3 -1 11.4 5.5
4 3 0 70.49 17.6
4 3 0 86.29 9.2
4 3 0 85.59 16.4
4 3 1 356.96 29.2
4 3 1 292.97 26.7
4 3 1 341.67 18.4
-4 -3 -1 349.77 29.1
4 3 2 558.94 26.6
4 3 2 600.24 39.6
4 3 2 612.04 38.5
-4 -3 -2 629.34 39.7
4 3 3 77.79 17.1
4 3 3 81.79 9.7
4 3 3 76.49 16.8
-4 -3 -3 67.59 16.1
4 3 4 172.88 13.7
4 3 4 187.58 21.3
4 3 4 153.68 20.2
-4 -3 -4 159.78 20.2
4 3 5 391.46 32.9
4 3 5 373.76 31.3
4 3 5 354.06 20.7
-4 -3 -5 374.76 31
4 3 6 61.09 16.1
4 3 6 62.69 11
4 3 6 78.99 18.2
-4 -3 -6 56.69 15.4
-4 -3 -6 82.89 15.1
4 3 7 74.29 17.3
4 3 7 57.19 11.6
4 3 7 65.69 16.5
-4 -3 -7 48.6 12.1
-4 -3 -7 41.7 16
4 3 8 5.9 5.8
4 3 8 2.8 6.4
4 3 8 -3.2 4.1
-4 -3 -8 -0.3 6.7
-4 -3 -8 6.1 8.3
4 3 9 26.5 11
4 3 9 58.89 17.8
4 3 9 38.5 10.3
-4 -3 -9 16.2 8.8
4 3 10 170.78 24.3
4 3 10 166.98 19.3
4 3 10 171.48 25.2
-4 -3 -10 179.28 22.3
4 3 11 52.49 17
4 3 11 43.1 13.9
-4 -3 -11 47 13.7
4 3 12 6.1 7.7
4 3 12 -8 8.7
-4 -3 -12 8.3 9.9
4 3 13 72.19 22.6
4 3 13 80.59 21.3
-4 -3 -13 56.79 19.5
3 4 -9 33.2 10.8
3 4 -9 29.2 17
3 4 -8 153.58 20.4
3 4 -8 171.88 16.6
3 4 -7 13.5 5.5
3 4 -7 -0.9 5.5
3 4 -6 7.8 6.6
3 4 -6 23.7 6.5
-3 -4 6 23.4 10.4
3 4 -5 137.29 12.5
3 4 -5 130.09 14.8
-3 -4 5 101.99 13.9
3 4 -4 24.2 11.5
3 4 -4 24.5 7.3
3 4 -4 17.2 6.5
-3 -4 4 24.3 7.8
3 4 -3 137.69 14.1
3 4 -3 173.18 16.3
3 4 -3 142.49 22.5
-3 -4 3 177.18 14.8
3 4 -2 263.27 28.9
3 4 -2 250.57 15.2
3 4 -1 29.7 4.5
3 4 -1 14.3 8.1
3 4 0 783.82 47.3
3 4 0 758.42 23.1
3 4 1 48.8 14.1
3 4 1 43.1 3.5
-3 -4 -1 51.29 13.9
3 4 2 2 1.3
3 4 2 3.4 1.4
3 4 2 4.2 4.5
-3 -4 -2 3 4.4
3 4 3 32.6 10.7
3 4 3 20.5 2.9
3 4 3 17.1 7.2
-3 -4 -3 25.5 9.6
3 4 4 8.7 6.8
3 4 4 9.2 2.9
3 4 4 15.4 7.5
-3 -4 -4 3.5 5.7
3 4 5 15.4 4.1
3 4 5 18.3 8.1
3 4 5 6.1 5.3
-3 -4 -5 16.8 5.4
-3 -4 -5 12 6.7
3 4 6 113.79 22.2
3 4 6 116.39 22.7
-3 -4 -6 123.19 18.8
-3 -4 -6 116.59 12.4
3 4 7 78.19 10.4
3 4 7 67.39 17.2
3 4 7 83.59 18.3
-3 -4 -7 87.29 15
-3 -4 -7 64.79 20.7
3 4 8 313.97 29.3
3 4 8 303.77 32
3 4 8 274.37 20.6
-3 -4 -8 253.47 29.7
-3 -4 -8 300.87 23.6
3 4 9 36.1 12.2
3 4 9 31.2 8.7
3 4 9 30.5 10.9
-3 -4 -9 50.39 12.7
3 4 10 7.9 6.7
3 4 10 7.7 8.5
3 4 10 15.3 7
-3 -4 -10 22.1 10.7
3 4 11 1.4 9.8
3 4 11 21.4 10.6
-3 -4 -11 14.8 13.5
3 4 12 -0.1 6.8
3 4 12 -9.6 6.2
-3 -4 -12 -6.5 7.5
3 4 13 22.1 11.2
3 4 13 28.9 15.2
-3 -4 -13 27.2 12.3
2 5 -9 0.4 10
2 5 -9 5.6 9.7
2 5 -8 5.6 7.6
2 5 -8 37 12.4
2 5 -7 163.18 20.4
2 5 -7 186.18 21.1
-2 -5 7 156.88 18.4
2 5 -6 5.2 6.5
2 5 -6 8.3 6.2
-2 -5 6 14.7 8.4
2 5 -5 25.6 6.9
2 5 -5 7.7 6.8
-2 -5 5 24 7.7
2 5 -4 89.49 12.4
2 5 -4 106.89 12.1
-2 -5 4 103.79 12
2 5 -3 149.19 22.1
2 5 -3 140.19 13.2
2 5 -3 107.59 12.2
-2 -5 3 123.19 11.5
2 5 -2 -1.5 3.2
2 5 -2 -1.1 2.8
2 5 -2 4.8 7.5
-2 -5 2 1 2.1
2 5 -1 62.69 7.1
2 5 -1 70.09 18
-2 -5 1 72.09 6.1
2 5 0 31.4 10.2
2 5 1 55.79 14.5
-2 -5 -1 59.69 15.4
2 5 2 28.3 10.7
-2 -5 -2 37.5 12
2 5 3 1357.56 64.29
-2 -5 -3 1370.16 64.19
2 5 4 3.3 5
2 5 4 -0.2 1.6
-2 -5 -4 0.5 5.2
-2 -5 -4 1 2.2
2 5 5 284.57 15.5
2 5 5 282.97 26.1
2 5 5 261.57 27.7
-2 -5 -5 303.07 28.6
-2 -5 -5 274.57 15.1
2 5 6 9.9 4
2 5 6 0.6 6.1
2 5 6 11.9 7
-2 -5 -6 7.8 4.4
-2 -5 -6 -2.9 5.5
2 5 7 31.6 11.9
2 5 7 24.1 9.3
2 5 7 18.3 6.2
-2 -5 -7 31.7 8.4
2 5 8 2 6.5
2 5 8 -0.3 5
2 5 8 2.5 4.2
-2 -5 -8 -10.7 5.8
-2 -5 -8 1.8 4.2
2 5 9 184.58 21.8
2 5 9 212.58 19.3
2 5 9 198.18 26.4
-2 -5 -9 183.28 18.8
2 5 10 14.3 11.7
2 5 10 27.3 9.7
2 5 10 46 10.7
-2 -5 -10 25.1 9.8
2 5 11 5.8 6.7
2 5 11 8.4 10.3
-2 -5 -11 -6.4 6.2
2 5 12 23.3 11.9
2 5 12 33.7 12.8
-2 -5 -12 8.1 8.6
2 5 13 80.29 25.2
-2 -5 -13 85.09 20.8
1 6 -9 7.1 11.5
1 6 -8 90.99 20.1
1 6 -7 72.69 18.2
-1 -6 7 76.99 18.3
1 6 -6 -3.1 4.8
1 6 -6 10 8.4
-1 -6 6 4.9 7.9
1 6 -5 92.89 18.4
1 6 -5 95.19 13.5
-1 -6 5 78.59 11.3
1 6 -4 54.89 11.1
1 6 -3 7.9 5.1
1 6 -3 0.9 3.8
1 6 -3 3.7 6.5
-1 -6 3 4.9 3.2
1 6 -2 110.29 12
1 6 -2 72.79 18.7
1 6 -2 75.49 10.6
-1 -6 2 77.09 8.1
1 6 -1 225.88 26.6
1 6 -1 283.87 20.5
-1 -6 1 259.47 13.7
1 6 0 14.5 5.5
1 6 1 168.38 22.2
-1 -6 -1 183.48 9.6
-1 -6 -1 180.18 22.1
1 6 2 3.3 6.4
-1 -6 -2 2.5 1.9
-1 -6 -2 4.1 2.3
-1 -6 -2 -1.3 5.1
1 6 3 15.1 8
-1 -6 -3 5.1 5.9
-1 -6 -3 3.2 2
1 6 4 18.7 9.4
-1 -6 -4 19.8 9.4
-1 -6 -4 15.2 4.1
1 6 5 50.69 14.9
-1 -6 -5 36.1 7.3
-1 -6 -5 32.1 13.1
1 6 6 1.4 2.8
-1 -6 -6 8.1 6.7
1 6 7 22.3 8.8
1 6 7 21.3 7.7
1 6 7 29.3 11.7
-1 -6 -7 35.2 12.9
-1 -6 -7 45.2 9.5
1 6 8 324.17 33.1
1 6 8 272.97 22.6
1 6 8 285.77 26.5
-1 -6 -8 336.97 33.7
-1 -6 -8 300.57 21.6
1 6 9 623.04 37.8
1 6 9 607.64 50.89
1 6 9 675.83 42.4
-1 -6 -9 646.24 35.1
1 6 10 48.4 14.4
1 6 10 81.29 21.3
-1 -6 -10 65.99 13.9
1 6 11 310.67 28.5
1 6 11 255.07 32.3
-1 -6 -11 289.57 26.7
1 6 12 22.4 9.7
1 6 12 -8.1 8
-1 -6 -12 5.6 7.7
1 6 13 38.7 11
1 6 13 34.8 21.3
-1 -6 -13 28.3 14.5
0 7 -9 25.8 15.8
0 7 -8 -3.1 12.1
0 7 -7 13.6 12
0 7 -6 91.49 21.7
0 -7 6 63.39 13
0 7 -5 252.37 25.7
0 -7 5 276.47 21.8
0 7 -4 28.6 10.4
0 7 -4 9.5 8.5
0 -7 4 16 6.6
0 7 -3 131.19 15.5
0 7 -3 98.89 24.2
0 -7 3 112.09 12.5
0 7 -2 90.79 12.2
0 7 -2 64.79 18.1
0 -7 2 63.79 11.3
0 7 -1 308.27 22.1
0 7 -1 324.27 32.4
0 -7 1 303.87 19.1
0 7 0 14.9 8.7
0 7 0 13.4 5.2
0 -7 0 1.6 5.1
0 7 1 460.05 38.1
0 7 1 460.35 27.7
0 -7 -1 483.45 24.5
0 7 2 -4 3.3
0 7 2 -6.1 5.2
0 -7 -2 -1.6 4.3
0 7 3 7.4 4.6
0 7 3 -7.7 4.6
0 -7 -3 -1.1 3
0 -7 -3 13.5 6.6
0 7 4 66.09 16.1
0 7 4 63.29 12.8
0 -7 -4 60.99 15.8
0 -7 -4 68.89 13
0 7 5 62.99 11.9
0 7 5 79.69 17.9
0 -7 -5 75.19 18
0 -7 -5 71.49 9.7
0 7 6 3.8 5.8
0 -7 -6 -2.1 2.4
0 -7 -6 -6.8 5.9
0 7 7 123.19 18.8
0 -7 -7 110.99 23.5
0 -7 -7 85.59 12.3
0 7 8 6.3 6.5
0 7 8 -3.6 4.8
0 -7 -8 5.8 6.2
0 -7 -8 -5.1 7.7
0 7 9 138.29 33.7
0 7 9 85.39 16.7
0 -7 -9 136.89 21.6
0 7 10 211.28 29.7
0 7 10 172.08 21.2
0 -7 -10 164.68 19.8
0 7 11 7.5 8
0 7 11 -8.2 7.7
0 -7 -11 1.3 5.9
0 7 12 1.8 8.1
0 7 12 -13.5 8
0 7 12 -1.9 7.7
0 -7 -12 -2.1 7.2
-1 8 -8 -16.4 13.6
-1 8 -5 58.19 19.6
1 -8 5 68.29 15.2
-1 8 -4 25.4 13.2
1 -8 4 0.4 7.4
-1 8 -3 231.78 30.1
1 -8 3 165.48 17.6
-1 8 -2 180.18 25.9
1 -8 2 199.68 19
-1 8 -1 1035 61.79
1 -8 1 946.21 44.4
-1 8 0 71.89 13.1
1 -8 0 94.49 16.5
-1 8 1 33.6 13.1
-1 8 1 41.7 9.5
1 -8 -1 38 11
-1 8 2 210.38 18.2
-1 8 2 245.78 28
-1 8 3 148.29 16.1
-1 8 3 152.28 21.4
1 -8 -3 152.88 16.2
1 -8 -3 190.28 22.8
-1 8 4 69.59 17.3
-1 8 4 50.99 16.7
1 -8 -4 117.49 18.6
1 -8 -4 98.19 13.3
-1 8 5 360.46 32.7
-1 8 5 300.37 21.8
1 -8 -5 362.66 25.9
1 -8 -5 329.57 31.9
-1 8 6 10.9 5.8
-1 8 6 16.7 9.4
1 -8 -6 18.1 7.2
1 -8 -6 3.9 7.3
-1 8 7 174.88 23.7
-1 8 7 186.08 16.1
1 -8 -7 183.78 19.1
1 -8 -7 168.78 25.6
-1 8 8 23.9 13
1 -8 -8 16.9 13.2
-1 8 9 27.2 7.7
-1 8 9 33.6 15.4
-1 8 9 38.7 12.1
1 -8 -9 29.3 11.7
-1 8 10 126.39 13.3
-1 8 10 181.58 25.7
-1 8 10 127.49 18.4
1 -8 -10 96.39 19.2
-1 8 11 -9.1 8.3
-1 8 11 3.6 10.8
-1 8 11 -9.1 5.6
1 -8 -11 13.1 9.1
-2 9 -6 15.5 18
-2 9 -5 109.09 27.5
-2 9 -4 36.5 16
-2 9 -3 4.6 11.5
-2 9 -2 185.98 26.7
2 -9 2 149.29 19.6
-2 9 -1 229.48 30
2 -9 1 217.78 24.6
-2 9 0 -6.5 8.3
2 -9 0 -11.5 8.8
-2 9 1 116.29 22.7
2 -9 -1 116.69 21
-2 9 2 17.5 9.1
-2 9 3 17.1 10.7
2 -9 -3 10.4 7.3
-2 9 4 4 7.2
2 -9 -4 4.6 5.8
2 -9 -4 1.6 8.4
-2 9 5 377.86 34.2
-2 9 5 381.26 26.7
2 -9 -5 349.07 34.4
-2 9 6 123.79 19.5
-2 9 6 98.69 16
2 -9 -6 78.49 18.8
2 -9 -6 90.59 17.1
-2 9 7 70.29 13.7
-2 9 7 68.19 16.8
2 -9 -7 60.19 14.1
2 -9 -7 69.69 18.5
-2 9 8 -7.1 5.7
2 -9 -8 16.7 9.2
-2 9 9 13.2 11.3
-2 9 9 -9.5 6.7
2 -9 -9 8.5 9.4
-3 10 -4 4.4 16.3
-3 10 -3 2.7 12.5
-3 10 -2 31.8 17.7
-3 10 -1 26.2 12.4
-3 10 0 -6 9.7
-3 10 1 -0.3 11.6
-3 10 2 15 11.9
-3 10 3 97.69 19.3
3 -10 -3 42.2 14
-3 10 4 52.29 15.1
3 -10 -4 43.3 15.6
-3 10 5 -10.5 9
3 -10 -5 -0.4 6.7
-3 10 6 11.1 10.2
3 -10 -6 2.2 10.7
3 -10 -6 16.1 10.5
8 0 1 1.7 3.1
8 0 1 7.2 8.6
8 0 1 -16.2 7.6
8 0 2 2.6 10
8 0 2 8.1 4.3
8 0 3 16.3 11.7
8 0 3 11.6 5.6
8 0 4 5.1 9.9
8 0 4 3.9 6.3
8 0 5 9.5 7.4
8 0 5 2.2 10.6
-8 0 -5 41.9 12.2
8 0 6 -6.4 7.2
-8 0 -6 14.5 14.9
7 1 -3 5.4 8.3
7 1 -3 -0.1 9.3
7 1 -3 -3.9 6.7
7 1 -2 -5.9 5.7
7 1 -2 12.1 9.1
7 1 -2 -6.1 6.3
7 1 -1 -7.8 7.9
7 1 -1 6.4 6.5
7 1 -1 1.9 7.3
7 1 0 11 7.6
7 1 0 11.4 7.5
7 1 0 -7.5 7.6
7 1 1 -5.8 6
7 1 1 -7.2 6.6
7 1 1 2.1 9.1
7 1 2 6.4 5.9
7 1 2 7.4 8.3
7 1 3 -3.1 5.3
7 1 3 0.3 6.4
7 1 4 -6.4 5.2
7 1 4 11.1 6.3
-7 -1 -4 -0.3 8.2
7 1 5 8.6 9.3
7 1 5 5 7.1
-7 -1 -5 29.4 10.6
7 1 6 13.3 8.1
-7 -1 -6 7.9 11.4
7 1 7 1.2 6.6
7 1 7 11.3 7.2
-7 -1 -7 4 13.1
7 1 8 16.7 9.9
7 1 8 8 8.7
7 1 9 -8.5 9
7 1 9 -8.8 13.6
7 1 10 24.3 11.7
7 1 10 -4.8 9.5
6 2 -5 6.5 6.6
6 2 -5 -8.4 7.2
6 2 -5 -2.7 6.9
6 2 -4 14 8.1
6 2 -4 38.4 10.4
6 2 -4 32.3 11.2
6 2 -3 6.2 6.1
6 2 -3 4 8.1
6 2 -3 -8.7 5.9
6 2 -2 -2.1 7.3
6 2 -2 -3.5 3.8
6 2 -2 5.8 6.3
6 2 -1 55.09 15.2
6 2 -1 49.7 14.2
6 2 0 15.1 8
6 2 0 20.2 8.8
6 2 0 36.1 11.9
6 2 1 444.46 30.4
6 2 1 438.66 35.7
6 2 1 444.86 33.6
6 2 2 -0.3 5.5
6 2 2 7.5 7.3
6 2 3 207.38 25.5
6 2 3 207.48 20.7
6 2 3 202.38 22.2
-6 -2 -3 223.08 23.6
6 2 4 100.59 19.6
6 2 4 119.19 15.8
6 2 4 134.69 30
-6 -2 -4 107.39 20.7
6 2 5 25.7 10.9
6 2 5 8.4 8.4
6 2 5 19 7.4
-6 -2 -5 6 9.1
6 2 6 73.09 18.5
6 2 6 84.99 18.5
6 2 6 40.7 16.3
-6 -2 -6 76.89 18.9
6 2 7 94.89 17.3
6 2 7 94.09 19.8
6 2 7 126.79 26.1
-6 -2 -7 122.49 23.8
6 2 8 49.1 16.2
6 2 9 10.2 8.4
6 2 9 9.6 10.2
6 2 10 60.09 17.6
6 2 10 66.09 20.7
6 2 11 61.39 19.9
6 2 11 72.19 18.5
5 3 -7 -8.6 5.9
5 3 -7 17.2 13
5 3 -7 14.6 7.9
5 3 -7 -6.5 6.7
5 3 -6 2.9 4.6
5 3 -6 -20.7 9
5 3 -6 12.1 6.9
5 3 -6 3.6 7.6
5 3 -5 251.97 33
5 3 -5 204.08 16.4
5 3 -5 227.58 22.3
5 3 -5 168.48 19.4
5 3 -4 -7.8 5.1
5 3 -4 0.1 3.3
5 3 -4 7.2 9
5 3 -3 31.9 8.5
5 3 -3 26.8 11.8
5 3 -3 30.8 10.1
5 3 -2 22.9 9.7
5 3 -2 15.9 8.9
5 3 -1 14 8.8
5 3 -1 16.9 9.3
5 3 -1 6 5.4
5 3 0 72.59 18.2
5 3 0 63.39 9.5
5 3 0 80.79 17.2
5 3 1 -5.1 3.4
5 3 1 -2.6 3.7
5 3 1 7.5 6.1
5 3 2 65.79 15.2
5 3 2 78.19 13.5
5 3 2 93.29 19.6
-5 -3 -2 72.39 16.5
5 3 3 42.8 13.1
5 3 3 33.3 12.7
5 3 3 32.8 8.7
-5 -3 -3 24.7 11.5
5 3 4 7.8 6.2
5 3 4 6 5
5 3 4 7.4 5.7
-5 -3 -4 10.7 8.1
5 3 5 43.2 9.4
5 3 5 42 13.9
5 3 5 50.59 14.3
-5 -3 -5 19.5 12.9
5 3 6 22.1 10.8
5 3 6 12.3 8.7
-5 -3 -6 18.2 11.2
5 3 7 147.29 21.1
5 3 7 126.99 15.2
-5 -3 -7 181.38 24.1
5 3 8 -5.8 5.7
5 3 8 -2.3 5.1
5 3 8 8 8.1
-5 -3 -8 0.7 9.8
5 3 9 6.9 7.7
5 3 9 15.7 7.8
5 3 9 -5 5.5
-5 -3 -9 10.1 9.8
5 3 10 78.69 21.5
5 3 10 50.89 17.7
-5 -3 -10 85.59 20.4
5 3 11 -9.3 7.6
5 3 11 6.8 7.4
-5 -3 -11 -2.5 9.2
5 3 12 23.8 12.3
5 3 12 27.2 14.8
-5 -3 -12 39.4 14.7
4 4 -8 120.59 16
4 4 -8 85.59 17.3
4 4 -7 66.89 22.8
4 4 -7 63.99 12.3
4 4 -7 94.19 17.6
4 4 -7 81.29 16.4
4 4 -6 98.69 14.6
4 4 -6 100.59 25.7
4 4 -6 108.59 12
-4 -4 6 107.49 23.3
4 4 -5 14.5 6.8
4 4 -5 5.3 9.6
4 4 -5 11.5 6.8
4 4 -4 13.2 6
4 4 -4 6.1 9.6
4 4 -4 6.3 5.7
4 4 -3 37 14.1
4 4 -3 36.8 8
4 4 -2 14.6 5.9
4 4 -2 32.5 10.5
4 4 -2 18.1 8.1
4 4 -1 48.6 13.3
4 4 -1 30.7 11.9
4 4 -1 68.99 8
4 4 0 10.6 3.7
4 4 0 7.1 5.7
4 4 0 19.6 8.5
4 4 1 251.17 25.8
4 4 1 255.97 27.4
4 4 1 255.47 13.2
4 4 2 32.4 4.7
4 4 2 33.1 11.7
4 4 2 16.6 8.8
4 4 2 41.5 5.9
-4 -4 -2 41.2 13.2
4 4 3 277.17 28.2
4 4 3 264.47 27.4
4 4 3 261.77 14
-4 -4 -3 274.67 28
4 4 4 81.39 18.8
4 4 4 64.99 7.3
4 4 4 76.09 18.1
-4 -4 -4 101.89 20.4
4 4 5 12.4 8.3
4 4 5 12.5 6
4 4 5 3.2 3.2
-4 -4 -5 1.7 6.1
4 4 6 -1 6
4 4 6 -2.8 4.5
4 4 6 4.3 3.2
-4 -4 -6 1.8 5.6
4 4 7 220.78 27.1
4 4 7 223.48 26.4
4 4 7 224.58 16.9
-4 -4 -7 239.68 28.6
-4 -4 -7 234.38 20.6
4 4 8 1.2 3.9
4 4 8 -0.8 6.6
4 4 8 13.3 6.2
-4 -4 -8 2.6 5.2
4 4 9 50.29 15.6
4 4 9 49.5 10.9
4 4 9 45.1 16.8
-4 -4 -9 76.69 17.2
4 4 10 10.9 6.4
4 4 10 10.8 10
4 4 10 5 8
-4 -4 -10 7.7 8.5
4 4 11 103.59 23.6
4 4 11 80.39 21.6
-4 -4 -11 98.39 20.6
4 4 12 3.2 7.4
4 4 12 0.7 7.9
-4 -4 -12 -6.5 8.1
4 4 13 22.8 13.9
-4 -4 -13 -4.5 10.6
3 5 -8 -4.2 8.7
3 5 -8 -15.2 7.1
3 5 -7 9 7.8
3 5 -7 2.1 6.7
3 5 -6 16.1 10.3
3 5 -6 2.9 6.4
-3 -5 6 -3.8 7.8
3 5 -5 79.89 11.4
3 5 -5 73.99 14
3 5 -5 110.19 27.7
-3 -5 5 72.29 14
3 5 -4 19.9 7.6
3 5 -4 36.2 16
3 5 -4 17.5 6.4
-3 -5 4 38.9 8.8
3 5 -3 7.6 7.8
3 5 -3 0.1 4.6
3 5 -3 2.6 4.2
-3 -5 3 -0.6 3.3
3 5 -2 164.18 12.9
3 5 -2 167.38 25.4
-3 -5 2 188.38 13.8
3 5 -1 -2.4 5.5
3 5 -1 0.4 2.1
3 5 0 6.6 6.2
3 5 1 530.25 41
-3 -5 -1 481.35 38.4
3 5 2 256.67 27.5
-3 -5 -2 239.48 26.2
3 5 3 113.09 17.9
-3 -5 -3 121.49 18.4
3 5 4 116.79 23
3 5 4 78.39 5.1
3 5 4 81.69 17.9
-3 -5 -4 82.59 18.9
3 5 5 65.09 6.3
3 5 5 50.39 14.8
3 5 5 88.49 19.4
-3 -5 -5 60.39 7.4
-3 -5 -5 57.09 16.9
3 5 6 14.5 7.9
3 5 6 -2.1 3.8
-3 -5 -6 5.9 3.3
3 5 7 34.2 7.6
3 5 7 49.6 14.5
3 5 7 15.5 10.6
-3 -5 -7 23.1 11.3
3 5 8 23.5 10.8
3 5 8 16.6 10
3 5 8 15.7 6.1
-3 -5 -8 11.4 11
-3 -5 -8 11.2 6.1
3 5 9 440.56 37.5
3 5 9 405.16 40.4
3 5 9 441.56 27.1
-3 -5 -9 379.96 27.4
3 5 10 84.49 20.1
3 5 10 130.29 29.3
3 5 10 119.79 15.6
-3 -5 -10 113.09 16.8
3 5 11 -9.7 6.6
-3 -5 -11 5.9 8.3
3 5 12 123.79 29.3
3 5 12 119.39 25.9
-3 -5 -12 149.39 26.3
3 5 13 35.7 11.2
-3 -5 -13 12.1 11.6
2 6 -8 0.8 9.6
2 6 -7 30.9 10.7
2 6 -6 -3.4 6.8
2 6 -6 -5.7 6.7
-2 -6 6 14.4 6.5
2 6 -5 91.69 12.4
2 6 -5 94.79 17.8
2 6 -5 89.59 23.4
-2 -6 5 120.49 13.9
2 6 -4 35.6 19.4
2 6 -4 57.29 12.6
2 6 -4 73.09 10.4
-2 -6 4 60.19 10.6
2 6 -3 140.09 14.2
2 6 -3 135.59 21.9
-2 -6 3 124.39 11.4
2 6 -2 44.7 15.5
2 6 -2 27.8 7.8
2 6 -2 22.6 6.9
-2 -6 2 22.3 5.3
2 6 -1 52.89 11.7
2 6 -1 57.69 18.4
-2 -6 1 70.59 6.1
2 6 0 160.68 23
2 6 1 57.89 16.1
-2 -6 -1 52.49 14.8
2 6 2 288.47 29.9
-2 -6 -2 284.57 29.1
2 6 3 7.4 6.6
-2 -6 -3 17.2 9
2 6 4 743.43 49.6
-2 -6 -4 684.03 47.3
-2 -6 -4 705.83 21.3
2 6 5 35.2 12.7
-2 -6 -5 45.3 6
-2 -6 -5 43.2 13.9
2 6 6 118.29 11
2 6 6 104.29 20.4
2 6 6 132.89 26
-2 -6 -6 116.19 24.8
-2 -6 -6 97.89 9.9
2 6 7 18.9 10
2 6 7 36.9 8.3
2 6 7 28 12.9
-2 -6 -7 41.8 14.5
-2 -6 -7 39.1 8.8
2 6 8 72.19 19.1
2 6 8 60.79 16.8
2 6 8 83.69 11.9
-2 -6 -8 83.69 11.9
2 6 9 467.75 30
2 6 9 423.16 36.1
2 6 9 426.06 40.7
-2 -6 -9 420.96 27.5
2 6 10 96.49 24.6
2 6 10 105.89 15.4
2 6 10 107.39 21.1
-2 -6 -10 117.69 20.2
2 6 11 149.49 20.9
2 6 11 178.78 36
-2 -6 -11 166.98 42.6
2 6 12 19.3 10
2 6 12 43.1 14.9
-2 -6 -12 47.4 14.8
2 6 13 2.7 14.8
-2 -6 -13 7.9 9.9
1 7 -8 -14.4 8.6
1 7 -7 115.19 35.5
1 7 -6 77.89 18.5
-1 -7 6 50.99 12.9
1 7 -5 -1.7 8.2
1 7 -5 4.9 8.6
-1 -7 5 6.6 6.2
1 7 -4 249.48 23.5
1 7 -4 291.27 36.6
-1 -7 4 248.08 19
1 7 -3 4.3 7.1
1 7 -3 2.2 4.7
-1 -7 3 1.4 3.7
1 7 -2 49.99 16.8
1 7 -2 47.2 10.3
-1 -7 2 54.19 13.3
1 7 -1 125.59 14.8
1 7 -1 112.99 25
-1 -7 1 124.29 9.8
1 7 0 314.17 24.8
1 7 0 332.17 34.1
-1 -7 0 401.06 16.8
1 7 1 21.1 9.6
1 7 1 25.8 9.6
-1 -7 -1 39.5 5.2
1 7 2 249.58 22
1 7 2 266.37 29.1
-1 -7 -2 247.18 28.6
-1 -7 -2 259.77 13.3
-1 -7 -2 262.77 12.9
1 7 3 -2.5 5.1
-1 -7 -3 -2.4 1.7
-1 -7 -3 6.1 6.6
1 7 4 4.4 7.9
-1 -7 -4 12.3 8.5
1 7 5 -2.8 4.4
1 7 6 20.4 10
-1 -7 -6 24.2 7.5
-1 -7 -6 4.7 7.9
1 7 7 1.4 7.3
-1 -7 -7 -3.9 2.9
-1 -7 -7 19.3 8.8
1 7 8 60.39 15.5
1 7 8 83.29 12.4
1 7 8 105.29 23.9
-1 -7 -8 70.39 12.5
1 7 9 8.4 6.3
1 7 9 13.6 8
1 7 9 2.2 6.5
-1 -7 -9 -0.4 4.1
1 7 10 32.6 13.5
1 7 10 91.79 22.7
-1 -7 -10 45.1 10.8
1 7 11 96.09 23.6
1 7 12 -1.1 8.7
1 7 12 23 13
-1 -7 -12 10.6 7.7
0 8 -7 13.2 12.1
0 8 -6 -1.8 10.7
0 8 -6 18.7 12.9
0 8 -5 82.89 25.7
0 -8 5 123.09 16.1
0 8 -4 268.07 34.2
0 -8 4 291.17 22
0 8 -3 182.38 27.5
0 -8 3 183.88 16.5
0 8 -2 -8.3 7.4
0 -8 2 8 6.4
0 8 -1 276.47 32.2
0 -8 1 302.27 20.2
0 8 0 25.3 9.4
0 8 0 11.8 8.7
0 -8 0 19 7.8
0 8 1 270.47 32
0 8 1 309.67 23.1
0 -8 -1 309.67 20.3
0 8 2 314.17 32.8
0 8 2 308.07 23.9
0 -8 -2 316.37 21.5
0 -8 -2 293.87 19.6
0 8 3 16.7 7.4
0 8 3 22 11.8
0 -8 -3 16.1 6
0 8 4 764.92 38.9
0 8 4 737.83 51.19
0 -8 -4 721.13 58.39
0 -8 -4 725.43 33.1
0 8 5 1 5.6
0 8 5 9.3 7.8
0 -8 -5 -0.8 6.9
0 -8 -5 8.2 4.6
0 8 6 738.63 40.4
0 8 6 814.62 54.19
0 -8 -6 773.82 36
0 -8 -6 705.33 50.99
0 8 7 278.67 26.5
0 8 7 332.27 34.4
0 -8 -7 285.97 22.5
0 -8 -7 264.47 47.2
0 8 8 382.26 32.7
0 8 8 410.56 77.89
0 -8 -8 407.46 28.2
0 8 9 4.2 7.5
0 8 9 11 8.8
0 8 9 -3 10.7
0 -8 -9 13.4 6.8
0 8 10 36.1 14.5
0 -8 -10 34.4 11.6
0 8 11 -12.2 7.9
0 8 11 18.1 12.5
0 -8 -11 3.9 8
-1 9 -6 -6.2 14
-1 9 -5 20.8 15.8
-1 9 -4 -5.2 7.8
1 -9 4 13.7 9.6
-1 9 -3 9.8 9.5
1 -9 3 14.3 8.9
-1 9 -2 45.2 19.2
1 -9 2 36.1 11
1 -9 1 45 11.1
1 -9 0 114.79 16.2
-1 9 1 61.09 17.2
1 -9 -1 94.29 16
-1 9 2 144.59 23.3
1 -9 -2 228.88 22.5
-1 9 3 33.3 14.5
1 -9 -3 24.4 7.9
1 -9 -3 24.5 10.8
-1 9 4 78.49 18.5
1 -9 -4 83.99 12.7
1 -9 -4 127.89 19.8
-1 9 5 19.9 7.2
-1 9 5 28.3 12
1 -9 -5 33.1 13.1
1 -9 -5 47.2 11.3
-1 9 6 58.39 16.2
-1 9 6 49.7 10.8
1 -9 -6 31.5 14.1
1 -9 -6 31.3 9.6
-1 9 7 35.5 12.7
-1 9 7 16 7.3
1 -9 -7 27.5 9.5
-1 9 8 54.09 16.7
-1 9 8 44.4 9.9
1 -9 -8 50.29 13
-1 9 9 25.7 13.7
-1 9 9 48.6 10.6
1 -9 -9 45.1 12.8
-1 9 10 9 7.2
-1 9 10 -15.5 11.4
-1 9 10 9.7 10.2
1 -9 -10 26.4 12.3
-2 10 -4 23 14.2
-2 10 -3 31.7 16.2
-2 10 -2 0.5 14.3
-2 10 -1 -8.5 13.2
-2 10 0 -5.5 10
-2 10 1 9.2 11.6
2 -10 -1 23.3 21.3
-2 10 2 91.69 21.9
-2 10 3 221.58 27.4
2 -10 -3 202.38 23
-2 10 4 3.3 13
2 -10 -4 14 11.4
-2 10 5 8.3 12.8
2 -10 -5 18.5 12.3
2 -10 -5 19.7 10.5
-2 10 6 20.1 11.4
2 -10 -6 -4.6 6.6
-2 10 7 19.8 14.2
2 -10 -7 15.9 10
-2 10 8 73.79 17.2
2 -10 -8 84.99 17.9
-3 11 0 5.6 19.9
-3 11 1 2.6 14.2
-3 11 2 60.79 17.1
3 -11 -2 33.3 13.9
-3 11 3 33.2 16.2
3 -11 -3 27.1 10.4
8 1 1 11.7 9.8
8 1 1 -4.7 7.4
8 1 1 -2.2 10
8 1 2 4.5 7
8 1 2 10.6 9.6
8 1 3 14.9 8.1
8 1 3 35.3 10.8
8 1 4 31.9 10.1
8 1 4 22.4 10.7
8 1 5 9.4 8.4
8 1 5 10.5 10.9
-8 -1 -5 1.8 12.8
8 1 6 28.9 11.2
7 2 -3 -0.9 8.8
7 2 -3 3.5 7.3
7 2 -3 -5.5 10.2
7 2 -2 60.29 16.6
7 2 -2 47.5 15.9
7 2 -2 72.99 15
7 2 -1 -0.8 7.8
7 2 -1 -7.5 5.8
7 2 0 8.9 7.8
7 2 0 -10 8.3
7 2 1 48.5 12.3
7 2 1 55.59 12.1
7 2 1 38.2 12.1
7 2 2 62.89 15.4
7 2 2 47 12.9
7 2 2 54.59 14.8
7 2 2 32.3 12.7
7 2 3 29.3 12.1
7 2 3 37.5 13.5
7 2 3 43.9 13.1
7 2 4 4.6 7
7 2 4 -9.4 4.6
7 2 4 -20 9
-7 -2 -4 26 9.8
7 2 5 23.4 11.6
7 2 5 22.5 10
7 2 5 26.1 10.3
7 2 6 -8.5 6.5
-7 -2 -6 6.8 11.9
7 2 7 7.5 9
7 2 8 3.4 7.6
7 2 8 5.4 8.2
7 2 9 -4.4 10.3
7 2 10 122.79 26.2
7 2 10 141.39 27.9
6 3 -5 32.3 17.4
6 3 -5 67.59 13.8
6 3 -5 54.69 11.5
6 3 -5 92.99 17.7
6 3 -4 57.39 14.9
6 3 -4 45.1 12.1
6 3 -4 62.79 16.3
6 3 -3 -3.5 4.5
6 3 -3 2.8 9
6 3 -3 9.5 6.6
6 3 -2 -1.4 4.8
6 3 -2 3 8.1
6 3 -2 -2.8 5.2
6 3 -1 41.5 10.1
6 3 -1 37.8 12.4
6 3 -1 33.3 12.5
6 3 0 24.3 8.4
6 3 0 23.3 9.9
6 3 0 25.1 10.5
6 3 1 281.17 30
6 3 1 289.17 29.4
6 3 1 299.57 23
6 3 2 543.55 40.1
6 3 2 503.95 41.1
6 3 2 547.95 31.4
6 3 2 505.45 32.4
6 3 3 17.4 8.4
6 3 3 3.7 9.5
-6 -3 -3 15.2 8.8
6 3 4 425.56 35.3
6 3 4 366.26 36.7
6 3 4 387.26 27.7
-6 -3 -4 407.76 36.8
6 3 5 -9.1 7.6
6 3 5 -7.5 5.8
6 3 5 13 8.2
-6 -3 -5 -3.9 7.2
6 3 6 1.7 6.2
6 3 6 4.7 8.9
6 3 6 2.7 6.2
-6 -3 -6 6.6 8.7
6 3 7 -1.1 7.7
6 3 7 -7.6 5.8
6 3 7 26.7 9.9
-6 -3 -7 -0.3 11.5
6 3 8 60.19 18.7
6 3 8 62.39 14.2
6 3 8 85.49 22.4
6 3 9 24.3 12.5
6 3 9 49.5 15.9
6 3 10 6.9 11.4
6 3 10 -6.9 6.9
6 3 11 7.3 9.6
6 3 11 -4.2 7.4
5 4 -6 33.2 11.7
5 4 -6 39 16.5
5 4 -6 41 9.3
5 4 -6 47.4 12.3
5 4 -5 -0.6 5.8
5 4 -5 -14.3 5.7
5 4 -5 7.7 7
5 4 -5 5.5 10.5
5 4 -4 -3.4 4.7
5 4 -4 -11.2 5.3
5 4 -4 6 10.1
5 4 -4 -0.4 8
5 4 -3 9.4 9.5
5 4 -3 -1.8 5.5
5 4 -3 -0.2 4.3
5 4 -2 0.4 5.6
5 4 -2 22.5 11.4
5 4 -2 11.1 6.1
5 4 -1 10.8 9.2
5 4 -1 7.2 5.7
5 4 0 93.39 19.7
5 4 0 94.29 21.9
5 4 0 85.89 9.8
5 4 1 26.7 11.6
5 4 1 14.8 5.2
5 4 1 23.2 10.1
5 4 2 4.8 4.4
5 4 2 5.3 3.7
5 4 2 -4.2 6.2
5 4 2 11.1 8.1
-5 -4 -2 18.2 8.5
5 4 3 36.9 7.9
5 4 3 35.4 13.8
5 4 3 37.2 13.1
-5 -4 -3 21.1 11.9
5 4 4 57.09 16.3
5 4 4 50.29 9.6
5 4 4 65.19 17.3
-5 -4 -4 52.29 18.6
5 4 5 40 13.2
5 4 5 47.2 14.5
5 4 5 32 7.4
-5 -4 -5 35.4 13.8
5 4 6 6.4 7.8
5 4 6 -0.9 4.1
-5 -4 -6 -2.8 7.5
5 4 7 0.8 4.7
5 4 7 4.9 5.7
5 4 7 0.5 6.2
-5 -4 -7 3 8.8
5 4 8 82.39 12
5 4 8 106.59 24.4
5 4 9 81.09 21.4
5 4 9 59.79 13.1
5 4 9 77.39 20.6
-5 -4 -9 79.09 18.5
5 4 10 30.3 13.4
5 4 10 16.5 8.9
5 4 10 46.2 15.4
-5 -4 -10 37.2 12.2
5 4 11 79.49 20.7
5 4 11 58.09 18.6
-5 -4 -11 89.69 19.7
5 4 12 57.79 19.2
5 4 12 70.69 21
-5 -4 -12 52.99 17.1
4 5 -7 0.7 11.2
4 5 -7 4.2 8.3
4 5 -7 2.2 8.9
4 5 -6 71.19 13.1
4 5 -6 85.99 21.3
4 5 -6 81.39 16.1
-4 -5 6 42.2 18.6
4 5 -5 86.09 12.4
4 5 -5 95.39 12.5
4 5 -5 86.19 21.7
4 5 -4 20.2 10.8
4 5 -4 6.4 8.5
4 5 -4 32 8.8
4 5 -3 18.3 6.4
4 5 -2 5.8 3.9
4 5 -2 2.5 6.7
4 5 -1 82.39 8.1
4 5 -1 97.59 22.4
4 5 0 0.8 2.5
4 5 1 23.6 9.1
4 5 1 9.4 2.3
4 5 1 13.3 7.2
4 5 1 4.9 2.9
4 5 2 11.1 6.6
4 5 2 7.4 5.8
4 5 3 28.8 10.9
4 5 3 40.1 12.8
-4 -5 -3 36.1 13.6
4 5 4 127.79 7.4
4 5 4 163.58 21.6
4 5 4 164.98 22.1
4 5 5 109.09 22.8
4 5 5 120.69 24.7
4 5 5 110.49 8.4
-4 -5 -5 126.79 25.1
4 5 6 58.89 17.8
4 5 6 21 10.3
4 5 6 18.2 5.2
-4 -5 -6 40.5 14.2
4 5 7 10.9 4.5
4 5 7 10.2 9.2
4 5 7 32.8 11.8
-4 -5 -7 26.2 13.4
4 5 8 16.2 5.1
-4 -5 -8 6.8 5.9
4 5 9 12.9 9.9
4 5 9 11.7 5.7
4 5 9 4.5 8.4
-4 -5 -9 6 6.3
4 5 10 59.79 20.8
4 5 10 68.49 13.9
4 5 10 49.1 14.2
-4 -5 -10 67.99 16.4
4 5 11 8.7 8.9
4 5 11 7.5 8.1
-4 -5 -11 -7.6 7
4 5 12 60.39 18.2
4 5 12 73.99 21.6
-4 -5 -12 46.9 14.6
4 5 13 32.9 17.2
4 5 13 47 17
-4 -5 -13 28.7 12.1
3 6 -7 41.6 14.6
3 6 -7 33 17.1
3 6 -6 -4.6 6.6
3 6 -6 22.9 13.6
-3 -6 6 3.4 8.5
3 6 -5 -1.1 4.8
3 6 -5 5.5 9.2
3 6 -5 10.5 7.9
-3 -6 5 8.9 7.4
3 6 -4 118.09 28.6
3 6 -4 146.59 16.3
3 6 -4 158.68 15.8
-3 -6 4 147.59 15.4
3 6 -3 6.3 5.2
3 6 -3 9.9 8.6
3 6 -3 2.3 5.6
-3 -6 3 -3.4 3.6
3 6 -2 299.97 18.1
3 6 -2 255.47 33
3 6 -2 287.77 24
-3 -6 2 318.67 17.7
3 6 -1 14.9 9.1
3 6 0 88.69 21.2
3 6 1 16.2 9
3 6 2 57.89 16.1
-3 -6 -2 55.39 19.4
3 6 3 66.29 17.6
-3 -6 -3 44.5 17.1
3 6 4 84.89 19.8
-3 -6 -4 92.49 21.9
3 6 5 9.1 8
3 6 5 4.7 2.2
3 6 5 -7.5 4.1
-3 -6 -5 3.1 7.1
3 6 6 51.39 6.5
3 6 6 56.69 17.2
3 6 6 58.89 15.8
-3 -6 -6 49.7 8.8
-3 -6 -6 37.4 13
3 6 7 37.3 13.3
3 6 7 20 6
3 6 7 26.3 11.2
-3 -6 -7 32.8 8.8
3 6 8 11.9 9.2
3 6 8 19.9 6.9
3 6 8 28.6 10.4
-3 -6 -8 24 7.5
3 6 9 138.09 26.2
3 6 9 121.99 13.8
3 6 9 108.99 25.4
-3 -6 -9 113.79 15.3
3 6 10 191.08 29.9
3 6 10 193.98 19.6
3 6 10 212.98 38.3
-3 -6 -10 196.78 20.5
3 6 11 194.58 25.6
3 6 11 164.78 33.2
-3 -6 -11 158.58 20.3
3 6 12 11.5 9.3
3 6 12 29.2 14.4
-3 -6 -12 -7.7 9
3 6 13 9.1 15.1
3 6 13 -12.2 11.5
-3 -6 -13 7.8 11.3
2 7 -7 33.5 20.1
2 7 -7 11.3 14.8
2 7 -6 16.1 14.9
2 7 -6 7.1 8.8
-2 -7 6 29.1 9.3
2 7 -5 688.93 39.4
2 7 -5 593.74 56.39
-2 -7 5 698.23 34.8
2 7 -4 7.2 8.9
2 7 -4 8.1 7.2
-2 -7 4 -1.4 4.7
2 7 -3 3.3 10.1
2 7 -3 36 10.6
-2 -7 3 27.1 6.5
2 7 -2 74.09 21.4
2 7 -2 62.79 12.7
-2 -7 2 84.89 8.4
2 7 -1 108.29 24.3
2 7 -1 109.09 14.2
-2 -7 1 110.29 7.7
2 7 0 97.49 22.3
2 7 0 101.39 14.5
2 7 1 48.7 15.9
2 7 2 4.7 6.2
-2 -7 -2 -1.9 4.6
2 7 3 219.28 27
-2 -7 -3 192.88 25.6
2 7 4 77.19 20.3
-2 -7 -4 101.99 22.7
2 7 5 727.83 52.69
-2 -7 -5 731.43 24.6
-2 -7 -5 700.83 51.29
2 7 6 266.17 32.3
-2 -7 -6 270.17 15.9
-2 -7 -6 279.67 33.1
2 7 7 52.29 14.3
2 7 7 68.69 9.5
2 7 7 62.19 19.4
-2 -7 -7 51.79 16.7
2 7 8 -2.4 4.5
2 7 8 5.1 7.2
2 7 8 1.5 7.6
-2 -7 -8 -0.2 4.5
2 7 9 280.07 31
2 7 9 219.28 29.6
2 7 9 227.68 20.3
-2 -7 -9 238.48 20.7
2 7 10 -1.3 7.6
2 7 10 -0.7 8.2
2 7 10 6.6 9
-2 -7 -10 3.9 7.4
2 7 11 14.4 10.6
2 7 12 9.3 9.2
2 7 12 15.9 10.1
1 8 -7 20.7 13.1
1 8 -7 21.8 18.3
1 8 -6 9.3 15.7
1 8 -6 3.1 9.7
-1 -8 6 8.4 9.4
1 8 -5 24.9 10.1
1 8 -5 -0.1 10.7
-1 -8 5 4 7.9
1 8 -4 17.9 14.7
-1 -8 4 24.7 7.4
1 8 -3 14.5 12.2
-1 -8 3 19.3 5.9
1 8 -2 19.7 11.8
-1 -8 2 -2.6 3.4
1 8 -1 12 8.7
-1 -8 1 8.1 3.3
1 8 0 378.46 38.2
-1 -8 0 304.97 15.3
1 8 1 317.87 25.6
1 8 1 334.67 36.1
-1 -8 -1 306.67 14.7
1 8 2 4 7.3
1 8 2 8.4 6.5
-1 -8 -2 3.6 9.4
-1 -8 -2 14.5 4.1
-1 -8 -2 10.6 3.5
1 8 3 251.27 23.4
1 8 3 297.27 32.7
-1 -8 -3 288.07 16
-1 -8 -3 276.27 30.9
-1 -8 -3 280.57 14.3
1 8 4 4.6 9
-1 -8 -4 33.2 12.9
-1 -8 -4 7.5 3.1
1 8 5 205.58 28.3
-1 -8 -5 224.88 14.8
-1 -8 -5 210.48 27.3
1 8 6 28.4 12.3
-1 -8 -6 36.9 7.9
1 8 7 53.29 26.8
-1 -8 -7 46.5 9.5
1 8 8 68.19 17.6
1 8 8 20.9 10.5
1 8 9 159.58 23.3
1 8 9 220.08 31
-1 -8 -9 171.18 17.6
1 8 10 8.7 10
1 8 10 13.1 12
-1 -8 -10 12.3 8.9
1 8 11 294.27 32.1
1 8 11 332.37 40.6
-1 -8 -11 302.77 27.4
1 8 12 11.4 13.7
1 8 12 1.3 10.9
-1 -8 -12 25 12
0 9 -6 65.49 20.7
0 9 -5 3.7 10.6
0 -9 5 11.1 8.3
0 9 -4 -14.4 11.9
0 -9 4 34 9.1
0 9 -3 -0.1 10.1
0 -9 3 12 6.6
0 9 -2 14.5 12.8
0 -9 2 5.5 6.1
0 9 -1 33.6 16.3
0 -9 1 63.29 10.9
0 9 0 -10.6 7.8
0 -9 0 0.2 5.5
0 9 1 355.86 38.9
0 -9 -1 387.06 23.6
0 9 2 10.6 8
0 -9 -2 -1 4.1
0 -9 -2 2.9 5.5
0 9 3 47.4 16.7
0 -9 -3 50.99 10.3
0 -9 -3 31.8 14.1
0 9 4 20.4 13.2
0 -9 -4 12.9 9.9
0 -9 -4 21.9 7.4
0 9 5 10.2 10
0 -9 -5 2.5 3.8
0 9 6 3.1 12.7
0 -9 -6 0.3 4.6
0 9 7 35.2 16.2
0 -9 -7 11.7 7.2
0 9 8 17.5 10.1
0 -9 -8 8 6.2
0 9 9 11.7 9.1
0 9 9 5.5 8.4
0 -9 -9 6 12.1
0 9 10 24.6 15.4
0 9 10 28.8 12
0 -9 -10 18.2 9.4
0 9 11 -13.1 11.9
0 9 11 8 16.3
0 9 11 5.5 11.9
0 -9 -11 11.4 9
-1 10 -5 99.59 29.3
-1 10 -4 10.4 13.4
-1 10 -3 54.89 21.3
1 -10 3 58.39 15.2
-1 10 -2 31.5 16.3
1 -10 2 11.8 9.9
-1 10 -1 153.48 32.4
1 -10 1 154.78 21.1
-1 10 0 168.38 33.8
1 -10 0 183.98 19.5
-1 10 1 88.79 28.2
1 -10 -1 159.38 18.2
-1 10 2 89.99 24.8
1 -10 -2 70.09 14.8
-1 10 3 149.19 24
1 -10 -3 142.99 16.5
-1 10 4 26.4 12.2
1 -10 -4 1.4 5.8
1 -10 -5 7.7 6
-1 10 6 1.2 10.1
1 -10 -6 7.7 7
-1 10 7 1.8 11.9
1 -10 -7 4.1 8.2
-1 10 8 -12.3 10.6
1 -10 -8 -5.4 6.5
-1 10 9 4.8 11.3
1 -10 -9 -1.4 7.7
-2 11 -2 51.39 23.9
-2 11 -1 -21.5 17
-2 11 0 17 14.1
-2 11 1 -18.2 13
-2 11 2 -5.3 10.9
2 -11 -2 0.6 7.3
-2 11 3 72.99 21.7
2 -11 -3 50.59 13.3
-2 11 4 43.2 17.7
2 -11 -4 31.8 13
-2 11 5 -0.7 12.3
2 -11 -5 -19 8
-2 11 6 -0.5 10.4
2 -11 -6 -8.1 8.3
8 2 2 -3.3 9
8 2 2 16.3 9.4
8 2 2 -1.8 8.6
8 2 3 13.9 9.9
8 2 3 10.1 9.9
8 2 3 5.7 9.5
8 2 4 -2.3 9.4
8 2 4 10.4 9.8
8 2 5 82.29 17.8
8 2 5 77.29 21.1
8 2 6 2.3 8.1
-8 -2 -6 -4.7 16.6
7 3 -2 -7.9 7.9
7 3 -2 -4 11
7 3 -1 -4.1 8.3
7 3 -1 29.5 12.1
7 3 -1 7.6 8.1
7 3 0 46.4 16.2
7 3 0 56.99 14.8
7 3 0 62.09 13.3
7 3 1 49.7 12.4
7 3 1 39 10.4
7 3 1 64.89 15.2
7 3 2 2.2 18.3
7 3 2 11.7 8.1
7 3 2 -3.8 9
7 3 2 8.8 7.4
7 3 3 35.1 13.3
7 3 3 25 12
7 3 3 31.3 25.9
7 3 3 28.8 10.3
7 3 4 30 11.3
7 3 4 -3.1 7.3
7 3 4 4.6 17.4
-7 -3 -4 -17.3 10
7 3 5 7.6 6.7
7 3 5 -4 7.6
7 3 5 8.7 9.3
-7 -3 -5 -9.9 11.2
7 3 6 -4.9 7.3
7 3 6 9.8 8.8
7 3 6 -16.9 8.7
7 3 7 31.6 13.7
7 3 7 38.1 14.9
7 3 8 7.9 9.1
7 3 8 -10.5 8.1
7 3 9 12.3 13.3
7 3 9 11 16
6 4 -4 -4.5 7.3
6 4 -4 -2.4 6.5
6 4 -4 -12.5 12.4
6 4 -3 28.3 12.3
6 4 -3 11.7 12
6 4 -3 22.2 8.8
6 4 -2 -8.5 7.6
6 4 -2 -1.3 6.5
6 4 -2 -3.5 8.4
6 4 -1 -8.7 4.5
6 4 0 8.8 4.4
6 4 0 -1.6 6.2
6 4 0 6.8 6.7
6 4 1 106.49 12.5
6 4 1 107.09 22.8
6 4 2 -6.7 4.6
6 4 2 6.9 5.9
6 4 2 3.4 5.7
6 4 3 168.48 24.2
6 4 3 129.49 13.5
6 4 3 127.49 14.4
6 4 3 147.69 21.6
-6 -4 -3 109.19 22.1
6 4 4 157.48 23.3
6 4 4 154.48 15.7
6 4 4 134.29 26.6
-6 -4 -4 138.39 25.9
6 4 5 11.1 7.8
6 4 5 -10.2 5.1
6 4 5 -0.3 7
-6 -4 -5 -12.3 7.9
6 4 6 48.5 10.5
6 4 6 61.39 17.9
6 4 6 78.79 19.9
6 4 7 22.6 8.9
6 4 7 30.4 14.3
6 4 7 32 13.9
6 4 8 12.7 10.2
6 4 8 -7.4 7.3
6 4 8 -16.4 10.9
6 4 9 8.1 8.4
6 4 9 4.8 7.7
6 4 9 11.7 10.3
6 4 10 24.8 11.8
6 4 10 -11.8 9.4
6 4 11 101.49 25.6
6 4 11 99.19 26.7
5 5 -5 6.6 6.9
5 5 -5 36.4 14
5 5 -5 2.9 7.7
5 5 -5 5.6 8
5 5 -4 8.8 12.7
5 5 -4 -9.3 5.7
5 5 -4 8.9 6.2
5 5 -4 10.5 8
5 5 -3 19.6 12.1
5 5 -3 4.1 6
5 5 -3 8 8.4
5 5 -2 14 12.3
5 5 -2 18.4 6.2
5 5 -2 9.7 9
5 5 -1 81.59 9
5 5 -1 85.29 22.5
5 5 -1 74.19 17.4
5 5 0 130.39 19
5 5 0 147.09 10.7
5 5 0 101.59 23.6
5 5 1 37.4 6.9
5 5 1 33.6 11.3
5 5 1 33 5.9
5 5 1 25.7 12.6
5 5 2 21.9 5.6
5 5 2 54.89 15.6
5 5 2 29.5 4.8
5 5 2 30.3 13.1
5 5 3 15.2 3.4
5 5 3 16 10.4
5 5 3 -0.9 6.3
5 5 3 7.9 3.8
-5 -5 -3 9 9.6
5 5 4 -2.7 8
5 5 4 -1.2 3
-5 -5 -4 -6.2 8.3
5 5 5 5.6 3.7
5 5 5 28.1 11
5 5 5 12.7 6.8
-5 -5 -5 1.9 10.1
5 5 6 12.9 7.1
5 5 6 6.1 5.1
5 5 7 22.3 11.8
5 5 7 47.8 16.5
5 5 7 51.89 9.1
5 5 8 -4.8 4
5 5 8 -3.3 7.6
5 5 8 -6.4 5.9
5 5 9 258.67 32.6
5 5 9 219.38 19.2
5 5 9 260.37 32.4
-5 -5 -9 233.28 23.9
5 5 10 -2.1 6.9
5 5 10 2.6 9.5
5 5 10 -14.1 8.3
-5 -5 -10 12.2 9.8
5 5 11 -11.6 5.8
5 5 11 0.7 7.5
5 5 12 -10.1 11.5
-5 -5 -12 -4 8.8
4 6 -6 33.4 12.2
4 6 -6 46.5 17.9
-4 -6 6 41.5 24.3
4 6 -5 5.5 6.7
4 6 -5 4 9.8
4 6 -4 12.3 11.3
4 6 -4 1.3 6
4 6 -3 -6.8 8.4
4 6 -3 -4 4.2
4 6 -2 6 4.8
4 6 -2 -2.1 7.7
4 6 -1 4.3 3.1
4 6 0 8.2 5.9
4 6 1 18.3 10.6
4 6 2 2.3 9.2
-4 -6 -2 21.3 11.2
4 6 3 29.7 11
4 6 3 39.5 13.4
-4 -6 -3 34.5 12.5
4 6 4 74.79 20.5
4 6 4 97.39 21
-4 -6 -4 108.59 23.9
4 6 5 7.7 8.7
4 6 5 26.4 10.8
-4 -6 -5 4.9 10.2
4 6 6 69.19 6.7
4 6 6 60.89 19
4 6 7 -7.7 5.1
4 6 7 -5.2 7.5
4 6 7 -1 3.7
4 6 8 11.8 5.3
4 6 8 8.4 7.7
4 6 8 9.9 10.7
-4 -6 -8 5.7 5.5
4 6 9 40.7 15.6
4 6 9 31.8 8.5
4 6 9 19 10.4
-4 -6 -9 24.2 9.6
4 6 10 154.88 32.3
4 6 10 138.79 28
-4 -6 -10 117.59 17.5
4 6 11 9.6 7.5
4 6 11 -5.7 7.7
4 6 11 -8 8.2
-4 -6 -11 14.9 9
4 6 12 23.7 11.8
4 6 12 -20 12
-4 -6 -12 10.4 9.8
3 7 -6 29.1 12.1
3 7 -6 0.1 11.6
-3 -7 6 9.3 10.7
3 7 -5 18.9 13.8
3 7 -5 24.7 8.7
-3 -7 5 35.4 9.3
3 7 -4 22.8 8.8
3 7 -4 -0.9 7.1
-3 -7 4 5.3 6.2
3 7 -3 35.1 9.6
3 7 -3 24 12.3
-3 -7 3 41.5 8.5
3 7 -2 0.8 10
3 7 -1 -9.9 7.5
3 7 0 79.09 21.3
3 7 1 30.8 13.4
3 7 2 1.2 7.1
-3 -7 -2 -1.1 4.9
3 7 3 7.5 6.8
-3 -7 -3 5 8.5
3 7 4 35.5 13.7
-3 -7 -4 31.7 14
3 7 5 6 9.2
3 7 6 2.1 4.5
3 7 6 14.3 8.9
-3 -7 -6 5.7 3.1
3 7 7 -3 7.4
3 7 7 -3.8 5.2
3 7 7 -3 3.3
-3 -7 -7 -5.2 4
3 7 8 9.5 5.7
3 7 8 23.8 12.4
3 7 8 17.3 9.9
-3 -7 -8 13.8 6.4
3 7 9 0.3 8.5
3 7 9 -2.3 5.7
3 7 9 15.4 8.9
-3 -7 -9 -3.7 5.3
3 7 10 103.19 23.1
3 7 10 108.39 26.7
3 7 10 136.09 26.4
-3 -7 -10 133.09 17.1
3 7 11 140.89 32.8
3 7 11 145.59 24.2
3 7 11 182.48 32.4
-3 -7 -11 183.08 21.3
3 7 12 34 14.1
-3 -7 -12 38.4 13.8
2 8 -6 36 15.3
2 8 -6 40.2 21.4
-2 -8 6 37.7 13.4
2 8 -5 92.19 26.3
2 8 -5 117.29 20.4
-2 -8 5 121.19 15.2
2 8 -4 -4.7 6
2 8 -4 -11.1 7.4
-2 -8 4 -2.6 5.1
2 8 -3 4.2 9.3
-2 -8 3 -6 4
2 8 -2 33 16.3
-2 -8 2 58.29 7.2
2 8 -1 60.79 18.8
-2 -8 1 66.99 6.1
2 8 0 35.9 18.1
2 8 1 65.89 21.3
2 8 2 61.49 18.5
2 8 3 3.5 9.5
2 8 4 15.4 10.7
2 8 5 -1.2 6.8
-2 -8 -5 0.9 2.2
2 8 6 20 9.6
-2 -8 -6 19.7 5.2
2 8 7 9.5 9.9
-2 -8 -7 10.6 5.1
2 8 8 90.99 25.3
2 8 8 76.39 22.7
-2 -8 -8 114.29 12.4
2 8 9 53.39 16.5
2 8 9 37.7 15.6
-2 -8 -9 34 10.3
2 8 10 95.99 22.8
2 8 10 114.79 16.9
2 8 10 83.79 23
-2 -8 -10 113.69 15.9
2 8 11 5.8 14.8
2 8 11 20.9 13.4
2 8 12 47.5 15.3
2 8 12 42.8 20.3
-2 -8 -12 55.49 15.5
1 9 -6 6.7 17.7
1 9 -5 20.1 17.9
-1 -9 5 59.69 13.2
1 9 -4 4.7 13.6
-1 -9 4 29.8 8.5
1 9 -3 -14.1 10.2
-1 -9 3 -2.2 4.7
1 9 -2 256.27 36.2
-1 -9 2 169.88 13.5
1 9 -1 1.9 7.9
-1 -9 1 -5.5 3.7
1 9 0 517.15 48.9
-1 -9 0 434.16 19.2
1 9 1 115.59 27.4
-1 -9 -1 123.79 10
-1 -9 -1 110.29 9.1
1 9 2 -4.6 10.9
-1 -9 -2 9.7 4
-1 -9 -2 10.9 3.6
1 9 3 300.67 65.59
-1 -9 -3 291.87 15.8
-1 -9 -3 299.47 15
1 9 4 21 16
-1 -9 -4 10.5 4
1 9 5 272.87 34.3
-1 -9 -5 238.68 15.7
1 9 6 105.89 24.6
-1 -9 -6 94.69 11
1 9 7 24.4 14.1
-1 -9 -7 28.4 7.5
1 9 8 116.99 28.4
-1 -9 -8 126.19 14
1 9 9 5 10.8
1 9 9 7.5 8.7
-1 -9 -9 8.8 6.4
1 9 10 15 11
1 9 10 15.8 10.6
-1 -9 -10 10.4 8.9
1 9 11 -10.3 11.1
1 9 11 25.1 16.1
-1 -9 -11 8.3 9.1
0 10 -4 162.48 35.1
0 -10 4 149.99 18.3
0 10 -3 12.8 9.1
0 -10 3 2.6 9.3
0 10 -2 -1 11.2
0 -10 2 -14.8 6.4
0 10 -1 455.35 49.5
0 -10 1 425.26 25.1
0 10 0 31 15
0 -10 0 31.2 8.6
0 10 1 75.59 23.7
0 -10 -1 77.59 11.7
0 10 2 31.7 15.2
0 -10 -2 56.09 11.4
0 -10 -2 47.7 10.2
0 10 3 16.7 11.8
0 -10 -3 19.3 7.6
0 -10 -3 46.2 10.6
0 10 4 124.49 28.7
0 -10 -4 131.99 13.8
0 10 5 81.09 24.5
0 -10 -5 99.09 12.7
0 10 6 197.58 30.9
0 -10 -6 175.18 16.8
0 10 7 369.56 39.9
0 -10 -7 364.86 26.2
0 10 8 28.1 14.3
0 -10 -8 6.2 6.8
0 10 9 10.2 13.6
0 -10 -9 -0.8 6.8
-1 11 -2 12.1 16.6
-1 11 -1 23.6 17.5
1 -11 1 25 11.6
-1 11 0 46.9 21.4
1 -11 0 44.1 14.7
-1 11 1 3.8 12.8
1 -11 -1 49.1 12.9
-1 11 2 6.4 17.6
1 -11 -2 1.5 7.3
1 -11 -2 42.4 14.2
-1 11 3 -27.2 13.6
1 -11 -3 -3.7 6.3
1 -11 -3 23.4 13.4
-1 11 4 195.38 28.8
1 -11 -4 179.08 20.2
-1 11 5 -15.1 12.4
-1 11 6 20.5 11.9
1 -11 -6 11.5 10.7
-1 11 7 8.4 14.1
1 -11 -7 8.9 9.3
8 3 4 44.9 13.5
8 3 4 12.9 10.4
7 4 -1 11.9 6.9
7 4 -1 -17.6 7
7 4 -1 -13.1 8.8
7 4 0 -6.1 6.2
7 4 0 -12 10.4
7 4 0 15.3 8
7 4 1 29.3 9
7 4 1 -2 13
7 4 1 7.9 9
7 4 2 57.39 13.3
7 4 2 14.3 11.1
7 4 2 18 8.3
7 4 2 -10.2 8.7
7 4 3 6.8 11.5
7 4 3 9.5 9.4
7 4 3 7.4 9.2
7 4 3 21.8 7.3
7 4 4 -5.8 8.3
7 4 5 16.2 12.2
7 4 5 0.2 8.6
7 4 5 -12.2 7.9
7 4 6 36 12.8
7 4 6 32 9.1
7 4 6 21.2 9.2
7 4 7 -7 7.8
7 4 7 7.1 7.6
7 4 7 4.1 8.9
7 4 8 29 10.6
7 4 8 10.3 9.9
7 4 8 60.69 21
7 4 9 1.9 10.3
6 5 -3 7.9 13.1
6 5 -3 18.6 11.5
6 5 -3 12.4 7.6
6 5 -2 2.8 5.2
6 5 -2 5.7 10.5
6 5 -2 25.9 14.3
6 5 -1 -12.7 10.5
6 5 -1 -10.2 8.3
6 5 -1 3.6 5.4
6 5 0 -3.4 6.9
6 5 0 -6.4 7.6
6 5 1 -4.7 7.5
6 5 1 1.9 3.6
6 5 1 -15.4 10.6
6 5 1 19.2 11.4
6 5 2 14.4 8.6
6 5 2 33.6 12.5
6 5 2 12.1 4.7
6 5 3 45.1 7.6
6 5 3 65.89 18.6
6 5 3 42.8 8.8
6 5 4 3.5 3.7
6 5 4 9.7 7.3
6 5 4 -6.6 4.6
6 5 4 -1.9 7.2
6 5 5 15.4 9.6
6 5 5 -8.9 3.6
6 5 5 -9.8 8.7
6 5 6 -1.5 7.6
6 5 6 27.6 11.4
6 5 6 -2.5 4.6
6 5 7 7.1 10.8
6 5 7 6.9 12
6 5 7 15.6 6.6
6 5 8 38.9 9
6 5 8 14.9 13.1
6 5 8 25.9 14.9
6 5 9 6.6 10.9
6 5 9 -3.5 10.3
6 5 9 -9.7 7.4
6 5 10 31.6 12.2
6 5 10 2.9 7
6 5 10 7.5 9.6
6 5 11 67.89 22.2
6 5 11 9.8 12.3
5 6 -4 16.3 8.6
5 6 -4 -3.3 7.7
5 6 -4 -4 12.1
5 6 -3 10.3 11.3
5 6 -3 16 7.6
5 6 -3 18.2 11.4
5 6 -2 14.2 10
5 6 -2 5.3 5.4
5 6 -2 -2 6.8
5 6 -1 5.4 10.2
5 6 -1 22.2 5.3
5 6 -1 17.7 10.9
5 6 0 -1.5 9
5 6 0 -2.1 2.5
5 6 0 3.8 10.7
5 6 1 57.69 17.9
5 6 1 68.99 17.2
5 6 2 202.28 29
5 6 2 194.78 26.4
5 6 3 19.6 15
5 6 3 22.5 11.6
5 6 4 9.1 9.9
5 6 4 15.1 8.7
5 6 5 19.9 12.4
5 6 5 11.9 10
5 6 6 50.79 18.2
5 6 6 36 14.9
5 6 6 35.7 5.4
5 6 7 11.6 11.2
5 6 7 15.6 9.2
5 6 7 11.8 7.2
5 6 8 -1.9 9.9
5 6 8 9.7 9.7
5 6 8 -2.5 3.8
5 6 9 42.1 14.3
5 6 9 48 9.1
5 6 9 44.6 15
5 6 10 87.79 22.5
5 6 10 56.19 16.7
-5 -6 -10 79.89 16.9
5 6 11 17.2 10.6
5 6 11 1.5 9.4
5 6 11 40.7 16.8
-5 -6 -11 37.8 12.3
4 7 -5 -1.1 8
4 7 -4 128.79 16.6
4 7 -4 136.39 29.3
4 7 -3 39.8 15.4
4 7 -3 14 7.8
4 7 -2 52.89 8.7
4 7 -2 57.39 20.9
4 7 -1 -1.6 11.1
4 7 0 77.29 24.4
4 7 1 28.4 14.3
4 7 2 50.59 18.3
4 7 3 69.19 20.7
4 7 4 73.69 19.1
4 7 4 91.29 23.1
4 7 5 289.07 33.3
4 7 5 267.97 33.3
4 7 6 7.1 12.6
4 7 6 14.2 12
4 7 7 92.59 20.9
4 7 7 91.29 23
4 7 7 98.99 8.8
4 7 8 13.6 5.7
4 7 8 12.2 9.8
4 7 8 31 14.9
-4 -7 -8 13.6 7.2
4 7 9 119.19 13.5
4 7 9 152.88 32.2
4 7 9 95.29 24.3
-4 -7 -9 153.68 17.6
4 7 10 209.38 30.6
4 7 10 178.38 18.9
4 7 10 167.78 31.4
-4 -7 -10 179.08 20.4
4 7 11 -5 11.7
4 7 11 5.3 8
4 7 11 11 8.9
-4 -7 -11 -12.4 7.6
4 7 12 32.8 13.2
4 7 12 41.2 15.5
-4 -7 -12 30.1 14.3
3 8 -5 -0.3 10.6
3 8 -5 8.4 11.5
-3 -8 5 -24.2 10
3 8 -4 49.99 14.4
3 8 -4 44 11.8
3 8 -3 82.29 23.2
3 8 -3 92.79 13.5
3 8 -2 27.4 11.9
3 8 -1 38.3 13.9
3 8 0 38.1 14.4
3 8 1 231.18 33.7
3 8 2 92.79 24
3 8 3 26.7 13
3 8 4 18.3 10.5
3 8 5 7.5 7.8
3 8 6 36.6 13.9
3 8 7 -4.8 9.6
3 8 7 -2.3 6.7
-3 -8 -7 -1.3 3.5
3 8 8 24.3 13.8
3 8 8 8 8.7
-3 -8 -8 -3.6 4.9
3 8 9 45 19.3
3 8 9 52.29 17.7
3 8 9 49.4 10.2
-3 -8 -9 40.8 10.8
3 8 10 37.9 15.1
3 8 10 15.9 8.9
3 8 10 15.5 10.6
-3 -8 -10 27.4 11.1
3 8 11 57.99 14.4
3 8 11 70.29 22.7
3 8 11 77.09 20.6
-3 -8 -11 80.19 16.8
2 9 -5 31.9 22.1
-2 -9 5 10.2 9.6
2 9 -4 -1.4 9.9
-2 -9 4 -8 6.7
2 9 -3 18.7 15.9
-2 -9 3 17.7 7.2
2 9 -2 110.59 27.9
-2 -9 2 155.08 11.2
2 9 -1 69.79 20.5
-2 -9 1 110.09 6.9
2 9 0 24.5 18
2 9 1 27.5 13.2
2 9 2 61.29 21.1
2 9 3 33.5 15.3
2 9 4 76.69 22
2 9 5 140.19 29.2
2 9 6 120.19 27.2
-2 -9 -6 94.89 8.5
2 9 7 368.46 42.4
-2 -9 -7 381.06 20.3
2 9 8 6.7 9.5
2 9 8 17.2 10.6
2 9 9 114.89 24.6
2 9 9 200.98 31.9
-2 -9 -9 173.88 17
2 9 10 24.6 14.9
2 9 10 62.49 20.4
-2 -9 -10 82.19 15.3
2 9 11 -18.1 9.4
-2 -9 -11 2 16.1
1 10 -4 22.8 14.8
-1 -10 4 9.1 9.4
1 10 -3 3.4 14.4
-1 -10 3 -2.7 6.6
1 10 -2 1.5 9.6
-1 -10 2 3.9 6.1
1 10 -1 -13.9 11.5
1 10 0 12.4 14
-1 -10 0 17.8 4.9
1 10 1 50.49 21.2
-1 -10 -1 51.79 6.6
-1 -10 -1 68.59 7.8
1 10 2 49.8 18.3
-1 -10 -2 52.99 6.3
1 10 3 224.48 34.4
-1 -10 -3 218.48 13
-1 -10 -3 216.38 12.4
1 10 4 39.1 16.3
1 10 5 90.49 25.1
-1 -10 -5 94.19 9.8
1 10 6 9.8 11.8
-1 -10 -6 -0.6 4.5
1 10 7 -4.7 10.7
-1 -10 -7 26.7 7
1 10 8 -6.4 11.2
-1 -10 -8 8.3 5.5
1 10 9 38 15.7
1 10 9 15.4 11
-1 -10 -9 22.8 9
1 10 10 38.6 19
1 10 10 25.7 15.8
-1 -10 -10 32.6 19.2
0 11 -2 -21 14.1
0 -11 2 -5.8 8.1
0 11 -1 -19.2 15.3
0 -11 1 1.5 8.8
0 11 0 -5.6 13
0 -11 0 14.3 8.4
0 11 1 27.8 15.8
0 -11 -1 15.6 8.2
0 -11 -1 5.1 6.9
0 -11 -2 -8.4 7.6
0 -11 -2 -2.1 4.9
0 11 3 242.98 34.4
0 -11 -3 233.98 19.1
0 -11 -3 212.58 20.8
0 11 4 36.2 17.4
0 -11 -4 5.8 11.7
0 -11 -4 15.8 7.8
0 11 5 1.8 14.2
0 11 6 -2.8 13.3
0 -11 -6 6.9 6.1
0 11 7 7.3 12.5
0 11 8 20.9 18.3
0 -11 -8 29.8 10.7
7 5 0 4.3 6.4
7 5 0 47.2 15.1
7 5 0 -20 10
7 5 1 39.4 11.1
7 5 1 11.4 6.8
7 5 1 -4.2 11.9
7 5 1 -9.5 11.4
7 5 2 -0.4 5
7 5 2 2.7 7.5
7 5 2 -12.9 9.1
7 5 2 1.4 7.9
7 5 3 1.9 6.3
7 5 3 0.2 6.4
7 5 3 22.4 12.1
7 5 3 -12.2 7.1
7 5 4 4 5.5
7 5 4 6.2 5.8
7 5 4 36 13.1
7 5 4 14.4 12.7
7 5 5 33.6 13.9
7 5 5 9 6.4
7 5 5 9.8 6.8
7 5 6 21.7 13.2
7 5 6 4 7.3
7 5 7 34.6 12.6
7 5 7 20.6 8.3
7 5 8 -2.6 11
7 5 8 -5.9 8.3
6 6 -2 -24.1 11
6 6 -2 10.7 9
6 6 -2 6.5 5.7
6 6 -1 3.8 4.8
6 6 -1 9.9 9.9
6 6 -1 19.2 11
6 6 0 -6.5 7.9
6 6 0 24.6 5.6
6 6 0 31.1 7
6 6 0 8 10.7
6 6 1 3.7 10.3
6 6 1 -8.2 3.6
6 6 1 0.7 7.5
6 6 1 0.4 2.7
6 6 2 -1.8 11.6
6 6 2 -5.6 7.4
6 6 3 5.1 11
6 6 3 35.2 13.7
6 6 4 -7.5 8.8
6 6 4 12.8 9.5
6 6 5 9.3 9.6
6 6 5 16.9 11.9
6 6 5 3.5 2.9
6 6 5 12.6 3.7
6 6 6 61.79 19.8
6 6 6 41.9 5.7
6 6 6 88.09 23.3
6 6 7 -4.4 6.9
6 6 7 -12.6 6.5
6 6 8 10.3 11.6
6 6 8 22.6 12.3
6 6 8 -0.6 5.8
6 6 9 -1 8.8
6 6 9 4.4 7.8
6 6 9 15.8 11.1
6 6 10 32.7 12.9
6 6 10 12.8 8.8
6 6 10 -10.3 7.7
5 7 -3 63.29 21
5 7 -3 25.7 13.9
5 7 -2 25.1 18.5
5 7 -2 34.1 11.7
5 7 -2 39.3 7.6
5 7 -1 57.19 15.9
5 7 -1 65.89 20.7
5 7 0 31.2 14.9
5 7 0 -3.5 6
5 7 1 36.3 14
5 7 1 32 16.4
5 7 2 38.2 13.7
5 7 2 60.19 18.8
5 7 3 -11.1 8.2
5 7 4 48.6 14.1
5 7 4 69.09 20.7
5 7 5 0.8 7.8
5 7 5 2.5 11.2
5 7 6 6 10.6
5 7 6 -2.3 7
5 7 7 9.3 3.6
5 7 7 5.9 10.4
5 7 7 8.9 9.4
5 7 8 4.1 8
5 7 8 7.2 4.8
5 7 8 -4.7 9
5 7 9 72.59 21.9
5 7 9 41.8 8.5
5 7 9 48.8 20
5 7 10 6.8 7.1
5 7 10 2.3 8.7
5 7 10 -5.4 11.5
5 7 11 226.68 21.3
5 7 11 193.38 39.8
-5 -7 -11 211.38 25.4
4 8 -3 25.6 8.4
4 8 -3 37.3 18.6
4 8 -2 2.2 14.1
4 8 -1 -8 8.1
4 8 0 93.49 27.7
4 8 1 11.6 12.6
4 8 2 4.1 10.7
4 8 3 11.8 12.4
4 8 4 21 10.6
4 8 4 7.1 7.2
4 8 5 154.58 30.9
4 8 5 159.18 32
4 8 6 14.2 11.4
4 8 6 10 11.5
4 8 7 14.6 11.7
4 8 7 31.4 15
4 8 8 20.4 10.2
4 8 8 13.9 11.7
4 8 9 21.2 6.7
4 8 9 3.5 12.3
4 8 9 21.4 14.2
4 8 10 39.5 18.6
4 8 10 37.3 10.2
4 8 10 30.6 16.7
-4 -8 -10 41.4 12.5
4 8 11 33.7 17
4 8 11 7.8 9.9
4 8 11 20.8 12.7
-4 -8 -11 15.5 11.3
3 9 -3 10.9 11.9
3 9 -2 13.5 11.9
3 9 -1 6.9 11.4
3 9 0 0.7 9.9
3 9 1 9.5 12.4
3 9 2 118.89 28.7
3 9 3 7.6 11.7
3 9 4 82.29 21
3 9 5 90.49 22.6
3 9 6 12.6 12.7
3 9 7 98.79 23.5
3 9 7 44.6 19.9
3 9 8 -11.3 8.8
3 9 8 2.7 9.2
-3 -9 -8 5.8 5
3 9 9 7.7 13.2
3 9 9 11.2 10.7
-3 -9 -9 0.9 6.9
3 9 10 79.89 23.2
3 9 10 125.99 34.8
-3 -9 -10 73.99 16.3
2 10 -3 -1.9 15.3
2 10 -2 11.2 13.9
2 10 -1 29.3 20.3
2 10 0 -7.4 13.5
2 10 1 40.6 19.4
2 10 2 119.89 28.2
2 10 3 18 14.9
2 10 4 22.2 13.3
2 10 5 11.9 11.4
2 10 6 14.7 15.8
-2 -10 -6 4 3.3
2 10 7 -0.8 13.5
-2 -10 -7 -1.2 4.4
2 10 8 6.6 6.8
-2 -10 -8 -5.6 5.3
2 10 9 -9.9 8.8
-2 -10 -9 -5.6 6.5
2 10 10 40.3 18.3
2 10 10 0.3 12.5
-2 -10 -10 7.7 8.8
1 11 -2 38.9 20.7
1 11 -1 17 18.9
1 11 0 22.4 17
-1 -11 0 -6.2 4.4
-1 -11 0 4.8 4.3
1 11 2 2.8 11.4
-1 -11 -2 -7.2 3
-1 -11 -2 7.1 3.6
1 11 3 17.3 15.2
-1 -11 -3 0.6 3.3
-1 -11 -3 7.9 4.2
1 11 4 51.29 20.8
-1 -11 -4 3.7 3.8
-1 -11 -4 13 5.5
1 11 5 34.6 16.9
1 11 6 -5.8 11.5
-1 -11 -6 7.3 5.9
1 11 7 20.3 18
-1 -11 -7 10 5.7
1 11 8 -17.7 16.7
-1 -11 -8 6.1 7
0 12 2 1.3 14.9
0 -12 -2 -11.1 13.4
0 -12 -2 5.8 7.2
0 12 3 10.5 19.1
0 -12 -3 10.7 7.8
0 -12 -3 -8.8 11.8
0 12 4 68.39 22.7
0 -12 -4 1.6 6.8
0 -12 -4 -1.5 16.1
7 6 2 0.2 3.5
7 6 2 -5 9.2
7 6 2 -8.9 13.6
7 6 3 -4.5 12.1
7 6 3 2 2.9
7 6 4 19.1 9.7
7 6 5 15.7 12.9
7 6 5 -8.6 4.1
7 6 5 3.9 4
7 6 6 32.2 13.7
7 6 6 11.1 4.8
7 6 6 -14.3 8.4
7 6 7 10.9 13.3
7 6 7 -7.4 8.4
6 7 0 -13.1 8.7
6 7 0 -10.5 13
6 7 1 11.8 12.9
6 7 1 11 10.1
6 7 2 -5.4 10.9
6 7 2 -3.2 9.7
6 7 3 -1.8 7.6
6 7 3 -17.2 11.1
6 7 4 -11.9 7.4
6 7 4 -6.3 10
6 7 5 -0.2 7.7
6 7 5 2.9 10.6
6 7 6 26.6 10.9
6 7 6 19.2 10.6
6 7 7 0 11.5
6 7 7 5.5 9.3
6 7 8 13.6 11
6 7 8 15.9 4.9
6 7 9 -11 8
6 7 9 -5.5 7.1
5 8 -1 12.9 14.1
5 8 0 3.9 7.9
5 8 0 -8 10.8
5 8 1 -7.4 9.9
5 8 1 6.1 5.5
5 8 2 7.4 10
5 8 2 3.4 8.2
5 8 3 -0.7 8.8
5 8 3 -0.6 7.5
5 8 4 4.5 8.2
5 8 4 2.1 12
5 8 5 54.09 16.2
5 8 5 32 17.1
5 8 6 7.3 8.5
5 8 6 34.1 14.1
5 8 7 0.4 12.1
5 8 7 -6.5 10.3
5 8 8 12.9 9.2
5 8 8 4.2 10.7
5 8 9 15.9 5.3
5 8 9 -2.6 10.7
5 8 10 -9 10.4
5 8 10 14.5 13.4
4 9 -2 18.9 14.1
4 9 -1 84.39 26.7
4 9 0 -7.2 11.2
4 9 1 -8.7 10.7
4 9 2 57.59 18.4
4 9 3 6.3 10.4
4 9 4 27.1 13
4 9 5 0.8 5.6
4 9 5 -11.4 10.9
4 9 6 5.5 8.6
4 9 6 -13.3 8.8
4 9 7 8.9 11.4
4 9 7 28.8 15.9
4 9 8 11.8 10.6
4 9 8 4.6 10.3
4 9 9 29.3 18.9
4 9 10 143.69 31.9
4 9 10 115.49 32.6
3 10 -2 5 16.4
3 10 -1 50.19 21.4
3 10 0 46.5 18.7
3 10 1 90.29 26.4
3 10 2 77.89 22
3 10 3 -15.5 11.9
3 10 4 177.68 35.6
3 10 5 76.79 23.5
3 10 6 94.89 25.1
3 10 7 26 11.5
3 10 7 21.8 13.6
3 10 8 41.8 15.7
3 10 8 35.2 15.8
3 10 9 12.9 16.4
3 10 9 9.7 12.1
-3 -10 -9 -4.4 7.1
2 11 0 74.49 28.8
2 11 1 14.8 16.3
2 11 2 29.1 11.7
2 11 3 0.6 13.4
2 11 4 14.5 13.2
2 11 5 21.8 14.6
2 11 6 68.79 24.3
2 11 7 -3.7 18.4
-2 -11 -7 6.3 4.5
2 11 8 90.49 25.9
6 8 2 -9 9.5
6 8 2 -5.9 11.9
6 8 3 24 16
6 8 3 15.3 10.7
6 8 4 -3.7 11.3
6 8 5 134.99 29.7
6 8 5 92.79 26.8
6 8 6 -20.3 9.6
6 8 6 10.4 9.4
6 8 7 21.2 11.5
5 9 1 9.9 12.1
5 9 1 40.1 16.7
5 9 2 12.5 8.9
5 9 2 -14.1 10.9
5 9 3 21.9 10.4
5 9 3 49.3 15.9
5 9 4 -12.6 11.1
5 9 4 25.2 12.6
5 9 5 -19.9 10.5
5 9 5 -18.8 11.4
5 9 6 14.8 13.6
5 9 7 12 12.6
5 9 7 22.9 21.7
5 9 8 0.2 11.4
5 9 8 -17.1 8.4
4 10 1 5.9 11.3
4 10 3 -22.4 12.2
4 10 4 15.4 12.4
4 10 5 91.79 24.3
4 10 7 143.29 33.9
4 10 7 53.19 21.6
4 10 8 33.5 16.5
4 10 8 43.2 20.5
3 11 2 13.4 15.6
3 11 3 14.7 16.3
3 11 4 74.49 23.6
3 11 6 -4.2 14.9
