#------------------------------------------------------------------------------
#$Date: 2021-09-24 02:13:26 +0300 (Fri, 24 Sep 2021) $
#$Revision: 269277 $
#$URL: file:///home/coder/svn-repositories/cod/cif/7/70/84/7708403.cif $
#------------------------------------------------------------------------------
#
# This file is available in the Crystallography Open Database (COD),
# http://www.crystallography.net/
#
# All data on this site have been placed in the public domain by the
# contributors.
#
data_7708403
loop_
_publ_author_name
'Afrin, Unjila'
'Fuku, Kentaro'
'Cui, Mengxing'
'Iguchi, Hiroaki'
'Mian, Mohammad Rasel'
'Nakanishi, Ryo'
'Takaishi, Shinya'
'Yamashita, Masahiro'
_publ_section_title
;
 Interdigitated Pt-Br chains with \p-stacking: an approach toward
 Robin-Day class I mixed valency in MX-chain complexes
;
_journal_name_full               'Dalton Transactions'
_journal_paper_doi               10.1039/D1DT02996G
_journal_year                    2021
_chemical_formula_sum            'C12 H20 Br N4 O8 P2 Pt'
_chemical_formula_weight         685.26
_space_group_crystal_system      triclinic
_space_group_IT_number           2
_space_group_name_Hall           '-P 1'
_space_group_name_H-M_alt        'P -1'
_atom_sites_solution_hydrogens   geom
_audit_creation_method           SHELXL-2014/7
_audit_update_record
;
2021-05-15 deposited with the CCDC.	2021-09-16 downloaded from the CCDC.
;
_cell_angle_alpha                85.271(4)
_cell_angle_beta                 86.921(5)
_cell_angle_gamma                67.163(4)
_cell_formula_units_Z            1
_cell_length_a                   6.6978(15)
_cell_length_b                   8.6438(18)
_cell_length_c                   8.8483(19)
_cell_measurement_reflns_used    3655
_cell_measurement_temperature    296(2)
_cell_measurement_theta_max      34.9
_cell_measurement_theta_min      3.3
_cell_volume                     470.37(18)
_computing_structure_refinement  'SHELXL-2014/7 (Sheldrick, 2014)'
_diffrn_ambient_temperature      296(2)
_diffrn_measured_fraction_theta_full 0.979
_diffrn_measured_fraction_theta_max 0.891
_diffrn_measurement_device_type  'Bruker APEX-II CCD'
_diffrn_measurement_method       'phi and omega scans'
_diffrn_radiation_type           MoK\a
_diffrn_radiation_wavelength     0.71073
_diffrn_reflns_av_R_equivalents  0.0158
_diffrn_reflns_av_unetI/netI     0.0392
_diffrn_reflns_Laue_measured_fraction_full 0.979
_diffrn_reflns_Laue_measured_fraction_max 0.891
_diffrn_reflns_number            3655
_diffrn_reflns_point_group_measured_fraction_full 0.979
_diffrn_reflns_point_group_measured_fraction_max 0.891
_diffrn_reflns_theta_full        25.242
_diffrn_reflns_theta_max         34.882
_diffrn_reflns_theta_min         3.301
_diffrn_source                   'fine-focus sealed tube'
_exptl_absorpt_coefficient_mu    9.803
_exptl_absorpt_correction_T_max  0.7469
_exptl_absorpt_correction_T_min  0.5778
_exptl_absorpt_correction_type   multi-scan
_exptl_absorpt_process_details   'SADABS (Sheldrick, 1997)'
_exptl_crystal_colour            yellow
_exptl_crystal_density_diffrn    2.419
_exptl_crystal_description       Plate
_exptl_crystal_F_000             327
_exptl_crystal_recrystallization_method electrocrystallization
_exptl_crystal_size_max          0.20
_exptl_crystal_size_mid          0.17
_exptl_crystal_size_min          0.03
_refine_diff_density_max         1.444
_refine_diff_density_min         -1.987
_refine_diff_density_rms         0.159
_refine_ls_extinction_method     none
_refine_ls_goodness_of_fit_ref   1.034
_refine_ls_hydrogen_treatment    constr
_refine_ls_matrix_type           full
_refine_ls_number_parameters     133
_refine_ls_number_reflns         3655
_refine_ls_number_restraints     0
_refine_ls_restrained_S_all      1.034
_refine_ls_R_factor_all          0.0254
_refine_ls_R_factor_gt           0.0247
_refine_ls_shift/su_max          0.000
_refine_ls_shift/su_mean         0.000
_refine_ls_structure_factor_coef Fsqd
_refine_ls_weighting_details
'w=1/[\s^2^(Fo^2^)+(0.0301P)^2^] where P=(Fo^2^+2Fc^2^)/3'
_refine_ls_weighting_scheme      calc
_refine_ls_wR_factor_gt          0.0564
_refine_ls_wR_factor_ref         0.0567
_reflns_Friedel_coverage         0.000
_reflns_number_gt                3616
_reflns_number_total             3655
_reflns_threshold_expression     'I > 2\s(I)'
_cod_data_source_file            d1dt02996g2.cif
_cod_data_source_block           shelx
_cod_database_code               7708403
_shelx_shelxl_version_number     2014/7
_shelx_space_group_comment
;
The symmetry employed for this shelxl refinement is uniquely defined
by the following loop, which should always be used as a source of
symmetry information in preference to the above space-group names.
They are only intended as comments.
;
_shelx_res_file
;

    shelx.res created by SHELXL-2014/7

TITL shelxt_a.res in P-1
CELL  0.71073   6.6978   8.6438   8.8483   85.271   86.921   67.163
ZERR     1.00   0.0015   0.0018   0.0019    0.004    0.005    0.004
LATT   1
SFAC  C    H    BR   N    O    P    PT
UNIT  12 20 1 4 8 2 1
MERG   2
FMAP   2
PLAN   20
ACTA
BOND   $H
LIST   6
L.S.  10
TEMP    23.00
WGHT    0.030100
FVAR       0.83935
PT01  7    0.500000    0.000000    0.000000    10.50000    0.02640    0.01636 =
         0.01525   -0.00053    0.00082   -0.00706
BR1   3    0.861374    0.013030   -0.003733    10.50000    0.03127    0.02538 =
         0.03256   -0.00016   -0.00021   -0.01229
P1    6    0.737376    0.243958    0.489393    11.00000    0.02967    0.01774 =
         0.02229   -0.00180    0.00287   -0.00018
N1    4    0.356619    0.247642    0.039951    11.00000    0.02814    0.01886 =
         0.02096   -0.00118    0.00034   -0.00736
O3    5    0.779396    0.104902    0.385687    11.00000    0.03799    0.03378 =
         0.04224   -0.01673   -0.01214    0.00443
N2    4    0.502774   -0.015981    0.233735    11.00000    0.03745    0.02255 =
         0.01865    0.00064    0.00007   -0.01131
AFIX  23
H2A   2    0.493530   -0.112108    0.270242    11.00000   -1.20000
H2B   2    0.625842   -0.013786    0.264693    11.00000   -1.20000
AFIX   0
O4    5    0.526276    0.295579    0.578335    11.00000    0.04462    0.02199 =
         0.04959    0.00197    0.02248   -0.00434
O1    5    0.750298    0.400618    0.394730    11.00000    0.05396    0.02802 =
         0.05932    0.00864    0.03236   -0.00035
AFIX  83
H7    2    0.727594    0.476992    0.450732    11.00000   -1.50000
AFIX   0
O2    5    0.930206    0.190304    0.600997    11.00000    0.06185    0.03536 =
         0.05483   -0.02092   -0.02804    0.00731
AFIX  83
H8    2    0.938624    0.103929    0.651074    11.00000   -1.50000
AFIX   0
C1    1    0.333079    0.375414   -0.064499    11.00000    0.03411    0.02020 =
         0.02357   -0.00026    0.00064   -0.00946
AFIX  43
H1    2    0.379333    0.352189   -0.164124    11.00000   -1.20000
AFIX   0
C5    1    0.287894    0.280378    0.185238    11.00000    0.03129    0.02385 =
         0.02133   -0.00321    0.00242   -0.01035
C6    1    0.314826    0.129232    0.289910    11.00000    0.04393    0.02656 =
         0.02047   -0.00235    0.00655   -0.01278
AFIX  23
H6A   2    0.340371    0.149504    0.391937    11.00000   -1.20000
H6B   2    0.184522    0.105463    0.292220    11.00000   -1.20000
AFIX   0
C2    1    0.240639    0.541645   -0.025714    11.00000    0.03447    0.02010 =
         0.03209    0.00020   -0.00241   -0.00952
AFIX  43
H2    2    0.223427    0.629196   -0.098906    11.00000   -1.20000
AFIX   0
C3    1    0.174873    0.575061    0.122428    11.00000    0.03660    0.02035 =
         0.03610   -0.00785    0.00032   -0.00623
AFIX  43
H3    2    0.114766    0.685537    0.150365    11.00000   -1.20000
AFIX   0
C4    1    0.198750    0.443075    0.229766    11.00000    0.03831    0.02726 =
         0.02700   -0.00923    0.00425   -0.00938
AFIX  43
H4    2    0.155325    0.463956    0.330204    11.00000   -1.20000
AFIX   0
HKLF    4

REM  shelxt_a.res in P-1
REM R1 =  0.0247 for    3616 Fo > 4sig(Fo)  and  0.0254 for all    3655 data
REM    133 parameters refined using      0 restraints

END

WGHT      0.0301      0.0000

REM Highest difference peak  1.444,  deepest hole -1.987,  1-sigma level  0.159
Q1    1   0.3810 -0.0254  0.0363  11.00000  0.05    1.44
Q2    1   0.4132  0.0259 -0.0507  11.00000  0.05    1.26
Q3    1   0.4735 -0.0206 -0.0748  11.00000  0.05    1.22
Q4    1   0.5017  0.0796 -0.0366  11.00000  0.05    0.99
Q5    1   0.3976 -0.1074  0.0887  11.00000  0.05    0.77
Q6    1   0.8502  0.1457  0.6197  11.00000  0.05    0.61
Q7    1   0.5020 -0.0385  0.1412  11.00000  0.05    0.61
Q8    1   1.0457  0.0794  0.5965  11.00000  0.05    0.58
Q9    1   0.7382  0.0103 -0.0957  11.00000  0.05    0.55
Q10   1   0.6361  0.5126  0.4062  11.00000  0.05    0.54
Q11   1   0.8715  0.0319  0.0993  11.00000  0.05    0.53
Q12   1   0.8322  0.2229  0.5431  11.00000  0.05    0.52
Q13   1   0.7190  0.0654 -0.0813  11.00000  0.05    0.51
Q14   1   0.3144  0.2013  0.2382  11.00000  0.05    0.50
Q15   1   0.1978  0.5071  0.1771  11.00000  0.05    0.49
Q16   1   0.2190  0.5469 -0.1207  11.00000  0.05    0.48
Q17   1   0.9657  0.0119  0.1613  11.00000  0.05    0.46
Q18   1   0.6674  0.0000  0.1109  11.00000  0.05    0.46
Q19   1   1.0967  0.1850  0.6984  11.00000  0.05    0.43
Q20   1   0.9989  0.0045 -0.0776  11.00000  0.05    0.43
;
_shelx_res_checksum              72120
_shelx_hkl_file
;
 -10  -7   1 36.4016 17.3702   1
 -10  -6   1 18.3179 16.5914   1
 -10  -6   2 56.2687 18.6573   1
 -10  -5   1 82.9551 19.0278   1
 -10  -5   2 15.9412 17.3181   1
 -10  -4   1 50.4703 18.9042   1
 -10  -4   2 10.7446 17.5471   1
 -10  -4   3 79.4831 29.1204   1
 -10  -3   1 15.5225 17.3335   1
 -10  -3   2 63.7511 18.7499   1
 -10  -3   3 22.1724 24.7355   1
 -10  -2   1 83.1978 21.3007   1
 -10  -2   2 54.9685 24.8536   1
  -9 -10   1 64.1806 18.3701   1
  -9 -10   2 24.1848 19.3645   1
  -9  -9   1 62.6184 15.0123   1
  -9  -9   2 50.7104 17.7423   1
  -9  -9   3 87.6647 17.9737   1
  -9  -8   1 71.0706 17.1339   1
  -9  -8   2 71.5306 16.1241   1
  -9  -8   3 50.0658  15.925   1
  -9  -8   4 83.8249 18.0671   1
  -9  -7   1 55.5112 15.7934   1
  -9  -7   2  35.018 16.0746   1
  -9  -7   3 10.7226  13.514   1
  -9  -7   4 105.735 19.3002   1
  -9  -7   5  19.611 14.6423   1
  -9  -6   1 122.989 17.3847   1
  -9  -6   2 55.0807 15.8407   1
  -9  -6   3 94.4798 17.9849   1
  -9  -6   4 154.173 23.1168   1
  -9  -6   5 137.286 27.4642   1
  -9  -5   1 81.4786 14.8348   1
  -9  -5   2 47.5926 13.8146   1
  -9  -5   3 123.009 19.6521   1
  -9  -5   4 26.0967 16.4426   1
  -9  -5   5 51.9577  17.409   1
  -9  -5   6 34.7814 15.9929   1
  -9  -4   1 83.2224 16.3129   1
  -9  -4   2 122.486 21.4317   1
  -9  -4   3 56.8475 18.5307   1
  -9  -4   4 90.8003 17.1168   1
  -9  -4   5 55.8762 19.1581   1
  -9  -4   6 38.0623   17.92   1
  -9  -3   1 21.2778 14.0277   1
  -9  -3   2 107.314 18.2111   1
  -9  -3   3 42.9258 16.1138   1
  -9  -3   4 140.824 22.8718   1
  -9  -3   5 18.6623 18.4015   1
  -9  -3   6  69.566 21.2504   1
  -9  -2   1 148.398 22.3495   1
  -9  -2   2 94.3345 16.5837   1
  -9  -2   3 173.277 24.1255   1
  -9  -2   4 64.2235  18.605   1
  -9  -2   5 101.269 20.6831   1
  -9  -2   6 40.5772 21.0762   1
  -9  -1   1 229.439 24.6546   1
  -9  -1   2  104.91 18.9453   1
  -9  -1   3 146.295 25.2985   1
  -9  -1   4 109.172 19.3733   1
  -9  -1   5 116.028 19.7773   1
  -9   0   1 83.8765  18.092   1
  -9   0   2 113.057 22.7847   1
  -9   0   3 30.0121 17.6751   1
  -9   0   4 111.422  17.068   1
  -9   1   0 145.003 24.8826   1
  -9   1   1  54.689 17.4065   1
  -9   1   2 106.022 19.3633   1
  -9   2   0 46.7751  15.859   1
  -9   2   1 188.635 27.6015   1
  -8 -12   1 135.187 25.9875   1
  -8 -11   1 258.238 25.8453   1
  -8 -11   2  158.50 25.4488   1
  -8 -11   3 236.636 32.0537   1
  -8 -10   1 254.081 24.3309   1
  -8 -10   2 165.693 23.8632   1
  -8 -10   3 258.898 25.8435   1
  -8 -10   4 148.508 23.4388   1
  -8  -9   1 227.613 22.0118   1
  -8  -9   2 436.203 25.6031   1
  -8  -9   3 338.297  24.578   1
  -8  -9   4 351.396  26.711   1
  -8  -9   5 226.221  24.545   1
  -8  -8   1  332.26 21.4582   1
  -8  -8   2 390.576 23.6677   1
  -8  -8   3 319.164 23.9755   1
  -8  -8   4 331.248 24.6746   1
  -8  -8   5 215.051 23.8308   1
  -8  -8   6 246.641 24.5398   1
  -8  -7   1 390.266 22.4393   1
  -8  -7   2 311.719 21.6701   1
  -8  -7   3 362.235 22.6435   1
  -8  -7   4 315.355 23.2842   1
  -8  -7   5 333.899  24.101   1
  -8  -7   6 180.605 24.6224   1
  -8  -7   7 260.578 25.1396   1
  -8  -6   1 583.382 26.0765   1
  -8  -6   2 305.655 20.9287   1
  -8  -6   3 423.324 23.4402   1
  -8  -6   4 337.199 22.5579   1
  -8  -6   5 493.932 27.0667   1
  -8  -6   6 196.588 22.3877   1
  -8  -6   7 261.879 26.1264   1
  -8  -5   1 329.472 21.9696   1
  -8  -5   2 406.268 22.7662   1
  -8  -5   3 529.316 24.7176   1
  -8  -5   4 547.719 24.9843   1
  -8  -5   5 351.169 24.3913   1
  -8  -5   6 226.154 22.0708   1
  -8  -5   7 218.186 24.4342   1
  -8  -5   8 292.708 28.1602   1
  -8  -4   1 410.121  23.279   1
  -8  -4   2 544.547 25.8257   1
  -8  -4   3 239.674 21.3497   1
  -8  -4   4 517.373 25.2292   1
  -8  -4   5 138.384 20.8701   1
  -8  -4   6 313.297 22.8108   1
  -8  -4   7 151.777 22.4271   1
  -8  -4   8 191.295 27.7147   1
  -8  -3   1 529.739 26.4054   1
  -8  -3   2 278.214 20.3562   1
  -8  -3   3 372.802  22.351   1
  -8  -3   4 250.011 22.2678   1
  -8  -3   6 182.477 21.6673   1
  -8  -3   7 176.836 23.7164   1
  -8  -3   8 63.6545  18.125   1
  -8  -2   1 482.192 24.3065   1
  -8  -2   2 223.264 19.8488   1
  -8  -2   3 514.783 25.4347   1
  -8  -2   5 412.754 24.7397   1
  -8  -2   6 152.202 23.4608   1
  -8  -2   7 167.737 26.7644   1
  -8  -1   1 435.198 23.3235   1
  -8  -1   2 360.793 22.0162   1
  -8  -1   3 326.007 22.1117   1
  -8   0   1 279.728 21.8146   1
  -8   0   2 524.288 24.8977   1
  -8   0   3 233.523 22.7223   1
  -8   0   4 422.005 25.8243   1
  -8   0   5 189.513 23.1983   1
  -8   1   0 238.294 21.9109   1
  -8   1   1  288.70 21.4235   1
  -8   1   2 110.051 17.8248   1
  -8   1   3 183.322 20.6972   1
  -8   1   4 142.035 24.1689   1
  -8   2   0 162.223 26.7138   1
  -8   2   1 344.138 23.9461   1
  -8   2   2 104.469 17.1739   1
  -8   3   0 195.735 21.6801   1
  -8   3   1 81.0944 15.2982   1
  -7 -12   1 110.062 18.9001   1
  -7 -12   2 39.6308 19.1901   1
  -7 -12   3 136.417 21.8764   1
  -7 -11   1 184.234 21.2953   1
  -7 -11   2 69.6506  15.047   1
  -7 -11   3  198.85 21.4967   1
  -7 -11   4 80.3524 16.7789   1
  -7 -10   1 44.4064 11.8642   1
  -7 -10   2 167.036 18.8337   1
  -7 -10   3 94.5334 16.6825   1
  -7 -10   4 199.891  22.067   1
  -7 -10   5 112.652 21.0019   1
  -7  -9   1 145.515 16.0788   1
  -7  -9   2 190.629 16.9445   1
  -7  -9   3 171.736 17.4944   1
  -7  -9   4  204.46  20.312   1
  -7  -9   5 110.461 18.1133   1
  -7  -9   6 175.948 22.7528   1
  -7  -8   1  196.32 17.6994   1
  -7  -8   2 148.301  15.366   1
  -7  -8   3 355.904 20.4795   1
  -7  -8   4 149.001   16.64   1
  -7  -8   5 212.366 20.0309   1
  -7  -8   6 92.0381 14.7308   1
  -7  -8   7 74.8446 15.3415   1
  -7  -7   1 188.153 15.1631   1
  -7  -7   2  102.92 13.5102   1
  -7  -7   3 186.918 15.4348   1
  -7  -7   4 189.919 16.8013   1
  -7  -7   5 184.825 17.6245   1
  -7  -7   6 79.1341 13.9309   1
  -7  -7   7 183.852 20.4042   1
  -7  -7   8 73.9463  15.615   1
  -7  -6   1 108.936 13.1722   1
  -7  -6   2  275.30 16.6747   1
  -7  -6   3 91.2961  13.358   1
  -7  -6   4 91.0819 13.0644   1
  -7  -6   5 114.058 16.0406   1
  -7  -6   6  121.25 16.1985   1
  -7  -6   7 117.559 18.7434   1
  -7  -6   8 172.519 22.3606   1
  -7  -6   9  128.41 23.6557   1
  -7  -5   1 176.644  14.052   1
  -7  -5   2 271.267 16.4858   1
  -7  -5   3 127.522 13.7341   1
  -7  -5   4 534.556 22.3873   1
  -7  -5   5 265.784 17.4762   1
  -7  -5   6 275.848 19.1138   1
  -7  -5   7 64.4246 13.3243   1
  -7  -5   8 232.074 21.8774   1
  -7  -5   9 80.6088  16.254   1
  -7  -4   1 309.859 17.4851   1
  -7  -4   2  53.299 8.65069   1
  -7  -4   3 245.653 15.5522   1
  -7  -4   4 218.822 15.5674   1
  -7  -4   6 87.0859  14.575   1
  -7  -4   7 95.3627 17.5948   1
  -7  -4   8 151.053 19.7219   1
  -7  -4   9 101.645  20.847   1
  -7  -4  10 18.5143 14.6304   1
  -7  -3   1 378.682 18.6624   1
  -7  -3   2 112.822 13.2972   1
  -7  -3   3 362.692 18.1913   1
  -7  -3   4 100.613 13.9837   1
  -7  -3   5 296.297 18.3829   1
  -7  -3   6 28.4519 10.0371   1
  -7  -3   7 211.233 19.1045   1
  -7  -3   8 55.4155 13.7334   1
  -7  -3   9 71.4225 16.9203   1
  -7  -2   1 78.0984 10.7192   1
  -7  -2   2 92.1596 14.3206   1
  -7  -2   3 104.115 15.1671   1
  -7  -2   4 163.462  16.148   1
  -7  -2   5 95.6316 14.3143   1
  -7  -2   7 178.676 18.9525   1
  -7  -2   8  118.88 19.8319   1
  -7  -1   1 92.1878 14.0302   1
  -7  -1   2 268.314 16.8916   1
  -7  -1   3 124.641 14.0487   1
  -7  -1   4 278.231 18.6983   1
  -7  -1   5  62.093 11.9676   1
  -7  -1   6 229.214 20.4598   1
  -7  -1   7 21.8192 13.7877   1
  -7   0   1 123.617 15.2821   1
  -7   0   2 204.745 16.6538   1
  -7   0   3 205.535 17.6525   1
  -7   0   4 189.652 17.2186   1
  -7   0   5 173.738 17.0426   1
  -7   0   6 57.1998 13.4876   1
  -7   1   0  51.848 9.56282   1
  -7   1   1 242.017 15.8604   1
  -7   1   2 69.8157 12.2318   1
  -7   1   3 211.679 18.2953   1
  -7   1   4-9.19318 9.87126   1
  -7   1   5 266.331 19.8473   1
  -7   2   0 162.646 16.3957   1
  -7   2   1 119.243 15.7237   1
  -7   2   2 117.747 16.3158   1
  -7   2   3 51.3774 11.7535   1
  -7   2   4 157.945 25.2074   1
  -7   2   5 164.976 17.1914   1
  -7   3   0 108.718 16.0746   1
  -7   3   2 222.562 13.7658   1
  -7   3   3  24.885 10.2171   1
  -7   3   4 346.845 20.5706   1
  -7   3   5 33.3509 11.5991   1
  -7   3   6 182.363 19.6615   1
  -7   4   0 99.8374  16.989   1
  -7   4   1 136.854 35.4007   1
  -7   4   2 94.2937 14.3365   1
  -7   4   3 98.9361 17.6032   1
  -7   4   4 123.856 18.3793   1
  -7   4   5 90.8056  15.305   1
  -7   4   6 32.4628   14.60   1
  -7   5   0  30.074 13.3382   1
  -7   5   1 128.609 19.6649   1
  -7   5   3 59.3934  14.542   1
  -6 -13   2 56.4821 17.2367   1
  -6 -12   1 230.367  20.348   1
  -6 -12   2 103.632 20.0129   1
  -6 -12   3 204.385  24.623   1
  -6 -12   4 61.3988 15.2725   1
  -6 -11   1 119.653 15.6813   1
  -6 -11   2 157.955 17.9968   1
  -6 -11   3  95.918 17.9668   1
  -6 -11   4  211.54 21.9704   1
  -6 -11   5 82.4899 16.3921   1
  -6 -10   1 122.666 17.3992   1
  -6 -10   2 327.815 19.3774   1
  -6 -10   3 178.849 17.2658   1
  -6 -10   4 374.756 22.4124   1
  -6 -10   5 82.6504  14.488   1
  -6 -10   6 170.776 22.9096   1
  -6  -9   1 395.476 17.8626   1
  -6  -9   2 111.697 13.9537   1
  -6  -9   3 336.324 18.7521   1
  -6  -9   4  133.84  16.346   1
  -6  -9   5 251.911 19.5511   1
  -6  -9   6 118.092 19.5727   1
  -6  -9   7 205.183 22.1122   1
  -6  -8   1 544.094 20.8879   1
  -6  -8   2 229.021 14.7732   1
  -6  -8   3 613.908 23.5767   1
  -6  -8   4 414.259 19.7234   1
  -6  -8   5 404.184  20.582   1
  -6  -8   6 216.374 19.0846   1
  -6  -8   7 314.406 23.4029   1
  -6  -8   8 80.0296 15.8852   1
  -6  -7   1 341.865 15.4747   1
  -6  -7   2 529.885  20.092   1
  -6  -7   3 357.216 16.8274   1
  -6  -7   4 515.533  20.963   1
  -6  -7   5 193.031 15.4762   1
  -6  -7   6 315.721 18.8255   1
  -6  -7   7 162.201 18.1116   1
  -6  -7   8 180.658 20.9899   1
  -6  -7   9 197.888 24.5497   1
  -6  -6   1 137.231 11.2262   1
  -6  -6   2 606.128 21.5852   1
  -6  -6   3 364.116  16.563   1
  -6  -6   4 478.217 19.4062   1
  -6  -6   5 257.824 15.6108   1
  -6  -6   6 271.368 17.0964   1
  -6  -6   7 183.018 17.2806   1
  -6  -6   8 360.381 22.4841   1
  -6  -6   9 135.391 20.4165   1
  -6  -6  10 227.211  24.783   1
  -6  -5   1 1326.51 36.8808   1
  -6  -5   2 417.269 17.1094   1
  -6  -5   3 680.361 23.0683   1
  -6  -5   4 373.556 16.6765   1
  -6  -5   5 520.158 20.2006   1
  -6  -5   6 506.682 21.3949   1
  -6  -5   7  285.65 18.1803   1
  -6  -5   8 272.189 19.1786   1
  -6  -5   9 201.897 20.1597   1
  -6  -5  10 108.038 21.6765   1
  -6  -4   1 959.396 28.8654   1
  -6  -4   2 320.571 14.8763   1
  -6  -4   3 982.688 29.4343   1
  -6  -4   4 575.568 20.7561   1
  -6  -4   5 1000.95  30.357   1
  -6  -4   6 245.488 15.4856   1
  -6  -4   7 331.226 25.8212   1
  -6  -4   8 294.244 18.9295   1
  -6  -4   9 386.234 22.6479   1
  -6  -4  10 105.568 19.7598   1
  -6  -4  11  168.39 24.7226   1
  -6  -3   1 474.287 18.8627   1
  -6  -3   2 1170.42  33.453   1
  -6  -3   3 437.393 17.5834   1
  -6  -3   4 748.609 24.1712   1
  -6  -3   5 410.532 17.4675   1
  -6  -3   6 242.003 14.5926   1
  -6  -3   7 392.547 18.8306   1
  -6  -3   8 204.314 16.5505   1
  -6  -3   9 225.812 19.2051   1
  -6  -3  10 131.382 20.5727   1
  -6  -2   1 610.321 22.1754   1
  -6  -2   2 827.973 27.0965   1
  -6  -2   3 443.709 18.3235   1
  -6  -2   4 773.794 25.3555   1
  -6  -2   5 309.943 15.4152   1
  -6  -2   6  501.02 19.7316   1
  -6  -2   7 140.822 13.5696   1
  -6  -2   8  601.53 25.0529   1
  -6  -2   9 69.3615 13.4862   1
  -6  -1   1 750.579 25.0813   1
  -6  -1   2 492.579 20.2707   1
  -6  -1   3 749.859 25.8654   1
  -6  -1   4 675.359 24.0143   1
  -6  -1   5 697.218 24.2853   1
  -6  -1   6 467.991 19.2996   1
  -6  -1   7 496.078 21.2154   1
  -6  -1   8 358.884 15.2558   1
  -6  -1   9 214.999 18.6223   1
  -6  -1  10 238.739 21.6285   1
  -6   0   1 1248.29 35.8624   1
  -6   0   2 453.853 18.7477   1
  -6   0   3  852.30 27.6419   1
  -6   0   4 571.368 21.9794   1
  -6   0   5  655.28 24.1893   1
  -6   0   6 187.715  47.873   1
  -6   0   7 459.434  27.116   1
  -6   0   8 98.2233 14.7532   1
  -6   0   9 503.142 24.2947   1
  -6   0  10 102.433 19.3608   1
  -6   1   0 788.504   25.16   1
  -6   1   1 508.461 19.2339   1
  -6   1   2 865.132 21.6867   1
  -6   1   3 905.691 37.5971   1
  -6   1   4 662.573 18.0854   1
  -6   1   5  539.31 21.8087   1
  -6   1   6 339.808 12.9055   1
  -6   1   7 365.598 15.1925   1
  -6   1   8 278.103 18.5257   1
  -6   1   9 177.796 18.8522   1
  -6   1  10 115.238 20.0938   1
  -6   2   0 743.693 30.7071   1
  -6   2   1 427.543 13.6339   1
  -6   2   2 719.395 19.1239   1
  -6   2   3 75.3382 7.16692   1
  -6   2   4 510.786 15.4956   1
  -6   2   5 138.201 8.03659   1
  -6   2   6 564.453 16.9046   1
  -6   2   7 110.608 10.0707   1
  -6   2   8  287.75 19.8887   1
  -6   2   9 141.091 19.8366   1
  -6   3   0  451.24 14.7309   1
  -6   3   1 695.454 19.2469   1
  -6   3   2 407.234 16.5294   1
  -6   3   3 526.331   19.68   1
  -6   3   4 589.777 21.8901   1
  -6   3   5 391.535 18.2949   1
  -6   3   6 334.626 18.5548   1
  -6   3   7 136.993 22.5709   1
  -6   3   8  242.68 18.8219   1
  -6   3   9 207.669 20.9156   1
  -6   4   0 263.507 12.0268   1
  -6   4   1 554.964 17.8866   1
  -6   4   2 179.729 14.4619   1
  -6   4   3 585.839 22.1836   1
  -6   4   4 167.212 15.2012   1
  -6   4   5  635.02 24.3166   1
  -6   4   6  115.60  17.341   1
  -6   4   7 354.733 21.4575   1
  -6   5   0 402.851 20.2871   1
  -6   5   1 551.649 23.0915   1
  -6   5   2 218.661 16.8486   1
  -6   5   3  307.31 19.6306   1
  -6   5   4 265.512 19.1022   1
  -6   5   5 183.915 17.6283   1
  -6   5   6 152.164 18.3554   1
  -6   5   7  104.44 20.0074   1
  -6   6   0 373.002 22.0776   1
  -6   6   1 135.236 17.2394   1
  -6   6   2 307.844 21.0783   1
  -6   6   3 123.148 18.3402   1
  -6   6   4 289.627 21.6133   1
  -6   6   5 100.805 17.8115   1
  -5 -13   1 244.769 21.4482   1
  -5 -13   2  194.50 20.1888   1
  -5 -13   3 267.421 25.0749   1
  -5 -12   1 317.493 15.7131   1
  -5 -12   2 483.111  24.851   1
  -5 -12   4 331.011 24.9279   1
  -5 -12   5  238.05 30.0763   1
  -5 -11   1 392.319 26.6932   1
  -5 -11   2 577.696 23.5725   1
  -5 -11   3 243.607  18.329   1
  -5 -11   4 577.113 27.1792   1
  -5 -11   5 273.164 22.3513   1
  -5 -11   6 434.188 28.1514   1
  -5 -10   1  817.33 26.3061   1
  -5 -10   2  514.70 20.9184   1
  -5 -10   3 695.008 25.0176   1
  -5 -10   4 569.461  24.058   1
  -5 -10   5  504.89 24.5347   1
  -5 -10   6 191.035 21.1396   1
  -5 -10   7 259.493 24.4749   1
  -5  -9   1 712.279 23.4577   1
  -5  -9   2 438.882 18.2479   1
  -5  -9   3 1047.72 31.8963   1
  -5  -9   4  467.48  20.463   1
  -5  -9   5 859.169 29.5623   1
  -5  -9   6 288.669 20.5292   1
  -5  -9   7 664.492 28.7835   1
  -5  -9   8  353.23 25.7762   1
  -5  -8   1 1289.03 35.6326   1
  -5  -8   2 892.116 27.2285   1
  -5  -8   3 767.578 24.9375   1
  -5  -8   4 1166.30 34.5054   1
  -5  -8   5 527.009 21.5242   1
  -5  -8   6 809.234 28.5285   1
  -5  -8   7 470.764 23.4879   1
  -5  -8   8 564.982 27.0915   1
  -5  -8   9 322.277 26.5776   1
  -5  -7   1 721.488 22.8358   1
  -5  -7   2 1458.83 39.0677   1
  -5  -7   3 1010.91 29.7075   1
  -5  -7   4 1570.85 42.6282   1
  -5  -7   5 615.995 22.4722   1
  -5  -7   6 863.469 28.9179   1
  -5  -7   7 406.623 21.0543   1
  -5  -7   8 528.155 25.1291   1
  -5  -7   9 168.037 21.1644   1
  -5  -7  10 319.079  26.448   1
  -5  -6   1 1170.65 32.2565   1
  -5  -6   2 874.378 25.9453   1
  -5  -6   3 1320.00 35.8866   1
  -5  -6   4 974.109 28.6814   1
  -5  -6   5 1044.07 31.1708   1
  -5  -6   6 580.539 21.7349   1
  -5  -6   7 788.094 27.1143   1
  -5  -6   8 488.461 22.5045   1
  -5  -6   9 524.353 25.3391   1
  -5  -6  10 363.099 25.1894   1
  -5  -5   1 1643.92 42.3147   1
  -5  -5   2 763.295 23.1469   1
  -5  -5   3 2241.43 55.6201   1
  -5  -5   4 449.005 16.7784   1
  -5  -5   5 953.417 28.3327   1
  -5  -5   6 484.618 18.8058   1
  -5  -5   7 720.896 25.0079   1
  -5  -5   8 501.083 21.5951   1
  -5  -5   9 532.893  24.342   1
  -5  -5  10  203.46 21.3042   1
  -5  -5  11 312.013 25.6989   1
  -5  -4   1 1018.00 28.5301   1
  -5  -4   2 2388.44 58.4375   1
  -5  -4   3 910.978 26.3409   1
  -5  -4   4 1764.55 45.3052   1
  -5  -4   5 1668.32 43.5391   1
  -5  -4   6 1274.97 35.5764   1
  -5  -4   7 879.179 27.6891   1
  -5  -4   8 582.818 22.8668   1
  -5  -4   9 603.727 23.7298   1
  -5  -4  10 295.428 23.4445   1
  -5  -4  11 233.563 23.4737   1
  -5  -3   1 884.381 25.8742   1
  -5  -3   2 1893.40 47.5341   1
  -5  -3   3 677.882 21.3016   1
  -5  -3   4 1967.07 49.4905   1
  -5  -3   5 608.773 20.2503   1
  -5  -3   6 869.471 26.3634   1
  -5  -3   7 339.277 15.4319   1
  -5  -3   8 863.623 27.5525   1
  -5  -3   9 398.093 21.0135   1
  -5  -3  10 368.845 21.5681   1
  -5  -3  11 157.735 20.1427   1
  -5  -2   1 2389.91 59.0146   1
  -5  -2   2 1260.38   34.06   1
  -5  -2   3 1826.32 46.1936   1
  -5  -2   4 1052.07 29.3535   1
  -5  -2   5 1314.46 35.4557   1
  -5  -2   6 610.042 16.5631   1
  -5  -2   7 508.933 15.1551   1
  -5  -2   8 693.906 19.7966   1
  -5  -2   9 286.612 13.2283   1
  -5  -2  10 315.671 15.2199   1
  -5  -2  11 154.263  20.636   1
  -5  -1   1 2455.41 60.4656   1
  -5  -1   2  429.83 17.1175   1
  -5  -1   3 875.857 25.9281   1
  -5  -1   4 1003.06 28.5677   1
  -5  -1   5 972.358 28.2197   1
  -5  -1   6 452.526 13.5322   1
  -5  -1   7 1075.03  29.227   1
  -5  -1   8 395.289 28.5877   1
  -5  -1   9 714.915 20.7691   1
  -5  -1  10 130.607 17.1157   1
  -5  -1  11 331.917 23.2791   1
  -5   0   1 1081.37 30.7107   1
  -5   0   2 1145.70 34.9422   1
  -5   0   3 1035.28 33.9075   1
  -5   0   4 1335.83 29.8125   1
  -5   0   5  833.13 20.0075   1
  -5   0   6 755.167 18.2874   1
  -5   0   7 630.045  17.508   1
  -5   0   8 382.709 25.4091   1
  -5   0   9 486.525 21.4828   1
  -5   0  10 320.222 20.2873   1
  -5   0  11 395.775 24.8084   1
  -5   1   0 2672.72 112.301   1
  -5   1   1 543.909  18.619   1
  -5   1   2 1230.30 28.2757   1
  -5   1   3  775.69 18.5341   1
  -5   1   4 1493.20 32.6417   1
  -5   1   5 665.227 16.8754   1
  -5   1   6 734.414 27.5203   1
  -5   1   7 279.227 10.3664   1
  -5   1   8 648.045 22.9904   1
  -5   1   9 167.479 16.0388   1
  -5   1  10 370.413 21.8514   1
  -5   1  11 26.2208 13.2012   1
  -5   2   0  392.50 11.7095   1
  -5   2   1 1048.70  24.617   1
  -5   2   2 395.236  11.912   1
  -5   2   3 997.674 22.9577   1
  -5   2   4 478.152 12.6583   1
  -5   2   5 247.426  8.2751   1
  -5   2   6 635.199 25.5751   1
  -5   2   7 289.011 11.0595   1
  -5   2   8 476.326 20.2803   1
  -5   2   9 267.105 18.2996   1
  -5   2  10 237.718 19.5727   1
  -5   3   0 497.463 14.0926   1
  -5   3   1 1014.33 36.0602   1
  -5   3   2 228.176  14.192   1
  -5   3   3  746.36 17.9037   1
  -5   3   4 184.728 6.94162   1
  -5   3   5 932.291 22.2768   1
  -5   3   6 252.821 10.1993   1
  -5   3   7 378.809 19.4784   1
  -5   3   8 115.528 10.0021   1
  -5   3   9  353.72 21.3711   1
  -5   3  10 89.1212   15.34   1
  -5   4   0 531.468 15.2136   1
  -5   4   1 255.806 9.76828   1
  -5   4   2 541.325 19.3235   1
  -5   4   3 347.806 12.8284   1
  -5   4   4 475.001  18.174   1
  -5   4   5 533.383 15.8865   1
  -5   4   6 224.334 10.6935   1
  -5   4   7 357.011 34.3921   1
  -5   4   8 263.288 24.6483   1
  -5   4   9 335.251  22.365   1
  -5   4  10  157.96 22.1414   1
  -5   5   0 597.781 17.1905   1
  -5   5   1 206.546 9.98232   1
  -5   5   2 612.693 48.0635   1
  -5   5   3 189.573 14.0204   1
  -5   5   4 531.872 20.5657   1
  -5   5   5 258.543 16.4182   1
  -5   5   6  374.22 19.1702   1
  -5   5   7 54.8888 11.6804   1
  -5   5   8 361.636 22.4186   1
  -5   6   0 315.491  24.505   1
  -5   6   1 239.193 15.8637   1
  -5   6   2 264.263 17.0315   1
  -5   6   3 103.302 13.8681   1
  -5   6   4 228.549 16.9492   1
  -5   6   5 148.809 16.2014   1
  -5   6   6 107.976 16.3719   1
  -5   6   7  144.73 18.8745   1
  -5   6   8 176.765 21.7015   1
  -5   7   0 89.9932 14.8872   1
  -5   7   1 331.115 20.3051   1
  -5   7   2 64.3693 12.3547   1
  -5   7   3 237.336 19.0402   1
  -5   7   4 82.8791 13.5833   1
  -5   7   5 274.065  21.649   1
  -5   7   6 71.0886 13.9408   1
  -5   8   0 118.994 18.2514   1
  -5   8   1 109.014 16.1449   1
  -5   8   2 25.7424 11.2373   1
  -4 -13   1 63.4224 13.1842   1
  -4 -13   2 108.395 19.3024   1
  -4 -13   3 104.412 20.8776   1
  -4 -12   1 33.4409 8.47618   1
  -4 -12   2 162.146  13.266   1
  -4 -12   3 121.046 18.9423   1
  -4 -12   4  198.33 26.9307   1
  -4 -12   5 103.832 21.7775   1
  -4 -11   1 304.426 12.5679   1
  -4 -11   2 159.203 19.8073   1
  -4 -11   3 326.797 19.2394   1
  -4 -11   4 158.702 17.7509   1
  -4 -11   5 137.174 18.7244   1
  -4 -11   6 235.434 22.9939   1
  -4 -10   1 285.706 14.7461   1
  -4 -10   2 130.197 12.3762   1
  -4 -10   3 264.903 18.8002   1
  -4 -10   4 89.6973 13.6889   1
  -4 -10   5 333.328 19.8026   1
  -4 -10   6  33.803 10.7494   1
  -4 -10   7 119.995 19.5833   1
  -4  -9   1 140.927 10.5575   1
  -4  -9   2  240.10 12.8462   1
  -4  -9   3 237.938 13.7254   1
  -4  -9   4 415.021 18.3031   1
  -4  -9   5 239.805 15.9013   1
  -4  -9   6 187.994 17.0422   1
  -4  -9   7 185.529 19.2378   1
  -4  -9   8 251.556 22.1839   1
  -4  -8   1  149.75 9.89282   1
  -4  -8   2 408.549 15.7294   1
  -4  -8   3 110.129 9.75303   1
  -4  -8   4 421.727 17.2372   1
  -4  -8   5 56.6527 8.28252   1
  -4  -8   6 335.487 18.4333   1
  -4  -8   7 78.2979 12.2916   1
  -4  -8   8 459.245 24.6122   1
  -4  -8   9 99.5758 16.3446   1
  -4  -7   1 427.126 15.0445   1
  -4  -7   2 406.707 15.2088   1
  -4  -7   3 370.094  14.792   1
  -4  -7   4  601.65 20.4438   1
  -4  -7   5 530.128 19.5234   1
  -4  -7   6 161.895 13.1619   1
  -4  -7   7 457.177  20.531   1
  -4  -7   8 226.036 18.3663   1
  -4  -7   9 148.968 18.8251   1
  -4  -7  10 103.943 20.0114   1
  -4  -6   1 847.374 24.0063   1
  -4  -6   2 103.392 8.03921   1
  -4  -6   3 930.791 26.4275   1
  -4  -6   4 201.555 10.9587   1
  -4  -6   5  576.88 19.8337   1
  -4  -6   6 61.4843  9.2888   1
  -4  -6   7 408.589 17.9357   1
  -4  -6   8 79.2808 13.0399   1
  -4  -6   9 269.457 18.8897   1
  -4  -6  10 87.2586 14.4457   1
  -4  -6  11 148.873 22.6725   1
  -4  -5   1  114.16 7.64845   1
  -4  -5   2 122.658 7.86154   1
  -4  -5   3 411.286 14.6972   1
  -4  -5   4  443.29 15.6514   1
  -4  -5   5 260.627 12.1375   1
  -4  -5   6 180.591 11.1557   1
  -4  -5   7 178.064 12.1348   1
  -4  -5   8 346.786 16.8964   1
  -4  -5   9 193.491 16.2171   1
  -4  -5  10 218.518 18.8766   1
  -4  -5  11 112.161 20.6643   1
  -4  -4   1 303.213 13.6308   1
  -4  -4   2 1599.49 39.8902   1
  -4  -4   3 65.0668 6.43866   1
  -4  -4   4 1322.57 34.5852   1
  -4  -4   5 23.9541 4.94989   1
  -4  -4   6 884.695 26.0508   1
  -4  -4   7 272.037 13.5285   1
  -4  -4   8 361.843 16.1956   1
  -4  -4   9  137.95 21.2358   1
  -4  -4  10 189.356 17.4977   1
  -4  -4  11 69.6603 13.0224   1
  -4  -4  12 169.909 23.5699   1
  -4  -3   1 576.946 17.4606   1
  -4  -3   2 200.085 11.2844   1
  -4  -3   3 620.738 18.5882   1
  -4  -3   4 521.405 16.6852   1
  -4  -3   5 925.665 26.0339   1
  -4  -3   6 454.534  18.636   1
  -4  -3   7 230.725 16.2402   1
  -4  -3   8 297.227 11.3539   1
  -4  -3   9 345.792 13.3522   1
  -4  -3  10 277.243 13.6634   1
  -4  -3  11 122.309 18.1902   1
  -4  -3  12 196.091 21.3182   1
  -4  -2   1 1284.80  34.495   1
  -4  -2   2 166.065 8.59788   1
  -4  -2   4 205.738 7.31972   1
  -4  -2   5 965.059 23.0771   1
  -4  -2   6 39.9017 4.09099   1
  -4  -2   7 433.628 14.3213   1
  -4  -2   8 133.354 7.98737   1
  -4  -2   9 374.339 13.5728   1
  -4  -2  10  54.811 9.82971   1
  -4  -2  11 138.404 12.2426   1
  -4  -2  12 81.2262  15.459   1
  -4  -1   1 988.619 27.9007   1
  -4  -1   2 327.075 12.6583   1
  -4  -1   3 414.288 11.4708   1
  -4  -1   4 509.056 39.0508   1
  -4  -1   5 212.919 7.76207   1
  -4  -1   6 390.159 11.5373   1
  -4  -1   7  105.99 6.29164   1
  -4  -1   8 324.322 11.3486   1
  -4  -1   9 352.477  12.904   1
  -4  -1  10 78.1063 8.82139   1
  -4  -1  11  203.69 18.4951   1
  -4  -1  12  79.605 14.7713   1
  -4   0   1 58.8907 12.4234   1
  -4   0   2  681.03 16.5877   1
  -4   0   3 127.086 7.84855   1
  -4   0   4 876.533 20.6073   1
  -4   0   5 367.342 9.78827   1
  -4   0   6 567.697 14.0683   1
  -4   0   7 211.255 8.83016   1
  -4   0   8 769.109 19.7452   1
  -4   0   9 103.239 12.4889   1
  -4   0  10 272.674 17.3542   1
  -4   0  11 112.693 17.2505   1
  -4   0  12 271.504 22.4218   1
  -4   1   0 840.569 39.4626   1
  -4   1   1 1154.08   35.62   1
  -4   1   2 309.408 8.50159   1
  -4   1   3 526.015 17.5735   1
  -4   1   4 531.432 14.9748   1
  -4   1   5 488.013 12.6153   1
  -4   1   6 285.673 8.39386   1
  -4   1   7  190.67 6.80341   1
  -4   1   8 240.571 46.7511   1
  -4   1   9 147.841 13.6274   1
  -4   1  10 301.599 18.4119   1
  -4   1  11 123.052 17.6356   1
  -4   2   0 275.079 7.55495   1
  -4   2   1 933.904 21.5886   1
  -4   2   2 71.2045 5.80451   1
  -4   2   3 1492.27 34.1714   1
  -4   2   4 389.593 10.3074   1
  -4   2   5  905.03 31.7353   1
  -4   2   6 105.128 8.90553   1
  -4   2   7 406.098 14.3286   1
  -4   2   8 213.084  9.1789   1
  -4   2   9 314.849 17.1501   1
  -4   2  10 67.1818 10.9113   1
  -4   2  11 167.798 18.7822   1
  -4   3   0 762.832 23.1714   1
  -4   3   1 93.1646 4.08956   1
  -4   3   2 827.368  20.101   1
  -4   3   3 48.9099 3.70039   1
  -4   3   4 120.556 4.97126   1
  -4   3   5 184.503 6.43572   1
  -4   3   6 84.7451 5.87205   1
  -4   3   7 440.056 17.4003   1
  -4   3   8 69.7706 7.79576   1
  -4   3   9 213.807 16.0995   1
  -4   3  10 106.283 16.1518   1
  -4   3  11 120.809 19.1325   1
  -4   4   0 970.506 22.7078   1
  -4   4   1 118.033 5.73209   1
  -4   4   2 702.132 17.4904   1
  -4   4   3 124.798 5.08172   1
  -4   4   4 756.836 24.5299   1
  -4   4   5 286.819 12.5243   1
  -4   4   6 507.044 14.4302   1
  -4   4   7 53.7446 8.92176   1
  -4   4   8 267.264 13.9249   1
  -4   4   9 136.862 15.3747   1
  -4   4  10 296.221 21.2144   1
  -4   4  11 32.7389 15.3633   1
  -4   5   0 209.235 9.31732   1
  -4   5   1 294.844 9.82124   1
  -4   5   2 185.239  7.5239   1
  -4   5   3 264.186 12.6268   1
  -4   5   4 245.541 9.05252   1
  -4   5   5 304.185 15.0723   1
  -4   5   6 343.941 13.0036   1
  -4   5   7 120.715 17.9334   1
  -4   5   8 272.454 12.4599   1
  -4   5   9 120.448 15.7453   1
  -4   5  10  186.34 27.5236   1
  -4   6   0 48.1096 7.92226   1
  -4   6   1 955.379 23.2646   1
  -4   6   2 121.129 15.1007   1
  -4   6   3 317.294 15.1375   1
  -4   6   4 186.258 13.1103   1
  -4   6   5 240.477 15.1052   1
  -4   6   6 61.9627 10.6098   1
  -4   6   7 152.335 24.8223   1
  -4   6   8 37.0943 8.17856   1
  -4   6   9 339.619 20.3209   1
  -4   7   0 185.254 23.9291   1
  -4   7   1 223.677 15.2672   1
  -4   7   2 110.841 12.5357   1
  -4   7   3 171.447 14.2719   1
  -4   7   4 133.737   14.24   1
  -4   7   5 178.878 16.2583   1
  -4   7   6 122.331 16.2141   1
  -4   7   7  163.27 17.5028   1
  -4   7   8 35.5132 12.6971   1
  -4   8   0 326.537 19.4767   1
  -4   8   1 71.4154  11.566   1
  -4   8   2 171.622 16.2891   1
  -4   8   3 12.0312 9.36846   1
  -4   8   4 194.488 18.0996   1
  -4   8   5 93.4005 13.9952   1
  -4   8   6 166.247 19.3267   1
  -4   9   0 134.498 19.2496   1
  -4   9   1 175.965 18.9963   1
  -4   9   2 110.022 18.5529   1
  -4   9   3 176.261 22.0685   1
  -3 -12   1  323.29 28.1836   1
  -3 -12   2 130.348 33.1485   1
  -3 -12   3 285.485 16.1538   1
  -3 -12   4 169.476 20.1757   1
  -3 -12   5 139.086 28.9503   1
  -3 -11   1 418.084 15.6908   1
  -3 -11   2 238.403 11.0504   1
  -3 -11   3 713.834 25.4389   1
  -3 -11   4 296.676 20.1202   1
  -3 -11   5 333.262 21.6568   1
  -3 -11   6 162.481 20.3238   1
  -3 -10   2 775.356 24.6766   1
  -3 -10   3 307.732  16.373   1
  -3 -10   4 423.932  19.402   1
  -3 -10   5 352.674 20.3821   1
  -3 -10   6 323.418 21.9415   1
  -3 -10   7 394.861 25.4239   1
  -3 -10   8 153.584  22.341   1
  -3  -9   1 690.355 21.2767   1
  -3  -9   2 963.785 28.0337   1
  -3  -9   3 557.116 19.6577   1
  -3  -9   4 884.529 28.0583   1
  -3  -9   5 357.164 18.7472   1
  -3  -9   6 516.898 23.1627   1
  -3  -9   7 92.3386 13.8664   1
  -3  -9   8 390.707 26.0194   1
  -3  -9   9 129.125 22.5166   1
  -3  -8   1 572.155 18.0336   1
  -3  -8   2 566.013 18.5379   1
  -3  -8   3 889.569 26.2497   1
  -3  -8   4 739.491 24.2337   1
  -3  -8   5 750.003 25.0451   1
  -3  -8   6  399.12 20.8568   1
  -3  -8   7 489.466 22.2394   1
  -3  -8   8 552.647 25.2514   1
  -3  -8   9 338.858  24.852   1
  -3  -8  10 229.191 26.4178   1
  -3  -7   1 2958.90 69.4495   1
  -3  -7   2 1167.35 30.9564   1
  -3  -7   3 1279.59 34.1195   1
  -3  -7   4 971.629 28.2393   1
  -3  -7   9 702.262 27.8277   1
  -3  -7  10 121.707 21.3849   1
  -3  -6   1 1995.82 50.4568   1
  -3  -6   2 1473.11 37.1012   1
  -3  -6   3 1977.52  48.587   1
  -3  -6   4 1865.10  46.924   1
  -3  -6   9 263.251 19.1606   1
  -3  -6  10 225.757 21.5003   1
  -3  -6  11 274.294 23.5217   1
  -3  -5   1 1873.24  46.018   1
  -3  -5   3  800.86   22.36   1
  -3  -5   4 3092.61 72.8568   1
  -3  -5   5 726.218 22.1553   1
  -3  -5   6 1430.53 38.0812   1
  -3  -5   7  532.34 19.5329   1
  -3  -5   8 1096.72 32.6887   1
  -3  -5   9 367.503  19.636   1
  -3  -5  10 666.957  25.666   1
  -3  -5  11 198.017 20.4169   1
  -3  -5  12 233.203 26.2985   1
  -3  -4   1 2560.10 67.2521   1
  -3  -4   2 1387.61 36.0891   1
  -3  -4   4 2230.18 79.4377   1
  -3  -4   5 745.793 21.8209   1
  -3  -4   6 887.322   25.63   1
  -3  -4   7 670.373 21.8781   1
  -3  -4   8 818.875 25.9276   1
  -3  -4   9 639.112 19.9408   1
  -3  -4  10 333.266 18.5804   1
  -3  -4  11  311.00 20.9646   1
  -3  -4  12 279.956 24.1697   1
  -3  -3   1 3337.04 94.5953   1
  -3  -3   2 2067.21 55.6899   1
  -3  -3   3 5293.25 119.203   1
  -3  -3   4  863.95 20.9899   1
  -3  -3   5 4562.80 83.6919   1
  -3  -3   6 1295.26 29.5811   1
  -3  -3   7 2670.52 50.9379   1
  -3  -3   8 737.574 20.8943   1
  -3  -3   9 970.626 23.9355   1
  -3  -3  10 437.216 15.6866   1
  -3  -3  11 446.565 23.8094   1
  -3  -3  12 223.753 15.8326   1
  -3  -2   1 4609.42 135.454   1
  -3  -2   2 1692.41 46.9497   1
  -3  -2   3 3297.04 78.5475   1
  -3  -2   4 2471.90 57.1856   1
  -3  -2   5 1980.14 44.3221   1
  -3  -2   6 1462.56 32.8788   1
  -3  -2   7 710.144 19.9204   1
  -3  -2   8 877.167  21.475   1
  -3  -2   9 993.481 24.0291   1
  -3  -2  10 467.407 15.7906   1
  -3  -2  11 384.911 15.6587   1
  -3  -2  12  216.87 20.6911   1
  -3  -1   1 1969.21 57.8511   1
  -3  -1   2 5510.04 141.525   1
  -3  -1   3 2661.24 101.289   1
  -3  -1   4 4490.48 96.1614   1
  -3  -1   5 1440.84 32.6458   1
  -3  -1   6 2532.05  94.877   1
  -3  -1   7 431.038 12.7923   1
  -3  -1   8 1551.88 33.1804   1
  -3  -1   9 440.381 13.7418   1
  -3  -1  10 601.319 17.7707   1
  -3  -1  11 235.943 17.5441   1
  -3  -1  12 346.155 22.9981   1
  -3   0   1 2138.36  65.615   1
  -3   0   2 4583.70 107.328   1
  -3   0   3 627.326 16.5715   1
  -3   0   4 2390.67 53.9393   1
  -3   0   5 2237.97 49.0988   1
  -3   0   6 929.589 21.8157   1
  -3   0   7 1483.26 32.3466   1
  -3   0   8 1171.29 38.0441   1
  -3   0   9 954.029 22.9923   1
  -3   0  10 579.993 22.2558   1
  -3   0  11 190.951 16.7537   1
  -3   0  12  452.64 25.1769   1
  -3   1   0 2123.85 50.6933   1
  -3   1   1 5061.66 122.081   1
  -3   1   2 1488.65 42.8646   1
  -3   1   3 4226.19 91.9929   1
  -3   1   4 1629.18 36.9264   1
  -3   1   5 3770.10 76.5626   1
  -3   1   6 759.277  17.768   1
  -3   1   7 1858.24 47.0551   1
  -3   1   8 774.797 18.3491   1
  -3   1   9 998.721 30.0857   1
  -3   1  10 391.099 18.9403   1
  -3   1  11 708.447 26.2341   1
  -3   1  12 362.748 24.0768   1
  -3   2   0 4950.80 106.129   1
  -3   2   1 3962.44 87.4175   1
  -3   2   2 2489.00 56.1427   1
  -3   2   3 2244.95 50.0191   1
  -3   2   4 2780.96 58.0964   1
  -3   2   5 2741.59 113.876   1
  -3   2   6 1190.05 32.8181   1
  -3   2   7 1113.62  30.403   1
  -3   2   8 822.203 29.4625   1
  -3   2   9 715.266 26.0281   1
  -3   2  10 383.133 19.1777   1
  -3   2  11 310.736 19.9395   1
  -3   2  12 99.9479  18.625   1
  -3   3   0 2552.57 55.7973   1
  -3   3   1 1368.02 38.3721   1
  -3   3   2 2784.44 68.3593   1
  -3   3   3  896.10 20.6132   1
  -3   3   4 3823.53 76.2294   1
  -3   3   5 313.186 11.7265   1
  -3   3   6 1354.20 39.8032   1
  -3   3   7 609.915 15.7496   1
  -3   3   8 1122.81 27.1578   1
  -3   3   9 552.576 20.1806   1
  -3   3  10 527.127 21.8361   1
  -3   3  11 219.992 19.7008   1
  -3   3  12 360.414 24.1887   1
  -3   4   0 2034.32 50.0965   1
  -3   4   1 2658.50 67.6327   1
  -3   4   2 1229.14  31.528   1
  -3   4   3 1516.28 33.0918   1
  -3   4   4 1218.17 26.9454   1
  -3   4   5 1006.57 23.0535   1
  -3   4   6 1389.93 33.5119   1
  -3   4   7 621.156 22.1257   1
  -3   4   8 609.617 19.7714   1
  -3   4   9 332.413 24.4208   1
  -3   4  10 459.526 21.4621   1
  -3   4  11 180.643 17.5359   1
  -3   5   0 698.531 17.0766   1
  -3   5   1 2288.50 49.5313   1
  -3   5   2 558.739 15.9637   1
  -3   5   3 1698.53 36.1141   1
  -3   5   4 884.588 32.7782   1
  -3   5   5 1475.24 31.2516   1
  -3   5   6 620.903 21.7257   1
  -3   5   7  953.68  22.897   1
  -3   5   8 376.823 13.3167   1
  -3   5   9  815.07  39.161   1
  -3   5  10 274.634 18.6945   1
  -3   5  11 305.918 23.6186   1
  -3   6   0 1072.54 29.7008   1
  -3   6   1 1134.77 25.3776   1
  -3   6   2 1073.81 29.9287   1
  -3   6   3 1190.33 28.1733   1
  -3   6   4 930.148 21.8793   1
  -3   6   5 964.903 22.7998   1
  -3   6   6 728.695 19.3422   1
  -3   6   7 469.962 41.9029   1
  -3   6   8 301.308 12.7702   1
  -3   6   9 528.011 18.1047   1
  -3   6  10  194.44 20.3852   1
  -3   7   0 1842.37 36.5287   1
  -3   7   1 344.362 11.5131   1
  -3   7   2 1276.09 35.2619   1
  -3   7   3 359.567 20.3891   1
  -3   7   4 584.983 20.2496   1
  -3   7   5 483.199 14.6991   1
  -3   7   6 424.699 14.3641   1
  -3   7   7 160.135 10.2225   1
  -3   7   8  507.38 17.9053   1
  -3   7   9 171.827 15.2958   1
  -3   7  10 205.859 26.0227   1
  -3   8   0 439.778 18.5273   1
  -3   8   1 613.887 21.7036   1
  -3   8   2 462.664 19.2374   1
  -3   8   3 499.895 20.1788   1
  -3   8   4  438.55 20.0545   1
  -3   8   5 462.951 21.0844   1
  -3   8   6 517.635 22.9676   1
  -3   8   7 199.924 18.7438   1
  -3   8   8 407.183 24.2201   1
  -3   9   0 268.858 18.1501   1
  -3   9   1 646.225 24.5224   1
  -3   9   2 101.086 14.2865   1
  -3   9   3 335.125 20.0635   1
  -3   9   4  183.60 17.0142   1
  -3   9   5 520.179 24.6844   1
  -3   9   6 186.004 19.1003   1
  -3  10   0 312.658  21.893   1
  -3  10   1 291.838 21.7473   1
  -3  10   2 433.853 24.5451   1
  -3  10   3 287.432 28.7985   1
  -2 -13   1 272.676   20.06   1
  -2 -12   1 516.312 20.9771   1
  -2 -12   3 491.575 23.4758   1
  -2 -12   4 238.893  22.607   1
  -2 -12   5 242.791 26.0838   1
  -2 -11   1 220.356 10.4584   1
  -2 -11   2 480.761 14.0552   1
  -2 -11   3 361.794 20.5772   1
  -2 -10   1 454.112 13.5089   1
  -2 -10   2 1016.45  26.814   1
  -2 -10   3 564.518 17.8824   1
  -2 -10   4  952.31 28.7826   1
  -2 -10   5 269.139  16.522   1
  -2 -10   6 543.286 22.6512   1
  -2 -10   7  421.72 22.5805   1
  -2 -10   8 448.373 28.0807   1
  -2  -9   1 1290.61  30.256   1
  -2  -9   3 1096.71 24.7451   1
  -2  -9   4 468.104 17.0979   1
  -2  -9   5 628.783 22.1409   1
  -2  -9   6 495.579 19.9293   1
  -2  -9   7 310.066 17.8472   1
  -2  -9   8 262.889 18.0534   1
  -2  -9   9 111.322 16.3344   1
  -2  -8   1 1584.54  39.771   1
  -2  -8   2 541.823 16.9382   1
  -2  -8   3 1273.30 35.0045   1
  -2  -8   4 977.612 27.5918   1
  -2  -8   5 1090.39 30.6708   1
  -2  -8   7 748.794 24.6631   1
  -2  -8   8 346.386 18.5104   1
  -2  -8   9 651.503  25.337   1
  -2  -8  10 126.212 16.9296   1
  -2  -7   2 1517.99 37.4918   1
  -2  -7   3 1104.57 29.0807   1
  -2  -7   4 1181.58 27.4401   1
  -2  -7   5 706.227 21.4293   1
  -2  -7   6 667.383 21.2325   1
  -2  -7   8 597.694 21.3744   1
  -2  -7   9 611.522 23.2744   1
  -2  -7  10 226.503 17.1628   1
  -2  -6   2 2621.83 60.9846   1
  -2  -6   3 1237.39 31.3982   1
  -2  -6   4 2017.30 41.9619   1
  -2  -6   5 1406.66 30.1348   1
  -2  -6   6 1265.75 33.5617   1
  -2  -6   7 598.763 19.6793   1
  -2  -6   9  320.29 16.5116   1
  -2  -6  10 428.773 20.0055   1
  -2  -6  11 140.264   16.52   1
  -2  -5   1 3955.19 91.1778   1
  -2  -5   2 1102.11 27.8172   1
  -2  -5   3 2604.19 60.5989   1
  -2  -5   4 2127.71 45.6739   1
  -2  -5   5 1145.52 29.7395   1
  -2  -5   6 1174.94 30.9493   1
  -2  -5   7 627.282 19.6292   1
  -2  -5   8 947.392 27.4127   1
  -2  -5   9 439.679 17.8734   1
  -2  -5  10  339.24 16.8631   1
  -2  -5  11 287.023 18.3907   1
  -2  -4   1 2660.92 75.1332   1
  -2  -4   2 228.296 7.98632   1
  -2  -4   3 2499.59 61.5295   1
  -2  -4   4 1106.52  27.979   1
  -2  -4   5 2377.71 56.1051   1
  -2  -4   6 383.433 13.1279   1
  -2  -4   7 1131.18  25.984   1
  -2  -4   8 569.385 15.7191   1
  -2  -4   9 954.962 28.8615   1
  -2  -4  10 306.063 12.7253   1
  -2  -4  11 574.952 44.9921   1
  -2  -4  13 329.448 34.9772   1
  -2  -3   1 1277.69 37.5012   1
  -2  -3   2 4200.72 125.259   1
  -2  -3   3 2291.33 61.6365   1
  -2  -3   4 2655.62 62.0648   1
  -2  -3   5 1575.82 36.4062   1
  -2  -3   6 645.164 18.5539   1
  -2  -3   7 2011.55 49.1697   1
  -2  -3   8  915.76  22.029   1
  -2  -3   9 763.626 19.6752   1
  -2  -3  10 349.236 25.0245   1
  -2  -3  11 377.534 21.2067   1
  -2  -3  12  280.10 16.5351   1
  -2  -3  13 275.439 18.1577   1
  -2  -2   1 1298.80 40.2947   1
  -2  -2   2 2854.40  91.414   1
  -2  -2   3 1429.47 34.6298   1
  -2  -2   4 3590.59 90.4815   1
  -2  -2   5 1345.11 32.7146   1
  -2  -2   6 2983.81 61.5768   1
  -2  -2   7 663.415 16.6912   1
  -2  -2   8 1486.60 32.2115   1
  -2  -2   9 426.861 14.1457   1
  -2  -2  10  950.30 35.1694   1
  -2  -2  11  296.97 14.3178   1
  -2  -2  12 427.144 17.8364   1
  -2  -2  13 239.088 23.1797   1
  -2  -1   1 1691.87 59.2661   1
  -2  -1   2 4435.60 135.542   1
  -2  -1   3 1425.37 33.9825   1
  -2  -1   4 3245.25 76.6335   1
  -2  -1   5 1906.29 43.6523   1
  -2  -1   6 950.568 25.9642   1
  -2  -1   7 906.487 25.8024   1
  -2  -1   8 825.659 24.8227   1
  -2  -1   9 611.429  16.605   1
  -2  -1  10 561.181 17.2754   1
  -2  -1  11 153.407 10.9084   1
  -2  -1  12 301.925 21.0158   1
  -2  -1  13 137.432 22.0645   1
  -2   0   1 3312.76 86.8385   1
  -2   0   2 1375.77 34.7369   1
  -2   0   3 2834.68 70.4591   1
  -2   0   4 1138.36 26.9262   1
  -2   0   5 2048.57 58.6612   1
  -2   0   6 438.233 11.0361   1
  -2   0   7 1428.67 44.1387   1
  -2   0   8 283.841 9.26626   1
  -2   0   9 1370.27  33.669   1
  -2   0  10 257.984 12.3022   1
  -2   0  11 423.024 20.1651   1
  -2   0  12 238.811  20.111   1
  -2   0  13 295.804 24.1707   1
  -2   1   0 2095.15 51.9482   1
  -2   1   1 3817.09 96.9061   1
  -2   1   2 225.858  6.1177   1
  -2   1   3 2196.02 53.0221   1
  -2   1   4 1051.00  24.666   1
  -2   1   5 2111.57 85.4528   1
  -2   1   6 1115.93 25.2933   1
  -2   1   7 912.372 22.2584   1
  -2   1   8 1165.09 31.5279   1
  -2   1   9 953.889 22.5878   1
  -2   1  10 296.973 15.5601   1
  -2   1  11 428.071 20.6095   1
  -2   1  12 357.454 22.1584   1
  -2   1  13 418.649 25.9429   1
  -2   2   0 1737.67 47.5673   1
  -2   2   1 3580.32 127.161   1
  -2   2   2 2815.25 67.7231   1
  -2   2   3  221.82 5.98447   1
  -2   2   4 4001.81 93.9662   1
  -2   2   5 335.483 9.01706   1
  -2   2   6 2089.95 47.2455   1
  -2   2   7 278.534 7.61387   1
  -2   2   8 963.075 22.3544   1
  -2   2   9 365.658 15.5514   1
  -2   2  10  485.88 18.9039   1
  -2   2  11 267.734 17.4497   1
  -2   2  12 369.507 22.9727   1
  -2   3   0 2083.86 50.1058   1
  -2   3   1 1877.10 43.7048   1
  -2   3   2 799.554  24.619   1
  -2   3   3 1000.81 25.1468   1
  -2   3   4 2901.74 62.7711   1
  -2   3   5 1370.51 30.7303   1
  -2   3   6 1146.46 25.8579   1
  -2   3   7  392.40 10.8981   1
  -2   3   8 853.351 20.3437   1
  -2   3   9 551.554   15.21   1
  -2   3  10 370.272 17.7684   1
  -2   3  11 163.028 14.8613   1
  -2   3  12 197.942 18.8814   1
  -2   4   0 1343.58  37.057   1
  -2   4   1 1140.30 26.0041   1
  -2   4   2 314.431 8.79748   1
  -2   4   3 1778.46 39.2605   1
  -2   4   4 42.4688 3.50388   1
  -2   4   5 1129.36 25.5433   1
  -2   4   6 28.5846 4.84001   1
  -2   4   7 904.056 21.8615   1
  -2   4   8  341.62 18.4339   1
  -2   4   9 399.726  14.653   1
  -2   4  10 172.037 14.4714   1
  -2   4  11 281.268 19.5722   1
  -2   4  12 115.523 16.4791   1
  -2   5   0 842.218 20.8437   1
  -2   5   1 1162.50 26.0296   1
  -2   5   2 322.295 8.17055   1
  -2   5   3 1102.51 24.6239   1
  -2   5   4 556.965 14.0234   1
  -2   5   5 1145.36   25.68   1
  -2   5   6 650.676  16.435   1
  -2   5   7 471.995 26.3602   1
  -2   5   8 329.625 13.4795   1
  -2   5   9 375.058 13.0577   1
  -2   5  10 248.842 17.2098   1
  -2   5  11 316.494 20.5349   1
  -2   6   0 1655.61 35.5418   1
  -2   6   1 99.7262 4.95111   1
  -2   6   2 730.174 16.8937   1
  -2   6   3 237.261 7.66159   1
  -2   6   4 788.771 18.9237   1
  -2   6   5 263.102 8.90561   1
  -2   6   6 828.758 20.2503   1
  -2   6   7 183.209 8.59374   1
  -2   6   8 627.814 17.9348   1
  -2   6   9 165.594 14.8841   1
  -2   6  10 360.562 15.1717   1
  -2   6  11 91.7485 16.1384   1
  -2   7   0 501.569 14.3098   1
  -2   7   1 359.154 11.3221   1
  -2   7   2 874.105 38.4352   1
  -2   7   3 270.936 9.04003   1
  -2   7   4 559.974 14.9514   1
  -2   7   5 310.431 23.0109   1
  -2   7   6  294.61 13.6605   1
  -2   7   7 134.491 8.81292   1
  -2   7   8 169.594 10.5831   1
  -2   7   9 205.283 12.3642   1
  -2   7  10 305.285 15.7521   1
  -2   8   0 70.0215 5.98568   1
  -2   8   1 598.949 20.1542   1
  -2   8   2 92.1342 10.3508   1
  -2   8   3  422.25 16.6767   1
  -2   8   4 105.283 8.89431   1
  -2   8   5 457.886 14.5452   1
  -2   8   6  108.31 8.85463   1
  -2   8   7 315.849 13.5337   1
  -2   8   8 86.6683 10.6761   1
  -2   8   9 212.382 14.2308   1
  -2   8  10 47.3772 12.8532   1
  -2   9   0 96.0273 11.5505   1
  -2   9   1 222.686 14.3595   1
  -2   9   2 231.375 15.0203   1
  -2   9   3  68.738 11.2789   1
  -2   9   4 94.9124 12.8251   1
  -2   9   5 273.819  17.373   1
  -2   9   6 92.9958 14.2439   1
  -2   9   7 225.829  18.723   1
  -2   9   8 49.7971 9.07326   1
  -2   9   9  212.12 21.9473   1
  -2  10   0 352.529 19.3258   1
  -2  10   1 87.1733 12.1976   1
  -2  10   2 315.216 19.1379   1
  -2  10   3 54.5123 11.3441   1
  -2  10   4 456.796 23.2536   1
  -2  10   5 140.119 17.3534   1
  -2  10   6 155.593 21.5129   1
  -2  11   0  149.68 19.0073   1
  -2  11   1 102.145 17.5812   1
  -2  11   2 71.7689 18.3869   1
  -1 -13   1 178.833 18.7756   1
  -1 -12   1 101.769 15.9289   1
  -1 -12   2 63.2868 11.1528   1
  -1 -12   5 76.2101 20.3427   1
  -1 -11   1 86.4581 11.1526   1
  -1 -11   2 253.279 15.4785   1
  -1 -11   3  32.411  8.6008   1
  -1 -11   4 344.227 19.7196   1
  -1 -11   5 22.1111 11.3469   1
  -1 -11   6  135.78 19.3312   1
  -1 -10   1 215.972 7.72815   1
  -1 -10   2 96.6461 7.94579   1
  -1 -10   3 374.569 30.4268   1
  -1 -10   4 279.985 15.8566   1
  -1 -10   5  214.25 15.6641   1
  -1 -10   6  144.56 15.6819   1
  -1 -10   7 157.699 17.9281   1
  -1  -9   1 410.721 10.9493   1
  -1  -9   2 61.4253 4.99051   1
  -1  -9   3 607.897 22.6509   1
  -1  -9   4 62.1471 11.2063   1
  -1  -9   5 298.057 15.4311   1
  -1  -9   6 59.2843 9.95116   1
  -1  -9   7  403.24 20.1087   1
  -1  -9   8 115.911 15.5529   1
  -1  -8   1 562.309 14.8711   1
  -1  -8   2 450.243 12.0551   1
  -1  -8   3  408.63 13.9221   1
  -1  -8   4 460.944 12.7055   1
  -1  -8   5 175.147   10.82   1
  -1  -8   6 282.083 14.7362   1
  -1  -8   7  111.83 11.5946   1
  -1  -8   8 84.2448  13.277   1
  -1  -8   9 140.738  16.071   1
  -1  -7   1 111.852 6.63225   1
  -1  -7   2 387.847 20.4873   1
  -1  -7   3  152.70 7.90068   1
  -1  -7   4 549.147 13.8554   1
  -1  -7   5 187.409  6.7701   1
  -1  -7   6 387.978  14.873   1
  -1  -7   7 110.825 13.5319   1
  -1  -7   8 473.903 19.0176   1
  -1  -7   9 125.845 13.9644   1
  -1  -7  10 244.475 18.1631   1
  -1  -6   1 1107.72 27.4342   1
  -1  -6   2 900.048 23.3855   1
  -1  -6   3 742.732 17.5384   1
  -1  -6   4  418.13 10.7711   1
  -1  -6   5 486.954 12.2866   1
  -1  -6   6 280.904 11.9079   1
  -1  -6   7 318.644 13.4024   1
  -1  -6   8 397.314  18.141   1
  -1  -6   9 272.218 15.2625   1
  -1  -6  10 229.027  16.773   1
  -1  -6  11 73.7398 12.0246   1
  -1  -5   1 2302.11 56.9053   1
  -1  -5   2 154.217 6.63012   1
  -1  -5   3 1459.61 52.5637   1
  -1  -5   4 554.195 13.4387   1
  -1  -5   5 1250.16 27.6005   1
  -1  -5   6 225.433 9.89611   1
  -1  -5   7 523.579 17.2676   1
  -1  -5   8 252.276 12.0595   1
  -1  -5   9 367.547 15.9234   1
  -1  -5  10 31.3543 7.96224   1
  -1  -5  11 209.542 16.3436   1
  -1  -5  12 94.6781 17.2227   1
  -1  -4   1 313.578 9.48742   1
  -1  -4   2 2286.24 61.6249   1
  -1  -4   3   38.30 3.63521   1
  -1  -4   4 1099.63 25.6038   1
  -1  -4   5 916.695 24.1126   1
  -1  -4   6 162.411 7.92497   1
  -1  -4   7 729.969 18.1407   1
  -1  -4   8 284.275 9.88029   1
  -1  -4   9  454.26 14.0739   1
  -1  -4  10  185.07 11.7749   1
  -1  -4  11 240.418  19.732   1
  -1  -4  12 140.741 16.4876   1
  -1  -4  13 79.9406   14.81   1
  -1  -3   1 151.423  5.6892   1
  -1  -3   2 817.372 23.1303   1
  -1  -3   3 232.372 9.47698   1
  -1  -3   4 2707.41 64.3693   1
  -1  -3   5 195.605 12.5817   1
  -1  -3   6  312.89 9.16146   1
  -1  -3   7 81.9032 4.92667   1
  -1  -3   8 659.743 24.1151   1
  -1  -3   9 180.256 10.2984   1
  -1  -3  10 356.874 22.9184   1
  -1  -3  11 83.2675 9.28778   1
  -1  -3  12 287.889 17.7567   1
  -1  -3  13 128.231 14.2631   1
  -1  -2   1 2691.99 82.5869   1
  -1  -2   2 116.172 4.88421   1
  -1  -2   3 3365.20  91.775   1
  -1  -2   4 1230.40 38.7871   1
  -1  -2   5 952.098 23.2923   1
  -1  -2   6 1428.15 32.8548   1
  -1  -2   7 963.338 22.7515   1
  -1  -2   8 1427.39 31.2694   1
  -1  -2   9 264.759 9.58375   1
  -1  -2  10 431.725 15.1492   1
  -1  -2  11 204.967 10.7206   1
  -1  -2  12 271.177 13.9425   1
  -1  -2  13 137.353 20.7541   1
  -1  -1   2 46.4649 5.11054   1
  -1  -1   3 1520.97 40.5279   1
  -1  -1   4 1916.85 48.6961   1
  -1  -1   5 783.907 21.9788   1
  -1  -1   6 487.877 12.6174   1
  -1  -1   7 859.501 27.3318   1
  -1  -1   8 83.4385 4.91389   1
  -1  -1   9 935.293 22.2369   1
  -1  -1  10 158.082 8.29087   1
  -1  -1  11 414.814 14.4158   1
  -1  -1  12 105.285 10.2707   1
  -1  -1  13 223.929 21.8842   1
  -1   0   1 1297.61 32.0558   1
  -1   0   2 418.009 10.2409   1
  -1   0   3 3905.44  104.94   1
  -1   0   4 2410.79 59.0649   1
  -1   0   5 1375.95 32.0751   1
  -1   0   6 828.653 19.1818   1
  -1   0   7 693.103 16.1286   1
  -1   0   8 305.835 9.66986   1
  -1   0   9 647.092 16.6988   1
  -1   0  10 127.989 10.6628   1
  -1   0  11  297.29 16.8707   1
  -1   0  12 121.799 16.2376   1
  -1   0  13 204.353  22.121   1
  -1   1   0 4713.23 146.206   1
  -1   1   1 129.358 3.40498   1
  -1   1   2 2870.39 74.9854   1
  -1   1   3 206.486  5.1866   1
  -1   1   4 886.368 34.3728   1
  -1   1   5 444.527  13.508   1
  -1   1   6 991.574 31.4633   1
  -1   1   7 198.645 11.0871   1
  -1   1   8 1154.70 32.9363   1
  -1   1   9 391.823 15.4522   1
  -1   1  10 656.906 17.6012   1
  -1   1  11 73.5399 11.1555   1
  -1   1  12 289.116 20.1894   1
  -1   1  13 184.279 21.1074   1
  -1   2   0 1407.61 34.1778   1
  -1   2   1 1621.07 51.8887   1
  -1   2   2 1293.82  31.097   1
  -1   2   3 1310.75 31.4244   1
  -1   2   4 1805.00 42.3372   1
  -1   2   5 1191.52 27.3266   1
  -1   2   6 1317.75 29.9064   1
  -1   2   7 290.718 8.42507   1
  -1   2   8 1109.24  36.938   1
  -1   2   9 374.444 10.9406   1
  -1   2  10 396.141 17.5316   1
  -1   2  11 216.417 16.3611   1
  -1   2  12 492.032 23.9503   1
  -1   2  13 252.461 22.8228   1
  -1   3   0 4035.72 101.064   1
  -1   3   1 3584.38 92.3147   1
  -1   3   2 1395.97 33.0525   1
  -1   3   3 2582.32 67.0902   1
  -1   3   4 298.391  9.8927   1
  -1   3   5 4216.30 95.8195   1
  -1   3   6 397.516 13.4055   1
  -1   3   7 1019.45 27.8718   1
  -1   3   8 403.673 12.2475   1
  -1   3   9  630.56 16.2924   1
  -1   3  10 193.792  13.541   1
  -1   3  11 297.538 17.8374   1
  -1   3  12  57.988 13.2508   1
  -1   3  13  121.24 21.1087   1
  -1   4   0 1411.58 32.9052   1
  -1   4   1 1222.26 28.4494   1
  -1   4   2 517.984 14.6525   1
  -1   4   3 1113.12 26.2015   1
  -1   4   4 1117.21 27.9812   1
  -1   4   5 1528.86 37.6735   1
  -1   4   6  91.559 6.89728   1
  -1   4   7 490.667 16.5544   1
  -1   4   8 474.399 13.1207   1
  -1   4   9 678.436 26.4199   1
  -1   4  10 228.432 14.7283   1
  -1   4  11  278.18 17.9223   1
  -1   4  12 134.458 17.1955   1
  -1   5   0 1680.22 37.7334   1
  -1   5   1 1337.84 30.2703   1
  -1   5   2 1545.79 34.5997   1
  -1   5   3 309.294 8.56861   1
  -1   5   4 1743.33 37.8711   1
  -1   5   5  191.69 8.86412   1
  -1   5   6 1144.01   25.72   1
  -1   5   7 277.662  13.649   1
  -1   5   8 736.245 18.5862   1
  -1   5   9 125.046 7.86406   1
  -1   5  10 279.839 15.6301   1
  -1   5  11 123.784 15.7941   1
  -1   5  12 226.712 21.1549   1
  -1   6   0 1195.41 26.6986   1
  -1   6   1 542.948 12.8476   1
  -1   6   2 1365.57 30.0919   1
  -1   6   3 135.158 5.36064   1
  -1   6   4 1592.75 34.0122   1
  -1   6   5 547.414 22.0108   1
  -1   6   6 579.325 15.1357   1
  -1   6   7 536.178   14.80   1
  -1   6   8 433.448 13.5192   1
  -1   6   9 381.329 13.4827   1
  -1   6  10 492.394 16.7484   1
  -1   6  11 121.097 16.7067   1
  -1   7   0 584.293 14.1063   1
  -1   7   1 1177.91 26.0525   1
  -1   7   2 368.931 12.7635   1
  -1   7   3 1181.93 26.2584   1
  -1   7   4 538.249 14.1049   1
  -1   7   5 1105.76 25.0521   1
  -1   7   6 275.961  9.8206   1
  -1   7   7 818.244 20.6857   1
  -1   7   8  118.19 8.41984   1
  -1   7   9 428.864 15.5258   1
  -1   7  10 205.418 12.6258   1
  -1   7  11  166.21 20.1569   1
  -1   8   0 705.238 20.1015   1
  -1   8   1 937.052 21.5962   1
  -1   8   2 329.974 12.0311   1
  -1   8   3 828.273 19.9349   1
  -1   8   4 197.489 11.3011   1
  -1   8   5 548.945 18.2538   1
  -1   8   6 196.325 9.45107   1
  -1   8   7 223.063 10.8522   1
  -1   8   8 149.417 10.2337   1
  -1   8   9 322.333 14.6649   1
  -1   8  10 102.468 11.8634   1
  -1   9   0 456.258 16.9955   1
  -1   9   1 245.382 18.3571   1
  -1   9   2 605.259 20.6602   1
  -1   9   3 200.159 8.91486   1
  -1   9   4 646.498 17.7928   1
  -1   9   5 119.037 8.59005   1
  -1   9   6 658.072 19.2142   1
  -1   9   7 129.481 10.4673   1
  -1   9   8  317.66  20.545   1
  -1   9   9 146.362  14.235   1
  -1  10   0 468.722 19.7701   1
  -1  10   1 411.351 18.5342   1
  -1  10   2 278.793 16.5082   1
  -1  10   3 112.729  12.931   1
  -1  10   4 248.616 16.9747   1
  -1  10   5 197.025 16.2629   1
  -1  10   6 412.507 25.5574   1
  -1  10   7 55.5583 8.80014   1
  -1  10   8  243.05 20.8064   1
  -1  11   0  160.46 16.6812   1
  -1  11   1 436.122 22.2167   1
  -1  11   2 190.029 17.3733   1
  -1  11   3  481.18 23.4097   1
  -1  11   4 237.775 20.0567   1
  -1  11   5 450.309 26.6382   1
   0 -12   1 165.338 17.5002   1
   0 -12   2 330.601 21.0287   1
   0 -11   1 503.904 21.0343   1
   0 -11   2 299.954 18.3974   1
   0 -11   3  319.29 26.1862   1
   0 -11   4 328.912 20.4273   1
   0 -11   5 181.465 18.3188   1
   0 -10   1 475.665 17.1163   1
   0 -10   2 216.576 10.3638   1
   0 -10   3 678.563 39.6232   1
   0 -10   4 205.332 15.2896   1
   0 -10   5 701.001 25.2782   1
   0 -10   6 127.313 15.8313   1
   0 -10   7 399.692 23.2451   1
   0  -9   1 844.497 21.9984   1
   0  -9   2 688.538 17.6925   1
   0  -9   3 880.478 21.4888   1
   0  -9   4 887.561 27.5327   1
   0  -9   5 499.106 19.6305   1
   0  -9   6 374.783 18.8905   1
   0  -9   7  480.24 22.0787   1
   0  -9   8 446.547 23.9726   1
   0  -8   1 782.784 18.1999   1
   0  -8   2 1568.34 33.5019   1
   0  -8   3 718.438 27.7565   1
   0  -8   4 1341.01 28.9164   1
   0  -8   5 262.646 13.3514   1
   0  -8   6 824.792 25.6018   1
   0  -8   7  263.30 15.6695   1
   0  -8   8 465.678 21.9104   1
   0  -8   9 77.3329  15.153   1
   0  -7   1 1192.34 26.5234   1
   0  -7   2 1639.07 34.6982   1
   0  -7   3 935.118  21.537   1
   0  -7   4 1482.24 31.4048   1
   0  -7   5 1121.89   25.06   1
   0  -7   6 651.152 20.9707   1
   0  -7   7 821.732 25.5336   1
   0  -7   8 514.848  20.246   1
   0  -7   9 434.741 20.8358   1
   0  -7  10  388.86 22.0464   1
   0  -6   1 2162.45   58.65   1
   0  -6   2 788.641 18.7234   1
   0  -6   3 3009.20 58.6121   1
   0  -6   4 926.521 25.3051   1
   0  -6   5 1578.91 33.2208   1
   0  -6   6 460.991 16.0674   1
   0  -6   7 1111.24 30.9711   1
   0  -6   8 430.617 17.2034   1
   0  -6   9 798.902 25.7182   1
   0  -6  10 303.191 18.9488   1
   0  -6  11 385.442 22.6802   1
   0  -5   1 3456.05   76.54   1
   0  -5   2 3360.94 72.4213   1
   0  -5   3 2808.01 59.7186   1
   0  -5   4 2168.10 51.3525   1
   0  -5   5 2165.24 44.3788   1
   0  -5   6 1567.42 39.4729   1
   0  -5   7 1262.79 33.6278   1
   0  -5   8 1067.81 30.0979   1
   0  -5   9 893.262 27.2288   1
   0  -5  10 340.685 17.4959   1
   0  -5  11 323.307 19.2202   1
   0  -5  12 207.048 18.9937   1
   0  -4   1 3270.01 81.4201   1
   0  -4   2 5662.91 137.351   1
   0  -4   3 1706.83 39.9628   1
   0  -4   4 5438.31 135.841   1
   0  -4   5 1125.70 25.4895   1
   0  -4   6 2483.72 58.8358   1
   0  -4   7 808.736  22.945   1
   0  -4   8 1416.29 30.6328   1
   0  -4   9 666.418 20.8305   1
   0  -4  10 529.202 16.5512   1
   0  -4  11 266.493 16.8912   1
   0  -4  12 461.085 22.9147   1
   0  -3   1 7217.50 190.998   1
   0  -3   2 995.196 24.8962   1
   0  -3   3 3086.77 76.7212   1
   0  -3   4 2644.82 60.8939   1
   0  -3   5 2488.57 55.2017   1
   0  -3   6 2109.33 45.3313   1
   0  -3   7 742.498 21.0327   1
   0  -3   8 1456.46 31.5314   1
   0  -3   9 784.745 19.8367   1
   0  -3  10 735.348 23.1967   1
   0  -3  11 427.128 16.8617   1
   0  -3  12 508.365 18.8747   1
   0  -3  13 225.361 20.0111   1
   0  -2   2 2208.76 57.9245   1
   0  -2   3 7383.55 243.969   1
   0  -2   4 4273.03 114.635   1
   0  -2   5 4026.10  117.37   1
   0  -2   6 927.251 22.0874   1
   0  -2   7 2433.87 50.9529   1
   0  -2   8 1590.94 34.0475   1
   0  -2   9 1703.23 35.2867   1
   0  -2  10 419.759 13.5083   1
   0  -2  11 573.424 27.5239   1
   0  -2  12 318.431 14.7265   1
   0  -2  13 394.599 24.7466   1
   0  -1   2 4050.78 106.442   1
   0  -1   3 4521.58 123.281   1
   0  -1   4 5297.92 128.928   1
   0  -1   5 3653.78 83.8144   1
   0  -1   6 2874.25 62.7674   1
   0  -1   7 3012.63  65.203   1
   0  -1   8 1602.32 34.4202   1
   0  -1   9 1454.52 31.3363   1
   0  -1  10 667.669 17.7865   1
   0  -1  11 970.966 65.6564   1
   0  -1  12 424.964 16.3688   1
   0  -1  13 461.909 26.7999   1
   0   0   3 5157.55  158.48   1
   0   0   4 5352.27 140.106   1
   0   0   5 5031.26 113.804   1
   0   0   6 2379.79 53.6097   1
   0   0   7 1483.20 33.1776   1
   0   0   8 2431.45 48.3656   1
   0   0   9 600.379 20.5208   1
   0   0  10 1281.41 38.9266   1
   0   0  11 328.514 12.1067   1
   0   0  12  477.22 22.4532   1
   0   0  13  271.96 22.0524   1
   0   1   1 2601.16 86.3173   1
   0   1   2 3480.95 120.393   1
   0   1   3 7428.49 251.435   1
   0   1   4 4460.69 119.369   1
   0   1   5 3064.13 73.2894   1
   0   1   6 2457.97 56.0926   1
   0   1   7 1373.75 30.8771   1
   0   1   8 2062.36 42.3538   1
   0   1   9 762.738 18.5779   1
   0   1  10 1314.11 28.7528   1
   0   1  11 409.059 19.1761   1
   0   1  12 520.896  23.617   1
   0   1  13 286.407 23.3267   1
   0   2   0 3939.82 162.107   1
   0   2   110005.10  356.68   1
   0   2   2 1529.68 48.5519   1
   0   2   3 5853.19 187.444   1
   0   2   4 2606.56 65.6701   1
   0   2   5 4295.06 139.433   1
   0   2   6 2246.81 61.2172   1
   0   2   7 2562.83 63.3148   1
   0   2   8 1502.29 47.0193   1
   0   2   9 2192.70  43.382   1
   0   2  10 676.374 22.7572   1
   0   2  11 716.179 24.9927   1
   0   2  12 394.117 21.6999   1
   0   2  13 630.487 28.9762   1
   0   3   0 5044.18 136.576   1
   0   3   1 4638.79 124.167   1
   0   3   3 2476.91  70.573   1
   0   3   4 4585.78 108.668   1
   0   3   5 3423.57 78.9864   1
   0   3   6 1632.54 40.1778   1
   0   3   7 2889.91 68.2951   1
   0   3   8 775.506 23.1327   1
   0   3   9 1672.88 43.7396   1
   0   3  10 489.328  18.945   1
   0   3  11 664.917 24.0861   1
   0   3  12 428.008  22.338   1
   0   3  13 369.274 25.4733   1
   0   4   0 5545.57 133.643   1
   0   4   1 4126.15 99.4436   1
   0   4   2 5107.16 124.948   1
   0   4   3 1279.90 32.9548   1
   0   4   4 6045.08  135.11   1
   0   4   5 3188.51 73.6122   1
   0   4   6 3399.87 78.9184   1
   0   4   7 1199.43 31.8334   1
   0   4   8 1531.33  39.948   1
   0   4   9 1065.52 30.8519   1
   0   4  10 1002.46 30.6443   1
   0   4  11 263.866  17.059   1
   0   4  12 491.726 24.4385   1
   0   4  13 178.071 20.5552   1
   0   5   0 3651.05 81.4055   1
   0   5   1 3056.64 80.1484   1
   0   5   2 2804.03 87.8391   1
   0   5   3 1882.81 44.3723   1
   0   5   4 2608.80 60.7847   1
   0   5   5 1154.11  29.748   1
   0   5   6 965.169 26.3861   1
   0   5   7 566.527 18.4696   1
   0   5   8 1542.96 40.6025   1
   0   5   9 662.781 22.4443   1
   0   5  10 655.772 23.4957   1
   0   5  11  251.11 18.5631   1
   0   5  12 449.706 23.7297   1
   0   6   0  964.81 22.0495   1
   0   6   1 4052.95 78.1967   1
   0   6   2 1251.12 27.9509   1
   0   6   3 2459.10 57.4365   1
   0   6   4 1687.42 41.2766   1
   0   6   5 2538.27 60.4276   1
   0   6   6 1290.77 33.9049   1
   0   6   7 1548.23 40.3301   1
   0   6   8 680.875 22.4192   1
   0   6   9 969.154 29.6632   1
   0   6  10 340.434 18.4456   1
   0   6  11  608.11 25.7554   1
   0   6  12 236.525 21.5926   1
   0   7   0 2436.56 50.7296   1
   0   7   1 2563.61 50.7113   1
   0   7   2 515.222 21.7912   1
   0   7   3 1950.67  46.829   1
   0   7   4 981.722   26.45   1
   0   7   5 1605.00 40.6594   1
   0   7   6 927.198 26.4075   1
   0   7   7 1018.95 29.4145   1
   0   7   8 736.136  27.347   1
   0   7   9  841.62 27.3895   1
   0   7  10 281.695 13.1585   1
   0   7  11 517.895 22.4157   1
   0   8   0 1911.15 39.8973   1
   0   8   1 1018.04 22.8682   1
   0   8   2 1657.56 34.4254   1
   0   8   3 1015.61 27.2401   1
   0   8   4 1714.96 42.9235   1
   0   8   5 593.711 19.2235   1
   0   8   6 1155.67 32.0649   1
   0   8   7  254.04 22.2561   1
   0   8   8 554.991 21.3145   1
   0   8   9 285.702 13.2879   1
   0   8  10 472.506 18.0243   1
   0   8  11 255.347 18.9091   1
   0   9   0 1044.74 23.5491   1
   0   9   1 687.414 17.4307   1
   0   9   2 871.592 24.2655   1
   0   9   3 514.102 18.0764   1
   0   9   4 966.964 57.8058   1
   0   9   5 441.331 13.8517   1
   0   9   6 771.174 24.6756   1
   0   9   7 296.611 29.1519   1
   0   9   8 526.414 18.0654   1
   0   9   9 254.288 13.9645   1
   0   9  10 247.046 15.1949   1
   0  10   0 436.545  17.666   1
   0  10   1 511.258 18.7033   1
   0  10   2 468.034 17.2981   1
   0  10   3 633.321 17.8603   1
   0  10   4 119.668 8.51411   1
   0  10   5 642.518 18.9231   1
   0  10   6 191.072  11.003   1
   0  10   7 494.367 20.9044   1
   0  10   8 199.237 13.6872   1
   0  10   9 281.683 22.6028   1
   0  11   0 448.919 20.3264   1
   0  11   1 561.397 22.0704   1
   0  11   2  319.70 17.9107   1
   0  11   3 470.579 21.2627   1
   0  11   4 295.813 18.1076   1
   0  11   5 801.409 26.7623   1
   0  11   6 266.764 14.3587   1
   0  11   7 268.241 20.8066   1
   0  12   0 270.324 19.5902   1
   0  12   1 193.745  18.226   1
   0  12   2 370.442 22.0545   1
   0  12   3 147.336 18.0096   1
   1 -12   1 214.118 28.5552   1
   1 -12   2 261.911 33.5644   1
   1 -11   1 308.487 19.3947   1
   1 -11   2 133.892 17.0701   1
   1 -11   3 286.025 20.6159   1
   1 -11   5 224.496 21.1255   1
   1 -10   1 232.149  15.652   1
   1 -10   2 415.191 14.8481   1
   1 -10   3 222.977 11.9954   1
   1 -10   4 267.899 17.5558   1
   1 -10   5 248.033 19.0495   1
   1 -10   6 121.528  18.475   1
   1  -9   1 231.679 9.45401   1
   1  -9   2 544.644 15.5998   1
   1  -9   3 228.703 12.1104   1
   1  -9   4 821.587 43.9064   1
   1  -9   5  256.54 16.2076   1
   1  -9   6 458.435 21.6752   1
   1  -9   7 138.554 16.9734   1
   1  -8   1 535.802 14.2616   1
   1  -8   2 561.908 16.6462   1
   1  -8   3 455.707  13.198   1
   1  -8   4 614.023 25.2606   1
   1  -8   5 307.774 11.2183   1
   1  -8   6 247.569 15.2954   1
   1  -8   7 352.819 18.5512   1
   1  -8   8  463.32 22.7686   1
   1  -8   9 162.293 19.2673   1
   1  -7   1 1771.33 37.4869   1
   1  -7   2 522.529 12.6819   1
   1  -7   3 1319.26 28.6655   1
   1  -7   4 493.449 13.6285   1
   1  -7   5 785.269 24.8039   1
   1  -7   7 668.753 22.5493   1
   1  -7   8 115.156 13.3165   1
   1  -7   9 263.964 18.3258   1
   1  -7  10 80.8803 16.6185   1
   1  -6   1 620.185 14.7254   1
   1  -6   2 42.8821 3.88351   1
   1  -6   3 958.141  23.582   1
   1  -6   4 518.261 14.5508   1
   1  -6   5 635.267 19.5459   1
   1  -6   6 470.184 18.2738   1
   1  -6   7 421.916 18.9019   1
   1  -6   8 414.679 17.5306   1
   1  -6   9 391.228 19.2712   1
   1  -6  10 235.832 17.7952   1
   1  -6  11 303.638 28.9153   1
   1  -5   1 754.324 17.5814   1
   1  -5   2 2212.04 86.4984   1
   1  -5   3 836.271 29.7708   1
   1  -5   4 2116.73  51.281   1
   1  -5   5 183.343 11.3216   1
   1  -5   6 1174.56  31.345   1
   1  -5   7 292.599 12.7316   1
   1  -5   8 781.447 28.1479   1
   1  -5   9 343.036   16.32   1
   1  -5  10 473.035  20.706   1
   1  -5  11 172.064 17.3536   1
   1  -4   1 1131.17 26.3022   1
   1  -4   2 1389.78 32.0104   1
   1  -4   3 1236.92 61.8849   1
   1  -4   4 1760.93 39.0461   1
   1  -4   5  898.60 22.8118   1
   1  -4   6 1164.72 30.4794   1
   1  -4   7  515.19  16.896   1
   1  -4   8 704.814 21.8204   1
   1  -4  10  252.72 15.5931   1
   1  -4  11  115.87 14.3643   1
   1  -4  12 276.161 19.7709   1
   1  -3   1 1562.07 37.6986   1
   1  -3   2 1239.19 29.3864   1
   1  -3   3 2905.48 108.328   1
   1  -3   4 77.6937 4.52345   1
   1  -3   5 2755.27 80.6031   1
   1  -3   6 205.919 11.6054   1
   1  -3   7 1213.91 33.3134   1
   1  -3   8  479.57 13.3162   1
   1  -3   9 666.332 18.0656   1
   1  -3  10 271.241 11.2533   1
   1  -3  11 372.616  17.008   1
   1  -3  12 218.963 17.5974   1
   1  -2   1 1583.05 42.3918   1
   1  -2   2 559.306 13.5877   1
   1  -2   3 1321.27 31.1424   1
   1  -2   4 1147.92 27.6701   1
   1  -2   5 1890.75 44.3731   1
   1  -2   6 321.919 9.01853   1
   1  -2   7 313.223 11.3309   1
   1  -2   8 413.193 22.6603   1
   1  -2   9  581.45 17.8699   1
   1  -2  10 240.495 10.0983   1
   1  -2  11  335.23 13.8614   1
   1  -2  12 160.983 12.5453   1
   1  -2  13 321.478 21.2493   1
   1  -1   1 108.872 4.73425   1
   1  -1   2 2387.03 61.6086   1
   1  -1   3 1086.99 26.5633   1
   1  -1   4 3291.02 82.5538   1
   1  -1   5 911.684 38.4469   1
   1  -1   6 1635.17 70.0393   1
   1  -1   7  766.95 33.0464   1
   1  -1   8 2393.25  47.056   1
   1  -1   9 526.593 21.1354   1
   1  -1  10 531.847  15.329   1
   1  -1  11  239.31 14.2381   1
   1  -1  12 399.843 15.8623   1
   1  -1  13  195.41 14.7696   1
   1   0   0 3442.59 669.443   1
   1   0   1 3823.98 195.036   1
   1   0   2 4038.07 118.866   1
   1   0   3 242.728 8.28314   1
   1   0   4 3012.86 78.2053   1
   1   0   5 1040.58 30.0576   1
   1   0   6  734.99 19.6139   1
   1   0   7 749.603 22.9383   1
   1   0   8 672.761 19.3686   1
   1   0   9 340.315  16.009   1
   1   0  10 577.562 15.8887   1
   1   0  11 217.687 10.4366   1
   1   0  12 425.726 22.5525   1
   1   0  13 156.604 20.3501   1
   1   0  14 237.297 30.8953   1
   1   1   0 1067.90 30.9607   1
   1   1   2 233.055 10.1734   1
   1   1   3 2925.50 112.092   1
   1   1   4 3303.50  86.504   1
   1   1   5 2235.52 53.6691   1
   1   1   6 527.675   13.20   1
   1   1   7 1418.70 31.7616   1
   1   1   8 308.733 9.07029   1
   1   1   9 749.304 18.3302   1
   1   1  10 173.498 7.79987   1
   1   1  11 329.269 13.6305   1
   1   1  12 158.505 15.3886   1
   1   1  13 224.819 19.8222   1
   1   2   0 1171.86 32.6822   1
   1   2   1 650.244 16.5172   1
   1   2   2 1400.40 38.1498   1
   1   2   3 419.132  20.021   1
   1   2   4 1375.09 39.5921   1
   1   2   5 558.863 17.4138   1
   1   2   6 198.086 6.08824   1
   1   2   7 1174.52 26.5954   1
   1   2   8 250.788  7.8064   1
   1   2   9 987.524 22.7401   1
   1   2  10 353.424 11.1988   1
   1   2  11 364.725 17.9251   1
   1   2  12 122.281 15.1626   1
   1   2  13 220.723 20.9776   1
   1   3   0 3019.12 104.084   1
   1   3   1 54.9469 2.14479   1
   1   3   2 1884.02 50.5416   1
   1   3   3 269.139 9.62206   1
   1   3   4 2912.80  107.81   1
   1   3   5 453.278  11.284   1
   1   3   6 1350.06  31.714   1
   1   3   7 429.294 11.0645   1
   1   3   8  846.73 19.7437   1
   1   3   9 480.876 13.0018   1
   1   3  10 484.922 18.6588   1
   1   3  11 160.897  13.582   1
   1   3  12 431.685 22.3803   1
   1   3  13 296.206 22.5194   1
   1   4   0 2973.34 87.5964   1
   1   4   1 2805.38  87.547   1
   1   4   2 996.563 27.1915   1
   1   4   3 2406.29  63.659   1
   1   4   4  587.83 16.4426   1
   1   4   5 1054.62 27.1371   1
   1   4   6 1951.05 47.2743   1
   1   4   7 263.785 11.0695   1
   1   4   8 1036.18 28.9829   1
   1   4   9 228.469 12.1599   1
   1   4  11 114.341 13.7844   1
   1   4  12  167.98 17.5378   1
   1   4  13 65.8597 14.9672   1
   1   5   0 123.197 5.12342   1
   1   5   1 2249.31 57.0846   1
   1   5   2 29.8494 1.82384   1
   1   5   3 1148.50  28.788   1
   1   5   4 438.698 13.5825   1
   1   5   5 1211.00 30.9848   1
   1   5   6 356.676 12.9701   1
   1   5   7 120.482 8.09693   1
   1   5   8 239.446 11.8063   1
   1   5   9 750.391 24.1664   1
   1   5  10 192.725 13.8512   1
   1   5  11 309.001 18.6989   1
   1   5  12 121.112 18.0748   1
   1   6   0 530.708 13.1377   1
   1   6   1 1115.39 27.8572   1
   1   6   2 487.072 12.0314   1
   1   6   3 709.131 19.4218   1
   1   6   4 426.938  13.797   1
   1   6   5  544.66 16.8647   1
   1   6   6 232.868  10.691   1
   1   6   7 466.163 16.7094   1
   1   6   8 271.591 12.9028   1
   1   6   9 480.789 19.3207   1
   1   6  10 40.0429 8.90931   1
   1   6  11 243.376  18.359   1
   1   6  12 94.7055 18.4139   1
   1   7   0 1205.54 31.3063   1
   1   7   1 79.8085 5.94126   1
   1   7   2 990.018 22.4669   1
   1   7   3 74.5705 6.09943   1
   1   7   4 548.788 17.0112   1
   1   7   5 503.275 16.4938   1
   1   7   6 351.489 13.7812   1
   1   7   7 231.835 11.9533   1
   1   7   8 510.879 19.8615   1
   1   7   9 193.663 14.4904   1
   1   7  10 386.282  20.126   1
   1   7  11  97.196 15.9883   1
   1   8   0 884.429 20.4608   1
   1   8   1 346.731 14.1173   1
   1   8   2 399.425 10.5438   1
   1   8   3 211.082 9.78245   1
   1   8   4 702.965 21.0575   1
   1   8   5  442.52  15.778   1
   1   8   6 422.341 16.0906   1
   1   8   7 207.687 12.7115   1
   1   8   8  467.09 19.2016   1
   1   8   9 76.4901 11.3843   1
   1   8  10 308.763 19.9104   1
   1   8  11 79.0365 14.6003   1
   1   9   0 235.567 15.2303   1
   1   9   1 613.378 18.5855   1
   1   9   2 141.544 8.53098   1
   1   9   3 475.633 16.4164   1
   1   9   4 133.857 9.33252   1
   1   9   5 415.674   16.25   1
   1   9   6 59.2517 9.79401   1
   1   9   7 177.766 13.9977   1
   1   9   8 78.8079 12.5733   1
   1   9   9  185.32 17.5189   1
   1   9  10 144.024 18.4494   1
   1  10   0 138.819 6.63673   1
   1  10   1 165.012 8.07068   1
   1  10   3 268.137 13.0792   1
   1  10   4 155.614 12.1866   1
   1  10   5 303.447 15.7558   1
   1  10   6 79.5961 12.7314   1
   1  10   7 272.802 17.4087   1
   1  10   8 72.5591 13.9189   1
   1  10   9 225.313 20.3067   1
   1  11   0 249.509 14.1594   1
   1  11   1 182.801 9.75209   1
   1  11   2 237.348 10.9514   1
   1  11   3 46.7037 7.05842   1
   1  11   4 138.615 10.2264   1
   1  11   5 48.6272 17.6288   1
   1  11   6 263.378 14.5445   1
   1  11   7 96.7428 31.8897   1
   1  11   8 76.2391 14.7448   1
   1  12   0 149.943 15.6466   1
   1  12   1 96.5792  14.753   1
   1  12   2 245.743  17.516   1
   1  12   3 84.1302 13.4317   1
   1  12   4 351.894 16.7313   1
   1  12   5 139.156 12.3491   1
   1  12   6 199.846 19.1359   1
   1  13   0 53.3403 13.3697   1
   2 -11   1 38.0527 12.7195   1
   2 -11   2 134.791 19.5155   1
   2 -11   3 59.2612 16.1021   1
   2 -10   1 88.3589 12.7521   1
   2 -10   2 283.685 18.9069   1
   2 -10   3 68.8798 13.0583   1
   2 -10   4 164.481 18.3426   1
   2 -10   5 27.0532 12.1368   1
   2  -9   1 175.167 13.3918   1
   2  -9   2 63.2792 16.7934   1
   2  -9   3 204.812 13.9777   1
   2  -9   4 118.693 10.3121   1
   2  -9   5 130.398 15.4657   1
   2  -9   6 163.424 17.8051   1
   2  -9   7 61.1675 12.7727   1
   2  -8   1  641.42  17.009   1
   2  -8   2 93.6569 6.93572   1
   2  -8   3 439.163  20.781   1
   2  -8   4  233.13 14.4561   1
   2  -8   5 351.671 17.2722   1
   2  -8   6  87.707 13.2428   1
   2  -8   7 232.388 17.4753   1
   2  -8   8 138.423 18.7269   1
   2  -7   1 430.106 12.1233   1
   2  -7   2 269.253 10.0763   1
   2  -7   3 502.664 28.0325   1
   2  -7   4 321.823 13.6941   1
   2  -7   5 217.673 9.55606   1
   2  -7   6 111.325 12.1467   1
   2  -7   7 210.008  15.217   1
   2  -7   8 156.726 15.5966   1
   2  -7   9 123.708  17.535   1
   2  -6   1 225.162 7.44121   1
   2  -6   2 811.253 19.3497   1
   2  -6   3 146.258 6.79102   1
   2  -6   4 617.539 15.9879   1
   2  -6   5  231.76 8.66498   1
   2  -6   6 434.577 16.7199   1
   2  -6   7  156.59  12.178   1
   2  -6   8 437.125 19.3673   1
   2  -6   9 78.7893 14.0916   1
   2  -6  10 216.409 19.1888   1
   2  -5   1 214.345 7.18835   1
   2  -5   2 278.057 8.22954   1
   2  -5   3 418.453 11.3076   1
   2  -5   4 804.372 22.6306   1
   2  -5   5 247.477  8.2404   1
   2  -5   6  265.49 12.3218   1
   2  -5   7 173.064   10.99   1
   2  -5   8 362.204 16.2521   1
   2  -5   9 122.757 12.9134   1
   2  -5  10 233.121 17.4522   1
   2  -5  11 103.794 18.0303   1
   2  -4   1  896.02 25.2088   1
   2  -4   2 666.905 60.3489   1
   2  -4   3 1989.16 194.412   1
   2  -4   4 227.808 7.78897   1
   2  -4   5 1431.22  39.527   1
   2  -4   6 196.051 9.98886   1
   2  -4   7 967.329 27.7064   1
   2  -4   8 298.321 13.7445   1
   2  -4   9 464.786 18.4976   1
   2  -4  10 171.792 14.2632   1
   2  -4  11 196.159 16.5047   1
   2  -4  12 79.4937 15.3181   1
   2  -3   1 1134.65  27.352   1
   2  -3   2 1197.81 28.5739   1
   2  -3   3 1696.10 40.6237   1
   2  -3   4  902.97 21.3986   1
   2  -3   5 1157.27 29.8278   1
   2  -3   6  329.67 13.4115   1
   2  -3   7 743.147 18.0047   1
   2  -3   8 314.234 10.2981   1
   2  -3   9 459.105 17.9367   1
   2  -3  10 146.409 13.1859   1
   2  -3  11 180.319 15.5435   1
   2  -3  12 153.239 18.2275   1
   2  -2   1 1570.86   39.54   1
   2  -2   2 1457.55 36.0227   1
   2  -2   3 158.388 6.94896   1
   2  -2   4 1734.22 39.1124   1
   2  -2   5 148.024   7.077   1
   2  -2   6 1525.18 33.4277   1
   2  -2   7 169.665 6.46757   1
   2  -2   8 556.901 14.7172   1
   2  -2   9 256.405 9.54682   1
   2  -2  10 359.933 13.8669   1
   2  -2  11 155.966 13.9846   1
   2  -2  12 324.321 19.7073   1
   2  -2  13 102.603 17.9274   1
   2  -1   1 1103.63 28.7838   1
   2  -1   2 3639.63 146.527   1
   2  -1   3 398.905 9.60491   1
   2  -1   4 4035.52 91.6552   1
   2  -1   5 869.557 22.2288   1
   2  -1   6 743.835 17.8769   1
   2  -1   7 437.597 11.7376   1
   2  -1   8 758.628 18.5032   1
   2  -1   9 689.387 17.6648   1
   2  -1  10 441.455 14.0015   1
   2  -1  11 92.9886 8.87979   1
   2  -1  12 340.447 19.4918   1
   2  -1  13 106.523 16.5944   1
   2   0   0 63.9124 2.86042   1
   2   0   1 2295.36 77.4673   1
   2   0   2  607.88   15.56   1
   2   0   3 2169.48 53.5029   1
   2   0   4 1337.81 32.5148   1
   2   0   5 2222.08 51.2063   1
   2   0   6 473.231 12.8376   1
   2   0   7 1771.02 93.6089   1
   2   0   8 591.393 15.0732   1
   2   0   9 963.367 22.6046   1
   2   0  10 212.504 9.23612   1
   2   0  11 412.974 18.8379   1
   2   0  12 299.226 14.2569   1
   2   0  13 255.229 23.3557   1
   2   1   2 1105.06 29.0348   1
   2   1   3 4634.64 255.345   1
   2   1   4 1058.59 30.6583   1
   2   1   5 3097.24 70.7946   1
   2   1   6 886.245 20.9874   1
   2   1   7 858.063 20.2029   1
   2   1   8 728.952 17.7063   1
   2   1   9 661.662 23.8127   1
   2   1  10 223.665 12.5144   1
   2   1  11 414.082 13.9019   1
   2   1  12 121.111 17.1391   1
   2   1  13 226.277 21.6057   1
   2   1  14 118.907 24.6754   1
   2   2   0 3697.64 137.641   1
   2   2   1 617.151 19.1752   1
   2   2   2  931.74 28.0732   1
   2   2   3 1303.90 34.3345   1
   2   2   4 4224.73 193.925   1
   2   2   5 606.196 16.6946   1
   2   2   6 1657.96 75.4517   1
   2   2   7 224.898 7.07177   1
   2   2   8 1239.92 27.4898   1
   2   2   9 298.239 14.9352   1
   2   2  10 444.259 16.2259   1
   2   2  11 324.971 19.6034   1
   2   2  12 227.182 17.8548   1
   2   2  13 165.362 20.5997   1
   2   3   0 5049.31  171.66   1
   2   3   1 2759.82 89.1486   1
   2   3   2 910.119 23.3452   1
   2   3   3 1706.90 54.7555   1
   2   3   4 2025.22 82.5072   1
   2   3   5 840.736 32.1573   1
   2   3   6 1863.71 41.0763   1
   2   3   7 475.717 12.1844   1
   2   3   8 1441.69 31.0514   1
   2   3   9 607.842 15.6009   1
   2   3  10 758.475  24.651   1
   2   3  11 248.165 15.9859   1
   2   3  12 288.261  18.844   1
   2   3  13 203.758 20.5467   1
   2   4   0 2532.42 73.0873   1
   2   4   1 3060.99 88.4748   1
   2   4   2 1586.21 66.5103   1
   2   4   3 4011.42 94.6661   1
   2   4   4 1053.53 46.0957   1
   2   4   5 2426.04 109.269   1
   2   4   6 548.868 27.4808   1
   2   4   7 1375.26 40.3525   1
   2   4   8  586.20  16.987   1
   2   4   9 744.474 23.5047   1
   2   4  10 309.434 15.5387   1
   2   4  11 324.743   18.40   1
   2   4  12 213.804 19.2871   1
   2   4  13 299.364 22.8841   1
   2   5   0 1974.69 50.4612   1
   2   5   1 2992.14 74.5089   1
   2   5   2 1980.44 75.3994   1
   2   5   3 1507.56 35.2084   1
   2   5   4 1302.22 62.9914   1
   2   5   5 2603.26 59.6869   1
   2   5   6 1320.48 66.2729   1
   2   5   7 1533.13 33.5106   1
   2   5   8 399.905 15.3187   1
   2   5   9 848.276  26.278   1
   2   5  10 414.731 17.8404   1
   2   5  11 371.268  19.623   1
   2   5  12 154.215 18.2691   1
   2   5  13 264.721 23.7915   1
   2   6   0 4770.92  107.20   1
   2   6   1 567.986 14.6579   1
   2   6   2 2947.13  81.718   1
   2   6   3 644.637 21.7172   1
   2   6   4 1546.00 65.9905   1
   2   6   5 909.687 24.9489   1
   2   6   6 437.103 15.1533   1
   2   6   7 219.273 11.0375   1
   2   6   8  677.75 22.2425   1
   2   6  10 532.169 21.2923   1
   2   6  11 105.679 14.7542   1
   2   6  12 224.941 20.4199   1
   2   7   0 1241.43 31.0273   1
   2   7   1 869.052 20.4586   1
   2   7   2 1927.19 49.5602   1
   2   7   3 815.168 19.9257   1
   2   7   4 1295.48 33.3308   1
   2   7   5 1025.15 28.0804   1
   2   7   6 1111.16 30.6024   1
   2   7   7 559.196 19.1768   1
   2   7   8 928.656 28.1078   1
   2   7   9 298.588  15.951   1
   2   7  10  495.98 22.1645   1
   2   7  11 126.111 16.8375   1
   2   7  12  336.41 24.9188   1
   2   8   0 702.034 17.1762   1
   2   8   1 2804.86 86.0076   1
   2   8   2 407.069 10.8829   1
   2   8   3 958.162 21.7973   1
   2   8   4 635.747 19.7823   1
   2   8   5 1000.12 28.2123   1
   2   8   6 569.117 19.4914   1
   2   8   7 628.377 21.3941   1
   2   8   8 527.799 19.8976   1
   2   8   9 654.201  24.108   1
   2   8  10 236.084 18.7789   1
   2   8  11 236.458 20.5489   1
   2   9   0 814.188 19.6324   1
   2   9   1 1294.28 28.1782   1
   2   9   2 750.945 46.2152   1
   2   9   3 902.633 25.8566   1
   2   9   4 1070.53 30.0917   1
   2   9   5 863.701 25.9981   1
   2   9   6  375.82 18.3394   1
   2   9   7 589.548 21.4475   1
   2   9   8 149.651 13.5435   1
   2   9   9 436.126 22.2071   1
   2   9  10 138.603 18.6185   1
   2  10   0 1140.51 33.6632   1
   2  10   1 568.435 19.1124   1
   2  10   2 758.268 23.2137   1
   2  10   3  301.81 13.8181   1
   2  10   4 892.641 27.0443   1
   2  10   5 381.206 16.8841   1
   2  10   6 509.444   20.77   1
   2  10   7 311.379 18.1246   1
   2  10   8 294.144 19.7189   1
   2  10   9 264.704 20.3822   1
   2  11   0 556.847 16.4912   1
   2  11   1 339.625 16.6131   1
   2  11   2  458.61 19.7372   1
   2  11   3 438.712 18.7802   1
   2  11   4 378.902 18.1067   1
   2  11   5 178.621 15.7454   1
   2  11   6  352.06  19.626   1
   2  11   7 167.909 18.1748   1
   2  11   8 333.499 22.3679   1
   2  12   0 335.814 14.0039   1
   2  12   1 632.222 19.4067   1
   2  12   2 279.147 37.4418   1
   2  12   3  442.08 21.2498   1
   2  12   4 248.537 17.8775   1
   2  12   6 423.592 23.8038   1
   2  12   7 237.282 22.2527   1
   2  13   0  221.19 19.6873   1
   2  13   1 293.463 20.9736   1
   2  13   2 141.285  16.935   1
   2  13   3 378.817 31.0595   1
   2  13   4 162.593 17.9087   1
   2  13   5 282.392 24.0144   1
   3 -10   1  264.38 21.7313   1
   3 -10   2 181.042 19.5507   1
   3 -10   3 319.404 23.2173   1
   3  -9   1 567.406 23.5913   1
   3  -9   2 201.792  17.653   1
   3  -9   3 490.458  19.843   1
   3  -9   4 145.339 12.7207   1
   3  -9   5  304.71 21.5308   1
   3  -8   1 333.164 12.5499   1
   3  -8   2 490.633 15.8713   1
   3  -8   3 410.236 14.9609   1
   3  -8   4 482.471 26.1749   1
   3  -8   5 474.944 17.1935   1
   3  -8   6 329.838 20.7186   1
   3  -8   7 300.618  22.628   1
   3  -7   1 238.846 9.37096   1
   3  -7   2 1196.37 39.7386   1
   3  -7   3 422.919 13.6827   1
   3  -7   4 702.961 25.7323   1
   3  -7   5 426.852 19.8817   1
   3  -7   6 370.876 19.4403   1
   3  -7   7 237.405 17.7306   1
   3  -7   8 531.035 25.4116   1
   3  -6   1 1199.69 26.7311   1
   3  -6   2 1407.90 39.3908   1
   3  -6   3 1108.13 25.3824   1
   3  -6   4 1045.93 26.9937   1
   3  -6   5 693.499 22.8711   1
   3  -6   6 583.344 21.2058   1
   3  -6   7 410.612 18.9655   1
   3  -6   8  494.68 22.5042   1
   3  -6   9 131.613 17.6041   1
   3  -5   1 2240.61 53.2188   1
   3  -5   2 226.823 23.6271   1
   3  -5   3 983.047 22.9274   1
   3  -5   4 620.469 28.5154   1
   3  -5   5 1066.91 29.7758   1
   3  -5   6  473.95 18.1112   1
   3  -5   7 769.288  24.717   1
   3  -5   8 389.138 18.4502   1
   3  -5   9 540.819 23.5971   1
   3  -5  10 191.854 19.0462   1
   3  -4   1 1581.80 34.8073   1
   3  -4   2 1889.96  42.808   1
   3  -4   3 1739.21 39.4009   1
   3  -4   4 2036.72 41.4798   1
   3  -4   5 1174.20 31.6893   1
   3  -4   6 556.659   18.90   1
   3  -4   7 1140.45 32.5306   1
   3  -4   8 455.348 18.1429   1
   3  -4   9 717.964 24.3334   1
   3  -4  10 290.526 18.6991   1
   3  -4  11 384.361 22.6164   1
   3  -3   1 1569.91 35.8206   1
   3  -3   2 2633.15 56.0547   1
   3  -3   3 1217.37 27.9833   1
   3  -3   4 3334.48 63.0481   1
   3  -3   5 883.415 24.8258   1
   3  -3   6 1806.79  45.384   1
   3  -3   7 880.091 25.9429   1
   3  -3   8 1009.24  29.815   1
   3  -3   9 507.782 19.7954   1
   3  -3  10 480.419 20.5924   1
   3  -3  11 144.556 16.5229   1
   3  -3  12 264.368 24.4226   1
   3  -2   1 3159.45 71.8469   1
   3  -2   2 2798.94 62.9393   1
   3  -2   3 2585.78 56.8996   1
   3  -2   4 2214.68 52.7327   1
   3  -2   5 1068.23 28.3109   1
   3  -2   6 1674.21 58.8603   1
   3  -2   7 887.303 20.8388   1
   3  -2   8 1288.46 34.8949   1
   3  -2   9 583.222 25.3746   1
   3  -2  10 626.401 21.8833   1
   3  -2  11 265.862 17.5688   1
   3  -2  12 400.819 21.9644   1
   3  -1   1 3832.15 92.1905   1
   3  -1   2 1380.46  33.629   1
   3  -1   3 3318.68  76.108   1
   3  -1   4 1458.70 33.1916   1
   3  -1   5 2765.89 57.0223   1
   3  -1   6 1130.65 31.6477   1
   3  -1   7 1025.76 23.4394   1
   3  -1   8 448.111 17.2504   1
   3  -1   9 868.964 21.2536   1
   3  -1  10 397.459 17.5462   1
   3  -1  11 464.067 20.3064   1
   3  -1  12 229.001 17.6314   1
   3  -1  13 279.177 21.0568   1
   3   0   0 4159.15 186.809   1
   3   0   1 3645.78 150.526   1
   3   0   2 753.102 18.5764   1
   3   0   3 5365.67 115.744   1
   3   0   4 1816.80 44.6904   1
   3   0   5 3343.28 68.9311   1
   3   0   6 1607.42 35.1739   1
   3   0   7 1568.68 33.6629   1
   3   0   8 1742.55  35.915   1
   3   0   9 1683.38 35.5134   1
   3   0  10 480.477 26.7773   1
   3   0  11 598.275 18.2046   1
   3   0  12 265.719 18.1003   1
   3   0  13 379.996 21.5729   1
   3   1   0 5177.10 156.594   1
   3   1   1 3886.47  118.83   1
   3   1   2 5454.96 133.633   1
   3   1   3 2660.59 64.9316   1
   3   1   4 3355.19  76.129   1
   3   1   5 1659.71 37.8421   1
   3   1   6 2473.66  51.648   1
   3   1   7  749.02   18.02   1
   3   1   8 1705.18 35.4705   1
   3   1   9 622.358 16.3097   1
   3   1  10  650.94 24.7047   1
   3   1  11 415.237 14.4426   1
   3   1  12 451.924 21.4645   1
   3   2   0 5781.37 168.837   1
   3   2   1 4691.41  142.06   1
   3   2   2 3769.90 96.9484   1
   3   2   3 1162.28 28.5537   1
   3   2   4 5138.12 130.114   1
   3   2   5 2638.53 109.433   1
   3   2   6 2348.36 57.4142   1
   3   2   7 1132.92  25.598   1
   3   2   8 1605.13 33.8148   1
   3   2   9 660.724 16.8871   1
   3   2  10  668.69 17.7943   1
   3   2  11 238.625 26.7201   1
   3   2  12 437.393 22.0493   1
   3   2  13 191.774 21.0967   1
   3   3   0 4444.34 127.918   1
   3   3   1 2071.24 59.7429   1
   3   3   2 2629.63 73.7877   1
   3   3   3 2762.73 77.5763   1
   3   3   4 1282.39 38.3938   1
   3   3   5 3357.92 75.7816   1
   3   3   6  297.01 11.4142   1
   3   3   7 1889.00 39.6319   1
   3   3   8 789.485 18.9174   1
   3   3   9 965.219 24.7586   1
   3   3  10 722.395 18.6918   1
   3   3  11 507.345 21.3087   1
   3   3  12 342.698 24.5931   1
   3   3  13 220.159 21.4254   1
   3   4   0 2562.34 69.0564   1
   3   4   1 2746.29  73.565   1
   3   4   2 1531.40 37.3812   1
   3   4   3 2502.42 64.7238   1
   3   4   4 1739.72 40.1411   1
   3   4   5 3216.60 65.9919   1
   3   4   6 725.812 22.1227   1
   3   4   7 1854.35 39.0841   1
   3   4   8 840.963  20.639   1
   3   4   9 1054.09 24.1072   1
   3   4  10 557.251 20.4079   1
   3   4  11 460.736 20.8737   1
   3   4  12 272.722  20.204   1
   3   4  13  476.21 27.1646   1
   3   5   0 3723.32 84.8893   1
   3   5   1 2848.01  67.925   1
   3   5   2 3485.66 101.933   1
   3   5   3 2128.67 48.3462   1
   3   5   4 2860.02   60.51   1
   3   5   5 1061.34 37.4672   1
   3   5   6 2303.14 81.0545   1
   3   5   7 1156.72 25.7152   1
   3   5   8 1381.56 29.7889   1
   3   5   9 613.833 21.2798   1
   3   5  10 604.982 22.1976   1
   3   5  11  290.05 18.1817   1
   3   5  12 274.235 21.3079   1
   3   5  13  160.01 22.9892   1
   3   6   0 2652.33 62.0102   1
   3   6   1 1415.44 34.8657   1
   3   6   2 2043.47 54.9177   1
   3   6   3 580.737 37.4248   1
   3   6   4 2134.66 45.1441   1
   3   6   5 906.221 20.9491   1
   3   6   6 1732.93 86.9703   1
   3   6   7 406.602 15.3642   1
   3   6   8 556.921 19.5973   1
   3   6  10 655.931 23.7788   1
   3   6  11 243.269 18.2037   1
   3   6  12 355.485 23.5918   1
   3   7   0 1130.88 30.0115   1
   3   7   1 2441.39 57.4652   1
   3   7   2 822.902 30.9484   1
   3   7   3 1752.20 46.1312   1
   3   7   4 1015.09 23.1888   1
   3   7   5 1078.73 30.7274   1
   3   7   6  611.74 19.6852   1
   3   7   7 766.146 23.7545   1
   3   7   8 433.442 17.6544   1
   3   7   9 844.508 27.5264   1
   3   7  10 232.258  16.928   1
   3   7  11 181.942 18.0209   1
   3   7  12 171.993  20.615   1
   3   8   0 342.404 12.7542   1
   3   8   1 1323.48 29.3441   1
   3   8   2 668.191 16.5786   1
   3   8   3 1061.73 24.1016   1
   3   8   4 469.022 16.0052   1
   3   8   5 1098.18 30.5897   1
   3   8   6 545.393 18.9931   1
   3   8   7 665.303 22.9963   1
   3   8   8 338.588 16.6516   1
   3   8   9 729.232 25.4834   1
   3   8  10  252.46 18.4919   1
   3   8  11 345.856 23.1047   1
   3   9   0 1548.91 32.8231   1
   3   9   1 759.245 18.6994   1
   3   9   2 1023.74 24.6936   1
   3   9   3 369.036 14.4332   1
   3   9   4 987.988 28.3374   1
   3   9   5 722.304  23.167   1
   3   9   6 692.115 30.4243   1
   3   9   7 368.586  17.061   1
   3   9   8 607.117  23.088   1
   3   9   9 284.853 19.4634   1
   3   9  10 242.844 19.9576   1
   3  10   0 887.402 21.6899   1
   3  10   1  542.69 37.8835   1
   3  10   2 675.722 21.6803   1
   3  10   3 462.643  17.218   1
   3  10   4 562.382 20.9406   1
   3  10   5 405.224 17.9018   1
   3  10   6 439.601 19.3639   1
   3  10   7 99.9684 13.4726   1
   3  10   8  396.15 21.3708   1
   3  10   9 108.207 18.5586   1
   3  11   0 245.827   15.04   1
   3  11   1 425.675 26.1367   1
   3  11   2 125.192 11.9192   1
   3  11   3 430.982 18.5504   1
   3  11   4  309.70 17.0007   1
   3  11   5 460.071 20.7296   1
   3  11   6 208.441 17.1919   1
   3  11   7 220.258 19.1507   1
   3  11   8 262.063 21.7007   1
   3  12   0 192.975 15.5591   1
   3  12   1 427.874 22.6281   1
   3  12   2 207.257 15.5231   1
   3  12   3 269.536 17.6179   1
   3  12   4 141.474 16.0402   1
   3  12   5 204.846 18.4069   1
   3  12   6 91.0784 16.6158   1
   3  12   7 262.595 23.4946   1
   3  13   0 318.781 15.3754   1
   3  13   1 113.994 18.3047   1
   3  13   2 269.973 20.2083   1
   3  13   3 131.841 18.6705   1
   3  13   4 264.535 21.6238   1
   3  13   5  279.30 25.4944   1
   4  -9   1 134.288 19.3353   1
   4  -9   2 158.158 20.2704   1
   4  -9   4 94.9687 16.8518   1
   4  -8   1 26.3214 9.20134   1
   4  -8   2 195.444 12.0122   1
   4  -8   3 47.3466 14.3887   1
   4  -8   4 188.351 13.4243   1
   4  -8   5 54.0098 10.1158   1
   4  -7   1 139.929 8.90438   1
   4  -7   2 253.636 20.7133   1
   4  -7   3 155.205 10.3377   1
   4  -7   4 292.342   15.67   1
   4  -7   5  170.46 12.8191   1
   4  -7   6  191.52 18.0707   1
   4  -7   7 124.639 19.0167   1
   4  -6   1 664.275 17.8492   1
   4  -6   2 73.6188  10.217   1
   4  -6   3 484.417 17.4772   1
   4  -6   4 205.682 11.3104   1
   4  -6   5  254.21 16.3217   1
   4  -6   6   77.40 12.7965   1
   4  -6   7 192.579 18.2123   1
   4  -6   8 82.6003 16.2533   1
   4  -5   1 458.423 14.8897   1
   4  -5   2 356.491 11.4449   1
   4  -5   3 249.038 9.77577   1
   4  -5   4 226.774 11.9558   1
   4  -5   5 234.933 16.8447   1
   4  -5   6 138.036 13.1406   1
   4  -5   7 303.721 18.3692   1
   4  -5   8 108.921 14.7367   1
   4  -5   9 195.458 18.8234   1
   4  -4   1 63.7026 7.14783   1
   4  -4   2 362.901 11.0132   1
   4  -4   3 39.1174  4.0645   1
   4  -4   4 638.152 16.8343   1
   4  -4   5 145.869 10.6615   1
   4  -4   7 73.6361 11.7382   1
   4  -4   8 283.301 18.0812   1
   4  -4   9 75.5367 13.9854   1
   4  -4  10 141.696 17.8569   1
   4  -3   1 384.584 14.6025   1
   4  -3   2 233.802 8.09886   1
   4  -3   3  835.27  26.247   1
   4  -3   4  435.41 15.6957   1
   4  -3   5  289.08  12.768   1
   4  -3   6 430.497 16.4591   1
   4  -3   7 168.679 17.2197   1
   4  -3   8 590.929 21.6465   1
   4  -3   9 150.502 15.3256   1
   4  -3  10 242.247 19.0475   1
   4  -3  11 86.8339 16.8704   1
   4  -2   1 1252.48 29.0425   1
   4  -2   2 78.0549 4.86961   1
   4  -2   3 1261.19 32.7204   1
   4  -2   4 285.239 11.7132   1
   4  -2   5 655.672 20.4575   1
   4  -2   6 206.388 11.1047   1
   4  -2   7 337.695 14.5381   1
   4  -2   8 208.021 16.9065   1
   4  -2   9 298.544 16.6658   1
   4  -2  10 88.3099   13.00   1
   4  -2  11 144.922  16.193   1
   4  -1   1 649.185 16.7541   1
   4  -1   2  251.18 10.6848   1
   4  -1   3 489.586 15.8754   1
   4  -1   4 173.774 8.94902   1
   4  -1   5 300.683  12.072   1
   4  -1   6 179.937 10.2683   1
   4  -1   7 438.905 16.1331   1
   4  -1   8 100.783 9.98987   1
   4  -1   9 245.824 14.1427   1
   4  -1  10 83.7404 13.5557   1
   4  -1  11 200.279 17.8589   1
   4  -1  12 102.729 17.8005   1
   4   0   0 2238.61 55.3238   1
   4   0   2 1399.79 85.3751   1
   4   0   3 166.528 5.57243   1
   4   0   4 938.944 21.8301   1
   4   0   5 597.321 14.6502   1
   4   0   6 372.385 10.3257   1
   4   0   7 163.785  6.7244   1
   4   0   8  314.45 16.1267   1
   4   0   9 233.958 12.9946   1
   4   0  10 374.955 17.6939   1
   4   0  11 75.6019 12.4362   1
   4   0  12 146.464 16.5951   1
   4   0  13 95.1914 19.5974   1
   4   1   0 322.182 12.8524   1
   4   1   1 28.3755 5.41436   1
   4   1   2 562.456 17.5102   1
   4   1   3 130.523 9.07136   1
   4   1   4 813.746  19.452   1
   4   1   5 341.578 9.46692   1
   4   1   6 362.408 10.1775   1
   4   1   7 281.198 8.91331   1
   4   1   8 646.991 16.5699   1
   4   1   9 213.166 9.03388   1
   4   1  10 356.703 12.7862   1
   4   1  11 56.3845   15.25   1
   4   1  12 289.434 18.7248   1
   4   2   1 3178.45 79.5107   1
   4   2   2 1112.79 30.3349   1
   4   2   3 1019.52 46.3514   1
   4   2   4 286.828  8.3029   1
   4   2   5 1060.07 24.5329   1
   4   2   6  212.52 9.78202   1
   4   2   7 501.027 13.2296   1
   4   2   8 223.808 8.20554   1
   4   2   9 333.092 11.0504   1
   4   2  10 131.758 12.3159   1
   4   2  11 108.659 11.5933   1
   4   3   0 447.243 14.8738   1
   4   3   1 518.261 17.0747   1
   4   3   2 47.5615 6.83873   1
   4   3   3 280.524 8.45385   1
   4   3   4 448.913 31.3804   1
   4   3   5 840.145 49.9642   1
   4   3   6 110.924 8.50826   1
   4   3   7 354.924 10.3208   1
   4   3   8  121.56 6.50159   1
   4   3   9 383.961 20.9747   1
   4   3  10 54.7913 5.79239   1
   4   3  11  231.37 17.1178   1
   4   3  12 90.1614 14.0014   1
   4   4   0 641.126 18.9527   1
   4   4   1 888.024 24.7545   1
   4   4   2 283.819  12.309   1
   4   4   3  102.35 5.80786   1
   4   4   4  846.52 33.9065   1
   4   4   5 72.5187 5.72743   1
   4   4   6 567.566 14.4243   1
   4   4   7 118.162 6.58684   1
   4   4   8 394.055  11.554   1
   4   4   9 320.007 10.7669   1
   4   4  10 254.455 16.7403   1
   4   4  11 189.258 16.7655   1
   4   4  12 143.603 19.0388   1
   4   4  13 77.3425 16.1519   1
   4   5   0 492.733  20.656   1
   4   5   1 403.636 13.9972   1
   4   5   2 570.931 18.0055   1
   4   5   3 243.467 8.04401   1
   4   5   4 1299.73 29.6568   1
   4   5   5  114.01 5.23702   1
   4   5   6 446.851 15.1978   1
   4   5   7 122.379 6.05102   1
   4   5   8 387.067 24.8186   1
   4   5   9 198.202 12.9176   1
   4   5  10  181.76 14.7584   1
   4   5  11 59.8291 11.0542   1
   4   5  12 198.546 20.2226   1
   4   6   0 426.927 14.8657   1
   4   6   1 873.038 28.9374   1
   4   6   2 271.781 11.5757   1
   4   6   3 509.916 13.5779   1
   4   6   4 217.754 7.56641   1
   4   6   5 528.649 18.8031   1
   4   6   6 367.351 10.6484   1
   4   6   7 631.527 20.3513   1
   4   6   8 191.823 11.9863   1
   4   6   9 269.273 15.3386   1
   4   6  10 155.046 14.7884   1
   4   6  11 157.211  17.387   1
   4   6  12 92.9238 18.5759   1
   4   7   0 790.082 22.8054   1
   4   7   1 738.007 21.5006   1
   4   7   2 84.8386 9.05245   1
   4   7   3  643.40 23.6266   1
   4   7   4  63.496  5.0076   1
   4   7   5 528.426 13.9871   1
   4   7   6 43.1341 5.68652   1
   4   7   7 79.2675 9.28858   1
   4   7   9 214.993 15.8171   1
   4   7  10 119.657 16.0615   1
   4   7  11 131.521 18.0429   1
   4   7  12 26.9804 17.3094   1
   4   8   0 300.112 12.3587   1
   4   8   1 46.6267 6.70301   1
   4   8   2 297.642 9.61158   1
   4   8   3 249.284 20.8747   1
   4   8   4 302.996 21.5254   1
   4   8   5 210.173 11.1057   1
   4   8   6 384.458 15.9296   1
   4   8   7 107.519 12.9146   1
   4   8   8 348.813 17.5928   1
   4   8   9 132.264  15.439   1
   4   8  10  126.79 16.1341   1
   4   8  11 97.7665 19.3965   1
   4   9   0 341.798  13.844   1
   4   9   1 258.408 9.26104   1
   4   9   2  452.60 15.1594   1
   4   9   3 63.0015 6.98339   1
   4   9   4 220.725 12.0705   1
   4   9   5  104.05 10.0706   1
   4   9   6 329.719 16.0771   1
   4   9   7 69.2384 11.5675   1
   4   9   8 290.297 18.1435   1
   4   9   9 145.826 17.0696   1
   4   9  10  193.26 19.4006   1
   4  10   0 231.851  9.8683   1
   4  10   1 320.612 11.1679   1
   4  10   2 178.318 8.29692   1
   4  10   3  250.67 14.5413   1
   4  10   4 206.384 13.0898   1
   4  10   5 392.336 17.5714   1
   4  10   6 98.9839 12.5307   1
   4  10   7 156.964 15.0653   1
   4  10   8 93.6221  16.118   1
   4  10   9  103.95 18.3329   1
   4  11   0 129.406 9.08538   1
   4  11   1 368.881 17.3373   1
   4  11   2 84.6541 11.5091   1
   4  11   3 144.736 13.5568   1
   4  11   4 119.154  13.057   1
   4  11   5 310.632 18.2014   1
   4  11   6 63.9599 11.7403   1
   4  11   7 165.923 18.5746   1
   4  11   8 58.8443 12.7419   1
   4  12   0 154.755 14.7445   1
   4  12   1 75.7764 13.6312   1
   4  12   2 108.175 13.0761   1
   4  12   3 53.1791 10.7865   1
   4  12   4 149.948 16.1142   1
   4  12   5 68.8809 13.3131   1
   4  12   6 40.3806  13.147   1
   4  12   7   65.53 17.8331   1
   4  13   0 205.843 19.3751   1
   4  13   1 134.428 16.4767   1
   4  13   2 198.273 18.8005   1
   4  13   3 59.9728 13.2956   1
   4  13   4  121.39 19.4588   1
   5  -8   1 120.041 18.5973   1
   5  -8   2 162.445 19.9053   1
   5  -8   3 73.1668 16.6466   1
   5  -8   4 149.405 21.4482   1
   5  -7   1 177.051  17.155   1
   5  -7   2 43.0098 19.8014   1
   5  -7   3 221.896 16.0197   1
   5  -7   4 81.8155 10.8064   1
   5  -7   5 183.199 18.8998   1
   5  -6   1 295.209 12.7426   1
   5  -6   2 107.362 9.90241   1
   5  -6   3 377.181 20.4179   1
   5  -6   4 121.123 14.9229   1
   5  -6   5 223.117 18.1561   1
   5  -6   6 111.067 19.2059   1
   5  -6   7 86.4985 14.7386   1
   5  -5   1 138.603 15.6974   1
   5  -5   2 614.505   25.01   1
   5  -5   3 313.327 15.1021   1
   5  -5   4 533.562 21.1769   1
   5  -5   5 149.168 14.9781   1
   5  -5   6  289.76 18.8852   1
   5  -5   7 87.7547 15.4159   1
   5  -5   8 223.627 20.2507   1
   5  -4   1 358.837 12.0062   1
   5  -4   2 295.603 17.5417   1
   5  -4   3 148.751 10.9419   1
   5  -4   4 216.231 13.8409   1
   5  -4   5 172.693 14.0341   1
   5  -4   6 293.751 17.5074   1
   5  -4   7 83.7969  14.315   1
   5  -4   8  280.12 19.6055   1
   5  -4   9  84.582 13.6958   1
   5  -3   1 828.858 20.4537   1
   5  -3   2 266.747 9.71551   1
   5  -3   3 838.513 25.4036   1
   5  -3   4 377.101 15.5596   1
   5  -3   5 727.327 23.6618   1
   5  -3   6 118.713 11.8523   1
   5  -3   7 347.131 18.3792   1
   5  -3   8 189.788 16.7087   1
   5  -3   9 237.494 19.2035   1
   5  -3  10 109.285 17.6083   1
   5  -2   1 708.648 31.9156   1
   5  -2   2 512.097 17.8233   1
   5  -2   3 565.691 19.0835   1
   5  -2   4 633.526 20.7791   1
   5  -2   5 745.119 23.6486   1
   5  -2   6 218.067 12.7711   1
   5  -2   7 610.891 21.7557   1
   5  -2   8 203.333 15.5503   1
   5  -2   9 325.673 19.2216   1
   5  -2  10 139.776  17.649   1
   5  -1   1 527.973 17.8867   1
   5  -1   2 1736.29  44.349   1
   5  -1   3  461.75 16.6939   1
   5  -1   4 1124.94 31.0507   1
   5  -1   5 382.401 15.2953   1
   5  -1   6 381.046 15.6745   1
   5  -1   7 385.804 16.1048   1
   5  -1   8  472.05 19.3069   1
   5  -1   9 214.503 15.6726   1
   5  -1  10 266.032 19.1324   1
   5  -1  11 77.7772  13.504   1
   5   0   0 1585.21 41.3826   1
   5   0   1 625.146 19.9873   1
   5   0   2 1067.49 24.4672   1
   5   0   3 510.213 17.4782   1
   5   0   4 968.376 27.7376   1
   5   0   5 490.695 17.2938   1
   5   0   6 691.696  21.918   1
   5   0   7 296.197 13.8017   1
   5   0   8 330.013 17.6801   1
   5   0   9 89.2601 12.0519   1
   5   0  10  283.45 17.8978   1
   5   0  11 84.1612 15.9364   1
   5   1   0 526.154 18.5428   1
   5   1   1 2308.00 57.0472   1
   5   1   2 169.681 10.2282   1
   5   1   3 1327.37 66.2303   1
   5   1   4 855.976 20.2216   1
   5   1   5 887.976 61.4175   1
   5   1   6 658.591  16.457   1
   5   1   7 585.851 19.8152   1
   5   1   8 493.197 18.4357   1
   5   1   9 754.766  26.502   1
   5   1  10 316.154 17.5859   1
   5   1  11 258.022 18.9695   1
   5   1  12 168.957 17.8494   1
   5   2   0 912.801 27.1683   1
   5   2   1 1849.16 47.0992   1
   5   2   2 1327.56 35.7241   1
   5   2   3 1715.34 45.5011   1
   5   2   4 1078.60  28.369   1
   5   2   5 793.168   19.13   1
   5   2   6 543.997 14.2679   1
   5   2   7  667.36 16.9547   1
   5   2   8 281.069 10.0997   1
   5   2   9 665.678 18.1737   1
   5   2  10 99.4329 12.7569   1
   5   2  11 294.236 18.5616   1
   5   2  12 139.269 15.6891   1
   5   3   0 2683.56 65.3156   1
   5   3   1 1781.37 45.8582   1
   5   3   2 2154.70 53.7202   1
   5   3   3 581.871 15.1178   1
   5   3   4 1499.56 121.656   1
   5   3   5 919.703  31.433   1
   5   3   6 1200.94 26.9551   1
   5   3   7 516.126 16.9776   1
   5   3   8 598.024 16.1101   1
   5   3   9  454.05 14.9273   1
   5   3  10 227.083 11.2021   1
   5   3  11 149.758 13.8749   1
   5   4   0 2480.80 60.6247   1
   5   4   1 1303.32  35.552   1
   5   4   2 1197.88 33.1761   1
   5   4   3  930.45 36.2472   1
   5   4   4 1081.13 25.2888   1
   5   4   5 758.817 18.5019   1
   5   4   6 687.663 17.2547   1
   5   4   7 222.568  8.2554   1
   5   4   8 764.666 19.3013   1
   5   4   9 253.036 10.6935   1
   5   4  10 398.255 16.0368   1
   5   4  11 171.913 17.8324   1
   5   4  12 255.849 27.3475   1
   5   5   0 932.124 26.7422   1
   5   5   1 1799.32 45.7546   1
   5   5   2 659.753 21.8059   1
   5   5   3 1245.56 58.8013   1
   5   5   4  714.33 20.2248   1
   5   5   5 1393.17 30.5425   1
   5   5   6 520.158 23.4915   1
   5   5   7  497.79 52.7821   1
   5   5   8 591.722 16.2173   1
   5   5   9 429.329 16.2338   1
   5   5  10 343.541 19.1891   1
   5   5  11 233.204 19.5235   1
   5   5  12 148.508 21.0629   1
   5   6   0 1516.09 39.5645   1
   5   6   1 1965.62 49.4482   1
   5   6   2 1015.43 29.1448   1
   5   6   3 1834.90 39.0379   1
   5   6   4 871.831 21.0714   1
   5   6   5 1240.01 47.8358   1
   5   6   6 505.278  25.477   1
   5   6   7 849.485 47.6852   1
   5   6   8 651.438 20.9442   1
   5   6   9 549.774 21.6197   1
   5   6  10 216.749 18.1602   1
   5   6  11 246.306 20.7957   1
   5   6  12 108.156 20.8532   1
   5   7   0 1956.97  49.475   1
   5   7   1  885.31 25.9713   1
   5   7   2 1219.82 33.2393   1
   5   7   3  564.32  15.307   1
   5   7   4 888.328 25.4999   1
   5   7   5 655.462 16.9589   1
   5   7   6  706.82 35.0283   1
   5   7   7 427.972 17.1235   1
   5   7   8 336.583 16.8221   1
   5   7   9  254.65 17.2548   1
   5   7  10 325.152 21.0123   1
   5   7  11 225.773 21.7161   1
   5   8   0 1606.45 42.1986   1
   5   8   1 954.008 27.8109   1
   5   8   2 1086.15 29.5696   1
   5   8   3 526.305 18.8357   1
   5   8   4 1106.51 64.7673   1
   5   8   5 478.476 17.4228   1
   5   8   6 592.465 20.6893   1
   5   8   7 290.631 15.6619   1
   5   8   8 429.673 20.0705   1
   5   8   9  262.90 18.5899   1
   5   8  10 335.106 21.9911   1
   5   8  11 71.8761 13.7361   1
   5   9   0 391.096 16.4147   1
   5   9   1  569.24 19.4869   1
   5   9   2 602.854 18.3796   1
   5   9   3 668.706 29.2352   1
   5   9   4 488.578  18.527   1
   5   9   5 568.179 20.1042   1
   5   9   6 333.378 16.7533   1
   5   9   7 457.798 20.0478   1
   5   9   8 264.715  18.655   1
   5   9   9  349.03 21.5837   1
   5   9  10  235.56 21.1851   1
   5  10   0 740.614 24.4745   1
   5  10   1 948.524 57.3081   1
   5  10   2 535.744 16.0281   1
   5  10   3 612.015 21.6409   1
   5  10   4 353.093 16.5668   1
   5  10   5  718.36 24.3412   1
   5  10   6 349.361 18.4461   1
   5  10   7 461.517 21.7375   1
   5  10   8 220.773 19.1794   1
   5  10   9 360.953  23.376   1
   5  11   0 536.004 17.4903   1
   5  11   1  572.43 17.5711   1
   5  11   2 533.828 21.2732   1
   5  11   3 411.391 19.2285   1
   5  11   4 445.726  20.279   1
   5  11   5 348.681 19.1421   1
   5  11   6 380.897 21.9034   1
   5  11   7 171.139 18.0534   1
   5  11   8 166.666 18.7411   1
   5  12   0 391.026  20.457   1
   5  12   1  294.62 19.0839   1
   5  12   2 329.975 19.6598   1
   5  12   3 120.525 15.2272   1
   5  12   4 413.435 21.7893   1
   5  12   5 215.479 19.5159   1
   5  12   6 317.913 22.5748   1
   5  13   0 218.593  20.404   1
   5  13   1 318.755 22.5506   1
   5  13   2 231.794 19.1726   1
   5  13   3  239.30 20.8553   1
   5  13   4 186.865 22.9691   1
   6  -7   3 182.598 21.0147   1
   6  -6   1 106.276 12.2937   1
   6  -6   2 300.838 35.9478   1
   6  -6   3 150.713 19.8428   1
   6  -6   4 252.795  22.734   1
   6  -6   5 151.207 22.4949   1
   6  -5   1 237.759 12.5309   1
   6  -5   2 412.621 30.9243   1
   6  -5   3  199.64 17.3359   1
   6  -5   4 447.526 23.4013   1
   6  -5   5 161.587 18.8011   1
   6  -5   6 220.566 21.7582   1
   6  -4   1 443.339 18.1288   1
   6  -4   2 379.064 19.4419   1
   6  -4   3 531.198 21.7361   1
   6  -4   4  191.29 16.7311   1
   6  -4   5  406.81 21.6111   1
   6  -4   6 115.592 17.2513   1
   6  -4   7 331.459 23.5721   1
   6  -3   1 567.708 17.1351   1
   6  -3   2 296.435 15.3646   1
   6  -3   3 318.322 22.0808   1
   6  -3   4 227.567 15.0778   1
   6  -3   5  485.90 20.8584   1
   6  -3   6 137.536 15.2664   1
   6  -3   7 277.659 19.6262   1
   6  -3   8 127.151 18.0101   1
   6  -2   1 461.055 18.7105   1
   6  -2   2 643.121 22.6643   1
   6  -2   3 394.925 17.1664   1
   6  -2   4 860.934 27.6705   1
   6  -2   5 324.608  16.938   1
   6  -2   6 506.852 21.1751   1
   6  -2   7 212.021  16.412   1
   6  -2   8 407.923  22.351   1
   6  -2   9 226.197 21.1144   1
   6  -1   1 636.578  22.105   1
   6  -1   2 797.718 25.9421   1
   6  -1   3 452.937 18.3643   1
   6  -1   4 1057.73 31.3278   1
   6  -1   5  384.91 17.5034   1
   6  -1   6 593.417 22.1653   1
   6  -1   7 228.014 16.0616   1
   6  -1   8 436.623 21.0901   1
   6  -1   9 220.773 19.0667   1
   6  -1  10 192.375 20.3516   1
   6   0   1 1471.30 40.0171   1
   6   0   2 269.507 13.7837   1
   6   0   3 857.913 26.8786   1
   6   0   4 455.802 18.4866   1
   6   0   5 426.205 17.5062   1
   6   0   6 309.633  16.189   1
   6   0   7 440.038  19.132   1
   6   0   8 269.085 16.6033   1
   6   0   9 296.249 19.3697   1
   6   0  10 90.3174 16.3333   1
   6   0  11  143.20 30.4196   1
   6   1   0 792.942 25.9822   1
   6   1   2 419.298 11.9812   1
   6   1   3 974.322 22.6504   1
   6   1   4 523.938 19.5359   1
   6   1   5 775.672 25.1254   1
   6   1   6 396.461 16.9324   1
   6   1   8 208.548 15.2585   1
   6   1   9 385.657 20.1533   1
   6   1  10 175.891 17.5216   1
   6   1  11 254.602 21.1717   1
   6   2   0 1487.61  41.038   1
   6   2   1 197.951 12.6673   1
   6   2   3 406.605 11.8544   1
   6   2   4 801.843 19.5006   1
   6   2   5 492.897 23.8858   1
   6   2   6 472.594 49.6953   1
   6   2   7 317.343 15.1681   1
   6   2   8 581.013 21.6624   1
   6   2   9 315.809 17.5861   1
   6   2  10 289.165 19.4858   1
   6   2  11 114.237  17.791   1
   6   2  12 130.485 21.6452   1
   6   3   0 1520.28 41.8396   1
   6   3   1 876.493 27.6056   1
   6   3   2 1638.93 43.9902   1
   6   3   3 1064.73  27.461   1
   6   3   4 792.242 30.3549   1
   6   3   5 565.691 23.8738   1
   6   3   6 677.787 47.1352   1
   6   3   7 280.699  10.277   1
   6   3   8 629.131 17.6262   1
   6   3   9 168.939 15.0699   1
   6   3  10 321.726  18.506   1
   6   3  11 92.6205 16.3048   1
   6   4   0 577.279 21.2652   1
   6   4   1 978.124 29.9279   1
   6   4   2 335.012 16.1088   1
   6   4   3 625.452 17.9669   1
   6   4   4 347.131 12.3397   1
   6   4   5 864.034 24.2766   1
   6   4   6 373.639 27.1605   1
   6   4   7  303.91 40.9742   1
   6   4   8 309.182 11.7733   1
   6   4   9 269.017 16.7174   1
   6   4  10 167.198 15.7456   1
   6   5   0 481.839 18.4002   1
   6   5   1 1102.49 33.0719   1
   6   5   2 508.532 20.0395   1
   6   5   3 493.812 24.1331   1
   6   5   4 411.686 17.2447   1
   6   5   5 618.802 16.5402   1
   6   5   6 217.022 9.04219   1
   6   5   7 419.042  63.632   1
   6   5   8 216.081 22.7201   1
   6   5   9 439.153 15.5413   1
   6   5  10 194.403 18.1519   1
   6   5  11 216.564 26.7456   1
   6   6   0 747.756 24.6147   1
   6   6   1 340.562 16.2294   1
   6   6   2 850.301 27.5942   1
   6   6   3 277.418 10.3324   1
   6   6   4 800.731 55.0557   1
   6   6   5 509.122 19.8572   1
   6   6   6 290.017 18.3958   1
   6   6   7 260.452  25.087   1
   6   6   8 260.845 13.9014   1
   6   6   9 301.043  18.889   1
   6   6  10 194.396 18.4405   1
   6   6  11 98.7306 20.1836   1
   6   7   0 744.298 24.4906   1
   6   7   1 422.218 17.7995   1
   6   7   2 655.901 23.7254   1
   6   7   3 255.249 10.1362   1
   6   7   4  608.62 19.8857   1
   6   7   5  301.87 11.1757   1
   6   7   6 410.123 41.0621   1
   6   7   7 353.857 23.0425   1
   6   7   8 455.732 20.5531   1
   6   7   9 170.108 16.9762   1
   6   7  10 254.399 21.3457   1
   6   7  11 84.8248 14.8909   1
   6   8   0 419.751 18.0944   1
   6   8   1 888.676  28.091   1
   6   8   2 225.497 9.98521   1
   6   8   3 374.035 34.5987   1
   6   8   4 292.164 14.0484   1
   6   8   5 348.496 15.8004   1
   6   8   6 188.049 9.27504   1
   6   8   7 146.575   14.42   1
   6   8   8 82.7209 14.0288   1
   6   8   9 127.917  17.215   1
   6   8  10 159.798  20.122   1
   6   9   0  217.70 14.2587   1
   6   9   1 259.814 15.0804   1
   6   9   2 90.1904 8.43536   1
   6   9   3 287.978 26.3945   1
   6   9   4 258.512 14.1781   1
   6   9   5 308.189 15.8632   1
   6   9   6 183.029 14.5461   1
   6   9   7 248.776 17.6032   1
   6   9   8 146.318 16.7899   1
   6   9   9 229.828 21.2659   1
   6  10   0 296.939  16.814   1
   6  10   1 205.155 13.4556   1
   6  10   2  284.19 12.1398   1
   6  10   3 172.404 14.0237   1
   6  10   4 190.914 15.2274   1
   6  10   5  134.77 13.7437   1
   6  10   6  227.35 16.6631   1
   6  10   7 119.037 16.4251   1
   6  10   8 132.493  18.149   1
   6  11   0 273.999 18.3756   1
   6  11   1 145.162 28.5902   1
   6  11   2 236.065 19.1464   1
   6  11   3  127.06 14.8744   1
   6  11   4 234.488 17.0246   1
   6  11   5 153.559  15.824   1
   6  11   6 233.883 19.7931   1
   6  11   7 63.0314 13.4853   1
   6  12   0 121.971 12.4534   1
   6  12   1 173.096 17.7787   1
   6  12   2 145.511 16.9263   1
   6  12   3 107.522 16.9089   1
   6  12   4 80.7735 15.6152   1
   6  12   5 156.654 18.2362   1
   6  13   0 63.6388 14.7723   1
   6  13   1 93.5751 18.1901   1
   6  13   2 41.3664  14.704   1
   7  -5   1 134.345 19.4694   1
   7  -5   2 43.4863 13.2244   1
   7  -5   3 81.9008 16.0981   1
   7  -5   4 30.6646 13.3082   1
   7  -4   1 108.036 17.3621   1
   7  -4   2 51.8788 12.0459   1
   7  -4   3 148.931 18.1414   1
   7  -4   4  66.094  14.649   1
   7  -4   5 125.668 20.7046   1
   7  -3   1 51.2299  10.944   1
   7  -3   2  72.372 12.4684   1
   7  -3   3 40.7005 10.9476   1
   7  -3   4 80.4891 13.1154   1
   7  -3   5 12.8995 10.0726   1
   7  -3   6 106.616  18.378   1
   7  -2   1 71.9191 16.8161   1
   7  -2   2 124.543 15.4598   1
   7  -2   3  52.931 10.3853   1
   7  -2   4 183.123 16.8931   1
   7  -2   5 66.0639 12.1433   1
   7  -2   6 166.519 18.6746   1
   7  -2   7 26.0854 11.3048   1
   7  -1   1 115.273 14.6805   1
   7  -1   2 34.6349 10.3045   1
   7  -1   3 165.362 15.6398   1
   7  -1   4 79.5808 11.7963   1
   7  -1   5  216.93 17.7291   1
   7  -1   6 64.7757 12.1123   1
   7  -1   7 125.184 18.3123   1
   7  -1   8 77.8407 13.6268   1
   7   0   0 238.971   16.40   1
   7   0   1 295.832 16.9993   1
   7   0   2 87.4753 13.3668   1
   7   0   3 323.678 18.3368   1
   7   0   4 49.3754 9.60923   1
   7   0   5 266.182 17.1858   1
   7   0   6  34.072  10.387   1
   7   0   7 94.0427 16.1335   1
   7   0   8 93.3037 16.5551   1
   7   0   9 88.1692 14.1456   1
   7   1   0 344.805  18.033   1
   7   1   1 70.3419 9.23382   1
   7   1   2 136.945 12.6212   1
   7   1   3 80.8395 9.95728   1
   7   1   4  156.06 14.7779   1
   7   1   5 77.8583  13.067   1
   7   1   6 100.976 14.3604   1
   7   1   7 58.9726 10.5326   1
   7   1   8 122.098 15.9167   1
   7   1   9 15.4999 10.0836   1
   7   1  10 22.5202 12.4101   1
   7   2   0 265.444  16.382   1
   7   2   1 95.1385  11.192   1
   7   2   2 155.587 13.2254   1
   7   2   3 19.5343 7.36817   1
   7   2   4 247.117 15.2096   1
   7   2   5 76.6519 10.6088   1
   7   2   6 169.919 14.4628   1
   7   2   7 57.6355 10.1107   1
   7   2   8 180.023 17.6036   1
   7   2   9 79.2868 13.5539   1
   7   2  10  160.54 19.4807   1
   7   3   0 165.672 14.2019   1
   7   3   1 175.314 14.1775   1
   7   3   2 82.9543 12.1954   1
   7   3   3 284.664 10.4789   1
   7   3   4 193.362 13.5181   1
   7   3   5 193.948 13.1709   1
   7   3   6   43.82 14.3355   1
   7   3   7  126.96 13.5622   1
   7   3   8 57.2216  11.251   1
   7   3   9 153.158 17.0128   1
   7   3  11 38.5297 12.6433   1
   7   4   0 85.1652 11.7231   1
   7   4   1 388.699 19.0954   1
   7   4   2 181.698 13.9118   1
   7   4   3 235.386 10.6451   1
   7   4   4 105.014 7.55872   1
   7   4   5 251.664 10.5313   1
   7   4   6 85.7428 7.89962   1
   7   4   7 250.149  15.676   1
   7   4   8 56.4188 10.0204   1
   7   4   9 178.758 22.9131   1
   7   4  10 38.4492 10.8999   1
   7   5   0 370.826 19.1957   1
   7   5   1 144.814 13.4847   1
   7   5   2 194.177 15.0894   1
   7   5   3 63.8417 6.98413   1
   7   5   4 188.102 9.43868   1
   7   5   5 92.4117 7.77666   1
   7   5   6 104.088 8.54718   1
   7   5   7 50.8392 8.65714   1
   7   5   8 98.4685  13.906   1
   7   5   9 102.946 15.7806   1
   7   6   0 247.847 15.9357   1
   7   6   1 72.6994 10.1802   1
   7   6   2 162.389 14.6437   1
   7   6   3 48.2119 6.26601   1
   7   6   4 212.008 10.2424   1
   7   6   5 87.3165 8.01969   1
   7   6   6 209.684 26.8796   1
   7   6   7 34.7266 11.2011   1
   7   6   8 147.839 10.8446   1
   7   6   9  83.381 13.7011   1
   7   7   0 114.306 13.1977   1
   7   7   1 351.617 18.8968   1
   7   7   2 91.5648 13.1577   1
   7   7   3 263.831 28.7304   1
   7   7   4 177.372 29.3657   1
   7   7   5 190.658 17.4716   1
   7   7   6 116.775 9.60022   1
   7   7   7 87.6748 10.9214   1
   7   7   8 181.512 18.0634   1
   7   7   9 161.687 19.0884   1
   7   7  10 60.8554  15.138   1
   7   8   0  130.27 15.3638   1
   7   8   1 340.637 19.0245   1
   7   8   2 69.1542 7.76646   1
   7   8   3 154.725 20.1825   1
   7   8   4 60.0981  12.181   1
   7   8   5 149.215 10.5109   1
   7   8   6 69.1783  8.7001   1
   7   8   7 126.638 15.6368   1
   7   8   8 57.3698 11.5868   1
   7   8   9 77.1959 14.7487   1
   7   8  10-4.91661 14.3612   1
   7   9   0 401.205 23.8188   1
   7   9   1 198.885 17.4172   1
   7   9   2 152.007 11.0485   1
   7   9   3 72.5986 16.8917   1
   7   9   4 193.079 15.0851   1
   7   9   5 144.057 17.6621   1
   7   9   6 113.262 14.6025   1
   7   9   7 77.6091 12.8884   1
   7   9   8 70.6215 13.4399   1
   7   9   9 120.249 20.7913   1
   7  10   0 170.852 18.2083   1
   7  10   1 22.9654 9.18589   1
   7  10   2 96.2072 11.0433   1
   7  10   3 61.5942 26.9591   1
   7  10   4 116.993  37.117   1
   7  10   5 76.7701 13.6842   1
   7  10   6 82.4335 13.5992   1
   7  10   7 46.6389 12.8765   1
   7  10   8 104.422 19.3386   1
   7  11   1 208.784  39.978   1
   7  11   2 123.769 12.9572   1
   7  11   3 119.952 16.0852   1
   7  11   4 72.0915 12.6775   1
   7  11   5 123.098 17.0432   1
   7  11   6 97.7784 17.5182   1
   7  12   0 82.9598 10.8837   1
   7  12   1 108.375 17.8661   1
   7  12   2 105.985  18.546   1
   7  12   3 122.926 17.6283   1
   7  12   4 69.0759 15.5341   1
   8  -4   1 88.0098 16.0709   1
   8  -4   2 110.759 18.6854   1
   8  -3   1 84.2343 15.6241   1
   8  -3   2 170.323 21.4427   1
   8  -3   3 126.728 22.4071   1
   8  -3   4 147.567 24.2283   1
   8  -2   1  250.04 23.0595   1
   8  -2   2 132.585 19.5564   1
   8  -2   3 182.064 21.2256   1
   8  -2   4 57.2021 14.4318   1
   8  -2   5 150.726 21.1092   1
   8  -1   1 263.093 22.6947   1
   8  -1   2 167.249 20.6471   1
   8  -1   3 283.447 21.9677   1
   8  -1   4 150.523 19.2445   1
   8  -1   5 266.014 22.3281   1
   8  -1   6 90.6646 15.3621   1
   8   0   0 463.902 24.0119   1
   8   0   1  206.13 19.7363   1
   8   0   2 393.909 23.2332   1
   8   0   3 187.356 19.5347   1
   8   0   4  354.44 22.9275   1
   8   0   5 231.465 21.0088   1
   8   0   6 237.048 21.3828   1
   8   0   7 120.798 20.9044   1
   8   1   0 457.824 22.2298   1
   8   1   1 348.685 20.1499   1
   8   1   2 476.448 22.9673   1
   8   1   3 153.635 18.6129   1
   8   1   4 407.601 22.5893   1
   8   1   5 137.453 18.3946   1
   8   1   6 209.537  20.471   1
   8   1   7 107.692 18.8389   1
   8   1   8 159.252 20.7939   1
   8   2   0 304.862 20.1286   1
   8   2   1 528.708 24.0921   1
   8   2   2 310.861 19.6363   1
   8   2   3 352.838 21.2807   1
   8   2   4 316.915 20.7479   1
   8   2   5 285.522 20.1155   1
   8   2   6 196.634 19.6346   1
   8   2   7  240.61 20.5343   1
   8   2   8 115.469 20.0945   1
   8   3   0 560.111 29.1097   1
   8   3   1 535.899 25.1858   1
   8   3   2 152.355 17.1457   1
   8   3   3 333.911 20.3361   1
   8   3   4 293.378 19.5466   1
   8   3   5 378.384  22.177   1
   8   3   6 135.876 18.1955   1
   8   3   7 272.078 19.9148   1
   8   3   8 159.383 21.0629   1
   8   3   9 240.809 23.1496   1
   8   4   0 609.868 32.6939   1
   8   4   1 612.766 38.3952   1
   8   4   2 643.764 28.7728   1
   8   4   3 620.227 19.7065   1
   8   4   4 587.643 23.8942   1
   8   4   5 288.739 19.8566   1
   8   4   6  292.70   20.51   1
   8   4   7 157.123 17.0155   1
   8   4   8 263.683 20.5044   1
   8   4   9 151.621 21.4689   1
   8   5   0 641.953 28.6901   1
   8   5   1 395.477 25.3057   1
   8   5   2 551.646 28.5162   1
   8   5   3 242.565 12.3555   1
   8   5   4 409.854 14.6998   1
   8   5   5  204.77 20.6308   1
   8   5   6 381.491 21.4739   1
   8   5   7 115.914 15.1727   1
   8   5   8 216.592 19.3698   1
   8   5   9 115.612 19.3383   1
   8   5  10 99.9799 22.5943   1
   8   6   0 504.938  24.568   1
   8   6   1 488.723 23.5705   1
   8   6   2 346.552 21.6689   1
   8   6   3  380.21 20.3366   1
   8   6   4 278.007 15.0078   1
   8   6   5 291.638 13.6839   1
   8   6   6 218.348 34.5343   1
   8   6   7 171.438 54.5271   1
   8   6   8  139.88 17.7388   1
   8   6   9 193.619  20.805   1
   8   7   0 291.015 21.6501   1
   8   7   1 419.041 22.4509   1
   8   7   2 211.281 19.5987   1
   8   7   3 383.099 18.9884   1
   8   7   4 261.428 15.0044   1
   8   7   5 508.431 17.7695   1
   8   7   6  165.90 32.8125   1
   8   7   7 203.154  20.538   1
   8   7   8 81.5756 15.0832   1
   8   8   0 438.044 23.6503   1
   8   8   1 335.176 23.3392   1
   8   8   2 412.243 19.8342   1
   8   8   3 256.825 14.0878   1
   8   8   4  277.68 50.8827   1
   8   8   5 328.104 53.7377   1
   8   8   6 184.696 13.2073   1
   8   8   7 257.548 20.8511   1
   8   8   8 285.135 22.3641   1
   8   8   9 157.718 22.9028   1
   8   9   0 464.313 26.0356   1
   8   9   1  342.17 23.9037   1
   8   9   2 432.832   21.10   1
   8   9   3 231.842  16.668   1
   8   9   4 280.934 26.5616   1
   8   9   5 200.705 14.7862   1
   8   9   6 209.798 18.9471   1
   8   9   7 79.9906 14.6265   1
   8   9   8  141.41  22.656   1
   8  10   0  288.64 24.1796   1
   8  10   1 221.485 24.2936   1
   8  10   2 158.833 17.1924   1
   8  10   3 164.545 14.4791   1
   8  10   4 203.027 17.3907   1
   8  10   5 217.245 19.8791   1
   8  10   6 139.459 19.4428   1
   8  11   0 147.552 22.8194   1
   8  11   1  237.13 16.7318   1
   8  11   2 74.6989 18.8569   1
   8  11   3 212.743 20.9371   1
   8  11   4  161.36 20.1879   1
   8  12   0 224.227 26.8203   1
   8  12   1 145.648 25.2207   1
   9  -2   1 68.6683 20.2622   1
   9  -1   1 72.6408 17.4781   1
   9  -1   2  133.43 25.8029   1
   9  -1   3 54.0667 15.9397   1
   9   0   0 161.438 24.6367   1
   9   0   1 89.6205  16.731   1
   9   0   2 95.2322 16.8666   1
   9   0   3 50.6212 15.1159   1
   9   0   4 168.906 23.7756   1
   9   1   0 83.4551  15.182   1
   9   1   1  260.81 24.1833   1
   9   1   2  109.64 16.9837   1
   9   1   3  153.83 23.3037   1
   9   1   4 113.917 22.6175   1
   9   1   5 107.787 16.9889   1
   9   2   0 107.718 16.7798   1
   9   2   1 181.353 21.7278   1
   9   2   2 56.8713 15.5467   1
   9   2   3 187.523 22.9082   1
   9   2   4 81.7501 16.3253   1
   9   2   5 100.584 16.3349   1
   9   2   6 62.9095  14.807   1
   9   3   0 178.145 21.3691   1
   9   3   1 118.331 20.9732   1
   9   3   2 116.773 20.8623   1
   9   3   3 75.2239 16.6523   1
   9   3   4 112.583 21.3411   1
   9   3   5 75.3218 15.5895   1
   9   3   6 101.681 20.5055   1
   9   3   7 43.7769 19.0317   1
   9   4   0 203.381 22.4107   1
   9   4   1 72.8706 15.4658   1
   9   4   2 153.945 20.7948   1
   9   4   3 107.862 16.5362   1
   9   4   4 218.523 23.6757   1
   9   4   5 114.559 20.5292   1
   9   4   6 82.3219 15.0453   1
   9   4   7 40.8912 13.3973   1
   9   5   0 97.3463 16.3052   1
   9   5   1 150.065 21.3447   1
   9   5   2 120.883 13.9611   1
   9   5   3 200.472 21.5761   1
   9   5   4 126.849 19.6362   1
   9   5   5 137.565 19.5838   1
   9   5   6 61.8316 14.5013   1
   9   5   7 87.9204 15.6643   1
   9   6   0   95.17 15.4492   1
   9   6   1 106.671 17.2159   1
   9   6   2 53.2344 27.6467   1
   9   6   3  123.63 12.9387   1
   9   6   4 42.6621 11.8918   1
   9   6   5 124.286 21.9785   1
   9   6   6 38.1816 13.2406   1
   9   6   7 66.7372 13.8056   1
   9   6   8 29.1732 12.6545   1
   9   7   0  80.542 17.2473   1
   9   7   1 50.5419 16.8018   1
   9   7   2 83.7851 17.3732   1
   9   7   3 53.6657 9.37086   1
   9   7   4 78.9684 21.3097   1
   9   7   5 81.0871 9.91449   1
   9   7   6 79.2979 14.6407   1
   9   7   7  46.535 14.2466   1
   9   7   8 40.8327 13.6578   1
   9   8   0 57.1659 16.3431   1
   9   8   1  48.593 16.0344   1
   9   8   2 94.3825  11.876   1
   9   8   3 45.6112 21.2561   1
   9   8   4 131.755 14.0713   1
   9   8   5 64.4229 11.0323   1
   9   8   6 98.8424 22.2453   1
   9   8   7 11.1837  12.033   1
   9   9   0 24.3664 14.4587   1
   9   9   1 35.6258 16.3821   1
   9   9   2 36.3016 19.1263   1
   9   9   3 45.0078 20.9678   1
   9   9   4 48.9731 14.5481   1
   9   9   5 55.3418 9.58441   1
   9   9   6 35.2578 14.1313   1
   9  10   0 20.3304 16.5897   1
   9  10   1 97.6349 32.2069   1
   9  10   2 42.6757 12.2612   1
   9  10   3 55.7425  12.147   1
   9  10   4 26.0361 10.3949   1
   9  11   0  36.313 22.7446   1
   9  11   1  19.073 20.9597   1
   9  11   2-5.32626 18.3237   1
   9  11   3 2.54157 19.8645   1
  10   2   0 74.7999 16.8422   1
  10   2   1 36.9602 18.8235   1
  10   3   0 65.6478 15.6215   1
  10   3   1 39.5749 16.2122   1
  10   3   2 85.8997 20.2302   1
  10   3   3 69.0092 29.6325   1
  10   4   0   49.83 16.8258   1
  10   4   1 64.2101 17.4935   1
  10   4   2 21.6214 16.2883   1
  10   4   3 28.6584 18.5325   1
  10   5   0 54.8502 19.0269   1
  10   5   1 96.6484 20.4732   1
  10   5   2 39.4922 16.5295   1
  10   5   3 84.1183  17.481   1
  10   5   4 66.0897 17.5305   1
  10   6   0 56.1344 18.4415   1
  10   6   1 48.7719 18.2405   1
  10   6   2 35.1627  17.467   1
  10   6   3  40.547 13.4894   1
  10   6   4 71.1476 15.8516   1
  10   7   0 87.5904 19.5399   1
  10   7   1 44.9828 18.5706   1
  10   7   2 56.1661 18.2136   1
  10   7   3 14.4028 17.9769   1
  10   7   4 75.9888 21.7561   1
  10   8   0 12.3134 18.6189   1
  10   8   1 41.1665 13.6311   1
  10   8   2 41.8967 26.4676   1
  10   8   3  55.083 17.6684   1
  10   9   1 71.5855 18.9448   1
  10   9   2 47.3377 15.2571   1
  10   9   3  71.629 23.1484   1
   0   0   0    0.00    0.00   1
;
_shelx_hkl_checksum              58778
loop_
_space_group_symop_operation_xyz
'x, y, z'
'-x, -y, -z'
loop_
_atom_site_label
_atom_site_type_symbol
_atom_site_fract_x
_atom_site_fract_y
_atom_site_fract_z
_atom_site_U_iso_or_equiv
_atom_site_adp_type
_atom_site_occupancy
_atom_site_site_symmetry_order
_atom_site_calc_flag
_atom_site_refinement_flags_posn
_atom_site_refinement_flags_adp
_atom_site_refinement_flags_occupancy
_atom_site_disorder_assembly
_atom_site_disorder_group
Pt01 Pt 0.5000 0.0000 0.0000 0.01978(5) Uani 1 2 d S . P . .
Br1 Br 0.86137(9) 0.01303(7) -0.00373(6) 0.02944(10) Uani 0.5 1 d . . P . .
P1 P 0.73738(12) 0.24396(8) 0.48939(8) 0.02608(13) Uani 1 1 d . . . . .
N1 N 0.3566(4) 0.2476(3) 0.0400(2) 0.0232(4) Uani 1 1 d . . . . .
O3 O 0.7794(4) 0.1049(3) 0.3857(3) 0.0423(6) Uani 1 1 d . . . . .
N2 N 0.5028(4) -0.0160(3) 0.2337(2) 0.0264(4) Uani 1 1 d . . . . .
H2A H 0.4935 -0.1121 0.2702 0.032 Uiso 1 1 calc R U . . .
H2B H 0.6258 -0.0138 0.2647 0.032 Uiso 1 1 calc R U . . .
O4 O 0.5263(4) 0.2956(3) 0.5783(3) 0.0425(6) Uani 1 1 d . . . . .
O1 O 0.7503(5) 0.4006(3) 0.3947(3) 0.0538(8) Uani 1 1 d . . . . .
H7 H 0.7276 0.4770 0.4507 0.081 Uiso 1 1 calc R U . . .
O2 O 0.9302(5) 0.1903(3) 0.6010(3) 0.0565(8) Uani 1 1 d . . . . .
H8 H 0.9386 0.1039 0.6511 0.085 Uiso 1 1 calc R U . . .
C1 C 0.3331(5) 0.3754(3) -0.0645(3) 0.0264(5) Uani 1 1 d . . . . .
H1 H 0.3793 0.3522 -0.1641 0.032 Uiso 1 1 calc R U . . .
C5 C 0.2879(5) 0.2804(3) 0.1852(3) 0.0256(5) Uani 1 1 d . . . . .
C6 C 0.3148(5) 0.1292(4) 0.2899(3) 0.0308(6) Uani 1 1 d . . . . .
H6A H 0.3404 0.1495 0.3919 0.037 Uiso 1 1 calc R U . . .
H6B H 0.1845 0.1055 0.2922 0.037 Uiso 1 1 calc R U . . .
C2 C 0.2406(5) 0.5416(3) -0.0257(3) 0.0292(5) Uani 1 1 d . . . . .
H2 H 0.2234 0.6292 -0.0989 0.035 Uiso 1 1 calc R U . . .
C3 C 0.1749(5) 0.5751(3) 0.1224(4) 0.0322(6) Uani 1 1 d . . . . .
H3 H 0.1148 0.6855 0.1504 0.039 Uiso 1 1 calc R U . . .
C4 C 0.1987(5) 0.4431(4) 0.2298(3) 0.0316(6) Uani 1 1 d . . . . .
H4 H 0.1553 0.4640 0.3302 0.038 Uiso 1 1 calc R U . . .
loop_
_atom_site_aniso_label
_atom_site_aniso_U_11
_atom_site_aniso_U_22
_atom_site_aniso_U_33
_atom_site_aniso_U_23
_atom_site_aniso_U_13
_atom_site_aniso_U_12
Pt01 0.02640(8) 0.01636(6) 0.01525(6) -0.00053(4) 0.00082(4) -0.00706(4)
Br1 0.0313(3) 0.0254(2) 0.0326(2) -0.00016(19) -0.0002(2) -0.01229(19)
P1 0.0297(3) 0.0177(2) 0.0223(3) -0.0018(2) 0.0029(2) -0.0002(2)
N1 0.0281(11) 0.0189(8) 0.0210(9) -0.0012(7) 0.0003(7) -0.0074(7)
O3 0.0380(12) 0.0338(11) 0.0422(12) -0.0167(9) -0.0121(10) 0.0044(9)
N2 0.0374(12) 0.0225(9) 0.0187(9) 0.0006(7) 0.0001(8) -0.0113(9)
O4 0.0446(13) 0.0220(9) 0.0496(13) 0.0020(9) 0.0225(11) -0.0043(9)
O1 0.0540(16) 0.0280(10) 0.0593(16) 0.0086(10) 0.0324(13) -0.0003(10)
O2 0.0619(18) 0.0354(12) 0.0548(16) -0.0209(11) -0.0280(13) 0.0073(11)
C1 0.0341(14) 0.0202(10) 0.0236(11) -0.0003(8) 0.0006(9) -0.0095(9)
C5 0.0313(13) 0.0238(10) 0.0213(10) -0.0032(8) 0.0024(9) -0.0104(9)
C6 0.0439(16) 0.0266(11) 0.0205(11) -0.0023(9) 0.0066(10) -0.0128(11)
C2 0.0345(14) 0.0201(10) 0.0321(13) 0.0002(9) -0.0024(10) -0.0095(10)
C3 0.0366(15) 0.0204(10) 0.0361(14) -0.0078(10) 0.0003(11) -0.0062(10)
C4 0.0383(15) 0.0273(12) 0.0270(12) -0.0092(10) 0.0043(10) -0.0094(11)
loop_
_atom_type_symbol
_atom_type_description
_atom_type_scat_dispersion_real
_atom_type_scat_dispersion_imag
_atom_type_scat_source
C C 0.0033 0.0016 'International Tables Vol C Tables 4.2.6.8 and 6.1.1.4'
H H 0.0000 0.0000 'International Tables Vol C Tables 4.2.6.8 and 6.1.1.4'
Br Br -0.2901 2.4595 'International Tables Vol C Tables 4.2.6.8 and 6.1.1.4'
N N 0.0061 0.0033 'International Tables Vol C Tables 4.2.6.8 and 6.1.1.4'
O O 0.0106 0.0060 'International Tables Vol C Tables 4.2.6.8 and 6.1.1.4'
P P 0.1023 0.0942 'International Tables Vol C Tables 4.2.6.8 and 6.1.1.4'
Pt Pt -1.7033 8.3905 'International Tables Vol C Tables 4.2.6.8 and 6.1.1.4'
loop_
_geom_angle_atom_site_label_1
_geom_angle_atom_site_label_2
_geom_angle_atom_site_label_3
_geom_angle
_geom_angle_site_symmetry_1
_geom_angle_site_symmetry_3
_geom_angle_publ_flag
N1 Pt01 N1 180.0 2_655 . ?
N1 Pt01 N2 79.83(9) 2_655 2_655 ?
N1 Pt01 N2 100.17(9) . 2_655 ?
N1 Pt01 N2 100.17(9) 2_655 . ?
N1 Pt01 N2 79.83(9) . . ?
N2 Pt01 N2 180.0 2_655 . ?
N1 Pt01 Br1 89.07(7) 2_655 . ?
N1 Pt01 Br1 90.93(7) . . ?
N2 Pt01 Br1 91.36(8) 2_655 . ?
N2 Pt01 Br1 88.64(8) . . ?
N1 Pt01 Br1 90.93(7) 2_655 2_655 ?
N1 Pt01 Br1 89.07(7) . 2_655 ?
N2 Pt01 Br1 88.64(8) 2_655 2_655 ?
N2 Pt01 Br1 91.36(8) . 2_655 ?
Br1 Pt01 Br1 180.0 . 2_655 ?
Br1 Br1 Pt01 170.65(5) 2_755 . ?
O3 P1 O4 115.63(16) . . ?
O3 P1 O1 108.99(17) . . ?
O4 P1 O1 109.41(13) . . ?
O3 P1 O2 108.57(13) . . ?
O4 P1 O2 109.62(18) . . ?
O1 P1 O2 104.0(2) . . ?
C1 N1 C5 119.9(2) . . ?
C1 N1 Pt01 124.82(18) . . ?
C5 N1 Pt01 115.24(17) . . ?
C6 N2 Pt01 108.55(16) . . ?
C6 N2 H2A 110.0 . . ?
Pt01 N2 H2A 110.0 . . ?
C6 N2 H2B 110.0 . . ?
Pt01 N2 H2B 110.0 . . ?
H2A N2 H2B 108.4 . . ?
P1 O1 H7 109.5 . . ?
P1 O2 H8 109.5 . . ?
N1 C1 C2 121.0(2) . . ?
N1 C1 H1 119.5 . . ?
C2 C1 H1 119.5 . . ?
N1 C5 C4 121.2(2) . . ?
N1 C5 C6 115.2(2) . . ?
C4 C5 C6 123.6(2) . . ?
N2 C6 C5 108.2(2) . . ?
N2 C6 H6A 110.1 . . ?
C5 C6 H6A 110.1 . . ?
N2 C6 H6B 110.1 . . ?
C5 C6 H6B 110.1 . . ?
H6A C6 H6B 108.4 . . ?
C3 C2 C1 119.2(3) . . ?
C3 C2 H2 120.4 . . ?
C1 C2 H2 120.4 . . ?
C2 C3 C4 119.7(2) . . ?
C2 C3 H3 120.2 . . ?
C4 C3 H3 120.2 . . ?
C5 C4 C3 119.0(3) . . ?
C5 C4 H4 120.5 . . ?
C3 C4 H4 120.5 . . ?
loop_
_geom_bond_atom_site_label_1
_geom_bond_atom_site_label_2
_geom_bond_distance
_geom_bond_site_symmetry_2
_geom_bond_publ_flag
Pt01 N1 2.030(2) 2_655 ?
Pt01 N1 2.030(2) . ?
Pt01 N2 2.062(2) 2_655 ?
Pt01 N2 2.062(2) . ?
Pt01 Br1 2.4647(8) . ?
Pt01 Br1 2.4647(8) 2_655 ?
Br1 Br1 1.7859(13) 2_755 ?
P1 O3 1.502(2) . ?
P1 O4 1.505(2) . ?
P1 O1 1.562(3) . ?
P1 O2 1.567(3) . ?
N1 C1 1.346(3) . ?
N1 C5 1.356(3) . ?
N2 C6 1.489(4) . ?
N2 H2A 0.8900 . ?
N2 H2B 0.8900 . ?
O1 H7 0.8200 . ?
O2 H8 0.8200 . ?
C1 C2 1.391(4) . ?
C1 H1 0.9300 . ?
C5 C4 1.380(4) . ?
C5 C6 1.494(4) . ?
C6 H6A 0.9700 . ?
C6 H6B 0.9700 . ?
C2 C3 1.377(4) . ?
C2 H2 0.9300 . ?
C3 C4 1.388(4) . ?
C3 H3 0.9300 . ?
C4 H4 0.9300 . ?
