#------------------------------------------------------------------------------
#$Date: 2021-11-04 01:58:51 +0200 (Thu, 04 Nov 2021) $
#$Revision: 270276 $
#$URL: file:///home/coder/svn-repositories/cod/cif/7/70/86/7708693.cif $
#------------------------------------------------------------------------------
#
# This file is available in the Crystallography Open Database (COD),
# http://www.crystallography.net/
#
# All data on this site have been placed in the public domain by the
# contributors.
#
data_7708693
loop_
_publ_author_name
'Zhang, Yue'
'Chen, Dian'
'Jin, Kai-Hang'
'Zang, Shuang-Quan'
'Wang, Qing-Lun'
_publ_section_title
;
 Room-temperature phosphorescence of manganese-based metal halides
;
_journal_name_full               'Dalton Transactions'
_journal_paper_doi               10.1039/D1DT03206B
_journal_year                    2021
_chemical_formula_moiety         'Cl6 Mn, 2(C8 H14 N2)'
_chemical_formula_sum            'C16 H28 Cl6 Mn N4'
_chemical_formula_weight         544.06
_space_group_crystal_system      triclinic
_space_group_IT_number           2
_space_group_name_Hall           '-P 1'
_space_group_name_H-M_alt        'P -1'
_atom_sites_solution_hydrogens   geom
_atom_sites_solution_primary     dual
_audit_creation_date             2020-02-26
_audit_creation_method
;
Olex2 1.2
(compiled 2018.05.29 svn.r3508 for OlexSys, GUI svn.r5506)
;
_audit_update_record
;
2021-09-17 deposited with the CCDC.	2021-11-01 downloaded from the CCDC.
;
_cell_angle_alpha                101.991(3)
_cell_angle_beta                 99.889(3)
_cell_angle_gamma                112.943(3)
_cell_formula_units_Z            1
_cell_length_a                   7.5206(3)
_cell_length_b                   8.4873(3)
_cell_length_c                   10.5291(3)
_cell_measurement_reflns_used    3780
_cell_measurement_temperature    296.6(6)
_cell_measurement_theta_max      72.7890
_cell_measurement_theta_min      5.9230
_cell_volume                     581.08(4)
_computing_cell_refinement       'CrysAlisPro 1.171.39.27b (Rigaku OD, 2015)'
_computing_data_collection       'CrysAlisPro 1.171.39.27b (Rigaku OD, 2015)'
_computing_data_reduction        'CrysAlisPro 1.171.39.27b (Rigaku OD, 2015)'
_computing_molecular_graphics    'Olex2 (Dolomanov et al., 2009)'
_computing_publication_material  'Olex2 (Dolomanov et al., 2009)'
_computing_structure_refinement  'ShelXL (Sheldrick, 2015)'
_computing_structure_solution    'ShelXT (Sheldrick, 2015)'
_diffrn_ambient_environment      air
_diffrn_ambient_temperature      296.6(6)
_diffrn_detector                 'CCD plate'
_diffrn_measured_fraction_theta_full 0.982
_diffrn_measured_fraction_theta_max 0.955
_diffrn_measurement_details
;
List of Runs (angles in degrees, time in seconds):

  # Type    Start    End  Width  t~exp~   \w     \q     \k     \f   Frames
#--------------------------------------------------------------------------
  1  \w    -57.00   0.00   0.50    0.50    --    0.00 -38.00  90.00  114
  2  \w    -56.00  12.00   0.50    0.50    --    0.00 -37.00-176.00  136
  3  \w    -13.00  29.00   0.50    0.50    --    0.00 -38.00 -60.00   84
  4  \w    -87.00 -37.00   0.50    0.50    --    0.00 -38.00 -60.00  100
  5  \w      8.00 135.00   0.50    0.50    --   97.60 -82.00   0.00  254
  6  \w      9.00  61.00   0.50    0.50    --   97.60 -61.00-150.00  104
  7  \w    133.00 159.00   0.50    0.50    --   97.60  77.00  60.00   52
  8  \w      8.00 127.00   0.50    0.50    --   97.60 -82.00-150.00  238
  9  \w     92.00 118.00   0.50    0.50    --   97.60 -82.00 120.00   52
 10  \w     64.00 186.00   0.50    0.50    --   97.60  30.00  90.00  244
 11  \w    101.00 130.00   0.50    0.50    --   97.60 -30.00 120.00   58
 12  \w     86.00 123.00   0.50    0.50    --   97.60  45.00 120.00   74
 13  \w     21.00  47.00   0.50    0.50    --   97.60 -30.00 120.00   52
 14  \w     69.00 128.00   0.50    0.50    --   97.60 -61.00-150.00  118
 15  \w     33.00  58.00   0.50    0.50    --   97.60 -82.00 120.00   50
 16  \w    128.00 161.00   0.50    0.50    --   97.60  45.00 120.00   66
 17  \w     71.00 105.00   0.50    0.50    --   97.60  77.00  60.00   68
 18  \w     89.00 114.00   0.50    0.50    --   97.60 -82.00 -90.00   50
 19  \w     65.00 135.00   0.50    0.50    --   97.60 -82.00  60.00  140
 20  \w     98.00 130.00   0.50    0.50    --   97.60  45.00-180.00   64
 21  \w     89.00 115.00   0.50    0.50    --   97.60 -82.00  90.00   52
 22  \w     81.00 183.00   0.50    0.50    --   97.60  61.00 150.00  204
;
_diffrn_measurement_device       'four-circle diffractometer'
_diffrn_measurement_device_type  'XtaLAB AFC12 (RINC): Kappa single'
_diffrn_measurement_method       '\w scans'
_diffrn_orient_matrix_type
'CrysAlisPro convention (1999,Acta A55,543-557)'
_diffrn_orient_matrix_UB_11      0.0169878000
_diffrn_orient_matrix_UB_12      -0.1730990000
_diffrn_orient_matrix_UB_13      0.0074552000
_diffrn_orient_matrix_UB_21      0.2272625000
_diffrn_orient_matrix_UB_22      0.1104245000
_diffrn_orient_matrix_UB_23      0.0694795000
_diffrn_orient_matrix_UB_31      -0.0415583000
_diffrn_orient_matrix_UB_32      0.0242963000
_diffrn_orient_matrix_UB_33      0.1391190000
_diffrn_radiation_monochromator  graphite
_diffrn_radiation_probe          x-ray
_diffrn_radiation_type           CuK\a
_diffrn_radiation_wavelength     1.5478
_diffrn_reflns_av_R_equivalents  0.0252
_diffrn_reflns_av_unetI/netI     0.0274
_diffrn_reflns_Laue_measured_fraction_full 0.982
_diffrn_reflns_Laue_measured_fraction_max 0.955
_diffrn_reflns_limit_h_max       6
_diffrn_reflns_limit_h_min       -9
_diffrn_reflns_limit_k_max       10
_diffrn_reflns_limit_k_min       -10
_diffrn_reflns_limit_l_max       12
_diffrn_reflns_limit_l_min       -12
_diffrn_reflns_number            4761
_diffrn_reflns_point_group_measured_fraction_full 0.982
_diffrn_reflns_point_group_measured_fraction_max 0.955
_diffrn_reflns_theta_full        68.230
_diffrn_reflns_theta_max         73.781
_diffrn_reflns_theta_min         4.490
_diffrn_source                   'fine-focus sealed X-ray tube'
_diffrn_source_type              'Enhance (Cu) X-ray Source'
_exptl_absorpt_coefficient_mu    11.160
_exptl_absorpt_correction_T_max  1.00000
_exptl_absorpt_correction_T_min  0.35881
_exptl_absorpt_correction_type   multi-scan
_exptl_absorpt_process_details
;
CrysAlisPro 1.171.39.27b (Rigaku Oxford Diffraction, 2015)
Empirical absorption correction using spherical harmonics,
 implemented in SCALE3 ABSPACK scaling algorithm.
;
_exptl_crystal_colour            colourless
_exptl_crystal_colour_primary    colourless
_exptl_crystal_density_diffrn    1.555
_exptl_crystal_description       block
_exptl_crystal_F_000             279
_exptl_crystal_size_max          0.04
_exptl_crystal_size_mid          0.03
_exptl_crystal_size_min          0.02
_refine_diff_density_max         0.334
_refine_diff_density_min         -0.681
_refine_diff_density_rms         0.122
_refine_ls_extinction_method     none
_refine_ls_goodness_of_fit_ref   1.100
_refine_ls_hydrogen_treatment    constr
_refine_ls_matrix_type           full
_refine_ls_number_parameters     126
_refine_ls_number_reflns         2227
_refine_ls_number_restraints     0
_refine_ls_restrained_S_all      1.100
_refine_ls_R_factor_all          0.0398
_refine_ls_R_factor_gt           0.0376
_refine_ls_shift/su_max          0.000
_refine_ls_shift/su_mean         0.000
_refine_ls_structure_factor_coef Fsqd
_refine_ls_weighting_details
'w=1/[\s^2^(Fo^2^)+(0.0690P)^2^+0.0868P] where P=(Fo^2^+2Fc^2^)/3'
_refine_ls_weighting_scheme      calc
_refine_ls_wR_factor_gt          0.0973
_refine_ls_wR_factor_ref         0.0981
_reflns_Friedel_coverage         0.000
_reflns_number_gt                2139
_reflns_number_total             2227
_reflns_threshold_expression     'I > 2\s(I)'
_iucr_refine_instructions_details
;
TITL hy_a.res in P-1
 hy.res created by SHELXL-2016/4 at 14:14:12 on 26-Feb-2020
REM Old TITL HY in P-1 #2
REM SHELXT solution in P-1
REM R1 0.098, Rweak 0.011, Alpha 0.064, Orientation as input
REM Formula found by SHELXT: C16 Cl6 Mn N4
CELL 1.5478 7.520645 8.487334 10.529076 101.9911 99.8891 112.9432
ZERR 1 0.000251 0.000265 0.000315 0.0026 0.0027 0.0031
LATT 1
SFAC C H Cl Mn N
DISP C 0.0193 0.0097 90.8895
DISP Cl 0.3694 0.7045 6304.002
DISP H -0 0 0.6551
DISP Mn -0.5661 2.8539 24854.1133
DISP N 0.0328 0.0186 175.0453
UNIT 16 28 6 1 4

L.S. 4 0 0
PLAN  20
BOND $H
list 4
htab
fmap 2 53
acta
OMIT 4 -5 10
OMIT 3 -6 11
OMIT 2 -5 7
OMIT 2 4 1
OMIT 6 -9 4
OMIT 2 -5 1
OMIT 0 -2 2
REM <olex2.extras>
REM <HklSrc "%.\\20190315A6.hkl">
REM </olex2.extras>

WGHT    0.069000    0.086800
FVAR       9.66284
MN1   4    0.000000    0.500000    0.000000    10.50000    0.02319    0.02430 =
         0.01953    0.00696    0.00653    0.01333
CL1   3    0.141977    0.267621   -0.005359    11.00000    0.02333    0.02245 =
         0.02467    0.00417    0.00526    0.01178
CL2   3    0.012136    0.523404    0.243581    11.00000    0.02924    0.03107 =
         0.01952    0.00512    0.00490    0.01539
CL3   3   -0.372601    0.238261   -0.069372    11.00000    0.02039    0.02545 =
         0.03526    0.00791    0.00116    0.00740
N1    5    0.581104    0.529805    0.186603    11.00000    0.02684    0.02860 =
         0.01794    0.00507    0.00247    0.01121
AFIX 137
H1A   2    0.518004    0.428913    0.117647    11.00000   -1.20000
H1B   2    0.713410    0.570909    0.200135    11.00000   -1.20000
H1C   2    0.543435    0.611554    0.167770    11.00000   -1.20000
AFIX   0
N2    5    1.169827    0.910435    0.835935    11.00000    0.02393    0.02489 =
         0.02814    0.00741   -0.00053    0.00882
AFIX 137
H2A   2    1.099317    0.799823    0.838726    11.00000   -1.20000
H2B   2    1.124336    0.983506    0.876826    11.00000   -1.20000
H2C   2    1.298999    0.948631    0.878021    11.00000   -1.20000
AFIX   0
C1    1    0.528433    0.493126    0.310628    11.00000    0.03941    0.02938 =
         0.01672    0.00629    0.00190    0.00029
AFIX  23
H1D   2    0.563041    0.399367    0.328132    11.00000   -1.20000
H1E   2    0.384471    0.450284    0.296102    11.00000   -1.20000
AFIX   0
C2    1    0.637208    0.658543    0.432024    11.00000    0.02950    0.02603 =
         0.01283    0.00704    0.00280    0.00423
C3    1    0.542083    0.761859    0.473137    11.00000    0.02938    0.03915 =
         0.02593    0.01374    0.00004    0.01520
AFIX  43
H3    2    0.411391    0.730776    0.424801    11.00000   -1.20000
AFIX   0
C4    1    0.641528    0.912577    0.586891    11.00000    0.04229    0.03598 =
         0.03347    0.00825    0.00343    0.02534
AFIX  43
H4    2    0.576380    0.980927    0.615123    11.00000   -1.20000
AFIX   0
C5    1    0.836097    0.960631    0.657663    11.00000    0.04031    0.02552 =
         0.02346    0.00322    0.00079    0.01335
AFIX  43
H5    2    0.902655    1.062862    0.732390    11.00000   -1.20000
AFIX   0
C6    1    0.933665    0.857667    0.618334    11.00000    0.02528    0.02887 =
         0.01676    0.00708    0.00366    0.00672
C7    1    0.832504    0.705491    0.505541    11.00000    0.03066    0.02772 =
         0.01831    0.00563    0.00799    0.01106
AFIX  43
H7    2    0.895938    0.634737    0.479164    11.00000   -1.20000
AFIX   0
C8    1    1.147924    0.909346    0.693308    11.00000    0.02354    0.04488 =
         0.02555    0.00467    0.00384    0.00801
AFIX  23
H8A   2    1.191679    0.825223    0.648035    11.00000   -1.20000
H8B   2    1.234288    1.027753    0.690750    11.00000   -1.20000
AFIX   0
HKLF 4




REM  hy_a.res in P-1
REM R1 =  0.0376 for    2139 Fo > 4sig(Fo)  and  0.0398 for all    2227 data
REM    126 parameters refined using      0 restraints

END  
     
WGHT      0.0690      0.0868 

REM Instructions for potential hydrogen bonds
HTAB N1 CL1
EQIV $1 x+1, y,
HTAB N1 CL3_$1
EQIV $2 -x+1, -y+1, -
HTAB N1 CL1_$2
HTAB N1 CL2_$1
EQIV $3 -x, -y+1, -
HTAB N1 CL3_$3
EQIV $4 -x+1, -y+1, -z+
HTAB N2 CL1_$4
HTAB N2 CL2_$4
EQIV $5 x+1, y+1, z+
HTAB N2 CL1_$5
EQIV $6 x+2, y+1, z+
HTAB N2 CL3_$6
HTAB N2 CL3_$4

REM Highest difference peak  0.334,  deepest hole -0.681,  1-sigma level  0.122
Q1    1  -0.0603  0.1041 -0.0871  11.00000  0.05    0.33
Q2    1   0.8719  0.6057  0.1980  11.00000  0.05    0.31
Q3    1  -0.1015  0.2933  0.0240  11.00000  0.05    0.30
Q4    1  -0.2376  0.1600 -0.0200  11.00000  0.05    0.30
Q5    1   0.0154  0.3424 -0.0556  11.00000  0.05    0.30
Q6    1   0.0271  0.3359  0.0433  11.00000  0.05    0.29
Q7    1   0.1766  0.1240  0.0367  11.00000  0.05    0.29
Q8    1  -0.5075  0.2637 -0.0413  11.00000  0.05    0.28
Q9    1  -0.4263  0.3772 -0.0104  11.00000  0.05    0.28
Q10   1  -0.2016  0.3714  0.0206  11.00000  0.05    0.28
Q11   1   0.3300  0.2708 -0.0127  11.00000  0.05    0.28
Q12   1   0.2929  0.4823 -0.0232  11.00000  0.05    0.28
Q13   1   1.0401  0.9797  0.9831  11.00000  0.05    0.27
Q14   1   0.1632  0.2942 -0.0762  11.00000  0.05    0.27
Q15   1   0.3008  0.1988  0.0365  11.00000  0.05    0.27
Q16   1   1.0641  0.8622  0.8911  11.00000  0.05    0.27
Q17   1  -0.3131  0.0937 -0.0364  11.00000  0.05    0.27
Q18   1   0.8004  0.5428  0.3420  11.00000  0.05    0.26
Q19   1  -0.0548  0.1207 -0.0004  11.00000  0.05    0.26
Q20   1   1.3993  1.0922  0.8892  11.00000  0.05    0.26

  REM The information below was added by Olex2.
  REM
  REM R1 = 0.0376 for 2139 Fo > 4sig(Fo) and 0.0398 for all 4773 data
  REM n/a parameters refined using n/a restraints
  REM Highest difference peak 0.33, deepest hole -0.68
  REM Mean Shift 0, Max Shift 0.000.

  REM +++ Tabular Listing of Refinement Information +++
  REM R1_all = 0.0398
  REM R1_gt = 0.0376
  REM wR_ref = 0.0981
  REM GOOF = 1.100
  REM Shift_max = 0.000
  REM Shift_mean = 0
  REM Reflections_all = 4773
  REM Reflections_gt = 2139
  REM Parameters = n/a
  REM Hole = -0.68
  REM Peak = 0.33
  REM Flack = n/a

  
;
_cod_data_source_file            d1dt03206b2.cif
_cod_data_source_block           2
_cod_original_cell_volume        581.09(3)
_cod_database_code               7708693
_shelx_shelxl_version_number     2016/4
_shelx_space_group_comment
;
The symmetry employed for this shelxl refinement is uniquely defined
by the following loop, which should always be used as a source of
symmetry information in preference to the above space-group names.
They are only intended as comments.
;
_reflns_odcompleteness_completeness 98.22
_reflns_odcompleteness_iscentric 1
_reflns_odcompleteness_theta     66.97
_olex2_refinement_description
;
1. Fixed Uiso
 At 1.2 times of:
  All C(H) groups, All C(H,H) groups, All N(H,H,H) groups
2.a Secondary CH2 refined with riding coordinates:
 C1(H1D,H1E), C8(H8A,H8B)
2.b Aromatic/amide H refined with riding coordinates:
 C3(H3), C4(H4), C5(H5), C7(H7)
2.c Idealised Me refined as rotating group:
 N1(H1A,H1B,H1C), N2(H2A,H2B,H2C)
;
_olex2_submission_special_instructions 'No special instructions were received'
_oxdiff_exptl_absorpt_empirical_details
;
Empirical correction (ABSPACK) includes:
- Absorption correction using spherical harmonics
- Frame scaling
;
_oxdiff_exptl_absorpt_empirical_full_max 3.013
_oxdiff_exptl_absorpt_empirical_full_min 0.643
loop_
_space_group_symop_operation_xyz
'x, y, z'
'-x, -y, -z'
loop_
_atom_site_label
_atom_site_type_symbol
_atom_site_fract_x
_atom_site_fract_y
_atom_site_fract_z
_atom_site_U_iso_or_equiv
_atom_site_adp_type
_atom_site_occupancy
_atom_site_site_symmetry_order
_atom_site_calc_flag
_atom_site_refinement_flags_posn
_atom_site_refinement_flags_adp
_atom_site_refinement_flags_occupancy
_atom_site_disorder_assembly
_atom_site_disorder_group
Mn1 Mn 0.000000 0.500000 0.000000 0.02126(15) Uani 1 2 d S T P . .
Cl1 Cl 0.14198(7) 0.26762(6) -0.00536(5) 0.02363(15) Uani 1 1 d . . . . .
Cl2 Cl 0.01214(7) 0.52340(7) 0.24358(5) 0.02661(16) Uani 1 1 d . . . . .
Cl3 Cl -0.37260(7) 0.23826(7) -0.06937(6) 0.02908(16) Uani 1 1 d . . . . .
N1 N 0.5811(3) 0.5298(2) 0.18660(18) 0.0257(4) Uani 1 1 d . . . . .
H1A H 0.518004 0.428913 0.117647 0.031 Uiso 1 1 calc GR . . . .
H1B H 0.713410 0.570909 0.200135 0.031 Uiso 1 1 calc GR . . . .
H1C H 0.543435 0.611554 0.167770 0.031 Uiso 1 1 calc GR . . . .
N2 N 1.1698(3) 0.9104(2) 0.83594(19) 0.0275(4) Uani 1 1 d . . . . .
H2A H 1.099317 0.799823 0.838726 0.033 Uiso 1 1 calc GR . . . .
H2B H 1.124336 0.983506 0.876826 0.033 Uiso 1 1 calc GR . . . .
H2C H 1.298999 0.948631 0.878021 0.033 Uiso 1 1 calc GR . . . .
C1 C 0.5284(4) 0.4931(3) 0.3106(2) 0.0344(5) Uani 1 1 d . . . . .
H1D H 0.563041 0.399367 0.328132 0.041 Uiso 1 1 calc R . . . .
H1E H 0.384471 0.450284 0.296102 0.041 Uiso 1 1 calc R . . . .
C2 C 0.6372(3) 0.6585(3) 0.4320(2) 0.0257(4) Uani 1 1 d . . . . .
C3 C 0.5421(4) 0.7619(3) 0.4731(2) 0.0319(5) Uani 1 1 d . . . . .
H3 H 0.411391 0.730776 0.424801 0.038 Uiso 1 1 calc R . . . .
C4 C 0.6415(4) 0.9126(3) 0.5869(3) 0.0359(5) Uani 1 1 d . . . . .
H4 H 0.576380 0.980927 0.615123 0.043 Uiso 1 1 calc R . . . .
C5 C 0.8361(4) 0.9606(3) 0.6577(2) 0.0320(5) Uani 1 1 d . . . . .
H5 H 0.902655 1.062862 0.732390 0.038 Uiso 1 1 calc R . . . .
C6 C 0.9337(3) 0.8577(3) 0.6183(2) 0.0257(4) Uani 1 1 d . . . . .
C7 C 0.8325(3) 0.7055(3) 0.5055(2) 0.0262(4) Uani 1 1 d . . . . .
H7 H 0.895938 0.634737 0.479164 0.031 Uiso 1 1 calc R . . . .
C8 C 1.1479(3) 0.9093(4) 0.6933(2) 0.0351(5) Uani 1 1 d . . . . .
H8A H 1.191679 0.825223 0.648035 0.042 Uiso 1 1 calc R . . . .
H8B H 1.234288 1.027753 0.690750 0.042 Uiso 1 1 calc R . . . .
loop_
_atom_site_aniso_label
_atom_site_aniso_U_11
_atom_site_aniso_U_22
_atom_site_aniso_U_33
_atom_site_aniso_U_23
_atom_site_aniso_U_13
_atom_site_aniso_U_12
Mn1 0.0232(3) 0.0243(3) 0.0195(3) 0.00696(18) 0.00653(19) 0.0133(2)
Cl1 0.0233(3) 0.0225(2) 0.0247(3) 0.00417(19) 0.0053(2) 0.01178(19)
Cl2 0.0292(3) 0.0311(3) 0.0195(3) 0.00512(19) 0.0049(2) 0.0154(2)
Cl3 0.0204(3) 0.0254(3) 0.0353(3) 0.0079(2) 0.0012(2) 0.0074(2)
N1 0.0268(9) 0.0286(9) 0.0179(9) 0.0051(7) 0.0025(7) 0.0112(7)
N2 0.0239(9) 0.0249(8) 0.0281(10) 0.0074(7) -0.0005(7) 0.0088(7)
C1 0.0394(13) 0.0294(11) 0.0167(11) 0.0063(9) 0.0019(9) 0.0003(10)
C2 0.0295(10) 0.0260(10) 0.0128(10) 0.0070(8) 0.0028(8) 0.0042(8)
C3 0.0294(11) 0.0391(12) 0.0259(12) 0.0137(9) 0.0000(9) 0.0152(10)
C4 0.0423(13) 0.0360(12) 0.0335(13) 0.0083(10) 0.0034(11) 0.0253(11)
C5 0.0403(13) 0.0255(10) 0.0235(11) 0.0032(8) 0.0008(9) 0.0133(9)
C6 0.0253(10) 0.0289(10) 0.0168(10) 0.0071(8) 0.0037(8) 0.0067(8)
C7 0.0307(11) 0.0277(10) 0.0183(11) 0.0056(8) 0.0080(9) 0.0111(9)
C8 0.0235(11) 0.0449(13) 0.0255(12) 0.0047(10) 0.0038(9) 0.0080(10)
loop_
_atom_type_symbol
_atom_type_description
_atom_type_scat_dispersion_real
_atom_type_scat_dispersion_imag
_atom_type_scat_source
C C 0.0193 0.0097 'International Tables Vol C Tables 4.2.6.8 and 6.1.1.4'
H H 0.0000 0.0000 'International Tables Vol C Tables 4.2.6.8 and 6.1.1.4'
Cl Cl 0.3694 0.7045 'International Tables Vol C Tables 4.2.6.8 and 6.1.1.4'
Mn Mn -0.5661 2.8539 'International Tables Vol C Tables 4.2.6.8 and 6.1.1.4'
N N 0.0328 0.0186 'International Tables Vol C Tables 4.2.6.8 and 6.1.1.4'
loop_
_geom_angle_atom_site_label_1
_geom_angle_atom_site_label_2
_geom_angle_atom_site_label_3
_geom_angle
_geom_angle_site_symmetry_1
_geom_angle_site_symmetry_3
_geom_angle_publ_flag
Cl1 Mn1 Cl1 180.0 2_565 . ?
Cl1 Mn1 Cl3 89.852(15) . 2_565 ?
Cl1 Mn1 Cl3 89.851(15) 2_565 . ?
Cl1 Mn1 Cl3 90.149(15) 2_565 2_565 ?
Cl1 Mn1 Cl3 90.149(15) . . ?
Cl2 Mn1 Cl1 88.831(16) . . ?
Cl2 Mn1 Cl1 91.169(16) 2_565 . ?
Cl2 Mn1 Cl1 91.168(16) . 2_565 ?
Cl2 Mn1 Cl1 88.832(16) 2_565 2_565 ?
Cl2 Mn1 Cl2 180.0 2_565 . ?
Cl2 Mn1 Cl3 91.587(17) . 2_565 ?
Cl2 Mn1 Cl3 88.413(17) 2_565 2_565 ?
Cl2 Mn1 Cl3 91.586(17) 2_565 . ?
Cl2 Mn1 Cl3 88.414(17) . . ?
Cl3 Mn1 Cl3 180.0 2_565 . ?
H1A N1 H1B 109.5 . . ?
H1A N1 H1C 109.5 . . ?
H1B N1 H1C 109.5 . . ?
C1 N1 H1A 109.5 . . ?
C1 N1 H1B 109.5 . . ?
C1 N1 H1C 109.5 . . ?
H2A N2 H2B 109.5 . . ?
H2A N2 H2C 109.5 . . ?
H2B N2 H2C 109.5 . . ?
C8 N2 H2A 109.5 . . ?
C8 N2 H2B 109.5 . . ?
C8 N2 H2C 109.5 . . ?
N1 C1 H1D 109.3 . . ?
N1 C1 H1E 109.3 . . ?
N1 C1 C2 111.72(17) . . ?
H1D C1 H1E 107.9 . . ?
C2 C1 H1D 109.3 . . ?
C2 C1 H1E 109.3 . . ?
C3 C2 C1 120.2(2) . . ?
C3 C2 C7 119.5(2) . . ?
C7 C2 C1 120.2(2) . . ?
C2 C3 H3 119.9 . . ?
C2 C3 C4 120.1(2) . . ?
C4 C3 H3 119.9 . . ?
C3 C4 H4 119.9 . . ?
C5 C4 C3 120.2(2) . . ?
C5 C4 H4 119.9 . . ?
C4 C5 H5 119.7 . . ?
C4 C5 C6 120.5(2) . . ?
C6 C5 H5 119.7 . . ?
C5 C6 C7 119.1(2) . . ?
C5 C6 C8 121.4(2) . . ?
C7 C6 C8 119.5(2) . . ?
C2 C7 C6 120.5(2) . . ?
C2 C7 H7 119.7 . . ?
C6 C7 H7 119.7 . . ?
N2 C8 C6 112.21(18) . . ?
N2 C8 H8A 109.2 . . ?
N2 C8 H8B 109.2 . . ?
C6 C8 H8A 109.2 . . ?
C6 C8 H8B 109.2 . . ?
H8A C8 H8B 107.9 . . ?
loop_
_geom_bond_atom_site_label_1
_geom_bond_atom_site_label_2
_geom_bond_distance
_geom_bond_site_symmetry_2
_geom_bond_publ_flag
Mn1 Cl1 2.5787(4) . ?
Mn1 Cl1 2.5786(4) 2_565 ?
Mn1 Cl2 2.5138(5) . ?
Mn1 Cl2 2.5138(5) 2_565 ?
Mn1 Cl3 2.6627(5) 2_565 ?
Mn1 Cl3 2.6628(5) . ?
N1 H1A 0.8900 . ?
N1 H1B 0.8900 . ?
N1 H1C 0.8900 . ?
N1 C1 1.486(3) . ?
N2 H2A 0.8900 . ?
N2 H2B 0.8900 . ?
N2 H2C 0.8900 . ?
N2 C8 1.480(3) . ?
C1 H1D 0.9700 . ?
C1 H1E 0.9700 . ?
C1 C2 1.508(3) . ?
C2 C3 1.381(3) . ?
C2 C7 1.393(3) . ?
C3 H3 0.9300 . ?
C3 C4 1.393(3) . ?
C4 H4 0.9300 . ?
C4 C5 1.377(3) . ?
C5 H5 0.9300 . ?
C5 C6 1.388(3) . ?
C6 C7 1.394(3) . ?
C6 C8 1.510(3) . ?
C7 H7 0.9300 . ?
C8 H8A 0.9700 . ?
C8 H8B 0.9700 . ?
loop_
_refln_index_h
_refln_index_k
_refln_index_l
_refln_F_squared_meas
_refln_F_squared_sigma
_refln_scale_group_code
0 0 -1 101854 1500.14 1
0 0 1 104475 1501.04 1
0 0 -2 112253 1710.18 1
0 0 2 116044 1707.2 1
0 0 3 143101 2187.37 1
0 0 -3 147038 2211.49 1
0 0 -4 213827 3271.16 3
0 0 4 209748 3183.28 1
0 0 -5 71171.7 1322.65 3
0 0 6 23776.1 713.644 5
0 0 7 10916.5 510.932 15
0 0 7 9743.01 485.568 5
0 0 8 22407.5 809.768 15
0 0 8 21935.6 834.925 5
0 0 9 12833.6 706.348 5
0 0 9 12284.5 620.593 15
0 0 10 7533.84 493.532 19
0 0 10 6967.38 575.673 5
0 0 11 5865.52 404.176 19
0 0 11 6637.22 526.305 5
0 0 12 51995.9 1165.62 19
0 0 12 54635.6 1178.09 5
0 -1 12 14569.8 546.527 19
0 -1 12 17559.5 662.574 5
0 -1 11 462.879 168.373 19
0 -1 11 -127.753 358.766 5
0 -1 10 599.485 254.398 5
0 -1 9 23112.9 721.981 18
0 -1 9 21770.7 871.786 5
0 -1 8 15221.5 550.305 18
0 -1 8 15519.4 663.792 5
0 -1 7 20022 591.029 18
0 -1 7 18185.8 657.474 5
0 -1 6 4058.72 278.689 22
0 -1 6 3412 238.231 5
0 1 -5 326036 4939.72 3
0 1 -4 461640 6248.23 3
0 -1 4 460809 6064.5 1
0 -1 3 79987 1175.23 1
0 1 -3 77242.5 1291.13 3
0 -1 2 53577.5 864.98 3
0 1 -2 50651 853.439 3
0 -1 1 120362 1744.81 1
0 -1 0 138962 2070.09 1
0 1 0 141421 2076.69 1
0 -1 0 142832 2074.17 4
0 1 0 139176 2069.72 4
0 -1 -1 81080.5 1226.23 4
0 1 1 82418.5 1256.69 4
0 -1 -2 102599 1653.27 1
0 -1 -2 100240 1635.29 4
0 -1 -3 37642.1 748.16 1
0 1 3 36861.9 614.535 2
0 -1 -3 39269.4 744.639 4
0 1 4 166660 2675.66 1
0 -1 -4 169173 2654.52 4
0 -1 -4 170622 2724.94 1
0 1 5 17606.9 558.404 5
0 -1 -5 19713.8 487.536 4
0 1 6 2990.43 259.706 5
0 1 7 1550.81 240.194 5
0 1 7 1229.44 208.152 15
0 1 8 40273.1 1226.38 15
0 1 8 40529.1 1220.09 5
0 1 9 21474.5 892.988 5
0 1 9 20322.1 838.451 15
0 1 9 18933.6 796.878 19
0 1 10 1737.42 263.324 19
0 1 10 2841 428.211 5
0 1 11 10905.3 502.078 5
0 1 11 7603.14 435.701 19
0 -2 12 3150.37 393.197 5
0 -2 12 2890.58 222.285 19
0 -2 11 6713.84 413.991 19
0 -2 11 8585.54 545.415 5
0 -2 10 3947.84 324.765 18
0 -2 10 824.139 250.585 5
0 -2 9 12497.9 545.994 18
0 -2 9 11871.6 625.127 5
0 -2 8 27115.9 875.029 5
0 -2 8 26844 785.655 18
0 -2 7 11681 496.573 5
0 -2 7 11645.1 544.601 22
0 -2 6 4377.15 266.345 5
0 -2 6 4474.13 294.092 22
0 2 -5 11748.4 398.99 3
0 2 -5 10892.5 282.58 2
0 -2 4 29323.7 678.62 3
0 -2 3 12058.8 215.254 1
0 -2 3 12472 341.151 3
0 -2 2 710901 10104.3 1
0 -2 2 709208 10206.8 3
0 -2 1 75097 1204.49 1
0 2 -1 76673.7 1247.43 4
0 2 0 19006.4 423.464 4
0 -2 0 20726.4 451.547 1
0 2 1 243265 3805.6 4
0 -2 -1 261826 3781.18 4
0 2 2 349482 5092.78 1
0 -2 -2 334536 5018.52 4
0 -2 -2 335326 5084.88 1
0 -2 -3 1605.88 137.695 1
0 -2 -3 1867.22 126.505 4
0 2 4 35089.1 923.077 5
0 -2 -4 37291.9 883.741 1
0 -2 -4 35289.6 760.448 4
0 2 5 22356.4 734.413 5
0 2 6 455.402 169.226 5
0 2 7 6732.51 435.985 19
0 2 7 7816.16 521.998 15
0 2 7 6938.52 483.134 5
0 2 8 1223.37 251.542 15
0 2 8 1854.48 390.296 5
0 2 8 1069.19 227.63 19
0 2 9 7065.41 571.584 5
0 2 9 6769.17 486.638 15
0 2 9 6334.85 458.231 19
0 2 10 7145 439.066 19
0 2 10 9779.39 511.141 5
0 2 11 432.374 104.53 19
0 2 11 614.955 120.374 5
0 -3 12 13836.2 674.592 5
0 -3 11 4574.85 332.636 18
0 -3 11 1068.36 260.149 5
0 -3 10 4304.21 415.749 5
0 -3 10 5604.68 387.427 18
0 -3 9 9739.71 494.772 18
0 -3 9 10363.2 567.037 5
0 -3 8 6906.39 427.833 5
0 -3 8 6934.97 392.907 18
0 -3 8 6716.07 458.265 22
0 -3 7 18018.6 633.735 8
0 -3 7 16354 681.084 22
0 -3 7 17601.4 650.71 5
0 -3 6 4237.36 292.036 5
0 -3 6 4363.46 294.209 8
0 -3 6 4266.66 311.463 22
0 -3 6 4138.47 254.135 14
0 -3 5 15257.8 542.312 5
0 -3 5 17734.9 581.17 3
0 -3 4 1411.36 138.073 3
0 -3 3 93488.8 1625.5 3
0 -3 3 93963.1 1468.39 1
0 3 -2 66921.9 1238.28 4
0 -3 2 69388.7 1162.76 1
0 -3 1 2527.66 145.988 1
0 3 -1 2388.94 156.024 4
0 -3 0 141477 2256.76 1
0 3 0 136218 2247.83 4
0 3 1 157286 2616.36 4
0 -3 -1 160946 2603.42 1
0 -3 -2 31167.9 717.076 4
0 3 3 167301 2757.48 19
0 -3 -3 159844 2662.27 4
0 3 4 113702 2074.1 19
0 3 4 105035 2194.99 5
0 3 5 15975.8 611.186 19
0 3 5 15337.4 658.801 5
0 3 6 723.228 229.453 5
0 3 6 987.501 196.692 19
0 3 7 10415.3 635.513 15
0 3 7 9810.66 543.388 19
0 3 7 9630.91 574.525 5
0 3 8 13112 652.05 5
0 3 8 12678.5 625.781 19
0 3 8 12408.8 702.282 15
0 3 9 2241.52 273.754 5
0 3 9 1766.97 264.833 15
0 3 9 1494.37 223.096 19
0 3 10 1936.53 196.305 19
0 3 10 1686.71 178.565 5
0 -4 12 23292.7 823.206 5
0 -4 11 820.853 233.345 5
0 -4 11 4843.87 345.215 18
0 -4 10 2384.12 298.822 18
0 -4 10 1319.2 271.202 5
0 -4 9 28759 918.858 18
0 -4 9 27601 1023.09 22
0 -4 8 15828.3 671.758 8
0 -4 8 15951.5 736.165 22
0 -4 8 17583.4 730.783 5
0 -4 7 603.444 171.439 22
0 -4 7 297.648 119.987 14
0 -4 7 260.884 144.999 5
0 -4 7 112.205 113.703 8
0 -4 6 22197.3 810.641 22
0 -4 6 21687.6 717.14 14
0 -4 6 23168.7 776.654 8
0 -4 6 23470.3 806.915 5
0 -4 5 17793 682.108 22
0 -4 5 18146.7 701.097 5
0 -4 5 18761.4 633.49 14
0 -4 5 19187.7 670.217 8
0 -4 5 19310.7 747.522 16
0 -4 4 223298 3750.04 8
0 -4 4 223967 3708.58 14
0 -4 4 226615 3822.61 16
0 -4 3 51900.8 1235.11 10
0 -4 3 50974.2 1148.89 8
0 -4 3 50563.8 960.692 1
0 -4 3 51189.5 1185.4 16
0 -4 2 123041 2130.73 3
0 -4 2 120996 2044.05 1
0 4 -2 121475 2135.6 4
0 4 -1 439389 6707.23 4
0 -4 1 431913 6663.73 1
0 -4 0 367096 5578.26 12
0 4 0 352011 5545.74 4
0 -4 0 360671 5520.54 1
0 4 1 48682.9 1148.77 4
0 -4 -1 51015.1 1130.85 12
0 -4 -2 24955.2 747.371 12
0 4 2 26633.8 773.155 19
0 -4 -3 93367.6 1837.68 12
0 4 3 94453.2 1893.71 19
0 -4 -4 146831 2629.19 12
0 4 4 143456 2707.93 19
0 4 5 4354.92 351.346 19
0 -4 -5 4374.82 314.36 12
0 4 5 3543.09 369.617 5
0 4 6 1902.03 248.895 19
0 4 6 1867.17 291.127 15
0 -4 -6 1955.84 214.707 12
0 4 6 1593.82 267.184 5
0 4 7 582.63 203.299 5
0 4 7 463.863 164.508 19
0 4 8 24228.4 791.521 19
0 4 8 23610.2 894.13 15
0 4 8 21430.4 756.769 5
0 4 9 9394.13 400.284 19
0 4 9 9113.43 399.825 5
0 -5 12 10714.1 514.417 5
0 -5 11 427.79 212.466 5
0 -5 11 4078.22 321.165 18
0 -5 10 691.594 231.218 5
0 -5 9 29795 955.801 18
0 -5 9 27942.6 1004.5 22
0 -5 9 31583 1083.88 5
0 -5 8 20365.3 792.961 14
0 -5 8 19860.9 851.848 22
0 -5 8 20903.7 832.101 8
0 -5 8 21375.6 763.418 18
0 -5 8 22566.5 900.692 5
0 -5 7 24119.2 946.772 22
0 -5 7 24909 915.18 8
0 -5 7 24550.4 873.033 14
0 -5 6 100614 2089.14 14
0 -5 6 99134.4 2147.3 8
0 -5 6 103333 2259.42 5
0 -5 6 96107.6 2201.98 22
0 -5 5 183239 3523.08 16
0 -5 5 182292 3508.51 22
0 -5 5 195075 3646.67 10
0 -5 5 187330 3401.23 8
0 -5 5 186538 3338.3 14
0 -5 4 149928 2968.62 16
0 -5 4 152406 3091.97 22
0 -5 3 25739.8 800.051 14
0 -5 3 27613 960.684 22
0 -5 2 43057.2 1230.86 22
0 -5 2 41174.4 1140.04 10
0 -5 1 63182 1412.6 14
0 -5 1 64560.4 1525.34 10
0 -5 1 66242.3 1491.64 12
0 -5 1 67627.7 1622.55 22
0 -5 0 186419 3239.31 14
0 -5 0 184673 3269.97 10
0 -5 0 179851 3241.58 12
0 -5 -1 2097.35 231.088 10
0 -5 -1 1825.69 219.462 12
0 -5 -2 16478.7 647.123 12
0 5 3 8503.52 488.306 19
0 -5 -3 8095.94 450.033 12
0 -5 -4 25523.7 820.957 12
0 5 4 25837.6 889.622 19
0 5 4 23544.4 894.119 15
0 5 5 267.197 151.912 15
0 5 5 80.8501 191.092 5
0 -5 -5 411.266 141.971 12
0 5 5 160.672 137.409 19
0 5 6 110.254 165.278 5
0 5 6 186.285 167.43 15
0 5 6 84.6299 119.579 19
0 5 7 26463.5 784.179 19
0 5 7 24917 806.338 5
0 -6 12 4211.8 285.614 5
0 -6 11 3676.33 334.726 5
0 -6 10 5122.54 427.216 5
0 -6 10 7903.16 450.242 18
0 -6 9 33648.6 984.625 18
0 -6 9 37363.1 1157.07 5
0 -6 8 10684 529.061 18
0 -6 8 9821.8 581.741 22
0 -6 8 10696.8 606.537 14
0 -6 7 433.099 164.426 18
0 -6 7 550.576 229.781 5
0 -6 7 618.569 203.142 14
0 -6 7 629.462 212.619 22
0 -6 6 1721.34 211.442 18
0 -6 6 2067.47 333.066 5
0 -6 6 1706.23 282.409 22
0 -6 6 1897.91 284.675 14
0 -6 5 10124.1 571.194 14
0 -6 5 10466.7 642.112 16
0 -6 5 11059.8 674.848 22
0 -6 4 1353.7 253.37 16
0 -6 4 1535.37 294.062 22
0 -6 4 1477.59 241.689 14
0 -6 3 27773.6 954.223 14
0 -6 3 30394 1165.22 22
0 -6 2 23640.2 855.628 14
0 -6 2 25911.6 1063.54 22
0 -6 2 24989.4 992.98 10
0 -6 1 2000.13 262.797 14
0 -6 1 2013.19 277.14 10
0 -6 1 2149.05 316.115 22
0 -6 0 4497.69 381.932 12
0 -6 0 4297.03 378.949 10
0 -6 0 3969.39 402.914 22
0 -6 -1 38522.1 1153.07 12
0 -6 -1 39577.7 1290.72 22
0 -6 -1 40663 1191.97 10
0 -6 -2 21953.9 817.796 12
0 6 2 21037.1 750.131 15
0 6 3 15553.2 652.761 15
0 -6 -3 16057.7 664.549 12
0 6 4 7820.09 460.937 15
0 -6 -4 8077.64 438.025 12
0 6 5 668.473 172.342 15
0 6 6 2670.95 251.873 15
0 -6 -6 2575.07 249.872 22
0 -6 -7 2005.27 171.457 22
0 -7 11 3229.57 265.453 5
0 -7 10 386.565 165.411 5
0 -7 9 3356.45 349.315 5
0 -7 9 5558.85 345.873 18
0 -7 8 1413.67 225.669 22
0 -7 8 1923.43 320.922 5
0 -7 7 3806.82 396.73 14
0 -7 7 4908.71 315.059 18
0 -7 7 5122.38 474.654 5
0 -7 7 3596.82 373.696 22
0 -7 6 8744.57 606.054 22
0 -7 6 9190.45 593.288 14
0 -7 6 10699.9 702.24 5
0 -7 5 829.116 282.926 5
0 -7 5 495.835 230.019 14
0 -7 5 688.832 228.773 22
0 -7 5 531.387 229.644 16
0 -7 4 21065.4 1051.31 22
0 -7 4 19840.9 1009.45 10
0 -7 4 19351.3 846.85 14
0 -7 3 29224.3 1127.39 20
0 -7 3 32683.8 1302.39 22
0 -7 3 29786.8 1059.76 14
0 -7 3 26725.6 1098.66 16
0 -7 3 31714.6 1251.67 10
0 -7 2 8483.89 640.22 22
0 -7 2 9582.32 656.298 10
0 -7 2 7736.09 554.698 16
0 -7 1 14798.2 827.094 22
0 -7 1 15279.7 764.715 16
0 -7 1 16514 831.755 10
0 -7 0 24257.8 935.449 16
0 -7 0 27327.3 1065.23 10
0 -7 0 24502.7 1044.85 22
0 -7 -1 1190.19 236.498 16
0 -7 -1 1313.63 240.505 10
0 -7 -1 1193.88 283.706 22
0 -7 -2 749.08 188.974 16
0 -7 -2 762.444 229.467 22
0 -7 -3 20028.3 692.933 16
0 -7 -3 19751.5 784.202 22
0 -7 -4 20233.2 712.691 22
0 7 5 385.582 96.0467 13
0 -8 10 634.6 133.667 5
0 -8 9 10980.9 505.454 5
0 -8 8 1273.33 229.788 5
0 -8 7 1003.55 245.581 5
0 -8 6 7188.03 535.912 5
0 -8 6 5287.44 439.838 22
0 -8 5 32166.7 1185.39 22
0 -8 5 30042.7 1182.44 16
0 -8 4 19901.5 952.783 22
0 -8 3 22670 1025.06 22
0 -8 3 20142.7 896.297 16
0 -8 2 19546.7 911.561 22
0 -8 2 18411.2 828.379 16
0 -8 2 18608.6 812.778 20
0 -8 1 74441.4 1806.83 16
0 -8 1 74003.9 1879.46 22
0 -8 0 47049.2 1365.08 22
0 -8 0 48815.2 1304.85 16
0 -8 -1 4983.26 347.209 16
0 -8 -1 4899.8 381.366 22
0 -8 -2 9406.39 408.011 16
0 -8 -2 9328.39 460.728 22
0 8 3 14509.7 536.429 13
0 -8 -3 15497.3 523.955 22
0 -9 8 25193.6 681.396 5
0 -9 7 13735.9 534.95 5
0 -9 6 33581.1 958.72 5
0 -9 5 56333.5 1381.36 5
0 -9 4 17147.6 690.739 5
0 -9 4 13675.9 585.847 22
0 -9 3 16819.1 677.262 5
0 -9 3 16616.8 679.818 16
0 -9 3 15076.7 621.871 22
0 9 -2 16549.4 586.385 13
0 -9 2 17187.5 652.467 16
0 -9 2 16169.5 625.044 22
0 -9 1 28126 795.718 16
0 9 -1 26287.6 771.199 13
0 -9 1 27341 797.646 22
0 9 0 5646.66 307.565 13
0 -9 0 5625.95 282.526 16
0 -9 0 5569.43 302.822 22
1 -10 3 1448.56 137.298 5
1 -10 4 5934.69 269.85 5
1 -10 5 2327.03 163.499 5
1 -9 -2 6620.43 299.501 20
-1 9 2 6274.47 318.688 13
1 -9 -2 6869.58 313.014 22
1 -9 -1 4054.72 283.408 22
1 -9 -1 3975.91 267.87 20
-1 9 1 3908.06 287.511 13
-1 9 0 16017.9 628.31 13
1 -9 0 16485.4 614.464 20
1 -9 0 16958.1 652.314 22
1 -9 0 16511.2 576.391 16
1 -9 1 14481 592.773 16
1 -9 1 13729.8 587.181 20
-1 9 -1 14971.2 621.554 13
1 -9 1 15183.1 660.052 22
1 -9 2 35394.2 1058.12 16
1 -9 2 35039.3 1109.78 22
-1 9 -2 35437.9 1014.56 13
1 -9 2 32758 994.922 20
1 -9 3 2366.13 302.876 22
1 -9 4 17862.1 730.536 5
1 -9 4 17864.4 767.745 22
1 -9 5 7479.61 441.487 5
1 -9 5 7578.15 496.962 22
1 -9 6 2693.34 272.174 5
1 -9 6 2635.32 290.03 22
1 -9 7 6439.77 369.645 5
1 -9 7 5652.74 371.924 22
1 -9 8 4464.46 268.442 5
-1 8 4 25191.3 743.756 13
1 -8 -4 26641.4 730.542 22
-1 8 3 62397.9 1462.35 13
1 -8 -1 16510.5 759.182 22
1 -8 -1 17372.8 676.582 16
1 -8 0 33705.6 1056.33 16
1 -8 0 32806.9 1169.84 22
1 -8 1 39083 1287.47 22
1 -8 1 38531.2 1203.2 16
1 -8 2 676.498 238.632 22
1 -8 2 603.84 211.038 16
1 -8 2 645.167 200.267 20
1 -8 3 1113.94 301.404 22
1 -8 3 1031.15 242.83 20
1 -8 3 1066.04 261.768 16
-1 8 -3 1023.86 214.331 13
1 -8 4 14492.4 735.554 20
1 -8 4 12950.1 752.569 16
1 -8 4 14093.6 796.423 22
1 -8 5 30102.7 1170.4 22
1 -8 5 31341.6 1122.21 5
1 -8 6 20997.8 945.802 22
1 -8 6 21496.3 867.933 5
1 -8 7 406.103 193.65 22
1 -8 7 680.333 213.554 5
1 -8 8 45014.1 1166.1 5
1 -8 8 39356.1 1228.08 22
1 -8 9 43755.6 1169.09 22
1 -8 9 52140.2 1185.91 5
1 -8 10 28577.7 748.345 5
1 -7 -6 4265.43 259.613 22
1 -7 -5 2290.24 248.205 22
-1 7 5 2846.45 267.081 13
1 -7 -4 19287 761.921 22
1 -7 -3 11475.6 613.047 22
1 -7 -2 2749.7 285.302 16
1 -7 -1 1275.03 227.703 16
1 -7 0 8081.82 531.115 10
1 -7 0 7150.26 478.097 16
1 -7 0 7952.58 559.451 22
1 -7 1 36413.2 1245 10
1 -7 1 36555.4 1261.61 22
1 -7 1 37267 1185.71 16
1 -7 2 233.671 188.814 22
1 -7 2 168.575 176.473 10
1 -7 2 384.263 186.152 16
1 -7 3 171.498 169.847 16
1 -7 3 351.838 184.918 20
1 -7 3 283.477 188.921 22
1 -7 4 39171.5 1365.21 22
1 -7 4 35196.6 1241.77 16
1 -7 4 37415.8 1259.84 20
1 -7 5 57791.2 1734.16 22
1 -7 5 57561.2 1617.74 14
1 -7 5 60291.7 1679.11 5
1 -7 6 1375.5 285.173 22
1 -7 6 1500.14 280.035 5
1 -7 7 11844.4 729.676 22
1 -7 7 13055.6 686.435 5
1 -7 7 13947.5 550.794 18
1 -7 8 28573.2 1110.14 22
1 -7 8 30748.3 886.813 18
1 -7 9 40235.2 1117.88 5
1 -7 9 34572.1 1140.14 22
1 -7 10 600.432 148.125 22
1 -7 10 658.019 171.507 5
1 -7 11 904.949 150.465 5
-1 6 7 182.911 85.1801 21
1 -6 -7 189.929 111.327 22
-1 6 7 222.353 84.8366 19
-1 6 6 19971.9 751.984 15
-1 6 6 20101.3 693.138 19
1 -6 -6 21764.6 769.96 22
-1 6 5 33500 1054.16 15
-1 6 5 37162.6 1059.36 19
-1 6 4 5438.69 402.662 15
-1 6 4 6367.91 432.661 19
1 -6 -3 2627.23 257.757 12
-1 6 3 2193.89 254.773 15
-1 6 3 2558.92 295.136 19
-1 6 2 8501.88 506.667 19
1 -6 -2 7673.63 436.493 12
1 -6 0 4654.37 354.004 16
1 -6 0 4449.13 397.819 22
1 -6 1 7047.61 482.023 10
1 -6 1 6550.73 429.664 16
1 -6 1 6631.18 469.796 22
1 -6 2 268.672 155.555 22
1 -6 2 266.862 148.264 16
1 -6 2 236.914 161.402 10
1 -6 3 8568.89 510.35 16
1 -6 3 8687.07 561.456 10
1 -6 3 7999.59 489.67 14
1 -6 3 7764.49 493.247 20
1 -6 3 8433.38 535.312 22
1 -6 4 16718.7 799.996 22
1 -6 4 15228.3 714.256 20
1 -6 5 53696 1427.98 14
1 -6 5 53737.3 1485.59 5
1 -6 5 50172.1 1524.51 22
1 -6 5 49078.6 1138.42 18
1 -6 5 48148.2 1394.41 20
1 -6 6 17947.3 771.305 14
1 -6 6 17315.8 627.491 18
1 -6 6 17083.7 850.319 22
1 -6 6 19288.9 825.405 5
1 -6 7 32018.2 1073.94 14
1 -6 7 34626.6 1153.91 5
1 -6 7 32210.5 1196.6 22
1 -6 7 32119.6 936.086 18
1 -6 8 252.084 188.852 5
1 -6 8 160.019 182.918 22
1 -6 9 157.069 166.396 22
1 -6 9 638.596 205.365 5
1 -6 10 8489.94 495.2 5
1 -6 10 6394.32 451.614 22
1 -6 11 32118.7 937.478 5
-1 5 8 278.775 124.265 5
-1 5 8 341.538 123.517 19
-1 5 7 215.303 163.084 15
-1 5 7 179.81 143.038 5
-1 5 7 156.092 147.555 19
-1 5 6 16427.4 708.489 5
-1 5 6 16648.1 750.049 15
-1 5 6 18024.1 751.064 19
-1 5 5 1080.1 227.919 5
-1 5 5 1441.44 234.196 15
-1 5 5 1239.13 228.682 19
-1 5 4 22853.3 827.538 15
-1 5 4 24155.4 876.885 19
-1 5 4 22346 849.11 5
-1 5 3 19151.8 767.259 5
-1 5 3 18814.8 711.994 15
1 -5 -3 20049.4 660.913 12
-1 5 3 20960.3 789.467 19
1 -5 -2 16132.6 577.855 12
-1 5 2 15830.4 600.036 15
-1 5 2 16023.7 687.885 5
-1 5 2 17092.4 688.764 19
-1 5 1 8135.16 453.419 19
1 -5 -1 8598.82 405.909 12
1 -5 0 115192 2196.59 10
-1 5 0 129270 2338.07 19
1 -5 1 116707 2329.58 22
1 -5 1 113872 2237.49 14
1 -5 2 3175.11 295.096 10
1 -5 2 2452.25 189.886 1
1 -5 2 2860.99 247.508 14
1 -5 2 3021.56 277.942 22
1 -5 2 3051.88 254.797 16
1 -5 3 9556.77 507.862 10
1 -5 3 8897.91 485.455 22
1 -5 3 9070.38 472.177 20
1 -5 3 8566.08 444.296 16
1 -5 4 22686.5 632.94 18
1 -5 4 25121.4 801.393 14
1 -5 4 22276.7 808.61 20
1 -5 4 23576.9 880.372 22
1 -5 5 737.01 175.948 8
1 -5 5 479.069 158.464 22
1 -5 5 457.33 133.2 20
1 -5 5 359.974 121.075 18
1 -5 5 477.818 156.754 5
1 -5 5 550.684 146.439 14
1 -5 6 15456.4 637.738 14
1 -5 6 15058.9 723.115 22
1 -5 6 16868.2 703.664 5
1 -5 6 14960.5 563.532 18
1 -5 7 15280.1 685.029 5
1 -5 7 13304.4 722.903 22
1 -5 7 13084 558.863 18
1 -5 7 13912.8 616.062 14
1 -5 8 28527.9 901.442 18
1 -5 8 26695.2 1062.1 22
1 -5 9 4005.96 376.781 5
1 -5 9 3126.55 371.404 22
1 -5 10 1364.3 261.141 5
1 -5 10 5456.27 409.924 18
1 -5 11 276.455 175.015 5
1 -5 12 18384.3 630.549 5
-1 4 10 2266.96 187.78 19
-1 4 9 17360 663.21 19
-1 4 9 15831.4 591.46 5
-1 4 8 68306.1 1759.87 15
-1 4 8 64736.8 1563.7 5
-1 4 8 70158.2 1646.56 19
-1 4 7 44047.5 1255.22 19
-1 4 7 41524.1 1220.8 5
-1 4 6 9376.33 539.517 19
-1 4 6 10231.7 557.068 5
-1 4 6 8713.2 543.967 15
-1 4 5 69045.5 1641.77 15
-1 4 5 72375.7 1645.71 19
-1 4 4 201222 3531.64 15
-1 4 4 196427 3543.89 5
-1 4 4 202958 3514.86 19
-1 4 3 212384 3567.28 15
-1 4 3 207668 3627.61 5
-1 4 3 209869 3563.09 19
-1 4 2 123467 2201.69 2
-1 4 2 126124 2388.2 5
-1 4 1 21112 615.78 2
1 -4 -1 22810.5 551.342 3
1 -4 -1 20668.7 610.552 1
-1 4 1 22349.5 618.168 4
-1 4 0 76170.7 1382.65 4
1 -4 0 78013.7 1348.25 3
-1 4 -1 25302.2 632.15 4
1 -4 1 25500 603.201 3
1 -4 2 21701.3 548.948 1
1 -4 2 22690.1 580.92 3
1 -4 3 6303.75 252.68 1
1 -4 3 7157.06 314.731 3
-1 4 -4 125810 2199.8 2
1 -4 4 132855 2444.98 22
1 -4 4 124343 2399.97 16
1 -4 4 126814 2311.77 8
1 -4 4 134642 2325.57 14
1 -4 5 94857.5 1990.65 22
1 -4 5 97466.2 1855.22 14
1 -4 5 92082.8 1897.33 20
1 -4 5 97472.1 1888.08 8
1 -4 5 95427.3 1764.52 18
1 -4 5 97854.4 1923.15 5
1 -4 6 680.917 166.027 22
1 -4 6 554.15 121.225 14
1 -4 6 732.545 156.13 5
1 -4 6 623.099 132.357 18
1 -4 6 743.8 151.275 8
1 -4 7 25733.3 955.271 22
1 -4 7 25912.5 851.796 5
1 -4 8 134168 2543.02 18
1 -4 8 134332 2832.35 22
1 -4 8 140583 2683.53 5
1 -4 9 152725 2817.96 18
1 -4 9 160483 3021.95 5
1 -4 10 26986.9 987.68 5
1 -4 10 27857 869.791 18
1 -4 11 9391.56 533.647 5
1 -4 12 69626.3 1533.94 5
-1 3 10 5221.97 342.283 5
-1 3 9 22087.7 814.422 5
-1 3 9 19369.3 782.807 19
-1 3 8 152876 3022.95 19
-1 3 8 161216 3164.01 15
-1 3 8 151458 2981.19 5
-1 3 7 69076.6 1761.1 15
-1 3 7 69888.7 1669.58 19
-1 3 7 65633.1 1627.55 5
-1 3 6 14508.4 635.202 5
-1 3 6 14751.8 625.518 19
-1 3 6 13700.2 648.085 15
-1 3 5 21886.6 728.424 19
-1 3 5 21546.3 747.573 5
-1 3 4 99433.2 1923.77 5
-1 3 4 97165.1 1865.39 19
1 -3 -3 18541.9 555.514 1
-1 3 3 18454.4 496.873 2
1 -3 -2 285.262 68.6349 1
-1 3 2 464.979 72.5275 2
-1 3 1 3117.51 159.907 4
1 -3 -1 2914.26 171.857 1
-1 3 1 3349.89 183.517 2
1 -3 0 73222.2 1319.36 1
1 -3 0 76820.4 1268.75 3
-1 3 0 77199.1 1308.4 4
1 -3 1 66537.6 1150.79 3
1 -3 2 6910.63 253.957 3
-1 3 -3 26591.6 612.238 2
-1 3 -4 244098 3793.5 2
-1 3 -4 256135 3945.49 3
1 -3 5 213299 3613.15 22
-1 3 -5 220816 3560.83 3
1 -3 5 209605 3479.85 5
1 -3 6 19115.4 702.666 22
1 -3 6 17763 599.169 5
1 -3 6 17807.3 573.676 18
1 -3 7 58772.6 1515.41 22
1 -3 7 60345.6 1367.12 5
1 -3 7 59901.1 1324.12 18
1 -3 8 74476.7 1604.44 18
1 -3 8 71345.6 1820.17 22
1 -3 8 76743.6 1712.82 5
1 -3 9 39557.5 1072.42 18
1 -3 9 41092.9 1204.31 5
1 -3 10 1545.3 276.247 5
1 -3 11 870.888 249.831 5
1 -3 12 778.526 117.807 19
1 -3 12 866.391 279.663 5
-1 2 11 208.706 115.305 19
-1 2 11 2295.64 242.749 5
-1 2 10 4794.73 416.761 5
-1 2 10 1890.58 266.819 19
-1 2 9 5794.32 463.998 15
-1 2 9 5452.84 424.287 19
-1 2 8 22696 846.051 19
-1 2 8 24812.6 946.394 15
-1 2 8 24642.8 907.523 5
-1 2 7 14863.1 672.758 15
-1 2 7 13680.5 611.25 5
-1 2 6 96336.5 1979.57 5
-1 2 6 104681 2105.61 15
-1 2 5 212.421 105.511 5
-1 2 5 387.109 117.575 15
1 -2 -5 150.044 60.5032 1
1 -2 -4 3788.38 217.172 1
1 -2 -4 3768.11 140.997 4
1 -2 -3 12935.5 393.169 1
1 -2 -3 12737.1 277.82 4
1 -2 -2 66040.2 1171.11 1
-1 2 2 67074.5 1141.93 2
-1 2 1 55943.7 916.958 4
-1 2 1 58552 999.273 2
-1 2 0 28905.1 588.131 2
1 -2 0 29751.1 527.276 3
1 -2 1 106746 1699.04 3
-1 2 -1 111680 1715.44 3
-1 2 -1 112321 1735.77 2
-1 2 -2 60837.9 1105.48 3
-1 2 -2 67516.4 1085.5 2
-1 2 -3 24941.4 510.184 2
-1 2 -3 25366.7 587.088 3
1 -2 4 132354 2137.66 1
-1 2 -4 139144 2296.33 3
-1 2 -4 137062 2108.96 2
-1 2 -5 608.235 109.95 3
1 -2 6 68608.5 1382.64 5
1 -2 6 67960.4 1356.04 18
1 -2 6 65376 1501.71 22
1 -2 7 18269.9 738.11 22
1 -2 7 19002 619.741 18
1 -2 7 19183.7 666.662 5
1 -2 8 9857.59 532.313 5
1 -2 8 11761.5 502.877 18
1 -2 9 362.377 195.562 5
1 -2 10 88122.2 2023.09 5
1 -2 11 1994.16 368.417 5
1 -2 12 2767.69 316.913 5
1 -2 12 1693.55 181.355 19
-1 1 12 223.541 90.3648 19
-1 1 12 2038.7 196.178 5
-1 1 11 4678.81 434.391 5
-1 1 11 2781.56 280.461 19
-1 1 10 62804.8 1560.39 19
-1 1 10 62462.3 1608.43 5
-1 1 9 338.619 297.989 5
-1 1 9 568.61 188.282 19
-1 1 9 310.22 147.125 15
-1 1 8 6495.91 446.296 15
-1 1 8 6231.72 461.879 5
-1 1 7 2050.28 240.047 5
-1 1 7 1732.91 231.258 15
-1 1 6 143048 2551.96 15
-1 1 6 132034 2419.58 5
1 -1 -5 626.25 84.9802 1
1 -1 -4 94249.3 1557.32 1
1 -1 -4 91786.9 1443.58 4
1 -1 -4 94324.2 1439.7 3
1 -1 -3 34510.3 565.477 3
-1 1 3 33466.3 637.193 2
1 -1 -3 34875.7 565.681 4
1 -1 -3 35683.5 663.961 1
-1 1 2 15585.1 361.582 2
1 -1 -2 15942.1 330.149 2
1 -1 -2 15940.7 348.802 1
-1 1 1 260796 3948.93 2
-1 1 1 270681 3821.04 4
1 -1 -1 270566 3930.52 2
-1 1 0 3529.17 106.003 3
1 -1 1 78252.5 1278.58 2
-1 1 -1 83040.3 1277.68 2
-1 1 -2 82090.3 1255.42 2
1 -1 2 76587.7 1253.67 2
1 -1 3 14961.7 373.154 1
-1 1 -3 14301.3 307.676 2
1 -1 4 20353.8 488.992 1
-1 1 -4 21901.9 621.875 3
-1 1 -5 3547.76 257.132 3
1 -1 5 3566.6 187.502 1
1 -1 6 56160.2 1139.5 18
1 -1 6 55975.6 1256.51 5
1 -1 6 54852.8 1337.17 22
1 -1 7 23368.2 786.368 5
1 -1 7 23775.2 675.706 18
1 -1 8 18462.7 758.771 5
1 -1 9 2141.23 320.627 5
1 -1 10 -221.45 354.22 5
1 -1 11 306.315 140.918 19
1 -1 11 625.627 305.892 5
1 -1 12 26668 728.266 19
1 -1 12 31113.5 783.343 5
-1 0 12 6655.91 353.707 19
-1 0 12 8779.48 479.438 5
-1 0 11 158.53 343.581 5
-1 0 11 222.138 130.553 19
-1 0 10 366.193 378.145 5
-1 0 10 1367.21 221.955 19
-1 0 9 29673.8 1029.76 5
-1 0 8 124700 2520.28 15
-1 0 8 126947 2495.91 5
-1 0 7 4114.13 310.766 15
-1 0 7 3499.07 275.89 5
-1 0 6 80851.6 1590.97 5
-1 0 6 87692 1688.49 15
1 0 -5 229445 3436.01 3
1 0 -4 447873 6455.35 1
1 0 -4 448470 6464.91 3
1 0 -4 448962 6400.74 2
1 0 -3 296358 4327.8 2
1 0 -3 300531 4302.21 1
1 0 -2 21818 418.964 2
-1 0 2 20987.5 375.827 3
-1 0 1 58106.1 888.858 4
1 0 -1 57384.2 886.391 4
1 0 -1 56535.1 928.057 2
-1 0 0 119553 1856.05 4
1 0 0 121071 1819.04 2
1 0 1 119742 1784.18 2
1 0 1 114141 1822.21 1
1 0 2 108.808 36.1115 1
1 0 2 90.3455 27.5372 2
1 0 3 25097.5 493.628 2
1 0 3 26036.4 571.395 1
1 0 4 69339.5 1280.04 1
1 0 5 36714.3 867.199 5
1 0 5 43100.7 836.204 1
1 0 6 5491.18 350.015 5
1 0 7 76721.5 1754.07 5
1 0 8 209145 3917.93 15
1 0 8 229592 4012.56 5
1 0 9 39156.2 1201.28 5
1 0 9 31936 1074.73 15
1 0 10 8336.23 561.223 5
1 0 11 13809.9 579.832 5
1 0 11 12026.4 529.199 19
-1 -1 12 35622.7 910.653 19
-1 -1 12 45271.7 1147.22 5
-1 -1 11 10848.1 664.246 5
-1 -1 11 10378.4 502.209 19
-1 -1 10 26105 874.339 19
-1 -1 10 28591.8 832.336 18
-1 -1 10 29099.4 1031.2 5
-1 -1 9 104783 2032.59 18
-1 -1 9 103428 2233.72 5
-1 -1 8 249779 4256.98 5
-1 -1 7 26804.1 785.894 5
-1 -1 6 1615.69 156.898 5
1 1 -5 128848 1978.01 2
-1 -1 4 418295 6135.11 3
-1 -1 3 52083.9 908.062 3
1 1 -2 315914 4495.06 1
1 1 -2 309964 4580.26 4
-1 -1 1 29687.1 574.451 4
1 1 -1 28629.3 548.762 4
1 1 -1 29401.7 527.423 1
1 1 0 86326 1387.8 1
-1 -1 -1 69072.7 1217.83 4
-1 -1 -2 103587 1745.76 4
1 1 2 100773 1708.83 1
-1 -1 -3 245075 3723.05 4
1 1 3 241561 3675.58 1
1 1 4 308512 4838.39 5
1 1 4 302694 4707.81 1
-1 -1 -4 303494 4722.78 4
1 1 5 160923 2874.57 5
1 1 6 14151.9 625.227 5
1 1 7 49885.2 1375.21 5
1 1 8 106921 2283.83 5
1 1 8 100439 2383 15
1 1 9 20026 827.744 5
1 1 9 18448.3 779.144 19
1 1 9 18024.2 784.536 15
1 1 10 671.869 157.041 15
1 1 10 723.389 172.528 19
1 1 11 237.695 93.981 19
1 1 11 802.977 139.666 5
-1 -2 12 25456.6 893.451 5
-1 -2 11 5388.67 353.952 18
-1 -2 11 2871.69 356.665 5
-1 -2 10 2451.86 266.495 18
-1 -2 10 2753.21 329.309 5
-1 -2 9 42073 1233.84 5
-1 -2 8 5420.23 357.269 8
-1 -2 8 4965.52 360.43 5
-1 -2 7 6901.83 383.869 5
-1 -2 7 8110.82 410.804 8
-1 -2 6 15805.4 551.454 5
-1 -2 6 16856.8 572.028 8
-1 -2 5 15022.3 480.053 3
-1 -2 4 111405 1874.24 3
-1 -2 3 47485.1 923.116 3
1 2 -3 47937.7 906.244 4
1 2 -2 50350.7 839.941 1
1 2 -2 46381.4 900.493 4
-1 -2 1 95189.2 1559.11 1
1 2 -1 93960.1 1528.66 1
1 2 0 279291 4144.62 1
-1 -2 0 276987 4180.55 1
-1 -2 0 275220 4207.92 4
1 2 0 268649 4184.98 4
1 2 1 27245.4 645.657 1
-1 -2 -1 28675.8 677.302 4
-1 -2 -1 28145.8 678.685 1
-1 -2 -2 62415 1200.61 4
1 2 2 59796.7 1200.02 1
-1 -2 -3 6049.85 298.732 4
1 2 3 6241.22 316.669 1
1 2 4 50929.6 1285.03 5
1 2 5 222.632 137.583 5
1 2 6 16273.5 725.147 5
1 2 7 180.874 153.229 19
1 2 7 40.1784 232.882 5
1 2 8 1519.96 286.197 15
1 2 8 1423.55 245.806 19
1 2 8 1704.52 361.865 5
1 2 9 9925.37 556.411 15
1 2 9 9010.02 492.46 19
1 2 9 10479.1 539.16 5
1 2 10 29023.1 799.279 19
1 2 10 29348.1 789.189 5
-1 -3 12 2205.31 281.858 5
-1 -3 11 12928.5 661.646 5
-1 -3 11 13532.2 574.31 18
-1 -3 10 27167.9 884.747 18
-1 -3 10 29434 1047 5
-1 -3 9 1038.79 203.766 8
-1 -3 9 791.784 194.292 5
-1 -3 8 620.032 165.825 5
-1 -3 8 275.412 140.569 8
-1 -3 7 53374.1 1314.91 5
-1 -3 7 53345 1254.59 14
-1 -3 7 53239.2 1335.81 8
-1 -3 6 156828 2825.38 5
-1 -3 6 154462 2751.61 14
-1 -3 6 159804 2837.31 8
-1 -3 5 221948 3770.41 5
-1 -3 5 230066 3693.11 3
-1 -3 5 223791 3750.01 8
-1 -3 5 225589 3695.49 14
1 3 -5 229500 3640.28 4
1 3 -4 3318.85 210.41 4
-1 -3 4 3299.03 219.172 3
1 3 -3 73692.3 1376.06 4
-1 -3 3 71829.6 1397.37 3
-1 -3 2 282.19 60.6864 1
1 3 -2 238.666 69.0096 4
1 3 -1 4465.31 223.219 1
-1 -3 1 4356.2 228.294 1
1 3 -1 4234.36 232.879 4
1 3 0 22687.9 611.777 1
1 3 0 21518 618.195 4
-1 -3 0 21724.7 620.539 1
-1 -3 -1 1705.82 171.83 1
1 3 1 1812 172.453 1
-1 -3 -1 1818.37 181.509 12
-1 -3 -1 1863.17 173.35 4
-1 -3 -2 9768.26 411.901 10
1 3 2 12383.5 623.473 5
1 3 3 5836.61 423.271 5
1 3 3 4651.17 281.407 19
-1 -3 -3 5377.31 306.822 10
1 3 4 5124.1 404.22 5
1 3 4 4630.18 307.225 19
1 3 5 26057.7 828.358 19
1 3 5 27633.6 983.586 5
1 3 6 69051 1781.15 5
1 3 6 75515.6 1682.31 19
-1 -3 -7 237.737 133.68 12
1 3 7 434.558 207.798 5
1 3 7 204.226 196.784 15
1 3 7 175.337 137.804 19
1 3 8 6795.09 485.471 15
1 3 8 6252.82 396.839 19
1 3 8 6384.42 425.804 5
1 3 9 52.7128 86.9775 19
1 3 9 107.149 122 15
1 3 9 8.45984 109.907 5
-1 -4 12 1588.4 234.084 5
-1 -4 12 4242.37 300.819 18
-1 -4 11 12697.5 631.256 5
-1 -4 11 11943.2 538.725 18
-1 -4 10 714.413 183.873 8
-1 -4 10 640.51 210.74 5
-1 -4 10 541.495 196.073 18
-1 -4 9 38721.3 1173.8 5
-1 -4 9 37924.8 1195.35 8
-1 -4 8 41747.1 1269.74 8
-1 -4 8 41410.8 1213.11 5
-1 -4 8 40823.6 1165.94 14
-1 -4 7 43091.3 1248.68 8
-1 -4 7 41009.7 1161.84 14
-1 -4 7 42089.5 1225.62 5
-1 -4 6 1749.14 236.119 8
-1 -4 6 1546.38 206.221 14
-1 -4 6 1503.6 225.3 5
-1 -4 6 1437.25 242.925 16
-1 -4 5 130494 2661.01 16
-1 -4 5 135067 2505.06 14
-1 -4 4 151267 2829.45 16
-1 -4 4 150124 2850.91 10
-1 -4 4 149606 2748.35 8
-1 -4 3 2123.86 215.128 8
-1 -4 3 2115.42 189.402 7
-1 -4 3 2230.69 207.991 14
-1 -4 3 2261.72 236.72 10
-1 -4 2 4096.18 268.323 14
-1 -4 2 4332.11 339.782 22
-1 -4 2 4319.35 292.637 8
-1 -4 2 3802.88 285.291 12
-1 -4 1 116297 2078.36 14
-1 -4 1 113018 2108.68 1
-1 -4 1 119108 2234.44 10
-1 -4 1 122481 2180.87 8
-1 -4 0 743.472 144.74 10
-1 -4 0 637.057 135.053 12
-1 -4 -1 151.882 98.6908 10
-1 -4 -1 193.875 107.679 12
1 4 1 259.665 184.823 5
-1 -4 -2 12386.9 554.971 12
-1 -4 -2 12724.1 539.651 10
-1 -4 -3 11137.1 532.463 12
-1 -4 -3 11538.3 515.32 10
1 4 3 12865.1 683.33 5
-1 -4 -4 19512.5 732.822 12
1 4 4 19285.9 851.768 5
1 4 5 14074.6 701.88 5
-1 -4 -5 14926 629.192 12
1 4 5 15259.5 626.639 19
1 4 6 9501.48 602.107 15
-1 -4 -6 9020 461.291 12
1 4 6 9103.63 471.158 19
1 4 6 8780.94 529.347 5
-1 -4 -7 30643 810.075 12
1 4 7 29070.9 843.216 19
1 4 8 46520.9 1197.54 15
1 4 8 46446.8 1084.61 5
-1 -5 12 29018.8 764.988 18
-1 -5 12 27698.6 804.176 5
-1 -5 11 18087 715.479 5
-1 -5 10 39060 1125.69 18
-1 -5 10 45256.7 1251.32 5
-1 -5 9 83535.4 1932.13 14
-1 -5 9 88432.7 1901.12 18
-1 -5 9 90030.8 2003.45 5
-1 -5 9 81252.2 2003.07 8
-1 -5 8 123889 2635.35 14
-1 -5 8 125861 2707.79 8
-1 -5 7 4050.16 392.701 8
-1 -5 7 4034.47 368.515 14
-1 -5 7 4544.67 406.554 5
-1 -5 6 52616.3 1636.2 16
-1 -5 6 53780.9 1433.91 14
-1 -5 6 54320.9 1488.44 8
-1 -5 6 57263.3 1563.43 5
-1 -5 6 54151 1631.81 10
-1 -5 5 76209.3 1801.32 22
-1 -5 5 78631.7 1847.74 8
-1 -5 5 80178.6 1973.12 16
-1 -5 4 57221 1442.59 8
-1 -5 4 55964.7 1535.19 16
-1 -5 4 58655.3 1606.11 10
-1 -5 4 55811 1405.19 14
-1 -5 4 56625.2 1517.92 22
-1 -5 3 4241.1 337.926 8
-1 -5 3 4090.38 363.4 16
-1 -5 3 3816.38 307.256 14
-1 -5 3 4189.29 388.451 22
-1 -5 2 2364.39 262.063 8
-1 -5 2 2103.91 278.06 10
-1 -5 2 2083.15 256.503 12
-1 -5 2 2554.82 323.073 22
-1 -5 2 2137.23 237.356 14
-1 -5 1 30829.3 916.744 14
-1 -5 1 30034.3 1001.07 10
-1 -5 0 68090.7 1667.05 12
-1 -5 0 70868.5 1652.3 10
-1 -5 -1 39862.6 1161.49 12
-1 -5 -1 39268.7 1149.05 10
-1 -5 -2 61491.6 1544.89 12
-1 -5 -2 65458.1 1539.54 10
-1 -5 -3 67165.9 1604.22 12
-1 -5 -4 123807 2419.81 12
1 5 4 121400 2609.12 5
1 5 5 15167.9 695.998 15
-1 -5 -5 14642.1 600.078 12
1 5 6 22416.7 808.296 15
-1 -5 -6 22306.6 670.371 12
1 5 7 46471.2 1129.88 15
-1 -6 11 917.517 177.381 5
-1 -6 11 3681.26 262.741 18
-1 -6 10 8839.35 451.922 18
-1 -6 10 9330.84 497.203 5
-1 -6 9 13379.6 582.654 18
-1 -6 9 14492.3 664.97 5
-1 -6 9 13846.7 674.57 14
-1 -6 8 16347.9 765.543 14
-1 -6 8 15613.9 634.92 18
-1 -6 8 16275.8 790.229 8
-1 -6 8 17239.6 784.521 5
-1 -6 7 11200.6 667.694 8
-1 -6 7 11322.7 644.737 14
-1 -6 7 12641.6 701.593 5
-1 -6 6 10098.5 587.996 14
-1 -6 6 11556.1 690.66 5
-1 -6 6 10465 719.539 16
-1 -6 5 9578.63 588.024 8
-1 -6 5 8614.2 543.949 22
-1 -6 5 9572.18 571.456 14
-1 -6 5 9069.69 678.745 10
-1 -6 5 10971.3 688.809 16
-1 -6 4 27542.9 1091.72 22
-1 -6 4 26777.3 1113.68 16
-1 -6 4 26211.3 948.159 14
-1 -6 4 28692.5 1209.71 10
-1 -6 3 8920.53 596.191 16
-1 -6 3 9160.78 529.188 14
-1 -6 3 8372.81 617.721 10
-1 -6 3 9513.69 651.263 22
-1 -6 2 32302.1 1036.16 14
-1 -6 2 30944.8 1167.05 10
-1 -6 1 55078.3 1432.54 14
-1 -6 1 52595 1533.4 10
-1 -6 1 54537 1734.5 22
-1 -6 0 49382.6 1429.62 10
-1 -6 0 51988.5 1607.32 22
-1 -6 0 49260.1 1426.98 12
-1 -6 -1 6499.04 520.785 22
-1 -6 -1 5982.01 460.279 12
-1 -6 -1 6318.27 448.704 10
1 6 2 19667.2 723.233 15
-1 -6 -2 20685.8 888.33 22
-1 -6 -2 19779.6 795.581 12
-1 -6 -2 19261.4 766.955 10
1 6 3 18453.2 695.802 15
-1 -6 -3 18993.7 798.411 22
-1 -6 -3 19111.2 731.074 12
1 6 4 7617.1 422.114 15
-1 -6 -4 7647.02 469.488 22
-1 -6 -4 7955.96 416.99 12
1 6 5 73.5532 97.1036 15
-1 -6 -5 197.936 121.193 22
-1 -6 -6 2532.65 194.664 22
-1 -7 10 12546.3 507.776 5
-1 -7 10 11795.2 427.522 18
-1 -7 9 2457.23 232.167 18
-1 -7 9 1068.42 201.697 5
-1 -7 8 7046.36 353.658 18
-1 -7 8 6467.21 478.906 14
-1 -7 8 7941.09 503.507 5
-1 -7 7 16408.1 785.973 14
-1 -7 7 18487 831.794 5
-1 -7 6 294.66 211.95 5
-1 -7 6 185.109 195.841 16
-1 -7 5 15311.9 859.738 16
-1 -7 5 14466.7 882.337 10
-1 -7 5 16576.1 877.005 5
-1 -7 5 14393.6 718.652 14
-1 -7 4 13442.3 783.432 16
-1 -7 4 13674.1 687.226 14
-1 -7 4 12659.8 727.247 22
-1 -7 3 1739.19 332.2 16
-1 -7 3 2069.43 299.488 14
-1 -7 3 2750.21 408.643 10
-1 -7 3 2184.77 346.062 22
-1 -7 2 340.07 200.217 22
-1 -7 2 515.317 239.859 10
-1 -7 1 12224.3 691.164 16
-1 -7 1 12297.4 733.69 22
-1 -7 1 12830.7 729.3 10
-1 -7 0 664.655 212.326 10
-1 -7 0 582.216 229.194 22
-1 -7 0 805.963 225.779 16
-1 -7 -1 1191.63 231.711 22
-1 -7 -1 1554.59 257.228 10
-1 -7 -1 1148.46 226.118 16
-1 -7 -2 23959 797.448 16
-1 -7 -2 23384.1 837.635 22
-1 -7 -3 1795.95 193.158 16
-1 -7 -3 1741.84 213.586 22
-1 -7 -4 7965.49 353.074 22
-1 -8 9 19037.7 588.354 5
-1 -8 8 6385.42 378.814 5
-1 -8 7 197.021 140.471 5
-1 -8 6 1054.51 222.445 5
-1 -8 5 42857.5 1312.17 5
-1 -8 5 37503.6 1332.08 16
-1 -8 4 6126.72 498.688 5
-1 -8 4 5550.16 480.331 16
-1 -8 3 1138.55 204.827 22
-1 -8 2 906.086 218.084 16
-1 -8 2 719.201 177.475 22
-1 -8 2 713.395 212.924 10
-1 -8 1 1190.39 218.617 16
-1 -8 1 812.485 172.257 22
-1 -8 0 4486.42 329.987 16
-1 -8 0 4122.42 303.022 22
-1 -8 -1 5411.61 310.748 16
-1 -8 -1 4861.69 288.854 22
1 8 2 48.7373 66.4299 13
-1 -9 5 14583.1 495.778 5
-1 -9 4 1295.24 153.686 5
-1 -9 3 1481.74 155.151 5
-1 -9 2 2241.61 171.876 5
-1 -9 2 2661.3 205.765 16
-2 10 -1 12429.4 419.721 13
2 -10 1 11454.4 398.745 20
2 -10 1 11975.4 384.132 5
2 -10 2 6473.65 334.074 22
2 -10 2 5809.51 277.868 5
2 -10 2 5721.7 279.596 20
2 -10 3 2158.91 205.643 22
2 -10 3 1938.7 167.132 5
2 -10 4 14744.9 464.605 5
2 -10 4 15505.7 549.799 22
2 -10 5 596.012 124.12 22
2 -10 5 592.34 98.9888 5
2 -9 -3 1331.3 143.649 22
-2 9 3 1198.77 142.654 13
-2 9 2 2439.93 235.127 13
2 -9 -2 2781.65 237.719 22
2 -9 -2 2755.48 239.141 20
2 -9 -1 4016.76 317.177 20
2 -9 -1 4207.48 323.733 22
-2 9 1 4124.18 333.263 13
2 -9 0 3228.74 308.953 20
-2 9 0 3380.91 318.034 13
2 -9 1 690.232 181.098 20
-2 9 -1 789.184 182.424 13
2 -9 2 7273.87 505.346 22
2 -9 2 7081.29 470.572 20
-2 9 -2 7360.13 451.446 13
2 -9 3 21272.6 830.712 20
2 -9 3 23064.2 898.346 22
2 -9 3 21355.8 784.545 5
-2 9 -3 23393 784.953 13
2 -9 4 120.4 142.569 5
2 -9 4 220.404 165.793 22
2 -9 5 9388.03 543.839 22
2 -9 5 9791.84 481.228 5
2 -9 6 364.309 156.484 22
2 -9 6 326.449 131.112 5
2 -9 7 245.395 112.062 5
2 -9 7 266.88 138.191 22
2 -9 8 1107.37 168.467 22
2 -9 8 1055.9 131.01 5
2 -8 -5 667.881 114.718 22
2 -8 -4 8975.96 432.764 22
-2 8 4 8272.68 434.11 13
-2 8 3 5991.88 419.939 13
2 -8 -3 6604.1 421.596 22
-2 8 2 972.676 224.012 13
2 -8 -2 947.83 231.052 22
2 -8 -1 12683 675.415 22
-2 8 1 10995.4 630.767 13
2 -8 0 89302.6 2169.74 22
2 -8 0 93929.7 1985.89 16
-2 8 0 91579.1 2154.87 13
-2 8 -1 14147.3 704.971 13
2 -8 1 14663 677.33 16
2 -8 2 23896.9 923.681 16
2 -8 2 22911.8 948.694 20
-2 8 -2 23894.3 932.243 13
2 -8 3 8752.71 618.382 22
2 -8 3 8924.94 576.592 20
2 -8 3 9222.1 595.993 16
-2 8 -3 10082.7 568.243 13
2 -8 4 45134.1 1287.4 5
2 -8 4 42753 1335.29 20
2 -8 4 44127.7 1411.21 22
2 -8 5 95261.2 2196.08 20
2 -8 5 96201.1 2267.53 22
2 -8 5 95696.1 2068.32 5
2 -8 6 62027.6 1716.49 22
2 -8 6 63324.1 1513.53 5
2 -8 7 12815.2 692.741 22
2 -8 7 13476 583.272 5
2 -8 8 15283.1 709.569 22
2 -8 8 14513.3 557.926 5
2 -8 9 21616.7 637.929 5
2 -8 9 22300.7 789.726 22
2 -8 10 3652.59 213.929 5
2 -7 -6 1600.45 189.38 22
-2 7 6 1555.59 165.436 19
-2 7 5 3218.8 298.848 13
-2 7 5 3097.01 266.059 19
2 -7 -5 3349.71 301.583 22
2 -7 -4 47053.7 1268.45 22
-2 7 4 45478.9 1204.91 19
2 -7 -3 29773.6 1031.93 22
-2 7 3 29510.8 987.309 19
-2 7 2 19322.6 782.073 19
2 -7 -2 17274.7 794.851 22
2 -7 -1 27931.7 905.516 16
2 -7 -1 28000.3 1050.52 22
2 -7 0 104174 2399.35 22
2 -7 0 99741.5 2196.03 16
2 -7 1 182564 3253.2 16
2 -7 1 161091 3360.61 22
2 -7 2 53714.2 1471.96 16
2 -7 2 56342.2 1548.49 20
-2 7 -2 56284.8 1463.03 13
2 -7 3 18396.8 821.038 16
2 -7 3 17012.1 828.938 22
2 -7 3 18444.1 815.64 20
-2 7 -3 19940.4 779.861 13
2 -7 4 109246 2469.5 20
2 -7 4 115308 2527.12 22
2 -7 5 34035.2 1180.91 20
2 -7 5 34465.1 1197.36 22
2 -7 6 12123.4 603.259 5
2 -7 6 11783.6 694.62 22
2 -7 7 2449.84 356.879 22
2 -7 7 2583.95 299.681 5
2 -7 8 4612.42 339.274 5
2 -7 8 4441.05 430.657 22
2 -7 9 16654.2 617.598 5
2 -7 9 16644 752.41 22
-2 7 -10 1022.63 145.629 10
2 -7 10 1312.55 182.844 5
2 -7 10 1193.35 208.084 22
-2 6 8 1298.54 149.11 19
-2 6 8 1329.99 149.491 21
-2 6 7 4926.05 335.326 21
-2 6 7 5156.69 340.048 19
2 -6 -7 5234.23 323.062 22
-2 6 6 145.21 148.685 19
2 -6 -6 115.483 142.978 22
2 -6 -5 2097.05 275.126 22
-2 6 5 1845.18 275.791 19
-2 6 5 1896.73 260.859 13
2 -6 -4 21414.1 827.235 22
-2 6 4 19988.6 803.676 15
-2 6 4 20289.4 828.357 19
-2 6 3 92333.5 2016.45 15
2 -6 -3 95549.8 2117.19 22
-2 6 3 97009.3 2139.25 19
2 -6 -2 18339.5 767.176 22
-2 6 2 19520.4 797.655 19
2 -6 -1 53635 1282.43 16
2 -6 -1 54865 1442.11 22
2 -6 0 71729.2 1608.17 16
2 -6 0 72431.3 1750.29 22
2 -6 1 9774.67 525.856 22
2 -6 1 9395.38 474.283 16
2 -6 2 23081 792.911 16
2 -6 3 32322.8 1042.17 20
-2 6 -3 33200.4 959.814 13
2 -6 3 32812.1 1029.78 16
2 -6 4 3272.2 334.286 20
2 -6 4 3586.72 355.693 22
2 -6 4 3704.37 257.717 18
2 -6 5 6218.19 417.134 5
2 -6 5 6056.67 456.732 20
2 -6 5 6311.06 476.294 22
2 -6 5 7720.84 396.457 18
2 -6 6 6724 516.13 22
2 -6 6 6716.8 435.187 5
2 -6 7 13479.8 616.581 5
2 -6 7 12493 723.212 22
2 -6 8 5958.89 410.388 5
2 -6 8 5982.48 510.491 22
2 -6 9 22829.6 787.446 5
2 -6 9 20560.5 915.561 22
2 -6 10 296.277 148.871 5
-2 6 -10 123.943 108.138 10
2 -6 10 219.08 157.005 22
2 -6 11 409.886 123.174 5
-2 5 9 3024.6 243.572 19
-2 5 9 2717.76 237.042 21
-2 5 8 5522.95 384.358 19
-2 5 8 5278.63 327.571 5
-2 5 7 1937.86 281.261 19
-2 5 7 1921.85 244.183 5
-2 5 6 1362.31 252.872 19
-2 5 6 1660.19 265.545 15
-2 5 6 1348.91 229.004 5
-2 5 5 4772.89 373.297 5
-2 5 5 5212.43 408.847 15
-2 5 5 5510.48 434.514 19
-2 5 4 27253.2 953.96 19
-2 5 4 26051.4 908.033 15
-2 5 4 24584.9 843.965 5
-2 5 3 621.361 153.997 15
-2 5 3 553.359 149.233 5
-2 5 3 565.439 166.531 19
-2 5 2 49938.6 1242.7 5
-2 5 2 50791.7 1197.07 15
2 -5 -1 79967.1 1699.09 22
-2 5 1 80649.9 1748.16 19
-2 5 0 612.17 137.99 19
2 -5 0 512.129 106.309 16
2 -5 0 495.538 127.312 22
-2 5 -1 4371.46 260.866 4
2 -5 1 3778.07 260.905 16
2 -5 1 3575.73 223.39 3
2 -5 1 3803.73 286.857 22
-2 5 -2 185890 3073.51 13
2 -5 2 186956 3116.62 16
2 -5 3 14067.6 448.888 18
2 -5 3 14954.9 603.208 16
2 -5 3 15474.1 627.927 20
2 -5 4 336.415 116.005 5
2 -5 4 424.826 143.883 20
2 -5 5 16400.6 587.965 18
2 -5 5 15696.1 604.829 5
2 -5 5 15195.5 680.061 20
2 -5 5 16371.8 708.47 22
2 -5 6 663.601 204.117 22
2 -5 6 691.823 161.731 5
2 -5 7 3079.95 306.82 18
2 -5 7 3432.88 295.975 5
2 -5 8 25504.6 853.218 18
2 -5 8 23757.7 1010.69 22
2 -5 8 26444.1 875.555 5
2 -5 9 17792.8 706.74 5
2 -5 9 15657 804.179 22
2 -5 10 967.123 207.787 5
2 -5 11 1617.84 209.995 5
-2 4 10 385.34 100.677 5
-2 4 9 8152.5 412.217 5
-2 4 8 34243.8 1013.41 5
-2 4 7 13980.3 669.518 19
-2 4 7 15273.6 670.752 5
-2 4 6 766.34 197.822 19
-2 4 6 771.883 203.751 15
-2 4 5 12847.6 565.474 5
-2 4 5 12209 581.21 19
-2 4 5 12713.4 601.744 15
-2 4 4 59158.1 1371.14 5
-2 4 4 62773.1 1455.6 15
-2 4 4 61496.5 1430.59 19
-2 4 3 2568.98 220.456 5
-2 4 3 2726.19 243.824 19
-2 4 3 2532.36 231.649 15
-2 4 2 24541.2 705.913 2
-2 4 2 26489 788.299 19
2 -4 -1 20703.3 481.845 3
2 -4 -1 19037 593.479 1
-2 4 1 20474.5 520.809 4
-2 4 0 123715 2089.23 4
2 -4 0 127047 2056.28 3
-2 4 0 130083 2236.46 2
2 -4 1 27037.6 644.527 3
-2 4 -2 13898.3 469.925 2
-2 4 -3 37098 882.361 2
2 -4 3 39103.9 999.006 22
2 -4 4 306245 4815.06 18
-2 4 -4 306702 4813.37 2
2 -4 4 318174 4844.25 5
2 -4 4 309348 5003.98 20
2 -4 5 165063 2860.33 18
2 -4 5 170473 2880.33 5
2 -4 6 89374.1 1818.54 18
2 -4 6 94296.1 1833.29 5
2 -4 6 92808 2060.73 22
2 -4 7 2801.89 258.034 5
2 -4 7 2653.93 318.488 22
2 -4 8 40751.1 1100.94 18
2 -4 8 38826.7 1095.22 5
-2 4 -9 29171.9 912.844 10
2 -4 9 30391.8 1129.6 22
2 -4 10 429.468 185.965 5
2 -4 11 997.337 194.984 5
-2 4 -12 9277.93 802.527 17
-2 3 11 24883.2 734.586 19
-2 3 11 25972.5 761.443 21
-2 3 10 2961.64 288.305 19
-2 3 10 4472.28 324.286 5
-2 3 9 12229.6 571.753 5
-2 3 9 8771.95 515.64 19
-2 3 8 22938.6 857.795 19
-2 3 8 23724 868.103 5
-2 3 7 17757.2 712.327 5
-2 3 7 16799.2 775.816 15
-2 3 7 17870.3 739.299 19
-2 3 6 6427.91 414.991 19
-2 3 6 6516.44 441.321 15
-2 3 6 6786.82 415.323 5
-2 3 5 29615 890.659 19
-2 3 5 34271.2 893.447 5
-2 3 4 149409 2577.63 5
-2 3 4 151584 2706.79 15
2 -3 -3 84552.4 1547.66 1
-2 3 3 77959.7 1490.75 2
2 -3 -2 33696.4 795.088 1
2 -3 -2 33409.8 595.243 3
-2 3 1 145907 2401.07 2
2 -3 -1 147349 2189.05 3
-2 3 0 999999 14448 2
-2 3 -1 351711 5279.42 2
-2 3 -1 349351 5209.15 3
-2 3 -2 74989.1 1352.99 2
-2 3 -2 74475 1355.6 3
-2 3 -3 85214 1563.75 3
-2 3 -3 82575.2 1481.94 2
2 -3 4 212123 3400.6 18
-2 3 -4 213866 3320.13 2
2 -3 4 210357 3527.29 22
2 -3 5 79113.1 1555.17 18
2 -3 5 80161.5 1518.53 5
2 -3 6 3711.37 259.931 5
2 -3 6 3335.01 304.81 22
2 -3 7 10666.2 588.028 22
2 -3 7 11079.7 500.313 5
2 -3 8 20754.9 762.873 5
-2 3 -8 19178.7 706.296 10
2 -3 8 19179.2 849.445 22
2 -3 9 6387.15 441.089 5
2 -3 10 26414.9 902.724 5
2 -3 11 4682.86 378.232 5
-2 2 11 222.181 127.438 19
-2 2 11 2400.91 253.394 5
-2 2 10 2948.51 382.234 5
-2 2 10 929.894 188.879 19
-2 2 9 5808.9 479.988 5
-2 2 9 4641.42 368.155 19
-2 2 8 19193.5 747.572 19
-2 2 8 19186.5 746.705 5
-2 2 7 19009.3 703.892 19
-2 2 7 20376.9 814.964 15
-2 2 7 17872.5 675.536 5
-2 2 6 852.086 170.303 15
-2 2 6 1005.89 164.181 19
-2 2 6 653.656 163.464 5
2 -2 -5 69732 1332.1 1
-2 2 5 65646.3 1339.71 5
-2 2 5 68309.8 1492.09 15
-2 2 5 67122.1 1392.53 19
-2 2 4 280013 4423.98 2
2 -2 -4 285694 4342.71 1
-2 2 3 125949 2140.27 2
2 -2 -3 127751 2104.86 1
-2 2 2 32207.3 725.811 2
2 -2 -2 32032.6 685.102 2
-2 2 1 185188 2789.33 2
2 -2 -1 179416 2752.62 2
-2 2 0 133905 2047.33 3
2 -2 1 8062.06 296.679 2
-2 2 -1 8292.18 269.199 3
-2 2 -1 8700.98 289.13 2
-2 2 -2 115183 1902.69 2
-2 2 -2 119320 1961.33 3
-2 2 -3 5457.89 225.477 2
-2 2 -4 2009.47 192.321 3
2 -2 4 1799.62 161.119 1
-2 2 -4 1911.37 132.765 2
2 -2 5 26750.3 698.177 18
2 -2 5 25535.3 675.903 5
2 -2 6 39293.4 963.299 18
2 -2 6 39950.5 991.156 5
-2 2 -7 10346.4 473.876 10
2 -2 7 10432.3 501.359 5
2 -2 7 9196.07 550.858 22
2 -2 8 32768.3 1014.78 5
-2 2 -8 31318.7 933.114 10
2 -2 9 42354.9 1217.16 5
2 -2 10 32.1505 250.368 5
2 -2 11 10433.6 493.577 5
-2 2 -11 10435.2 876.403 17
-2 1 12 3415.11 236.436 19
-2 1 12 4168.02 262.894 5
-2 1 11 4155.45 318.996 19
-2 1 11 5669.08 450.807 5
-2 1 10 5334.77 384.254 19
-2 1 10 5883.85 473.003 5
-2 1 9 769.407 175.884 19
-2 1 9 393.054 270.982 5
-2 1 8 14419.6 594.068 19
-2 1 8 14266 630.752 5
-2 1 7 36755.5 976.726 19
-2 1 7 36742.5 976.304 5
-2 1 6 431.16 106.586 19
-2 1 6 330.001 123.866 15
-2 1 6 347.322 99.3745 8
-2 1 6 350.304 93.547 5
2 -1 -5 10070.7 322.365 1
2 -1 -4 3158 162.369 1
2 -1 -4 3206.03 156.629 2
2 -1 -3 17006.9 423.702 2
2 -1 -2 318790 4642.17 2
-2 1 2 301868 4708.81 2
-2 1 1 5469.05 236.17 2
2 -1 -1 5411.77 221.326 2
-2 1 0 68612.4 1218.26 2
2 -1 0 68915.1 1212.02 2
2 -1 1 175230 2811.3 2
-2 1 -1 184495 2806.65 2
2 -1 2 413172 6123.19 2
-2 1 -2 408373 6032.42 2
2 -1 3 32156.1 756.043 2
2 -1 3 36111.9 813.421 1
2 -1 4 38157.1 897.11 1
2 -1 5 9660.87 410.563 5
2 -1 5 8922.61 449.181 22
-2 1 -5 9928.5 410.9 10
2 -1 6 219.236 115.165 5
-2 1 -6 323.482 109.702 10
2 -1 7 23271 820.265 5
-2 1 -7 24320.5 780.772 10
2 -1 8 3454.32 340.035 5
2 -1 9 44014.4 1263.05 5
2 -1 10 11062.5 555.133 5
-2 1 -10 6583.01 941.655 17
2 -1 11 2135.38 256.507 5
-2 0 12 14420.9 562.739 5
-2 0 11 2387.03 242.226 19
-2 0 11 2635.1 378.299 5
-2 0 10 240.573 131.713 19
-2 0 10 -279.269 340.07 5
-2 0 9 26786.5 849.191 19
-2 0 9 28823.9 941.103 5
-2 0 8 10006.9 460.309 19
-2 0 8 10031.9 483.999 5
-2 0 7 196.479 93.1839 5
-2 0 7 388.496 107.853 19
-2 0 7 296.456 106.91 8
-2 0 6 9371.17 430.758 8
-2 0 6 9019.62 361.376 5
2 0 -5 1478.26 110.621 2
2 0 -4 2859.31 120.019 1
2 0 -4 2850.74 108.608 4
2 0 -4 2860.69 156.176 2
-2 0 4 2894.58 122.526 3
2 0 -3 17061 340.337 4
-2 0 3 16397.1 347.872 3
2 0 -2 174362 2633.22 2
2 0 -2 172903 2537.34 4
-2 0 1 2917.63 157.748 4
2 0 0 200083 3146.31 2
-2 0 0 213833 3265.78 4
2 0 1 13381.8 378.261 2
-2 0 -1 13975 451.148 4
2 0 2 23195.4 557.146 2
2 0 2 22675.2 590.903 1
2 0 3 90491.7 1612.9 2
2 0 3 92527.9 1695.31 1
2 0 4 246774 3990.41 5
2 0 4 244655 3983.42 1
-2 0 -4 248187 3954.42 10
-2 0 -5 51973.1 1195.66 10
2 0 5 51437.8 1234.55 5
-2 0 -6 475.032 129.387 10
2 0 6 607.515 162.941 5
2 0 7 3478.74 338.405 5
2 0 8 49501.8 1212.03 5
-2 0 -8 5588.96 1252.3 17
2 0 9 889.593 292.692 5
2 0 9 420.914 149.867 15
2 0 10 1612.16 272.989 5
2 0 10 1525.25 208.739 19
2 0 11 304.584 85.0774 19
-2 -1 12 35949.2 981.346 5
-2 -1 11 1747.98 357.331 5
-2 -1 10 4479.98 332.683 18
-2 -1 10 4763.66 393.81 5
-2 -1 9 8193.17 479.372 5
-2 -1 8 67160.4 1552.14 8
-2 -1 8 65279.9 1484.93 5
-2 -1 7 11078.3 513.806 8
-2 -1 7 10096.2 432.236 5
-2 -1 6 1385.21 175.794 8
-2 -1 6 1200.32 132.471 5
2 1 -5 51816.7 1002.09 2
2 1 -5 52950.7 954.585 4
2 1 -4 89747.7 1440.79 2
2 1 -4 86811.6 1338.73 4
-2 -1 4 84865.8 1385.48 3
2 1 -3 158096 2400.05 1
2 1 -3 164579 2480.73 4
2 1 -2 103719 1707.62 1
2 1 -2 111222 1750.73 4
-2 -1 1 593174 8840.56 4
2 1 -1 585129 8761.02 4
-2 -1 0 608899 9180.95 4
2 1 0 632263 9070.38 1
2 1 1 109898 1881.69 2
2 1 1 110700 1906.78 1
2 1 2 13864 468.777 1
-2 -1 -2 13841.8 498.101 4
2 1 2 14698.9 452.709 2
-2 -1 -3 172787 2914.46 10
-2 -1 -4 264687 2130.14 10
2 1 4 261096 2330.03 5
2 1 5 6441.11 408.864 5
-2 -1 -5 6406.03 362.196 10
-2 -1 -6 4954.43 722.127 17
2 1 6 16423.8 686.103 5
2 1 7 4236.2 386.159 5
-2 -1 -7 7092.3 647.578 17
2 1 8 25244.7 907.829 5
2 1 8 23446.4 968.003 15
2 1 9 17134.3 655.983 19
2 1 9 18321 676.758 5
2 1 9 16404.7 699.009 15
2 1 10 3284.8 234.336 19
2 1 10 3336.63 226.464 5
-2 -2 12 29805.4 900.411 5
-2 -2 11 3726.96 350.122 5
-2 -2 11 3112.93 285.805 18
-2 -2 10 2941.48 323.139 5
-2 -2 9 17015.6 729.141 8
-2 -2 9 16257.2 694.493 5
-2 -2 8 26953.2 854.61 5
-2 -2 8 29567.9 969.614 8
-2 -2 7 22705.9 799.174 8
-2 -2 7 23110.1 752.529 14
-2 -2 7 20684.7 682.087 5
-2 -2 6 129988 2374.31 8
-2 -2 6 127976 2312.54 14
-2 -2 5 93395.8 1739.15 3
-2 -2 5 91812.3 1845.57 8
2 2 -4 392127 5811.2 4
-2 -2 4 381252 5879.32 3
2 2 -3 53269.5 1053.55 4
2 2 -3 55253.4 956.083 1
2 2 -2 28056.6 620.016 1
2 2 -2 27409.3 661.816 4
-2 -2 1 184830 3111.12 4
2 2 -1 185735 3024.83 4
2 2 -1 193039 2992.69 1
2 2 0 197554 3193.71 1
-2 -2 -1 7140.4 362.374 4
2 2 1 6864.87 327.862 1
-2 -2 -2 36795.5 952.409 10
2 2 2 34442.3 881.417 2
-2 -2 -3 10857.1 498.175 17
-2 -2 -3 9349.6 435.63 10
2 2 3 10852.3 551.133 5
2 2 4 29762.9 990.002 5
-2 -2 -4 27519.4 838.561 10
-2 -2 -5 329.02 152.353 17
-2 -2 -5 491.529 130.231 10
2 2 6 4924.48 404.386 5
2 2 7 19240.5 778.23 5
2 2 7 17998.8 697.837 19
2 2 8 36882.8 1056.03 5
2 2 8 36384 1015.59 19
2 2 8 36254.8 1176.52 15
-2 -2 -8 38485 1016.25 12
2 2 9 5324.68 298.862 19
2 2 9 4807.95 333.622 15
2 2 9 5159.99 299.59 5
-2 -3 12 3020.87 266.215 18
-2 -3 12 962.553 179.87 5
-2 -3 11 527.228 170.837 18
-2 -3 11 377.07 166.088 5
-2 -3 10 1623.96 252.15 8
-2 -3 10 1886.72 262.141 5
-2 -3 9 28328.8 1022.75 8
-2 -3 9 27129.7 920.353 5
-2 -3 8 67731.9 1695.91 8
-2 -3 8 65831.3 1578.32 14
-2 -3 8 63740.1 1520.42 5
-2 -3 7 2470.83 283.553 8
-2 -3 7 2753.53 280.146 14
-2 -3 7 2110.36 239.29 5
-2 -3 6 13563 621.492 8
-2 -3 6 14885.4 595.191 5
-2 -3 6 14610.6 610.31 14
-2 -3 5 1420.17 197.674 16
-2 -3 5 1548.32 199.809 14
-2 -3 5 1238.96 176.856 7
-2 -3 5 1429.78 206.376 10
-2 -3 5 1412.19 187.516 5
-2 -3 4 8464.91 414.471 8
-2 -3 4 7742.41 391.325 7
-2 -3 4 7674.89 419.507 10
-2 -3 3 22450.2 687.873 8
-2 -3 3 22161.3 673.921 14
-2 -3 3 23074 747.354 12
-2 -3 3 21496.4 667.667 7
-2 -3 3 22317.9 731.012 10
2 3 -2 25040.3 650.936 1
-2 -3 2 23542.7 685.33 14
-2 -3 2 26308.8 801.227 12
-2 -3 2 24210.7 763.283 10
2 3 -1 8477.98 370.567 1
-2 -3 1 9232.92 453.072 12
-2 -3 0 2427.09 231.689 10
-2 -3 0 2211.23 230.311 12
-2 -3 -1 110225 2196.85 10
-2 -3 -1 104163 2227.87 12
-2 -3 -2 76204.8 1717.44 10
2 3 2 95921.4 2049.48 5
-2 -3 -3 22071.7 763.658 10
2 3 3 25094.4 945.499 5
-2 -3 -4 16756.8 650.656 10
2 3 4 17071.8 767.376 5
2 3 5 1744.3 272.464 5
-2 -3 -5 1687.39 252.755 12
2 3 6 3742.94 299.09 19
2 3 6 3348.82 338.13 5
-2 -3 -6 3619.05 326.665 12
2 3 7 1243.7 174.786 19
2 3 7 1348.17 210.543 5
2 3 7 1288.11 259.001 15
-2 -3 -7 1187.16 189.794 12
2 3 8 8961.21 471.141 15
-2 -3 -8 9818.69 373.22 12
2 3 8 8826.76 404.691 5
-2 -4 12 6596.43 361.723 18
-2 -4 12 4461.45 270.571 5
-2 -4 11 866.928 178.159 5
-2 -4 11 768.926 180.284 18
-2 -4 11 1049.95 183.517 8
-2 -4 10 1027.07 202.552 5
-2 -4 10 138.643 135.794 8
-2 -4 9 13073.8 702.93 8
-2 -4 9 12406.4 622.185 14
-2 -4 9 11977.4 590.89 5
-2 -4 8 3983.67 398.12 8
-2 -4 8 3394.21 354.919 14
-2 -4 8 3917.24 338.604 5
-2 -4 7 6008.76 434.918 14
-2 -4 7 6196.42 418.993 5
-2 -4 7 6104.31 470.179 8
-2 -4 6 36952.6 1245.42 16
-2 -4 6 38119.1 1151 14
-2 -4 6 39941.9 1335.06 10
-2 -4 6 38943.4 1115.42 5
-2 -4 5 464.212 154.984 5
-2 -4 5 267.358 147.799 16
-2 -4 5 282.254 141.038 8
-2 -4 5 109.134 138.935 10
-2 -4 4 7643.58 447.88 8
-2 -4 4 7258.27 492.145 16
-2 -4 4 7274.39 422.414 14
-2 -4 4 7029.6 409.346 7
-2 -4 4 7310.34 476.629 10
-2 -4 3 80908.6 1698.04 8
-2 -4 3 73584.7 1628.19 14
-2 -4 3 82703.8 1857.84 12
-2 -4 3 71352.1 1606.01 7
-2 -4 3 73431.6 1765.77 10
-2 -4 2 23703.3 773.579 8
-2 -4 2 21762.8 714.217 14
-2 -4 2 23566.4 859.221 12
-2 -4 2 20598.6 697.936 7
-2 -4 2 18897 770.788 10
-2 -4 1 10783.3 477.171 14
-2 -4 1 10872 557.633 10
-2 -4 1 11656.5 587.531 12
-2 -4 1 12765.1 660.085 22
-2 -4 0 55986.1 1455 12
-2 -4 0 55748.4 1416.79 10
-2 -4 -1 3118.55 305.885 10
-2 -4 -2 668.339 189.675 12
2 4 2 521.833 214.952 5
-2 -4 -3 51221.2 1396.31 12
-2 -4 -3 53532.6 1376.5 10
-2 -4 -4 37876.8 1135.1 12
-2 -4 -4 40948.1 1112.38 10
2 4 4 39939.1 1232.64 5
-2 -4 -5 1449.59 222.509 12
2 4 5 1047.65 222.422 5
2 4 6 1916.46 276.244 15
-2 -4 -6 1867.72 206.393 12
2 4 6 1779.99 233.71 5
-2 -4 -7 4908 265.855 12
-2 -5 12 15903.6 533.448 18
-2 -5 11 222.231 104.848 5
-2 -5 10 1020.7 209.506 18
-2 -5 10 976.658 187.691 14
-2 -5 10 1048.31 180.186 5
-2 -5 10 1459.79 251.697 8
-2 -5 9 44888.1 1365.61 8
-2 -5 9 41277.5 1139.27 5
-2 -5 9 42826.8 1282.22 14
-2 -5 8 910.47 197.453 5
-2 -5 8 646.313 211.323 14
-2 -5 8 482.797 204.831 8
-2 -5 7 433.148 167.715 5
-2 -5 7 273.146 185.807 14
-2 -5 6 1258.82 256.126 8
-2 -5 6 1225.97 280.723 16
-2 -5 6 1228.77 255.129 14
-2 -5 6 1439.19 313.538 10
-2 -5 6 1070.65 226.146 5
-2 -5 5 41066 1257.8 8
-2 -5 5 43100.3 1466.98 16
-2 -5 5 40241.9 1424.7 10
-2 -5 5 40490.5 1224.58 14
-2 -5 4 36117 1114.98 8
-2 -5 4 38299.9 1352.5 16
-2 -5 4 35031.5 1091.24 14
-2 -5 4 33676 1242.8 10
-2 -5 3 65226.8 1570.06 14
-2 -5 3 63160.3 1739.95 10
-2 -5 3 67504.8 1603.48 8
-2 -5 2 37904.8 1082.08 14
-2 -5 2 37035.7 1262 12
-2 -5 2 35349.8 1010.15 7
-2 -5 1 149464 3046.6 12
-2 -5 1 148325 2995.95 10
-2 -5 1 143996 3127.11 22
-2 -5 0 96615.8 2391.31 22
-2 -5 0 99626 2229.34 10
-2 -5 -1 21107.3 845.837 10
-2 -5 -2 15173.8 707.913 12
-2 -5 -2 15243.8 682.598 10
-2 -5 -3 59385.4 1505.55 12
-2 -5 -3 60571.5 1479.17 10
-2 -5 -4 27467.1 885.538 12
2 5 5 552.982 153.143 15
-2 -5 -5 585.665 140.562 12
2 5 6 1932.85 187.335 15
-2 -5 -6 1877.61 152.646 12
-2 -5 -6 2044.72 187.986 22
-2 -6 11 5643.93 315.016 18
-2 -6 10 11677.7 486.166 18
-2 -6 10 11573.5 552.246 14
-2 -6 10 10552.6 426.415 5
-2 -6 9 5649.01 353.577 18
-2 -6 9 5546.93 420.053 14
-2 -6 9 5432.02 336.472 5
-2 -6 8 48331.2 1398.35 14
-2 -6 8 47523.1 1221.55 5
-2 -6 7 22382.9 915.37 8
-2 -6 7 22873.8 928.591 14
-2 -6 7 21275.2 801.238 5
-2 -6 6 35179.5 1153.44 8
-2 -6 6 36121.3 1413.46 16
-2 -6 6 33771.4 1154.73 14
-2 -6 6 33114.5 1396.23 10
-2 -6 6 33311.3 1066.39 5
-2 -6 5 91383.5 2126.77 8
-2 -6 5 101738 2556.74 16
-2 -6 5 97364 2179.38 14
-2 -6 5 89842.1 2127.78 5
-2 -6 5 99706.2 2616.76 10
-2 -6 4 53118.3 1439.49 14
-2 -6 4 51037.9 1717.39 10
-2 -6 3 32744.8 1291.15 16
-2 -6 3 32533.3 1045.81 14
-2 -6 2 31697 1013.92 14
-2 -6 2 29394.8 1162.08 10
-2 -6 1 70569.8 1858.63 10
-2 -6 1 63229.5 1788.12 22
-2 -6 0 26584.8 1012.35 10
-2 -6 0 28764.7 1083.43 22
-2 -6 -1 7778.7 515.165 12
-2 -6 -1 7504.86 497.597 10
-2 -6 -1 7791.84 523.746 22
-2 -6 -2 223.116 159.181 12
-2 -6 -2 79.9428 123.893 10
-2 -6 -2 112.084 139.364 22
-2 -6 -3 6495.91 393.503 22
2 6 3 6391.11 342.821 15
-2 -6 -3 7011.56 392.981 12
2 6 4 11411.8 418.474 15
-2 -6 -4 12412.5 472.776 22
-2 -7 9 16597.8 675.208 14
-2 -7 9 14549.7 471.389 5
-2 -7 8 6027.98 425.119 14
-2 -7 8 5323.95 313.862 5
-2 -7 7 396.5 134.244 5
-2 -7 6 13123.4 638.741 14
-2 -7 6 11888.3 567.619 5
-2 -7 6 13207.4 804.139 16
-2 -7 5 1930.36 345.449 16
-2 -7 5 2174.54 282.584 14
-2 -7 5 2178.43 372.639 10
-2 -7 5 2042.28 268.647 5
-2 -7 4 1394.57 336.958 10
-2 -7 4 2218.95 349.556 16
-2 -7 4 2266.56 268.409 14
-2 -7 3 11844.7 732.388 16
-2 -7 3 12062.5 582.118 14
-2 -7 2 7728.6 559.993 16
-2 -7 2 8588.81 613.175 10
-2 -7 1 3187.83 363.266 10
-2 -7 0 65.6573 141.832 16
-2 -7 0 98.4428 141.002 10
-2 -7 -1 12687.6 554.658 16
-2 -7 -1 11659.4 480.169 22
-2 -7 -1 12319.1 532.807 10
-2 -7 -2 2507.29 215.063 16
-2 -8 7 9359.58 337.302 5
-2 -8 6 4031.2 245.496 5
-2 -8 5 5523.02 312.189 5
-2 -8 4 7705.46 489.603 16
-2 -8 4 6022.23 341.347 5
-2 -8 3 8410.98 480.344 16
-2 -8 3 7126.08 365.165 5
-2 -8 2 2597.72 254.027 16
-2 -8 2 1966.49 184.623 5
-2 -8 0 513.071 99.0997 16
3 -10 -1 4888.33 239.005 20
3 -10 0 602.455 114.316 22
3 -10 0 574.037 114.67 20
3 -10 1 1489.73 175.009 22
3 -10 1 1537.47 173.222 20
3 -10 2 256.683 104.633 20
3 -10 2 166.984 105.156 22
3 -10 3 471.052 86.4947 5
3 -10 3 419.051 113.169 20
3 -10 4 5114.82 230.176 5
3 -10 5 8721.35 404.03 22
3 -10 6 2679.85 203.072 22
3 -9 -3 1336.65 164.987 20
-3 9 3 1281.09 164.936 13
3 -9 -3 1365.62 156.338 22
-3 9 2 6613.42 401.559 13
3 -9 -2 7622.85 394.425 22
3 -9 -1 5729.21 380.727 22
-3 9 1 5812.98 401.161 13
-3 9 0 3121.2 316.466 13
3 -9 0 3389.78 333.232 22
3 -9 0 3079.05 321.728 20
3 -9 1 11038.7 587.961 20
-3 9 -1 10439.8 553.733 13
3 -9 1 11656.1 606.666 22
3 -9 2 1081.89 226.049 20
3 -9 2 783.787 172.995 5
3 -9 2 946.914 221.455 22
-3 9 -2 914.056 186.88 13
3 -9 3 539.689 158.805 5
3 -9 3 446.805 193.49 22
3 -9 3 625.773 183.78 20
3 -9 4 10993.5 476.083 5
3 -9 4 9840.6 540.542 20
3 -9 5 8217.71 394.498 5
3 -9 6 271.685 111.437 5
3 -9 6 236.842 146.676 22
3 -9 7 7570.83 312.042 5
3 -9 7 7577.69 421.618 22
3 -9 8 321.22 104.881 22
-3 8 5 5038.86 290.124 13
3 -8 -5 4982.35 262.569 22
-3 8 5 4689.3 248.863 19
-3 8 4 5252.75 359.137 13
-3 8 4 5404.37 316.096 19
3 -8 -4 5826 350.548 22
-3 8 3 26274.6 931.689 13
3 -8 -3 28188.2 884.967 22
-3 8 3 27119.9 842.434 19
-3 8 2 349.232 149.384 19
-3 8 2 334.193 189.818 13
-3 8 2 340.968 150.643 8
3 -8 -1 2026.24 293.522 22
-3 8 1 1458.96 287.342 13
-3 8 0 26734.8 1021.9 13
3 -8 0 27795 1001.37 22
3 -8 0 25224.9 1009.13 20
-3 8 -1 55567.1 1550.82 13
3 -8 1 58675.6 1619.74 22
3 -8 1 58145.5 1625.11 20
-3 8 -2 8346.91 516.822 13
3 -8 2 8573.93 578.987 22
3 -8 2 7867.54 545.784 20
3 -8 3 445.244 168.85 5
3 -8 3 312.569 192.573 22
-3 8 -3 313.269 151.185 13
3 -8 3 427.144 208.989 20
3 -8 4 1713.74 230.07 5
3 -8 4 1239.96 267.131 22
3 -8 4 1968.22 284.677 20
3 -8 5 4502.19 332.649 5
3 -8 6 3794.09 390.046 22
3 -8 6 5171.47 332.958 5
3 -8 7 5351.14 425.757 22
3 -8 7 5493.07 319.638 5
3 -8 8 9659.28 386.477 5
3 -8 8 8779.78 494.787 22
3 -8 9 2130.68 164.265 5
3 -8 9 2193.59 229.259 22
-3 7 7 21723 603.749 19
-3 7 6 4221.14 301.896 19
3 -7 -6 4064.79 263.115 22
-3 7 6 4117.48 278.17 21
-3 7 5 20309.8 715.382 21
-3 7 5 21409.7 774.691 19
-3 7 5 20634.4 771.497 13
3 -7 -5 22786.8 750.392 22
-3 7 4 114906 2294.11 21
3 -7 -4 120195 2347.89 22
-3 7 4 117384 2404.99 19
-3 7 3 61873.2 1676.71 13
3 -7 -3 63294.4 1586.09 22
-3 7 3 65747.6 1601.89 8
-3 7 3 66056.9 1640.07 19
-3 7 2 115535 2647.91 13
3 -7 -2 118950 2486.87 22
3 -7 -1 3096.3 339.85 22
-3 7 1 3430.33 353.13 19
-3 7 0 52435.1 1510.08 13
3 -7 0 54459.2 1486.21 22
3 -7 1 47330.6 1266.11 16
-3 7 -1 46319.7 1360.55 13
3 -7 1 46771.5 1345.73 22
3 -7 1 47029.5 1389.71 20
-3 7 -2 1878.23 253.78 13
3 -7 2 1808.42 285.322 22
3 -7 2 1891.85 288.146 20
-3 7 -3 2188.57 262.759 13
3 -7 3 2256.36 304.952 22
3 -7 3 2237.62 306.32 20
3 -7 4 29008.3 1029.19 20
3 -7 4 28211.7 884.363 5
3 -7 4 28042.8 1013.57 22
3 -7 5 42957.7 1115.68 5
3 -7 5 41268.5 1307.22 20
3 -7 6 1931.37 233.025 5
3 -7 7 9712.16 454.934 5
3 -7 7 10298.5 636.43 22
3 -7 8 50666.1 1157.64 5
3 -7 8 51297.4 1446.83 22
3 -7 9 71826.5 1688.95 22
3 -7 9 71905.1 1428.16 5
3 -7 10 21332.9 532.336 5
-3 7 -10 18009.6 538.393 10
-3 6 8 37333.6 937.116 19
-3 6 8 36602.8 935.918 21
-3 6 7 41473.2 1133.08 21
-3 6 7 41982 1134.04 19
-3 6 6 17759.3 706.555 13
-3 6 6 16900.5 722.898 21
3 -6 -6 17392.5 644.195 22
-3 6 6 16198.1 725.192 19
3 -6 -5 3181.86 299.582 22
-3 6 5 3223.38 331.861 13
-3 6 5 3103.01 324.811 21
-3 6 5 2965.84 346.107 19
-3 6 4 80739.4 1854.42 8
-3 6 4 80135.1 1936.17 13
-3 6 4 80505.6 1901.25 21
3 -6 -4 85225.3 1828.07 22
-3 6 4 83151.3 1950.11 19
3 -6 -3 20881.2 765.044 22
-3 6 3 22222 866.353 8
-3 6 3 21240.4 874.26 13
-3 6 3 20700.5 804.357 21
-3 6 3 20295.7 846.994 19
-3 6 2 4143.11 391.184 13
-3 6 2 3990.12 336.941 21
3 -6 -2 3805.78 333.062 22
-3 6 2 4002.71 366.117 19
-3 6 1 2132.76 243.813 21
3 -6 -1 1785.15 237.854 22
-3 6 1 2046.31 268.146 19
-3 6 0 28329.5 967.837 13
3 -6 0 28836.1 917.1 22
-3 6 0 29611.7 974.852 19
3 -6 1 22243.8 749.608 16
-3 6 -1 21631.6 801.569 13
3 -6 1 21487.6 767.202 22
-3 6 -2 12792.8 577.636 13
3 -6 2 13137.8 603.554 22
3 -6 2 12975.1 608.866 20
3 -6 3 447.245 125.167 5
-3 6 -3 608.958 149.028 13
3 -6 3 414.757 153.034 22
3 -6 3 431.793 151.731 20
3 -6 4 65046 1442.64 5
3 -6 4 68032.8 1650.57 22
3 -6 4 69867.6 1686.43 20
3 -6 5 75383.2 1614.33 5
3 -6 5 78373.2 1882.86 22
3 -6 6 19125.4 676.888 5
3 -6 7 26196.7 792.926 5
3 -6 8 48396.6 1162.84 5
3 -6 8 49250.4 1463.21 22
3 -6 9 24396.8 726.703 5
3 -6 9 24471.6 927.214 22
-3 6 -9 22588.1 750.804 10
3 -6 10 300.387 109.319 5
-3 6 -10 302.275 107.34 10
-3 6 -11 11146.3 781.741 17
-3 5 9 2672.19 248.725 21
-3 5 7 1465.06 196.67 5
-3 5 6 77193 1636.95 5
-3 5 5 142.192 134.136 13
-3 5 5 82.2685 112.433 5
-3 5 5 106.229 166.506 19
-3 5 4 18258.9 757.011 13
3 -5 -4 18967.7 670.072 22
-3 5 4 16840.2 742.905 19
-3 5 4 16906.8 721.604 8
-3 5 4 15854 601.445 5
-3 5 3 10806.3 570.287 13
3 -5 -3 10297.3 472.056 22
-3 5 3 10444.2 553.609 19
-3 5 2 28006.7 929.305 13
-3 5 2 27453.5 874.32 21
3 -5 -2 26715.6 793.919 22
-3 5 2 28773.8 919.325 19
-3 5 1 48168.6 1227.05 19
-3 5 1 48462.4 1179.23 21
3 -5 -1 45532.9 1117.78 22
-3 5 0 15415.2 573.555 21
-3 5 0 14686.5 605.047 13
3 -5 0 14083.1 538.389 22
-3 5 0 14581.5 592.329 19
-3 5 -1 38953.2 1040.23 13
3 -5 1 39111.2 996.095 22
3 -5 1 38467.3 1026.65 20
-3 5 -1 40108.4 1069.16 19
3 -5 2 8632.21 436.585 22
-3 5 -2 7914.51 409.576 13
3 -5 3 4586.77 271.306 5
3 -5 3 4659.61 335.176 22
3 -5 3 4943.07 357.381 20
3 -5 4 49386.9 1265.9 22
3 -5 4 50284.1 1305.56 20
3 -5 5 12981.7 502.259 5
3 -5 5 14436.8 666.881 22
3 -5 6 33816.2 916.6 5
3 -5 6 36752.8 1169.37 22
3 -5 7 4078.01 302.832 5
3 -5 8 384.392 150.272 5
3 -5 9 159.791 130.162 5
3 -5 9 89.5057 195.64 22
-3 5 -9 87.205 124.442 10
3 -5 10 27285.6 762.205 5
-3 5 -10 28650.7 800.129 10
-3 5 -11 14750.3 1010 17
-3 4 10 16220 603.793 21
-3 4 10 14858 557.158 19
-3 4 9 2299.27 270.101 19
-3 4 8 221.165 172.059 19
-3 4 8 832.657 187.628 5
-3 4 7 2305.73 262.475 5
-3 4 7 212.903 188.763 19
-3 4 6 59246.9 1367.11 5
-3 4 6 63767.2 1586.42 19
-3 4 5 2068.77 257.374 19
-3 4 5 2351.37 280.799 8
-3 4 5 1950.4 246.21 13
-3 4 4 40021.9 1129.1 19
-3 4 4 41925.7 1185.78 8
-3 4 3 16963.8 664.591 13
-3 4 2 2033.32 201.273 2
-3 4 2 2044.43 217.272 13
-3 4 2 1896.82 196.802 21
-3 4 1 86767.8 1727.99 2
-3 4 1 84373.3 1718.69 13
-3 4 0 42747.8 1039.99 2
-3 4 -1 109679 2036.71 2
-3 4 -2 9186.06 396.847 2
-3 4 -2 9221.5 375.747 3
3 -4 2 9638.75 434.239 20
3 -4 3 4227.01 284.813 22
3 -4 3 3652.61 284.442 20
3 -4 4 963.253 120.618 5
3 -4 4 1008.28 169.258 22
3 -4 5 1393.6 151.656 5
3 -4 5 1705.22 229.962 22
3 -4 6 21608.2 666.522 5
3 -4 6 23156.5 868.794 22
3 -4 7 16324.8 763.791 22
3 -4 7 17246.9 628 5
3 -4 8 4156.91 319.235 5
-3 4 -8 3673.79 322.305 10
3 -4 9 3694.06 305.232 5
-3 4 -9 3676.61 316.429 10
3 -4 10 6702.41 385.345 5
3 -4 11 2920.16 204.705 5
-3 4 -11 11753.4 879.16 17
-3 3 11 322.078 103.174 19
-3 3 11 429.969 123.875 21
-3 3 10 567.848 156.578 19
-3 3 9 13351.9 614.735 19
-3 3 9 13986 551.836 5
-3 3 8 107362 2222.28 19
-3 3 8 101093 2026.54 5
-3 3 7 1046.84 213.897 19
-3 3 7 1937.07 283.016 5
-3 3 6 57263.3 1401.03 19
-3 3 6 55502.7 1497.55 8
-3 3 5 108494 2288.79 8
-3 3 5 103983 2061.06 19
-3 3 4 288751 4724.59 19
-3 3 4 300022 4942.23 8
-3 3 4 302210 4806.52 13
-3 3 3 251779 4151.28 19
-3 3 3 267173 4292.7 8
-3 3 3 260751 4163.02 2
-3 3 2 8604.49 383.246 2
-3 3 1 6125.97 312.294 2
-3 3 0 115683 1875.94 3
-3 3 -1 102269 1828.12 2
-3 3 -1 101454 1731.2 3
-3 3 -2 6271.78 293.885 2
-3 3 -2 6488.8 293.25 3
-3 3 -3 3302.35 209.745 2
-3 3 -3 3500.46 239.304 3
3 -3 4 136141 2500.31 22
3 -3 5 3222.02 214.898 5
3 -3 5 3493.11 298.156 22
3 -3 6 8674.46 403.604 5
3 -3 6 8392.6 500.706 22
-3 3 -7 59215.9 1409.48 10
3 -3 7 59959 1355.93 5
3 -3 7 56345.8 1554.87 22
-3 3 -8 140425 2687.77 10
3 -3 8 136427 2577.26 5
3 -3 9 69569.4 1559.7 5
-3 3 -9 72485.4 1584.28 10
-3 3 -10 9457.02 1501.21 17
3 -3 10 10246.2 461.867 5
-3 3 -11 13660 633.528 17
-3 2 11 9025.14 429.752 19
-3 2 11 9075.29 454.711 21
-3 2 10 14941.7 613.781 19
-3 2 9 60894 1466.08 19
-3 2 9 58689.8 1350.54 5
-3 2 8 202917 3520.32 19
-3 2 8 187627 3306.47 5
-3 2 7 59106.5 1416.1 19
-3 2 7 58363.4 1523.3 8
-3 2 6 3974.02 305.22 19
-3 2 6 4163.11 361.028 8
-3 2 5 75169 1519.16 19
-3 2 5 76001.7 1788.71 8
-3 2 4 240667 4242.19 8
3 -2 -4 254127 3914.03 2
3 -2 -3 1001.28 114.489 2
-3 2 3 1366.07 161.264 2
-3 2 2 34807.3 827.692 2
-3 2 2 29918.9 491.535 4
-3 2 2 26991.1 459.899 3
3 -2 -2 32181.7 729.866 2
-3 2 1 933.021 117.783 2
-3 2 1 1114.06 81.2154 3
3 -2 -1 1048.05 116.126 2
-3 2 0 100239 1817.26 2
-3 2 0 105115 1709.03 3
3 -2 0 100104 1814.53 2
-3 2 -1 17046.6 510.103 2
3 -2 1 17123.3 537.645 2
3 -2 2 51100.1 1153.79 2
-3 2 -2 48636.8 1082.25 2
3 -2 3 69180.6 1532.55 2
-3 2 -3 82852.3 1625.71 3
3 -2 4 197499 3369.26 22
3 -2 5 180382 2967.08 5
3 -2 5 177279 3211.32 22
-3 2 -5 176508 3103.78 10
3 -2 6 32823.5 880.866 5
-3 2 -6 30915.4 937.396 10
3 -2 7 14030.5 583.18 5
-3 2 -7 13856.8 631.944 10
3 -2 8 156817 2957.99 5
-3 2 -8 172060 3049.2 10
-3 2 -9 13846 1642.07 17
3 -2 9 4647.01 352.738 5
3 -2 10 1914.17 242.339 5
-3 2 -10 7913.28 711.868 17
-3 1 11 4817.58 310.391 19
-3 1 11 4944.14 324.763 21
-3 1 10 3070.12 278.856 19
-3 1 9 33150.4 971.308 19
-3 1 9 30770.5 897.725 5
-3 1 8 5917.74 383.493 19
-3 1 8 10094 544.495 8
-3 1 7 11917.2 513.819 19
-3 1 7 11384 594.797 8
-3 1 6 22049.5 673.755 19
-3 1 6 21227 807.789 8
-3 1 5 409.505 122.161 8
3 -1 -4 26175.4 664.761 2
3 -1 -3 6208.48 284.592 2
-3 1 3 6054.76 144.693 3
-3 1 2 103599 1670.63 4
3 -1 -2 98157.3 1771.88 2
-3 1 1 1956.4 161.461 4
3 -1 0 112114 1989.45 2
-3 1 0 118942 2068.15 4
3 -1 1 296233 4603.23 2
3 -1 2 16308.4 538.447 2
3 -1 3 49407.5 1176.49 1
-3 1 -3 48663.6 1135.15 10
-3 1 -4 42539 1077.8 10
3 -1 5 811.571 147.247 5
-3 1 -5 1062.38 180.971 10
3 -1 6 3613.97 294.659 5
-3 1 -6 3831.56 321.81 10
3 -1 7 412.17 161.407 5
-3 1 -7 324.959 151.007 10
3 -1 8 528.654 178.072 5
-3 1 -8 6388.07 1439.09 17
3 -1 9 6540.26 398.783 5
-3 1 -9 11688.8 763.494 17
3 -1 10 31344.2 766.851 5
-3 1 -10 34678.4 804.852 17
-3 0 9 625.39 176.266 8
-3 0 8 922.609 202.202 8
-3 0 7 53459.1 1429.3 8
-3 0 6 128051 2506.69 8
-3 0 6 126332 2376.32 6
-3 0 5 55390.9 1336.46 8
3 0 -5 58002.3 1189.6 2
-3 0 5 56370.7 1306.47 6
3 0 -4 53539.6 1114.13 2
3 0 -3 20820.6 577.222 2
3 0 -2 507.38 87.8888 2
-3 0 2 570.441 92.2613 4
3 0 -1 36827.8 856.077 2
-3 0 1 42499.1 978.04 4
3 0 0 7789.71 342.545 1
-3 0 0 8470.05 404.678 4
3 0 0 8321.03 338.875 2
3 0 1 8586.96 357.453 2
-3 0 -1 8061.99 411.305 4
3 0 1 7736.31 358.361 1
3 0 2 1544.47 167.085 1
3 0 2 1811.51 167.051 2
-3 0 -2 1501.68 184.974 4
-3 0 -2 1918.97 193.914 10
-3 0 -3 12037.9 505.052 11
-3 0 -3 9950.72 460.763 10
-3 0 -4 4019.78 804.703 17
-3 0 -4 4100.64 314.521 11
-3 0 -4 3022.89 272.741 10
3 0 4 3342.03 257.805 5
3 0 5 193.907 116.642 5
-3 0 -5 225.879 132.128 10
3 0 6 187856 2452.84 5
-3 0 -6 204948 2619.09 10
3 0 7 1594.01 225.348 5
-3 0 -7 1882.81 231.369 10
-3 0 -8 1871.68 396.65 17
3 0 8 1153.28 223.354 5
3 0 9 182.046 103.639 19
3 0 9 377.331 131.222 5
3 0 10 3201.88 200.891 19
-3 -1 11 2352.29 235.234 18
-3 -1 10 812.869 190.407 8
-3 -1 9 28528.2 1012.26 8
-3 -1 8 43430.9 1300.85 8
-3 -1 8 42894.6 1160.41 14
-3 -1 7 22253.1 855.852 8
-3 -1 6 17562 707.871 8
3 1 -5 173701 2756.69 2
-3 -1 5 168087 2889.45 7
-3 -1 5 168963 2933.26 6
3 1 -4 214430 3409.02 2
-3 -1 4 207738 3503.6 8
3 1 -4 213131 3275 4
-3 -1 4 212710 3530.81 6
-3 -1 4 206728 3352.97 3
3 1 -3 11318.1 354.43 1
3 1 -3 13200 474.977 2
3 1 -2 7064.69 289.414 1
3 1 -2 7800.71 361.825 2
3 1 -1 6802.45 303.177 1
3 1 -1 7600.67 358.143 2
-3 -1 0 145789 2761.85 4
3 1 0 151962 2614.94 1
-3 -1 -1 657.434 165.851 17
-3 -1 -1 917.061 144.481 11
-3 -1 -2 27950.3 861.054 11
-3 -1 -2 26164.4 828.58 10
3 1 3 8859.8 451.848 5
-3 -1 -3 8727.21 484.117 11
-3 -1 -3 8150.47 448.355 10
3 1 4 17930.6 694.249 5
-3 -1 -4 17502.9 696.922 10
3 1 5 18902.7 734.404 5
-3 -1 -5 20331.3 763.625 10
3 1 6 19382.7 734.164 5
-3 -1 -6 20844.9 828.773 17
-3 -1 -6 20946.1 760.032 10
3 1 7 29314.9 892.071 5
-3 -1 -7 31804.2 912.679 17
3 1 8 54644.7 1225.66 5
3 1 8 56622.3 1272.15 19
3 1 8 54091.5 1451.64 15
3 1 9 16300.4 562.019 15
3 1 9 17077.8 479.923 5
-3 -2 12 41868.8 974.607 18
-3 -2 11 12306.8 557.169 18
-3 -2 10 39798 1249.35 8
-3 -2 9 118851 2583.01 8
-3 -2 9 116461 2363.81 14
-3 -2 8 113925 2506.54 8
-3 -2 8 116120 2390.15 14
-3 -2 7 7851 504.729 8
-3 -2 7 7970.06 477.465 14
-3 -2 6 13679.7 634.519 8
-3 -2 5 175385 3102.8 8
-3 -2 5 169154 3138.38 7
-3 -2 4 124270 2323.63 8
-3 -2 4 125480 2404.57 7
-3 -2 4 124273 2376.92 10
-3 -2 3 1036.5 145.892 8
-3 -2 3 1026.8 141.821 11
-3 -2 3 1323.94 179.492 10
-3 -2 2 394.854 115.211 10
-3 -2 2 586.511 117.786 11
3 2 -2 419.577 88.2477 1
-3 -2 1 15275 629.018 12
-3 -2 1 13765.1 543.72 11
-3 -2 1 13868.2 588.011 10
-3 -2 0 64972.1 1469.68 11
-3 -2 -1 62168 1484.57 17
-3 -2 -1 62548 1470.31 11
-3 -2 -1 61540.2 1460.9 10
-3 -2 -2 94505.5 1997.74 17
-3 -2 -2 93180 2006.76 10
-3 -2 -3 22412.2 808.965 10
3 2 3 24662.7 849.324 5
-3 -2 -3 23372.8 808.329 17
-3 -2 -4 277914 4655.75 17
3 2 4 282415 4762.79 5
-3 -2 -4 282737 4742.83 10
-3 -2 -5 18828.4 682.269 17
-3 -2 -5 19171.5 731.987 10
3 2 5 18701.9 731.409 5
3 2 6 22084.3 762.055 5
3 2 7 56581.1 1278.02 5
-3 -2 -7 63976.1 1436.29 12
3 2 8 47915 1168.32 15
-3 -2 -8 52441.7 1064.13 12
-3 -3 12 22475.8 689.595 18
-3 -3 11 1252.28 217.152 8
-3 -3 11 1911.21 252.837 18
-3 -3 10 4697.29 426.95 8
-3 -3 9 18292.3 864.906 8
-3 -3 9 18867 778.448 14
-3 -3 9 16162.4 614.613 5
-3 -3 8 26025.2 1031.35 8
-3 -3 8 25805.1 960.542 14
-3 -3 7 17606.1 766.163 14
-3 -3 7 16811.6 783.577 8
-3 -3 6 8506.85 523.899 8
-3 -3 6 9002.23 529.169 14
-3 -3 5 13845.2 619.861 8
-3 -3 5 13142.6 672.499 10
-3 -3 4 4725.02 337.44 8
-3 -3 4 5448.65 395.392 16
-3 -3 4 4654.08 342.2 14
-3 -3 4 5275.03 385.55 7
-3 -3 4 5019.26 396.167 10
-3 -3 3 726.109 177.243 10
-3 -3 3 575.452 141.376 14
-3 -3 3 588.028 141.165 8
-3 -3 3 790.741 176.168 12
-3 -3 2 482.96 128.37 14
-3 -3 2 557.49 161.153 12
-3 -3 2 492.536 158.434 10
-3 -3 1 92261.7 1823 14
-3 -3 1 94477.3 2118.42 12
-3 -3 1 91587.1 2033.23 10
-3 -3 0 96706.9 2176.59 12
-3 -3 0 97155.8 2105.11 10
-3 -3 -1 10307.8 584.009 12
-3 -3 -1 9864.97 545.601 10
-3 -3 -2 17213.7 758.89 12
-3 -3 -2 17322.2 728.466 10
3 3 2 18218.9 741.895 5
-3 -3 -3 26517.9 913.549 10
3 3 3 26961.3 937.87 5
3 3 4 17068.9 696.231 5
-3 -3 -4 16993.9 745.695 12
-3 -3 -4 17997.4 717.687 10
-3 -3 -5 3078.35 306.774 12
-3 -3 -5 3456.62 294.121 10
3 3 5 3076.53 285.626 5
-3 -3 -6 2433.29 249.588 12
3 3 6 2129.5 214.13 5
3 3 7 4585.42 321.055 15
-3 -3 -7 4767.39 275.894 12
-3 -4 12 1531.01 189.433 18
-3 -4 11 10852.9 560.158 8
-3 -4 11 12990.5 571.333 18
-3 -4 10 3059.1 348.513 8
-3 -4 10 3056.56 306.002 14
-3 -4 9 3570.09 365.131 14
-3 -4 9 3415.79 391.026 8
-3 -4 8 1414.46 287.407 8
-3 -4 8 1640.69 274.732 14
-3 -4 8 1242.26 179.423 5
-3 -4 7 43856.4 1383.5 8
-3 -4 7 42966.9 1122.28 5
-3 -4 6 2492.92 313.872 8
-3 -4 6 2370.32 371.829 10
-3 -4 6 1994.9 222.675 5
-3 -4 5 32304.7 1055.41 8
-3 -4 5 30668.1 1033.56 14
-3 -4 5 33163 1154.16 16
-3 -4 5 30979.2 1087.54 7
-3 -4 5 30976.6 1198.25 10
-3 -4 4 24963.1 884.074 8
-3 -4 4 25571 1034.22 16
-3 -4 4 23315.4 850.437 14
-3 -4 4 23228.5 905.168 7
-3 -4 4 23571 1005.07 10
-3 -4 3 1928.41 247.109 8
-3 -4 3 2023.68 253.318 14
-3 -4 3 2094.14 310.932 12
-3 -4 3 1920.6 259.615 7
-3 -4 3 1954.54 291.262 10
-3 -4 2 806.331 174.527 14
-3 -4 2 686.853 212.566 12
-3 -4 2 868.053 187.163 7
-3 -4 2 737.131 223.277 10
-3 -4 1 20834.9 934.915 12
-3 -4 0 4064.29 405.512 12
-3 -4 0 3968.59 387.834 10
-3 -4 -1 5510.72 449.132 12
-3 -4 -1 5461.1 434.768 10
-3 -4 -2 47362.2 1329.13 10
-3 -4 -3 3021.4 300.246 10
-3 -4 -4 5588.2 397.489 12
-3 -4 -4 5756.99 373.176 10
-3 -4 -5 27888.6 827.986 12
3 4 6 14210.4 531.879 15
-3 -4 -6 15187.2 493.233 12
-3 -5 11 1325.41 188.903 18
-3 -5 10 1776.62 267.334 8
-3 -5 10 1460.23 225.214 18
-3 -5 10 1519.6 226.616 14
-3 -5 9 34270.7 1160.63 8
-3 -5 9 33393.5 1115.28 14
-3 -5 8 10017.5 607.287 14
-3 -5 7 247.979 109.023 5
-3 -5 7 274.432 204.64 14
-3 -5 7 239.399 189.091 8
-3 -5 6 8711.58 558.546 8
-3 -5 6 8562.96 590.591 16
-3 -5 6 8424.4 555.669 14
-3 -5 6 9254.98 737.381 10
-3 -5 6 7574.81 417.533 5
-3 -5 5 46683.3 1331.89 8
-3 -5 5 47727.5 1551.64 16
-3 -5 5 46447.6 1328.63 14
-3 -5 5 45595 1610.77 10
-3 -5 4 34303.6 1086.57 8
-3 -5 4 37350.1 1382.71 16
-3 -5 4 34889.9 1099.1 14
-3 -5 4 32625 1103.24 7
-3 -5 4 32965.6 1316.2 10
-3 -5 3 1258.4 213.964 8
-3 -5 3 1115.29 214.782 14
-3 -5 3 1096.42 210.479 7
-3 -5 3 1142.12 280.94 10
-3 -5 2 127.469 130.378 14
-3 -5 2 29.7156 179.04 12
-3 -5 2 169.617 134.015 7
-3 -5 1 7452.55 575.681 12
-3 -5 1 7181.22 428.708 7
-3 -5 1 7875.93 567.899 10
-3 -5 0 1702.81 292.659 12
-3 -5 0 1595.39 281.834 10
-3 -5 -1 9118.39 571.042 12
-3 -5 -1 8370.13 528.754 10
-3 -5 -2 3105.19 289.649 22
-3 -5 -2 3457.64 321.347 10
-3 -5 -3 1141.43 191.538 12
-3 -5 -3 1054.32 177.204 10
-3 -5 -3 1086.9 169.41 22
3 5 4 2695.56 234.943 15
-3 -5 -4 2744.94 236.711 12
-3 -5 -4 2293.98 189.127 22
-3 -5 -5 6658.72 282.005 12
-3 -6 10 11610 427.023 18
-3 -6 10 11373 527.678 14
-3 -6 9 51254.3 1124.88 18
-3 -6 9 49304.3 1340.69 14
-3 -6 8 21837.1 847.526 8
-3 -6 8 23410.7 873.927 14
-3 -6 7 7144.64 479.719 8
-3 -6 7 5991.23 455.718 14
-3 -6 6 11126 663.843 16
-3 -6 6 11866.6 612.455 14
-3 -6 6 12161.7 812.415 10
-3 -6 5 43765.1 1462.05 16
-3 -6 5 43802.3 1229.13 14
-3 -6 4 5145.8 516.08 16
-3 -6 4 5615.94 403.664 14
-3 -6 4 6215.09 574.609 10
-3 -6 4 4684.78 330.246 5
-3 -6 3 4147.27 457.518 16
-3 -6 3 4719.47 352.167 14
-3 -6 3 4543.57 461.988 10
-3 -6 2 1447.47 292.866 16
-3 -6 2 1042.53 260.045 10
-3 -6 1 15488.3 748.306 10
-3 -6 0 34139.8 1085.09 10
-3 -6 -1 8924.03 478.869 10
-3 -6 -2 9169.19 409.545 10
-3 -6 -3 34668 826.188 16
-3 -7 7 2774.39 261.441 14
-3 -7 6 568.888 149.127 14
-3 -7 5 16708.7 619.585 14
-3 -7 5 16764.6 837.494 10
-3 -7 4 3280.93 345.135 16
-3 -7 4 3966.24 411.081 10
-3 -7 3 63.3166 123.966 16
-3 -7 2 10298.4 545.492 16
-3 -7 2 11161 587.254 10
-3 -7 1 20990.2 736.585 16
-3 -7 1 23235.1 783.54 10
-3 -7 0 20357.8 640.741 16
-3 -7 0 18918 615.728 10
4 -10 -1 7882.47 322.313 20
-4 10 0 12615.6 420.654 8
4 -10 0 22756 553.573 22
4 -10 1 40435.5 908.535 22
4 -10 1 41333 952.831 20
4 -10 2 15494.3 541.577 22
4 -10 2 16284.5 565.327 20
4 -10 3 15400.1 548.291 22
4 -10 4 15212.2 539.063 22
4 -10 5 39201.8 923.262 22
4 -10 6 2501.34 179.596 22
4 -9 -3 11765.9 403.76 22
4 -9 -3 12657.7 476.066 20
-4 9 2 286.669 143.022 13
-4 9 2 209.732 107.047 8
4 -9 -2 324.826 118.295 22
4 -9 -2 215.953 132.629 20
-4 9 1 2241.06 274.897 13
-4 9 1 1942.8 213.874 8
4 -9 -1 2212.91 237.189 22
4 -9 -1 2318.44 263.027 20
-4 9 0 21481.7 803.103 13
4 -9 0 21306.9 747.857 22
4 -9 1 8221.45 470.711 22
4 -9 1 6807.27 460.94 20
4 -9 2 4825.98 370.143 22
4 -9 2 4820.54 390.797 20
4 -9 3 16450.4 689.602 22
4 -9 3 15895.8 693.004 20
4 -9 4 1669.57 241.152 22
4 -9 5 263.872 145.129 22
4 -9 6 4675.61 332.771 22
4 -9 7 3167.83 249.156 22
-4 8 5 164.155 97.4874 19
4 -8 -5 114.176 85.6553 20
-4 8 4 7121.23 414.791 13
4 -8 -4 7760.65 414.647 20
-4 8 4 7831.85 411.571 19
-4 8 3 3284.39 293.946 8
-4 8 3 3346.01 332.835 13
4 -8 -3 3792.24 296.663 22
4 -8 -3 3766.87 329.477 20
-4 8 3 3671.9 310.588 19
-4 8 2 13956.4 708.717 13
-4 8 2 14270.6 646.875 8
4 -8 -2 14175.7 660.18 20
-4 8 1 13462.4 706.275 13
4 -8 -1 14017.3 681.166 20
4 -8 -1 14928.8 649.658 22
-4 8 0 986.174 236.78 13
4 -8 0 1118.67 229.402 22
4 -8 0 1215.69 263.808 20
-4 8 -1 4443.81 395.148 13
4 -8 1 4613.83 395.263 22
4 -8 2 16253.9 731.058 22
4 -8 2 16622.6 771.18 20
4 -8 3 27370.2 977.265 22
4 -8 3 29498.8 1030.16 20
4 -8 4 196.697 187.327 22
4 -8 4 60.5227 144.022 20
4 -8 5 5640.16 434.261 22
4 -8 6 562.326 185.286 22
4 -8 7 3319 302.857 22
-4 8 -8 13606.9 484.999 10
4 -8 8 11991 520.136 22
-4 8 -9 8408.37 320.614 10
-4 7 7 13955 470.421 21
-4 7 7 14109.7 491.712 19
-4 7 6 509.111 149.095 19
-4 7 6 356.361 129.217 21
-4 7 5 322.893 176.404 19
-4 7 5 290.777 137.369 13
-4 7 5 259.768 140.202 21
-4 7 4 4789.77 401.22 19
-4 7 4 5346.81 397.125 8
-4 7 4 4696.14 398.812 13
-4 7 4 4715.83 374.067 21
4 -7 -4 4967 343.212 22
-4 7 3 4643.74 403.687 8
-4 7 3 4424.22 418.173 13
4 -7 -3 4933.24 360.481 22
-4 7 3 4802.88 376.903 21
-4 7 3 4251.18 390.457 19
-4 7 2 7096.17 458.759 21
4 -7 -2 6947.82 430.275 22
-4 7 2 7204.89 541.674 13
-4 7 2 7643.87 513.761 8
-4 7 2 6975.92 503.874 19
4 -7 -1 1834.04 244.349 22
-4 7 1 1881.29 287.372 19
4 -7 -1 1872.36 278.254 20
-4 7 0 35356.9 1171.22 13
4 -7 0 34281.6 1064.28 22
4 -7 0 35004.2 1119.43 20
-4 7 -1 21344.5 864.017 13
4 -7 1 21706.7 835.615 22
4 -7 1 21046.1 857.154 20
4 -7 2 1202.74 223.309 22
4 -7 3 14713 673.649 22
4 -7 3 15187.6 713.08 20
4 -7 4 113240 2394.37 22
4 -7 4 113694 2432.38 20
4 -7 5 70163 1735.42 22
4 -7 6 71826.3 1747.94 22
4 -7 7 703.871 199.406 22
4 -7 8 19374.9 727.014 22
-4 7 -8 17836.4 628.268 10
-4 7 -9 11870.3 776.662 17
-4 7 -9 23140 627.703 10
-4 6 8 16611.9 581.531 21
-4 6 7 14197.9 614.992 21
-4 6 6 4515.73 387.05 21
-4 6 5 1198.07 229.281 8
-4 6 5 1035.57 214.505 13
-4 6 5 1097.86 235.366 21
-4 6 4 99820.9 2125.35 8
-4 6 4 93016.1 2135.4 13
-4 6 4 93725.5 2076.07 21
4 -6 -3 34816.4 983.91 22
-4 6 3 37710.9 1150.84 8
-4 6 3 35009.4 1183.49 13
-4 6 3 35494.2 1109.04 21
-4 6 3 32968.3 1119.13 19
-4 6 2 13972.5 715.12 13
-4 6 2 14820.4 668.705 21
4 -6 -2 13253.6 565.801 22
-4 6 2 13865.5 680.388 19
-4 6 1 76753.6 1706.69 21
-4 6 1 72018.4 1715.81 19
-4 6 0 202252 3696.83 13
4 -6 0 199840 3512.74 22
4 -6 0 199893 3610.71 20
-4 6 0 208638 3669.72 19
-4 6 -1 200609 3639.06 13
4 -6 1 200545 3538.62 22
4 -6 1 202407 3599.94 20
4 -6 2 47622.8 1249.95 22
4 -6 2 48048.1 1311.38 20
4 -6 3 54034.4 1359.37 22
4 -6 4 98462.6 2121.19 22
4 -6 5 76988.4 1839.79 22
4 -6 6 823.362 226.912 22
4 -6 7 1550.09 268.442 22
4 -6 8 11383.9 590.396 22
-4 6 -8 10399.4 494.453 10
-4 6 -9 10149.1 451.85 10
-4 6 -10 8260.6 545.628 17
-4 6 -10 3437.22 204.961 10
-4 5 9 128.259 98.4533 19
-4 5 8 19237.9 778.197 21
-4 5 8 24174.8 811.715 19
-4 5 7 1445.64 260.594 21
-4 5 7 1531.18 253.04 19
-4 5 6 2805.78 318.879 8
-4 5 6 2862.47 360.394 21
-4 5 6 2380.29 313.023 19
-4 5 5 3545.02 356.033 8
-4 5 5 3470.38 338.805 13
-4 5 5 3248.96 351.415 21
-4 5 5 2846.18 321.301 19
-4 5 4 79838.3 1809.2 6
-4 5 4 85296.3 1914 8
-4 5 4 85910 1978.48 13
-4 5 4 82626.7 1920.4 21
-4 5 4 82883.6 1887.71 19
-4 5 3 64821.4 1618.6 13
-4 5 3 61646.8 1521.04 8
-4 5 3 61528.4 1522.46 21
-4 5 3 61099.7 1519.72 19
-4 5 2 25538.5 912.031 13
-4 5 2 26639.2 874.182 21
-4 5 2 24521.1 855.754 19
-4 5 1 39509.3 1083.91 21
4 -5 -1 37717.6 1029.24 20
-4 5 0 96838.2 2042.29 13
4 -5 0 99220.3 1897.5 22
4 -5 0 99626 1985.15 20
4 -5 1 4205.26 285.385 22
4 -5 1 4406.33 325.064 20
4 -5 2 27847.3 887.833 20
4 -5 2 26935.8 806.034 22
4 -5 3 146.37 111.088 22
4 -5 3 62.9297 125.805 20
4 -5 4 1492.25 222.173 22
4 -5 5 7203.22 474.435 22
4 -5 6 18807 787.482 22
4 -5 7 22066.5 883.1 22
-4 5 -7 21589.2 775.397 10
-4 5 -8 4627.33 336.829 10
4 -5 8 4776.19 414.845 22
-4 5 -9 26815.8 822.294 10
-4 5 -10 9333.97 635.627 17
-4 4 10 7682.92 384.575 21
-4 4 10 6846.9 336.049 19
-4 4 9 524.231 153.909 19
-4 4 9 436.202 168.934 21
-4 4 8 1186 249.188 21
-4 4 8 1202.19 226.398 19
-4 4 7 42038.2 1260.76 19
-4 4 7 42370.6 1296.57 8
-4 4 7 41074.3 1324.08 21
-4 4 6 9429.06 552.702 19
-4 4 6 10068.1 609.338 8
-4 4 5 8079.4 511.621 8
-4 4 5 7847.87 473.726 19
-4 4 4 23605.2 847.41 21
-4 4 4 23533.6 849.092 8
-4 4 4 26204.6 897.506 13
-4 4 4 25732.6 861.958 6
-4 4 4 23932.1 812.089 19
-4 4 3 8012.97 441.499 8
-4 4 3 8179.88 459.207 13
-4 4 3 7731.58 434.323 21
-4 4 3 7581.68 415.124 19
-4 4 2 53085.1 1265.9 21
-4 4 2 52782.2 1301.27 13
4 -4 -2 53974 1182.62 20
-4 4 2 51453.8 1235.87 19
-4 4 1 26593 801.567 21
4 -4 -1 25656.8 728.732 20
-4 4 1 24862.4 761.372 19
4 -4 0 6009.01 329.091 20
4 -4 1 35941.5 940.849 20
4 -4 2 127434 2384.21 20
4 -4 2 127328 2279.06 22
4 -4 3 32885 914.276 22
4 -4 4 4315.38 327.225 22
4 -4 5 7271.77 447.748 22
-4 4 -6 1320.47 219.785 10
4 -4 6 1401.67 236.548 22
4 -4 7 2251.89 311.991 22
-4 4 -7 1859.61 249.522 10
-4 4 -8 6928.07 433.984 10
-4 4 -9 18575.4 1622.77 17
-4 4 -9 18833.8 659.778 10
-4 3 11 3154.95 234.213 9
-4 3 11 4147.78 249.2 21
-4 3 10 3997.57 322.831 21
-4 3 10 3528.72 267.5 19
-4 3 9 31327.5 960.593 19
-4 3 9 32444.3 1062.91 21
-4 3 8 13981.9 652.279 19
-4 3 8 13955.9 700.069 8
-4 3 8 15520.8 739.949 21
-4 3 7 7286.5 476.49 19
-4 3 7 7581.29 548.407 8
-4 3 6 8409.79 481.769 19
-4 3 6 9418.62 604.592 8
-4 3 5 349.644 134.579 19
-4 3 5 270.633 126.786 6
-4 3 5 391.652 152.983 21
-4 3 4 3117.05 257.726 19
-4 3 4 3704.6 332.316 8
-4 3 4 3746.84 322.421 6
-4 3 4 3372.3 292.226 21
-4 3 3 4070.14 290.939 21
-4 3 3 3694.25 258.884 19
-4 3 2 56952.8 1305.32 8
-4 3 2 55041.2 1204.97 19
-4 3 1 1874.93 198.814 9
-4 3 1 2052.94 201.371 8
-4 3 1 2143.23 189.742 19
-4 3 0 35097.2 761.349 3
-4 3 -1 13721.8 455.6 3
4 -3 3 72862.9 1510.79 22
4 -3 4 161838 2911.33 22
4 -3 5 66947.5 1562.96 22
-4 3 -5 62814.2 1465.08 10
-4 3 -6 758.4 187.403 10
-4 3 -7 2520.23 285.566 10
-4 3 -8 34175.1 1011.12 10
-4 3 -9 19321.1 1108.62 17
-4 3 -9 18171.8 624.472 10
-4 3 -10 1531.26 216.721 17
-4 2 11 3720.59 267.444 9
-4 2 11 3690.99 250.719 21
-4 2 10 10668.1 526.251 21
-4 2 10 9374.52 445.905 19
-4 2 9 702.422 171.467 19
-4 2 9 672.985 187.036 8
-4 2 9 692.672 194.133 21
-4 2 8 88011.8 1905.09 19
-4 2 8 85920.7 2145.21 8
-4 2 8 82340.2 2020.63 21
-4 2 7 20211.8 751.631 19
-4 2 7 19034.4 910.819 8
-4 2 7 19818.7 814.672 21
-4 2 6 387.838 127.371 19
-4 2 6 419.366 181.773 8
-4 2 6 452.967 151.766 6
-4 2 6 380.132 153.257 21
-4 2 5 35157.7 937.535 19
-4 2 5 38712.2 1241.22 8
-4 2 5 38495.9 1188.97 6
-4 2 5 36881.4 1039.25 21
-4 2 4 71098.1 1691.12 8
-4 2 4 72563.8 1723.38 6
-4 2 4 68489.2 1500.98 21
-4 2 4 67992.6 1395.59 19
-4 2 3 73551.8 1650.46 8
-4 2 3 71925.6 1661.69 6
-4 2 3 72892.8 1514.25 21
-4 2 2 48073.9 1141.72 9
-4 2 2 47970.8 1143.79 8
-4 2 2 47627.8 1112.71 21
4 -2 -2 46757.4 1098.27 2
-4 2 1 350897 5358.36 4
-4 2 0 475688 7188.68 4
4 -2 0 471623 7259.89 2
4 -2 1 80672.7 1693.65 2
-4 2 -1 80021.7 1630.77 10
-4 2 -2 5370.31 926.773 17
-4 2 -2 63201.7 1095.11 10
-4 2 -3 66146.3 1320.21 10
4 -2 3 74800.1 1334.04 22
-4 2 -4 206725 3412.79 11
-4 2 -4 180764 3373.78 10
-4 2 -5 50524.8 1319.28 10
-4 2 -6 1483.68 234.394 10
-4 2 -7 15048.2 1782.19 17
-4 2 -7 575.266 188.502 10
-4 2 -8 16468.8 1013.59 17
-4 2 -8 10941.4 526.292 10
-4 2 -9 21944.6 813.276 17
-4 2 -10 353.817 89.2533 17
-4 1 10 1231.67 216.507 9
-4 1 9 9948.9 618.879 8
-4 1 9 10529.4 560.721 21
-4 1 8 31697.3 1218.08 8
-4 1 8 30660.9 1005.51 21
-4 1 7 11764.8 707.016 8
-4 1 7 11196.5 591.466 6
-4 1 7 10955.5 546.924 21
-4 1 6 35644.1 1263.15 8
-4 1 6 35169.3 998.779 21
-4 1 5 43862.2 1329.4 8
-4 1 5 45177.1 1102.2 21
-4 1 4 260800 4537.59 8
-4 1 4 269567 4616.49 6
-4 1 4 268624 4275.97 21
-4 1 3 73256.1 1617.99 8
-4 1 3 75033.8 1499.75 21
-4 1 3 72551.8 1685.77 6
4 -1 -2 46485.6 1101.7 2
-4 1 2 45085.4 1156.67 6
-4 1 2 44465 1127.14 9
4 -1 -1 58889.6 1322.79 2
-4 1 1 58933.1 1355.09 9
-4 1 0 200994 3524.54 4
-4 1 0 202883 3539.59 10
-4 1 -1 8717.36 465.897 17
-4 1 -1 6414.68 384.718 10
-4 1 -2 19121.2 895.284 17
-4 1 -2 11128 527.461 10
-4 1 -3 4040.58 730.775 17
-4 1 -3 2870.94 271.374 11
-4 1 -4 25715 869.621 11
-4 1 -4 22092.4 822.061 10
-4 1 -5 9964.16 1059.62 17
-4 1 -5 8464.03 511.378 10
-4 1 -6 6574.05 798.115 17
-4 1 -6 2181.46 282.461 10
-4 1 -7 1248.47 503.007 17
-4 1 -7 449.306 172.036 10
-4 1 -8 44694.4 1184.3 17
-4 1 -8 42681 1069.94 10
-4 1 -9 20010.6 568.132 17
-4 0 10 10987.5 612.194 8
-4 0 9 9820.65 637.298 8
-4 0 8 65561.9 1694.03 9
-4 0 8 65488.1 1868.87 8
-4 0 7 3058.26 311.875 9
-4 0 7 2962.72 367.504 8
-4 0 7 3919.96 367.731 6
-4 0 6 422.204 136.403 9
-4 0 6 210.649 143.083 8
-4 0 6 284.62 134.797 6
-4 0 5 2464.41 251.366 9
-4 0 5 2223.83 273.37 8
-4 0 5 2564.55 247.557 7
-4 0 5 2356.16 280.049 6
-4 0 4 17107.6 672.929 8
-4 0 4 17860.3 646.748 7
-4 0 4 17758.9 725.703 6
-4 0 4 17243.5 656.108 9
-4 0 3 6611.16 369.992 8
-4 0 3 6521.55 399.612 6
-4 0 3 6293.64 373.208 9
-4 0 2 63556.8 1416.46 6
4 0 -2 60411.3 1338.46 1
-4 0 1 11835.8 543.451 4
-4 0 1 12085.8 483.885 6
-4 0 1 11918.4 563.457 10
-4 0 0 41633.9 1002.67 6
-4 0 0 41923.9 1178.75 10
-4 0 -1 77948.6 1673.76 11
-4 0 -1 77448.1 1743.98 10
-4 0 -2 85463.9 1925.86 17
-4 0 -2 86093.6 1876.34 11
-4 0 -3 423.366 348.024 17
-4 0 -3 718.973 182.236 11
-4 0 -3 763.558 185.804 10
-4 0 -4 41283.1 1223.13 11
-4 0 -4 36861.2 1164.76 10
-4 0 -5 -65.6833 484 17
-4 0 -5 481.743 171.601 10
-4 0 -6 836.517 360.941 17
-4 0 -6 2330.72 277.716 10
-4 0 -7 419.273 142.415 10
4 0 8 13524.5 477.173 19
4 0 8 12203 535.751 15
-4 0 -9 2816.44 179.733 12
-4 -1 11 346.893 141.868 8
-4 -1 10 175.151 155.06 8
-4 -1 9 14181.6 792.084 8
-4 -1 9 14149.7 674.305 14
-4 -1 8 1544.78 297.927 8
-4 -1 8 1161.1 234.453 14
-4 -1 7 2631.01 346.319 8
-4 -1 6 21947 882.224 6
-4 -1 6 18931.8 732.068 9
-4 -1 5 326.863 119.32 9
-4 -1 5 413.432 144.151 8
-4 -1 5 409.087 143.016 7
-4 -1 5 498.025 158.014 6
-4 -1 4 6794.64 409.138 8
-4 -1 4 6958.17 438.198 7
-4 -1 3 11466.8 501.623 8
-4 -1 3 11576.5 506.107 11
-4 -1 3 12792.2 553.618 6
-4 -1 3 12653.8 594.159 10
-4 -1 2 92912.8 1780.83 8
-4 -1 2 90739.8 1879.6 11
-4 -1 2 91746.2 1867.16 6
-4 -1 2 97039.9 2067.5 10
-4 -1 1 8441.88 448.952 12
-4 -1 1 8499.14 450.206 11
-4 -1 1 8050.31 396.978 6
-4 -1 1 7889.92 491.636 10
-4 -1 0 50877 1327.86 11
-4 -1 0 58861.1 1474.83 10
-4 -1 -1 829.211 186.878 17
-4 -1 -1 785.497 179.036 11
-4 -1 -1 672.765 182.998 10
-4 -1 -2 4561.01 373.166 17
-4 -1 -2 4807.73 387.325 11
-4 -1 -2 4196.11 365.609 10
-4 -1 -3 125420 2484.24 17
-4 -1 -3 118126 2497.47 10
-4 -1 -4 17252.5 703.477 17
-4 -1 -4 16476.3 731.765 10
-4 -1 -5 19692.1 736.936 17
-4 -1 -5 20050.8 789.937 10
-4 -1 -6 688.568 161.73 17
-4 -1 -6 598.061 160.474 10
4 1 8 5964.44 300.668 15
-4 -1 -8 6937.43 308.516 12
-4 -2 12 18091.9 530.974 18
-4 -2 11 818.46 198.323 8
-4 -2 10 352.804 192.406 8
-4 -2 9 34606.5 1312.92 8
-4 -2 9 36152.6 1189.44 14
-4 -2 8 13073.1 749.098 8
-4 -2 8 12832.5 705.768 14
-4 -2 7 69.8914 153.885 14
-4 -2 6 792.779 206.153 8
-4 -2 6 731.797 207.519 7
-4 -2 5 16147.6 701.069 8
-4 -2 5 17632.1 793.353 7
-4 -2 4 101457 2097.24 8
-4 -2 4 99072.1 2082.5 11
-4 -2 4 103308 2329.54 10
-4 -2 3 16490.7 622.49 8
-4 -2 3 16033.7 663.991 11
-4 -2 3 17419.1 790.762 10
-4 -2 2 116225 2315.62 12
-4 -2 2 110310 2279.54 11
-4 -2 2 110654 2467.55 10
-4 -2 1 144228 2609.89 14
-4 -2 1 141283 2869.04 12
-4 -2 1 146490 2810.79 11
-4 -2 1 148994 2989.05 10
-4 -2 0 106119 2349.68 12
-4 -2 0 109389 2321.52 11
-4 -2 0 111559 2415.96 10
-4 -2 -1 72147 1801.52 12
-4 -2 -2 12278.5 650.13 10
-4 -2 -3 102964 2239.48 10
-4 -2 -4 58419 1504.8 10
-4 -2 -5 484.531 154.52 10
-4 -2 -6 5010.01 336.549 12
4 2 7 4734.7 296.631 15
-4 -2 -7 5022.92 273.095 12
-4 -3 12 8010.63 342.793 18
-4 -3 11 1329.61 236.392 8
-4 -3 10 3067.59 372.757 8
-4 -3 10 2753.26 305.019 14
-4 -3 9 14082 780.465 8
-4 -3 9 15004.4 751.727 14
-4 -3 8 37316.2 1270 14
-4 -3 7 23046.3 975.869 8
-4 -3 7 23647 975.023 14
-4 -3 6 45248.1 1354.58 8
-4 -3 5 59500.2 1541.55 8
-4 -3 5 60860 1580.98 14
-4 -3 5 58744.7 1735.86 10
-4 -3 4 140088 2740.74 8
-4 -3 4 140584 2773.9 14
-4 -3 4 145725 3046.29 7
-4 -3 4 139887 3098.82 10
-4 -3 3 41728.7 1152.31 8
-4 -3 3 39655.8 1148.36 14
-4 -3 3 43479.3 1266.16 12
-4 -3 3 43226 1384.14 7
-4 -3 3 39789.3 1391.26 10
-4 -3 2 28987.9 910.474 14
-4 -3 2 30775.6 1101.73 12
-4 -3 2 29315.8 1141.15 10
-4 -3 1 82910.1 2072.58 12
-4 -3 1 90751.3 2160.51 10
-4 -3 0 97933.3 2280 12
-4 -3 -1 28353.1 1038.71 10
-4 -3 -1 26420.1 1009.03 12
-4 -3 -2 4949.35 416.9 12
-4 -3 -2 5022.2 416.451 10
-4 -3 -3 1512.69 253.902 12
-4 -3 -3 1763.37 259.671 10
-4 -3 -4 6805.57 434.034 12
-4 -3 -4 8902.33 477.061 10
-4 -3 -5 131.183 89.491 10
-4 -3 -6 181.493 83.4898 12
-4 -4 11 3991.22 335.662 8
-4 -4 10 4879.88 432.729 8
-4 -4 10 5258.63 406.69 14
-4 -4 9 24959.6 981.836 14
-4 -4 8 13126.3 732.649 8
-4 -4 8 13218.8 718.723 14
-4 -4 7 2398.31 327.594 8
-4 -4 7 1761.37 297.022 14
-4 -4 6 655.202 218.515 14
-4 -4 6 511.748 199.865 8
-4 -4 6 452.936 212.972 10
-4 -4 5 24889.1 919.546 8
-4 -4 5 24563.9 930.029 14
-4 -4 5 23674 1044.81 7
-4 -4 5 23145.4 1114.49 10
-4 -4 4 1448.02 235.972 8
-4 -4 4 1567.79 254.189 16
-4 -4 4 1433.74 241.787 14
-4 -4 4 1401.52 289.694 7
-4 -4 4 1836.35 333.993 10
-4 -4 3 4833.31 371.584 14
-4 -4 3 4582.42 434.054 7
-4 -4 3 4477.86 479.045 10
-4 -4 2 6449.63 405.89 14
-4 -4 2 6161.69 507.98 12
-4 -4 2 6400.05 482.882 7
-4 -4 2 6271.52 545.153 10
-4 -4 1 17529.7 853.488 12
-4 -4 1 18854.5 791.888 7
-4 -4 0 166.165 187.122 12
-4 -4 0 141.402 130.868 7
-4 -4 0 333.958 201.134 10
-4 -4 -1 24707.2 950.792 12
-4 -4 -1 25887.3 960.531 10
-4 -4 -2 8608.37 507.28 12
-4 -4 -2 7974.18 394.46 7
-4 -4 -2 8860.86 515.138 10
-4 -4 -3 6948.92 415.952 12
-4 -4 -3 7624.09 424.873 10
-4 -4 -4 8885.93 379.229 10
4 4 5 5726.93 268.293 15
-4 -4 -5 6259.68 273.162 12
-4 -5 10 999.19 204.676 8
-4 -5 10 580.076 139.907 18
-4 -5 10 647.774 154.434 14
-4 -5 9 4583.31 375.953 8
-4 -5 9 4585.18 378.446 14
-4 -5 8 351.609 178.695 14
-4 -5 8 417.539 172.46 8
-4 -5 7 2778.75 316.917 8
-4 -5 7 3019.22 344.683 14
-4 -5 6 16447.1 709.305 8
-4 -5 6 16380.6 735.558 14
-4 -5 6 16081.7 917.59 10
-4 -5 5 5166.13 382.956 8
-4 -5 5 6302.04 434.449 14
-4 -5 5 5897.28 576.359 10
-4 -5 4 7137.64 507.365 16
-4 -5 4 7785.75 460.02 14
-4 -5 4 6860.82 490.569 7
-4 -5 4 6467.59 588.794 10
-4 -5 3 12580.1 706.473 16
-4 -5 3 14083.4 591.56 14
-4 -5 3 12611.3 644.328 7
-4 -5 3 12848.4 785.994 10
-4 -5 2 22051.6 802.496 7
-4 -5 2 22700.9 1005.42 10
-4 -5 1 22311.9 741.926 7
-4 -5 0 1736.35 259.339 12
-4 -5 0 2273.86 296.453 10
-4 -5 -1 961.771 188.208 12
-4 -5 -1 884.449 188.306 10
-4 -5 -2 813.649 158.064 12
-4 -5 -2 839.161 151.975 10
-4 -6 9 1474.81 183.232 14
-4 -6 7 4117.64 315.679 14
-4 -6 6 1701.6 213.105 14
-4 -6 5 9706.4 461.879 14
-4 -6 5 7809.77 578.705 10
-4 -6 4 5514.72 378.31 16
-4 -6 4 6058.2 339.084 14
-4 -6 4 6177.62 521.744 10
-4 -6 3 14766.9 651.286 16
-4 -6 3 16249.8 780.593 10
-4 -6 2 5177.08 375.298 16
-4 -6 1 36420.8 1001.28 16
-4 -6 1 37340.2 1065.04 10
-4 -6 0 33016.5 875.842 16
-4 -6 0 34159.2 915.786 10
-4 -6 -1 5959.49 280.732 16
5 -10 -1 3794.77 203.357 20
-5 10 0 18521.2 513.795 8
5 -10 0 21427.2 581.054 20
-5 10 -1 14215.6 460.819 8
5 -10 2 4068.47 222.473 22
-5 10 -3 130.352 78.9489 8
5 -10 3 113.905 68.6469 22
-5 10 -4 3877.41 212.904 8
5 -10 4 5182.25 245.146 22
-5 9 3 13270.6 440.585 8
5 -9 -3 14842.5 473.111 20
-5 9 2 840.785 147.951 8
5 -9 -2 1027.9 163.262 20
-5 9 1 2637.05 238.571 8
5 -9 -1 2999.91 266.983 20
-5 9 0 1537.61 199.388 8
5 -9 0 1549.07 180.71 22
5 -9 0 1477.34 213.265 20
5 -9 1 21571.5 689.059 22
5 -9 1 22176.7 772.348 20
5 -9 2 1080.72 174.646 22
5 -9 3 543.198 142.537 22
5 -9 4 8323.29 422.157 22
5 -9 5 12781.1 504.373 22
5 -9 6 13012.7 461.061 22
-5 9 -6 8908.51 356.569 10
5 -9 7 5403.89 257.75 22
-5 9 -7 4209.71 207.495 10
-5 8 4 2051.22 221.161 8
5 -8 -4 1910.47 193.713 20
-5 8 3 146.501 142.042 8
5 -8 -3 98.9248 124.129 20
-5 8 2 16153.1 660.202 8
5 -8 -2 16496.5 676.299 20
-5 8 1 13243.2 599.799 8
5 -8 -1 12613.6 533.161 22
5 -8 -1 13173.7 618.081 20
5 -8 0 236.266 126.471 22
5 -8 0 407.693 173.693 20
5 -8 1 9184.93 467.426 22
5 -8 1 9382.57 539.655 20
5 -8 2 823.064 180.542 22
5 -8 2 854.798 214.569 20
5 -8 3 196.494 136.832 22
5 -8 4 6291.46 405.301 22
5 -8 5 26096.5 847.399 22
5 -8 6 19320.9 674.879 22
-5 8 -6 18096 606.112 10
5 -8 7 66.7124 98.0937 22
-5 8 -7 4.71228 84.8086 10
-5 7 7 354.309 93.2003 9
-5 7 7 504.317 107.845 19
-5 7 6 13823.4 540.379 21
-5 7 5 3715.33 317.459 8
-5 7 5 3556.88 311.725 21
-5 7 4 10195.6 564.698 8
-5 7 4 8955.79 502.097 21
5 -7 -4 9393.01 480.099 20
-5 7 3 5727.14 434.066 8
5 -7 -3 6426.14 422.501 20
-5 7 2 95.711 178.47 19
-5 7 2 309.288 184.502 8
5 -7 -2 159.927 143.197 20
5 -7 -1 431.161 184.623 20
5 -7 0 64965.9 1488.18 22
5 -7 0 66650 1621.59 20
5 -7 1 34085.7 984.231 22
5 -7 1 33799.5 1088.33 20
5 -7 2 454.444 150.926 22
5 -7 2 316.153 178.154 20
5 -7 3 267.422 144.909 22
5 -7 4 397.698 173.426 22
5 -7 5 1176.55 202.033 22
5 -7 6 1453.89 215.35 22
-5 7 -6 1546.55 209.165 10
5 -7 7 8556.42 442.666 22
-5 7 -8 294.95 111.371 10
-5 7 -9 1639.94 136.668 10
-5 6 8 32304.3 838.068 21
-5 6 8 31373.7 796.147 19
-5 6 7 9079.71 476.718 21
-5 6 7 8608.3 449.335 19
-5 6 6 6513.95 436.979 8
-5 6 6 6063.06 436.827 21
-5 6 6 6191.9 422.941 19
-5 6 5 51142.1 1401.83 8
-5 6 5 49011.2 1374.59 21
-5 6 5 47096.5 1321.6 19
-5 6 4 126922 2689.71 21
-5 6 4 138632 2728.11 8
-5 6 4 138189 2640.13 6
-5 6 4 125207 2638.28 19
-5 6 3 108407 2275.62 8
-5 6 3 104389 2269.09 21
5 -6 -3 106215 2188.38 20
-5 6 3 102825 2223.04 19
-5 6 2 23723 837.258 9
-5 6 2 23293.4 875.477 8
5 -6 -2 24429.5 847.191 20
-5 6 2 24034.8 890.495 19
-5 6 1 7926.4 498.598 8
5 -6 -1 7699.86 462.18 20
5 -6 0 51638 1350.51 20
5 -6 1 46421.8 1152.29 22
5 -6 1 45848.2 1271.01 20
5 -6 2 11481.8 528.569 22
5 -6 2 11326.3 585.19 20
5 -6 3 14858 625.877 22
5 -6 4 79410.8 1775.91 22
5 -6 5 2420.29 282.738 22
5 -6 6 4798.08 370.545 22
-5 6 -6 4322.75 341.029 10
-5 6 -7 15506.4 1037.07 17
5 -6 7 16298 652.141 22
-5 6 -7 13523.4 573.63 10
-5 6 -8 47649 1322.11 17
-5 6 -8 56867.1 1231.54 10
-5 6 -9 44835.1 921.472 17
-5 6 -9 41561.8 928.836 10
-5 5 9 25541.5 723.76 21
-5 5 9 23491.3 650.65 19
-5 5 8 88563.2 1881.19 21
-5 5 8 88693.9 1807.49 19
-5 5 7 39770.5 1172.57 8
-5 5 7 36946.2 1103.08 19
-5 5 6 13919.1 699.407 8
-5 5 6 14304.7 657.73 19
-5 5 5 34421.3 1142.33 8
-5 5 5 35650.2 1074.59 6
-5 5 5 34361.6 1149 21
-5 5 5 33323.6 1077.69 19
-5 5 4 71406.9 1731.99 8
-5 5 4 70144.4 1740.37 21
-5 5 4 70591.3 1676.56 6
-5 5 4 69637.9 1667.29 19
-5 5 3 28963.6 964.72 8
-5 5 3 29483.8 982.835 21
-5 5 3 28845.8 934.089 19
-5 5 2 2236.08 258.531 9
-5 5 2 2131.18 268.305 8
-5 5 2 2387.84 279.788 21
5 -5 -2 2198.94 233.149 20
-5 5 2 2239.03 256.753 19
-5 5 1 4401.64 352.273 8
5 -5 -1 3914.68 305.845 20
-5 5 1 4609.57 346.685 9
5 -5 0 53707.2 1301.86 20
5 -5 1 14971.9 619.263 20
5 -5 2 2656.29 240.949 22
5 -5 3 12893.5 551.308 22
5 -5 4 57940.1 1311.21 22
-5 5 -4 53947.6 1269.11 10
5 -5 5 103760 1901.48 22
-5 5 -5 95653.6 1819.94 10
-5 5 -6 24949.8 1666.01 17
5 -5 6 25989 889.322 22
-5 5 -7 18243.8 1212.44 17
-5 5 -7 10510.3 532.443 10
-5 5 -8 53762 1623.11 17
-5 5 -8 64267.4 1389.06 10
-5 5 -9 12998.2 481.484 17
-5 5 -9 9402.43 384.646 10
-5 4 10 635.075 137.213 9
-5 4 10 508.425 111.366 21
-5 4 9 2764.49 274.032 21
-5 4 9 2524.59 223.523 19
-5 4 8 14358 662.092 8
-5 4 8 14461.3 675.052 21
-5 4 8 13193.9 583.48 19
-5 4 7 8665.29 558.31 8
-5 4 7 7847.15 546.487 21
-5 4 7 8079.62 484.93 19
-5 4 6 17708.7 817.241 8
-5 4 6 17799.6 804.716 21
-5 4 6 16408.8 699.225 19
-5 4 5 904.21 205.972 8
-5 4 5 871.043 221.129 21
-5 4 5 829.231 188.827 6
-5 4 5 1538.99 234.463 19
-5 4 4 6053.59 442.398 8
-5 4 4 6599.3 448.634 6
-5 4 4 6513.19 448.765 21
-5 4 4 6022.34 393.083 19
-5 4 3 2480.39 265.986 6
-5 4 3 2181.2 238.023 19
-5 4 2 47153.6 1244.66 9
-5 4 2 46561.3 1225.88 8
-5 4 2 43264.4 1128.5 19
-5 4 1 4259.61 320.482 8
5 -4 -1 3367.58 248.398 20
-5 4 1 4127.92 324.876 9
-5 4 0 21964.4 741.403 8
5 -4 0 21735.1 699.182 20
-5 4 -1 135460 2398.86 8
-5 4 -1 127107 2375.49 10
-5 4 -2 11519 615.787 17
-5 4 -2 5522.5 356.553 10
-5 4 -3 11381.7 892.685 17
5 -4 3 11499 488.422 22
-5 4 -3 10840.9 508.877 10
5 -4 4 28120.7 853.953 22
-5 4 -4 26991.1 842.658 10
-5 4 -5 24715.3 1696.52 17
5 -4 5 2235.1 257.605 22
-5 4 -6 19724.8 1370.22 17
-5 4 -6 4330.03 374.114 10
-5 4 -7 17339.7 1088.85 17
-5 4 -7 35.3977 146.743 10
-5 4 -8 5833.91 497.515 17
-5 4 -8 147.977 123.049 10
-5 4 -9 2694.97 240.094 17
-5 4 -9 2395.37 186.26 10
-5 3 10 29753 903.31 9
-5 3 10 27762.3 807.708 21
-5 3 9 638.044 174.122 8
-5 3 9 731.37 194.401 21
-5 3 9 1005.94 160.825 19
-5 3 8 232.158 135.835 19
-5 3 8 226.449 163.649 8
-5 3 8 154.129 173.501 21
-5 3 7 21518.6 962.21 8
-5 3 7 23501.3 908.966 21
-5 3 7 21312.6 783.342 19
-5 3 6 42546.2 1372.76 8
-5 3 6 43410.8 1329.37 6
-5 3 6 40889.2 1254.76 21
-5 3 6 40624.9 1126.64 19
-5 3 5 949.715 222.192 8
-5 3 5 986.017 217.65 6
-5 3 5 817.95 195.396 21
-5 3 5 922.915 170.271 19
-5 3 4 38146.4 1170.38 6
-5 3 4 37114.6 1084.58 21
-5 3 4 35259.5 964.499 19
-5 3 3 3189.67 305.132 9
-5 3 3 3272.43 311.134 8
-5 3 3 3479.94 319.437 6
-5 3 3 3026.66 283.783 21
-5 3 3 3045.26 241.361 19
-5 3 2 536.184 152.579 9
-5 3 2 277.351 128.205 8
-5 3 1 18503.1 660.657 8
-5 3 1 20066.4 733.251 9
-5 3 0 43473.8 1039.92 8
-5 3 0 42908 1074.65 10
-5 3 -1 11692.5 495.935 17
-5 3 -1 9714.34 470.43 10
-5 3 -2 6734.6 515.394 17
-5 3 -2 2879.94 271.178 10
-5 3 -3 13241 839.458 17
-5 3 -3 5785.27 380.072 10
-5 3 -4 650.183 162.632 11
-5 3 -4 598.073 177.239 10
-5 3 -5 7956.01 932.61 17
-5 3 -5 120.247 163.086 10
-5 3 -6 64478.6 2078.68 17
-5 3 -6 66571.7 1604.54 10
-5 3 -7 15645.3 841.165 17
-5 3 -7 8925.64 494.752 10
-5 3 -8 440.832 140.974 10
-5 3 -9 93.6275 108.553 17
-5 2 10 5715.04 395.609 9
-5 2 10 4793.05 341.326 8
-5 2 10 5279.65 325.491 21
-5 2 9 18217.7 808.578 9
-5 2 9 16345.1 794.935 8
-5 2 9 18398.9 724.991 21
-5 2 8 30323 1108.52 9
-5 2 8 29894.2 1190.5 8
-5 2 8 29518.4 996.857 21
-5 2 7 14068.3 810.508 8
-5 2 7 12773.8 705.785 6
-5 2 7 13972.2 647.589 21
-5 2 6 13371.3 689.013 9
-5 2 6 15138.4 816.554 8
-5 2 6 15535.3 793.136 6
-5 2 6 14689.6 647.722 21
-5 2 5 121984 2503.22 9
-5 2 5 116701 2395.62 21
-5 2 4 147172 2845.57 9
-5 2 4 151925 2995.82 8
-5 2 4 150880 3053.98 6
-5 2 4 149027 2746.48 21
-5 2 3 35514.6 1065.29 8
-5 2 3 32758.1 1094.67 6
-5 2 2 5370.95 355.731 8
-5 2 2 5649.38 395.183 6
-5 2 2 5164.05 367.551 9
-5 2 1 8363.26 405.446 8
-5 2 1 8422.5 461.816 6
-5 2 1 8607.3 473.017 9
-5 2 0 129370 2356.62 17
-5 2 0 126944 2456.47 6
-5 2 -1 13733 601.911 17
-5 2 -1 13653.7 547.796 6
-5 2 -1 14551.9 624.685 10
-5 2 -2 27372.3 937.577 17
-5 2 -2 19728.3 756.62 10
-5 2 -3 366.396 144.789 11
-5 2 -3 159.185 139.89 10
-5 2 -4 30506.6 1209.19 17
-5 2 -4 24111.4 894.586 11
-5 2 -5 17691.8 905.058 17
-5 2 -5 11007.3 593.49 10
-5 2 -6 11312.5 585.822 10
-5 2 -7 27874.7 900.124 17
-5 2 -7 27615.7 874.036 10
-5 2 -8 59292.4 1268.05 17
-5 2 -8 64219.6 1300.78 10
-5 2 -9 8254.66 279.672 17
-5 1 10 26848.9 961.63 8
-5 1 10 28104.2 901.418 9
-5 1 9 99191.3 2471.43 8
-5 1 9 109241 2358.58 9
-5 1 8 98972 2261.51 9
-5 1 8 90742.6 2452.74 8
-5 1 7 32043.4 1102.53 9
-5 1 7 28992.7 1242.62 8
-5 1 7 32497.7 1211.32 6
-5 1 7 29949.4 925.063 21
-5 1 6 10566.4 593.768 9
-5 1 6 10757.6 687.754 6
-5 1 6 10072.3 486.638 21
-5 1 5 116888 2614.17 8
-5 1 5 117418 2702.88 6
-5 1 5 120917 2455.18 9
-5 1 4 99554.3 2215.91 8
-5 1 4 105736 2039.81 7
-5 1 4 97738.6 2305.91 6
-5 1 4 102240 2150.37 9
-5 1 3 10048.3 518.261 8
-5 1 3 10040.8 565.149 6
-5 1 3 10029.5 522.725 9
-5 1 2 237.471 111.973 8
-5 1 2 126.556 113.469 6
-5 1 1 3014.29 278.469 6
-5 1 1 2957.17 289.35 10
-5 1 0 55853.4 1318.69 17
-5 1 0 55047.8 1328.07 6
-5 1 -1 38522.1 1063.35 17
-5 1 -1 36909.7 1113.11 11
-5 1 -1 39867.3 1161.83 10
-5 1 -2 24956 912.428 17
-5 1 -2 24909.2 895.342 11
-5 1 -2 25106.9 917.522 10
-5 1 -3 40034.2 1239.19 17
-5 1 -3 41422.4 1244.24 11
-5 1 -4 172105 3221.2 11
-5 1 -4 160917 3181.69 10
-5 1 -5 62523.5 1541.13 17
-5 1 -5 63039 1606.07 10
-5 1 -6 9245.34 539.231 17
-5 1 -6 13096 593.436 10
-5 1 -7 39620.9 969.615 17
-5 1 -7 41154.3 1037.4 10
-5 1 -8 56629.3 1094.76 17
-5 0 11 2009.89 225.242 8
-5 0 10 1623.2 270.732 8
-5 0 9 12436.6 762.866 8
-5 0 9 12124 654.962 14
-5 0 8 21106.1 1041.52 8
-5 0 8 24086.5 917.455 9
-5 0 7 7854.76 617.436 6
-5 0 7 8443.26 530.148 9
-5 0 6 4043.89 430.116 8
-5 0 6 4540.58 460.122 6
-5 0 6 4654.16 387.767 9
-5 0 5 3709.55 366.922 8
-5 0 5 4174.72 349.384 7
-5 0 5 3902.14 408.119 6
-5 0 5 3968.87 344.857 9
-5 0 4 5739.28 416.292 8
-5 0 4 6609 422.143 7
-5 0 4 5948.9 403.227 11
-5 0 4 6022 414.253 9
-5 0 3 10793.4 525.204 8
-5 0 3 9824.35 519.884 11
-5 0 3 10742.4 581.143 6
-5 0 2 3217.68 262.263 8
-5 0 2 2913.31 295.48 11
-5 0 2 2447.93 271.22 6
-5 0 2 3080.58 308.328 10
-5 0 1 27855.8 927.68 11
-5 0 1 27910.7 888.927 6
-5 0 1 27874.2 999.673 10
-5 0 0 103706 2051.35 6
-5 0 0 105473 2317.11 10
-5 0 -1 21657.4 850.286 11
-5 0 -1 19867.6 840.586 10
-5 0 -2 2854.6 332.724 11
-5 0 -2 2754.16 328.087 10
-5 0 -3 14764.2 666.96 17
-5 0 -3 15428.6 724.794 11
-5 0 -4 41583.9 1161.88 17
-5 0 -4 41103.9 1261.68 10
-5 0 -5 5720.01 374.542 17
-5 0 -5 6044.42 426.435 10
-5 0 -6 3393.94 262.145 17
-5 0 -6 3768.91 297.324 10
-5 0 -7 160.131 76.5676 10
-5 -1 11 9300.56 518.669 8
-5 -1 10 4561.5 435.689 8
-5 -1 9 2082.1 334.133 8
-5 -1 9 2215.52 312.911 14
-5 -1 8 2481.16 357.032 14
-5 -1 8 1488.11 310.901 8
-5 -1 7 41991 1440.95 8
-5 -1 6 7493.11 540.034 8
-5 -1 6 8323.58 541.786 7
-5 -1 5 17745 789.458 8
-5 -1 5 19931.6 835.108 7
-5 -1 4 10304 544.709 8
-5 -1 4 9934.22 555.201 11
-5 -1 4 11599 613.706 7
-5 -1 4 11041.8 616.706 6
-5 -1 3 2136.35 239.367 8
-5 -1 3 2017.31 263.153 11
-5 -1 3 1978.35 275.725 10
-5 -1 3 2391.05 276.835 6
-5 -1 2 6605.29 451.955 11
-5 -1 2 6560.44 420.826 6
-5 -1 2 6876.45 504.663 10
-5 -1 1 13734.7 673.943 11
-5 -1 1 12796.1 568.961 6
-5 -1 1 13402.8 708.236 10
-5 -1 0 29906.1 948.66 12
-5 -1 0 28978.9 1075.79 10
-5 -1 -1 1063.3 209.573 12
-5 -1 -1 1133.52 247.728 11
-5 -1 -1 1162.74 247.051 10
-5 -1 -3 12138.5 647.117 10
-5 -1 -4 464.042 172.479 10
-5 -1 -5 22724.3 772.452 12
-5 -1 -5 23573.8 795.592 10
-5 -1 -6 29076.2 794.955 12
-5 -1 -6 30972.5 786.042 10
-5 -2 11 1137.44 205.564 8
-5 -2 10 3823.83 400.5 8
-5 -2 10 4178.15 354.779 14
-5 -2 9 18117.4 895.112 8
-5 -2 9 22055.2 947.353 14
-5 -2 8 11274.3 709.627 8
-5 -2 8 14089.4 793.65 14
-5 -2 7 1931.29 305.283 8
-5 -2 7 2136.85 341.137 14
-5 -2 6 2483.19 328.705 8
-5 -2 6 2602.72 349.724 7
-5 -2 5 91631.5 2090.76 8
-5 -2 5 94751.6 2197.7 14
-5 -2 5 97711 2303.63 7
-5 -2 4 23839.9 859.77 8
-5 -2 4 25061.1 936.554 14
-5 -2 4 27452.1 1083.1 7
-5 -2 4 26875.1 1069.16 10
-5 -2 3 1696.43 247.499 14
-5 -2 3 1672.08 255.803 11
-5 -2 3 1445.92 277.196 7
-5 -2 3 1745.57 296.705 10
-5 -2 2 1053.71 193.437 14
-5 -2 2 1112.99 226.27 11
-5 -2 2 853.54 228.949 10
-5 -2 1 16200.9 686.309 12
-5 -2 1 15530.2 803.219 10
-5 -2 0 497.326 166.6 12
-5 -2 0 439.157 206.481 10
-5 -2 -1 923.298 212.694 12
-5 -2 -2 24044.5 879.023 12
-5 -2 -2 24226.4 931.916 10
-5 -2 -3 592.472 174.946 12
-5 -2 -3 636.732 182.632 10
-5 -2 -4 11784.8 514.606 12
-5 -2 -4 11561.7 534.45 10
-5 -2 -5 1927.59 188.408 12
-5 -2 -5 2154.09 197.564 10
-5 -2 -6 1952.47 141.323 12
-5 -3 11 14893.2 594.836 8
-5 -3 10 13978 712.834 8
-5 -3 10 16078 684.552 14
-5 -3 9 55805.4 1583.65 14
-5 -3 8 31307.5 1137.29 8
-5 -3 8 31752.9 1181.38 14
-5 -3 7 7895.82 539.413 8
-5 -3 6 34203.3 1141.93 8
-5 -3 6 34769.2 1199.34 14
-5 -3 5 39792 1191.6 8
-5 -3 5 37707.3 1220.18 14
-5 -3 5 38687.3 1324.26 10
-5 -3 4 28209.1 935.537 8
-5 -3 4 27518 964.222 14
-5 -3 4 27240.2 1145.32 10
-5 -3 3 1585.45 232.425 14
-5 -3 3 1540.9 280.725 7
-5 -3 3 2232.58 344.703 10
-5 -3 2 3842.52 333.312 12
-5 -3 2 3531.89 380.704 7
-5 -3 2 3121.19 400.363 10
-5 -3 1 32040.2 1057.92 12
-5 -3 1 32363.8 1196.09 10
-5 -3 0 21608.5 838.658 12
-5 -3 0 19977.7 902.691 10
-5 -3 -1 19681.9 765.259 12
-5 -3 -1 18629.8 808.466 10
-5 -3 -2 5808.13 385.764 12
-5 -3 -2 5637.87 405.161 10
-5 -3 -3 35261.1 942.392 12
-5 -3 -3 36688.1 1007.12 10
-5 -3 -4 47216.8 1030.71 12
-5 -3 -4 47313.9 1033.3 10
-5 -4 10 6644.47 373.936 14
-5 -4 9 13067.5 612.749 8
-5 -4 9 12598 629.231 14
-5 -4 8 8582.59 502.622 8
-5 -4 8 8201.57 529.678 14
-5 -4 7 13117.1 635.672 8
-5 -4 7 13527.8 679.671 14
-5 -4 6 211.125 150.021 14
-5 -4 6 140.912 133.509 8
-5 -4 5 8260.58 460.163 8
-5 -4 5 9874.36 533.174 14
-5 -4 5 9557.4 627.463 10
-5 -4 4 2174.93 254.183 14
-5 -4 4 1677.44 285.388 7
-5 -4 4 1485.37 286.098 10
-5 -4 3 1979.86 228.395 14
-5 -4 3 1987.47 287.908 7
-5 -4 3 1668.85 310.364 10
-5 -4 2 15405.3 703.828 7
-5 -4 2 15828.5 806.204 10
-5 -4 1 9445.26 502.323 7
-5 -4 1 10745.3 620.703 10
-5 -4 0 43116.6 1134.28 12
-5 -4 0 38056.6 1018.62 7
-5 -4 -1 6903.69 382.055 12
-5 -4 -1 5929.11 308.327 7
-5 -4 -1 7016.51 418.744 10
-5 -4 -2 7309.41 347.632 12
-5 -4 -2 7252.04 376.015 10
-5 -4 -3 17940.1 487.446 12
-5 -5 9 276.995 99.2547 14
-5 -5 8 4097.3 302.8 14
-5 -5 7 2694.84 253.952 14
-5 -5 6 346.441 129.97 14
-5 -5 5 5243.86 329.559 14
-5 -5 5 4969.59 420.556 10
-5 -5 4 6893.32 494.721 10
-5 -5 3 9497.11 555.6 10
-5 -5 2 5655.31 323.177 16
-5 -5 2 5787.79 411.325 10
-5 -5 1 9466.01 406.393 16
-5 -5 0 3621.87 224.969 16
-5 -5 0 3723.29 267.917 10
-6 10 -1 5717.21 244.578 8
-6 10 -2 2479.52 156.889 8
-6 10 -2 2765.14 170.86 6
-6 9 3 11910 395.69 8
-6 9 2 8171.6 352.774 8
6 -9 -2 8008.1 327.543 20
-6 9 1 6929.86 343.483 8
-6 9 1 6501.91 316.362 6
6 -9 -1 7529.88 355.38 20
-6 9 -1 52196.3 1174.94 8
-6 9 -2 25430.5 721.625 8
-6 9 -3 19411.2 574.483 8
-6 9 -4 21928.2 552.838 8
-6 8 5 230.019 79.996 8
-6 8 4 17845 607.827 8
-6 8 3 21663.4 713.667 8
-6 8 3 19946.2 640.874 6
-6 8 2 3484.48 293.551 8
-6 8 2 3871.82 286.233 6
6 -8 -2 3363.65 272.99 20
6 -8 -1 18535 676.889 20
-6 8 0 10920.1 518.459 8
6 -8 0 10839.4 514.822 20
-6 8 -1 9986.89 494.724 8
-6 8 -2 3713.46 299.902 8
-6 8 -3 6657.34 361.865 8
-6 8 -3 5715.34 311.252 10
6 -8 4 3277.03 237.953 22
-6 8 -4 3442.43 246.378 10
6 -8 5 187.676 92.1307 22
-6 8 -5 219.092 102.345 10
6 -8 6 4655.71 240.669 22
-6 8 -6 4736.15 259.124 10
-6 8 -7 12166.6 383.771 10
-6 7 6 3357.96 251.317 8
-6 7 6 3038.76 237.451 9
-6 7 5 736.714 159.598 9
-6 7 5 608.731 162.075 8
-6 7 4 4518.36 355.268 8
-6 7 4 4479.32 326.062 6
-6 7 4 4429.3 323.655 9
-6 7 3 3682.88 343.378 8
-6 7 3 3417.3 307.48 6
-6 7 2 28743.7 936.142 6
6 -7 -2 27241.2 863.122 20
-6 7 1 10535.1 553.707 8
6 -7 -1 10994.8 536.111 20
-6 7 0 149.361 162.898 8
6 -7 0 154.976 144.58 20
-6 7 -1 6793.99 435.529 8
-6 7 -2 48365.8 1189.21 8
-6 7 -2 41684.1 1051.32 10
-6 7 -3 5896.98 342.897 8
-6 7 -3 5517.29 348.188 10
6 -7 4 5938.32 343.618 22
-6 7 -4 5402.55 352.759 10
6 -7 5 5922.06 335.612 22
-6 7 -5 5899.2 350.122 10
-6 7 -6 3986.5 279.393 10
-6 7 -7 303.594 100.043 10
-6 6 8 20266.2 599.848 9
-6 6 7 7978.84 430.887 9
-6 6 7 8405.71 417.595 8
-6 6 7 7270.91 360.328 19
-6 6 6 2624.87 294.35 9
-6 6 6 2942.69 298.975 8
-6 6 6 2456.61 251.44 19
-6 6 5 1666.61 261.364 9
-6 6 5 1682.29 262.406 8
-6 6 5 1428.81 211.915 6
-6 6 5 1406.99 222.218 19
-6 6 4 12474.5 625.535 9
-6 6 4 12686.8 639.443 8
-6 6 4 12491.2 606.217 6
-6 6 4 10713.9 550.452 19
-6 6 3 626.441 185.672 9
-6 6 3 867.339 208.507 6
-6 6 2 935.458 191.342 9
-6 6 2 1164.88 235.628 8
6 -6 -2 925.168 174.422 20
-6 6 1 925.165 216.222 8
6 -6 -1 1226.77 200.299 20
-6 6 0 3314.81 319.436 8
-6 6 -1 20281.1 742.514 8
-6 6 -2 792.224 168.701 8
-6 6 -2 662.702 158.908 10
-6 6 -3 27879.3 862.82 10
-6 6 -4 75816 1660.2 10
6 -6 5 44257.8 1099.41 22
-6 6 -5 47982.5 1203.8 10
-6 6 -6 2187.62 239.719 10
-6 6 -8 12565.8 408.002 10
-6 5 8 33125.6 983.106 9
-6 5 8 33652.9 834.431 19
-6 5 7 15924.8 719.902 9
-6 5 7 15431.9 671.392 8
-6 5 7 15527.2 676.733 21
-6 5 7 14408.2 573.399 19
-6 5 6 1618.57 280.962 9
-6 5 6 1540.66 255.401 8
-6 5 6 1491.31 266.743 21
-6 5 6 1485.94 224.093 19
-6 5 5 2382.95 328.623 9
-6 5 5 2403.13 304.454 8
-6 5 5 2299.76 277.846 6
-6 5 5 2307.05 262.299 19
-6 5 4 64057.8 1657.5 9
-6 5 4 63288.7 1572.92 6
-6 5 3 33334.6 1090.22 8
-6 5 3 32441.8 1057.89 6
-6 5 3 32527.3 1077.3 9
-6 5 2 14539.2 667.452 8
-6 5 2 13686.2 671.68 6
-6 5 2 12555.4 613.764 9
-6 5 1 87107.4 1906.17 8
-6 5 1 84390.4 1873.97 9
-6 5 0 263274 4456.49 8
-6 5 -1 34197.2 965.65 8
-6 5 -1 36661.1 1017.05 10
-6 5 -2 94877 1996.43 10
-6 5 -3 23372.9 825.577 10
-6 5 -4 109136 2043.76 17
-6 5 -4 92855.9 2045.41 10
-6 5 -5 54619.8 1288.02 17
-6 5 -5 43675.3 1214.45 10
-6 5 -6 1721.69 250.567 17
-6 5 -6 968.015 202.84 10
-6 5 -7 551.819 151.371 17
-6 5 -7 721.54 155.08 10
-6 5 -8 7440.29 271.718 17
-6 5 -8 7582.09 320.648 10
-6 4 10 306.778 83.805 9
-6 4 9 3779.04 265.536 8
-6 4 9 4163.37 321.043 9
-6 4 8 22800.4 872.318 9
-6 4 8 20193.1 774.783 8
-6 4 8 22682.9 792.386 21
-6 4 7 8221.15 529.518 8
-6 4 7 8295.71 524.638 21
-6 4 7 7826.91 418.562 19
-6 4 6 233.942 206.444 9
-6 4 6 360.906 147.766 19
-6 4 6 447.683 196.385 8
-6 4 6 289.179 153.724 6
-6 4 6 336.577 184.801 21
-6 4 5 32698.4 1142.98 8
-6 4 5 36349.5 1143.08 6
-6 4 5 35410 1015.5 19
-6 4 4 94684.7 2138.07 9
-6 4 4 88851.3 2058.22 8
-6 4 4 89491.9 2035.59 6
-6 4 3 67386.6 1698.17 8
-6 4 3 64901.5 1691.31 6
-6 4 3 70472 1725.75 9
-6 4 2 42448.6 1221.28 8
-6 4 2 42435.6 1232.69 9
-6 4 1 10394.9 530.893 8
-6 4 1 11185.9 585 6
-6 4 0 87316.4 1831.17 8
-6 4 0 93887.6 2001.48 6
-6 4 -1 10921 531.042 6
-6 4 -1 11072.1 539.947 10
-6 4 -2 3160.23 267.095 17
-6 4 -2 3280.26 281.998 6
-6 4 -2 3444.58 320.229 10
-6 4 -3 814.827 221.127 17
-6 4 -3 838.441 201.909 10
-6 4 -4 12654 587.715 11
-6 4 -4 11593.4 570.03 10
-6 4 -5 5614.89 433.975 17
-6 4 -5 4581.91 371.089 10
-6 4 -6 7174.7 448.175 17
-6 4 -7 2025.95 228.523 17
-6 4 -7 2930.47 246.04 10
-6 4 -8 21317 532.362 17
-6 4 -8 21859.3 574.578 10
-6 3 10 7276.02 362.056 9
-6 3 9 783.431 192.263 9
-6 3 9 818.928 171.93 8
-6 3 8 26064.9 989.679 9
-6 3 8 22561.3 897.743 8
-6 3 7 12602.2 707.236 9
-6 3 7 11200 651.5 8
-6 3 7 10879.4 599.192 6
-6 3 6 4337.43 426.214 9
-6 3 6 3701.58 405.944 8
-6 3 6 4107.28 389.634 6
-6 3 5 1657.94 296.247 8
-6 3 5 2093.74 294.818 6
-6 3 4 16118.4 766.489 8
-6 3 4 15234.6 752.018 6
-6 3 4 15623.5 744.603 9
-6 3 3 156.833 151.91 9
-6 3 3 156.258 142.751 8
-6 3 2 62295.6 1519.06 8
-6 3 2 62464.3 1628.25 6
-6 3 2 64244.6 1597.97 9
-6 3 1 9877.46 481.31 8
-6 3 1 10294.8 559.033 6
-6 3 0 26188.3 879.955 6
-6 3 0 28462.5 898.277 10
-6 3 -1 31579 887.047 17
-6 3 -1 31745.4 993.935 10
-6 3 -2 67065.6 1500.82 17
-6 3 -2 61667.2 1556.53 10
-6 3 -3 7867.82 504.24 17
-6 3 -3 8496.4 506.094 11
-6 3 -3 8292.59 489.547 10
-6 3 -4 7225.74 485.798 17
-6 3 -4 7093.1 465.172 11
-6 3 -4 6730.64 442.509 10
-6 3 -5 636.969 265.635 17
-6 3 -6 416.74 282.778 17
-6 3 -6 2473.11 254.598 10
-6 3 -7 195.602 99.712 17
-6 3 -7 152.668 105.94 10
-6 3 -8 7234.85 260.47 17
-6 2 10 165.189 95.0217 9
-6 2 10 350.791 117.543 8
-6 2 9 6365.43 452.394 8
-6 2 9 7254.37 463.407 9
-6 2 8 18302.7 855.815 8
-6 2 8 19306.3 834.755 9
-6 2 7 803.427 226.439 9
-6 2 7 802.895 236.986 8
-6 2 7 1049.56 240.859 6
-6 2 6 7257.88 544.953 6
-6 2 6 6893.63 498.055 9
-6 2 5 225.344 172.936 9
-6 2 5 601.493 214.218 8
-6 2 5 339.933 181.32 6
-6 2 4 497.285 188.018 9
-6 2 4 402.646 181.765 8
-6 2 4 502.282 197.231 6
-6 2 3 707.864 185.703 8
-6 2 3 631.447 196.539 6
-6 2 2 58240.1 1408.11 8
-6 2 2 57085 1545.47 6
-6 2 1 1195.97 214.537 6
-6 2 1 1240.13 195.414 10
-6 2 0 22951.4 816.844 6
-6 2 0 24134.8 860.206 10
-6 2 -1 3471.45 305.545 17
-6 2 -1 2833.52 264.634 6
-6 2 -1 3251.98 329.859 10
-6 2 -2 654.95 186.846 17
-6 2 -2 519.166 179.899 11
-6 2 -2 751.332 209.937 10
-6 2 -3 57852.8 1418.18 17
-6 2 -3 53701.5 1490.24 11
-6 2 -3 54618.7 1430.62 10
-6 2 -4 33640.7 997.777 17
-6 2 -4 33614.2 1056.03 11
-6 2 -5 15344.5 598.217 17
-6 2 -5 14930.3 638.233 10
-6 2 -6 387.458 142.851 10
-6 2 -7 8066 325.56 17
-6 2 -7 9249.49 370.311 10
-6 1 10 798.063 165.59 8
-6 1 9 17621.9 796.499 8
-6 1 9 15885 665.85 14
-6 1 9 18171.6 704.704 9
-6 1 8 32561.6 1247.88 8
-6 1 8 37224.9 1143.72 9
-6 1 7 1036.22 277.294 6
-6 1 7 1388.99 244.072 9
-6 1 6 2760.66 360.999 8
-6 1 6 2535.16 364.573 6
-6 1 6 2836.17 318.464 9
-6 1 5 4984.18 441.136 8
-6 1 5 4109.13 355.742 11
-6 1 5 4712.26 467.424 6
-6 1 5 4834.76 398.082 9
-6 1 4 94951.3 2106.02 8
-6 1 4 98015.3 1979.55 7
-6 1 3 8214.92 483.391 8
-6 1 3 8847.23 471.661 7
-6 1 3 8025.33 548.392 6
-6 1 2 67072.5 1696.76 6
-6 1 1 110822 2386.18 11
-6 1 1 112892 2325.85 6
-6 1 1 111264 2326.99 10
-6 1 0 105318 2142.53 6
-6 1 0 101243 2250.99 10
-6 1 -1 56502.4 1569.36 11
-6 1 -1 58075.9 1540.58 10
-6 1 -2 34173.1 1043.04 17
-6 1 -2 34970.2 1157.82 11
-6 1 -2 33345.9 1105.68 10
-6 1 -3 70384.5 1643.81 17
-6 1 -3 74043.1 1777.91 11
-6 1 -3 69402.6 1730.15 10
-6 1 -5 4559.59 311.094 17
-6 1 -5 5058.59 352.412 10
-6 1 -6 303.689 108.661 10
-6 0 11 114.807 76.0594 8
-6 0 10 234.481 138.544 8
-6 0 9 16548.5 783.442 8
-6 0 9 17741.6 745.468 14
-6 0 8 20995.7 935.56 14
-6 0 7 13676.8 752.641 8
-6 0 6 19305.7 879.328 8
-6 0 6 18453.5 932.436 6
-6 0 5 43372.7 1325.75 8
-6 0 5 45906.5 1281.85 7
-6 0 4 131593 2602.66 8
-6 0 4 130546 2565.85 7
-6 0 4 127594 2775.23 6
-6 0 3 43466.1 1178.99 8
-6 0 3 41942.4 1305.66 11
-6 0 3 44810.6 1239.5 7
-6 0 3 43175.1 1316.6 6
-6 0 2 18643.3 833.801 11
-6 0 2 19059.6 794.876 6
-6 0 2 19666.6 800.68 10
-6 0 1 71166.6 1811.34 11
-6 0 1 66753.4 1604.5 6
-6 0 1 70599.3 1754.04 10
-6 0 0 93056.1 2141.3 10
-6 0 -1 797.831 162.297 12
-6 0 -1 852.405 234.429 11
-6 0 -1 983.943 226.557 10
-6 0 -2 160.604 124.241 12
-6 0 -2 5.3196 173.742 11
-6 0 -2 149.884 171.508 10
-6 0 -4 5393.87 337.273 12
-6 0 -4 5611.14 382.371 10
-6 0 -5 2640.51 210.138 12
-6 0 -5 2988.24 244.592 10
-6 0 -6 280.22 71.3347 12
-6 0 -6 267.897 73.1098 10
-6 -1 10 234.451 103.341 14
-6 -1 10 275.383 145.472 8
-6 -1 9 18013.1 780.385 14
-6 -1 8 19253.9 860.528 8
-6 -1 8 18370.5 875.253 14
-6 -1 7 1359.09 258.761 8
-6 -1 7 1067.53 268.302 14
-6 -1 6 785.731 217.964 8
-6 -1 5 15199.4 696.663 8
-6 -1 5 16581.8 735.355 7
-6 -1 4 10550.3 538.211 8
-6 -1 4 10899.2 584.928 7
-6 -1 3 1780.95 280.488 11
-6 -1 3 2261.01 283.417 7
-6 -1 3 1872.17 263.082 10
-6 -1 2 8368.44 558.692 11
-6 -1 2 8023.88 538.852 10
-6 -1 1 9682.33 602.464 11
-6 -1 1 9682.21 597.857 10
-6 -1 0 5489.88 459.745 10
-6 -1 -1 24165.4 788.181 12
-6 -1 -1 24355.1 939.983 10
-6 -1 -2 12932.7 544.445 12
-6 -1 -3 2811.32 237.674 12
-6 -1 -3 2906.67 285.548 10
-6 -1 -4 1283.19 154.584 12
-6 -1 -4 1733.01 194.534 10
-6 -1 -5 187.99 62.8382 12
-6 -1 -5 270.862 75.9445 10
-6 -2 10 471.229 107.253 14
-6 -2 9 4422.62 376.74 8
-6 -2 9 4710.48 384.21 14
-6 -2 8 2594.9 304.565 8
-6 -2 8 2451.79 321.639 14
-6 -2 7 754.78 199.886 8
-6 -2 6 20891.3 808.954 8
-6 -2 6 19165.2 848.76 14
-6 -2 5 2460.13 273.44 8
-6 -2 5 1981.23 289.433 14
-6 -2 5 2346.47 308.997 7
-6 -2 4 3101.12 316.485 14
-6 -2 4 3072 347.515 7
-6 -2 4 3047.46 316.324 10
-6 -2 3 20401.4 771.115 14
-6 -2 3 19336 828.246 7
-6 -2 3 21287.3 879.668 10
-6 -2 2 22477.3 937.426 10
-6 -2 1 3315.87 360.334 10
-6 -2 0 2048.93 297.849 10
-6 -2 -1 2977.96 253.709 12
-6 -2 -1 2895.61 311.788 10
-6 -2 -2 190.531 103.112 12
-6 -2 -3 20540.3 574.699 12
-6 -2 -3 21919.3 663.736 10
-6 -3 9 8430.09 420.956 8
-6 -3 9 8461.88 436.249 14
-6 -3 8 94.305 130.534 14
-6 -3 8 233.22 130.903 8
-6 -3 7 1514.59 213.792 8
-6 -3 7 1663.85 243.113 14
-6 -3 6 819.856 159.338 8
-6 -3 6 715.286 181.137 14
-6 -3 5 10705.2 532.017 14
-6 -3 5 10040.4 563.865 7
-6 -3 4 16401.6 639.274 14
-6 -3 4 16580.4 713.216 10
-6 -3 3 12452.1 618.915 7
-6 -3 3 13439.1 663.637 10
-6 -3 2 5737.35 400.445 7
-6 -3 2 5737.9 427.839 10
-6 -3 1 38374.8 1071.54 7
-6 -3 1 42720.7 1199.87 10
-6 -3 0 38632.3 1004.44 7
-6 -3 0 43882.9 1155.84 10
-6 -3 -1 11516.4 399.807 12
-6 -3 -1 11536.2 426.052 7
-6 -3 -2 14821.4 488.569 10
-6 -4 8 19267.6 606.674 14
-6 -4 7 3839.55 271.884 14
-6 -4 6 11841.5 474.821 14
-6 -4 5 40525.7 957.173 14
-6 -4 4 37958.3 1045.53 10
-6 -4 3 22281.9 713.221 7
-6 -4 3 25079.3 806.918 10
-6 -4 2 13020 485.525 7
-6 -4 2 14592 572.355 10
-6 -4 1 28407.2 718.113 7
-6 -4 1 35735.2 895.773 10
-6 -4 0 6389.79 303.951 10
-7 9 2 8839 319.476 8
-7 9 1 4987.96 252.434 8
-7 9 1 4890.54 236.652 6
-7 9 0 21722.7 596.121 8
-7 9 0 21651.1 593.662 6
-7 9 -1 17653 509.815 8
-7 9 -2 4301.53 241.625 6
-7 9 -3 536.964 89.0975 6
-7 8 4 26343 677.509 8
-7 8 3 11022.9 441.671 8
-7 8 3 10967.8 405.946 6
-7 8 2 172.765 113.71 8
-7 8 2 228.801 107.322 6
-7 8 1 228.612 123.945 8
-7 8 1 251.337 120.063 6
-7 8 0 18618.6 628.564 8
-7 8 0 18072.5 642.462 6
-7 8 -1 10111.8 439.757 8
-7 8 -1 10604.7 485.985 6
-7 8 -2 280.657 97.5533 8
-7 8 -2 298.596 125.301 6
-7 8 -3 573.708 122.556 6
-7 8 -4 11956.2 385.049 6
-7 7 6 6753.91 306.112 8
-7 7 5 1864.21 202.496 8
-7 7 5 1694.71 164.442 9
-7 7 4 520.905 156.949 8
-7 7 4 388.749 124.316 6
-7 7 3 146.381 151.167 8
-7 7 3 51.3028 117.965 6
-7 7 2 29235.2 902.096 8
-7 7 2 28636.1 906.914 6
-7 7 1 6639.11 415.362 8
-7 7 1 6363.4 416.034 6
-7 7 0 5977.71 378.741 8
-7 7 0 5611.18 404.321 6
-7 7 -1 15044.2 577.663 8
-7 7 -1 16771.7 665.098 6
-7 7 -2 612.43 162.709 6
-7 7 -3 342.349 121.517 6
-7 7 -3 215.158 102.969 10
-7 7 -4 15056.3 518.473 10
-7 7 -5 3682.37 234.138 10
-7 7 -6 1040.65 112.189 10
-7 6 7 2731.7 213.353 8
-7 6 7 2592.99 206.842 9
-7 6 6 26709.8 819.143 8
-7 6 6 26330.3 801.936 9
-7 6 5 252.09 142.128 9
-7 6 5 247.859 141.835 8
-7 6 5 319.972 125.197 6
-7 6 4 2037.68 251.034 6
-7 6 4 2068.76 244.183 9
-7 6 3 2318.2 282.464 8
-7 6 3 2251.36 285.341 6
-7 6 3 2307.09 248.542 9
-7 6 2 795.263 198.083 8
-7 6 2 801.201 210.926 6
-7 6 1 4148.99 348.095 8
-7 6 0 25865.3 836.343 8
-7 6 0 27461 935.827 6
-7 6 -1 16690 598.773 8
-7 6 -1 18111.4 710.343 6
-7 6 -2 7648.94 425.481 6
-7 6 -2 7951.68 409.485 10
-7 6 -3 1761.57 197.466 6
-7 6 -3 1771.52 217.176 10
-7 6 -4 2550.37 244.645 10
-7 6 -5 120.421 104.309 10
-7 6 -6 6812.1 308.614 10
-7 5 8 11475.5 435.294 8
-7 5 8 10444.4 431.647 9
-7 5 7 6535.41 384.933 8
-7 5 7 6666.14 407.397 9
-7 5 6 13026.6 600.672 8
-7 5 6 12761.6 551.204 6
-7 5 6 13039 620.028 9
-7 5 5 27992.1 933.149 6
-7 5 5 31544.9 1021.6 9
-7 5 4 105923 2267.5 8
-7 5 4 102213 2214.46 6
-7 5 4 104087 2216.54 9
-7 5 3 36291.8 1137.95 8
-7 5 3 36091.6 1147.69 6
-7 5 3 33972.2 1069.36 9
-7 5 2 581.527 196.601 8
-7 5 1 25029.1 844.628 8
-7 5 1 26891.7 969.589 6
-7 5 0 33279.5 953.359 8
-7 5 0 39379.3 1147.9 6
-7 5 -1 29317.4 926.941 6
-7 5 -2 5173.48 341.363 6
-7 5 -2 6011.95 387.459 10
-7 5 -3 552.733 153.817 11
-7 5 -3 719.552 176.827 10
-7 5 -4 8718.28 444.559 10
-7 5 -5 9848.26 445.416 10
-7 5 -6 1334.04 155.037 10
-7 4 9 28324.5 703.689 8
-7 4 9 30689.1 755.535 9
-7 4 8 81676.5 1720.18 8
-7 4 8 87240.4 1773.28 9
-7 4 7 13002.8 584.284 8
-7 4 7 12388.4 525.357 6
-7 4 6 18556 735.598 6
-7 4 6 19413.3 803.514 9
-7 4 5 47559.1 1345.24 8
-7 4 5 44574.6 1298.4 6
-7 4 5 47827.3 1364.57 9
-7 4 4 59010.4 1528.9 8
-7 4 4 54805.4 1517.77 6
-7 4 4 55510.8 1518.72 9
-7 4 3 11402.1 606.623 8
-7 4 2 3749.03 335.423 8
-7 4 2 3834.51 379.717 6
-7 4 1 964.567 173.19 8
-7 4 1 615.389 199.074 6
-7 4 0 50951.9 1338.09 6
-7 4 -1 7476.71 429.28 6
-7 4 -1 8801.81 479.681 10
-7 4 -2 1434.7 223.276 10
-7 4 -3 21347.3 776.024 11
-7 4 -3 22680.4 787.888 10
-7 4 -4 68384.1 1414.82 17
-7 4 -4 69332.2 1493.31 11
-7 4 -4 68189.4 1513.56 10
-7 4 -5 58479.2 1210.23 17
-7 4 -5 60832.1 1316.71 10
-7 3 9 6555.68 340.898 8
-7 3 8 4875.55 359.514 8
-7 3 8 5903.47 394.563 9
-7 3 7 584.739 207.161 9
-7 3 7 531.573 163.096 6
-7 3 6 6279.62 457.73 8
-7 3 6 6150.64 445.627 6
-7 3 6 6604.11 470.434 9
-7 3 5 156.648 181.793 8
-7 3 5 250.602 170.941 6
-7 3 4 13237.9 657.362 8
-7 3 4 11778.7 672.272 6
-7 3 3 27818.4 951.387 8
-7 3 3 29347.8 1059.73 6
-7 3 2 3088.22 287.595 8
-7 3 2 3696.87 368.588 6
-7 3 1 2629.3 300.189 6
-7 3 0 54911.4 1390.91 6
-7 3 0 62052.5 1447.91 10
-7 3 -1 13632.9 656.069 11
-7 3 -1 13320.2 554.237 6
-7 3 -2 544.989 189.047 11
-7 3 -2 496.352 173.138 10
-7 3 -3 3027.2 300.871 11
-7 3 -3 2972.55 291.134 10
-7 3 -4 34545.6 934.468 11
-7 3 -4 34096.4 949.823 10
-7 3 -5 5752.95 324.87 10
-7 3 -6 576.502 105.461 10
-7 2 9 166.998 110.858 8
-7 2 7 25603.4 929.855 8
-7 2 7 22731.6 862.67 6
-7 2 6 14416.3 704.084 8
-7 2 6 13342.3 689.323 6
-7 2 5 4731.65 400.253 8
-7 2 5 4476.81 358.181 11
-7 2 5 4416.76 427.2 6
-7 2 4 597.468 180.094 8
-7 2 4 581.207 181.452 11
-7 2 4 598.395 209.28 6
-7 2 3 10318.2 526.293 8
-7 2 3 10951 631.548 6
-7 2 2 10571 589.918 11
-7 2 2 11735.4 609.15 6
-7 2 1 7535.73 495.656 11
-7 2 1 7662.01 472.51 6
-7 2 0 27092.3 865.954 6
-7 2 0 30680.6 962.292 10
-7 2 -1 1069.87 242.669 11
-7 2 -1 1154.49 229.46 10
-7 2 -2 5987.09 430.955 11
-7 2 -2 5986.64 415.733 10
-7 2 -3 5618.36 390.859 11
-7 2 -3 5308.51 363.837 10
-7 2 -4 598.772 146.212 10
-7 1 10 836.833 117.219 8
-7 1 9 2401.84 237.057 8
-7 1 9 2154.66 194.932 14
-7 1 8 14412.3 639.627 8
-7 1 8 15117.3 627.689 14
-7 1 7 7360.77 491.017 8
-7 1 6 412.457 184.258 8
-7 1 6 313.412 188.969 6
-7 1 5 80580.1 1855.82 8
-7 1 5 76462.3 1800.42 11
-7 1 4 22368.2 805.165 8
-7 1 4 23935.3 792.229 7
-7 1 4 22387.7 881.371 11
-7 1 4 23015.4 936.931 6
-7 1 3 5618.67 450.326 11
-7 1 3 5414.84 364.047 7
-7 1 3 5084.44 423.81 6
-7 1 2 1639.21 270.072 11
-7 1 2 1518.21 238.378 6
-7 1 1 22150.9 904.212 11
-7 1 1 20181.6 737.159 6
-7 1 1 22489.3 798.319 10
-7 1 0 7756.35 471.854 10
-7 1 -1 134.046 175.313 11
-7 1 -1 433.207 157.474 10
-7 1 -2 25866.3 879.131 11
-7 1 -2 23895.2 815.678 10
-7 1 -3 218.499 122.477 10
-7 1 -5 5978.04 260.282 10
-7 0 10 13607.9 450.346 8
-7 0 9 40762.2 1053.34 8
-7 0 9 41186.9 989.817 14
-7 0 8 36493.2 1056.27 8
-7 0 8 35750.2 1039.79 14
-7 0 7 7572.45 462.399 8
-7 0 7 7540.09 486.472 14
-7 0 6 42068.5 1174.7 8
-7 0 5 24143 816.568 8
-7 0 5 24356.9 815.76 7
-7 0 4 40556.4 1117.44 7
-7 0 4 41145.3 1228.45 11
-7 0 3 270.698 162.881 11
-7 0 3 305.655 142.586 7
-7 0 2 3266.99 352.891 11
-7 0 2 2824.9 282.787 7
-7 0 2 2888.7 282.81 10
-7 0 1 13943.2 678.207 11
-7 0 1 14009.6 629.626 10
-7 0 0 27211.8 907.621 10
-7 0 -1 11771.1 555.295 10
-7 0 -2 2063.42 227.843 10
-7 0 -3 25003.8 706.758 10
-7 0 -4 53241.7 1050.55 10
-7 -1 9 10386.9 436.167 8
-7 -1 9 9323.92 395.619 14
-7 -1 8 20641.5 696.273 8
-7 -1 8 19358.1 706.61 14
-7 -1 7 9549.71 468.723 8
-7 -1 6 97.9436 135.149 14
-7 -1 6 112.594 106.452 8
-7 -1 5 3927.14 340.127 14
-7 -1 5 3744.33 305.518 7
-7 -1 4 793.203 178.932 14
-7 -1 4 662.28 157.899 7
-7 -1 3 3076.74 267.872 14
-7 -1 3 3121.14 287.278 7
-7 -1 2 5538.61 369.339 7
-7 -1 2 5743.52 384.258 10
-7 -1 1 11869.5 544.817 7
-7 -1 1 12800.8 573.108 10
-7 -1 0 32968.1 957.259 10
-7 -1 -1 4433.72 305.33 10
-7 -1 -2 6932.86 334.805 10
-7 -2 8 6035.72 288.124 8
-7 -2 7 2798.71 200.915 8
-7 -2 7 3684.77 281.614 14
-7 -2 6 1628.64 204.523 14
-7 -2 5 2571.55 237.755 14
-7 -2 4 4094.62 269.714 14
-7 -2 4 3905.41 302.369 7
-7 -2 3 3738.37 290.767 7
-7 -2 3 3639.32 269.532 10
-7 -2 2 388.22 135.198 7
-7 -2 2 647.824 149.317 10
-7 -2 1 12690 508.985 10
-7 -2 0 8876.08 363.145 7
-7 -2 0 9933.08 414.083 10
-7 -2 -1 746.921 91.6819 7
-7 -2 -1 672.226 103.635 10
-7 -3 2 12.7829 58.5371 7
-8 8 2 3680.83 207.111 8
-8 8 2 3447.44 199.347 6
-8 8 1 12452.8 398.761 8
-8 8 1 12889.6 432.755 6
-8 8 0 69178.1 1342.59 6
-8 8 -1 30693.2 729.919 6
-8 7 4 26375.5 684.722 8
-8 7 4 25829.3 645.383 6
-8 7 3 24127.7 679.695 8
-8 7 3 23954.5 672.831 6
-8 7 2 12467 470.284 8
-8 7 2 12553 489.68 6
-8 7 1 5322.11 294.703 8
-8 7 0 18800.4 629.087 6
-8 7 -1 10023.4 419.765 6
-8 7 -2 396.677 95.7282 11
-8 7 -2 442.083 96.1066 6
-8 6 6 2582.56 187.211 8
-8 6 5 180 101.158 8
-8 6 5 259.273 93.8096 6
-8 6 4 6558.36 367.29 8
-8 6 4 6689.68 360.606 6
-8 6 3 534.931 147.424 8
-8 6 3 554.81 149.911 6
-8 6 2 17808.3 616.439 8
-8 6 1 1260.18 164.103 8
-8 6 1 1433.34 211.519 6
-8 6 0 1564.31 208.087 6
-8 6 -1 10386.9 442.622 6
-8 6 -2 26491 742.656 11
-8 6 -2 26689.7 676.189 6
-8 5 7 760.387 117.012 8
-8 5 6 6368.25 344.774 8
-8 5 6 5968.83 309.481 6
-8 5 5 144.062 111.332 8
-8 5 5 98.5615 107.062 6
-8 5 4 2266.61 245.538 8
-8 5 4 2182.53 253.451 6
-8 5 3 123.988 125.573 8
-8 5 2 17645.3 621.396 8
-8 5 2 19281.8 738.92 6
-8 5 1 5314.07 375.147 6
-8 5 0 3430.91 277.369 6
-8 5 -1 1720.06 218.249 11
-8 5 -1 1692.43 183.735 6
-8 5 -2 1678.49 197.135 11
-8 5 -3 4823.16 268.131 11
-8 5 -3 5252.72 273.398 10
-8 5 -4 35246.4 772.079 10
-8 4 8 25543.1 629.941 8
-8 4 7 1533.28 180.507 8
-8 4 6 946.283 168.793 8
-8 4 6 835.202 153.823 6
-8 4 5 4141.87 317.857 8
-8 4 5 3704.72 267.666 11
-8 4 5 3975.44 325.354 6
-8 4 4 27635.4 852.496 8
-8 4 4 23948 867.633 6
-8 4 3 19206.4 675.381 8
-8 4 3 21723.6 807.042 6
-8 4 2 9694.59 518.903 6
-8 4 1 57279.5 1365.3 6
-8 4 0 64379.7 1486.52 11
-8 4 0 62437.2 1391.05 6
-8 4 -1 35707.6 996.558 11
-8 4 -2 24331.2 761.074 11
-8 4 -2 25321 710.063 10
-8 4 -3 34370.7 840.563 11
-8 4 -3 36687.5 852.833 10
-8 4 -4 39447.4 841.34 10
-8 3 7 3989.56 282.845 8
-8 3 6 3081.92 273.718 8
-8 3 6 2916.54 270.253 6
-8 3 5 23752.6 783.326 8
-8 3 5 23388.1 728.814 11
-8 3 5 24953.6 839.407 6
-8 3 4 85361 1766.66 8
-8 3 4 86314.2 1827.67 11
-8 3 4 89172.3 1930.71 6
-8 3 3 24513.4 840.619 11
-8 3 3 26174.6 892.002 6
-8 3 2 10807.8 534.098 11
-8 3 2 11289.3 542.885 6
-8 3 1 28110.3 884.349 11
-8 3 1 25504.4 794.143 6
-8 3 0 36381.4 1041.17 11
-8 3 0 34182.6 860.507 6
-8 3 -1 12243.9 543.301 11
-8 3 -1 13271.3 497.885 10
-8 3 -2 989.705 165.071 11
-8 3 -2 1026.9 154.152 10
-8 3 -3 1866.1 169.426 10
-8 3 -4 1744.69 136.609 10
-8 2 8 13084.1 457.346 8
-8 2 8 11835.2 411.639 14
-8 2 7 200.512 108.975 8
-8 2 6 163.967 112.044 8
-8 2 5 855.509 158.413 8
-8 2 4 22901.5 778.593 11
-8 2 4 20854.2 788.907 6
-8 2 3 924.848 191.657 11
-8 2 3 888.91 185.868 6
-8 2 2 6643.27 421.147 11
-8 2 2 6264.71 368.661 6
-8 2 1 4850 357.306 11
-8 2 1 4428.6 264.39 7
-8 2 1 3928.17 263.165 6
-8 2 0 4610.47 287.222 10
-8 2 -1 17118.4 623.952 11
-8 2 -1 18643 596.841 10
-8 2 -2 14354.4 484.787 10
-8 2 -3 198.313 73.7249 10
-8 1 8 4226.77 238.86 8
-8 1 8 4141.95 230.997 14
-8 1 7 165.119 101.186 14
-8 1 7 113.975 88.4325 8
-8 1 6 16086.9 544.075 8
-8 1 4 788.537 159.936 11
-8 1 3 15686.6 524.413 7
-8 1 3 16347.9 645.485 11
-8 1 2 19632.1 709.266 11
-8 1 2 19020.5 602.177 7
-8 1 1 914.519 177.835 11
-8 1 1 920.874 142.693 7
-8 1 0 5103.4 289.499 7
-8 1 0 5288.95 292.423 10
-8 1 -1 1345.93 146.564 7
-8 1 -1 1206.61 146.689 10
-8 1 -2 234.766 69.7606 7
-8 1 -2 129.402 66.552 10
-8 0 6 5098.27 306.466 14
-8 0 5 8898.2 406.62 14
-8 0 4 16444.9 545.548 14
-8 0 4 17195.5 532.083 7
-8 0 3 9733.32 402.83 7
-8 0 2 4214.13 266.315 7
-8 0 1 30393.8 764.96 7
-8 0 0 36708.1 768.465 7
-8 0 0 25143.4 675.72 10
-8 0 -1 17898.5 463.318 7
-8 -1 3 20806.1 567.283 7
-8 -1 2 10221 359.855 7
-9 6 2 8382.99 331.572 11
-9 6 2 8454.96 331.255 6
-9 6 1 93.1389 61.048 6
-9 6 0 12905.2 411.502 11
-9 5 4 280.271 83.5292 6
-9 5 3 1478.58 150.602 11
-9 5 3 1467.14 152.564 6
-9 5 2 2099.08 186.803 11
-9 5 2 1994.66 172.671 6
-9 5 1 2788.91 181.914 6
-9 5 0 6383.96 300.159 11
-9 4 4 22496.4 627.421 6
-9 4 3 6007.12 303.938 11
-9 4 3 5423.49 284.403 6
-9 4 2 1977.41 189.306 11
-9 4 2 1600.69 151.714 6
-9 4 1 10205.9 410.503 11
-9 4 0 22537.2 617.769 11
-9 3 3 3077.71 215.367 11
-9 3 2 232.274 95.8962 11
-9 3 1 1182.58 141.132 11
-9 3 0 17112.1 493.411 11
