#------------------------------------------------------------------------------
#$Date: 2021-08-19 01:59:35 +0300 (Thu, 19 Aug 2021) $
#$Revision: 268131 $
#$URL: file:///home/coder/svn-repositories/cod/cif/7/70/80/7708087.cif $
#------------------------------------------------------------------------------
#
# This file is available in the Crystallography Open Database (COD),
# http://www.crystallography.net/
#
# All data on this site have been placed in the public domain by the
# contributors.
#
data_7708087
loop_
_publ_author_name
'Habib, Ahsan Md.'
'Breedlove, Brian. K.'
'Goulven , Cosquer Goulven'
'Yamashita, Masahiro'
_publ_section_title
;
 Enhancement of the electrocatalytic abilities toward CO2 reduction by
 tethering redox-active metal complexes to the active site.
;
_journal_name_full               'Dalton Transactions'
_journal_paper_doi               10.1039/D1DT02318G
_journal_year                    2021
_chemical_formula_sum            'C32 H40 N8'
_chemical_formula_weight         536.72
_space_group_crystal_system      triclinic
_space_group_IT_number           2
_space_group_name_Hall           '-P 1'
_space_group_name_H-M_alt        'P -1'
_atom_sites_solution_hydrogens   geom
_atom_sites_solution_primary     direct
_atom_sites_solution_secondary   difmap
_audit_creation_method           SHELXL-2014/7
_audit_update_record
;
2020-12-01 deposited with the CCDC.	2021-08-16 downloaded from the CCDC.
;
_cell_angle_alpha                95.874(3)
_cell_angle_beta                 116.949(5)
_cell_angle_gamma                108.364(5)
_cell_formula_units_Z            1
_cell_length_a                   9.328(6)
_cell_length_b                   9.338(5)
_cell_length_c                   10.156(6)
_cell_measurement_reflns_used    27.5087
_cell_measurement_temperature    93
_cell_measurement_theta_max      27.5087
_cell_measurement_theta_min      3.1664
_cell_volume                     716.3(7)
_computing_cell_refinement       'Crystal Clear (Rigaku 2001)'
_computing_data_collection       'Crystal Clear (Rigaku 2001)'
_computing_data_reduction        'Crystal Clear (Rigaku 2001)'
_computing_molecular_graphics    'Ortep-3 for Windows (Farrugia, 1997)'
_computing_publication_material  'WinGX publication routines (Farrugia, 1999)'
_computing_structure_refinement  'SHELXL-2014/7 (Sheldrick, 2014)'
_computing_structure_solution    'SHELXS-2014/7 (Sheldrick, 2014)'
_diffrn_ambient_temperature      93
_diffrn_detector_area_resol_mean 28.5714
_diffrn_measured_fraction_theta_full 0.969
_diffrn_measured_fraction_theta_max 0.954
_diffrn_measurement_device
;
Saturn724+ (4x4 bin mode)
;
_diffrn_measurement_method       dtprofit.ref
_diffrn_radiation_detector       CCD
_diffrn_radiation_monochromator  Confocal
_diffrn_radiation_source         'Rotating Anode'
_diffrn_radiation_type           'Mo K\a'
_diffrn_radiation_wavelength     0.710747
_diffrn_reflns_av_R_equivalents  0.0290
_diffrn_reflns_av_unetI/netI     0.0480
_diffrn_reflns_Laue_measured_fraction_full 0.969
_diffrn_reflns_Laue_measured_fraction_max 0.954
_diffrn_reflns_limit_h_max       10
_diffrn_reflns_limit_h_min       -12
_diffrn_reflns_limit_k_max       12
_diffrn_reflns_limit_k_min       -12
_diffrn_reflns_limit_l_max       13
_diffrn_reflns_limit_l_min       -13
_diffrn_reflns_number            5764
_diffrn_reflns_point_group_measured_fraction_full 0.969
_diffrn_reflns_point_group_measured_fraction_max 0.954
_diffrn_reflns_theta_full        25.242
_diffrn_reflns_theta_max         27.487
_diffrn_reflns_theta_min         4.058
_exptl_absorpt_coefficient_mu    0.077
_exptl_absorpt_correction_T_max  1.0000
_exptl_absorpt_correction_T_min  0.7756
_exptl_absorpt_correction_type   multi-scan
_exptl_crystal_colour            colorless
_exptl_crystal_density_diffrn    1.244
_exptl_crystal_description       Plate
_exptl_crystal_F_000             288
_exptl_crystal_size_max          0.900
_exptl_crystal_size_mid          0.800
_exptl_crystal_size_min          0.500
_refine_diff_density_max         0.358
_refine_diff_density_min         -0.178
_refine_diff_density_rms         0.044
_refine_ls_extinction_method     none
_refine_ls_goodness_of_fit_ref   1.046
_refine_ls_hydrogen_treatment    constr
_refine_ls_matrix_type           full
_refine_ls_number_parameters     181
_refine_ls_number_reflns         3128
_refine_ls_number_restraints     0
_refine_ls_restrained_S_all      1.046
_refine_ls_R_factor_all          0.0617
_refine_ls_R_factor_gt           0.0454
_refine_ls_shift/su_max          0.000
_refine_ls_shift/su_mean         0.000
_refine_ls_structure_factor_coef Fsqd
_refine_ls_weighting_details
'w=1/[\s^2^(Fo^2^)+(0.0634P)^2^+0.0554P] where P=(Fo^2^+2Fc^2^)/3'
_refine_ls_weighting_scheme      calc
_refine_ls_wR_factor_gt          0.1083
_refine_ls_wR_factor_ref         0.1167
_reflns_Friedel_coverage         0.000
_reflns_number_gt                2438
_reflns_number_total             3128
_reflns_threshold_expression     'I > 2\s(I)'
_cod_data_source_file            d1dt02318g2.cif
_cod_data_source_block           py4cyclen
_cod_depositor_comments
;
The following automatic conversions were performed:

data item '_exptl_absorpt_correction_type' value 'Multi-scan' was
changed to 'multi-scan' in accordance with the
/home/data/users/saulius/crontab/automatic-downloads/rss-feeds/RSC/lib/dictionaries/cif_core.dic
dictionary named 'cif_core.dic' version 2.4.2 last updated on
2011-04-26.

Automatic conversion script
Id: cif_fix_values 7556 2019-12-06 15:28:31Z antanas 
;
_cod_database_code               7708087
_shelx_shelxl_version_number     2014/7
_shelx_space_group_comment
;
The symmetry employed for this shelxl refinement is uniquely defined
by the following loop, which should always be used as a source of
symmetry information in preference to the above space-group names.
They are only intended as comments.
;
_shelx_estimated_absorpt_t_min   0.934
_shelx_estimated_absorpt_t_max   0.962
_shelx_res_file
;

    /home/goulven/wingx/00/shelx.res created by SHELXL-2014/7

TITL SIR92 run in space group P -1
CELL  0.71073   9.3280   9.3380  10.1560   95.874  116.949  108.364
ZERR     1.00   0.0060   0.0050   0.0060    0.003    0.005    0.005
LATT   1
SFAC  C    H    N
UNIT  32 40 8
MERG   2
FMAP   2
PLAN   25
SIZE     0.510   0.870   0.900
ACTA
BOND   $H
CONF
L.S.  10
TEMP  -180.00
WGHT    0.063400    0.055400
FVAR      20.64680
N3    3    0.257764    0.349042    0.721500    11.00000    0.01827    0.01636 =
         0.01149    0.00385    0.00629    0.00475
N4    3    0.229036    0.210495    0.207657    11.00000    0.02857    0.02800 =
         0.01876    0.00877    0.01326    0.01577
N2    3    0.423863    0.678300    0.985243    11.00000    0.01729    0.01639 =
         0.01375    0.00423    0.00742    0.00677
N1    3    0.232912    0.718001    1.381665    11.00000    0.02192    0.03140 =
         0.02352    0.00684    0.01395    0.01092
C8    1    0.229781    0.494904    0.712189    11.00000    0.01893    0.02195 =
         0.01407    0.00657    0.00724    0.00948
AFIX  23
H8A   2    0.132835    0.488229    0.730872    11.00000   -1.20000
H8B   2    0.192973    0.504220    0.606574    11.00000   -1.20000
AFIX   0
C9    1    0.270111    0.301589    0.858618    11.00000    0.01625    0.01921 =
         0.01426    0.00531    0.00783    0.00567
AFIX  23
H9A   2    0.151254    0.232875    0.835364    11.00000   -1.20000
H9B   2    0.318030    0.396234    0.944375    11.00000   -1.20000
AFIX   0
C7    1    0.393223    0.642262    0.827618    11.00000    0.02021    0.01825 =
         0.01542    0.00680    0.00984    0.00768
AFIX  23
H7A   2    0.497358    0.630347    0.833006    11.00000   -1.20000
H7B   2    0.384034    0.733515    0.788020    11.00000   -1.20000
AFIX   0
C13   1    0.023891    0.155995    0.296981    11.00000    0.01807    0.01834 =
         0.01731    0.00602    0.00738    0.00774
AFIX  43
H13   2   -0.095409    0.113300    0.271482    11.00000   -1.20000
AFIX   0
C4    1    0.231560    0.594999    1.160556    11.00000    0.01830    0.01886 =
         0.02190    0.00549    0.01053    0.00884
AFIX  43
H4    2    0.211357    0.500900    1.096074    11.00000   -1.20000
AFIX   0
C6    1    0.305465    0.747496    0.991848    11.00000    0.02241    0.01909 =
         0.01880    0.00770    0.01003    0.01181
AFIX  23
H6A   2    0.187936    0.691783    0.897143    11.00000   -1.20000
H6B   2    0.351057    0.859315    0.993756    11.00000   -1.20000
AFIX   0
C16   1    0.358542    0.277182    0.356588    11.00000    0.02103    0.02643 =
         0.02127    0.00694    0.01099    0.01138
AFIX  43
H16   2    0.476595    0.320997    0.378874    11.00000   -1.20000
AFIX   0
C14   1    0.159518    0.223834    0.450458    11.00000    0.02016    0.01390 =
         0.01506    0.00527    0.00866    0.00807
C15   1    0.330516    0.285944    0.479415    11.00000    0.01904    0.02173 =
         0.01592    0.00431    0.00697    0.00786
AFIX  43
H15   2    0.427337    0.333959    0.582332    11.00000   -1.20000
AFIX   0
C3    1    0.286068    0.738793    1.130874    11.00000    0.01643    0.02143 =
         0.01782    0.00594    0.00782    0.01052
C11   1    0.121899    0.220945    0.580472    11.00000    0.01790    0.01966 =
         0.01526    0.00440    0.00791    0.00351
AFIX  23
H11A  2    0.007357    0.228118    0.546239    11.00000   -1.20000
H11B  2    0.111662    0.118938    0.603556    11.00000   -1.20000
AFIX   0
C10   1    0.390186    0.212925    0.907133    11.00000    0.02040    0.01631 =
         0.01633    0.00446    0.00814    0.00625
AFIX  23
H10A  2    0.351658    0.136203    0.957276    11.00000   -1.20000
H10B  2    0.379358    0.153395    0.814244    11.00000   -1.20000
AFIX   0
C2    1    0.314215    0.871092    1.230381    11.00000    0.02596    0.01948 =
         0.02771    0.00612    0.01489    0.00959
AFIX  43
H2    2    0.352622    0.971919    1.215597    11.00000   -1.20000
AFIX   0
C1    1    0.285711    0.855031    1.352372    11.00000    0.02747    0.02470 =
         0.02625    0.00126    0.01513    0.00925
AFIX  43
H1    2    0.305027    0.947252    1.418815    11.00000   -1.20000
AFIX   0
C12   1    0.064781    0.151382    0.181579    11.00000    0.02400    0.02307 =
         0.01554    0.00466    0.00598    0.01064
AFIX  43
H12   2   -0.029638    0.103301    0.077658    11.00000   -1.20000
AFIX   0
C5    1    0.207197    0.590896    1.285122    11.00000    0.01956    0.02448 =
         0.02623    0.01019    0.01270    0.01037
AFIX  43
H5    2    0.169909    0.491739    1.303282    11.00000   -1.20000
AFIX   0
HKLF    4

REM  SIR92 run in space group P -1
REM R1 =  0.0454 for    2438 Fo > 4sig(Fo)  and  0.0617 for all    3128 data
REM    181 parameters refined using      0 restraints

END

WGHT      0.0641      0.0362

REM Highest difference peak  0.358,  deepest hole -0.178,  1-sigma level  0.044
Q1    1   0.1467  0.2326  0.5136  11.00000  0.05    0.36
Q2    1   0.3091  0.7407  1.0707  11.00000  0.05    0.26
Q3    1   0.1955  0.2836  0.6604  11.00000  0.05    0.26
Q4    1   0.3066  0.5673  0.7668  11.00000  0.05    0.25
Q5    1   0.2447  0.2915  0.4598  11.00000  0.05    0.23
Q6    1   0.3392  0.8067  1.2006  11.00000  0.05    0.23
Q7    1   0.2794  0.8599  1.2787  11.00000  0.05    0.22
Q8    1   0.3996  0.6508  0.9078  11.00000  0.05    0.21
Q9    1   0.3650  0.7055  0.9954  11.00000  0.05    0.21
Q10   1   0.3331  0.2659  0.4229  11.00000  0.05    0.20
Q11   1   0.3285  0.2588  0.8812  11.00000  0.05    0.20
Q12   1   0.2553  0.3293  0.7841  11.00000  0.05    0.20
Q13   1   0.0891  0.1832  0.3756  11.00000  0.05    0.19
Q14   1   0.2811  0.2296  0.2817  11.00000  0.05    0.19
Q15   1   0.2993  0.6815  1.1629  11.00000  0.05    0.19
Q16   1   0.1836  0.5947  1.1991  11.00000  0.05    0.18
Q17   1   0.2145  0.6563  1.1221  11.00000  0.05    0.18
Q18   1   0.5190  0.7312  1.0292  11.00000  0.05    0.17
Q19   1   0.0606  0.1696  0.2559  11.00000  0.05    0.17
Q20   1   0.3829  0.5805  0.9766  11.00000  0.05    0.17
Q21   1   0.2469  0.4106  0.7216  11.00000  0.05    0.17
Q22   1   0.1439  0.1347  0.1965  11.00000  0.05    0.16
Q23   1   0.1597  0.6617  1.3039  11.00000  0.05    0.16
Q24   1   0.2590  0.6118  1.2428  11.00000  0.05    0.16
Q25   1   0.2164  0.7177  1.4643  11.00000  0.05    0.16
;
_shelx_res_checksum              40160
_shelx_hkl_file
;
   0   0   2392455.0 8012.39   1
   0   0  -2407303.0 8268.03   1
   0   0  -2405653.0 8029.80   1
   0   0   2414418.0 8178.19   1
   0   0   3  26.911 781.538   1
   0   0  -3 1010.19 933.928   1
   0   0  -3 742.483 401.446   1
   0   0   3 1421.56 380.621   1
   0   0   4 1222.49 1006.89   1
   0   0  -4 1029.85 819.176   1
   0   0  -4 1082.51 545.624   1
   0   0   534727.10 1769.19   1
   0   0  -533502.30 1604.89   1
   0   0  -534155.10 1238.55   1
   0   0   660160.80 3378.13   1
   0   0  -672095.70 3504.30   1
   0   0   7102468.0 5220.42   1
   0   0  -795856.80 3109.74   1
   0   0   8 2715.57 1785.63   1
   0   0  -8 4414.58 1133.02   1
   0   0   9 5899.75 2581.06   1
   0   0  -9 6700.62 1426.03   1
   0   0  1010679.70 1846.18   1
   0   0 -1013345.40 1891.95   1
   0   0 -1143313.80 2730.65   1
   0  -1  11 1963.34 1253.46   1
   0   1 -11 3256.38 1098.57   1
   0  -1  10 2046.73 1437.61   1
   0   1 -10 5100.54 1559.71   1
   0  -1   936936.70 2700.47   1
   0   1  -933287.80 1979.45   1
   0  -1   853300.00 7188.09   1
   0   1  -851423.30 2797.08   1
   0  -1   737197.50 2151.81   1
   0   1  -740897.30 1651.39   1
   0  -1   612788.70 2098.79   1
   0   1  -612990.40 1393.99   1
   0  -1   462813.00 2111.96   1
   0   1  -465004.90 2073.51   1
   0   1  -467679.00 1486.38   1
   0  -1   3249605.0 5583.46   1
   0   1  -3234602.0 5307.73   1
   0   1  -3246485.0 5033.40   1
   0  -1   3248928.0 5029.25   1
   0  -1   233186.60 1512.45   1
   0   1  -228897.20 1310.91   1
   0   1  -232099.50  881.36   1
   0  -1   229888.70 820.773   1
   0   1   222857.60 1166.50   1
   0  -1  -223812.20  994.41   1
   0  -1  -220710.20 762.576   1
   0   1   221737.20 763.586   1
   0   1   346124.10 1729.51   1
   0  -1  -345125.70 1451.92   1
   0  -1  -344978.60 1370.37   1
   0   1   345676.90 1241.80   1
   0   1   422661.10 1212.21   1
   0  -1  -420720.40 976.854   1
   0  -1  -423248.70 1159.52   1
   0   1   5 351.025 329.437   1
   0  -1  -5  115.26 418.999   1
   0  -1  -5 52.7529 571.403   1
   0   1   691815.10 4703.55   1
   0  -1  -689321.60 3395.14   1
   0  -1  -686466.30 3645.19   1
   0  -1  -810866.20 1394.98   1
   0  -1  -936979.60 927.816   1
   0  -1  -933308.10 1753.09   1
   0  -1 -10 2921.24 1215.69   1
   0  -2  11-65.3977 1053.50   1
   0   2 -11 152.958  616.96   1
   0  -2  1022985.60 6141.96   1
   0   2 -1026367.90 1816.10   1
   0  -2   993170.70 4575.69   1
   0   2  -996553.90 3960.62   1
   0  -2   812689.00 2001.34   1
   0   2  -811062.50 833.466   1
   0  -2   7  463.61 1116.75   1
   0   2  -7 1453.70 672.775   1
   0  -2   6300503.011146.30   1
   0   2  -6287924.0 9943.42   1
   0   2  -598278.50 2338.42   1
   0  -2   4115002.0 3109.72   1
   0   2  -4119825.0 2066.96   1
   0  -2   341819.30 2250.61   1
   0   2  -336292.40 1598.71   1
   0   2  -338457.00 1109.75   1
   0  -2   335519.10 1010.16   1
   0  -2   2274234.0 6053.81   1
   0   2  -2265442.0 5732.71   1
   0   2  -2269416.0 5427.09   1
   0  -2   2272695.0 5482.35   1
   0  -2   1204683.0 4449.62   1
   0   2  -1212253.0 4548.77   1
   0  -2   1199441.0 4520.72   1
   0   2  -1209130.0 4613.01   1
   0   2   1179903.0 3542.90   1
   0  -2  -1183315.0 3982.25   1
   0   2   1178299.0 3795.53   1
   0  -2  -2338698.0 6709.90   1
   0  -2  -2339979.0 7029.36   1
   0   2   2341206.0 6929.57   1
   0  -2  -3297630.0 4263.86   1
   0  -2  -3291724.0 4531.91   1
   0  -2  -410277.70 737.261   1
   0  -2  -410117.10 404.648   1
   0  -2  -411163.40 1209.95   1
   0  -2  -568484.10 2627.24   1
   0  -2  -568802.10 2425.39   1
   0  -2  -575238.10 3968.74   1
   0  -2  -623517.20 940.785   1
   0  -2  -623401.30  558.10   1
   0  -2  -623851.70 1573.93   1
   0  -2  -7 1191.84 296.611   1
   0  -2  -7 1681.66 1158.45   1
   0  -2  -8135417.0 5552.16   1
   0  -2  -9 1513.67 934.251   1
   0  -2 -1012529.10 1951.77   1
   0  -3  11 1631.72 563.584   1
   0   3 -11 2963.54 1056.19   1
   0  -3  10 2340.78 2431.56   1
   0   3 -10 2050.04 994.098   1
   0  -3   955033.40 3409.10   1
   0   3  -953759.60 2471.62   1
   0  -3   8144593.0 7426.36   1
   0   3  -8153448.0 7198.65   1
   0  -3   7 6755.02 1526.20   1
   0   3  -7 4521.63 730.574   1
   0  -3   625055.30 2902.04   1
   0   3  -627726.30 1676.03   1
   0  -3   548721.40 2537.37   1
   0   3  -547259.50 1336.64   1
   0  -3   4 9937.47 1942.52   1
   0   3  -4 9308.83 747.322   1
   0  -3   3215489.0 5408.70   1
   0   3  -3200869.0 4780.24   1
   0   3  -3199937.0 4191.59   1
   0  -3   3200025.0 4154.12   1
   0  -3   2582642.012102.90   1
   0   3  -2568586.011648.40   1
   0   3  -2562774.011748.00   1
   0  -3   1 6804.56 1059.23   1
   0   3  -1 5733.86 837.174   1
   0  -3   1 5511.47 2953.21   1
   0   3  -1 6646.30 1047.56   1
   0  -3   021667.90 1051.98   1
   0   3   022479.20 905.848   1
   0  -3   021987.70 1394.99   1
   0   3   021139.10 1255.79   1
   0   3   1186309.0 3722.38   1
   0  -3  -1184088.0 4225.09   1
   0   3   1192017.0 4221.90   1
   0  -3  -210263.90 614.375   1
   0  -3  -210433.30 357.579   1
   0  -3  -210662.40 1272.75   1
   0  -3  -3119612.0 2332.68   1
   0  -3  -3126220.0 2405.75   1
   0  -3  -3121026.0 3028.00   1
   0  -3  -4 1151.44 266.696   1
   0  -3  -4  659.72 1266.65   1
   0  -3  -564458.70 2320.10   1
   0  -3  -562860.30 2730.18   1
   0  -3  -644482.30 2083.33   1
   0  -3  -793604.20 3737.31   1
   0  -3  -813212.10 1915.55   1
   0  -3  -9 766.555 989.435   1
   0  -4  11 6746.82 5979.28   1
   0   4 -11 8782.25 1010.76   1
   0  -4  10 1285.26 1480.53   1
   0   4 -10 587.342 683.083   1
   0  -4   963141.40 3622.36   1
   0   4  -948253.50 2249.64   1
   0  -4   813350.00 2099.48   1
   0   4  -817832.80 1119.32   1
   0  -4   7 3521.70 1750.06   1
   0   4  -7 3286.69 636.196   1
   0  -4   6 2944.16 2115.28   1
   0   4  -6 7249.29 1486.11   1
   0  -4   5 2652.10 1388.55   1
   0   4  -5 2489.99 729.459   1
   0  -4   4 573.488 1498.71   1
   0   4  -4 725.085 706.509   1
   0  -4   350239.10 2760.56   1
   0   4  -352118.50 1272.40   1
   0  -4   2407045.0 6541.97   1
   0   4  -2396266.0 6160.23   1
   0  -4   2400658.0 6943.46   1
   0  -4   1106361.0 2380.08   1
   0   4  -1109850.0 2305.39   1
   0  -4   1107965.0 3074.71   1
   0   4  -1107638.0 2757.83   1
   0  -4   023204.90 1078.45   1
   0   4   023143.50 775.811   1
   0  -4   023770.30 1730.81   1
   0   4   113961.90 439.312   1
   0  -4  -114335.50 1554.16   1
   0  -4  -2264956.0 5036.97   1
   0   4   2244911.0 4564.32   1
   0  -4  -2253562.0 5659.87   1
   0  -4  -328440.00 2915.26   1
   0  -4  -461384.20 2926.81   1
   0  -4  -5 2530.31 1235.45   1
   0  -4  -614023.70 1930.37   1
   0  -4  -7-284.711 1042.41   1
   0  -4  -820902.40 2500.82   1
   0  -4  -912963.40 1895.72   1
   0  -5  11 554.103 1246.63   1
   0   5 -11 701.844 884.515   1
   0  -5  10 3681.08 1789.01   1
   0   5 -10 3800.19 1137.72   1
   0  -5   943256.30 2917.85   1
   0   5  -942801.10 1391.42   1
   0  -5   8309113.0 9871.90   1
   0   5  -8338271.0 9616.45   1
   0  -5   7  355.16 1286.98   1
   0   5  -7 594.937 516.565   1
   0  -5   6 4617.27 2132.27   1
   0   5  -6 6888.06 842.875   1
   0  -5   551643.60 3591.66   1
   0   5  -563959.80 2492.05   1
   0  -5   413622.60 2311.53   1
   0   5  -415143.30 1264.29   1
   0  -5   3274173.0 6620.15   1
   0   5  -3267870.0 5413.83   1
   0  -5   2190307.0 4992.36   1
   0  -5   2201732.0 5508.20   1
   0  -5   1 1143.36 1216.39   1
   0   5  -1 1150.04 648.462   1
   0  -5   1 2204.85 1685.38   1
   0  -5   022318.20 1426.30   1
   0   5   020932.30 872.677   1
   0  -5   021937.70 2048.36   1
   0  -5  -116491.60 1424.92   1
   0   5   115627.60 1186.70   1
   0  -5  -115172.60 2257.30   1
   0  -5  -223186.60 1651.62   1
   0   5   225984.10 1788.46   1
   0  -5  -312423.70 1568.96   1
   0  -5  -4 7166.88 1725.70   1
   0  -5  -513344.80 1829.55   1
   0  -5  -633118.20 2899.54   1
   0  -5  -7 1580.92 1130.82   1
   0  -5  -8 3509.47 1618.57   1
   0  -6  11 1094.35 2019.02   1
   0   6 -11 2904.33 1206.56   1
   0  -6  1035481.10 3898.28   1
   0   6 -1034008.20 2222.53   1
   0  -6   9 1918.30 1734.88   1
   0   6  -9  436.64 613.568   1
   0  -6   819680.80 2880.08   1
   0   6  -823383.00 1406.62   1
   0  -6   7 901.157 1299.72   1
   0   6  -7 122.295  460.97   1
   0  -6   632854.20 3104.80   1
   0   6  -641499.40 1189.88   1
   0  -6   536777.20 3037.75   1
   0   6  -539602.90 1511.73   1
   0  -6   4 5171.39 4498.46   1
   0   6  -4 9189.40 1516.03   1
   0  -6   328214.40 7262.16   1
   0   6  -3 6946.50 907.455   1
   0  -6   244803.20 6311.78   1
   0  -6   239713.10 5643.23   1
   0  -6   139783.80 5831.25   1
   0  -6   123169.20 9967.80   1
   0  -6   0 4423.35 1744.65   1
   0   6   0 7860.57 1247.00   1
   0  -6  -1 2843.53 762.562   1
   0   6   1 1858.51 388.687   1
   0  -6  -1 973.128 1609.37   1
   0  -6  -276772.10 2125.69   1
   0   6   278306.50 2071.85   1
   0  -6  -270959.40 3120.99   1
   0  -6  -331058.60 3013.27   1
   0  -6  -473989.00 3614.70   1
   0  -6  -5 3453.77 1870.80   1
   0  -6  -6 1825.46 1204.69   1
   0  -6  -7 1935.56 1538.11   1
   0  -7  11 2393.95 1645.37   1
   0   7 -11 3572.90 974.547   1
   0  -7  10 4455.69 2572.17   1
   0   7 -10 6156.66 1337.06   1
   0  -7   9 3536.79 1893.16   1
   0   7  -9 5546.66 1490.03   1
   0  -7   893791.20 3710.30   1
   0   7  -8105082.0 2032.37   1
   0  -7   717084.90 2977.48   1
   0   7  -713962.20 1231.23   1
   0  -7   674785.40 4661.19   1
   0   7  -681631.10 4039.29   1
   0  -7   5 2105.12 1949.08   1
   0   7  -5 97.1887 434.029   1
   0  -7   422229.60 2973.13   1
   0   7  -420195.40 1515.33   1
   0  -7   3 6289.33 1868.59   1
   0   7  -3 5066.55 628.938   1
   0  -7   2 2931.57 1715.97   1
   0  -7   2 3568.07 2079.50   1
   0  -7   1 4118.04 1373.78   1
   0  -7   1 7494.28 5946.78   1
   0  -7   0 9636.56 1288.49   1
   0   7   0 8260.52 561.274   1
   0  -7   011610.30 2363.40   1
   0  -7  -124888.10 1855.72   1
   0  -7  -124868.60 2658.10   1
   0  -7  -213120.80 2107.49   1
   0  -7  -3 3156.51 1691.21   1
   0  -7  -4 7149.02 2369.98   1
   0  -7  -5 4809.75 2418.21   1
   0  -7  -632217.80 2893.33   1
   0  -8  10 4805.37 2410.35   1
   0   8 -10 5578.57 1203.92   1
   0  -8   924003.40 3550.92   1
   0   8  -922483.40 1612.36   1
   0  -8   8 3245.23 2473.83   1
   0   8  -8 1098.19 643.989   1
   0  -8   7 1207.30 1798.90   1
   0   8  -7 25.6141 534.126   1
   0  -8   6 5952.32 1908.77   1
   0   8  -6 8955.51 1123.10   1
   0  -8   514529.00 2767.61   1
   0   8  -514766.90 1099.31   1
   0  -8   442562.20 3698.37   1
   0   8  -445948.30 2489.16   1
   0  -8   3 63.8864 1331.07   1
   0   8  -3 754.087 637.083   1
   0  -8   256627.50 3465.04   1
   0  -8   256100.50 4266.89   1
   0  -8   1 6686.42 1379.46   1
   0  -8   1 3857.33 3461.74   1
   0  -8   032727.90 1639.62   1
   0  -8   036526.60 4467.27   1
   0  -8  -1 646.789 1951.47   1
   0  -8  -2 841.941 1640.60   1
   0  -8  -3 1215.04 1236.94   1
   0  -8  -410113.70 2461.57   1
   0  -8  -5 9691.46 2030.96   1
   0  -9   9 9567.25 2270.28   1
   0   9  -911538.20 1106.17   1
   0  -9   8 3828.10 2305.36   1
   0   9  -8 4527.23 861.846   1
   0  -9   712494.20 3105.69   1
   0   9  -710108.30 2034.98   1
   0  -9   662075.30 2995.78   1
   0   9  -665131.10 1794.03   1
   0  -9   5 1386.25 1245.49   1
   0   9  -5 119.877 562.612   1
   0  -9   4 2937.67 1565.01   1
   0   9  -4 3091.53 986.931   1
   0  -9   3 -656.44 860.522   1
   0   9  -3 299.473 752.081   1
   0  -9   253778.20 2968.95   1
   0  -9   250409.20 4516.45   1
   0  -9   110257.00 1321.93   1
   0  -9   1 7485.29 5904.53   1
   0  -9   0 2580.53 1943.41   1
   0  -9  -1 1124.28 1455.69   1
   0  -9  -2 3075.85 2204.95   1
   0  -9  -3 8674.38 2102.60   1
   0  -9  -423667.70 2548.45   1
   0 -10   8 5044.84 2611.20   1
   0  10  -8 1090.40 576.412   1
   0 -10   7 1601.58 1404.31   1
   0  10  -7 300.558  537.22   1
   0 -10   6 4348.82 1552.20   1
   0  10  -6 5206.89 912.131   1
   0 -10   5 2173.94 1626.90   1
   0  10  -5 926.786 921.308   1
   0 -10   410015.50 3255.27   1
   0  10  -4 3905.82 1084.23   1
   0 -10   3 8851.57 2685.32   1
   0  10  -3 589.401 588.879   1
   0 -10   2 1367.27 1035.15   1
   0 -10   2 2680.43 2548.04   1
   0 -10   115274.90 9426.89   1
   0 -10   0-377.549 1507.57   1
   0 -10  -1 4157.28 2249.29   1
   0 -10  -2 349.612 1446.85   1
   0 -11   6 2441.01 1705.19   1
   0  11  -6  431.49 530.671   1
   0 -11   5 2772.31 1920.23   1
   0  11  -5 896.984 754.386   1
   0 -11   4 8075.17 2134.09   1
   0  11  -4 6838.16 899.354   1
   0  11  -3 2624.31 810.885   1
   0 -11   2 3738.89 2483.98   1
   0 -11   1 5512.89 2600.32   1
   0 -11   030058.70 3235.32   1
   1 -11  -1 7804.45 5871.74   1
   1 -11   0 1270.67 1448.29   1
   1 -11   130189.10 3489.14   1
  -1  11  -252283.60 2742.68   1
   1 -11   3 1911.25 1146.34   1
  -1  11  -3 4151.93 926.145   1
   1 -11   4 1894.65 1105.32   1
  -1  11  -4 4424.88 856.479   1
   1 -11   5 4462.67 2080.08   1
  -1  11  -5 3113.91 890.942   1
   1 -11   611318.90 2426.95   1
  -1  11  -6 8398.72 862.145   1
   1 -10  -326332.00 3343.24   1
   1 -10  -2 956.904 1420.58   1
   1 -10  -1 1711.83 1972.69   1
   1 -10   0 1191.53 1395.69   1
   1 -10   1 456.951 1275.22   1
   1 -10   215380.00 1755.28   1
   1 -10   3-266.606 1202.16   1
  -1  10  -3 181.058 531.848   1
   1 -10   4 7175.85 2646.34   1
  -1  10  -4 9471.88 1942.40   1
   1 -10   5 2877.49 2120.68   1
  -1  10  -5 372.936 527.201   1
   1 -10   616074.80 2914.74   1
  -1  10  -616571.60 1468.28   1
   1 -10   7 559.415 1555.87   1
  -1  10  -7 706.944 486.815   1
   1 -10   837867.90 3620.78   1
  -1  10  -833680.30 1776.00   1
   1  -9  -5 2085.13 1379.47   1
   1  -9  -4 2175.60 1980.31   1
   1  -9  -2 4272.54 2035.83   1
   1  -9  -1122441.0 4377.27   1
   1  -9   024037.10 1472.54   1
   1  -9   021424.60 4843.95   1
   1  -9   1 9424.32 1387.90   1
   1  -9   1 6998.42 2528.13   1
   1  -9   2 4347.36 1186.17   1
   1  -9   2 3761.42 2502.65   1
   1  -9   319704.30 2533.23   1
  -1   9  -318422.90 1526.13   1
   1  -9   410316.70 2124.08   1
  -1   9  -4 9138.48 1032.63   1
   1  -9   516533.20 2462.84   1
  -1   9  -519680.90 1233.90   1
   1  -9   614503.80 2765.33   1
  -1   9  -615308.40 1293.98   1
   1  -9   7 2662.84 1783.59   1
  -1   9  -7 894.837 844.481   1
   1  -9   8 1779.84 2291.78   1
  -1   9  -8-135.436 475.905   1
   1  -9   9 1563.91 1487.03   1
  -1   9  -9 3670.42 889.556   1
   1  -8  -613874.60 2091.14   1
   1  -8  -5 1589.40 1934.85   1
   1  -8  -4 1980.93 1197.76   1
   1  -8  -322720.20 2581.16   1
   1  -8  -263807.80 4092.23   1
   1  -8  -1 185.799 363.175   1
   1  -8  -1-88.9381 1829.93   1
   1  -8   089009.10 4541.92   1
   1  -8   078964.00 7855.31   1
   1  -8   1 8969.27 1629.23   1
   1  -8   110658.40 2297.93   1
   1  -8   220227.50 2491.32   1
   1  -8   224488.80 3470.46   1
   1  -8   331612.40 2508.85   1
  -1   8  -332355.70 1094.89   1
   1  -8   4 673.982 1542.49   1
  -1   8  -4  578.42 453.392   1
   1  -8   5 2261.99 1812.77   1
  -1   8  -5 519.522 452.408   1
   1  -8   629561.80 3597.40   1
  -1   8  -634205.80 1685.01   1
   1  -8   7 4562.84 2493.30   1
  -1   8  -7 5763.49 1224.82   1
   1  -8   869046.60 4115.32   1
  -1   8  -876964.60 2756.37   1
   1  -8   930138.50 3404.65   1
  -1   8  -930422.70 1828.21   1
   1  -8  10 3827.74 3870.39   1
  -1   8 -10 8380.68 1159.45   1
   1  -7  -7 4981.75 1734.10   1
   1  -7  -6 5327.07 1721.96   1
   1  -7  -5 7861.33 2025.77   1
   1  -7  -4 3660.21 1471.39   1
   1  -7  -3 6334.60 2741.59   1
  -1   7   2166169.0 3958.25   1
   1  -7  -2174487.0 5651.13   1
   1  -7  -1374363.0 2881.05   1
  -1   7   1355564.0 9445.67   1
   1  -7  -1359599.0 5360.70   1
   1  -7   070822.00 2620.06   1
  -1   7   066620.10 2228.50   1
   1  -7   070142.00 3994.75   1
   1  -7   1 2097.90 1679.78   1
   1  -7   1 936.845 1506.10   1
   1  -7   227061.00 2139.23   1
   1  -7   321054.20 2339.12   1
  -1   7  -321143.60 935.206   1
   1  -7   440020.10 3024.26   1
  -1   7  -443098.40 1652.94   1
   1  -7   5 9185.20 2164.41   1
  -1   7  -5 9690.39 922.279   1
   1  -7   620041.60 2773.41   1
  -1   7  -623278.90 1051.77   1
   1  -7   763927.90 4085.18   1
  -1   7  -770236.00 2930.10   1
   1  -7   811609.30 2769.91   1
  -1   7  -811091.20 1150.50   1
   1  -7   960409.90 4904.86   1
  -1   7  -957042.40 3400.96   1
   1  -7  1068891.10 4934.22   1
  -1   7 -1066788.60 3435.29   1
   1  -6  -8 2554.80 1352.79   1
   1  -6  -7 4984.75 1610.03   1
   1  -6  -6 590.023 895.943   1
   1  -6  -5 1290.15 1336.79   1
   1  -6  -4 8213.56 2138.85   1
   1  -6  -3 6400.48 1962.06   1
  -1   6   220140.00 362.563   1
  -1   6   219535.30 2684.02   1
   1  -6  -220111.00 2579.53   1
   1  -6  -184892.60 3104.05   1
  -1   6   180685.50 2847.09   1
   1  -6  -1101436.0 7633.94   1
   1  -6   075535.90 4701.24   1
  -1   6   058576.60 2358.19   1
   1  -6   051565.90 5651.11   1
   1  -6   136048.30 2947.16   1
   1  -6   137913.00 2976.26   1
   1  -6   246217.70 4423.92   1
  -1   6  -251470.80 2113.32   1
   1  -6   349674.70 7120.01   1
  -1   6  -341122.60 1807.05   1
   1  -6   419762.20 5528.36   1
  -1   6  -424457.80 1200.66   1
   1  -6   5 9129.69 2358.97   1
  -1   6  -5 6305.92  743.30   1
   1  -6   6245362.0 7465.43   1
  -1   6  -6233879.0 6029.76   1
   1  -6   719311.50 2336.97   1
  -1   6  -717852.50 1230.90   1
   1  -6   8-200.426 1695.70   1
  -1   6  -8 860.651 859.519   1
   1  -6   963841.20 7828.73   1
  -1   6  -965808.30 2485.59   1
   1  -6  10 380.462 1174.05   1
  -1   6 -10  364.14 678.922   1
   1  -5  -9 3664.00 1455.71   1
   1  -5  -815675.90 1942.42   1
   1  -5  -7 1819.46 1232.33   1
   1  -5  -6 4686.46 1764.54   1
   1  -5  -524643.10 2209.46   1
   1  -5  -4 3239.00 1631.73   1
   1  -5  -3154745.0 7501.84   1
  -1   5   237835.30 1292.58   1
   1  -5  -237006.60 2454.48   1
   1  -5  -1 8391.72 1587.07   1
  -1   5   1 7216.35 586.044   1
   1  -5  -1 6193.30 1631.89   1
   1  -5   074841.70 2224.72   1
  -1   5   072358.30 2044.55   1
   1  -5   070791.30 2824.33   1
   1  -5   1627891.042963.70   1
  -1   5  -1609272.011987.30   1
   1  -5   1611274.012595.40   1
   1  -5   219981.90 2255.68   1
  -1   5  -219284.20 956.459   1
   1  -5   3141387.0 4114.34   1
  -1   5  -3147250.0 3183.83   1
   1  -5   4 5977.95 1855.71   1
  -1   5  -410588.30 983.923   1
   1  -5   532571.40 3786.86   1
  -1   5  -528944.70 1311.39   1
   1  -5   676274.90 3689.90   1
  -1   5  -678468.00 2533.62   1
   1  -5   7104389.0 5839.06   1
  -1   5  -799931.70 4816.55   1
   1  -5   870059.80 3552.22   1
  -1   5  -877519.30 2749.33   1
   1  -5   970872.80 3393.18   1
  -1   5  -966495.60 1909.72   1
   1  -5  10 6793.60 5826.41   1
  -1   5 -10 8447.00 1398.54   1
   1  -5  11 2493.74 2496.55   1
  -1   5 -11 6733.71 1074.87   1
   1  -4 -1083215.60 4026.08   1
   1  -4  -9-325.453  822.99   1
   1  -4  -8 1230.31 1154.58   1
   1  -4  -741315.00 2524.91   1
   1  -4  -6 9347.06 1563.76   1
   1  -4  -514575.90 1328.40   1
   1  -4  -4 4633.49 3963.61   1
   1  -4  -324142.70 1636.87   1
   1  -4  -2 7116.18 1296.53   1
   1  -4  -1 333.828 297.985   1
  -1   4   1 116.701 276.988   1
   1  -4  -1 94.6604 924.446   1
  -1   4   1 173.422 480.732   1
   1  -4   013714.50 1163.83   1
  -1   4   011956.80 813.432   1
   1  -4   014927.80 1596.90   1
  -1   4   013529.40 836.706   1
   1  -4   1172022.0 3450.32   1
  -1   4  -1168280.0 3147.16   1
   1  -4   1173479.0 3948.49   1
  -1   4  -1169015.0 3376.42   1
   1  -4   227228.40 1953.87   1
  -1   4  -227811.40 1564.28   1
  -1   4  -228262.90 1797.06   1
  -1   4  -226770.00  813.29   1
   1  -4   388514.40 2808.06   1
  -1   4  -387595.40 1622.87   1
   1  -4   4 8852.91 2251.10   1
  -1   4  -4 9774.72 719.022   1
   1  -4   513000.20 2345.78   1
  -1   4  -513362.50 1186.16   1
   1  -4   6 984.934 1691.41   1
  -1   4  -6 204.518 472.804   1
   1  -4   7 553.383 1222.49   1
  -1   4  -7 710.415 701.572   1
   1  -4   837075.50 6059.18   1
  -1   4  -839748.50 1794.42   1
   1  -4   942431.20 2632.78   1
  -1   4  -939680.40 1517.36   1
   1  -4  10 6026.35 4335.66   1
  -1   4 -10 8579.75 1593.68   1
   1  -4  1134501.60 4823.75   1
  -1   4 -1135946.10 2047.57   1
   1  -3  -9 339.935  804.43   1
   1  -3  -839365.90 2257.66   1
   1  -3  -732354.70 1657.31   1
   1  -3  -6115156.0 3169.45   1
   1  -3  -6121452.0 4017.65   1
   1  -3  -512319.70 904.448   1
   1  -3  -522105.30 3957.78   1
   1  -3  -4 269.177 697.464   1
   1  -3  -3443812.0 6513.04   1
   1  -3  -272561.20 2072.26   1
  -1   3   276100.90 1865.40   1
  -1   3   1 6157.92 726.687   1
   1  -3  -1 7428.23 1015.87   1
  -1   3   1 6432.82 729.564   1
   1  -3   2161238.0 4249.02   1
  -1   3  -2181500.0 4536.13   1
  -1   3  -2165595.0 3452.28   1
   1  -3   2166145.0 3488.01   1
   1  -3   328541.30 2460.05   1
  -1   3  -325804.00  707.61   1
   1  -3   325866.10 704.818   1
   1  -3   468484.30 2966.85   1
  -1   3  -466298.60 1651.82   1
   1  -3   5 3317.74 1886.45   1
  -1   3  -5 4226.32 704.094   1
   1  -3   6 2286.29 1755.05   1
  -1   3  -6 56.7866 524.288   1
   1  -3   7 665.476 740.496   1
  -1   3  -7 1712.00 771.342   1
   1  -3   856521.30 7228.07   1
  -1   3  -864120.30 2390.69   1
   1  -3   919076.00 4247.18   1
  -1   3  -920232.70 1417.90   1
   1  -3  10 7120.21 5230.72   1
  -1   3 -1012449.30 1576.42   1
   1  -3  11 9022.58 2290.40   1
  -1   3 -11 7245.50 1315.43   1
   1  -2 -1084380.00 4958.15   1
   1  -2  -9 7254.23 1516.97   1
   1  -2  -818841.10 1675.74   1
  -1   2   721624.10 2351.79   1
   1  -2  -719569.10 1489.56   1
   1  -2  -721413.50 1915.53   1
  -1   2   611845.40 2468.00   1
   1  -2  -611259.60 1679.41   1
   1  -2  -6 8044.16 2461.47   1
  -1   2   550858.40 2440.05   1
   1  -2  -547635.10 1322.44   1
   1  -2  -548577.60 1530.45   1
  -1   2   4 535.057 582.699   1
   1  -2  -4 425.021 344.984   1
   1  -2  -4 995.651 794.868   1
  -1   2   3 2103.29  377.84   1
   1  -2  -3 2087.17  298.53   1
   1  -2  -3 2870.64 621.349   1
  -1   2   3 3102.19  497.63   1
  -1   2   2293384.0 5754.71   1
   1  -2  -2277357.0 5657.03   1
  -1   2   2277701.0 5592.23   1
  -1   2   1131907.0 2621.21   1
   1  -2  -1135298.0 2951.57   1
  -1   2   1130171.0 2775.48   1
  -1   2   0283508.0 5832.79   1
   1  -2   0282314.0 5909.11   1
  -1   2   0284239.0 5879.41   1
   1  -2   2 4861.41 1430.34   1
  -1   2  -2 5990.30 1384.75   1
  -1   2  -2 5753.80 471.001   1
   1  -2   2 5996.60 408.706   1
   1  -2   350030.60 2384.99   1
  -1   2  -346890.70 1967.03   1
  -1   2  -348657.80 1261.75   1
   1  -2   347624.60 1253.89   1
   1  -2   463592.20 2326.68   1
  -1   2  -470273.60 1529.36   1
   1  -2   5 4286.39 1765.35   1
  -1   2  -5 3182.80 705.022   1
   1  -2   6100435.0 6007.54   1
  -1   2  -6103259.0 3872.29   1
   1  -2   757322.50 4465.40   1
  -1   2  -759846.70 2029.64   1
   1  -2   818712.40 3216.78   1
  -1   2  -814397.30 1263.56   1
   1  -2   9 347.168 666.363   1
  -1   2  -9 1132.51 699.876   1
  -1   2 -10 2939.60 1218.71   1
  -1   2 -1175519.60 3125.56   1
  -1   2 -1172800.70 3567.92   1
   1  -1 -11 5977.50 1147.81   1
   1  -1 -10 3961.12 1347.36   1
   1  -1  -9 5241.56 1532.76   1
  -1   1   831236.20 2102.28   1
   1  -1  -829919.10 1527.83   1
  -1   1   7 3555.60 1174.11   1
   1  -1  -7 4477.69 1110.52   1
  -1   1   613995.30 1559.11   1
   1  -1  -613838.90 1239.95   1
   1  -1  -611907.20 1878.48   1
  -1   1   5 6478.83 958.634   1
   1  -1  -5 5865.18 843.045   1
   1  -1  -5 6141.06 871.415   1
  -1   1   4 373.102 622.372   1
   1  -1  -4  437.32 391.286   1
   1  -1  -4 342.139 457.448   1
  -1   1   4 625.221 416.336   1
  -1   1   3509371.010259.30   1
   1  -1  -3519410.010336.20   1
  -1   1   2167694.0 3520.69   1
   1  -1  -2160491.0 3258.72   1
   1  -1  -2167773.0 3413.40   1
  -1   1   2170983.0 3450.48   1
   1  -1   1572274.011487.50   1
  -1   1  -1562796.011353.80   1
   1  -1   2183250.0 4297.35   1
  -1   1  -2169629.0 4006.17   1
  -1   1  -2167619.0 3478.26   1
   1  -1   2166579.0 3424.37   1
   1  -1   3180157.0 5522.18   1
  -1   1  -3181801.0 4350.93   1
  -1   1  -3180222.0 3826.33   1
   1  -1   3176768.0 3685.51   1
   1  -1   439819.50 1999.39   1
  -1   1  -436686.90 1594.60   1
  -1   1  -439833.50 1109.84   1
   1  -1   537249.50 2228.23   1
  -1   1  -540279.60 1821.85   1
   1  -1   635466.60 2072.97   1
  -1   1  -638548.00 1934.67   1
   1  -1   7 3961.50 1610.89   1
  -1   1  -7 2989.48 852.495   1
   1  -1   8114306.0 4298.21   1
  -1   1  -8112513.0 3740.79   1
   1  -1   923417.10 2170.96   1
  -1   1  -919289.90 1598.44   1
  -1   1 -10  326.03 392.015   1
  -1   1 -10 378.529 811.236   1
   1   0 -11 1229.31 1084.34   1
   1   0 -10 422.856  805.14   1
  -1   0   9 1907.52 1957.54   1
   1   0  -9 3567.66 1106.81   1
  -1   0   8373411.0 9981.30   1
   1   0  -8372162.0 9432.51   1
  -1   0   743789.30 2335.57   1
   1   0  -745445.30 1991.92   1
  -1   0   6 1157.20 815.837   1
   1   0  -6 2861.41  873.72   1
  -1   0   5202164.0 4005.09   1
   1   0  -5186313.0 3447.58   1
   1   0  -5190299.0 3102.58   1
  -1   0   4266784.0 5927.65   1
   1   0  -4263083.0 5694.80   1
   1   0  -4269010.0 5496.92   1
  -1   0   4268596.0 5451.61   1
  -1   0   3 3976.87 1107.54   1
   1   0  -3 4278.65 1033.78   1
   1   0  -3 3768.20 395.767   1
  -1   0   3 3865.94  322.83   1
  -1   0  -2  472.58 732.283   1
  -1   0  -2 -16.741 250.409   1
  -1   0  -2 8.82159 410.653   1
   1   0   2 619.338 325.125   1
   1   0   321239.60 1338.74   1
  -1   0  -320905.10 1288.69   1
  -1   0  -320102.10 780.856   1
   1   0   321236.30 718.944   1
   1   0   4145638.0 3597.92   1
  -1   0  -4139365.0 3438.60   1
  -1   0  -4139433.0 3137.96   1
   1   0   5 7770.21 1290.77   1
  -1   0  -5 6711.02 1323.31   1
   1   0   6128242.0 4303.92   1
  -1   0  -6114920.0 3629.35   1
  -1   0  -7 4630.36 648.747   1
  -1   0  -7 4395.95 1037.77   1
  -1   0  -8 7263.62 756.245   1
  -1   0  -8 7983.05 1242.12   1
  -1   0  -944794.30 1655.63   1
  -1   0  -943792.00 2264.83   1
  -1   0 -10 4623.04 1086.46   1
   1   1 -1211849.00 1506.02   1
  -1  -1  11 3844.47 3872.36   1
   1   1 -11 6329.91 1215.28   1
  -1  -1  10  340.36 987.126   1
   1   1 -10-692.655 731.241   1
  -1  -1   932079.80 2109.04   1
   1   1  -932151.10 1695.46   1
  -1  -1   8 7369.43 1781.49   1
   1   1  -8 4948.38 859.765   1
  -1  -1   7 8896.17 2270.03   1
   1   1  -7 6933.18 1729.15   1
  -1  -1   638597.00 3649.38   1
   1   1  -637586.10 1315.76   1
  -1  -1   5351404.0 6195.11   1
   1   1  -5339771.0 4948.22   1
  -1  -1   4 831.994 989.122   1
   1   1  -4 1343.52 818.872   1
   1   1  -4 590.821 427.447   1
  -1  -1   4  950.97 469.622   1
  -1  -1   3 360.348 913.859   1
   1   1  -3 819.777  801.95   1
   1   1  -3 561.493 430.629   1
  -1  -1   3-196.017 299.632   1
  -1  -1   293131.50 2357.89   1
   1   1  -284127.20 2190.43   1
   1   1  -291814.50 1948.05   1
  -1  -1   292808.90 1999.36   1
  -1  -1   023690.20 709.907   1
   1   1   023582.70 669.549   1
  -1  -1   024107.90 984.781   1
   1   1   023927.30 871.291   1
  -1  -1  -1 353.897 265.189   1
   1   1   1 278.016 260.125   1
  -1  -1  -1 815.584 484.189   1
   1   1   1 219.398 400.317   1
  -1  -1  -2 8133.11 764.596   1
  -1  -1  -2 8511.39  430.72   1
  -1  -1  -2 8218.63 868.697   1
   1   1   2 8197.24 573.207   1
  -1  -1  -3495411.0 7094.02   1
  -1  -1  -3508371.0 6770.49   1
  -1  -1  -3506295.0 7199.38   1
  -1  -1  -435950.00 1496.07   1
  -1  -1  -439231.80 2757.85   1
  -1  -1  -440062.30 1536.72   1
  -1  -1  -528208.70 1501.89   1
  -1  -1  -530680.80 1822.07   1
  -1  -1  -6117441.0 3344.86   1
  -1  -1  -6113511.0 3634.64   1
  -1  -1  -716926.80 989.994   1
  -1  -1  -716462.80 1587.44   1
  -1  -1  -835121.10 929.647   1
  -1  -1  -831527.60 1584.87   1
  -1  -1  -9 5943.98 1775.81   1
  -1  -1 -10 3639.56 1352.08   1
  -1  -2  12 5225.32 4109.62   1
   1   2 -12 6676.61 1371.70   1
  -1  -2  11 3563.30 2174.69   1
   1   2 -11 3287.82 1136.95   1
  -1  -2  10 7920.07 1825.05   1
   1   2 -10 5369.24 1307.87   1
  -1  -2   9 924.026 1168.60   1
   1   2  -9 593.975 628.597   1
  -1  -2   8362901.010170.20   1
   1   2  -8358748.0 9030.33   1
  -1  -2   7 1557.43 1764.27   1
   1   2  -7-906.322 909.722   1
  -1  -2   6 390.678 1431.39   1
   1   2  -6 357.111  485.75   1
  -1  -2   5110091.0 3311.91   1
   1   2  -5112707.0 2064.38   1
  -1  -2   497022.10 2607.79   1
   1   2  -4105640.0 2509.38   1
   1   2  -499717.60 1767.15   1
  -1  -2   4102963.0 1788.38   1
  -1  -2   3147845.0 3721.20   1
   1   2  -3157888.0 3815.55   1
   1   2  -3150472.0 3181.63   1
  -1  -2   3156128.0 3301.29   1
  -1  -2   2590674.011981.20   1
   1   2  -2608683.012260.20   1
  -1  -2   2595605.012268.10   1
   1   2  -2586465.011994.50   1
  -1  -2   1212636.0 4610.73   1
   1   2  -1204054.0 4249.49   1
  -1  -2   1204345.0 4659.11   1
   1   2  -1203065.0 4549.84   1
  -1  -2   017232.00 726.062   1
   1   2   017302.80 655.161   1
  -1  -2   017076.90 1435.79   1
   1   2   017814.60 950.718   1
  -1  -2  -158613.70 1344.61   1
   1   2   161293.70 1328.45   1
  -1  -2  -158923.00 1904.61   1
   1   2   159828.00 1615.25   1
  -1  -2  -2280798.0 3839.38   1
  -1  -2  -3200769.0 4232.40   1
  -1  -2  -3210394.0 4085.01   1
  -1  -2  -3205026.0 4528.44   1
  -1  -2  -4 222.611 285.688   1
  -1  -2  -4 25.7294 180.098   1
  -1  -2  -4-666.968 1131.46   1
  -1  -2  -542583.80 1737.18   1
  -1  -2  -544941.20 1398.43   1
  -1  -2  -542393.80 2074.10   1
  -1  -2  -6 1369.22 392.782   1
  -1  -2  -6 241.007 761.892   1
  -1  -2  -756953.50 2211.13   1
  -1  -2  -756887.20 2992.17   1
  -1  -2  -8 4369.74 1622.27   1
  -1  -2  -921044.50 1916.60   1
  -1  -3  12 1202.28 1755.23   1
   1   3 -12 463.119 771.811   1
  -1  -3  11-713.034 1196.14   1
   1   3 -11 1407.13 975.618   1
  -1  -3  1030571.10 2501.04   1
   1   3 -1034775.50 1447.55   1
  -1  -3   9 6007.63 1618.86   1
   1   3  -9 6036.61 927.038   1
  -1  -3   8 1943.12 1160.43   1
   1   3  -8 1944.32 752.185   1
  -1  -3   7146862.0 5980.83   1
   1   3  -7144093.0 5043.75   1
  -1  -3   621877.70 2543.34   1
   1   3  -621857.50 1789.39   1
  -1  -3   525096.40 2184.29   1
   1   3  -525846.40 1174.65   1
  -1  -3   4 617.188 1219.60   1
   1   3  -4 46.5905 470.535   1
  -1  -3   328379.40 1790.90   1
   1   3  -331008.00 1524.07   1
   1   3  -331378.40 1679.01   1
   1   3  -328353.40 844.618   1
  -1  -3   2651691.013307.50   1
   1   3  -2663409.013382.80   1
  -1  -3   2665967.0 5365.68   1
   1   3  -2677087.0 4639.94   1
  -1  -3   1272678.0 5866.59   1
   1   3  -1253136.0 5298.35   1
  -1  -3   1256911.0 6030.43   1
   1   3  -1262511.0 5803.62   1
  -1  -3   015786.70 933.503   1
   1   3   015273.50 623.639   1
  -1  -3   015242.70 1556.40   1
   1   3   014608.60 999.168   1
  -1  -3  -1 444.858 532.902   1
   1   3   1 3.36704 143.068   1
  -1  -3  -1-404.444 1017.35   1
  -1  -3  -256947.40 1334.78   1
   1   3   254271.30 1140.81   1
  -1  -3  -252953.70 2245.85   1
  -1  -3  -3244447.0 8432.73   1
  -1  -3  -3239055.0 8100.32   1
  -1  -3  -3230388.0 8273.72   1
  -1  -3  -418763.10 2671.68   1
  -1  -3  -420017.20 515.652   1
  -1  -3  -418815.00 3293.21   1
  -1  -3  -525296.50 1806.82   1
  -1  -3  -525798.50 1707.24   1
  -1  -3  -525851.30 2264.35   1
  -1  -3  -631091.60 1049.62   1
  -1  -3  -635643.40 2215.39   1
  -1  -3  -718456.60 2082.69   1
  -1  -3  -8 4757.50 1640.05   1
  -1  -3  -9 6866.81 1543.08   1
  -1  -4  12 2933.44 1797.36   1
   1   4 -12 2246.58 1158.72   1
  -1  -4  11 1075.18 1382.75   1
   1   4 -11 348.451  660.40   1
  -1  -4  10 3816.77 1493.67   1
   1   4 -10 4345.45 922.408   1
  -1  -4   954552.30 3358.69   1
   1   4  -950410.60 2015.22   1
  -1  -4   836828.10 3571.70   1
   1   4  -833608.90 2362.17   1
  -1  -4   731712.80 2697.01   1
   1   4  -730318.80 1377.60   1
  -1  -4   677146.10 4201.04   1
   1   4  -677250.60 3094.63   1
   1   4  -5204986.0 7123.78   1
  -1  -4   428926.50 2142.03   1
   1   4  -431241.00 1143.77   1
  -1  -4   3 4872.45 1693.11   1
   1   4  -3 3905.41 640.941   1
  -1  -4   228826.50 1431.60   1
   1   4  -230594.70 1336.07   1
  -1  -4   228080.70 2368.50   1
  -1  -4   169073.00 1989.00   1
   1   4  -163657.40 1520.46   1
  -1  -4   161501.80 2847.95   1
  -1  -4   0 3101.34 865.916   1
   1   4   0 3185.90 456.806   1
  -1  -4   0 1579.53 1221.49   1
  -1  -4  -155233.90 1557.32   1
   1   4   154133.20 1221.67   1
  -1  -4  -153003.20 2237.32   1
   1   4   261473.40 2137.67   1
  -1  -4  -258796.90 3453.38   1
  -1  -4  -325092.80 1050.59   1
  -1  -4  -327615.10 2377.31   1
  -1  -4  -418975.90 1337.16   1
  -1  -4  -418502.60 1910.61   1
  -1  -4  -581266.70 3409.07   1
  -1  -4  -610587.20 1831.05   1
  -1  -4  -7 3460.20 1753.19   1
  -1  -4  -8 4983.77 1909.15   1
  -1  -5  12 3270.83 1997.29   1
   1   5 -12 2357.21 955.031   1
  -1  -5  11 619.427 1431.03   1
   1   5 -11 181.492 619.976   1
  -1  -5  1014294.50 2960.82   1
   1   5 -10 9719.46 1944.78   1
  -1  -5   9 2250.38 1514.13   1
   1   5  -9 1453.76 564.889   1
  -1  -5   8109401.0 6161.52   1
   1   5  -8102704.0 4928.12   1
  -1  -5   6 7818.49 2240.18   1
   1   5  -6 8869.37 1416.20   1
  -1  -5   534815.10 5467.22   1
   1   5  -517091.20 2693.40   1
  -1  -5   4 3307.90 1660.26   1
   1   5  -4 6988.10 943.171   1
  -1  -5   3-122.946 1072.07   1
  -1  -5   3  848.87 1303.80   1
  -1  -5   2172559.0 4357.07   1
  -1  -5   2176007.0 4857.37   1
  -1  -5   1 4929.21 1229.09   1
   1   5  -1 5374.80 664.239   1
  -1  -5   1 1921.63 2038.54   1
  -1  -5   032986.50 2343.40   1
   1   5   030041.90 1254.82   1
  -1  -5   030026.50 2707.90   1
  -1  -5  -1 851.581 616.591   1
   1   5   1 1130.01  291.35   1
   1   5   259464.10 1634.54   1
  -1  -5  -262434.90 3123.73   1
  -1  -5  -335506.20 3010.80   1
  -1  -5  -424081.50 2422.82   1
  -1  -5  -5 100.338 1229.45   1
  -1  -5  -625780.50 2611.02   1
  -1  -5  -710726.20 1840.58   1
  -1  -6  11 1180.24 1392.09   1
   1   6 -11 1281.79 810.239   1
  -1  -6  10 6729.37 3088.99   1
   1   6 -10 4994.46 977.374   1
  -1  -6   928560.00 3182.00   1
   1   6  -922869.00 1360.70   1
  -1  -6   8148539.0 5958.70   1
   1   6  -8149311.0 4613.22   1
  -1  -6   7 811.614 1433.20   1
   1   6  -7-108.221 460.212   1
  -1  -6   6313422.0 9410.98   1
   1   6  -6285657.0 7254.65   1
  -1  -6   537247.90 2476.32   1
   1   6  -538709.40 1572.55   1
  -1  -6   4 12.5261 1992.10   1
   1   6  -4-224.968 532.925   1
  -1  -6   3 -499.25 3689.74   1
  -1  -6   3 2538.32 2445.77   1
  -1  -6   222543.30 4461.42   1
  -1  -6   225372.30 6362.13   1
  -1  -6   1115430.0 4650.00   1
  -1  -6   1115352.0 6023.42   1
  -1  -6   044701.70 1999.27   1
   1   6   047535.50 1547.40   1
  -1  -6   043540.60 3001.44   1
  -1  -6  -1120374.0 3389.19   1
   1   6   1119533.0 3015.95   1
  -1  -6  -1125584.0 4720.82   1
  -1  -6  -2-418.839 1180.37   1
  -1  -6  -343346.80 2964.02   1
  -1  -6  -416862.50 2583.02   1
  -1  -6  -551668.20 3307.20   1
  -1  -6  -6 377.098 1284.21   1
  -1  -7  1115384.60 2931.44   1
   1   7 -1111323.50 1112.03   1
  -1  -7  1028423.40 3544.12   1
   1   7 -1032066.70 2156.43   1
  -1  -7   911777.60 2465.48   1
   1   7  -912984.40 1019.38   1
  -1  -7   8 2125.25 2122.35   1
   1   7  -8 341.152 529.294   1
  -1  -7   736951.80 3508.60   1
   1   7  -733516.20 1609.53   1
  -1  -7   611681.90 2361.13   1
   1   7  -611288.10 931.579   1
  -1  -7   517219.30 3033.83   1
   1   7  -514877.30 1361.66   1
  -1  -7   4 4943.54 2045.48   1
   1   7  -4 3522.85 686.316   1
  -1  -7   3 1246.64 1338.89   1
  -1  -7   3 1872.88 1353.51   1
  -1  -7   231957.00 2907.80   1
  -1  -7   228193.80 3111.92   1
  -1  -7   1196374.0 5732.73   1
  -1  -7   1195507.0 6636.44   1
  -1  -7   047981.70 2767.73   1
  -1  -7   045560.30 3425.71   1
  -1  -7  -1113653.0 3615.19   1
  -1  -7  -1100539.0 4473.88   1
  -1  -7  -232143.40 3095.91   1
  -1  -7  -3 2150.80 1604.41   1
  -1  -7  -411077.80 2231.00   1
  -1  -7  -5 3782.33 1936.15   1
  -1  -8  1047098.60 3464.26   1
   1   8 -1051059.00 2600.40   1
  -1  -8   9 1526.94 1605.23   1
   1   8  -9 1415.01  766.19   1
  -1  -8   8 805.031 1714.80   1
   1   8  -8 2710.86 988.898   1
  -1  -8   726752.70 3245.56   1
   1   8  -727086.20 1162.68   1
  -1  -8   621826.80 3387.72   1
   1   8  -621952.20 1294.09   1
  -1  -8   525979.40 3612.94   1
   1   8  -521917.80 1504.28   1
  -1  -8   4 7345.13 2571.23   1
   1   8  -4 5305.48 821.446   1
  -1  -8   316801.60 2560.75   1
  -1  -8   317833.60 3904.83   1
  -1  -8   210816.60 2368.89   1
  -1  -8   2 3809.21 4322.89   1
  -1  -8   1 5695.06 1222.69   1
  -1  -8   1 5774.14 2535.67   1
  -1  -8   086970.70 3697.71   1
  -1  -8   079453.10 4881.88   1
  -1  -8  -117119.90 2939.33   1
  -1  -8  -214309.30 2506.20   1
  -1  -8  -3 1336.31 1727.70   1
  -1  -8  -4 3689.21 1425.56   1
  -1  -9   931328.40 3666.80   1
   1   9  -928729.90 1895.04   1
  -1  -9   8 3028.49 2241.49   1
   1   9  -8 5412.16 1238.97   1
  -1  -9   7 8470.96 3049.14   1
   1   9  -7 2376.69 896.842   1
  -1  -9   6 1383.53 1298.90   1
   1   9  -6 274.444  618.33   1
  -1  -9   564024.10 2759.30   1
   1   9  -564283.90 1912.29   1
  -1  -9   417502.50 2075.96   1
   1   9  -415938.20 1331.98   1
  -1  -9   397732.60 3159.88   1
  -1  -9   392834.70 4802.93   1
  -1  -9   213569.60 1557.62   1
  -1  -9   2 9531.37 7945.05   1
  -1  -9   1 4687.13 4829.36   1
  -1  -9   0 2464.70 2111.00   1
  -1  -9  -1 834.355 1723.46   1
  -1  -9  -221760.40 3431.31   1
  -1  -9  -3 3184.73 1964.42   1
  -1 -10   8 2589.40 1471.69   1
   1  10  -8 954.463 615.075   1
  -1 -10   7 2880.20 2428.50   1
   1  10  -7 1474.53 832.562   1
  -1 -10   613858.80 2322.69   1
   1  10  -614271.20 1317.65   1
  -1 -10   5 8045.34 2544.22   1
   1  10  -5 5456.48 1135.51   1
  -1 -10   4-484.787 1069.46   1
   1  10  -4 232.804 612.526   1
  -1 -10   3 1118.43  981.73   1
  -1 -10   3-618.293 1723.77   1
  -1 -10   2 4214.03 2365.97   1
  -1 -10   1 2476.84 3233.00   1
  -1 -10   0 4067.74 2152.65   1
  -1 -10  -1 1275.20 1372.26   1
  -1 -11   5 2719.79 1915.94   1
   1  11  -5  442.99 557.792   1
   1  11  -420583.70 1463.24   1
  -1 -11   371967.00 5007.75   1
  -1 -11   2 1869.11 1408.01   1
   2 -11  -226895.20 2711.65   1
   2 -11  -1 165.222 685.077   1
   2 -11   0 3355.61 2420.47   1
  -2  11  -129049.90 1857.87   1
   2 -11   214718.80 1979.83   1
  -2  11  -214685.00 1299.85   1
   2 -11   3 3772.98 3088.23   1
  -2  11  -3 7045.54 976.772   1
   2 -11   4 3040.12 2729.29   1
  -2  11  -4 4842.73  824.33   1
   2 -11   5 187.693 639.218   1
  -2  11  -5 184.493 458.857   1
   2 -11   6 5712.08 4711.70   1
  -2  11  -6 9589.94 988.063   1
   2 -10  -415404.50 2624.13   1
   2 -10  -351569.70 3877.40   1
   2 -10  -245502.30 4087.91   1
   2 -10  -1 6997.50 7846.14   1
   2 -10   0 412.002 1052.13   1
   2 -10   115801.60 1844.88   1
   2 -10   118264.00 2486.22   1
   2 -10   243012.90 2242.62   1
  -2  10  -248666.50 1475.25   1
   2 -10   3 2722.77 1888.67   1
  -2  10  -3 5702.33 1219.62   1
   2 -10   4 3375.67 2699.65   1
  -2  10  -4 4929.10 1144.26   1
   2 -10   521150.70 6464.49   1
  -2  10  -527096.80 1842.63   1
   2 -10   6 406.602 983.373   1
  -2  10  -6 172.434 554.555   1
   2 -10   7 4502.03 3818.57   1
  -2  10  -7 5970.56 933.898   1
   2 -10   836724.20 3375.28   1
  -2  10  -839247.60 2002.76   1
   2  -9  -6 2706.61 1222.71   1
   2  -9  -5 4839.83 1983.05   1
   2  -9  -411722.60 2911.73   1
   2  -9  -316498.70 2190.00   1
   2  -9  -2 3262.97 1651.87   1
   2  -9  -1 1350.55 1467.73   1
   2  -9   0113765.0 3845.61   1
   2  -9   0104083.0 5149.30   1
   2  -9   122822.00 2319.52   1
   2  -9   128998.40 3606.82   1
   2  -9   2-63.1596 894.037   1
  -2   9  -2 596.404 451.072   1
   2  -9   354460.20 3143.92   1
  -2   9  -355605.10 2087.80   1
   2  -9   431898.40 2676.13   1
  -2   9  -433953.60 1662.59   1
   2  -9   5-1004.37 1407.92   1
  -2   9  -5 149.284 435.682   1
   2  -9   627268.80 2696.65   1
  -2   9  -631833.80 1579.61   1
   2  -9   7 650.515 1453.56   1
  -2   9  -7 314.047 529.267   1
   2  -9   817129.40 6337.29   1
  -2   9  -820373.70 1492.54   1
   2  -8  -7 6477.83 1934.15   1
   2  -8  -6 6568.17 1849.26   1
   2  -8  -5 1244.59 1226.05   1
   2  -8  -4 7973.18 1711.85   1
   2  -8  -324518.40 2364.42   1
   2  -8  -216597.90 2444.98   1
  -2   8   138220.60 736.607   1
   2  -8  -136424.50 2711.34   1
   2  -8   0127018.0 3920.62   1
   2  -8   0119889.0 4792.16   1
   2  -8   1257706.0 7308.80   1
   2  -8   1238893.0 7726.47   1
   2  -8   2 5448.63 3290.99   1
  -2   8  -2 6738.87 810.003   1
   2  -8   3 9371.24 6285.25   1
  -2   8  -312591.10 871.141   1
   2  -8   435191.90 2818.90   1
  -2   8  -437197.70 1190.29   1
   2  -8   548636.70 3765.20   1
  -2   8  -543732.10 1809.77   1
   2  -8   6  840.84 2305.35   1
  -2   8  -6  948.86 457.377   1
   2  -8   731784.50 9002.13   1
  -2   8  -733857.20 1542.78   1
   2  -8   8 2469.58 1766.58   1
  -2   8  -8 4322.56 1034.99   1
   2  -8   9-85.5871 1063.53   1
   2  -7  -8 4014.00 1805.10   1
   2  -7  -7 1346.17 1470.07   1
   2  -7  -6 252.864 859.435   1
   2  -7  -5 9507.47 1690.50   1
   2  -7  -433350.90 2754.25   1
   2  -7  -3 3712.70 1762.36   1
  -2   7   221989.80 1497.54   1
   2  -7  -222975.70 2741.91   1
  -2   7   1 794.418  442.77   1
   2  -7  -1 2151.32 1879.38   1
   2  -7   0 960.787  698.84   1
   2  -7   0 1708.06 1237.47   1
   2  -7   1 8062.00 3502.10   1
   2  -7   110244.30 3006.03   1
   2  -7   275770.20 3791.87   1
  -2   7  -277946.30 2931.67   1
   2  -7   363991.40 3401.21   1
  -2   7  -360365.00 2035.53   1
   2  -7   4122201.0 4696.16   1
  -2   7  -4121937.0 3339.79   1
   2  -7   5-81.7005 1399.85   1
  -2   7  -5 509.796 417.124   1
   2  -7   6 263.798 1980.89   1
  -2   7  -6 567.413 642.798   1
   2  -7   722618.90 5831.40   1
  -2   7  -726897.30 1567.50   1
   2  -7   8154470.0 5048.33   1
  -2   7  -8153946.0 4697.15   1
   2  -7   9 605.987 1049.15   1
  -2   7  -9 617.124 765.673   1
   2  -7  10 6732.67 5420.01   1
  -2   7 -1010076.50 1268.31   1
   2  -6  -9 1119.98 891.835   1
   2  -6  -8 1732.20 1491.60   1
   2  -6  -720129.30 1740.17   1
   2  -6  -6115426.0 4968.49   1
   2  -6  -5 1387.15 1628.58   1
   2  -6  -439482.80 2053.92   1
   2  -6  -3 8943.03 1778.98   1
  -2   6   295750.10 3294.18   1
  -2   6   296022.10 3159.99   1
   2  -6  -2104888.0 7615.29   1
   2  -6  -140960.80 1893.13   1
  -2   6   133504.90 1551.28   1
   2  -6  -132331.70 4204.99   1
   2  -6   0153798.0 5948.09   1
  -2   6   0135344.0 5003.63   1
   2  -6   0139985.0 5848.86   1
   2  -6   1267048.0 9742.67   1
  -2   6  -1275087.0 9438.48   1
   2  -6   210795.40 7102.52   1
  -2   6  -214559.20 1312.84   1
  -2   6  -3112273.0 3913.29   1
   2  -6   414473.10 3108.06   1
  -2   6  -412366.00 1864.98   1
   2  -6   5144886.0 5201.09   1
  -2   6  -5156622.0 4203.35   1
   2  -6   6 5321.10 3430.49   1
  -2   6  -6 5920.02 712.569   1
   2  -6   7 8259.12 5021.25   1
  -2   6  -710811.00 1084.47   1
   2  -6   8 1439.82 1215.04   1
  -2   6  -8 555.105 601.755   1
   2  -6   9 20.5655 1107.43   1
  -2   6  -9 1337.11 921.325   1
   2  -6  1019307.90 3852.67   1
  -2   6 -1017270.80 1470.56   1
   2  -5  -9 1448.65 1283.85   1
   2  -5  -8 1997.60 1098.99   1
   2  -5  -781600.80 3727.78   1
   2  -5  -652558.50 3151.62   1
   2  -5  -5 504.044 1254.80   1
   2  -5  -4 233.312 2412.92   1
   2  -5  -326674.40 3090.29   1
  -2   5   213744.80 678.898   1
  -2   5   215474.60 622.989   1
   2  -5  -214939.80 1586.47   1
  -2   5   1159174.0 3577.95   1
  -2   5   1168854.0 3321.59   1
   2  -5  -1155132.0 4039.19   1
  -2   5   1152360.0 3377.69   1
   2  -5   0 3866.67 1704.82   1
  -2   5   0 2488.17 812.726   1
   2  -5   0 3063.87 1617.01   1
  -2   5   0 3099.04 601.144   1
   2  -5   1884942.060504.00   1
   2  -5   283742.50 3135.83   1
  -2   5  -285161.50 2023.61   1
   2  -5   390212.30 4072.78   1
  -2   5  -382794.80 3066.07   1
   2  -5   457892.30 8621.22   1
  -2   5  -451144.50 2065.63   1
   2  -5   5109674.0 5965.43   1
  -2   5  -5110934.0 3333.46   1
   2  -5   610973.90 2657.40   1
  -2   5  -611674.20 1153.50   1
   2  -5   7 541.484 945.833   1
  -2   5  -7 1088.43 538.186   1
   2  -5   885464.30 3766.84   1
  -2   5  -876415.60 1976.11   1
   2  -5   9 1777.47 1559.61   1
  -2   5  -9 3619.49 1139.48   1
   2  -5  1020458.70 2185.08   1
  -2   5 -1026520.60 1942.34   1
   2  -4 -10 2726.23 1095.25   1
   2  -4  -9-283.071 837.682   1
   2  -4  -817359.60 1877.10   1
   2  -4  -7 2157.86 1372.12   1
   2  -4  -618678.90 1914.09   1
   2  -4  -5-451.811 2241.07   1
   2  -4  -4111040.0 4274.53   1
  -2   4   3 1023.81 279.569   1
  -2   4   3 1242.65 180.535   1
   2  -4  -3 1629.20 973.978   1
  -2   4   3 1314.50 356.372   1
  -2   4   258288.80 1262.55   1
  -2   4   258199.50 937.143   1
   2  -4  -258504.90 1735.76   1
  -2   4   255217.20 1259.97   1
  -2   4   1 7676.13 790.861   1
  -2   4   1 8310.16 384.877   1
   2  -4  -1 7172.35 1147.99   1
  -2   4   1 6975.22 708.129   1
  -2   4   0387526.0 5877.76   1
   2  -4   0391939.0 6068.95   1
  -2   4   0392247.0 5933.21   1
   2  -4   1650585.0 9708.79   1
  -2   4  -1607657.0 9026.89   1
  -2   4  -1612654.0 8872.90   1
   2  -4   2  450.54 648.425   1
  -2   4  -2 338.669 530.636   1
   2  -4   2 366.605 425.291   1
   2  -4   3104927.0 3558.88   1
  -2   4  -398743.50 2255.55   1
   2  -4   4 5139.38 2443.75   1
  -2   4  -4 4447.91 709.376   1
   2  -4   554224.40 3082.08   1
  -2   4  -553147.50 2087.49   1
   2  -4   6 4851.73 2147.90   1
  -2   4  -6 4293.18 748.795   1
   2  -4   7-216.788 1165.83   1
  -2   4  -7 1375.95  763.35   1
   2  -4   837720.00 5612.95   1
  -2   4  -835117.00 1831.59   1
   2  -4   9 1165.05 1406.26   1
  -2   4  -9 1291.10 1052.07   1
   2  -4  10 2844.67 1481.12   1
  -2   4 -10 2873.63 1044.91   1
   2  -3 -11 314.988 815.021   1
   2  -3 -1019212.00 1960.96   1
   2  -3  -942374.90 1818.00   1
   2  -3  -870250.50 3116.37   1
  -2   3   7416480.010225.80   1
   2  -3  -7433314.0 4105.34   1
  -2   3   622150.30 1132.61   1
   2  -3  -622352.80 883.587   1
   2  -3  -623158.20 1790.67   1
  -2   3   5 9790.40 932.095   1
   2  -3  -5 9984.21 747.568   1
   2  -3  -510642.60 1200.03   1
  -2   3   4  46.766 213.596   1
   2  -3  -4 139.402 102.704   1
   2  -3  -4 359.701 517.994   1
  -2   3   4 129.607 241.415   1
  -2   3   3123067.0 1835.82   1
   2  -3  -3123503.0 1706.88   1
   2  -3  -3115850.0 2087.19   1
  -2   3   3118819.0 1975.09   1
  -2   3   230120.00 759.704   1
   2  -3  -229504.80 1113.68   1
  -2   3   228365.90 853.135   1
  -2   3   1170543.0 3723.41   1
  -2   3   1163343.0 3312.52   1
   2  -3  -1158591.0 3570.22   1
  -2   3   1161064.0 3459.93   1
  -2   3   029372.30 2354.98   1
  -2   3   027927.60 2185.32   1
  -2   3   028314.00 838.418   1
   2  -3   1133553.0 3607.53   1
  -2   3  -1123666.0 3321.80   1
  -2   3  -1128699.0 2695.10   1
   2  -3   1125554.0 2634.85   1
   2  -3   2 681.958 572.701   1
  -2   3  -2 973.233 978.856   1
  -2   3  -2 945.036  303.28   1
   2  -3   2 1459.89  370.16   1
   2  -3   312467.40 3056.21   1
  -2   3  -3 9429.21 717.627   1
   2  -3   4 3441.68 1435.27   1
  -2   3  -4 3096.84 642.247   1
   2  -3   599755.30 5641.60   1
  -2   3  -593767.50 3401.20   1
   2  -3   6 798.967 1087.04   1
  -2   3  -6 1104.27 540.526   1
   2  -3   744953.20 5217.74   1
  -2   3  -744993.90 2462.92   1
   2  -3   819344.80 5197.68   1
  -2   3  -820899.30 1864.98   1
   2  -3   9-411.245 936.768   1
  -2   3  -9 936.738 779.071   1
  -2   3 -1027052.20 1645.10   1
  -2   3 -1027537.50 2166.13   1
   2  -2 -1111832.90 1298.47   1
   2  -2 -1016104.70 1450.44   1
  -2   2   938696.60 2713.58   1
   2  -2  -938666.00 2204.31   1
  -2   2   8139836.0 6703.18   1
   2  -2  -8150346.0 7197.63   1
  -2   2   747426.40 1909.96   1
   2  -2  -743823.60 1558.43   1
   2  -2  -747419.30 1983.84   1
  -2   2   622935.80 1995.52   1
   2  -2  -621926.90 1650.74   1
   2  -2  -622008.70 3370.51   1
  -2   2   5 386.149 655.917   1
   2  -2  -5 534.526 413.249   1
   2  -2  -5 692.843 449.707   1
  -2   2   491346.30 1852.16   1
   2  -2  -483961.30 1413.93   1
   2  -2  -487877.90 1683.11   1
  -2   2   489675.80 1523.71   1
  -2   2   358090.60 1484.11   1
   2  -2  -355942.60 1265.64   1
   2  -2  -356262.50 1393.37   1
  -2   2   358482.20 1344.58   1
  -2   2   215277.30 616.004   1
   2  -2  -215776.90 483.869   1
   2  -2  -215401.50 588.686   1
  -2   2   214651.50 502.998   1
  -2   2   198475.30 2090.67   1
   2  -2  -196717.00 2021.99   1
  -2   2   195769.90 2042.27   1
  -2   2   01049789. 4196.63   1
  -2   2  -1466846.0 9696.55   1
  -2   2  -1467668.0 9293.20   1
   2  -2   2 946.275 969.177   1
  -2   2  -2 667.257 927.403   1
  -2   2  -2 124.469 337.703   1
   2  -2   2 151.877 274.774   1
   2  -2   391680.10 2958.45   1
  -2   2  -388973.30 1712.15   1
   2  -2   413055.00 2687.78   1
  -2   2  -410559.50 802.855   1
   2  -2   581517.10 3791.38   1
  -2   2  -584925.50 3166.41   1
   2  -2   616766.90 1789.23   1
  -2   2  -621397.10 1074.88   1
   2  -2   7 3543.67 1421.95   1
  -2   2  -7 2583.00 763.855   1
  -2   2  -8 888.202 598.705   1
  -2   2  -8 2172.56 955.662   1
  -2   2  -9 1839.23  830.16   1
  -2   2  -9 682.225 855.722   1
  -2   2 -10 3148.29 873.609   1
  -2   2 -10 3160.44 1464.30   1
   2  -1 -11 9839.63 1453.22   1
  -2   1  1011940.40 5798.52   1
   2  -1 -1016618.20 1568.31   1
  -2   1   962939.60 2862.53   1
   2  -1  -963842.10 2680.95   1
  -2   1   8309059.0 8336.23   1
   2  -1  -8316215.0 8086.62   1
   2  -1  -7445615.0 5587.60   1
  -2   1   639124.40 2031.75   1
   2  -1  -636935.00 1735.14   1
   2  -1  -641558.30 1781.74   1
  -2   1   5309758.0 4926.73   1
   2  -1  -5303458.0 4537.75   1
  -2   1   416670.50 1206.47   1
   2  -1  -417640.90 813.182   1
   2  -1  -416178.80 671.419   1
  -2   1   415874.70 579.346   1
  -2   1   3 1483.56 756.154   1
   2  -1  -3 754.168 621.259   1
   2  -1  -3 1476.00 389.527   1
  -2   1   3 879.804 264.252   1
  -2   1   2219422.0 4524.97   1
   2  -1  -2215741.0 4375.20   1
  -2   1   2224800.0 4420.03   1
  -2   1  -287837.40 2854.89   1
  -2   1  -281519.60 1893.06   1
  -2   1  -279961.50 1919.81   1
   2  -1   280291.10 1832.52   1
  -2   1  -3 8430.97 1169.80   1
  -2   1  -310246.70 667.782   1
  -2   1  -310605.80 735.783   1
  -2   1  -4145273.0 3139.98   1
  -2   1  -4139650.0 3204.89   1
  -2   1  -518142.00 3449.38   1
  -2   1  -517468.80 2710.58   1
  -2   1  -6 248.673 466.354   1
  -2   1  -6-7.39688 526.706   1
  -2   1  -7138866.0 4257.38   1
  -2   1  -7137646.0 4472.71   1
  -2   1  -826444.90 969.456   1
  -2   1  -825740.50 1597.32   1
  -2   1  -9 323.852 410.356   1
  -2   1  -9  920.63 869.262   1
  -2   1 -10 1251.40  513.21   1
  -2   1 -10 3856.45 1533.13   1
   2   0 -1282888.10 3635.37   1
  -2   0  11 2088.71 1762.97   1
   2   0 -11 5383.71 1272.96   1
  -2   0  10 81.7067 898.731   1
   2   0 -10 1092.50 1193.54   1
  -2   0   9 1526.36 941.946   1
   2   0  -9 3070.80 1117.60   1
  -2   0   8 9737.33 1735.10   1
   2   0  -8 8721.22 985.974   1
  -2   0   720230.80 1861.77   1
   2   0  -723333.00 2561.94   1
  -2   0   6 417.949 897.859   1
   2   0  -6 -90.309 422.125   1
  -2   0   518050.00 1437.55   1
   2   0  -517124.50 907.907   1
   2   0  -518514.70 725.203   1
  -2   0   517859.30 595.507   1
  -2   0   4 8869.33 1323.98   1
   2   0  -4 8080.74 865.841   1
   2   0  -4 9119.05 532.566   1
  -2   0   4 8252.21 489.639   1
  -2   0   3 2933.86 902.201   1
   2   0  -3 4298.72 707.741   1
   2   0  -3 3771.91 340.955   1
  -2   0   3 3891.09 324.348   1
  -2   0   1114078.0 2469.21   1
   2   0  -1119178.0 2541.92   1
  -2   0   1114946.0 2621.35   1
   2   0  -1112709.0 2431.50   1
  -2   0  -1 270.882 326.906   1
   2   0   1 1009.29 263.026   1
  -2   0  -1 621.064 481.798   1
   2   0   1 819.767 509.147   1
  -2   0  -217557.90 1456.47   1
  -2   0  -216728.60 608.922   1
  -2   0  -215923.30 920.615   1
   2   0   217115.30 683.504   1
  -2   0  -3 4787.24 1798.35   1
  -2   0  -3 4107.27 490.955   1
  -2   0  -3 4636.75 935.898   1
  -2   0  -4 3523.97 647.807   1
  -2   0  -4 4349.74 1145.58   1
  -2   0  -5 351.563 438.357   1
  -2   0  -5 341.518 606.992   1
  -2   0  -6 630.661 384.113   1
  -2   0  -6-22.2075 624.806   1
  -2   0  -762274.40 2107.86   1
  -2   0  -763976.90 2576.93   1
  -2   0  -868905.30 1448.04   1
  -2   0  -878651.60 2293.97   1
  -2   0  -914409.50 1487.65   1
  -2  -1  1214164.70 4268.50   1
   2   1 -1217074.70 1476.41   1
  -2  -1  11 7466.82 2207.61   1
   2   1 -11 8741.90 1433.02   1
  -2  -1  10 3488.12 1517.80   1
   2   1 -10 5016.31 1046.43   1
  -2  -1   987175.90 4944.32   1
   2   1  -985985.90 4217.56   1
  -2  -1   8118100.0 4593.90   1
   2   1  -8111405.0 3414.44   1
  -2  -1   7 9252.98 2218.53   1
   2   1  -715896.00 2957.50   1
  -2  -1   6120726.0 3627.07   1
   2   1  -6132121.0 2919.14   1
  -2  -1   52129917.44430.60   1
  -2  -1   4 1704.51 1362.74   1
   2   1  -4 1157.21 928.961   1
   2   1  -4 1888.17 478.172   1
  -2  -1   4 1171.95 335.816   1
  -2  -1   339050.40 1505.97   1
   2   1  -337463.30 1360.89   1
   2   1  -342660.00 2031.69   1
   2   1  -339771.20 1041.44   1
  -2  -1   2196820.0 4286.55   1
   2   1  -2206892.0 4371.25   1
  -2  -1   2200160.0 5935.00   1
   2   1  -2199238.0 4472.02   1
  -2  -1   1244041.0 5059.07   1
   2   1  -1241338.0 4931.54   1
  -2  -1   1234115.0 5081.93   1
   2   1  -1233579.0 4949.90   1
  -2  -1   0 6347.49 469.092   1
   2   1   0 7002.79 468.401   1
  -2  -1   0 7353.96 858.442   1
   2   1   0 6706.77 663.184   1
   2   1   1560140.011022.70   1
  -2  -1  -1568429.011486.80   1
   2   1   1556182.011098.20   1
  -2  -1  -2110762.0 1800.05   1
   2   1   2119537.0 1866.95   1
  -2  -1  -2113303.0 2362.49   1
  -2  -1  -3 7667.31 2930.84   1
  -2  -1  -3 6079.20 535.346   1
  -2  -1  -3 6436.84 1144.53   1
  -2  -1  -4114640.0 4734.27   1
  -2  -1  -4115070.0 4687.62   1
  -2  -1  -5104482.0 3058.74   1
  -2  -1  -5106561.0 3509.05   1
  -2  -1  -6 4193.94 597.851   1
  -2  -1  -6 5216.97  972.97   1
  -2  -1  -7 3068.34 458.666   1
  -2  -1  -7 3709.46 1055.66   1
  -2  -1  -817672.40 1629.02   1
  -2  -1  -980132.50 4290.33   1
  -2  -2  1210439.30 2418.24   1
   2   2 -12 8806.70 1117.84   1
  -2  -2  1111431.40 1923.11   1
   2   2 -1114011.00 1376.86   1
  -2  -2  10 947.897 1225.18   1
   2   2 -10 2685.11 1071.34   1
  -2  -2   919400.60 2311.25   1
   2   2  -915944.70 1102.01   1
  -2  -2   8 2767.16 1869.27   1
   2   2  -8 2565.07 763.829   1
  -2  -2   7 8370.92 2319.16   1
   2   2  -714938.90 2748.03   1
  -2  -2   688100.10 3300.07   1
   2   2  -690691.20 2208.88   1
  -2  -2   5 2264.95 1213.06   1
   2   2  -5 1618.39 618.889   1
  -2  -2   415037.80 1764.75   1
   2   2  -417189.50 1700.04   1
   2   2  -416600.30 705.137   1
  -2  -2   321869.40 1502.39   1
   2   2  -322223.20 1160.73   1
   2   2  -320606.10 1353.51   1
   2   2  -320618.80 821.502   1
  -2  -2   218946.90 1399.66   1
   2   2  -219575.90 1012.09   1
  -2  -2   216729.30 1853.37   1
   2   2  -217518.30 1176.57   1
  -2  -2   113131.40 943.063   1
   2   2  -113480.20 683.727   1
  -2  -2   114097.00 1443.19   1
   2   2  -113945.90 981.239   1
  -2  -2   0 1132.37 588.041   1
   2   2   0  929.74 390.001   1
  -2  -2   0 1080.72 992.628   1
   2   2   0 1614.84 616.905   1
  -2  -2  -1391588.0 5431.76   1
   2   2   1395510.0 5369.30   1
  -2  -2  -1393465.0 6074.08   1
  -2  -2  -2399855.0 7679.74   1
   2   2   2386931.0 7348.44   1
  -2  -2  -2405837.0 8268.23   1
  -2  -2  -327149.40 1397.08   1
  -2  -2  -329312.40 1533.65   1
  -2  -2  -327626.30 1885.60   1
  -2  -2  -414982.50 2237.93   1
  -2  -2  -417795.50 2533.36   1
  -2  -2  -419026.50 2892.64   1
  -2  -2  -540290.40 884.801   1
  -2  -2  -538632.10 2900.51   1
  -2  -2  -6 303.274 312.736   1
  -2  -2  -6 288.395 819.709   1
  -2  -2  -7 -942.62 870.218   1
  -2  -2  -886844.90 5252.16   1
  -2  -2  -9 5700.82 1704.33   1
  -2  -3  12 3914.44 1860.00   1
   2   3 -12 5669.29 1065.21   1
  -2  -3  11 1689.06 1361.71   1
   2   3 -11 3175.50 1182.05   1
  -2  -3  10 416.358 1304.74   1
   2   3 -10 605.795 692.027   1
  -2  -3   943285.40 3087.29   1
   2   3  -948480.60 2654.25   1
  -2  -3   8 8105.44 2102.62   1
   2   3  -8 8269.71 866.024   1
  -2  -3   7100039.0 4463.98   1
   2   3  -794370.50 3554.72   1
  -2  -3   6-79.8116 1344.38   1
   2   3  -6-431.587 508.691   1
  -2  -3   5445807.0 9625.60   1
   2   3  -5449824.0 8756.11   1
  -2  -3   472860.50 2781.65   1
   2   3  -472975.00 1634.52   1
  -2  -3   345377.10 2132.87   1
  -2  -3   338835.70 2294.27   1
  -2  -3   228498.70 1670.00   1
   2   3  -227036.10 985.539   1
  -2  -3   227905.80 2153.93   1
  -2  -3   1269151.0 4295.52   1
   2   3  -1270661.0 4007.84   1
  -2  -3   1272893.0 5112.44   1
  -2  -3   0 5228.70 849.076   1
   2   3   0 4637.45 442.324   1
  -2  -3   0 2818.23 1190.07   1
  -2  -3  -162837.10 1632.43   1
   2   3   166253.60 1466.81   1
  -2  -3  -166191.50 2319.76   1
  -2  -3  -245479.10 1786.72   1
   2   3   245912.30 1665.14   1
  -2  -3  -244214.50 2428.33   1
  -2  -3  -3106672.0 3790.29   1
  -2  -3  -3112905.0 3837.91   1
  -2  -3  -3107501.0 4207.61   1
  -2  -3  -440809.00 1186.16   1
  -2  -3  -444700.70 1375.62   1
  -2  -3  -448821.10 2325.47   1
  -2  -3  -5 6113.65 523.817   1
  -2  -3  -5 6811.92 1307.75   1
  -2  -3  -6 7172.08 1381.19   1
  -2  -3  -7 2958.93 1885.54   1
  -2  -3  -825153.30 2112.40   1
  -2  -4  12 1944.57 1295.18   1
   2   4 -12 860.061 744.919   1
  -2  -4  11 2303.80 1625.52   1
   2   4 -11 1055.33 921.942   1
  -2  -4  10 739.166 1468.76   1
   2   4 -10 659.867 956.132   1
  -2  -4   9 8577.50 2018.92   1
   2   4  -9 5910.28 885.312   1
  -2  -4   863714.00 3358.73   1
   2   4  -865121.40 2111.35   1
  -2  -4   7184005.0 6387.34   1
   2   4  -7181239.0 5191.59   1
   2   4  -6 2017.32 924.509   1
  -2  -4   511541.20 2081.50   1
   2   4  -515096.20 1382.46   1
  -2  -4   4 1015.16 1325.45   1
   2   4  -4 787.493 693.823   1
  -2  -4   3 6032.48 1361.39   1
  -2  -4   3 9691.14 2461.30   1
  -2  -4   2 9168.93 1436.96   1
  -2  -4   2 7166.07 1907.80   1
  -2  -4   1300068.0 6316.81   1
   2   4  -1304301.0 6066.17   1
  -2  -4   1302456.0 7210.17   1
  -2  -4   023954.10 2034.51   1
   2   4   026673.40 1128.03   1
  -2  -4   026202.10 2568.45   1
  -2  -4  -175552.50 2973.90   1
   2   4   182308.30 2910.44   1
  -2  -4  -229955.50 1275.06   1
   2   4   229610.80 1096.55   1
  -2  -4  -228369.10 1986.84   1
  -2  -4  -310201.80 1197.75   1
  -2  -4  -311526.00  935.92   1
  -2  -4  -312775.80 1623.39   1
  -2  -4  -4 270.377 242.676   1
  -2  -4  -4 92.6388 968.777   1
  -2  -4  -518964.20 2316.02   1
  -2  -4  -623872.00 2330.96   1
  -2  -4  -7 1635.52 1008.38   1
  -2  -5  1211689.10 2657.54   1
   2   5 -12 8268.26 1196.20   1
  -2  -5  11 1432.38 2056.30   1
   2   5 -11  131.49 621.379   1
  -2  -5  10 5539.44 1909.19   1
   2   5 -10 8442.07 1011.19   1
  -2  -5   911299.70 2400.59   1
   2   5  -9 9513.86 1322.02   1
  -2  -5   8 2421.33 1418.07   1
   2   5  -8 1082.21 726.373   1
  -2  -5   774517.10 3401.03   1
   2   5  -776788.20 2403.39   1
  -2  -5   6 645.352 1373.66   1
   2   5  -6 490.277 534.753   1
  -2  -5   545628.10 5346.06   1
   2   5  -551940.80 2346.53   1
  -2  -5   488177.80 7209.79   1
  -2  -5   350478.00 4686.41   1
  -2  -5   354723.70 3775.49   1
  -2  -5   2 1514.21 3054.47   1
  -2  -5   2 2647.61 1946.34   1
  -2  -5   125406.50 4422.37   1
  -2  -5   126499.70 3111.59   1
  -2  -5   063622.90 2967.37   1
   2   5   058451.70 2130.89   1
  -2  -5   051391.20 3917.46   1
  -2  -5  -1 582.095 409.425   1
   2   5   1 359.965 249.942   1
  -2  -5  -1 746.223 1102.99   1
  -2  -5  -241058.80 1129.69   1
  -2  -5  -234228.20 3050.14   1
  -2  -5  -3 7679.62 1601.91   1
  -2  -5  -412978.80 1987.78   1
  -2  -5  -5 445.953 1195.06   1
  -2  -5  -622362.40 2110.55   1
  -2  -6  11 1890.63 2709.22   1
   2   6 -11 2714.99 903.154   1
  -2  -6  10 3182.28 2775.93   1
   2   6 -10 1857.67 639.827   1
  -2  -6   9 1889.38 1559.50   1
   2   6  -9 1013.22 606.958   1
  -2  -6   846713.50 3142.02   1
   2   6  -843686.60 1881.75   1
  -2  -6   739872.80 2875.94   1
   2   6  -739022.80 1205.71   1
  -2  -6   6 1281.70 1292.45   1
   2   6  -6 1528.78 718.302   1
  -2  -6   5 1230.97 1373.05   1
   2   6  -5 1168.30 733.922   1
  -2  -6   4 4822.78 1350.35   1
  -2  -6   4 2644.82 1483.76   1
  -2  -6   3 2901.26 1261.92   1
  -2  -6   3 2541.23 1483.49   1
  -2  -6   2 908.522 1137.40   1
  -2  -6   2 1207.89 1222.55   1
  -2  -6   148662.40 2504.11   1
  -2  -6   146483.40 3149.73   1
  -2  -6   0 9614.65 1280.40   1
  -2  -6   011689.10 2058.12   1
  -2  -6  -1208664.0 9659.42   1
  -2  -6  -1194669.0 9758.51   1
  -2  -6  -2 6209.46 2001.13   1
  -2  -6  -3 2388.63 1886.68   1
  -2  -6  -4 252.392 1450.01   1
  -2  -6  -5 2991.29 1749.24   1
  -2  -6  -6 6653.73 1993.15   1
  -2  -7  11 8626.23 3060.60   1
   2   7 -11 8031.26  903.40   1
  -2  -7  1040885.10 4190.74   1
   2   7 -1039043.60 2436.27   1
  -2  -7   9 5416.85 2928.24   1
   2   7  -9 4363.12 1227.31   1
  -2  -7   8 8563.54 2791.36   1
   2   7  -8 6584.68 822.539   1
  -2  -7   718469.50 3632.57   1
   2   7  -7 9509.37 1184.67   1
  -2  -7   621900.30 3318.32   1
   2   7  -621367.50 1464.10   1
  -2  -7   5-21.3511 1546.16   1
   2   7  -5 594.993  521.71   1
  -2  -7   466307.70 3987.30   1
  -2  -7   478540.00 4939.87   1
  -2  -7   3 9176.63 1947.83   1
  -2  -7   3 7977.22 2242.29   1
  -2  -7   245050.30 2937.96   1
  -2  -7   247067.30 8164.62   1
  -2  -7   116822.40 1272.00   1
  -2  -7   119506.70 2665.89   1
  -2  -7   0 840.983 530.647   1
  -2  -7   0 3734.75 2333.94   1
  -2  -7  -1 5449.83 2273.64   1
  -2  -7  -2 2889.45 2365.91   1
  -2  -7  -3 2550.27 1612.32   1
  -2  -7  -4 9350.02 2927.78   1
  -2  -8  1029936.00 3218.95   1
   2   8 -1032566.30 2061.96   1
  -2  -8   923054.80 3061.47   1
   2   8  -915656.50 1531.53   1
  -2  -8   8 4287.91 2693.68   1
   2   8  -8 5032.19 1259.73   1
  -2  -8   712759.60 2676.53   1
   2   8  -712303.10 1247.29   1
  -2  -8   6 3734.42 2132.13   1
   2   8  -6 3838.55 825.399   1
  -2  -8   5 4494.84 2124.15   1
   2   8  -5 4265.20 1002.80   1
  -2  -8   438923.70 2711.95   1
  -2  -8   448974.70 4191.30   1
  -2  -8   318390.90 2191.17   1
  -2  -8   317947.70 3432.54   1
  -2  -8   211847.40 1639.26   1
  -2  -8   2 9879.83 4822.30   1
  -2  -8   1 2926.11 1047.26   1
  -2  -8   1 3352.95 2575.93   1
  -2  -8   0 1812.50 2548.54   1
  -2  -8  -178333.60 4440.36   1
  -2  -8  -2 1471.66 2307.01   1
  -2  -8  -336194.10 3943.97   1
  -2  -9   9 1676.89 1753.89   1
   2   9  -9 894.236 628.998   1
  -2  -9   810071.20 2447.77   1
   2   9  -8 9158.20 1584.14   1
  -2  -9   7 2347.43 1683.73   1
   2   9  -7 3206.66 1163.93   1
  -2  -9   6 4707.21 2423.70   1
   2   9  -6 1693.41 977.849   1
  -2  -9   5 2701.06 1666.10   1
   2   9  -5 1826.84 1017.50   1
  -2  -9   4 1775.82 2153.85   1
  -2  -9   4 -131.05 1774.51   1
  -2  -9   314492.30 3628.35   1
  -2  -9   215681.50 1669.84   1
  -2  -9   211328.90 6520.02   1
  -2  -9   111928.20 3464.98   1
  -2  -9   015205.60 3237.25   1
  -2  -9  -119946.70 3582.44   1
  -2  -9  -220428.20 2780.10   1
  -2 -10   8 2086.02 1690.37   1
   2  10  -8 4123.83 1210.87   1
  -2 -10   710770.80 3161.36   1
   2  10  -7 9913.70 1101.74   1
  -2 -10   6 3044.01 1856.57   1
   2  10  -6 3015.26 981.191   1
  -2 -10   5 5599.38 1781.72   1
   2  10  -5 5485.88 1124.77   1
  -2 -10   4 708.471 1085.29   1
  -2 -10   4 2899.71 2310.51   1
  -2 -10   3 7246.25 2654.03   1
  -2 -10   2 1669.61 3047.21   1
  -2 -10   1 5471.23 5088.94   1
  -3  12  -1 294.006 535.011   1
  -3  12  -226837.20 1613.99   1
   3 -12   333622.60 2946.14   1
  -3  12  -339339.20 2068.10   1
   3 -11  -3 771.913 961.657   1
   3 -11  -2 5388.94 5172.98   1
   3 -11  -1 1559.20 1066.05   1
  -3  11  -138726.70 2342.49   1
   3 -11   2 2464.02 1108.49   1
  -3  11  -2 4867.10 968.038   1
  -3  11  -3 4801.71 908.032   1
   3 -11   4 350.043 1183.35   1
  -3  11  -4 2139.47  790.93   1
   3 -11   518442.40 2251.31   1
  -3  11  -520742.50 1378.84   1
   3 -11   6 6873.68 8833.75   1
  -3  11  -612774.30 1045.31   1
   3 -10  -520419.60 2385.19   1
   3 -10  -4 6333.26 1725.55   1
   3 -10  -3 7691.77 1973.14   1
   3 -10  -2 1208.43 1526.10   1
   3 -10  -1 3136.04 1829.19   1
   3 -10   042058.00 2681.75   1
   3 -10   114227.50 1661.00   1
  -3  10  -113165.30 911.368   1
   3 -10   211238.60 4014.34   1
  -3  10  -214660.10 1023.11   1
   3 -10   354835.70 3876.40   1
  -3  10  -351297.80 1901.31   1
   3 -10   4 311.594 773.916   1
  -3  10  -4 1748.97 610.841   1
   3 -10   5 3925.95 2431.12   1
  -3  10  -5 5953.15 993.723   1
   3 -10   612535.50 6175.52   1
  -3  10  -614206.50 1260.95   1
   3 -10   720875.70 2794.96   1
  -3  10  -719411.20 1239.71   1
   3  -9  -6 1766.74 1171.88   1
   3  -9  -5 1407.52 1071.42   1
   3  -9  -4 1652.23 1476.69   1
   3  -9  -3 226.627 1014.17   1
   3  -9  -213247.70 4009.16   1
  -3   9   127104.00 1138.59   1
   3  -9  -125837.50 2764.99   1
  -3   9   012047.00 907.521   1
   3  -9   0 9683.78 2400.98   1
   3  -9   160711.80 2779.09   1
  -3   9  -163032.30 2221.24   1
   3  -9   2 5407.36 3082.35   1
  -3   9  -2 5496.38 624.969   1
   3  -9   3 3587.50 2547.01   1
  -3   9  -3 5044.67 782.592   1
   3  -9   4-165.216 1155.03   1
  -3   9  -4 303.338 427.666   1
   3  -9   516953.60 4625.65   1
  -3   9  -518532.90 1157.09   1
   3  -9   6 4537.66 4337.67   1
  -3   9  -6 8550.62 1702.88   1
   3  -9   7 2189.67 2397.96   1
  -3   9  -7 2866.23 864.909   1
   3  -9   817824.40 5649.60   1
  -3   9  -818005.20 1329.56   1
   3  -8  -7 346.144 902.922   1
   3  -8  -689345.20 5689.92   1
   3  -8  -552692.00 2373.79   1
   3  -8  -421141.70 2191.38   1
   3  -8  -3 2424.60 1765.66   1
  -3   8   283570.30 3846.05   1
   3  -8  -277244.30 4606.85   1
  -3   8   1 920.279 284.653   1
   3  -8  -1 327.848 1090.11   1
   3  -8   0269860.0 8296.58   1
   3  -8   190749.00 3368.85   1
  -3   8  -194893.90 2673.47   1
   3  -8   297459.70 3968.97   1
  -3   8  -294204.30 2710.56   1
   3  -8   321993.90 2226.00   1
  -3   8  -319272.70 921.501   1
   3  -8   4 831.364 1765.16   1
  -3   8  -4  106.26 427.941   1
   3  -8   513632.50 3912.54   1
  -3   8  -515993.30 1333.16   1
   3  -8   6 9943.83 7798.04   1
  -3   8  -612081.10 1024.27   1
   3  -8   7 8024.52 5097.36   1
  -3   8  -7 8632.75 1846.87   1
   3  -8   8 1210.72 1505.30   1
  -3   8  -8 1157.15 746.773   1
   3  -8   9 1649.41 2082.90   1
  -3   8  -9 624.008 580.044   1
   3  -7  -816663.10 1854.87   1
   3  -7  -7 6613.33 2053.25   1
   3  -7  -611243.70 1450.49   1
   3  -7  -517255.60 1706.94   1
   3  -7  -418805.20 1890.01   1
  -3   7   3 3797.86 236.967   1
   3  -7  -3 3724.14 1590.98   1
  -3   7   239762.70 1545.01   1
  -3   7   244706.70 1450.56   1
   3  -7  -241635.80 2721.25   1
  -3   7   1108936.0 3044.56   1
   3  -7  -1104064.0 4655.16   1
   3  -7   1118605.0 7043.14   1
  -3   7  -1126643.0 4354.34   1
   3  -7   286053.00 4467.22   1
  -3   7  -287787.20 2649.68   1
   3  -7   340650.40 2404.68   1
  -3   7  -337440.70 2570.45   1
   3  -7   443887.60 2427.44   1
  -3   7  -448406.20 1664.40   1
   3  -7   5 2608.03 2434.10   1
  -3   7  -5 3794.79 722.923   1
   3  -7   633045.80 2826.23   1
  -3   7  -637669.30 1810.79   1
   3  -7   781397.70 5763.49   1
  -3   7  -780151.90 2061.78   1
   3  -7   8 2808.94 2303.76   1
  -3   7  -8 6426.68 1092.69   1
   3  -7   923341.00 2996.68   1
  -3   7  -918658.50 1276.66   1
   3  -6  -9 9775.27 1550.95   1
   3  -6  -8 7212.17 2215.74   1
   3  -6  -743216.40 1834.33   1
   3  -6  -6130698.0 4653.74   1
   3  -6  -514072.60 1908.61   1
   3  -6  -4 10.4844 907.983   1
  -3   6   313351.60 1912.31   1
  -3   6   315232.30 2118.10   1
   3  -6  -314557.10 2929.64   1
  -3   6   2 621.735 571.959   1
  -3   6   2  331.73 272.695   1
   3  -6  -215363.20 5070.54   1
  -3   6   1120284.0 4547.66   1
  -3   6   1120007.0 4167.48   1
   3  -6  -1108682.0 6352.30   1
  -3   6   0 9660.32 864.231   1
  -3   6   0 9679.83 854.992   1
   3  -6   1177282.0 7717.49   1
  -3   6  -1169200.0 5852.25   1
   3  -6   236606.8018517.30   1
  -3   6  -224712.80 1108.19   1
   3  -6   3 5667.19 2707.07   1
  -3   6  -313653.70 2079.32   1
   3  -6   4 522.465 686.016   1
  -3   6  -4 77.0496 465.374   1
   3  -6   551667.40 4466.79   1
  -3   6  -550637.40 1773.30   1
   3  -6   632520.40 2676.03   1
  -3   6  -628105.60 1028.37   1
   3  -6   724744.40 5556.15   1
  -3   6  -728436.00 1243.47   1
   3  -6   825718.70 2681.86   1
  -3   6  -825431.60 1438.17   1
   3  -6   9 2790.09 1506.40   1
  -3   6  -9 3817.85  845.90   1
   3  -5 -1013139.30 1338.09   1
   3  -5  -9 8178.77 1914.85   1
   3  -5  -8 8968.85 1388.29   1
   3  -5  -754729.50 2487.90   1
   3  -5  -611223.30 1586.31   1
   3  -5  -5 1209.45 1061.42   1
  -3   5   4 2453.30 459.152   1
  -3   5   4 2389.89 440.092   1
   3  -5  -411016.50 3535.41   1
  -3   5   3144283.0 5079.29   1
  -3   5   3151682.0 5179.23   1
   3  -5  -3151788.0 5685.70   1
  -3   5   3163649.0 5704.34   1
  -3   5   2 8214.18 845.966   1
  -3   5   2 9012.42 425.259   1
   3  -5  -210490.90 1266.13   1
  -3   5   2 8385.35  560.28   1
  -3   5   1 7126.43 776.421   1
  -3   5   1 7366.98 402.276   1
   3  -5  -1 7281.13 1197.75   1
  -3   5   1 8190.14 869.625   1
  -3   5   0 483.318 389.508   1
  -3   5   0 812.326 693.735   1
  -3   5   0 176.971 228.572   1
  -3   5  -1438547.0 8948.55   1
  -3   5  -1460244.0 8760.94   1
   3  -5   236638.20 2337.60   1
  -3   5  -237423.50 1153.08   1
   3  -5   331733.00 4774.02   1
  -3   5  -330778.20 1431.11   1
   3  -5   4 4302.92 3312.27   1
  -3   5  -4 7376.11 1242.52   1
   3  -5   5 5910.91 2891.53   1
  -3   5  -5 8452.59 749.399   1
   3  -5   6 2675.81 1441.78   1
  -3   5  -6 3108.39 665.272   1
   3  -5   723635.20 2391.12   1
  -3   5  -721428.10 1768.28   1
   3  -5   811066.20 2126.04   1
  -3   5  -811477.60 1180.05   1
   3  -5   9 6290.76 1808.86   1
  -3   5  -9 6655.48 978.569   1
   3  -4 -1123841.40 1948.84   1
   3  -4 -10 3933.87 1226.10   1
   3  -4  -9 8187.85 997.561   1
   3  -4  -8207179.0 6415.80   1
  -3   4   719444.50 733.081   1
   3  -4  -720420.40 1356.32   1
  -3   4   6 5365.51 569.709   1
   3  -4  -6 5127.55 217.707   1
   3  -4  -6 4569.03 1019.17   1
  -3   4   511404.80 1694.39   1
  -3   4   4 470.882 396.859   1
   3  -4  -4 299.841 136.047   1
   3  -4  -4 510.326 532.379   1
  -3   4   4 -71.579 217.473   1
  -3   4   357587.20 1317.40   1
   3  -4  -358931.10 1265.76   1
   3  -4  -356818.00 1709.99   1
  -3   4   357052.20 1362.61   1
  -3   4   2103279.0 1637.28   1
   3  -4  -2100128.0 2152.24   1
  -3   4   298227.90 1653.88   1
  -3   4   1 5267.90 1472.33   1
  -3   4   1 5710.45 454.208   1
   3  -4  -1 4309.25 965.063   1
  -3   4   1 5698.49 616.854   1
  -3   4   0586517.0 9126.05   1
  -3   4   0572399.0 8240.49   1
  -3   4  -124904.40 901.815   1
  -3   4  -124884.60 534.494   1
   3  -4   124467.80 554.991   1
   3  -4   246498.20 2428.29   1
  -3   4  -245315.00 1217.89   1
   3  -4   242939.50 1123.85   1
   3  -4   372066.10 3516.80   1
  -3   4  -364123.70 2462.43   1
   3  -4   472481.30 4244.14   1
  -3   4  -462828.10 2427.53   1
   3  -4   519832.00 2257.70   1
  -3   4  -514536.70 885.379   1
   3  -4   612633.30 2003.30   1
  -3   4  -613447.60 860.458   1
   3  -4   7101260.0 4867.84   1
  -3   4  -796497.00 3968.17   1
  -3   4  -8 1993.79 727.297   1
  -3   4  -8 4231.84 1382.86   1
  -3   4  -9 4230.40 925.085   1
  -3   4  -9 5049.83 1085.27   1
   3  -3 -1116255.60 1650.36   1
   3  -3 -10 1461.14 1308.65   1
   3  -3  -9 7303.57 990.614   1
  -3   3   8114244.0 5496.84   1
   3  -3  -8112898.0 5599.27   1
  -3   3   738478.60 1745.14   1
   3  -3  -734888.70 1166.25   1
   3  -3  -734633.60 1608.07   1
  -3   3   6142641.0 4970.54   1
   3  -3  -6140192.0 4649.58   1
   3  -3  -6146941.0 6133.81   1
  -3   3   511936.20 1232.28   1
   3  -3  -510973.30 851.544   1
   3  -3  -510426.80 822.106   1
  -3   3   510777.40 862.006   1
  -3   3   4107577.0 2411.10   1
   3  -3  -4109016.0 2226.03   1
   3  -3  -4103908.0 2332.61   1
  -3   3   4110606.0 2297.67   1
  -3   3   3196242.0 2894.76   1
   3  -3  -3209554.0 2950.60   1
   3  -3  -3201206.0 3033.15   1
  -3   3   3200107.0 2792.80   1
  -3   3   2282998.0 5710.08   1
   3  -3  -2287139.0 5736.02   1
  -3   3   2286974.0 5675.38   1
  -3   3   1 4551.73 576.836   1
   3  -3  -1 4257.43 428.654   1
  -3   3   1 4658.98 573.345   1
  -3   3   1 4743.92 268.955   1
  -3   3   0 4879.54 2722.00   1
  -3   3   0 5443.27 615.662   1
  -3   3   0 5084.30 332.694   1
   3  -3   0 4402.66  307.54   1
  -3   3  -1 9109.19 810.897   1
  -3   3  -1 8256.54 466.004   1
   3  -3   1 8466.40 371.758   1
  -3   3  -214445.50 905.041   1
  -3   3  -213486.10 641.863   1
   3  -3   213305.00 508.017   1
  -3   3  -3148763.0 3279.58   1
  -3   3  -3146089.0 3210.69   1
  -3   3  -4 8123.45 918.897   1
  -3   3  -5 383.135 492.337   1
  -3   3  -6 1336.28 655.544   1
  -3   3  -6 205.466  525.89   1
  -3   3  -744541.40 2214.24   1
  -3   3  -742304.20 2117.57   1
  -3   3  -816756.00 1075.91   1
  -3   3  -816110.00 1596.81   1
  -3   3  -915098.30 1237.61   1
  -3   3  -914768.20 1521.82   1
   3  -2 -12 7668.62 1356.62   1
   3  -2 -1123059.00 1895.84   1
   3  -2 -10 759.089 761.437   1
   3  -2  -9 2670.13 1161.72   1
  -3   2   8159929.0 4703.43   1
   3  -2  -8148664.0 4238.40   1
  -3   2   7 1123.45 656.971   1
   3  -2  -7 554.368 475.964   1
   3  -2  -7 553.837 627.364   1
  -3   2   616106.60 1695.33   1
   3  -2  -614704.60 1183.90   1
   3  -2  -613874.40 1366.37   1
  -3   2   5226150.0 4798.45   1
   3  -2  -5210120.0 4242.94   1
   3  -2  -5220622.0 4440.77   1
  -3   2   5216868.0 4264.24   1
  -3   2   431283.30 1200.57   1
   3  -2  -429571.60 644.745   1
   3  -2  -428991.20 640.602   1
  -3   2   430571.20 823.728   1
  -3   2   3 1522.95 614.192   1
   3  -2  -3 1343.21 331.837   1
   3  -2  -3 1975.01 307.148   1
  -3   2   3 1769.16 213.462   1
  -3   2   215089.80 713.928   1
   3  -2  -216131.10  607.70   1
  -3   2   1330915.0 6657.56   1
   3  -2  -1323746.0 6480.59   1
  -3   2   0 9709.61  704.12   1
   3  -2   0 8428.26 543.997   1
  -3   2   0 8679.34 497.252   1
   3  -2   0 8677.88 367.236   1
  -3   2  -1262789.0 3858.44   1
  -3   2  -1273708.0 3884.32   1
   3  -2   1271207.0 3766.64   1
  -3   2  -211633.20  761.56   1
  -3   2  -210926.90 690.944   1
   3  -2   210908.30 532.739   1
  -3   2  -327136.90 1026.86   1
  -3   2  -329567.20 1125.82   1
  -3   2  -440098.10 2817.87   1
  -3   2  -437673.80 1744.91   1
  -3   2  -510954.30 1002.51   1
  -3   2  -5 9682.99 787.904   1
  -3   2  -651991.20 2705.87   1
  -3   2  -655868.10 3007.24   1
  -3   2  -716592.50 1380.08   1
  -3   2  -718489.30 1820.60   1
  -3   2  -8 208.966 461.788   1
  -3   2  -8 1430.97 1128.63   1
  -3   2  -9 628.881 543.964   1
  -3   2  -9 1857.26 1147.09   1
   3  -1 -12 629.934 702.249   1
   3  -1 -11 5024.39 1293.55   1
  -3   1  1015240.00 1810.70   1
   3  -1 -1021387.10 1485.09   1
  -3   1   9 306.892 976.006   1
   3  -1  -9-162.189  743.81   1
  -3   1   8 2174.80 1439.02   1
   3  -1  -8 4072.83 749.882   1
  -3   1   7 762.649 789.383   1
   3  -1  -7 2385.17 2293.10   1
  -3   1   617150.10 1469.41   1
   3  -1  -612926.30 983.745   1
   3  -1  -613881.40 736.945   1
  -3   1   519212.80 1246.25   1
   3  -1  -519943.30 856.552   1
   3  -1  -518808.20 631.911   1
  -3   1   519684.60 552.229   1
  -3   1   4809043.011086.60   1
   3  -1  -4817788.017049.90   1
  -3   1   3254336.0 5339.96   1
   3  -1  -3244865.0 5065.16   1
   3  -1  -3254974.0 5037.02   1
  -3   1   3255235.0 5044.27   1
  -3   1   2288436.0 5914.90   1
   3  -1  -2277934.0 5639.54   1
   3  -1  -2293505.0 5868.33   1
  -3   1   1176703.0 3737.50   1
   3  -1  -1181945.0 3775.34   1
  -3   1   1176741.0 3697.11   1
   3  -1  -1176116.0 3539.63   1
  -3   1  -149978.60 1204.14   1
   3  -1   147899.20 1067.74   1
  -3   1  -147488.40 1159.92   1
   3  -1   146585.30 1009.14   1
  -3   1  -316860.30 837.161   1
  -3   1  -317066.60 1132.59   1
  -3   1  -415510.20 3176.98   1
  -3   1  -4 9538.67 1608.36   1
  -3   1  -5 110.733 417.481   1
  -3   1  -5 204.632 593.946   1
  -3   1  -613488.10 974.351   1
  -3   1  -614397.80 1207.92   1
  -3   1  -7 2453.35 527.552   1
  -3   1  -7 3108.20 1110.45   1
  -3   1  -8 4417.27 1223.19   1
  -3   1  -8 3987.30 1358.31   1
  -3   1  -9 3610.37  969.27   1
  -3   1  -9 5295.44 1485.23   1
   3   0 -12 4818.49 1068.22   1
  -3   0  11 1023.50 1058.69   1
   3   0 -11 61.8414 568.087   1
  -3   0  1011032.50 1968.11   1
   3   0 -1011300.60 1519.34   1
  -3   0   9 5073.22 1649.58   1
   3   0  -9 4120.63 881.648   1
  -3   0   888359.20 3455.30   1
   3   0  -888407.80 2818.09   1
  -3   0   719991.80 1649.99   1
   3   0  -724825.30 2847.06   1
  -3   0   6 9561.17 1553.36   1
   3   0  -6 8300.84  707.44   1
  -3   0   5 207.779 953.658   1
   3   0  -5 104.284 482.484   1
   3   0  -5-171.977  312.60   1
  -3   0   5 242.803 228.495   1
  -3   0   4212978.0 3720.59   1
   3   0  -4213225.0 3403.70   1
   3   0  -4215978.0 3062.77   1
  -3   0   4217811.0 3087.09   1
  -3   0   3237578.0 5140.47   1
   3   0  -3230448.0 4840.09   1
   3   0  -3235551.0 5103.84   1
   3   0  -3243694.0 4874.73   1
  -3   0   236286.20 1678.77   1
   3   0  -236000.40 1232.43   1
  -3   0   110437.90 711.834   1
   3   0  -1 9522.00 559.971   1
  -3   0   110002.80 948.748   1
   3   0  -1 9191.64 607.373   1
  -3   0   0231223.0 4810.76   1
   3   0   0248318.0 5090.92   1
  -3   0   0226732.0 4848.48   1
   3   0   0231097.0 4760.46   1
  -3   0  -1360728.0 5098.32   1
   3   0   1357599.0 4944.71   1
  -3   0  -1371787.0 5488.31   1
   3   0   1363107.0 5124.18   1
  -3   0  -216825.20 736.044   1
  -3   0  -218584.80 1115.33   1
  -3   0  -3117898.0 4277.59   1
  -3   0  -3117414.0 4372.71   1
  -3   0  -428160.60 1434.74   1
  -3   0  -428517.70 1593.85   1
  -3   0  -512165.80 1087.15   1
  -3   0  -514206.10 1508.37   1
  -3   0  -6129454.0 3950.09   1
  -3   0  -6143986.0 4819.96   1
  -3   0  -718540.70 1035.29   1
  -3   0  -718367.40 1556.49   1
  -3   0  -8 3786.96 717.615   1
  -3   0  -9-341.824 827.263   1
  -3  -1  12 8572.22 2267.75   1
   3   1 -12 6534.75 1148.68   1
  -3  -1  11  211.79 1210.32   1
   3   1 -11 561.997 815.233   1
  -3  -1  1012257.10 2333.63   1
   3   1 -1011498.60 1268.41   1
  -3  -1   9 2287.05 1212.68   1
   3   1  -9 5056.97 1002.67   1
  -3  -1   840776.80 2735.31   1
   3   1  -842363.80 1710.65   1
  -3  -1   7203919.0 7992.43   1
   3   1  -7218763.0 8518.92   1
  -3  -1   640312.70 2120.22   1
   3   1  -643907.80 1285.61   1
  -3  -1   5114774.0 3174.69   1
   3   1  -5111866.0 1918.35   1
  -3  -1   5111078.0 1825.24   1
  -3  -1   4331774.0 5548.78   1
   3   1  -4322958.0 5325.37   1
   3   1  -4331039.0 4607.61   1
  -3  -1   3 4239.70 1038.73   1
   3   1  -3 5665.23 705.247   1
  -3  -1   3 6446.86 1728.88   1
   3   1  -3 5086.12 1205.00   1
  -3  -1   2328225.0 6858.43   1
   3   1  -2331772.0 6822.24   1
  -3  -1   2325212.0 7040.40   1
   3   1  -2318247.0 6696.19   1
  -3  -1   1104713.0 2513.84   1
   3   1  -1105912.0 2392.07   1
  -3  -1   1104795.0 2846.20   1
   3   1  -1101686.0 2522.73   1
  -3  -1   0 1043.90 603.772   1
   3   1   0 757.369 310.638   1
  -3  -1   0 1733.38  791.36   1
   3   1   0 1491.54 465.646   1
  -3  -1  -196986.90 1789.65   1
   3   1   198816.60 1651.65   1
  -3  -1  -196217.40 2267.48   1
  -3  -1  -241067.20 1228.80   1
  -3  -1  -243436.50 1791.95   1
  -3  -1  -3 3434.85 1259.00   1
  -3  -1  -3 1362.49 777.695   1
  -3  -1  -4185499.0 5157.80   1
  -3  -1  -4187089.0 5636.67   1
  -3  -1  -5 6863.85 671.998   1
  -3  -1  -5 8538.74 1357.28   1
  -3  -1  -6 626.771  422.98   1
  -3  -1  -6 1257.93 858.762   1
  -3  -1  -7 7187.83 1368.46   1
  -3  -1  -7 6375.93 1828.70   1
  -3  -1  -828214.90 2738.66   1
  -3  -2  12 4619.92 1794.23   1
   3   2 -12 5956.50 1127.86   1
  -3  -2  11  141.50 1148.78   1
   3   2 -11 183.759 593.655   1
  -3  -2  10 2436.18 1860.41   1
   3   2 -10 118.793 731.235   1
  -3  -2   916419.80 1904.31   1
   3   2  -916592.30 1010.80   1
  -3  -2   8 2281.19 1583.56   1
   3   2  -8 1208.41 679.819   1
  -3  -2   782813.80 3874.27   1
   3   2  -797238.00 4352.56   1
  -3  -2   6109135.0 4701.24   1
   3   2  -6106037.0 3826.40   1
  -3  -2   589738.50 2845.81   1
   3   2  -586733.30 2038.37   1
  -3  -2   4 5084.69 1440.89   1
   3   2  -4 4875.56 614.886   1
  -3  -2   3 801.219 881.446   1
  -3  -2   3 1753.80 1460.06   1
   3   2  -3 2214.36 824.037   1
  -3  -2   217122.00 1269.77   1
   3   2  -218186.00 768.872   1
  -3  -2   217219.50 2126.60   1
   3   2  -216591.50 1180.73   1
  -3  -2   180138.70 1829.13   1
   3   2  -183556.50 1575.51   1
  -3  -2   179239.20 2338.28   1
  -3  -2   0581120.011187.00   1
   3   2   0575835.010923.70   1
  -3  -2   0564877.011338.30   1
  -3  -2  -186885.80 2093.26   1
   3   2   190367.40 1968.12   1
  -3  -2  -194713.60 2877.07   1
  -3  -2  -211722.20 2061.50   1
  -3  -2  -2 7946.03 1591.80   1
  -3  -2  -359924.50 1901.95   1
  -3  -2  -358490.30 2306.69   1
  -3  -2  -411776.40 1085.05   1
  -3  -2  -411694.50 1473.76   1
  -3  -2  -5 6529.61 630.414   1
  -3  -2  -5 7644.18 1285.54   1
  -3  -2  -631038.20 888.408   1
  -3  -2  -636208.20 1969.18   1
  -3  -2  -7 160.305 1098.77   1
  -3  -2  -825211.20 2063.83   1
  -3  -3  12 594.889 1953.52   1
   3   3 -12  166.92 576.882   1
  -3  -3  11  902.68 1448.20   1
   3   3 -11 1051.72 637.009   1
  -3  -3  10 2935.94 1607.12   1
   3   3 -10 3558.44 931.128   1
  -3  -3   9 2109.02 1229.97   1
   3   3  -9 3432.47 777.402   1
  -3  -3   8 2081.96 1238.52   1
   3   3  -8 2208.59 664.604   1
  -3  -3   7 9423.75 2162.06   1
   3   3  -7 9405.32 1770.71   1
  -3  -3   6224262.0 8935.79   1
   3   3  -6205763.0 7219.13   1
  -3  -3   5 2130.99 1705.87   1
   3   3  -5-152.962 422.347   1
  -3  -3   418124.70 1713.28   1
  -3  -3   417586.00 2424.69   1
  -3  -3   3 2525.19 1861.24   1
  -3  -3   2395461.0 8138.62   1
  -3  -3   2394217.0 8718.76   1
  -3  -3   114014.80 1203.58   1
  -3  -3   113526.20 1936.75   1
  -3  -3   0 7934.35 1028.71   1
   3   3   0 7971.63 720.861   1
  -3  -3   0 7634.99 1479.70   1
  -3  -3  -173985.60 4125.65   1
  -3  -3  -164824.60 3277.89   1
  -3  -3  -212073.60 896.653   1
  -3  -3  -2 9700.50 1315.86   1
  -3  -3  -3 176.929 346.487   1
  -3  -3  -3 1104.52  874.04   1
  -3  -3  -416520.60 1072.89   1
  -3  -3  -417792.90 2061.86   1
  -3  -3  -5  696.61 320.319   1
  -3  -3  -5 3363.59 1674.35   1
  -3  -3  -6 8878.92 2022.35   1
  -3  -3  -723657.50 2112.06   1
  -3  -4  1234942.00 3280.04   1
   3   4 -1237087.60 2245.34   1
  -3  -4  11 1560.08 1795.62   1
   3   4 -11-24.7488 653.782   1
  -3  -4  10 5960.61 2388.63   1
   3   4 -10 3519.17 918.818   1
  -3  -4   923438.30 2900.61   1
   3   4  -922100.10 1487.38   1
  -3  -4   8 849.727 1150.41   1
   3   4  -8 997.249 632.102   1
  -3  -4   7272151.0 8585.35   1
   3   4  -7268578.0 7432.31   1
  -3  -4   6153268.0 6197.62   1
   3   4  -6157865.0 5612.97   1
  -3  -4   583944.20 6882.97   1
   3   4  -557772.70 3196.56   1
  -3  -4   4-558.572 1804.23   1
  -3  -4   4 688.268 1264.90   1
  -3  -4   3-73.7326 1188.77   1
  -3  -4   3-54.1054 1218.97   1
  -3  -4   2 4722.82 2168.76   1
  -3  -4   2 8209.67 2344.81   1
  -3  -4   186846.80 5081.57   1
  -3  -4   185450.50 4260.70   1
  -3  -4   047764.70 2922.38   1
  -3  -4   054004.30 2885.66   1
  -3  -4  -193862.90 2999.98   1
  -3  -4  -1106219.0 4067.37   1
  -3  -4  -235600.00 2481.00   1
  -3  -4  -237754.50 3173.82   1
  -3  -4  -3 2665.44 657.791   1
  -3  -4  -3 1985.81 1442.78   1
  -3  -4  -4 1631.06 1384.75   1
  -3  -4  -5 2091.95 1676.21   1
  -3  -4  -6 7622.35 1909.49   1
  -3  -5  12 1608.25 1897.34   1
   3   5 -12 1769.75 986.091   1
  -3  -5  11 568.731 1696.89   1
   3   5 -11  696.39 647.517   1
  -3  -5  1025839.60 3160.88   1
   3   5 -1018479.80 1290.99   1
  -3  -5   957986.90 3895.30   1
   3   5  -953012.50 2489.94   1
  -3  -5   855098.10 3700.38   1
   3   5  -859765.70 3092.58   1
  -3  -5   798380.10 3844.21   1
   3   5  -7114850.0 3325.42   1
  -3  -5   678766.80 3429.48   1
   3   5  -687526.70 2784.63   1
  -3  -5   5 3053.08 1989.39   1
   3   5  -5 1504.52 548.454   1
  -3  -5   4 1536.25 1871.86   1
  -3  -5   4 1167.53 1827.26   1
  -3  -5   315252.30 4011.59   1
  -3  -5   319724.20 5805.12   1
  -3  -5   2161160.0 6151.98   1
  -3  -5   2158711.0 6378.39   1
  -3  -5   128349.20 1791.37   1
  -3  -5   134933.10 2547.40   1
  -3  -5   0179570.0 5030.00   1
  -3  -5   0178918.0 5689.03   1
  -3  -5  -146851.80 2560.76   1
  -3  -5  -147924.70 3037.62   1
  -3  -5  -211668.30 976.103   1
  -3  -5  -212217.90 1932.60   1
  -3  -5  -3 2079.55 1226.97   1
  -3  -5  -4 7194.26 2536.00   1
  -3  -5  -5 4344.18 1628.10   1
  -3  -6  1240382.90 3500.41   1
   3   6 -1244054.50 2255.58   1
  -3  -6  11 1942.44 1820.50   1
   3   6 -11 1220.18 618.288   1
  -3  -6  10 2151.82 2089.70   1
   3   6 -10 646.875 652.784   1
  -3  -6   971756.20 3697.86   1
   3   6  -968527.20 1865.75   1
  -3  -6   816794.60 3039.46   1
   3   6  -819178.30 1659.63   1
  -3  -6   775639.60 3990.19   1
   3   6  -777555.30 2712.64   1
  -3  -6   618876.40 2355.48   1
   3   6  -622828.30 1104.49   1
  -3  -6   5 2849.57 1892.01   1
   3   6  -5 525.112 563.394   1
  -3  -6   4-175.703 1354.55   1
  -3  -6   4 1223.12 1269.25   1
  -3  -6   344056.10 2467.36   1
  -3  -6   340718.90 6244.44   1
  -3  -6   244108.00 2319.28   1
  -3  -6   244110.70 2994.09   1
  -3  -6   1 2871.55 1323.80   1
  -3  -6   1 3092.31 1714.03   1
  -3  -6   022303.30 1738.81   1
  -3  -6   019927.00 2385.15   1
  -3  -6  -1142401.0 5446.90   1
  -3  -6  -1134274.0 6068.21   1
  -3  -6  -2118173.0 3811.70   1
  -3  -6  -315807.60 2711.60   1
  -3  -6  -4 1185.67 1215.66   1
  -3  -7  11 8408.91 2470.34   1
   3   7 -11 7673.70 1079.84   1
  -3  -7  10 3979.26 2794.19   1
   3   7 -10 2348.34 935.497   1
  -3  -7   9 1416.63 1928.01   1
   3   7  -9 1342.52 906.826   1
  -3  -7   8 2438.45 1907.33   1
   3   7  -8 1310.09 574.479   1
  -3  -7   751604.70 3787.43   1
   3   7  -756280.40 2521.04   1
  -3  -7   623725.60 3353.80   1
   3   7  -630519.80 1568.99   1
  -3  -7   5 5495.20 2377.78   1
   3   7  -5 1828.55 775.914   1
  -3  -7   410762.40 2209.80   1
  -3  -7   412404.70 2623.91   1
  -3  -7   3 5799.51 1542.32   1
  -3  -7   3 4513.60 3809.38   1
  -3  -7   256661.70 2785.06   1
  -3  -7   249919.20 3540.00   1
  -3  -7   1 633.406 663.123   1
  -3  -7   1-489.859 1449.52   1
  -3  -7   0225572.0 5595.30   1
  -3  -7  -1 3362.93 2265.82   1
  -3  -7  -215129.20 3006.48   1
  -3  -7  -3 6091.29 2073.36   1
  -3  -8  1027024.70 3005.82   1
   3   8 -1024880.60 1605.19   1
  -3  -8   928746.30 3855.58   1
   3   8  -932507.00 1974.96   1
  -3  -8   8 4735.88 2499.36   1
   3   8  -8 3303.72 922.978   1
  -3  -8   7 3738.49 2256.10   1
   3   8  -7 3957.79 1126.30   1
  -3  -8   628690.40 2530.38   1
   3   8  -636350.80 1470.81   1
  -3  -8   546436.10 2576.56   1
   3   8  -544124.30 1598.96   1
  -3  -8   412928.40 1739.80   1
  -3  -8   411642.70 3359.37   1
  -3  -8   3 5132.65 1708.83   1
  -3  -8   3 2627.56 2973.31   1
  -3  -8   2 3191.23 1291.13   1
  -3  -8   2 2454.32 1586.24   1
  -3  -8   122591.50 3483.68   1
  -3  -8   031410.60 3397.43   1
  -3  -8  -1 1879.70 1549.07   1
  -3  -8  -253555.10 3607.92   1
  -3  -9   933989.30 3435.55   1
   3   9  -934407.10 1863.39   1
  -3  -9   8 1485.73 1714.01   1
   3   9  -8 554.274 588.293   1
  -3  -9   7 1830.21 1478.60   1
   3   9  -7 128.508 610.279   1
  -3  -9   623390.60 2986.46   1
   3   9  -624105.80 1957.19   1
  -3  -9   527777.70 2947.73   1
   3   9  -534443.50 2360.88   1
  -3  -9   4  664.77 1087.56   1
  -3  -9   4-435.086 1716.72   1
  -3  -9   3 133.736 921.467   1
  -3  -9   3 1443.39 1543.05   1
  -3  -9   215201.70 4757.10   1
  -3  -9   1 1362.72 1565.94   1
  -3  -9   016729.10 2508.24   1
  -3 -10   6 648.658 1372.54   1
   3  10  -6 376.938 634.439   1
  -3 -10   515150.10 2463.03   1
   3  10  -510347.20 1075.03   1
  -3 -10   4 2900.17 2061.34   1
  -3 -10   4 1025.27 1399.44   1
  -3 -10   3  505.81 1657.34   1
  -4  12   012680.40 1511.63   1
  -4  12  -138022.70 1982.36   1
  -4  12  -2 411.511 581.349   1
   4 -11  -3 3849.97 3731.60   1
   4 -11  -236345.50 3265.14   1
  -4  11   1 1930.24 650.623   1
  -4  11   0 2558.11 915.516   1
  -4  11  -1 442.614 440.189   1
  -4  11  -1 539.387 418.545   1
  -4  11  -293155.40 5048.59   1
  -4  11  -289665.30 4890.15   1
  -4  11  -3 3.58771  497.78   1
  -4  11  -3-57.0807 401.799   1
   4 -11   4 1480.01 1027.43   1
  -4  11  -4 339.998 495.356   1
   4 -11   5 8072.08 2625.53   1
  -4  11  -5 7945.18 1035.12   1
   4 -10  -564804.70 3738.07   1
   4 -10  -4 3261.70 1833.50   1
   4 -10  -2 3001.99 1898.01   1
  -4  10   0 2631.82 465.706   1
  -4  10  -1209891.0 2332.40   1
  -4  10  -1210135.0 2364.10   1
  -4  10  -2 313.152 410.226   1
  -4  10  -2 457.284 475.745   1
   4 -10   3 -841.34 992.888   1
  -4  10  -3 20.8617  383.31   1
   4 -10   424013.60 2916.42   1
  -4  10  -422581.00 1550.95   1
   4 -10   5 2581.57 1313.34   1
  -4  10  -5 4120.76 996.744   1
   4 -10   631609.00 3098.99   1
  -4  10  -632388.60 1911.24   1
   4  -9  -781741.90 4137.66   1
   4  -9  -612015.60 2092.50   1
   4  -9  -5 1102.32 1163.41   1
   4  -9  -4 6738.64 2278.87   1
   4  -9  -310984.80 6235.73   1
   4  -9  -2 1706.68 824.659   1
  -4   9   1 4861.51 534.784   1
   4  -9  -1 2432.91 1250.55   1
  -4   9   0168551.0 4893.06   1
  -4   9   0173026.0 5056.73   1
  -4   9  -1 959.578 517.693   1
  -4   9  -1 1745.26 428.452   1
  -4   9  -240001.10 1767.75   1
   4  -9   3 4805.31 1784.56   1
  -4   9  -3 6598.86 871.073   1
   4  -9   4 3099.84 1415.84   1
   4  -9   5 2624.47 2050.01   1
  -4   9  -5 292.364 404.716   1
   4  -9   615013.30 3199.06   1
  -4   9  -616851.60 1349.69   1
   4  -9   721989.20 2573.66   1
  -4   9  -721145.80 1395.02   1
   4  -8  -825094.40 2219.64   1
   4  -8  -712826.90 1831.57   1
   4  -8  -5135525.0 3515.79   1
   4  -8  -4 4405.99 1340.66   1
  -4   8   310895.60 664.832   1
   4  -8  -312322.60 2231.14   1
  -4   8   2 1475.54 312.906   1
   4  -8  -2 1281.95 721.664   1
  -4   8   143689.40 2171.69   1
  -4   8   062558.20 1896.19   1
  -4   8   064584.20 1952.25   1
  -4   8  -1166982.0 7727.72   1
  -4   8  -1163524.0 7516.50   1
  -4   8  -210907.60 668.866   1
   4  -8   312115.90 2721.81   1
  -4   8  -311176.00 835.524   1
   4  -8   452922.40 3980.69   1
  -4   8  -449928.80 2147.81   1
   4  -8   5 5232.00 1541.97   1
  -4   8  -5 5477.83 697.653   1
   4  -8   611988.30 2960.68   1
  -4   8  -6 8504.86 1750.81   1
   4  -8   731913.30 3575.20   1
  -4   8  -731802.80 2194.06   1
   4  -8   8 2148.96 1398.67   1
  -4   8  -8 860.201 523.926   1
   4  -7  -927426.70 2076.01   1
   4  -7  -8 3410.68 1183.69   1
   4  -7  -761677.80 3117.70   1
   4  -7  -617237.40 1825.75   1
   4  -7  -554038.90 2755.69   1
  -4   7   455851.60 2605.21   1
   4  -7  -456379.70 3307.49   1
  -4   7   3 4881.35 717.392   1
  -4   7   3 4413.90 361.866   1
   4  -7  -3 4988.08 1334.64   1
  -4   7   238743.10 1262.25   1
   4  -7  -235366.90 3337.47   1
  -4   7   164398.70 1984.69   1
  -4   7   165701.70 2015.41   1
  -4   7   0148268.0 4203.23   1
  -4   7   0151502.0 4210.84   1
  -4   7  -129477.90 1273.25   1
  -4   7  -127710.80 1062.09   1
  -4   7  -297681.30 2873.79   1
  -4   7  -296564.70 2654.20   1
   4  -7   3 1163.68 1171.96   1
  -4   7  -3 2000.38 463.924   1
   4  -7   4 3628.75 1829.02   1
  -4   7  -4 3530.23 683.501   1
   4  -7   5 630.798 1252.39   1
  -4   7  -5 1130.51 647.569   1
   4  -7   6 3175.55 1601.98   1
  -4   7  -6 1403.36 630.531   1
   4  -7   716093.50 2805.99   1
  -4   7  -718615.60 1538.51   1
  -4   7  -828137.40 1897.53   1
  -4   7  -828209.20 1808.60   1
   4  -6 -1020360.10 1859.22   1
   4  -6  -9 4714.34 1433.34   1
   4  -6  -839686.80 2240.80   1
   4  -6  -789808.40 3846.93   1
   4  -6  -668589.30 2972.74   1
  -4   6   5 422.161 236.181   1
   4  -6  -5 1547.85 1032.95   1
  -4   6   4 7983.74 577.315   1
  -4   6   4 8828.29 498.707   1
   4  -6  -410672.60 1420.38   1
  -4   6   3 161.897 345.841   1
  -4   6   3 187.352 203.183   1
   4  -6  -3 490.571 918.465   1
  -4   6   3 2.63644 203.502   1
  -4   6   299409.00 3708.96   1
  -4   6   2106697.0 3627.32   1
   4  -6  -2105255.0 6966.39   1
  -4   6   2102825.0 3601.97   1
  -4   6   1 9841.75 882.992   1
  -4   6   110519.50 1108.24   1
  -4   6   110594.20 898.451   1
  -4   6   0 1406.47 479.173   1
  -4   6   0 3409.75 770.797   1
  -4   6   0 2973.27 466.216   1
  -4   6  -141801.60 1702.08   1
  -4   6  -141576.20 1553.86   1
  -4   6  -258015.00 2289.70   1
  -4   6  -254093.50 1993.47   1
  -4   6  -3264251.0 7175.68   1
   4  -6   4 1114.65 1145.39   1
  -4   6  -4 195.881 423.374   1
   4  -6   5111310.0 4742.09   1
  -4   6  -597834.90 3151.98   1
  -4   6  -6 6608.54 831.037   1
  -4   6  -736833.30 1953.29   1
  -4   6  -738264.50 1890.48   1
  -4   6  -854103.00 2895.62   1
  -4   6  -855568.50 2977.29   1
   4  -5 -10 7689.70 1229.36   1
   4  -5  -9 370.537 796.224   1
   4  -5  -8 1345.31 951.185   1
   4  -5  -7213581.0 6531.18   1
   4  -5  -6 1137.58 139.581   1
   4  -5  -6 1093.98  898.64   1
  -4   5   543436.20 1479.30   1
   4  -5  -544525.00 1289.80   1
  -4   5   445520.70 1847.88   1
  -4   5   442886.50 1599.11   1
   4  -5  -454673.30 3356.41   1
  -4   5   442358.80 1570.84   1
  -4   5   356253.30 2274.35   1
  -4   5   356858.30 2111.00   1
   4  -5  -354913.90 2346.65   1
  -4   5   354906.70 2004.57   1
  -4   5   287924.00 2333.24   1
  -4   5   287389.00 1968.66   1
   4  -5  -288270.50 2457.12   1
  -4   5   282054.60 1872.40   1
  -4   5   1320420.0 6301.76   1
  -4   5   1307221.0 6139.95   1
  -4   5   1322581.0 6143.64   1
  -4   5   0141530.0 3067.04   1
  -4   5   0142590.0 3421.31   1
  -4   5   0145019.0 2901.32   1
  -4   5  -1-375.358  444.74   1
  -4   5  -1 207.712 211.657   1
  -4   5  -231612.70 1558.50   1
  -4   5  -229537.70 1284.83   1
  -4   5  -311710.60 1870.99   1
  -4   5  -311476.10 1730.49   1
  -4   5  -4 797.425  573.43   1
  -4   5  -4 397.065 456.481   1
  -4   5  -533264.50 1296.97   1
  -4   5  -532025.90 1046.81   1
  -4   5  -6 861.683 732.873   1
  -4   5  -6 612.455  505.40   1
  -4   5  -740481.10 1946.52   1
  -4   5  -742960.00 1946.47   1
  -4   5  -8 5108.17 1127.00   1
  -4   5  -8 6810.31 1211.57   1
  -4   5  -9 1058.86  820.11   1
  -4   5  -9 737.363 631.097   1
   4  -4 -11 6078.75 1112.80   1
   4  -4 -10 1369.98 803.126   1
   4  -4  -9 4610.72 954.459   1
   4  -4  -870843.30 2598.49   1
  -4   4   770606.30 2309.54   1
   4  -4  -769200.00 2394.24   1
  -4   4   6 1060.51 497.353   1
   4  -4  -6 1762.64 221.631   1
   4  -4  -6 1268.22 759.345   1
  -4   4   548557.60 1959.90   1
   4  -4  -550339.40 1818.33   1
  -4   4   548349.00 1795.99   1
  -4   4   453779.10 2053.43   1
   4  -4  -453966.10 1958.79   1
   4  -4  -449352.20 1940.41   1
  -4   4   454021.70 1943.91   1
  -4   4   3 2622.54 450.398   1
   4  -4  -3 2363.04 296.814   1
   4  -4  -3 2099.59 558.374   1
  -4   4   3 2375.75 233.604   1
  -4   4   2127726.0 2717.31   1
   4  -4  -2125276.0 2594.96   1
  -4   4   2120915.0 2402.80   1
  -4   4   2131806.0 2542.52   1
  -4   4   1297186.0 4342.26   1
  -4   4   1278068.0 4111.59   1
  -4   4   1294707.0 3940.26   1
  -4   4   012163.00 839.408   1
  -4   4   012607.10 482.279   1
   4  -4   012457.60 526.645   1
  -4   4  -1 583.216 453.678   1
  -4   4  -1 850.354 340.473   1
   4  -4   1 759.334 236.232   1
  -4   4  -226992.50 1368.51   1
  -4   4  -226018.00 1920.53   1
  -4   4  -347578.00 2347.21   1
  -4   4  -338911.60 1652.41   1
  -4   4  -414932.80 1015.63   1
  -4   4  -414810.00 988.763   1
  -4   4  -551571.90 2760.84   1
  -4   4  -552631.90 2703.12   1
  -4   4  -674110.30 2764.96   1
  -4   4  -672126.40 2599.69   1
  -4   4  -7 4581.01 882.368   1
  -4   4  -7 5640.40 1125.46   1
  -4   4  -8 4726.37 971.244   1
  -4   4  -8 6748.88 1324.34   1
  -4   4  -9 3279.50 844.407   1
  -4   4  -9 4493.50 1072.93   1
   4  -3 -11 1554.97 820.693   1
   4  -3 -10 3448.42 1159.95   1
  -4   3   925646.80 1604.82   1
   4  -3  -926079.40 1521.66   1
  -4   3   8 1141.96 695.796   1
   4  -3  -8 1442.51 807.216   1
  -4   3   7243979.0 6968.70   1
   4  -3  -7238108.0 6412.76   1
   4  -3  -7227439.0 6350.31   1
  -4   3   628674.80 1595.74   1
   4  -3  -626688.40 1071.29   1
   4  -3  -630434.10 2215.20   1
  -4   3   541431.50 1757.74   1
   4  -3  -540323.40 1558.60   1
   4  -3  -540028.20 1610.59   1
  -4   3   540444.70 1491.66   1
  -4   3   462222.40 1639.63   1
   4  -3  -462223.30 1454.68   1
   4  -3  -458441.20 1373.75   1
  -4   3   462044.00 1292.80   1
  -4   3   334440.70 1138.33   1
   4  -3  -338249.00 896.821   1
  -4   3   336353.10  551.63   1
  -4   3   2165153.0 2637.24   1
   4  -3  -2166357.0 2529.86   1
  -4   3   116562.00 724.797   1
  -4   3   116468.90 326.684   1
   4  -3  -117201.10 328.397   1
  -4   3   052765.60 1299.17   1
  -4   3   051324.20 964.821   1
   4  -3   050190.70 883.378   1
  -4   3  -1181638.0 3838.98   1
  -4   3  -1181059.0 3659.48   1
   4  -3   1178037.0 3523.10   1
  -4   3  -216280.90 866.905   1
  -4   3  -216033.10 811.665   1
  -4   3  -326968.20 2196.57   1
  -4   3  -317324.60 2576.74   1
  -4   3  -4 718.432 729.631   1
  -4   3  -4 606.642 683.273   1
  -4   3  -534191.20 1174.08   1
  -4   3  -536215.40 1266.32   1
  -4   3  -619776.20 1572.12   1
  -4   3  -619145.70 1503.73   1
  -4   3  -725652.80 1109.23   1
  -4   3  -724801.80 1307.37   1
  -4   3  -8 457.856  517.30   1
  -4   3  -8 2361.39 1185.03   1
  -4   3  -912062.00 1028.53   1
  -4   3  -910218.70 1438.68   1
   4  -2 -1214661.40 1352.23   1
   4  -2 -11 641.037 718.928   1
  -4   2  1043072.70 2211.81   1
   4  -2 -1040163.70 1501.56   1
  -4   2   9 1759.84 1282.49   1
   4  -2  -9 2083.07 1048.47   1
  -4   2   8230108.0 6482.38   1
   4  -2  -8224996.0 5855.62   1
  -4   2   7 483.281 727.198   1
   4  -2  -7 663.228 565.002   1
  -4   2   6 9846.29 1274.09   1
   4  -2  -6 8558.73 1236.85   1
  -4   2   6 9560.21 786.478   1
  -4   2   5 1011.44  766.90   1
   4  -2  -5 765.654 419.805   1
   4  -2  -5 1125.37 375.222   1
  -4   2   5 782.673 240.634   1
  -4   2   457001.20 1682.73   1
   4  -2  -453712.50 1153.10   1
   4  -2  -454142.40 946.873   1
  -4   2   451095.30 829.222   1
  -4   2   3 367.796 548.209   1
   4  -2  -3 302.813 315.718   1
  -4   2   215273.00 859.516   1
   4  -2  -214369.00 635.141   1
  -4   2   0216295.0 3355.52   1
  -4   2   0214040.0 3115.08   1
   4  -2   0221820.0 3110.70   1
  -4   2  -1207231.0 4354.30   1
  -4   2  -1193482.0 3960.02   1
   4  -2   1193584.0 3843.90   1
  -4   2  -2199146.0 4188.10   1
  -4   2  -2213720.0 4496.92   1
  -4   2  -3 1033.34 808.238   1
  -4   2  -4 266.074 496.487   1
  -4   2  -4 463.617 528.932   1
  -4   2  -531630.40 1372.23   1
  -4   2  -532459.50 1333.00   1
  -4   2  -637569.30 1800.53   1
  -4   2  -642611.60 2235.17   1
  -4   2  -7 3583.11 1052.88   1
  -4   2  -7 2843.86 879.468   1
  -4   2  -8 2704.21 669.389   1
  -4   2  -8 2791.54 1051.77   1
   4  -1 -12 7161.46 1235.88   1
  -4   1  11 1362.70 1135.80   1
   4  -1 -11 2195.18 774.274   1
  -4   1  1017578.20 2298.12   1
   4  -1 -1017000.30 1493.90   1
  -4   1   932608.40 1924.44   1
   4  -1  -934562.10 1262.80   1
  -4   1   8 4226.67 1376.73   1
   4  -1  -8 3284.34 635.398   1
  -4   1   7 4812.36 1336.94   1
   4  -1  -7 5114.00 1961.93   1
  -4   1   642090.20 2261.35   1
   4  -1  -640530.10 1612.71   1
  -4   1   640114.40 1535.00   1
   4  -1  -5126455.0 2587.84   1
  -4   1   5125212.0 2541.68   1
  -4   1   4 1717.60 1011.20   1
   4  -1  -4 624.591 569.736   1
   4  -1  -4 510.682 382.936   1
   4  -1  -4 360.854 166.264   1
  -4   1   3 109.883 616.821   1
   4  -1  -3 409.815 351.143   1
   4  -1  -3  29.739 314.381   1
   4  -1  -3 85.2816 121.473   1
  -4   1   2 491.574 517.563   1
   4  -1  -2 359.406 345.225   1
  -4   1   2 484.426 403.625   1
   4  -1  -2 517.024 363.765   1
  -4   1   1290922.0 4330.67   1
  -4   1   1290904.0 4273.80   1
   4  -1  -1288687.0 3994.75   1
  -4   1   016019.90 838.423   1
  -4   1   017219.40 838.718   1
   4  -1   016554.70 568.044   1
  -4   1  -1318621.0 6354.82   1
  -4   1  -1316828.0 6367.80   1
  -4   1  -225572.50 2012.36   1
  -4   1  -227375.70 1627.15   1
  -4   1  -3 792.924 1357.16   1
  -4   1  -3 3070.61 1031.54   1
  -4   1  -4 875.688 472.058   1
  -4   1  -4 1263.71 812.526   1
  -4   1  -570859.00 3593.62   1
  -4   1  -570540.60 3695.78   1
  -4   1  -656162.50 2364.67   1
  -4   1  -655505.20 2755.90   1
  -4   1  -716024.50 1244.96   1
  -4   1  -714933.10 1675.00   1
  -4   1  -811470.70 1009.89   1
  -4   1  -812224.00 1692.95   1
  -4   0  1257110.90 4283.07   1
   4   0 -1256442.50 2974.57   1
  -4   0  11 1552.85 1143.41   1
   4   0 -11 1493.82 747.396   1
  -4   0  10  755.45 1038.07   1
   4   0 -10 1163.73 803.162   1
  -4   0   925542.60 1910.25   1
   4   0  -922742.40 1089.79   1
  -4   0   8 1286.46 1470.28   1
   4   0  -8 951.538 652.868   1
  -4   0   790827.60 3993.18   1
   4   0  -7100356.0 4381.73   1
  -4   0   631654.90 2335.08   1
   4   0  -629835.10 957.258   1
  -4   0   5125436.0 3361.85   1
   4   0  -5131071.0 3397.33   1
   4   0  -5135814.0 2808.83   1
  -4   0   4 4330.19 1088.31   1
   4   0  -4 4044.02 856.863   1
   4   0  -4 3719.96 366.138   1
  -4   0   319681.20 1190.76   1
  -4   0   319115.10 1438.57   1
   4   0  -319793.30 984.918   1
  -4   0   2340973.0 5158.30   1
  -4   0   2352103.0 5438.51   1
   4   0  -2340985.0 4897.26   1
  -4   0   183039.80 1819.55   1
  -4   0   188875.20 1938.31   1
   4   0  -192994.40 1711.53   1
  -4   0   088428.50 1824.97   1
  -4   0   089483.90 2077.13   1
   4   0   093351.60 1748.93   1
  -4   0  -122204.10 1084.01   1
  -4   0  -123909.70 1486.81   1
  -4   0  -2265536.0 9545.84   1
  -4   0  -2261937.0 9241.51   1
  -4   0  -3 7525.91 801.188   1
  -4   0  -3 8685.06 1119.27   1
  -4   0  -4 457.635 449.984   1
  -4   0  -4  131.92 630.551   1
  -4   0  -5 5734.30 810.352   1
  -4   0  -5 4281.21 1049.88   1
  -4   0  -6 390.289 507.628   1
  -4   0  -6 7.61498  812.21   1
  -4   0  -7 9275.07 871.353   1
  -4   0  -710765.90 1687.48   1
  -4   0  -814651.20 1936.87   1
  -4  -1  13 4991.41 2589.93   1
   4   1 -13 1736.85 688.774   1
  -4  -1  12 1981.60 1187.61   1
   4   1 -12 860.138 597.921   1
  -4  -1  11 4064.98 1855.00   1
   4   1 -11 2374.92 689.705   1
  -4  -1  10 2772.48 1283.72   1
   4   1 -10 5173.48 1155.50   1
  -4  -1   9 966.615 1098.53   1
   4   1  -9 211.704 561.556   1
  -4  -1   818720.00 2098.15   1
   4   1  -817288.90  897.52   1
  -4  -1   7161452.0 6170.35   1
   4   1  -7168717.0 6329.24   1
  -4  -1   6-353.318 1123.70   1
   4   1  -6 236.929 374.772   1
  -4  -1   5198812.0 4746.53   1
   4   1  -5204091.0 4120.19   1
  -4  -1   4 850.281 879.339   1
   4   1  -4-20.7164 565.924   1
   4   1  -4 554.979 474.109   1
  -4  -1   357434.50 1775.57   1
  -4  -1   360987.40 2974.55   1
   4   1  -357400.70 1601.21   1
  -4  -1   293394.00 2201.35   1
  -4  -1   294211.60 2545.68   1
   4   1  -289912.90 1910.54   1
  -4  -1   1 877.907 834.617   1
  -4  -1   1-2.64971  917.38   1
  -4  -1   087421.60 2188.13   1
  -4  -1   090943.70 2714.64   1
  -4  -1  -1 4454.75 891.073   1
  -4  -1  -1 6072.61 1405.39   1
  -4  -1  -2 413.963 1195.94   1
  -4  -1  -2 630.627 710.356   1
  -4  -1  -314009.30 1204.09   1
  -4  -1  -314848.30 1485.46   1
  -4  -1  -4 1848.54 659.334   1
  -4  -1  -4 1599.56 971.667   1
  -4  -1  -5 1496.46 622.398   1
  -4  -1  -5 44.8947 810.917   1
  -4  -1  -6 8793.83 1710.62   1
  -4  -1  -6 9623.82 2220.52   1
  -4  -1  -7 4809.79 1594.54   1
  -4  -2  13 8351.66 2249.89   1
   4   2 -13 9221.57 1250.26   1
  -4  -2  1224592.30 3196.10   1
   4   2 -1221991.40 1624.51   1
  -4  -2  1152685.00 3440.68   1
   4   2 -1144579.60 1833.46   1
  -4  -2  1016563.90 2388.67   1
   4   2 -1014845.60 1343.75   1
  -4  -2   9 2471.02 1645.32   1
   4   2  -9 940.868  562.61   1
  -4  -2   878810.70 3489.06   1
   4   2  -879918.00 2580.68   1
  -4  -2   7 1573.13 1222.14   1
   4   2  -7 774.134 1175.76   1
  -4  -2   6 6735.44 1691.36   1
   4   2  -6 5411.10 1422.10   1
  -4  -2   5 2662.14 1480.60   1
   4   2  -5 112.836 403.046   1
  -4  -2   4 785.072 1011.07   1
  -4  -2   4 1768.78 1714.33   1
  -4  -2   3 21.2576  919.28   1
  -4  -2   3 845.181 1158.09   1
  -4  -2   233253.60 1658.66   1
  -4  -2   232271.40 2361.39   1
  -4  -2   1113487.0 2935.77   1
  -4  -2   1110774.0 3379.46   1
  -4  -2   0244709.0 8693.98   1
  -4  -2   0246938.0 8948.64   1
  -4  -2  -1147883.0 5607.79   1
  -4  -2  -1149934.0 5552.80   1
  -4  -2  -214552.40 939.169   1
  -4  -2  -213831.20 1505.55   1
  -4  -2  -315960.00 874.038   1
  -4  -2  -320052.90 1574.66   1
  -4  -2  -419082.30 1167.47   1
  -4  -2  -420552.80 1952.02   1
  -4  -2  -5 4392.08 570.498   1
  -4  -2  -5 4071.12 1597.69   1
  -4  -2  -6 2131.22 1600.96   1
  -4  -2  -7 299.703 989.897   1
  -4  -3  13 777.261 1442.36   1
   4   3 -13 890.421 640.663   1
  -4  -3  12 552.042 1422.52   1
   4   3 -12 468.265 565.165   1
  -4  -3  11 3419.23 2265.49   1
   4   3 -11 2715.97 1014.90   1
  -4  -3  10 1006.37 1411.00   1
   4   3 -10 149.948 601.532   1
  -4  -3   961372.00 3899.01   1
   4   3  -966822.40 3358.94   1
  -4  -3   8 4344.63 1847.88   1
   4   3  -8 3716.67 664.382   1
  -4  -3   7 1243.23 1218.82   1
   4   3  -7 351.804 494.144   1
  -4  -3   653430.90 3774.00   1
   4   3  -657789.70 3353.28   1
  -4  -3   5 2609.88 3028.66   1
   4   3  -5-654.311 1184.57   1
  -4  -3   445653.80 2843.85   1
  -4  -3   449097.50 3365.02   1
  -4  -3   383686.30 3523.08   1
  -4  -3   394479.60 4543.07   1
  -4  -3   2-637.556 1697.55   1
  -4  -3   2-409.932 1164.24   1
  -4  -3   1234633.0 6137.45   1
  -4  -3   1225126.0 8204.55   1
  -4  -3   015160.20 2445.85   1
  -4  -3   016356.00 2713.69   1
  -4  -3  -1 9257.66 1028.89   1
  -4  -3  -1 9636.80 1372.39   1
  -4  -3  -221144.50 968.748   1
  -4  -3  -223079.30 1641.73   1
  -4  -3  -344840.40 1700.57   1
  -4  -3  -343627.40 2522.54   1
  -4  -3  -4 3481.40 626.639   1
  -4  -3  -4 1440.76 1100.68   1
  -4  -3  -5 830.825 1225.94   1
  -4  -3  -622613.50 2270.38   1
  -4  -4  1211215.50 2387.99   1
   4   4 -1214323.50 1418.79   1
  -4  -4  1132315.50 3546.57   1
   4   4 -1127115.20 1511.93   1
  -4  -4  10 1983.44 1579.17   1
   4   4 -10 144.725 598.725   1
  -4  -4   9 8880.10 2042.96   1
   4   4  -911036.20 1167.12   1
  -4  -4   8 983.648 1302.34   1
   4   4  -8 1424.53 787.077   1
  -4  -4   7 1711.48 1337.70   1
   4   4  -7 2125.57 813.535   1
  -4  -4   655849.50 2978.45   1
   4   4  -653573.90 1955.12   1
  -4  -4   5 8170.66 2275.66   1
  -4  -4   4 2976.65 3177.60   1
  -4  -4   410207.00 2592.88   1
  -4  -4   3 7752.43 3184.38   1
  -4  -4   316319.70 3181.14   1
  -4  -4   230048.40 2115.10   1
  -4  -4   227846.10 2469.29   1
  -4  -4   124478.50 1758.14   1
  -4  -4   125777.80 2348.95   1
  -4  -4   066723.00 2307.04   1
  -4  -4   069269.40 3183.51   1
  -4  -4  -1154928.0 7339.35   1
  -4  -4  -1161529.0 8074.92   1
  -4  -4  -220699.70 1336.44   1
  -4  -4  -221947.70 2195.58   1
  -4  -4  -3  294.10 302.527   1
  -4  -4  -3 -474.78 1151.58   1
  -4  -4  -415644.60 2226.04   1
  -4  -4  -5 1804.96 1512.12   1
  -4  -5  1210637.00 2250.11   1
   4   5 -12 8391.54 1089.84   1
  -4  -5  11 2189.10 1680.43   1
   4   5 -11 203.137 611.439   1
  -4  -5  10 3929.23 1904.10   1
   4   5 -10 3535.82 1183.25   1
  -4  -5   912724.30 2644.60   1
   4   5  -910337.40 1152.16   1
  -4  -5   8 2571.16 1410.91   1
   4   5  -8 461.802 632.178   1
  -4  -5   7 116.386 1307.12   1
   4   5  -7  60.338 558.104   1
  -4  -5   6147632.0 5138.81   1
   4   5  -6150242.0 4122.08   1
  -4  -5   5 1485.99 1303.96   1
  -4  -5   5 717.891 1283.33   1
  -4  -5   455510.00 2963.85   1
  -4  -5   459954.90 5792.94   1
  -4  -5   3  389.31 1094.35   1
  -4  -5   3 375.943 1145.53   1
  -4  -5   211723.30 1566.37   1
  -4  -5   211723.00 2316.86   1
  -4  -5   112533.10 1522.99   1
  -4  -5   1 9724.09 1801.39   1
  -4  -5   0 6547.89 1212.66   1
  -4  -5   0 2406.92 1276.60   1
  -4  -5  -171686.70 3047.15   1
  -4  -5  -168946.60 3757.40   1
  -4  -5  -2 9522.27 2051.48   1
  -4  -5  -3 1785.70 1410.49   1
  -4  -5  -419451.40 2553.44   1
  -4  -6  12 2562.32 2310.26   1
   4   6 -12 1854.10 784.725   1
  -4  -6  1144530.80 4545.77   1
   4   6 -1141987.20 2435.07   1
  -4  -6  1010891.40 2836.30   1
   4   6 -1011549.00 1522.04   1
  -4  -6   9 1038.35 1606.72   1
   4   6  -9 354.547 620.779   1
  -4  -6   8 3339.63 2251.37   1
   4   6  -8 4748.43 1290.85   1
  -4  -6   7 2248.22 1759.09   1
   4   6  -7 2056.84 899.533   1
  -4  -6   6 3711.76 1670.36   1
   4   6  -6 9271.31 1250.43   1
  -4  -6   527580.30 3031.44   1
  -4  -6   531665.20 3038.25   1
  -4  -6   4 1791.02 1466.95   1
  -4  -6   4 3520.86 1544.26   1
  -4  -6   335685.70 2589.78   1
  -4  -6   333211.60 3995.09   1
  -4  -6   2 2397.35 1501.79   1
  -4  -6   2 1821.18 1492.37   1
  -4  -6   1 3388.05 1157.85   1
  -4  -6   1 2735.51 2025.33   1
  -4  -6   022783.60 1563.84   1
  -4  -6   027314.60 3009.35   1
  -4  -6  -1142658.0 5767.58   1
  -4  -6  -212869.10 3137.09   1
  -4  -6  -3  737.78 1614.97   1
  -4  -7  11 2305.02 2353.26   1
   4   7 -11 602.988 633.683   1
  -4  -7  10 5221.03 2124.31   1
   4   7 -10 4643.40 1042.05   1
  -4  -7   9 8583.31 3124.35   1
   4   7  -9 6666.80 1149.31   1
  -4  -7   886762.00 4230.12   1
   4   7  -898375.20 3313.16   1
  -4  -7   712918.00 2732.00   1
   4   7  -713596.30 1310.93   1
  -4  -7   6 4982.69 1892.14   1
   4   7  -6 7196.15 1103.66   1
  -4  -7   5 20.0854 1262.80   1
  -4  -7   5 3266.03 2052.19   1
  -4  -7   4160270.0 6809.47   1
  -4  -7   4161826.0 5355.25   1
  -4  -7   320129.00 2386.67   1
  -4  -7   316542.50 4210.28   1
  -4  -7   2 4010.07 1593.96   1
  -4  -7   2 6293.93 2495.14   1
  -4  -7   1 323.312 617.004   1
  -4  -7   1 759.271 1570.29   1
  -4  -7   0 1318.23 1714.77   1
  -4  -7  -128241.50 3557.68   1
  -4  -7  -2 1668.05 1527.70   1
  -4  -8  10 930.371 1889.85   1
   4   8 -10 1562.17  927.66   1
  -4  -8   9 2282.68 1798.53   1
   4   8  -9 630.775 592.643   1
  -4  -8   830157.70 3422.60   1
   4   8  -828855.00 2036.68   1
  -4  -8   7 2778.03 1668.17   1
   4   8  -7 3898.01 947.982   1
  -4  -8   630871.60 3345.79   1
   4   8  -629340.10 2197.14   1
  -4  -8   5 3051.70 2423.69   1
  -4  -8   5 688.212 1782.02   1
  -4  -8   4 4910.77 2236.88   1
  -4  -8   4 2053.12 1838.02   1
  -4  -8   3 3150.23 1769.82   1
  -4  -8   3 4016.37 3340.11   1
  -4  -8   2 1345.51 737.901   1
  -4  -8   2 2267.27 1802.53   1
  -4  -8   111393.10 2998.14   1
  -4  -8   0 6398.25 2370.41   1
  -4  -9   883105.20 5057.51   1
   4   9  -878446.40 3451.29   1
  -4  -9   714317.70 2744.29   1
   4   9  -710868.70 1001.79   1
  -4  -9   629019.40 2866.31   1
   4   9  -625337.30 1701.65   1
  -4  -9   5 1289.73 1212.87   1
  -4  -9   5 3693.96 2547.65   1
  -4  -9   422167.50 2397.92   1
  -4  -9   428624.80 4694.23   1
  -4  -9   3 2557.69 2430.29   1
  -4  -9   2 2751.80 2316.85   1
  -5  11  -1-180.479  445.61   1
  -5  11  -1 772.103 811.392   1
  -5  11  -2 1542.61 601.129   1
  -5  11  -2 1453.35 745.479   1
  -5  11  -317892.50 1377.09   1
  -5  11  -317347.00 1298.55   1
  -5  11  -438153.80 1925.03   1
  -5  11  -433638.10 1880.93   1
   5 -10  -3 3048.18 1208.07   1
  -5  10   2 373.886 483.317   1
  -5  10   1 56.8826 291.244   1
  -5  10   1 545.616 491.044   1
  -5  10   029335.80 1285.07   1
  -5  10  -1 6316.78 1325.48   1
  -5  10  -228565.70 1357.49   1
  -5  10  -226834.10 1257.19   1
  -5  10  -311273.90 1183.45   1
  -5  10  -310879.20 1008.14   1
  -5  10  -4 7159.34 1021.76   1
  -5  10  -4 8233.63 1097.74   1
  -5  10  -5 2208.90 709.168   1
  -5  10  -5 3055.16  710.84   1
  -5  10  -6 1140.44 654.078   1
  -5  10  -6 928.173 549.713   1
   5  -9  -5 1895.75 1165.88   1
   5  -9  -4 4683.15 2804.74   1
   5  -9  -3 1999.81 1111.89   1
  -5   9   2 9386.09 767.704   1
  -5   9   1 5244.09 718.473   1
  -5   9   1 6584.73 755.667   1
  -5   9   020080.60 1457.64   1
  -5   9   023055.00 1118.91   1
  -5   9  -1127793.0 4806.43   1
  -5   9  -1133904.0 4917.34   1
  -5   9  -211466.60 1105.20   1
  -5   9  -212580.90 1048.56   1
  -5   9  -3 7320.28 1066.50   1
  -5   9  -3 7418.93 681.512   1
  -5   9  -4 9011.10 1905.30   1
  -5   9  -4 9212.74 1788.26   1
  -5   9  -5-343.961 625.422   1
  -5   9  -5 503.761 396.638   1
  -5   9  -6 954.644 620.047   1
  -5   9  -6 381.553 514.303   1
   5  -8  -758700.90 3684.35   1
   5  -8  -6 244.494 590.428   1
   5  -8  -5 7779.98 1169.82   1
   5  -8  -472919.30 3397.26   1
   5  -8  -3 8107.76 1748.45   1
  -5   8   217803.90 800.834   1
  -5   8   217981.30 627.484   1
  -5   8   1  635.30  465.50   1
  -5   8   1 542.832 361.271   1
  -5   8   072452.50 3515.07   1
  -5   8   078451.00 3690.23   1
  -5   8  -1 9637.46  831.71   1
  -5   8  -111045.60 643.342   1
  -5   8  -2 574.509 478.896   1
  -5   8  -2 589.883 342.949   1
  -5   8  -335206.60 1739.09   1
  -5   8  -338841.70 1726.76   1
  -5   8  -426201.90 1267.65   1
  -5   8  -429321.50 1064.95   1
  -5   8  -5 1335.46 671.929   1
  -5   8  -5 2445.74 795.664   1
  -5   8  -611206.00 1349.70   1
  -5   8  -614218.10 1263.18   1
  -5   8  -7 1416.02 874.504   1
  -5   8  -7 1390.68 547.392   1
   5  -7  -8-71.4696 601.599   1
   5  -7  -718804.70 1472.41   1
   5  -7  -632259.50 1909.96   1
   5  -7  -5 2577.40 1011.73   1
  -5   7   4 7894.11 510.473   1
   5  -7  -410277.90 1380.81   1
  -5   7   3 3440.65 494.122   1
   5  -7  -3 3684.18 1131.64   1
  -5   7   236646.90 2467.89   1
  -5   7   240445.10 752.095   1
  -5   7   110888.10 709.997   1
  -5   7   110012.40 717.698   1
  -5   7   111700.60 506.379   1
  -5   7   0 439.591 410.727   1
  -5   7   0 1096.43 300.956   1
  -5   7  -175585.30 2316.12   1
  -5   7  -174825.50 2105.71   1
  -5   7  -2 418.652 436.372   1
  -5   7  -2 295.602 486.229   1
  -5   7  -312001.00 1138.11   1
  -5   7  -310778.60 812.495   1
  -5   7  -410634.50 1278.30   1
  -5   7  -4 9087.82  845.65   1
  -5   7  -5 6300.50 895.544   1
  -5   7  -5 5581.91  877.90   1
  -5   7  -6 5033.70 1284.13   1
  -5   7  -6 3527.91 804.984   1
  -5   7  -732454.10 2054.89   1
  -5   7  -730990.70 1960.43   1
   5  -6 -1043396.30 2397.52   1
   5  -6  -9 6323.55 1317.53   1
   5  -6  -8 7754.94 1056.11   1
   5  -6  -7 747.391 706.612   1
  -5   6   625447.30 976.467   1
   5  -6  -622652.00 1247.12   1
  -5   6   5 102.013 245.863   1
   5  -6  -5 1067.53 835.483   1
  -5   6   479192.80 2556.63   1
  -5   6   478902.80 2377.38   1
   5  -6  -473728.90 2535.79   1
  -5   6   475700.00 2164.57   1
  -5   6   385780.20 3044.20   1
   5  -6  -387744.70 3326.72   1
  -5   6   380884.70 2759.95   1
  -5   6   236396.20 1519.41   1
  -5   6   234937.80 1382.69   1
  -5   6   237286.40 1333.38   1
  -5   6   1 598.653  608.90   1
  -5   6   1 761.213 527.475   1
  -5   6   1 935.745 298.753   1
  -5   6   037369.00 1603.45   1
  -5   6   036546.00 1795.80   1
  -5   6   038174.40 1387.63   1
  -5   6  -113928.70 837.361   1
  -5   6  -112852.40 587.807   1
  -5   6  -2 9659.49 1068.74   1
  -5   6  -2 9383.35 860.913   1
  -5   6  -325387.90 984.035   1
  -5   6  -324400.30 849.183   1
  -5   6  -4 99.5623  530.49   1
  -5   6  -4 106.829 408.343   1
  -5   6  -518993.00 1606.43   1
  -5   6  -519749.90 1657.97   1
  -5   6  -611434.70 1368.47   1
  -5   6  -6 9716.05 1935.19   1
  -5   6  -7 524.713 904.623   1
  -5   6  -7 -13.707 566.188   1
  -5   6  -891171.10 3793.58   1
  -5   6  -894301.40 3930.30   1
   5  -5 -11-408.462 555.014   1
   5  -5 -10 4311.85 1200.94   1
   5  -5  -926731.90 1763.17   1
   5  -5  -812256.60 1305.87   1
  -5   5   7 677.989 525.272   1
   5  -5  -7-155.066 462.512   1
  -5   5   6 4492.88 704.307   1
   5  -5  -6 4408.03 275.687   1
   5  -5  -6 3936.37 932.736   1
  -5   5   5 3653.45  611.34   1
   5  -5  -5 2830.81  254.46   1
   5  -5  -5 2704.80 626.249   1
  -5   5   5 2970.73 280.906   1
  -5   5   454544.40 2096.08   1
   5  -5  -453670.90 2069.60   1
  -5   5   454753.00 1861.47   1
  -5   5   3144912.0 5105.29   1
  -5   5   3144425.0 4891.37   1
  -5   5   3150799.0 5100.38   1
  -5   5   2 1412.30 555.713   1
  -5   5   2 2741.73 358.582   1
  -5   5   1577619.079081.60   1
  -5   5   1535708.073338.00   1
  -5   5   1564986.077300.70   1
  -5   5   030547.50 1475.79   1
  -5   5   029805.20 1630.99   1
  -5   5   028546.50 1121.65   1
  -5   5  -139358.40 1696.80   1
  -5   5  -140567.40 1563.07   1
  -5   5  -2 7092.11 730.956   1
  -5   5  -2 5050.28 593.626   1
  -5   5  -3 614.123 477.965   1
  -5   5  -3 542.608 594.167   1
  -5   5  -4 5740.23 765.331   1
  -5   5  -4 4935.18  791.33   1
  -5   5  -5 2179.07 935.952   1
  -5   5  -5 3390.53 840.963   1
  -5   5  -6 1430.29  921.74   1
  -5   5  -6 1168.14 670.718   1
  -5   5  -736343.00 2376.42   1
  -5   5  -739020.90 2542.69   1
  -5   5  -8 1582.23 680.701   1
  -5   5  -8 1358.37 830.745   1
   5  -4 -11 9250.48 1590.45   1
   5  -4 -10 4529.92 1467.45   1
   5  -4  -9 1150.36  640.42   1
   5  -4  -828600.80 1307.25   1
  -5   4   7165220.0 4567.31   1
   5  -4  -7161445.0 4323.64   1
  -5   4   611080.50 1030.17   1
   5  -4  -612021.50 697.139   1
  -5   4   610482.20 419.138   1
  -5   4   5 836.001 571.632   1
   5  -4  -5 832.734  347.27   1
  -5   4   5 1539.04 320.321   1
  -5   4   444557.60 1865.62   1
  -5   4   449627.10 1706.65   1
  -5   4   311616.90  794.37   1
  -5   4   2276986.0 5615.64   1
  -5   4   1129103.0 2930.88   1
  -5   4   1134496.0 2954.62   1
  -5   4   1129680.0 2542.88   1
  -5   4   010841.20 1118.90   1
  -5   4   011072.30 932.433   1
   5  -4   010917.90 822.727   1
  -5   4  -1 1347.48 856.177   1
  -5   4  -1 569.492 379.794   1
   5  -4   1 220.769 177.366   1
  -5   4  -2 428.149 643.956   1
  -5   4  -2 2098.64 649.812   1
  -5   4  -3 375.658 735.125   1
  -5   4  -3 197.482 440.781   1
  -5   4  -4 1765.28 722.503   1
  -5   4  -4 2002.47 759.345   1
  -5   4  -547347.70 2176.99   1
  -5   4  -553952.20 2497.31   1
  -5   4  -6115295.0 2208.08   1
  -5   4  -6113506.0 2307.31   1
  -5   4  -710067.50 1217.55   1
  -5   4  -7 7393.08 1487.82   1
  -5   4  -8 0.73343 562.749   1
  -5   4  -8 194.988 607.767   1
   5  -3 -12 2189.88 1067.76   1
   5  -3 -11 1737.34 715.453   1
   5  -3 -10 341.651 484.497   1
  -5   3   9 805.845 623.454   1
   5  -3  -9 779.102 438.527   1
  -5   3   845898.20 2661.34   1
   5  -3  -841138.10 2181.11   1
  -5   3   730017.20 1688.27   1
   5  -3  -728799.30 1252.78   1
  -5   3   619937.50 1081.94   1
   5  -3  -618889.40 2665.56   1
  -5   3   617823.90 2485.09   1
  -5   3   585848.80 3273.92   1
   5  -3  -581225.60 2850.86   1
  -5   3   583528.00 2872.15   1
  -5   3   438436.30 2853.49   1
  -5   3   324763.40 1076.80   1
  -5   3   252041.50 1530.15   1
  -5   3   1197838.0 4164.94   1
  -5   3   1196412.0 3844.21   1
   5  -3  -1199192.0 3798.46   1
  -5   3   0108936.0 2593.42   1
  -5   3   0102857.0 2217.28   1
   5  -3   0106862.0 2192.85   1
  -5   3  -116524.60 1531.25   1
  -5   3  -117889.40 1428.00   1
  -5   3  -221001.70 1471.11   1
  -5   3  -223584.60 1285.03   1
  -5   3  -3 9981.92 1012.55   1
  -5   3  -310787.50 979.703   1
  -5   3  -4 1038.68 754.901   1
  -5   3  -4 1100.47 754.221   1
  -5   3  -558625.20 2707.13   1
  -5   3  -554378.30 2554.22   1
  -5   3  -616122.20 1145.62   1
  -5   3  -615269.00 1255.81   1
  -5   3  -7 128.696 556.168   1
  -5   3  -7 621.513 687.468   1
  -5   3  -8  419.58 634.978   1
  -5   3  -8 1457.19 724.771   1
   5  -2 -1215649.30 1417.61   1
   5  -2 -1155095.10 2415.38   1
  -5   2  10 809.576  930.41   1
   5  -2 -10 360.658 432.546   1
  -5   2   929569.50 1979.15   1
   5  -2  -931236.20 1508.73   1
  -5   2   8 7973.23 1513.92   1
   5  -2  -8 8552.22 826.478   1
  -5   2   7180724.0 6506.36   1
   5  -2  -7159589.0 5378.14   1
  -5   2   624259.30 2179.79   1
   5  -2  -623979.70 1801.60   1
  -5   2   624443.20 1747.18   1
  -5   2   5 5015.32  991.97   1
   5  -2  -5 5642.46 338.607   1
  -5   2   5 6390.54 338.223   1
  -5   2   4 4933.79 1158.02   1
   5  -2  -4 3569.45 437.996   1
  -5   2   322643.60 1245.27   1
   5  -2  -323020.90 520.514   1
  -5   2   2103111.0 2507.04   1
   5  -2  -2108041.0 2119.99   1
  -5   2   160506.80 1802.93   1
  -5   2   160009.10 1554.49   1
   5  -2  -159468.20 1312.34   1
  -5   2   092291.50 2283.14   1
  -5   2   094926.80 2214.76   1
   5  -2   093044.80 2009.14   1
  -5   2  -1130750.0 4826.52   1
  -5   2  -1138653.0 4980.01   1
  -5   2  -254437.40 2496.42   1
  -5   2  -257468.80 2367.54   1
  -5   2  -346818.80 1763.44   1
  -5   2  -347105.20 1808.91   1
  -5   2  -413339.40 1240.71   1
  -5   2  -411367.90 1119.47   1
  -5   2  -5 9458.70 1172.72   1
  -5   2  -5 9903.38 1346.95   1
  -5   2  -640540.60 1779.20   1
  -5   2  -643228.00 2222.62   1
  -5   2  -7-21.9963 457.486   1
  -5   2  -7 594.078  703.74   1
   5  -1 -12 728.549 688.309   1
  -5   1  11 1369.08 1070.32   1
   5  -1 -11 237.791 525.403   1
  -5   1  1013880.40 1879.43   1
   5  -1 -1012402.50 1106.58   1
  -5   1   9 7615.67 1457.22   1
   5  -1  -9 7135.87 833.295   1
  -5   1   811701.50 1819.44   1
   5  -1  -810778.70 1006.86   1
  -5   1   7 81.2764 931.282   1
   5  -1  -7-44.8318 524.362   1
  -5   1   640755.80 2128.23   1
   5  -1  -643381.40 1956.82   1
  -5   1   644259.50 1654.91   1
  -5   1   5 1627.55 876.829   1
   5  -1  -5 1116.54 671.349   1
   5  -1  -5 2351.94 361.734   1
  -5   1   4298678.0 6268.46   1
   5  -1  -4295137.0 5904.60   1
   5  -1  -4306133.0 5811.02   1
  -5   1   375638.10 2135.79   1
  -5   1   380843.50 2750.76   1
   5  -1  -377720.30 1774.86   1
  -5   1   2307940.0 6294.90   1
  -5   1   2304478.0 6151.00   1
   5  -1  -2306179.0 5928.01   1
  -5   1   135655.30 1407.31   1
  -5   1   133006.40 1241.05   1
   5  -1  -133937.00 1018.70   1
  -5   1   0244772.0 8528.30   1
  -5   1   0243761.0 8482.37   1
  -5   1  -1106736.0 4722.73   1
  -5   1  -1101217.0 3899.84   1
  -5   1  -214485.40 2239.52   1
  -5   1  -216307.60 2512.39   1
  -5   1  -3 5207.29 777.395   1
  -5   1  -3 3543.95 859.331   1
  -5   1  -4 2477.74 1035.77   1
  -5   1  -4 3126.94 930.241   1
  -5   1  -524242.20 1037.60   1
  -5   1  -525374.50 1616.68   1
  -5   1  -6 1849.52 837.044   1
  -5   1  -6 249.421 848.987   1
  -5   1  -7 40.1937 427.725   1
  -5   1  -7 596.669 740.667   1
   5   0 -1319599.00 1380.97   1
  -5   0  1214036.20 2573.25   1
   5   0 -1211258.30 1242.61   1
  -5   0  1136177.80 2636.24   1
   5   0 -1133311.20 1569.39   1
  -5   0  1024333.20 2278.13   1
   5   0 -1027072.70 1385.09   1
  -5   0   9154670.0 7986.82   1
   5   0  -9147567.0 6888.65   1
  -5   0   831525.10 2393.29   1
   5   0  -828905.00 1210.44   1
  -5   0   7-255.463 1010.75   1
   5   0  -7 281.473 751.045   1
  -5   0   688385.70 4011.77   1
   5   0  -672572.00 3438.85   1
   5   0  -684170.40 3245.31   1
  -5   0   5190491.0 4712.20   1
   5   0  -5175344.0 4126.20   1
   5   0  -5192281.0 3843.25   1
  -5   0   435118.50 1794.31   1
   5   0  -435405.90 1457.86   1
   5   0  -432179.00 944.717   1
  -5   0   331950.10 1574.02   1
   5   0  -330608.90 1129.25   1
  -5   0   2 304.844 649.677   1
  -5   0   2 930.229 724.515   1
   5   0  -2 1466.96  458.15   1
  -5   0   140271.90 1543.27   1
  -5   0   139598.70 3018.11   1
  -5   0   010447.10 1496.67   1
  -5   0   013280.00 1602.40   1
  -5   0  -1-200.825 1558.30   1
  -5   0  -1-57.7098 707.144   1
  -5   0  -255799.10 2085.14   1
  -5   0  -256299.50 2337.56   1
  -5   0  -3 467.758 715.047   1
  -5   0  -3 464.181 653.437   1
  -5   0  -417212.40 1235.55   1
  -5   0  -417349.80 1641.94   1
  -5   0  -5 4620.55  749.58   1
  -5   0  -5 5843.34 1271.86   1
  -5   0  -618202.40 1432.95   1
  -5   0  -623566.80 2140.42   1
  -5   0  -7 375.043 887.367   1
  -5  -1  1318520.70 3271.09   1
   5   1 -1320087.60 1301.58   1
  -5  -1  12 7901.83 2316.57   1
   5   1 -12 6508.81 1153.20   1
  -5  -1  11 329.361 1130.38   1
   5   1 -11 1821.01 651.014   1
  -5  -1  10 457.148 1184.55   1
   5   1 -10 2322.16 718.765   1
  -5  -1   916250.00 2076.44   1
   5   1  -916357.10 978.301   1
  -5  -1   865334.00 3006.74   1
   5   1  -865323.50 2012.51   1
  -5  -1   7 4952.35 1750.25   1
   5   1  -7 3355.02 984.397   1
  -5  -1   6 8864.64 1538.52   1
   5   1  -610093.80 2141.97   1
  -5  -1   5 5129.45 1327.80   1
   5   1  -5 3865.67 720.362   1
  -5  -1   454712.30 2124.62   1
  -5  -1   455448.10 2310.50   1
  -5  -1   3 4162.39 1028.96   1
  -5  -1   3 2380.51 1171.43   1
  -5  -1   2300880.010536.20   1
  -5  -1   2309464.042514.10   1
  -5  -1   118976.70 2579.90   1
  -5  -1   117714.20 2019.12   1
  -5  -1   0 5258.90 2906.38   1
  -5  -1   0 5211.97 1473.18   1
  -5  -1  -1245168.0 6898.90   1
  -5  -1  -1247187.0 7231.98   1
  -5  -1  -2195224.0 5242.65   1
  -5  -1  -2198187.0 5715.32   1
  -5  -1  -311425.50 1132.25   1
  -5  -1  -310901.10 1411.19   1
  -5  -1  -412828.70 911.851   1
  -5  -1  -414499.30 1641.82   1
  -5  -1  -5 2525.85 847.387   1
  -5  -1  -5-152.818 998.541   1
  -5  -1  -6 1377.30 906.675   1
  -5  -2  1342206.00 3626.13   1
   5   2 -1344539.90 2304.72   1
  -5  -2  12 4457.75 2115.25   1
   5   2 -12 5434.85 1032.28   1
  -5  -2  1121997.30 2634.14   1
   5   2 -1121267.10 1215.96   1
  -5  -2  10 9742.70 2019.25   1
   5   2 -10 9236.04 1038.31   1
  -5  -2   924289.20 2175.90   1
   5   2  -922941.70 1112.50   1
  -5  -2   8 1123.41 1069.32   1
   5   2  -8 1212.62 651.405   1
  -5  -2   7185520.0 6102.17   1
   5   2  -7171607.0 4850.58   1
  -5  -2   652190.50 3326.91   1
   5   2  -647794.60 2733.13   1
  -5  -2   538947.60 3462.99   1
   5   2  -528558.20 2844.78   1
  -5  -2   4-54.7502 1707.59   1
  -5  -2   4 572.534 683.384   1
  -5  -2   3-469.024 1932.46   1
  -5  -2   3-615.927 1139.38   1
  -5  -2   267074.20 5054.33   1
  -5  -2   248518.30 2849.05   1
  -5  -2   1 220.144 1689.74   1
  -5  -2   1 2113.90 1055.52   1
  -5  -2   0 644.905 600.747   1
  -5  -2   0 483.104 1236.17   1
  -5  -2  -1 7719.95 1049.84   1
  -5  -2  -110803.20 1635.81   1
  -5  -2  -243707.20 2435.86   1
  -5  -2  -246800.30 2999.34   1
  -5  -2  -3 1065.35 665.726   1
  -5  -2  -3 1854.34 1247.83   1
  -5  -2  -4 60.4711 406.188   1
  -5  -2  -4 1374.48 1034.21   1
  -5  -2  -526461.90 2452.63   1
  -5  -2  -6 384.118 1071.28   1
  -5  -3  1322067.00 3118.47   1
   5   3 -1312856.70 1225.26   1
  -5  -3  12 9439.09 2801.38   1
   5   3 -1210793.00 1117.97   1
  -5  -3  11 1776.21 2318.95   1
   5   3 -11 2408.89 760.567   1
  -5  -3  1016903.40 2417.76   1
   5   3 -1023503.40 1403.41   1
  -5  -3   9 698.399 1374.30   1
   5   3  -9 1819.53 909.453   1
  -5  -3   840097.80 2563.52   1
   5   3  -837263.80 1271.92   1
  -5  -3   727866.60 2816.84   1
   5   3  -723913.60 1829.01   1
  -5  -3   6103746.0 4091.21   1
   5   3  -6101460.0 3143.55   1
  -5  -3   5159081.0 6224.36   1
  -5  -3   5172693.0 7124.35   1
  -5  -3   4 4173.93 1834.30   1
  -5  -3   4 7165.86 3292.64   1
  -5  -3   3 2151.84 1238.10   1
  -5  -3   3 6424.26 2329.24   1
  -5  -3   233704.00 2029.10   1
  -5  -3   230842.00 2080.09   1
  -5  -3   1 672.179 1099.49   1
  -5  -3   1 608.718  999.99   1
  -5  -3   019607.70 1694.67   1
  -5  -3   019071.70 1974.04   1
  -5  -3  -1154101.0 4814.56   1
  -5  -3  -1162923.0 5703.46   1
  -5  -3  -2  885.99 612.704   1
  -5  -3  -2-837.372 1050.06   1
  -5  -3  -3 1086.23 617.169   1
  -5  -3  -3 688.421 1091.84   1
  -5  -3  -4 4623.73 1680.09   1
  -5  -3  -524544.50 2434.38   1
   5   4 -12 5583.28 926.715   1
  -5  -4  1110199.90 2766.87   1
   5   4 -1111046.90 1243.15   1
  -5  -4  1028749.20 2479.22   1
   5   4 -1028739.30 1235.22   1
  -5  -4   9 7039.38 2044.24   1
   5   4  -9 6831.55 1154.94   1
  -5  -4   833055.10 2872.60   1
   5   4  -830156.00 1431.36   1
  -5  -4   7478971.022215.30   1
   5   4  -7502509.017182.70   1
  -5  -4   6 2975.77 1831.59   1
   5   4  -6 3467.51 858.095   1
  -5  -4   513446.60 2162.03   1
  -5  -4   521111.10 2768.02   1
  -5  -4   420502.40 2158.38   1
  -5  -4   417178.30 6106.80   1
  -5  -4   323547.90 2264.34   1
  -5  -4   327569.40 2883.72   1
  -5  -4   225766.10 2370.14   1
  -5  -4   224383.80 2513.36   1
  -5  -4   1 9839.36 1467.27   1
  -5  -4   1 9090.09 1978.48   1
  -5  -4   0 1924.54 903.156   1
  -5  -4   0 1779.64 1734.15   1
  -5  -4  -1 8267.24 1078.77   1
  -5  -4  -1 9999.41 1943.90   1
  -5  -4  -259847.30 2227.69   1
  -5  -4  -260560.20 3332.61   1
  -5  -4  -312633.90 2115.22   1
  -5  -4  -4 2189.97 2192.58   1
  -5  -5  1221219.60 3137.00   1
   5   5 -1217910.90 1223.67   1
  -5  -5  11 2320.07 1728.20   1
   5   5 -11 1475.70 775.585   1
  -5  -5  10 2938.55 1969.84   1
   5   5 -10 2784.19 924.865   1
  -5  -5   912420.90 2178.91   1
   5   5  -913258.00 1226.70   1
  -5  -5   8 -183.27 1521.52   1
   5   5  -8 61.0803 732.494   1
  -5  -5   7 9116.98 2390.00   1
   5   5  -7 8117.27 1276.93   1
  -5  -5   6 7497.85 2166.85   1
   5   5  -6 7768.06 1232.74   1
  -5  -5   554989.00 3774.42   1
  -5  -5   556890.20 4225.72   1
  -5  -5   422024.60 2398.49   1
  -5  -5   425565.00 4846.00   1
  -5  -5   343239.00 2791.61   1
  -5  -5   345085.50 3196.47   1
  -5  -5   2 6776.38 1638.49   1
  -5  -5   2 3748.67 1506.07   1
  -5  -5   1 997.324 851.911   1
  -5  -5   1 259.172 2109.28   1
  -5  -5   0125627.0 2494.81   1
  -5  -5   0119032.0 3864.15   1
  -5  -5  -1 5846.99 1422.15   1
  -5  -5  -1 2019.71 1530.37   1
  -5  -5  -252207.00 4017.33   1
  -5  -5  -341815.30 3454.40   1
  -5  -6  1110510.00 2542.12   1
   5   6 -1112022.10 1237.39   1
  -5  -6  10 1225.37 1776.28   1
   5   6 -10 2447.61  845.13   1
  -5  -6   9-31.0909 1633.89   1
   5   6  -9-339.021 590.726   1
  -5  -6   835363.50 3221.71   1
   5   6  -835561.30 1511.05   1
  -5  -6   7212676.0 5257.51   1
   5   6  -7212219.0 2914.07   1
  -5  -6   610983.40 2499.87   1
   5   6  -613057.40 1513.59   1
  -5  -6   5 1143.87 1348.94   1
  -5  -6   5  864.70 1526.70   1
  -5  -6   421229.30 2408.15   1
  -5  -6   420943.40 3345.97   1
  -5  -6   3 546.387 830.994   1
  -5  -6   3 442.972 1390.70   1
  -5  -6   2-88.8147 828.239   1
  -5  -6   2 613.427 1564.69   1
  -5  -6   1 966.392 816.091   1
  -5  -6   1  658.38 1789.73   1
  -5  -6   0 3310.85 1769.83   1
  -5  -6  -142876.40 3987.64   1
  -5  -6  -227114.10 3096.50   1
  -5  -7  10 4337.52 2207.39   1
   5   7 -10 4447.42  998.44   1
  -5  -7   9 3954.38 2349.52   1
   5   7  -9 1426.08 644.786   1
  -5  -7   881461.80 5994.75   1
   5   7  -876021.00 4352.25   1
  -5  -7   721099.70 2604.32   1
   5   7  -720239.20 1356.03   1
  -5  -7   639150.00 2867.47   1
   5   7  -633659.10 1703.71   1
  -5  -7   5 6538.52 2085.34   1
  -5  -7   5 6787.80 3112.55   1
  -5  -7   459132.80 3654.08   1
  -5  -7   453205.30 3804.66   1
  -5  -7   324067.00 3011.61   1
  -5  -7   310046.70 8030.48   1
  -5  -7   2 -53.137 867.927   1
  -5  -7   2 1576.94 1868.94   1
  -5  -7   1 4840.08 3158.05   1
  -5  -7   059215.60 4137.48   1
  -5  -8   921622.40 2632.97   1
   5   8  -919638.60 1588.74   1
  -5  -8   8 7269.51 1955.77   1
   5   8  -8 6232.77 1060.30   1
  -5  -8   717525.60 2322.65   1
   5   8  -718396.30 1575.73   1
  -5  -8   6 1623.76 1431.18   1
   5   8  -6 1401.01 790.677   1
  -5  -8   544577.50 3356.66   1
  -5  -8   545342.40 4386.14   1
  -5  -8   4 2998.85 1883.71   1
  -5  -8   4 2193.47 2360.64   1
  -5  -8   3 3085.92 1343.23   1
  -5  -8   3 3383.66 2699.81   1
  -5  -8   2 2156.94 1840.82   1
  -6  11   0 237.129 567.735   1
  -6  11  -1 8323.77 959.434   1
  -6  11  -217049.50 1203.71   1
  -6  11  -312647.30 1074.05   1
  -6  10   0 9845.26 1909.03   1
  -6  10  -123231.20 1274.82   1
  -6  10  -2 810.609 675.304   1
  -6  10  -3 3890.38 989.068   1
  -6  10  -3 4839.89 1047.50   1
  -6  10  -410855.90  976.31   1
  -6  10  -411672.10 1164.34   1
  -6  10  -516970.30 1318.35   1
  -6  10  -515450.20 1448.00   1
  -6   9   3-37.5756  255.96   1
  -6   9   2 459.912 381.706   1
  -6   9   1 1400.25 578.744   1
  -6   9   027191.20 1174.31   1
  -6   9   026633.20 714.418   1
  -6   9  -1 355.314 384.107   1
  -6   9  -1  300.17 257.823   1
  -6   9  -233648.30 1277.69   1
  -6   9  -3 4248.12 1090.91   1
  -6   9  -4 5945.02 1024.95   1
  -6   9  -5 3056.21 1129.79   1
  -6   9  -5 3136.12 929.604   1
  -6   9  -6 1530.23 838.243   1
  -6   9  -6 2243.48  968.21   1
  -6   8   4 5640.24 669.717   1
  -6   8   3 8361.79 771.297   1
  -6   8   2  230.96 320.951   1
  -6   8   2 748.051 221.177   1
  -6   8   145680.50 1761.17   1
  -6   8   145562.20 1442.41   1
  -6   8   027685.10 1109.31   1
  -6   8  -146162.00 1830.28   1
  -6   8  -146729.20 1560.73   1
  -6   8  -223326.00 1495.02   1
  -6   8  -221080.20 1529.45   1
  -6   8  -3 2263.32 789.313   1
  -6   8  -3 3440.45 626.931   1
  -6   8  -4 4687.57 1386.76   1
  -6   8  -4 2733.92 849.855   1
  -6   8  -5 673.948 697.654   1
  -6   8  -5 745.458 452.023   1
  -6   8  -6 9466.15 1260.64   1
  -6   8  -6 9705.99 1052.07   1
   6  -7  -6 7458.33 1034.39   1
   6  -7  -565735.30 2444.36   1
  -6   7   464004.20 3128.33   1
   6  -7  -464266.60 3230.47   1
  -6   7   340271.80 2101.21   1
  -6   7   339948.70 1467.54   1
  -6   7   218445.40 1449.33   1
  -6   7   219637.50 1321.34   1
  -6   7   1 435.409 437.096   1
  -6   7   1 226.515 175.266   1
  -6   7   026791.70 983.396   1
  -6   7   027052.80 632.146   1
  -6   7  -134995.50 1227.24   1
  -6   7  -134709.80 840.341   1
  -6   7  -262025.90 2254.54   1
  -6   7  -262848.30 2079.85   1
  -6   7  -3 1136.13 787.545   1
  -6   7  -3 126.001 354.089   1
  -6   7  -428840.30 1247.49   1
  -6   7  -431522.00 1095.58   1
  -6   7  -5 3342.93 1148.52   1
  -6   7  -5 2594.33 835.785   1
  -6   7  -6 1987.68 783.434   1
  -6   7  -6 1521.18 841.606   1
   6  -6  -8 1197.32 534.566   1
   6  -6  -732567.70 1670.42   1
   6  -6  -631922.40 1401.68   1
  -6   6   553099.60 2726.43   1
  -6   6   452986.40 1813.80   1
  -6   6   3 5323.36 697.555   1
  -6   6   3 4881.91 157.501   1
  -6   6   3 5325.41 177.322   1
  -6   6   213982.20  956.98   1
  -6   6   213533.70 424.215   1
  -6   6   214240.00 309.746   1
  -6   6   1 394.787 486.726   1
  -6   6   1 473.359 472.268   1
  -6   6   1 147.093 165.033   1
  -6   6   0154455.0 3856.37   1
  -6   6  -1 4580.97 813.267   1
  -6   6  -1 5138.97 436.131   1
  -6   6  -2 3956.20 777.973   1
  -6   6  -2 3471.66 620.171   1
  -6   6  -331340.80 1607.13   1
  -6   6  -329259.00 992.899   1
  -6   6  -412082.70 1048.17   1
  -6   6  -410896.40  859.06   1
  -6   6  -5 2448.03 1192.00   1
  -6   6  -5 1008.50  678.63   1
  -6   6  -6 8745.09 1219.25   1
  -6   6  -6 9110.54 1490.93   1
  -6   6  -721281.70 1533.11   1
  -6   6  -719516.70 1555.99   1
   6  -5  -925648.20 1329.87   1
   6  -5  -870889.20 2890.87   1
  -6   5   752374.50 2077.26   1
   6  -5  -752433.30 1920.52   1
  -6   5   618982.70 1605.56   1
   6  -5  -619500.00 1453.77   1
  -6   5   513258.70 856.466   1
   6  -5  -514041.00 644.422   1
  -6   5   513737.10 297.827   1
  -6   5   4 5855.60 711.636   1
  -6   5   362445.40 2436.59   1
  -6   5   2 6937.94 1255.32   1
  -6   5   187160.40 3176.80   1
  -6   5   184807.80 3217.65   1
  -6   5   188201.00 2941.40   1
  -6   5   0 1261.38 601.243   1
  -6   5   0 108.985 187.961   1
   6  -5   0 256.932 203.788   1
  -6   5  -1 8059.96 757.799   1
  -6   5  -1 7699.86 605.701   1
  -6   5  -249067.60 1823.42   1
  -6   5  -249391.90 1672.16   1
  -6   5  -3146579.0 4512.61   1
  -6   5  -3147671.0 4446.66   1
  -6   5  -416644.90 1516.40   1
  -6   5  -417258.20 1459.52   1
  -6   5  -511434.80 1298.98   1
  -6   5  -513025.40 1086.11   1
  -6   5  -625121.90 1935.86   1
  -6   5  -624557.70 1894.59   1
  -6   5  -750604.20 2422.35   1
  -6   5  -750436.50 2523.14   1
   6  -4 -11 614.277 565.456   1
   6  -4 -10-54.9527 384.355   1
  -6   4   9 1121.32 747.055   1
   6  -4  -9 139.014 331.422   1
  -6   4   812830.80 1458.53   1
   6  -4  -811855.30 903.904   1
  -6   4   788554.90 2977.66   1
   6  -4  -789094.30 2481.73   1
  -6   4   6261742.0 7385.38   1
  -6   4   6246596.0 6462.82   1
  -6   4   5 4015.87 879.827   1
  -6   4   4 7841.70 1474.08   1
  -6   4   317389.30 1490.87   1
  -6   4   221970.60 1817.43   1
  -6   4   171213.10 2733.28   1
  -6   4   166907.60 2296.65   1
   6  -4  -167355.00 2247.54   1
  -6   4   0-451.418 528.588   1
  -6   4   0 165.937 219.261   1
   6  -4   0 -78.748 132.705   1
  -6   4  -1 841.957  543.72   1
  -6   4  -1 991.006  472.41   1
  -6   4  -283554.30 2646.63   1
  -6   4  -280214.60 2427.74   1
  -6   4  -311688.60 977.192   1
  -6   4  -310631.50 863.343   1
  -6   4  -414952.00 1641.48   1
  -6   4  -416510.30 1536.82   1
  -6   4  -5 1293.81 631.886   1
  -6   4  -5 2004.25 810.928   1
  -6   4  -6 5642.73 1253.28   1
  -6   4  -6 6899.02 1218.27   1
  -6   4  -7 3535.66 1110.31   1
  -6   4  -7 3264.13 957.129   1
   6  -3 -12 1749.64 708.413   1
   6  -3 -11 8471.43 1180.07   1
  -6   3  10 1030.29 849.665   1
   6  -3 -10 2158.19 562.343   1
  -6   3   978544.60 3911.43   1
   6  -3  -974984.70 2930.83   1
  -6   3   893448.10 4841.48   1
   6  -3  -894004.70 4444.35   1
  -6   3   7212127.0 5800.22   1
   6  -3  -7208706.0 5183.12   1
  -6   3   7205748.0 5029.92   1
  -6   3   623736.90 1566.34   1
  -6   3   625613.80 931.843   1
  -6   3   5 1490.46  765.35   1
   6  -3  -5 2759.98 411.983   1
  -6   3   4  633.72 679.514   1
  -6   3   319515.30 1662.75   1
  -6   3   235627.70 1617.60   1
  -6   3   237319.10 1437.81   1
  -6   3   148306.30 2154.98   1
  -6   3   147584.50 1864.32   1
   6  -3  -150628.50 1800.09   1
  -6   3  -1187351.0 5415.00   1
  -6   3  -1176663.0 4982.41   1
  -6   3  -237347.70 2680.67   1
  -6   3  -236285.00 2547.63   1
  -6   3  -383929.40 4212.95   1
  -6   3  -380733.50 4040.65   1
  -6   3  -416590.20 1654.96   1
  -6   3  -415187.70 1478.31   1
  -6   3  -5 401.944  521.01   1
  -6   3  -5 753.205 590.967   1
  -6   3  -6 2635.17 1031.31   1
  -6   3  -6 1467.06 966.876   1
  -6   3  -7 9117.04 1040.43   1
  -6   3  -7 9390.25 1540.30   1
   6  -2 -1210887.40 1108.24   1
  -6   2  11 1352.02 1151.79   1
  -6   2  10 467.275 889.747   1
   6  -2 -10 862.203 542.096   1
  -6   2   9 3452.85 1243.74   1
   6  -2  -9 4883.58 704.551   1
  -6   2   8 9472.41 1437.08   1
   6  -2  -810622.70 966.954   1
  -6   2   719802.70 1612.34   1
   6  -2  -720690.20 622.638   1
  -6   2   719086.80 544.611   1
  -6   2   623952.00 1757.42   1
   6  -2  -621876.10 915.681   1
   6  -2  -624755.20  941.60   1
  -6   2   510138.50 1276.44   1
   6  -2  -511551.20 942.674   1
  -6   2   482990.40 3335.18   1
   6  -2  -480993.20 2782.73   1
  -6   2   335984.40 1699.10   1
  -6   2   337882.00 1702.84   1
   6  -2  -337235.60 1328.13   1
  -6   2   230851.20 1671.95   1
  -6   2   226924.90 1345.03   1
   6  -2  -229890.00 1127.10   1
  -6   2   1160145.0 5949.35   1
  -6   2   1151882.0 5407.32   1
   6  -2  -1155936.0 5352.64   1
  -6   2   0206698.0 7211.24   1
  -6   2   0205910.0 6985.16   1
  -6   2  -115313.00 1005.01   1
  -6   2  -116394.00 1075.79   1
  -6   2  -2321139.0 8226.32   1
  -6   2  -2317181.0 8180.23   1
  -6   2  -3-439.974 712.098   1
  -6   2  -3 947.604 640.897   1
  -6   2  -4 4114.74 881.781   1
  -6   2  -4 5485.71 1172.07   1
  -6   2  -510612.50 1044.78   1
  -6   2  -5 9910.84 2214.70   1
  -6   2  -612992.00 1187.95   1
  -6   2  -611783.80 1451.64   1
  -6   1  12 2433.20 1550.63   1
   6  -1 -12 1444.24 808.618   1
  -6   1  1115584.20 2196.06   1
   6  -1 -1114891.70 1171.47   1
  -6   1  1032034.20 2417.43   1
   6  -1 -1039101.60 1746.98   1
  -6   1   9 5384.80 1427.94   1
   6  -1  -9 5516.28 682.282   1
  -6   1   817933.50 2153.10   1
   6  -1  -818935.90 1414.07   1
  -6   1   719625.20 1754.13   1
   6  -1  -720709.70  651.03   1
  -6   1   6224827.0 7914.23   1
   6  -1  -6215500.0 7375.31   1
   6  -1  -6219755.0 7189.04   1
  -6   1   5 1846.16 1112.02   1
   6  -1  -5 446.585 390.828   1
   6  -1  -5 922.335 252.775   1
  -6   1   4 117.567 722.975   1
   6  -1  -4 117.666 179.847   1
   6  -1  -4 257.741 206.185   1
  -6   1   312345.70 1446.54   1
  -6   1   314567.80 1565.53   1
   6  -1  -312811.90 1022.68   1
  -6   1   2 7791.87 1238.41   1
  -6   1   2 8347.44 1028.38   1
   6  -1  -2 8319.59 723.974   1
  -6   1   1 2262.40 838.481   1
  -6   1   0124335.0 4495.73   1
  -6   1   0121189.0 4406.45   1
  -6   1  -1151643.0 4546.07   1
  -6   1  -1158519.0 4855.00   1
  -6   1  -279694.90 3999.44   1
  -6   1  -276300.50 4003.32   1
  -6   1  -391248.00 3164.65   1
  -6   1  -390252.40 3238.98   1
  -6   1  -423877.60 1125.60   1
  -6   1  -426795.10 1580.55   1
  -6   1  -5 3104.92 972.406   1
  -6   1  -5 5115.60 1414.21   1
  -6   1  -6 7043.21 1005.94   1
  -6   1  -6 9038.41 1284.81   1
  -6   0  13 1499.30 1882.01   1
   6   0 -13 415.725 506.607   1
  -6   0  12 771.249 1610.55   1
   6   0 -12-40.6394 428.103   1
  -6   0  11 682.675 1586.28   1
   6   0 -11-251.769  466.35   1
  -6   0  1016399.00 2397.37   1
   6   0 -1011687.10 1014.22   1
  -6   0   922439.50 2214.00   1
   6   0  -924731.10 1483.44   1
  -6   0   853168.40 2779.09   1
   6   0  -849061.90 1560.36   1
  -6   0   714234.40 1568.06   1
   6   0  -713949.10 649.869   1
  -6   0   6 2573.04 1263.13   1
   6   0  -6 1309.70 882.713   1
  -6   0   522491.50 1994.16   1
   6   0  -516788.60 2440.21   1
   6   0  -530070.80 2036.95   1
  -6   0   412593.00 1810.30   1
  -6   0   413624.30 1814.08   1
   6   0  -412620.90 1091.87   1
  -6   0   3 2533.08 1194.99   1
  -6   0   3 3838.42 1043.26   1
   6   0  -3 2844.66 474.974   1
  -6   0   2 7904.23 1540.14   1
  -6   0   1 4500.30 1563.26   1
  -6   0   1 9287.81 1798.40   1
  -6   0   060644.70 2363.98   1
  -6   0   059557.80 2603.83   1
  -6   0  -1118433.0 3539.69   1
  -6   0  -1127358.0 4052.84   1
  -6   0  -286568.20 3070.73   1
  -6   0  -290733.60 3490.98   1
  -6   0  -3 2069.37  732.88   1
  -6   0  -3 3521.71 1251.14   1
  -6   0  -419581.20 1231.17   1
  -6   0  -418272.70 1775.24   1
  -6   0  -5 5152.00 852.659   1
  -6   0  -5 4940.77 1234.68   1
  -6   0  -6 4684.86 956.268   1
  -6   0  -6 6737.66 1389.39   1
  -6  -1  13 1321.63 1509.01   1
   6   1 -13 595.541 508.903   1
  -6  -1  12 2561.54 1414.01   1
   6   1 -12 2087.83 755.276   1
  -6  -1  11 1741.82 1771.58   1
   6   1 -11 103.854 454.317   1
  -6  -1  1049270.90 3209.17   1
   6   1 -1042704.80 1867.32   1
  -6  -1   974402.10 3333.67   1
   6   1  -986885.60 2821.37   1
  -6  -1   8 1054.14 1045.49   1
   6   1  -8  348.60 586.154   1
  -6  -1   7139546.0 4909.82   1
   6   1  -7133967.0 3829.33   1
  -6  -1   6188666.0 5942.07   1
   6   1  -6176427.0 4900.91   1
  -6  -1   5 569.136 1187.71   1
   6   1  -5 1203.48 1129.50   1
  -6  -1   4-96.1428 1479.55   1
  -6  -1   4 940.351 1057.58   1
  -6  -1   3 4824.04 1768.61   1
  -6  -1   312624.00 2466.25   1
  -6  -1   260284.80 2659.96   1
  -6  -1   260473.40 2851.84   1
  -6  -1   1 3444.27 1397.90   1
  -6  -1   1 2823.03 1201.51   1
  -6  -1   0 3690.18 1118.85   1
  -6  -1   0 5327.06 1555.71   1
  -6  -1  -137728.60 1362.19   1
  -6  -1  -137868.80 1958.83   1
  -6  -1  -2 5436.04 900.591   1
  -6  -1  -2 7848.12 1484.44   1
  -6  -1  -321325.70 1264.30   1
  -6  -1  -325562.00 1969.93   1
  -6  -1  -4 653.582 764.953   1
  -6  -1  -4 1245.78 1015.24   1
  -6  -1  -5 539.096 621.219   1
  -6  -1  -5 1380.05 1303.43   1
  -6  -2  13-507.464 1263.35   1
   6   2 -13 2056.90 856.412   1
  -6  -2  12 8394.83 2362.09   1
   6   2 -12 5877.40  895.16   1
  -6  -2  1130382.80 2752.20   1
   6   2 -1130858.70 1491.96   1
  -6  -2  1010523.10 2249.17   1
   6   2 -1011511.90 861.147   1
  -6  -2   911185.30 2440.78   1
   6   2  -9 8106.60 919.961   1
  -6  -2   8 327.887 1139.29   1
   6   2  -8 487.903 581.763   1
  -6  -2   7-231.365 1094.12   1
   6   2  -7 96.7989 430.293   1
  -6  -2   690971.50 3551.29   1
   6   2  -690488.30 2750.14   1
  -6  -2   539283.30 2156.64   1
  -6  -2   543928.20 2860.15   1
  -6  -2   4 5850.60 1633.17   1
  -6  -2   4 5506.98 3076.30   1
  -6  -2   331304.50 1911.66   1
  -6  -2   337752.80 2422.76   1
  -6  -2   2118655.0 3997.49   1
  -6  -2   2121463.0 4638.26   1
  -6  -2   113971.00 1443.73   1
  -6  -2   114475.10 1825.08   1
  -6  -2   083961.50 4280.38   1
  -6  -2   083930.20 4585.17   1
  -6  -2  -188809.10 3173.09   1
  -6  -2  -187957.30 3488.57   1
  -6  -2  -2 1312.39 625.673   1
  -6  -2  -2 1940.83 1357.16   1
  -6  -2  -3 5082.19 1391.64   1
  -6  -2  -3 1689.77 1217.49   1
  -6  -2  -422292.00 2016.23   1
  -6  -3  12 1944.43 1832.23   1
   6   3 -12 2021.98 775.445   1
  -6  -3  11 5476.14 1735.85   1
   6   3 -11 8930.49 1097.08   1
  -6  -3  1012569.90 2642.70   1
   6   3 -1014201.10 978.318   1
  -6  -3   9 6193.22 1957.60   1
   6   3  -9 6910.85 873.776   1
  -6  -3   8 278.649 1213.18   1
   6   3  -8 686.526  564.53   1
  -6  -3   757247.10 3669.84   1
   6   3  -753418.00 2754.83   1
  -6  -3   616755.60 2103.98   1
   6   3  -616093.10 1373.05   1
  -6  -3   531841.40 2826.70   1
  -6  -3   534895.60 3810.22   1
  -6  -3   422063.50 2336.82   1
  -6  -3   425456.30 5187.70   1
  -6  -3   336209.30 2882.75   1
  -6  -3   335250.10 3333.88   1
  -6  -3   2 1913.53 1324.98   1
  -6  -3   2 784.125 1164.76   1
  -6  -3   111697.80 1590.18   1
  -6  -3   113411.50 2048.05   1
  -6  -3   0-121.027 561.723   1
  -6  -3   0 176.948 1058.51   1
  -6  -3  -112633.90 1172.47   1
  -6  -3  -110892.70 2039.49   1
  -6  -3  -2 5009.64 1418.38   1
  -6  -3  -2 1979.53 1806.27   1
  -6  -3  -3 1173.03 1115.94   1
  -6  -3  -432870.50 2546.41   1
  -6  -4  12 237.535 1382.05   1
   6   4 -12 407.868 522.673   1
  -6  -4  1115892.00 2510.91   1
   6   4 -1118612.20 1486.07   1
  -6  -4  10 2993.75 2426.26   1
   6   4 -10 1028.64 613.764   1
  -6  -4   9 3861.29 2013.15   1
   6   4  -9 4544.27 645.637   1
  -6  -4   835621.80 2757.34   1
   6   4  -838941.30 1875.29   1
  -6  -4   714227.90 2478.44   1
   6   4  -713141.30 1466.00   1
  -6  -4   6254307.0 8467.55   1
   6   4  -6257591.0 7487.23   1
  -6  -4   5 5381.44 2264.58   1
  -6  -4   5 9976.24 2691.42   1
  -6  -4   433350.70 2648.45   1
  -6  -4   430059.40 6003.20   1
  -6  -4   3 8085.56 1989.00   1
  -6  -4   3 8247.58 1985.55   1
  -6  -4   213198.70 1466.01   1
  -6  -4   213166.20 2006.17   1
  -6  -4   1 5943.04 1292.46   1
  -6  -4   1 3515.30 2114.34   1
  -6  -4   017742.00 1416.28   1
  -6  -4   020544.50 2623.35   1
  -6  -4  -1 4550.27 1071.25   1
  -6  -4  -1 213.144 1353.22   1
  -6  -4  -2 8119.21 1693.73   1
  -6  -4  -310908.40 2161.35   1
  -6  -5  1212825.70 2538.99   1
   6   5 -1212879.10 1255.71   1
  -6  -5  11 348.388 1691.74   1
   6   5 -11-47.0063 443.672   1
  -6  -5  10 2469.43 2842.02   1
   6   5 -10 139.874 514.543   1
  -6  -5   9 3248.91 2397.41   1
   6   5  -9 2528.53 943.321   1
  -6  -5   8 1502.92 1669.97   1
   6   5  -8 894.955 697.461   1
  -6  -5   760942.80 3846.07   1
   6   5  -764273.60 1716.91   1
  -6  -5   6 905.908 1550.40   1
  -6  -5   6 460.515 1229.52   1
  -6  -5   5 9891.29 2462.80   1
  -6  -5   510073.30 2438.40   1
  -6  -5   423265.00 2247.72   1
  -6  -5   420898.00 4524.49   1
  -6  -5   319569.00 1868.46   1
  -6  -5   319106.30 2529.40   1
  -6  -5   2 1544.59 754.015   1
  -6  -5   2 703.043 1423.68   1
  -6  -5   1 298.403 929.284   1
  -6  -5   1-243.721 1494.74   1
  -6  -5   0 650.771 632.649   1
  -6  -5   0  741.62 1407.43   1
  -6  -5  -136828.60 2964.56   1
  -6  -5  -2-26.4173 1404.71   1
  -6  -6  1112122.20 2473.32   1
   6   6 -1116697.60 1224.96   1
  -6  -6  10 2789.41 2112.48   1
   6   6 -10 1030.27 712.139   1
  -6  -6   9 2935.68 1632.28   1
   6   6  -9 3648.94 960.073   1
  -6  -6   812000.50 3070.60   1
   6   6  -811776.90 1470.37   1
  -6  -6   7 2647.70 2135.43   1
   6   6  -7 2481.53 831.657   1
  -6  -6   611400.60 2157.30   1
  -6  -6   612386.00 3086.44   1
  -6  -6   519842.00 2180.94   1
  -6  -6   523735.40 3197.66   1
  -6  -6   4 4948.83 1952.71   1
  -6  -6   4 2343.09 2941.43   1
  -6  -6   3 1083.94 1293.02   1
  -6  -6   3-467.074 1712.07   1
  -6  -6   2 257.856 930.326   1
  -6  -6   2 1121.64 1629.18   1
  -6  -6   126118.00 2137.23   1
  -6  -6   124213.10 2702.71   1
  -6  -6   0 178.898 1541.79   1
  -6  -7  1012601.50 2689.38   1
   6   7 -1013542.10 1164.41   1
  -6  -7   9-839.337 1549.04   1
   6   7  -9 933.055 543.434   1
  -6  -7   836579.30 3657.14   1
   6   7  -828815.50 1874.11   1
  -6  -7   7 4910.09 2284.89   1
   6   7  -7 3961.70 979.113   1
  -6  -7   618766.60 2727.96   1
  -6  -7   621610.10 3249.57   1
  -6  -7   520868.20 2648.60   1
  -6  -7   523378.20 3009.68   1
  -6  -7   440634.40 3006.10   1
  -6  -7   438776.20 3364.27   1
  -6  -7   3 1326.48 962.177   1
  -6  -7   3 1291.18 1301.87   1
  -6  -7   2-80.4784 1546.02   1
  -6  -8   7 2211.06 1389.70   1
   6   8  -7 2321.18 943.592   1
  -6  -8   611271.30 2419.20   1
  -6  -8   6 8397.35 2475.99   1
  -6  -8   5 2402.84 1147.48   1
  -6  -8   5 2268.09 1627.49   1
  -7  11   0 6172.98 1060.55   1
  -7  11  -1 6009.45 1012.09   1
  -7  11  -212807.60 1106.57   1
  -7  10   2 8540.80 1182.12   1
  -7  10   1 3763.85 903.935   1
  -7  10   0103192.0 5552.06   1
  -7  10  -114919.80 1228.43   1
  -7  10  -222835.60 1537.55   1
  -7  10  -3 7969.73 1032.32   1
  -7   9   2 264.055 371.435   1
  -7   9   1 5678.32 694.909   1
  -7   9   034714.70 1540.65   1
  -7   9  -140981.30 1812.58   1
  -7   9  -2 101.058 588.781   1
  -7   9  -319018.70 1560.06   1
  -7   9  -4 2437.63 884.035   1
  -7   8   4 4538.13 729.961   1
  -7   8   3 373.365 348.731   1
  -7   8   2 3072.03 664.953   1
  -7   8   1 207.977 425.724   1
  -7   8   047631.50 2189.42   1
  -7   8  -117976.80 1262.26   1
  -7   8  -2 1862.48 943.149   1
  -7   8  -2 2589.20 579.346   1
  -7   8  -3 1047.64  887.07   1
  -7   8  -3 954.952 463.887   1
  -7   8  -4 725.633 989.634   1
  -7   8  -4 1810.28 846.342   1
  -7   8  -5 2093.82 882.951   1
  -7   8  -5 760.114 669.083   1
  -7   7   6 855.271 527.754   1
  -7   7   5 1207.23 785.545   1
  -7   7   4 29.5605 380.594   1
  -7   7   3 2389.42  638.65   1
  -7   7   2 554.647 454.055   1
  -7   7   113925.30 1090.14   1
  -7   7   0 3309.65 844.073   1
  -7   7   0 2648.82 393.295   1
  -7   7  -132915.70 1730.97   1
  -7   7  -2 7962.00 1188.07   1
  -7   7  -363999.80 2657.41   1
  -7   7  -427037.50 2048.69   1
  -7   7  -5 223.623 568.412   1
  -7   7  -5 827.063 561.656   1
  -7   6   7 1675.67 648.419   1
  -7   6   644983.20 1917.86   1
  -7   6   515149.80 949.994   1
  -7   6   4 4184.82 668.922   1
  -7   6   3 9141.84 867.464   1
  -7   6   212531.30 1197.59   1
  -7   6   134284.70 1240.96   1
  -7   6   132413.50 666.852   1
  -7   6   0 406.513 523.063   1
  -7   6   0 1095.33 319.597   1
  -7   6  -1 4608.58 1104.38   1
  -7   6  -1 4217.36 534.251   1
  -7   6  -213508.50 1426.10   1
  -7   6  -212289.10 1185.21   1
  -7   6  -4 5060.36 1329.94   1
  -7   6  -4 5467.51 1397.16   1
  -7   6  -5 432.391 854.809   1
  -7   6  -5-12.6585 536.558   1
  -7   6  -6 4869.08 1246.82   1
  -7   6  -6 3028.68 1109.25   1
  -7   5   787441.70 3142.34   1
  -7   5   673567.50 3788.19   1
  -7   5   5 9741.22 1032.86   1
  -7   5   4 8032.93 748.116   1
  -7   5   3109963.0 3442.18   1
  -7   5   2 530.574 443.077   1
  -7   5   1304334.0 7763.22   1
  -7   5   1284239.0 6887.42   1
  -7   5   016547.00 1431.99   1
  -7   5   016600.80 1254.72   1
  -7   5  -170538.40 3570.60   1
  -7   5  -168633.40 3321.08   1
  -7   5  -210151.90 1052.53   1
  -7   5  -2 9906.01 1017.49   1
  -7   5  -314029.20 1283.99   1
  -7   5  -313005.50 987.844   1
  -7   5  -4 1999.36 770.953   1
  -7   5  -4 4160.54 1147.50   1
  -7   5  -5 7833.71 1094.77   1
  -7   5  -5 7301.34 1025.49   1
  -7   5  -617332.50 1291.00   1
  -7   5  -617266.20 1561.23   1
  -7   4   8 2692.56 1041.11   1
   7  -4  -8 2033.41 404.099   1
  -7   4   7 9388.56 1019.91   1
  -7   4   6221204.0 6000.78   1
  -7   4   511133.20 1118.14   1
  -7   4   4 3976.10 1006.07   1
  -7   4   3 3629.99 704.672   1
  -7   4   251751.40 1928.33   1
  -7   4   248535.70 1421.74   1
  -7   4   1 2198.90 746.156   1
  -7   4   1 1890.89 459.153   1
   7  -4  -1 1894.94 186.976   1
  -7   4   0 6696.03 908.366   1
  -7   4   0 4669.41 577.632   1
  -7   4  -126490.90 1167.57   1
  -7   4  -127695.00 1123.33   1
  -7   4  -223842.30 1588.67   1
  -7   4  -224716.00 1526.84   1
  -7   4  -3119760.0 2627.10   1
  -7   4  -3116681.0 2223.61   1
  -7   4  -4 2022.70  907.46   1
  -7   4  -4 2896.22 985.404   1
  -7   4  -5 8728.62 1135.02   1
  -7   4  -5 9290.06 1655.67   1
  -7   4  -655106.00 2601.53   1
  -7   4  -656363.50 2840.15   1
  -7   3  10 8619.95 2324.63   1
  -7   3   9 9737.89 1504.32   1
   7  -3  -910233.10 857.924   1
  -7   3   8 8168.26 1410.07   1
   7  -3  -8 8319.65 606.059   1
  -7   3   7125136.0 3957.44   1
  -7   3   680924.00 2755.02   1
   7  -3  -674025.70 1810.81   1
   7  -3  -681423.40 1965.44   1
  -7   3   542113.80 1887.68   1
  -7   3   4 1068.50 621.374   1
  -7   3   321694.30 1030.42   1
  -7   3   2 687.901 562.161   1
  -7   3   2 476.932  374.60   1
   7  -3  -2 1282.74  202.36   1
  -7   3   168721.50 2364.37   1
  -7   3   165549.10 2107.39   1
   7  -3  -167768.10 1934.71   1
  -7   3   014112.40 1420.84   1
  -7   3   016099.50 1368.64   1
  -7   3  -1403244.018369.80   1
  -7   3  -1394165.017949.00   1
  -7   3  -2 3032.43 1261.97   1
  -7   3  -2 190.654 418.592   1
  -7   3  -3 4787.82 1207.60   1
  -7   3  -3 4237.95 1043.46   1
  -7   3  -4 1531.81 841.634   1
  -7   3  -4 1482.34 602.509   1
  -7   3  -5 1070.91 568.141   1
  -7   3  -5 3352.19 1054.43   1
  -7   2  1125409.10 2850.95   1
   7  -2 -1126656.10 1737.05   1
  -7   2  10 1210.03 1281.33   1
   7  -2 -10 1174.52 536.644   1
  -7   2   9 9826.20 1681.08   1
   7  -2  -9 9673.11 729.997   1
  -7   2   8 1704.03 1197.06   1
   7  -2  -8 487.886 265.688   1
  -7   2   749674.30 2283.65   1
   7  -2  -747866.80 1332.82   1
  -7   2   681878.10 2945.86   1
   7  -2  -679841.70 2359.67   1
  -7   2   553558.20 2172.58   1
   7  -2  -551459.40 1496.82   1
  -7   2   4 2376.09 886.365   1
   7  -2  -4 2342.14 401.192   1
  -7   2   3 1065.61 629.358   1
  -7   2   3 789.509 617.735   1
   7  -2  -3 528.591 251.086   1
  -7   2   259214.30 2234.22   1
  -7   2   257876.50 2046.34   1
   7  -2  -259428.30 1750.03   1
  -7   2   1 9562.27 1048.45   1
  -7   2   1 9481.49 894.458   1
  -7   2   078247.20 2608.27   1
  -7   2   074359.00 2558.93   1
  -7   2  -152909.20 2853.11   1
  -7   2  -152357.30 2775.91   1
  -7   2  -2 4165.58 1348.18   1
  -7   2  -2 4847.89 1003.98   1
  -7   2  -363022.60 1803.08   1
  -7   2  -367767.40 2078.79   1
  -7   2  -4  886.36 547.371   1
  -7   2  -4 213.922 682.636   1
  -7   2  -5 573.788 715.855   1
  -7   2  -5 391.585 644.758   1
  -7   1  1225119.60 2691.40   1
   7  -1 -1227606.10 1658.11   1
  -7   1  11 4952.17 1887.31   1
   7  -1 -11 4692.69 1099.87   1
  -7   1  10 1098.00 1462.70   1
   7  -1 -10 861.022 382.098   1
  -7   1   936733.40 2462.84   1
   7  -1  -933301.90 1264.93   1
  -7   1   888481.80 4749.21   1
   7  -1  -889928.40 4196.95   1
  -7   1   711095.50 1614.09   1
   7  -1  -7 8978.91 473.828   1
  -7   1   6101062.0 3673.33   1
   7  -1  -693076.90 2873.96   1
   7  -1  -696808.40 2687.75   1
  -7   1   5140543.0 4531.67   1
   7  -1  -5134557.0 3817.40   1
   7  -1  -5139430.0 3768.92   1
  -7   1   4114059.0 3763.39   1
  -7   1   4119785.0 3878.25   1
   7  -1  -4110021.0 3769.57   1
  -7   1   312871.20 1275.52   1
  -7   1   312070.00 1211.13   1
   7  -1  -310943.10 516.565   1
  -7   1   2 3706.26 1052.03   1
  -7   1   2 4252.29 1014.21   1
  -7   1   115775.20 1468.82   1
  -7   1   115254.70 1579.95   1
  -7   1   0 5963.13 956.339   1
  -7   1   0 4864.90 1004.71   1
  -7   1  -1133576.0 4410.55   1
  -7   1  -1140800.0 4673.14   1
  -7   1  -2 9321.47 1099.43   1
  -7   1  -210399.40 1405.23   1
  -7   1  -3 1543.53 679.859   1
  -7   1  -3 3066.24 1303.63   1
  -7   1  -410126.00 1258.82   1
  -7   1  -412757.70 1714.51   1
  -7   1  -5 1424.62  744.65   1
  -7   1  -5 3866.84 1404.49   1
  -7   0  13-646.439 1435.90   1
   7   0 -13 1911.91 644.343   1
  -7   0  12 6222.89 2217.93   1
   7   0 -12 6047.95 774.328   1
  -7   0  11 8896.06 2483.53   1
  -7   0  1034971.10 2508.86   1
   7   0 -1034023.30 1053.92   1
  -7   0   926672.60 2034.00   1
   7   0  -924350.30 1352.27   1
  -7   0   838437.10 1857.53   1
   7   0  -840838.00 2069.17   1
  -7   0   797491.40 3425.88   1
   7   0  -796904.20 2651.86   1
  -7   0   6112624.0 3752.67   1
   7   0  -6111101.0 2934.95   1
   7   0  -534177.80 1243.98   1
  -7   0   4 2690.68 981.458   1
  -7   0   4 1831.45 1834.05   1
  -7   0   3 645.814 680.541   1
  -7   0   3 518.564 790.034   1
  -7   0   255858.20 2214.14   1
  -7   0   253085.70 2286.41   1
  -7   0   1148183.0 4373.77   1
  -7   0   1148736.0 4560.89   1
  -7   0   0 2518.69 1322.45   1
  -7   0   0 2842.65 1063.74   1
  -7   0  -123571.40 1551.37   1
  -7   0  -125358.50 1910.16   1
  -7   0  -230270.80 1325.63   1
  -7   0  -231024.50 1740.49   1
  -7   0  -3 6811.17 1411.06   1
  -7   0  -3 5111.32 1569.07   1
  -7   0  -4 143.915 477.267   1
  -7   0  -4 717.817 796.165   1
  -7  -1  13 7336.34 2057.30   1
   7   1 -13 4057.68 878.884   1
  -7  -1  12 2193.81 1447.84   1
   7   1 -12 1029.38 469.686   1
  -7  -1  11 843.979 1333.60   1
   7   1 -11 1945.66 753.854   1
  -7  -1  1012393.30 2342.81   1
   7   1 -1010012.90  811.43   1
  -7  -1   9  985.14 1249.14   1
   7   1  -9 1116.49 528.189   1
  -7  -1   8 7401.49 1563.86   1
   7   1  -8 8866.69 820.336   1
  -7  -1   7 6357.67 1419.64   1
   7   1  -7 7705.03 804.838   1
  -7  -1   623535.80 2141.92   1
   7   1  -627273.20 1935.88   1
  -7  -1   5 5241.64 1233.44   1
  -7  -1   5 4520.52 1383.51   1
  -7  -1   4 5422.14 1167.23   1
  -7  -1   4 7142.14 2732.43   1
  -7  -1   329632.40 2386.72   1
  -7  -1   331998.10 2830.14   1
  -7  -1   238635.80 1548.64   1
  -7  -1   238439.50 1873.24   1
  -7  -1   117293.60 1624.84   1
  -7  -1   117304.30 1815.28   1
  -7  -1   017960.70 1901.28   1
  -7  -1   016432.60 1864.13   1
  -7  -1  -127007.50 1237.79   1
  -7  -1  -128033.30 2031.76   1
  -7  -1  -2 4138.07 1308.35   1
  -7  -1  -2 6091.23 1925.39   1
  -7  -1  -3 4516.80 751.787   1
  -7  -1  -3 5683.88 1386.88   1
  -7  -1  -4 4083.01 1461.25   1
  -7  -2  12 7638.53 2252.31   1
   7   2 -12 4373.40 673.426   1
  -7  -2  11 3761.87 2289.27   1
   7   2 -11 5100.69 1061.30   1
  -7  -2  10 695.201 1589.08   1
   7   2 -10 765.516 396.646   1
  -7  -2   9 948.755 1310.72   1
   7   2  -9 55.6259 324.526   1
  -7  -2   8 52.7874 1164.08   1
   7   2  -8 1181.19 717.661   1
  -7  -2   7428511.012731.60   1
   7   2  -7442262.0 3180.73   1
  -7  -2   6 1792.93 1024.30   1
   7   2  -6 1560.54 738.196   1
  -7  -2   561980.90 3558.79   1
  -7  -2   565583.10 4042.88   1
  -7  -2   4 437.598  901.06   1
  -7  -2   4 808.837 1008.36   1
  -7  -2   363324.70 3628.73   1
  -7  -2   355203.30 3495.20   1
  -7  -2   2 2832.45 1469.50   1
  -7  -2   2 3758.29 1690.97   1
  -7  -2   132464.20 2082.60   1
  -7  -2   135583.70 2477.55   1
  -7  -2   0 7940.85 1170.09   1
  -7  -2   010221.90 1673.32   1
  -7  -2  -1 8576.08 1923.37   1
  -7  -2  -111808.30 1887.00   1
  -7  -2  -2 4745.68 1014.53   1
  -7  -2  -2 5073.95 1659.12   1
  -7  -2  -3 848.937 732.969   1
  -7  -2  -3 608.073 1001.92   1
  -7  -3  1233904.00 3229.33   1
   7   3 -1228680.60 1568.24   1
  -7  -3  11 346.217 1520.36   1
   7   3 -11 585.591 477.816   1
  -7  -3  10 1498.19 1639.93   1
   7   3 -10-247.528 458.098   1
  -7  -3   9 2867.06 2113.76   1
   7   3  -9 2635.56 616.277   1
  -7  -3   823601.40 2755.78   1
   7   3  -825692.70 1375.26   1
  -7  -3   717544.20 2445.07   1
   7   3  -715808.90 1139.52   1
  -7  -3   614941.00 2253.90   1
  -7  -3   616446.10 2801.84   1
  -7  -3   532301.10 2677.02   1
  -7  -3   533864.60 2695.84   1
  -7  -3   413512.30 2265.41   1
  -7  -3   412545.90 2316.74   1
  -7  -3   3 4492.20 1608.86   1
  -7  -3   3 6060.82 2159.29   1
  -7  -3   213226.10 1702.25   1
  -7  -3   214316.60 2024.97   1
  -7  -3   115431.00 1408.10   1
  -7  -3   117512.30 2135.49   1
  -7  -3   0  787.51 784.173   1
  -7  -3   0-217.265 1285.04   1
  -7  -3  -1 1463.76 881.326   1
  -7  -3  -1 1565.38 1265.73   1
  -7  -3  -216723.80 1424.29   1
  -7  -3  -219704.70 2204.62   1
  -7  -4  12 3564.52 2257.77   1
   7   4 -12 2380.34 685.532   1
  -7  -4  11 2042.30 1731.75   1
   7   4 -11 2847.77  651.60   1
  -7  -4  10 1352.70 1962.94   1
   7   4 -10 625.152  540.55   1
  -7  -4   9 6180.32 2685.00   1
   7   4  -9 3256.77 967.782   1
  -7  -4   831054.20 2718.53   1
   7   4  -831339.00 1300.33   1
  -7  -4   7113478.0 4045.32   1
   7   4  -7110745.0 1925.45   1
  -7  -4   634070.70 3170.41   1
  -7  -4   633972.80 2946.02   1
  -7  -4   5 2255.32 1713.29   1
  -7  -4   5-27.0011 755.142   1
  -7  -4   4 5977.91 1722.56   1
  -7  -4   4 4643.41 2879.80   1
  -7  -4   3 875.635 764.404   1
  -7  -4   3 521.541 1265.81   1
  -7  -4   2 1190.99 1067.22   1
  -7  -4   2 924.417 1314.45   1
  -7  -4   1 3166.28 1432.20   1
  -7  -4   1 2525.65 2075.90   1
  -7  -4   0 2024.31 1041.66   1
  -7  -4   0 3524.18 1912.21   1
  -7  -4  -143942.00 3115.99   1
  -7  -5  11 664.939 1626.90   1
   7   5 -11 733.328 685.915   1
  -7  -5  10 4435.89 2048.08   1
   7   5 -10 1799.33  691.00   1
  -7  -5   918174.00 3000.70   1
  -7  -5   822831.70 2912.41   1
   7   5  -820576.50 1565.28   1
  -7  -5   7 4989.56 2465.64   1
   7   5  -7 3833.02 1038.82   1
  -7  -5   6 2152.36 1325.45   1
  -7  -5   6 642.693 1446.85   1
  -7  -5   5 4946.71 2029.27   1
  -7  -5   5 5412.14 2275.72   1
  -7  -5   4 1634.55 1125.96   1
  -7  -5   4 4437.71 2619.88   1
  -7  -5   321255.80 2532.99   1
  -7  -5   318612.00 2956.67   1
  -7  -5   2 2329.31 1295.95   1
  -7  -5   2-597.961 1430.17   1
  -7  -5   1 7592.03 1428.07   1
  -7  -5   1 9022.30 2137.40   1
  -7  -5   0 1610.01 1353.54   1
  -7  -6  10 1373.80 1640.52   1
   7   6 -10 1125.06 555.233   1
  -7  -6   9 653.281 1777.93   1
   7   6  -9 507.457 487.134   1
  -7  -6   815776.40 2610.94   1
   7   6  -813168.70 1141.99   1
  -7  -6   7-181.149 1326.13   1
   7   6  -7 2220.50 850.199   1
  -7  -6   620172.20 2742.50   1
  -7  -6   615862.30 2969.94   1
  -7  -6   537162.70 3345.56   1
  -7  -6   545107.40 3921.21   1
  -7  -6   4 4054.72 1499.20   1
  -7  -6   4 1245.15 1271.49   1
  -7  -6   311173.00 1648.51   1
  -7  -6   316174.90 2451.15   1
  -7  -6   2 6430.44 1579.99   1
  -7  -6   2 8135.87 2010.68   1
  -7  -7   8 9951.68 2468.76   1
   7   7  -810828.20 1199.35   1
  -7  -7   7 3079.92 2158.28   1
   7   7  -7 1096.47 776.587   1
  -7  -7   6 4631.57 2007.29   1
  -7  -7   6 4802.87 2004.69   1
  -7  -7   5 2664.51 1613.32   1
  -7  -7   513039.80 3557.42   1
  -8  11   1 3791.81 1047.56   1
  -8  11   0 9601.78 967.255   1
  -8  10   2 684.624  687.02   1
  -8  10   1 4035.73 852.756   1
  -8  10   032549.80 2014.88   1
  -8  10  -126600.20 1579.55   1
  -8  10  -2 6285.37  918.07   1
  -8   9   4 8412.25 1156.59   1
  -8   9   3 302.558 470.657   1
  -8   9   2 9437.31 1860.11   1
  -8   9   126589.30 1358.88   1
  -8   9   014366.10 1360.13   1
  -8   9  -1 813.656  812.54   1
  -8   9  -242516.60 2416.88   1
  -8   9  -3 3428.42 967.218   1
  -8   8   5 7541.72 1619.89   1
  -8   8   414261.80 1025.20   1
  -8   8   3 6397.59 793.095   1
  -8   8   2 291.053  440.65   1
  -8   8   112905.80 1093.26   1
  -8   8   0 462.738 823.088   1
  -8   8  -1 2648.49 1135.80   1
  -8   8  -289812.70 5113.61   1
  -8   8  -3 745.543 1014.86   1
  -8   8  -421830.40 3019.99   1
  -8   7   5 4719.58 746.201   1
  -8   7   414382.90 1296.24   1
  -8   7   3 2345.52 798.174   1
  -8   7   267842.80 2883.54   1
  -8   7   1 9886.42 1046.80   1
  -8   7   045975.30 1608.42   1
  -8   7  -1 5729.11 1266.49   1
  -8   7  -2 4961.94 1467.99   1
  -8   7  -323884.10 2092.28   1
  -8   7  -458397.40 2874.56   1
  -8   6   7 629.062  626.58   1
  -8   6   6 2353.27 808.208   1
  -8   6   569151.40 2544.02   1
  -8   6   4138034.0 4350.16   1
  -8   6   3 526.148 476.357   1
  -8   6   221398.30 1423.29   1
  -8   6   1 4903.37 976.786   1
  -8   6   012708.10 1402.61   1
  -8   6  -132752.20 1507.13   1
  -8   6  -259301.60 2486.18   1
  -8   6  -254784.40 2013.78   1
  -8   6  -327875.00 2033.36   1
  -8   6  -329907.60 2184.02   1
  -8   6  -4 3446.27 909.911   1
  -8   6  -4 1008.41 659.006   1
  -8   5   966544.20 3075.60   1
  -8   5   828664.10 1735.02   1
  -8   5   713116.20 1336.73   1
  -8   5   6 4915.54 944.772   1
  -8   5   561422.00 2394.36   1
  -8   5   4 8299.68 833.203   1
  -8   5   312880.80 986.677   1
  -8   5   2 237.138 525.732   1
  -8   5   1 3226.84 932.653   1
  -8   5   0 6787.04 976.092   1
  -8   5   0 5442.01 627.619   1
  -8   5  -122641.60 1535.91   1
  -8   5  -121958.40 1024.76   1
  -8   5  -272041.80 2117.95   1
  -8   5  -375431.10 4400.23   1
  -8   5  -4 9280.92 1677.03   1
  -8   5  -4 9873.53 1348.83   1
  -8   4  10 -565.62 1037.93   1
  -8   4   911730.90 1519.36   1
  -8   4   867990.60 3190.65   1
  -8   4   744001.80 2103.97   1
  -8   4   6196080.0 9297.36   1
  -8   4   5109521.0 5396.26   1
  -8   4   420120.60 1163.61   1
  -8   4   319061.20 1053.53   1
  -8   4   211078.60 1027.35   1
  -8   4   2 9685.61  650.54   1
  -8   4   1 461.679 593.957   1
  -8   4   1 529.903 435.032   1
  -8   4   0 3220.69 914.396   1
  -8   4  -115763.70 1448.64   1
  -8   4  -117910.00 1632.23   1
  -8   4  -238852.30 1817.03   1
  -8   4  -239711.00 1554.42   1
  -8   4  -3 8569.76 1444.08   1
  -8   4  -3 9312.30 1339.62   1
  -8   4  -413350.00 1384.58   1
  -8   4  -414034.60 1523.59   1
  -8   3  1113537.70 2815.41   1
  -8   3  10-54.3133 875.484   1
  -8   3   943478.10 1953.91   1
  -8   3   811833.50 1640.56   1
  -8   3   7 3575.81 1257.40   1
  -8   3   681679.70 4230.87   1
  -8   3   5 541.043 577.777   1
  -8   3   4 4032.28 1061.94   1
  -8   3   352582.60 2089.40   1
  -8   3   351230.90 1710.40   1
  -8   3   2 3638.05 961.292   1
  -8   3   2 5371.50  787.64   1
  -8   3   140710.00 2271.65   1
  -8   3   143860.20 2344.06   1
  -8   3   024809.60 1749.10   1
  -8   3   022592.50 1591.57   1
  -8   3  -164565.50 2876.15   1
  -8   3  -171041.90 3198.27   1
  -8   3  -2120371.0 4068.31   1
  -8   3  -2128582.0 4220.49   1
  -8   3  -3-86.7854 659.246   1
  -8   3  -3 88.1196 602.762   1
  -8   3  -4 1095.62 798.946   1
  -8   3  -4 1286.94 1095.17   1
  -8   2  1220599.90 2930.32   1
  -8   2  11 9066.04 1876.42   1
  -8   2  10 2824.75 1355.04   1
  -8   2   9 247.427 911.434   1
  -8   2   8 535.796 767.321   1
   8  -2  -8 754.157 244.454   1
  -8   2   724008.70 1645.64   1
  -8   2   6136270.0 6688.95   1
  -8   2   520666.10 1836.02   1
  -8   2   474198.90 2640.03   1
  -8   2   480252.40 2718.20   1
  -8   2   310735.30 1226.03   1
  -8   2   3 9772.03 1199.80   1
  -8   2   242165.30 2443.81   1
  -8   2   238641.90 1310.40   1
  -8   2   128923.50 1489.12   1
  -8   2   126582.20 1365.84   1
  -8   2   0 7221.26 1598.25   1
  -8   2   0 3652.73 1081.38   1
  -8   2  -1 3695.42 1090.08   1
  -8   2  -1 2383.12 850.832   1
  -8   2  -218096.30 1403.07   1
  -8   2  -220419.00 1753.44   1
  -8   2  -3 1205.51 619.977   1
  -8   2  -3 601.114 938.483   1
  -8   2  -438262.30 2167.76   1
  -8   2  -435925.50 2331.47   1
  -8   1  12-35.4685 1241.34   1
  -8   1  11 204.733 1009.31   1
  -8   1  10 1908.60 1070.99   1
   8  -1 -10 1956.89 409.613   1
  -8   1   9 2495.97 1333.81   1
   8  -1  -9 2302.57 348.072   1
  -8   1   826910.00 1867.83   1
   8  -1  -823984.70 1236.45   1
  -8   1   761734.40 3542.14   1
   8  -1  -759544.80 2790.45   1
  -8   1   6108209.0 5487.44   1
   8  -1  -6106238.0 4861.34   1
  -8   1   535438.70 1662.45   1
   8  -1  -535492.60 716.346   1
  -8   1   4 4544.00 1217.27   1
  -8   1   4 2667.66 1247.92   1
  -8   1   376040.00 3963.78   1
  -8   1   377881.70 4100.02   1
  -8   1   2 5453.70 1191.45   1
  -8   1   2 6413.16 1502.12   1
  -8   1   1 9286.23 1493.24   1
  -8   1   1 7636.23 1598.50   1
  -8   1   011052.70 1464.44   1
  -8   1   011358.20 1491.37   1
  -8   1  -135215.60 1634.56   1
  -8   1  -132038.70 1764.40   1
  -8   1  -2 2728.64 945.064   1
  -8   1  -2 1921.75 762.898   1
  -8   1  -3 6056.99 1088.65   1
  -8   1  -3 5186.22 1559.99   1
  -8   0  12-824.405 1192.16   1
  -8   0  11 1454.31 1345.32   1
   8   0 -11 1276.08 460.272   1
  -8   0  1010487.20 1830.26   1
   8   0 -1011031.70 677.224   1
  -8   0   952536.40 3193.26   1
   8   0  -952033.90 2075.86   1
  -8   0   820960.70 2158.38   1
   8   0  -815530.50 937.481   1
  -8   0   7 3120.66 1385.24   1
   8   0  -7 1560.82  390.40   1
  -8   0   693071.50 4906.59   1
   8   0  -687697.80 4104.44   1
  -8   0   5-101.289 868.739   1
  -8   0   5 389.847 672.207   1
  -8   0   416954.10 1289.45   1
  -8   0   418804.90 2790.31   1
  -8   0   3 2181.38 1188.26   1
  -8   0   3 3060.86 1612.36   1
  -8   0   272162.00 2913.30   1
  -8   0   276179.10 3222.10   1
  -8   0   142470.60 2470.54   1
  -8   0   148673.20 2679.43   1
  -8   0   012233.30 1435.89   1
  -8   0   0 9853.51 1454.91   1
  -8   0  -1-76.6565 653.116   1
  -8   0  -1 396.654 762.747   1
  -8   0  -2 1638.90 885.617   1
  -8   0  -2 635.009  854.28   1
  -8   0  -3 871.729 874.765   1
  -8   0  -3 700.231 860.864   1
  -8  -1  12 1077.72 1128.40   1
   8   1 -12 587.272 535.274   1
  -8  -1  1122917.90 2918.79   1
   8   1 -1119082.70 1354.71   1
  -8  -1  10 2841.79 2059.19   1
   8   1 -10 2800.20 779.408   1
  -8  -1   959538.70 3080.13   1
   8   1  -956210.40 1210.92   1
  -8  -1   8 1455.32 1240.82   1
   8   1  -8 1106.07 463.215   1
  -8  -1   711355.90 1649.09   1
   8   1  -711015.60 829.783   1
  -8  -1   634685.60 2297.82   1
   8   1  -631186.00 1271.00   1
  -8  -1   5 1365.61 1337.96   1
  -8  -1   5 1985.57 1344.04   1
  -8  -1   4 4103.34 1806.47   1
  -8  -1   4 4399.82 1452.04   1
  -8  -1   3 7105.62 1673.01   1
  -8  -1   3 1976.91 938.781   1
  -8  -1   222896.00 1784.34   1
  -8  -1   224819.60 1953.46   1
  -8  -1   1 9172.16 1178.60   1
  -8  -1   1 7480.76 1571.57   1
  -8  -1   0 3107.01 1083.74   1
  -8  -1   0 2848.10 1383.76   1
  -8  -1  -1-12.9967 743.498   1
  -8  -1  -1 1416.17  964.66   1
  -8  -1  -220272.50 1581.93   1
  -8  -1  -220323.10 2061.81   1
  -8  -2  12 8587.45 2140.67   1
   8   2 -12 6193.08 776.016   1
  -8  -2  1127125.00 2665.57   1
   8   2 -1132530.10 1807.35   1
  -8  -2  1010073.90 3010.29   1
   8   2 -10 7561.83 1152.20   1
  -8  -2   914079.00 2300.20   1
   8   2  -915099.10 1041.49   1
  -8  -2   8 5801.19 1687.58   1
   8   2  -8 5609.63 634.169   1
  -8  -2   7 1532.02 1028.82   1
   8   2  -7 193.444 325.631   1
  -8  -2   664148.40 3600.83   1
  -8  -2   662132.60 3439.82   1
  -8  -2   5 860.792 1168.15   1
  -8  -2   5 1848.71 1384.65   1
  -8  -2   429300.80 2658.68   1
  -8  -2   430378.40 2361.06   1
  -8  -2   3 2869.54 1387.62   1
  -8  -2   3 2792.64 1473.05   1
  -8  -2   2 2614.60 1065.32   1
  -8  -2   2 443.871 1058.57   1
  -8  -2   132269.60 1964.13   1
  -8  -2   135339.00 2533.51   1
  -8  -2   0 3480.73 1229.98   1
  -8  -2   0 1962.35 1475.84   1
  -8  -2  -1 2778.38 922.439   1
  -8  -2  -1 2816.81 1512.81   1
  -8  -3  12 2662.57 2573.49   1
   8   3 -12 1249.18 605.142   1
  -8  -3  1110522.80 2532.13   1
   8   3 -1112031.90 1043.90   1
  -8  -3  10 3627.49 2419.66   1
   8   3 -10 1069.08  571.24   1
  -8  -3   932965.60 3297.69   1
   8   3  -933158.00 1697.94   1
  -8  -3   824298.40 2693.21   1
   8   3  -818564.30 1115.34   1
  -8  -3   754970.70 2856.92   1
   8   3  -756833.40 1383.24   1
  -8  -3   6 2341.72 1815.11   1
  -8  -3   6 1330.83 1190.01   1
  -8  -3   543919.10 2650.26   1
  -8  -3   541099.20 3291.26   1
  -8  -3   431897.70 2224.95   1
  -8  -3   429323.80 2664.71   1
  -8  -3   3 1514.74 835.737   1
  -8  -3   3 761.679 1402.77   1
  -8  -3   2 2570.17 1331.31   1
  -8  -3   2 1467.47 1118.40   1
  -8  -3   126013.40 2215.75   1
  -8  -3   125980.40 2970.24   1
  -8  -3   0 1582.59 1101.99   1
  -8  -3   0 1209.65 1522.32   1
  -8  -4  1114222.70 2355.19   1
   8   4 -1115619.80 1108.08   1
  -8  -4  10 1777.86 1506.46   1
   8   4 -10 663.895 547.005   1
  -8  -4   9 3015.24 1630.10   1
   8   4  -9 4382.29 860.935   1
  -8  -4   8 7074.55 2524.45   1
   8   4  -8 3104.23 969.947   1
  -8  -4   7-45.5973 1402.47   1
   8   4  -7 2738.47 949.742   1
  -8  -4   636803.00 2798.64   1
  -8  -4   637391.80 3107.58   1
  -8  -4   5 3775.70 1763.61   1
  -8  -4   5 973.212  953.24   1
  -8  -4   415965.90 2261.59   1
  -8  -4   412790.80 4290.77   1
  -8  -4   3 994.669 1056.14   1
  -8  -4   3 2484.73 1876.33   1
  -8  -4   213064.40 1559.96   1
  -8  -4   212819.30 2603.14   1
  -8  -4   1 486.836 717.359   1
  -8  -4   1-337.554 1084.44   1
  -8  -5  1011597.10 2603.60   1
   8   5 -10 7600.14 890.454   1
  -8  -5   949522.80 3682.68   1
   8   5  -954504.20 2368.83   1
  -8  -5   8 2553.78 1627.11   1
   8   5  -8  615.47  674.06   1
  -8  -5   7 3544.88 2026.88   1
   8   5  -7 6191.40 970.699   1
  -8  -5   6  276.77 1293.15   1
  -8  -5   6 757.878 1305.32   1
  -8  -5   5 223.286 1121.17   1
  -8  -5   5 832.171 1035.39   1
  -8  -5   4 4385.89 1355.63   1
  -8  -5   4 3549.18 2905.35   1
  -8  -5   3  702.01 934.552   1
  -8  -5   3-184.105 1105.07   1
  -8  -6   750139.70 3876.43   1
   8   6  -738470.00 2015.18   1
  -8  -6   6 1300.51 1742.66   1
  -8  -6   6 8.48632 1237.23   1
  -9  10   3 157.334 634.123   1
  -9  10   2 6987.80 1224.25   1
  -9  10   1-447.247 535.623   1
  -9  10   066113.70 2989.36   1
  -9   9   413302.90 1280.22   1
  -9   9   3-386.739 440.584   1
  -9   9   215749.70 1358.74   1
  -9   9   1 3588.10 1022.24   1
  -9   9   0 358.453 742.528   1
  -9   9  -112599.20 1220.03   1
  -9   8   6 1522.80 994.007   1
  -9   8   551772.50 3136.30   1
  -9   8   4 1029.49 735.603   1
  -9   8   3 6159.42 1401.02   1
  -9   8   2 936.104 547.317   1
  -9   8   1 621.447 588.702   1
  -9   8   0 3783.90 1054.70   1
  -9   8  -1 1044.74 838.829   1
  -9   8  -220312.50 1612.63   1
  -9   7   7 4127.87 1133.81   1
  -9   7   6 1183.51  813.52   1
  -9   7   522246.10 1333.95   1
  -9   7   428506.90 1196.45   1
  -9   7   3 55.7713 493.631   1
  -9   7   2 2103.28 884.677   1
  -9   7   1 6068.78 1526.72   1
  -9   7   0 1730.80 964.672   1
  -9   7  -1 81.7588 695.507   1
  -9   7  -235335.30 2372.02   1
  -9   7  -3  561.58 915.797   1
  -9   6   8 2261.55 1205.93   1
  -9   6   751573.20 2388.45   1
  -9   6   6133550.0 2631.60   1
  -9   6   5 7129.84 1018.66   1
  -9   6   4 2003.25 923.235   1
  -9   6   315135.50 1480.01   1
  -9   6   2 7313.15 1134.97   1
  -9   6   1 4686.77 1095.87   1
  -9   6   0 9354.94 1985.64   1
  -9   6  -1 849.837 755.662   1
  -9   6  -2 8319.70 1069.31   1
  -9   6  -3 4477.22 1223.96   1
  -9   5   8 1468.86 1042.20   1
  -9   5   7 8618.36 1222.71   1
  -9   5   6 315.318 580.794   1
  -9   5   558762.60 2739.97   1
  -9   5   414494.80 1372.93   1
  -9   5   330711.60 1679.36   1
  -9   5   2 9135.79 1364.93   1
  -9   5   111091.90 1279.70   1
  -9   5   0 5061.48 1516.78   1
  -9   5  -111547.60 1472.67   1
  -9   5  -2 5600.41 950.932   1
  -9   5  -3 3393.27 957.572   1
  -9   4  10 687.182 1178.18   1
  -9   4   918567.00 1831.49   1
  -9   4   841953.40 1900.54   1
  -9   4   740335.70 2263.67   1
  -9   4   6266676.0 3681.18   1
  -9   4   524743.60 1841.97   1
  -9   4   4 5575.51 973.463   1
  -9   4   3 776.769 672.271   1
  -9   4   211526.70 1304.50   1
  -9   4   1 1280.38 913.261   1
  -9   4   010061.60 1354.32   1
  -9   4  -1 1577.04 805.497   1
  -9   4  -2 2278.20 968.782   1
  -9   4  -3 6381.58 1148.47   1
  -9   3  11 9786.98 2150.09   1
  -9   3  10 1222.68  867.83   1
  -9   3   9 1871.38 1195.65   1
  -9   3   8 258.568 709.307   1
  -9   3   720163.10 1855.63   1
  -9   3   6 1293.65 713.555   1
  -9   3   551235.30 2383.93   1
  -9   3   4 2649.98 1170.10   1
  -9   3   313299.20 1621.83   1
  -9   3   283823.50 3578.66   1
  -9   3   1  601.64 723.911   1
  -9   3   1 433.262 408.014   1
  -9   3   011101.30 1567.15   1
  -9   3   010971.30 1367.45   1
  -9   3  -149751.10 3235.43   1
  -9   3  -145115.80 2953.17   1
  -9   3  -223591.30 1909.16   1
  -9   3  -222755.50 2104.62   1
  -9   3  -3 614.257  593.18   1
  -9   3  -3 1442.18 1024.94   1
  -9   2  1229256.30 3247.30   1
  -9   2  1111975.50 2119.07   1
  -9   2  10 1137.82  991.82   1
  -9   2   9 6663.79 1774.38   1
  -9   2   8 2908.16 1304.72   1
  -9   2   7 297.439 850.756   1
  -9   2   633379.80 2095.20   1
  -9   2   5 5165.70 1389.88   1
  -9   2   474064.40 2993.74   1
  -9   2   311875.30 1370.51   1
  -9   2   312536.60 1405.30   1
  -9   2   2 463.904 754.526   1
  -9   2   2  418.10 483.032   1
  -9   2   1 2649.55 1249.38   1
  -9   2   1 2890.48 994.253   1
  -9   2   0 3983.13 1559.92   1
  -9   2  -121119.90 1905.34   1
  -9   2  -222924.70 1773.43   1
  -9   2  -222136.40 2247.80   1
  -9   1  12 2182.13 1371.38   1
  -9   1  11 2635.97 1295.49   1
  -9   1  1019393.30 2534.57   1
  -9   1   9 1104.83 1155.53   1
  -9   1   881131.30 2788.57   1
  -9   1   723895.60 2070.87   1
  -9   1   6 5703.49 1689.45   1
   9  -1  -6 4734.50  506.07   1
  -9   1   532069.00 2002.31   1
  -9   1   4 6170.93 1304.89   1
  -9   1   4 4276.34 1905.06   1
  -9   1   3 814.022 1124.05   1
  -9   1   3 2021.10 1117.49   1
  -9   1   230338.20 1708.12   1
  -9   1   1 5944.40 1773.57   1
  -9   1   1 6117.40 1839.45   1
  -9   1   043219.10 2954.96   1
  -9   1   034277.40 2659.40   1
  -9   1  -1 1451.10 940.927   1
  -9   1  -1 1567.32 1229.91   1
  -9   1  -216238.80 1510.68   1
  -9   1  -215322.40 2048.90   1
  -9   0  12-1127.77 1130.23   1
  -9   0  11 1929.60 1688.65   1
  -9   0  1035540.30 3287.29   1
  -9   0   9 1704.21 1725.93   1
  -9   0   8-98.5718 1150.41   1
   9   0  -8 445.329 301.966   1
  -9   0   7 9179.25 1563.39   1
   9   0  -7 8191.46 555.579   1
  -9   0   6 8002.40 1693.65   1
   9   0  -6 6939.85 659.836   1
  -9   0   5 1030.69 1301.31   1
  -9   0   5 1123.27 877.221   1
  -9   0   438427.10 2469.06   1
  -9   0   352320.10 2185.15   1
  -9   0   352871.50 2465.67   1
  -9   0   2 1607.18 896.534   1
  -9   0   2 1320.65 897.986   1
  -9   0   129271.10 1780.64   1
  -9   0   130840.40 2378.70   1
  -9   0   0 282.541 722.529   1
  -9   0   0 576.605 928.405   1
  -9   0  -1 3568.51 1046.89   1
  -9   0  -1 9107.71 2131.66   1
  -9  -1  12 2285.28 1370.45   1
  -9  -1  11 5992.24 1769.38   1
  -9  -1  10 2409.35 2218.86   1
  -9  -1   9 2631.29 2076.34   1
   9   1  -9-64.9046 234.224   1
  -9  -1   816227.90 2415.70   1
   9   1  -812980.80 692.771   1
  -9  -1   751317.10 2494.20   1
   9   1  -757704.70 1209.41   1
  -9  -1   698674.90 3192.89   1
   9   1  -695406.40 1474.64   1
  -9  -1   5 2868.74 1208.17   1
  -9  -1   5 4115.01 1709.54   1
  -9  -1   415906.90 1839.87   1
  -9  -1   415932.50 1939.54   1
  -9  -1   355307.90 2649.89   1
  -9  -1   356357.10 3069.05   1
  -9  -1   210069.20 1651.82   1
  -9  -1   2 9264.48 1991.87   1
  -9  -1   1 1074.15 1128.64   1
  -9  -1   1 1468.05 981.493   1
  -9  -1   096533.10 4803.22   1
  -9  -1   0103346.012440.80   1
  -9  -2  11 7337.22 2187.19   1
  -9  -2  1012506.00 2216.20   1
   9   2 -1016940.90 1138.32   1
  -9  -2   921873.10 3192.42   1
   9   2  -918469.20 1317.56   1
  -9  -2   8 2417.99 1530.57   1
   9   2  -8 5826.26 956.912   1
  -9  -2   746248.10 3182.84   1
   9   2  -748594.40 1993.88   1
  -9  -2   6 978.636 1259.57   1
  -9  -2   6-141.274 988.482   1
  -9  -2   592398.30 4136.82   1
  -9  -2   591313.10 6056.41   1
  -9  -2   4 1811.55 1117.23   1
  -9  -2   4 6457.66 2452.44   1
  -9  -2   3 527.674 1349.58   1
  -9  -2   3 830.264 1161.17   1
  -9  -2   2 1675.68 879.675   1
  -9  -2   2 2048.87 1505.94   1
  -9  -2   128386.30 2249.46   1
  -9  -2   123179.80 2678.40   1
  -9  -3  11 2499.08 1504.44   1
   9   3 -11 288.367 341.162   1
  -9  -3  10 1024.03 1687.94   1
   9   3 -10 274.565 393.888   1
  -9  -3   935190.20 3007.76   1
   9   3  -931423.20 1777.10   1
  -9  -3   8 159.657 1326.30   1
   9   3  -8 897.392 591.679   1
  -9  -3   714194.70 2649.73   1
   9   3  -711975.70 1006.76   1
  -9  -3   6111216.0 6652.82   1
  -9  -3   6119332.0 4197.98   1
  -9  -3   519116.80 2334.00   1
  -9  -3   518831.10 3605.14   1
  -9  -3   411790.80 1882.82   1
  -9  -3   411875.80 2537.43   1
  -9  -3   311935.70 1555.70   1
  -9  -3   311141.40 2574.10   1
  -9  -3   2 549.258 803.253   1
  -9  -3   2 442.353 1288.87   1
  -9  -4   9-43.1768 1445.81   1
   9   4  -9  912.10 553.513   1
  -9  -4   8 7198.19 2295.87   1
   9   4  -8 6938.25 875.678   1
  -9  -4   7 2748.29 2420.42   1
   9   4  -7 888.971 662.964   1
  -9  -4   6 7020.56 1751.93   1
  -9  -4   6 5881.06 2138.75   1
  -9  -4   5 9445.79 1919.06   1
  -9  -4   5 4278.89 3046.09   1
  -9  -4   4 1229.30 1069.73   1
  -9  -4   4 439.206 1044.18   1
  -9  -4   3-911.645 897.758   1
  -9  -4   3 1039.71 1784.04   1
 -10   9   519813.70 1873.25   1
 -10   9   436852.70 2221.76   1
 -10   9   3 1271.74 850.509   1
 -10   9   2 7507.13 1290.36   1
 -10   9   1 7357.93 1085.89   1
 -10   8   619593.20 1815.75   1
 -10   8   5 8877.06 1289.47   1
 -10   8   423444.30 1751.41   1
 -10   8   3 6274.53 1071.19   1
 -10   8   2 6060.97 1019.51   1
 -10   8   1 2914.35 772.925   1
 -10   8   0 634.633 581.097   1
 -10   7   7 3661.32 1301.03   1
 -10   7   625699.50 1948.63   1
 -10   7   5 -263.93 568.834   1
 -10   7   417897.90 1527.65   1
 -10   7   316727.70 1618.31   1
 -10   7   247285.70 3033.83   1
 -10   7   119929.10 1583.43   1
 -10   7   0 549.596  893.00   1
 -10   7  -1 8703.24 1468.67   1
 -10   6   8 3220.11 1385.82   1
 -10   6   777575.80 4514.50   1
 -10   6   618302.60 1594.27   1
 -10   6   5147122.0 4718.56   1
 -10   6   415714.60 1388.63   1
 -10   6   3 552.099 712.173   1
 -10   6   2  677.20 708.164   1
 -10   6   110592.20 1272.63   1
 -10   6   0 1087.47 1080.21   1
 -10   6  -1 838.201 895.689   1
 -10   5   923652.30 2126.74   1
 -10   5   817274.80 1684.48   1
 -10   5   711322.10 1362.22   1
 -10   5   629973.00 1860.12   1
 -10   5   5 3085.49 1157.85   1
 -10   5   425899.90 1792.09   1
 -10   5   313961.70 1281.71   1
 -10   5   2 5365.83 1553.51   1
 -10   5   139630.80 2807.39   1
 -10   5   0 9639.22 1356.88   1
 -10   5  -1 9765.45 1123.81   1
 -10   4  10 1547.05 1052.10   1
 -10   4   9 3703.91 1280.97   1
 -10   4   845581.60 3145.30   1
 -10   4   7 6401.48 1655.01   1
 -10   4   640765.60 2142.40   1
 -10   4   544873.10 1874.19   1
 -10   4   4 1135.58 1119.41   1
 -10   4   3 7536.63 1870.48   1
 -10   4   2 7816.92 1947.60   1
 -10   4   1 8071.29 1365.75   1
 -10   4   015763.60 1389.09   1
 -10   4  -184326.90 3897.64   1
 -10   3  1118127.40 2430.41   1
 -10   3  1022347.10 2410.89   1
 -10   3   9 987.802 979.104   1
 -10   3   813479.90 1791.53   1
 -10   3   7 248.871  900.29   1
 -10   3   6 3960.04 1181.28   1
 -10   3   5 659.036  780.17   1
 -10   3   4 3004.67 1163.73   1
 -10   3   3 726.776 1058.68   1
 -10   3   2 16.0222 838.358   1
 -10   3   1 5174.76 1244.96   1
 -10   3   0 8126.79 1292.65   1
 -10   3  -1 1250.26 1037.96   1
 -10   2  1119363.70 2024.38   1
 -10   2  10 187.292 949.888   1
 -10   2   9 1987.29 1005.98   1
 -10   2   8 4525.81 1877.90   1
 -10   2   717437.20 2030.14   1
 -10   2   617810.40 1908.39   1
 -10   2   5 2252.48 1245.06   1
 -10   2   426048.70 1910.62   1
 -10   2   343467.30 2327.82   1
 -10   2   2 1190.28 937.105   1
 -10   2   1 5363.12 1496.89   1
 -10   2   017921.50 1791.17   1
 -10   1  11 6855.79 2099.89   1
 -10   1  1019321.70 2134.57   1
 -10   1   9 1192.71 1496.89   1
 -10   1   870017.50 3453.98   1
 -10   1   713423.30 1820.27   1
 -10   1   6 9419.73 2420.22   1
 -10   1   5 1104.45 887.863   1
 -10   1   4 7228.66 1927.12   1
 -10   1   3 1188.37 978.803   1
 -10   1   2 7290.25 1682.48   1
 -10   1   1 6945.77 1450.92   1
 -10   1   0 2702.98 1285.19   1
 -10   0  11 1972.55 1153.87   1
 -10   0  10 2121.38 1618.94   1
 -10   0   8-644.753 1217.68   1
 -10   0   7 2089.62 1689.84   1
 -10   0   6 1830.36 1643.99   1
 -10   0   5 2949.36 1665.79   1
 -10   0   4 4197.02 1673.62   1
 -10   0   3 3217.66 1353.99   1
 -10   0   210425.20 1521.31   1
 -10   0   146654.30 2603.18   1
 -10  -1  1144112.50 3415.07   1
 -10  -1  10 1910.11 1391.21   1
 -10  -1   9 2525.79 1844.37   1
 -10  -1   894508.00 5977.94   1
 -10  -1   7 1359.05 1137.63   1
 -10  -1   6 1587.66 1132.70   1
 -10  -1   512783.20 1941.75   1
 -10  -1   4 5445.43 1435.62   1
 -10  -1   4 3718.79 1943.36   1
 -10  -1   3 1231.02  969.06   1
 -10  -1   3 1583.15 1447.05   1
 -10  -1   2 1452.59 1131.79   1
 -10  -1   2 1918.21 2214.02   1
 -10  -2  10 8559.38 2410.11   1
 -10  -2   9 1934.94 1978.79   1
 -10  -2   8 1138.23 1137.75   1
 -10  -2   728297.80 2685.07   1
 -10  -2   6 5217.68 1739.10   1
 -10  -2   5 2578.07 1656.66   1
 -10  -2   5 650.733 1217.36   1
 -10  -2   4 2663.81 1365.89   1
 -10  -2   4 2626.91 2124.37   1
 -10  -2   3 863.415 1543.36   1
 -10  -3   814866.20 2307.50   1
 -10  -3   713578.50 2046.58   1
  10   3  -711431.70 880.556   1
 -10  -3   612751.50 2084.35   1
 -10  -3   6 5297.89 1948.96   1
 -10  -3   5 1624.46 1076.82   1
 -10  -3   5 1109.59 1296.10   1
 -11   8   5 1902.27 1000.55   1
 -11   8   4 2888.09 902.671   1
 -11   8   3 1159.19 606.655   1
 -11   7   712990.40 1629.57   1
 -11   7   6 1399.70 715.627   1
 -11   7   5 397.151 656.125   1
 -11   7   317650.50 1303.55   1
 -11   7   2 1987.48 870.904   1
 -11   6   8 921.458 1238.90   1
 -11   6   7 8840.47 1332.19   1
 -11   6   619972.30 1605.63   1
 -11   6   515998.50 1420.83   1
 -11   6   4 2287.04 907.102   1
 -11   6   315136.70 1489.84   1
 -11   6   212474.60 1246.60   1
 -11   6   1 6635.06 1321.46   1
 -11   5   913278.70 1923.29   1
 -11   5   8 6101.10 1427.98   1
 -11   5   722973.00 1939.69   1
 -11   5   620729.50 1893.28   1
 -11   5   5 6119.19 1402.34   1
 -11   5   4 4311.51 1041.72   1
 -11   5   3 6488.96 1138.87   1
 -11   5   2 3719.81 1222.19   1
 -11   5   129619.80 2172.26   1
 -11   4   911931.60 1720.09   1
 -11   4   833460.90 2450.84   1
 -11   4   7 2591.44 1460.30   1
 -11   4   6 812.896 794.536   1
 -11   4   5 1180.40  818.29   1
 -11   4   417610.40 1879.93   1
 -11   4   3 2758.85 1316.67   1
 -11   4   247158.70 2774.24   1
 -11   4   1 1581.18 1059.92   1
 -11   3  10 9097.37 1839.85   1
 -11   3   9 2475.70 1241.19   1
 -11   3   8 2661.91 1171.26   1
 -11   3   7 1655.97 1218.57   1
 -11   3   6 6226.89 1448.49   1
 -11   3   5 527.702 896.061   1
 -11   3   4 3755.21 1084.81   1
 -11   3   3 681.472 805.289   1
 -11   3   216937.80 1606.43   1
 -11   3   1 143.136  881.86   1
 -11   2  10 5111.84 1443.92   1
 -11   2   920433.00 1865.50   1
 -11   2   818378.60 1799.87   1
 -11   2   7 7628.55 1768.73   1
 -11   2   6 1404.22 1097.39   1
 -11   2   5 1002.60 1073.99   1
 -11   2   4 2079.10 1188.03   1
 -11   2   310679.60 1488.59   1
 -11   2   2 6408.78 1527.93   1
 -11   1  1028355.80 2408.63   1
 -11   1   9 763.944 1010.65   1
 -11   1   8 3830.35 1445.36   1
 -11   1   730817.40 2788.54   1
 -11   1   6 7591.29 1638.39   1
 -11   1   5 3033.82 1167.55   1
 -11   1   4 8253.90 1320.05   1
 -11   1   310946.60 1633.87   1
 -11   0   911688.30 1940.89   1
 -11   0   828695.00 2888.74   1
 -11   0   7 4471.94 1269.48   1
 -11   0   6 5457.64 1337.22   1
 -11   0   515995.10 2069.35   1
 -11   0   4 7671.95 1579.26   1
 -11  -1   8 4666.54 1793.91   1
 -11  -1   7 889.393 1119.71   1
 -11  -1   672570.80 4109.72   1
 -11  -1   510263.80 1875.99   1
 -12   5   661832.20 3161.71   1
 -12   5   5 4651.39 1323.26   1
 -12   4   745898.60 2833.96   1
 -12   4   6 1159.61  855.06   1
 -12   4   5 649.633 855.687   1
 -12   3   7 8290.61 1547.00   1
 -12   3   6 2337.36 1321.90   1
 -12   3   5 305.992 823.132   1
   0   0   0    0.00    0.00   1
;
_shelx_hkl_checksum              91038
loop_
_space_group_symop_operation_xyz
'x, y, z'
'-x, -y, -z'
loop_
_atom_site_label
_atom_site_type_symbol
_atom_site_fract_x
_atom_site_fract_y
_atom_site_fract_z
_atom_site_U_iso_or_equiv
_atom_site_adp_type
_atom_site_occupancy
_atom_site_site_symmetry_order
_atom_site_calc_flag
_atom_site_refinement_flags_posn
_atom_site_refinement_flags_adp
_atom_site_refinement_flags_occupancy
_atom_site_disorder_assembly
_atom_site_disorder_group
N3 N 0.25776(14) 0.34904(13) 0.72150(12) 0.0166(3) Uani 1 1 d . . . . .
N4 N 0.22904(16) 0.21050(15) 0.20766(13) 0.0233(3) Uani 1 1 d . . . . .
N2 N 0.42386(14) 0.67830(13) 0.98524(12) 0.0161(3) Uani 1 1 d . . . . .
N1 N 0.23291(16) 0.71800(15) 1.38167(14) 0.0247(3) Uani 1 1 d . . . . .
C8 C 0.22978(17) 0.49490(16) 0.71219(14) 0.0184(3) Uani 1 1 d . . . . .
H8A H 0.1328 0.4882 0.7309 0.022 Uiso 1 1 calc R U . . .
H8B H 0.1930 0.5042 0.6066 0.022 Uiso 1 1 calc R U . . .
C9 C 0.27011(17) 0.30159(16) 0.85862(14) 0.0170(3) Uani 1 1 d . . . . .
H9A H 0.1513 0.2329 0.8354 0.020 Uiso 1 1 calc R U . . .
H9B H 0.3180 0.3962 0.9444 0.020 Uiso 1 1 calc R U . . .
C7 C 0.39322(17) 0.64226(16) 0.82762(14) 0.0175(3) Uani 1 1 d . . . . .
H7A H 0.4974 0.6303 0.8330 0.021 Uiso 1 1 calc R U . . .
H7B H 0.3840 0.7335 0.7880 0.021 Uiso 1 1 calc R U . . .
C13 C 0.02389(17) 0.15600(16) 0.29698(15) 0.0185(3) Uani 1 1 d . . . . .
H13 H -0.0954 0.1133 0.2715 0.022 Uiso 1 1 calc R U . . .
C4 C 0.23156(17) 0.59500(17) 1.16056(15) 0.0193(3) Uani 1 1 d . . . . .
H4 H 0.2114 0.5009 1.0961 0.023 Uiso 1 1 calc R U . . .
C6 C 0.30547(18) 0.74750(16) 0.99185(15) 0.0192(3) Uani 1 1 d . . . . .
H6A H 0.1879 0.6918 0.8971 0.023 Uiso 1 1 calc R U . . .
H6B H 0.3511 0.8593 0.9938 0.023 Uiso 1 1 calc R U . . .
C16 C 0.35854(19) 0.27718(18) 0.35659(16) 0.0224(3) Uani 1 1 d . . . . .
H16 H 0.4766 0.3210 0.3789 0.027 Uiso 1 1 calc R U . . .
C14 C 0.15952(17) 0.22383(15) 0.45046(14) 0.0161(3) Uani 1 1 d . . . . .
C15 C 0.33052(18) 0.28594(17) 0.47941(15) 0.0200(3) Uani 1 1 d . . . . .
H15 H 0.4273 0.3340 0.5823 0.024 Uiso 1 1 calc R U . . .
C3 C 0.28607(17) 0.73879(16) 1.13087(15) 0.0182(3) Uani 1 1 d . . . . .
C11 C 0.12190(17) 0.22094(16) 0.58047(14) 0.0191(3) Uani 1 1 d . . . . .
H11A H 0.0074 0.2281 0.5462 0.023 Uiso 1 1 calc R U . . .
H11B H 0.1117 0.1189 0.6036 0.023 Uiso 1 1 calc R U . . .
C10 C 0.39019(17) 0.21293(16) 0.90713(15) 0.0186(3) Uani 1 1 d . . . . .
H10A H 0.3517 0.1362 0.9573 0.022 Uiso 1 1 calc R U . . .
H10B H 0.3794 0.1534 0.8142 0.022 Uiso 1 1 calc R U . . .
C2 C 0.31421(19) 0.87109(18) 1.23038(16) 0.0239(3) Uani 1 1 d . . . . .
H2 H 0.3526 0.9719 1.2156 0.029 Uiso 1 1 calc R U . . .
C1 C 0.2857(2) 0.85503(19) 1.35237(17) 0.0265(3) Uani 1 1 d . . . . .
H1 H 0.3050 0.9473 1.4188 0.032 Uiso 1 1 calc R U . . .
C12 C 0.06478(19) 0.15138(17) 0.18158(16) 0.0225(3) Uani 1 1 d . . . . .
H12 H -0.0296 0.1033 0.0777 0.027 Uiso 1 1 calc R U . . .
C5 C 0.20720(18) 0.59090(17) 1.28512(16) 0.0224(3) Uani 1 1 d . . . . .
H5 H 0.1699 0.4917 1.3033 0.027 Uiso 1 1 calc R U . . .
loop_
_atom_site_aniso_label
_atom_site_aniso_U_11
_atom_site_aniso_U_22
_atom_site_aniso_U_33
_atom_site_aniso_U_23
_atom_site_aniso_U_13
_atom_site_aniso_U_12
N3 0.0183(5) 0.0164(6) 0.0115(5) 0.0039(4) 0.0063(4) 0.0048(5)
N4 0.0286(7) 0.0280(7) 0.0188(6) 0.0088(5) 0.0133(5) 0.0158(6)
N2 0.0173(5) 0.0164(6) 0.0137(5) 0.0042(4) 0.0074(4) 0.0068(5)
N1 0.0219(6) 0.0314(8) 0.0235(6) 0.0068(5) 0.0139(5) 0.0109(6)
C8 0.0189(7) 0.0219(8) 0.0141(6) 0.0066(6) 0.0072(5) 0.0095(6)
C9 0.0163(6) 0.0192(7) 0.0143(6) 0.0053(5) 0.0078(5) 0.0057(5)
C7 0.0202(6) 0.0182(7) 0.0154(6) 0.0068(5) 0.0098(5) 0.0077(6)
C13 0.0181(6) 0.0183(7) 0.0173(6) 0.0060(5) 0.0074(5) 0.0077(6)
C4 0.0183(6) 0.0189(7) 0.0219(7) 0.0055(6) 0.0105(5) 0.0088(6)
C6 0.0224(7) 0.0191(7) 0.0188(6) 0.0077(6) 0.0100(5) 0.0118(6)
C16 0.0210(7) 0.0264(8) 0.0213(7) 0.0069(6) 0.0110(6) 0.0114(6)
C14 0.0202(7) 0.0139(7) 0.0151(6) 0.0053(5) 0.0087(5) 0.0081(6)
C15 0.0190(7) 0.0217(8) 0.0159(6) 0.0043(6) 0.0070(5) 0.0079(6)
C3 0.0164(6) 0.0214(7) 0.0178(6) 0.0059(6) 0.0078(5) 0.0105(6)
C11 0.0179(6) 0.0197(7) 0.0153(6) 0.0044(5) 0.0079(5) 0.0035(6)
C10 0.0204(7) 0.0163(7) 0.0163(6) 0.0045(5) 0.0081(5) 0.0063(6)
C2 0.0260(7) 0.0195(8) 0.0277(7) 0.0061(6) 0.0149(6) 0.0096(6)
C1 0.0275(8) 0.0247(8) 0.0263(7) 0.0013(6) 0.0151(6) 0.0093(7)
C12 0.0240(7) 0.0231(8) 0.0155(6) 0.0047(6) 0.0060(5) 0.0106(6)
C5 0.0196(7) 0.0245(8) 0.0262(7) 0.0102(6) 0.0127(6) 0.0104(6)
loop_
_atom_type_symbol
_atom_type_description
_atom_type_scat_dispersion_real
_atom_type_scat_dispersion_imag
_atom_type_scat_source
C C 0.0033 0.0016 'International Tables Vol C Tables 4.2.6.8 and 6.1.1.4'
H H 0.0000 0.0000 'International Tables Vol C Tables 4.2.6.8 and 6.1.1.4'
N N 0.0061 0.0033 'International Tables Vol C Tables 4.2.6.8 and 6.1.1.4'
loop_
_geom_angle_atom_site_label_1
_geom_angle_atom_site_label_2
_geom_angle_atom_site_label_3
_geom_angle
_geom_angle_site_symmetry_1
_geom_angle_site_symmetry_3
_geom_angle_publ_flag
C11 N3 C8 110.52(10) . . ?
C11 N3 C9 110.82(11) . . ?
C8 N3 C9 114.03(10) . . ?
C12 N4 C16 115.90(12) . . ?
C6 N2 C7 110.38(9) . . ?
C6 N2 C10 110.86(12) . 2_667 ?
C7 N2 C10 108.99(11) . 2_667 ?
C1 N1 C5 116.04(13) . . ?
N3 C8 C7 113.10(11) . . ?
N3 C8 H8A 109.0 . . ?
C7 C8 H8A 109.0 . . ?
N3 C8 H8B 109.0 . . ?
C7 C8 H8B 109.0 . . ?
H8A C8 H8B 107.8 . . ?
N3 C9 C10 110.14(10) . . ?
N3 C9 H9A 109.6 . . ?
C10 C9 H9A 109.6 . . ?
N3 C9 H9B 109.6 . . ?
C10 C9 H9B 109.6 . . ?
H9A C9 H9B 108.1 . . ?
N2 C7 C8 115.49(11) . . ?
N2 C7 H7A 108.4 . . ?
C8 C7 H7A 108.4 . . ?
N2 C7 H7B 108.4 . . ?
C8 C7 H7B 108.4 . . ?
H7A C7 H7B 107.5 . . ?
C12 C13 C14 119.30(14) . . ?
C12 C13 H13 120.4 . . ?
C14 C13 H13 120.4 . . ?
C5 C4 C3 119.25(13) . . ?
C5 C4 H4 120.4 . . ?
C3 C4 H4 120.4 . . ?
N2 C6 C3 113.15(10) . . ?
N2 C6 H6A 108.9 . . ?
C3 C6 H6A 108.9 . . ?
N2 C6 H6B 108.9 . . ?
C3 C6 H6B 108.9 . . ?
H6A C6 H6B 107.8 . . ?
N4 C16 C15 124.12(14) . . ?
N4 C16 H16 117.9 . . ?
C15 C16 H16 117.9 . . ?
C15 C14 C13 117.36(12) . . ?
C15 C14 C11 121.44(12) . . ?
C13 C14 C11 121.10(13) . . ?
C16 C15 C14 119.27(12) . . ?
C16 C15 H15 120.4 . . ?
C14 C15 H15 120.4 . . ?
C2 C3 C4 117.16(13) . . ?
C2 C3 C6 121.79(13) . . ?
C4 C3 C6 120.99(12) . . ?
N3 C11 C14 113.13(12) . . ?
N3 C11 H11A 109.0 . . ?
C14 C11 H11A 109.0 . . ?
N3 C11 H11B 109.0 . . ?
C14 C11 H11B 109.0 . . ?
H11A C11 H11B 107.8 . . ?
N2 C10 C9 111.61(12) 2_667 . ?
N2 C10 H10A 109.3 2_667 . ?
C9 C10 H10A 109.3 . . ?
N2 C10 H10B 109.3 2_667 . ?
C9 C10 H10B 109.3 . . ?
H10A C10 H10B 108.0 . . ?
C3 C2 C1 119.39(14) . . ?
C3 C2 H2 120.3 . . ?
C1 C2 H2 120.3 . . ?
N1 C1 C2 124.02(14) . . ?
N1 C1 H1 118.0 . . ?
C2 C1 H1 118.0 . . ?
N4 C12 C13 124.05(13) . . ?
N4 C12 H12 118.0 . . ?
C13 C12 H12 118.0 . . ?
N1 C5 C4 124.14(14) . . ?
N1 C5 H5 117.9 . . ?
C4 C5 H5 117.9 . . ?
loop_
_geom_bond_atom_site_label_1
_geom_bond_atom_site_label_2
_geom_bond_distance
_geom_bond_site_symmetry_2
_geom_bond_publ_flag
N3 C11 1.4619(18) . ?
N3 C8 1.4698(18) . ?
N3 C9 1.4704(17) . ?
N4 C12 1.339(2) . ?
N4 C16 1.3461(18) . ?
N2 C6 1.4662(18) . ?
N2 C7 1.4738(18) . ?
N2 C10 1.4762(18) 2_667 ?
N1 C1 1.335(2) . ?
N1 C5 1.3405(19) . ?
C8 C7 1.5232(19) . ?
C8 H8A 0.9900 . ?
C8 H8B 0.9900 . ?
C9 C10 1.5331(18) . ?
C9 H9A 0.9900 . ?
C9 H9B 0.9900 . ?
C7 H7A 0.9900 . ?
C7 H7B 0.9900 . ?
C13 C12 1.388(2) . ?
C13 C14 1.3917(18) . ?
C13 H13 0.9500 . ?
C4 C5 1.385(2) . ?
C4 C3 1.394(2) . ?
C4 H4 0.9500 . ?
C6 C3 1.510(2) . ?
C6 H6A 0.9900 . ?
C6 H6B 0.9900 . ?
C16 C15 1.385(2) . ?
C16 H16 0.9500 . ?
C14 C15 1.387(2) . ?
C14 C11 1.5128(19) . ?
C15 H15 0.9500 . ?
C3 C2 1.384(2) . ?
C11 H11A 0.9900 . ?
C11 H11B 0.9900 . ?
C10 N2 1.4763(18) 2_667 ?
C10 H10A 0.9900 . ?
C10 H10B 0.9900 . ?
C2 C1 1.393(2) . ?
C2 H2 0.9500 . ?
C1 H1 0.9500 . ?
C12 H12 0.9500 . ?
C5 H5 0.9500 . ?
loop_
_geom_torsion_atom_site_label_1
_geom_torsion_atom_site_label_2
_geom_torsion_atom_site_label_3
_geom_torsion_atom_site_label_4
_geom_torsion
_geom_torsion_site_symmetry_1
_geom_torsion_site_symmetry_2
_geom_torsion_site_symmetry_3
_geom_torsion_site_symmetry_4
_geom_torsion_publ_flag
C11 N3 C8 C7 -161.47(10) . . . . ?
C9 N3 C8 C7 72.92(15) . . . . ?
C11 N3 C9 C10 84.75(14) . . . . ?
C8 N3 C9 C10 -149.79(11) . . . . ?
C6 N2 C7 C8 -76.88(15) . . . . ?
C10 N2 C7 C8 161.15(10) 2_667 . . . ?
N3 C8 C7 N2 -82.12(14) . . . . ?
C7 N2 C6 C3 161.29(11) . . . . ?
C10 N2 C6 C3 -77.85(14) 2_667 . . . ?
C12 N4 C16 C15 0.5(2) . . . . ?
C12 C13 C14 C15 0.91(19) . . . . ?
C12 C13 C14 C11 -175.53(12) . . . . ?
N4 C16 C15 C14 -0.4(2) . . . . ?
C13 C14 C15 C16 -0.35(19) . . . . ?
C11 C14 C15 C16 176.08(13) . . . . ?
C5 C4 C3 C2 0.48(18) . . . . ?
C5 C4 C3 C6 -176.92(12) . . . . ?
N2 C6 C3 C2 127.01(14) . . . . ?
N2 C6 C3 C4 -55.71(17) . . . . ?
C8 N3 C11 C14 81.86(13) . . . . ?
C9 N3 C11 C14 -150.74(11) . . . . ?
C15 C14 C11 N3 28.81(17) . . . . ?
C13 C14 C11 N3 -154.90(12) . . . . ?
N3 C9 C10 N2 88.64(13) . . . 2_667 ?
C4 C3 C2 C1 -0.7(2) . . . . ?
C6 C3 C2 C1 176.72(12) . . . . ?
C5 N1 C1 C2 0.0(2) . . . . ?
C3 C2 C1 N1 0.4(2) . . . . ?
C16 N4 C12 C13 0.1(2) . . . . ?
C14 C13 C12 N4 -0.8(2) . . . . ?
C1 N1 C5 C4 -0.2(2) . . . . ?
C3 C4 C5 N1 -0.1(2) . . . . ?
