#------------------------------------------------------------------------------
#$Date: 2021-11-12 02:03:43 +0200 (Fri, 12 Nov 2021) $
#$Revision: 270610 $
#$URL: file:///home/coder/svn-repositories/cod/cif/7/70/88/7708800.cif $
#------------------------------------------------------------------------------
#
# This file is available in the Crystallography Open Database (COD),
# http://www.crystallography.net/
#
# All data on this site have been placed in the public domain by the
# contributors.
#
data_7708800
loop_
_publ_author_name
'Nimax, Patrick'
'Rotthowe, Nils'
'Zoller, Florian'
'Blockhaus, Tobias'
'Wagner, Friedrich Ernst'
'Fattakhova-Rohlfing, Dina'
'S\"unkel, Karlheinz'
_publ_section_title
;
 Coordination polymers of 5-substituted
 1,2,3,4-tetracyanocyclopentadienides: structural and electrochemical
 properties of complex compounds of 5-amino- and
 5-nitro-tetracyanocyclopentadienide
;
_journal_name_full               'Dalton Transactions'
_journal_paper_doi               10.1039/D1DT02866A
_journal_year                    2021
_chemical_formula_moiety         'C9 H2 K N5 O3'
_chemical_formula_sum            'C9 H2 K N5 O3'
_chemical_formula_weight         267.26
_space_group_crystal_system      orthorhombic
_space_group_IT_number           19
_space_group_name_Hall           'P 2ac 2ab'
_space_group_name_H-M_alt        'P 21 21 21'
_atom_sites_solution_hydrogens   difmap
_atom_sites_solution_primary     dual
_audit_creation_method           SHELXL-2018/3
_audit_update_record
;
2021-06-26 deposited with the CCDC.	2021-11-11 downloaded from the CCDC.
;
_cell_angle_alpha                90
_cell_angle_beta                 90
_cell_angle_gamma                90
_cell_formula_units_Z            4
_cell_length_a                   6.5523(2)
_cell_length_b                   10.7066(4)
_cell_length_c                   15.8675(5)
_cell_measurement_reflns_used    9287
_cell_measurement_temperature    123(2)
_cell_measurement_theta_max      27.0872
_cell_measurement_theta_min      3.1958
_cell_volume                     1113.15(6)
_computing_cell_refinement       'APEX2 v2012.4-3 (Bruker AXS)'
_computing_data_collection       'Bruker Instrument Service v3.0.21'
_computing_data_reduction        'SAINT V8.18C (Bruker AXS Inc., 2011)'
_computing_structure_refinement  'SHELXL-2018/3 (Sheldrick, 2018)'
_computing_structure_solution    'SHELXT 2014/5 (Sheldrick, 2014)'
_diffrn_ambient_temperature      123(2)
_diffrn_detector_area_resol_mean 7.3910
_diffrn_measured_fraction_theta_full 0.997
_diffrn_measured_fraction_theta_max 0.997
_diffrn_measurement_device_type  'D8 Venture'
_diffrn_measurement_method       'mix of omega and phi scans'
_diffrn_radiation_type           MoK\a
_diffrn_radiation_wavelength     0.71073
_diffrn_reflns_av_R_equivalents  0.0284
_diffrn_reflns_av_unetI/netI     0.0233
_diffrn_reflns_Laue_measured_fraction_full 0.997
_diffrn_reflns_Laue_measured_fraction_max 0.997
_diffrn_reflns_limit_h_max       8
_diffrn_reflns_limit_h_min       -8
_diffrn_reflns_limit_k_max       13
_diffrn_reflns_limit_k_min       -13
_diffrn_reflns_limit_l_max       20
_diffrn_reflns_limit_l_min       -18
_diffrn_reflns_number            11729
_diffrn_reflns_point_group_measured_fraction_full 0.996
_diffrn_reflns_point_group_measured_fraction_max 0.997
_diffrn_reflns_theta_full        25.242
_diffrn_reflns_theta_max         27.113
_diffrn_reflns_theta_min         3.196
_diffrn_source                   'rotating anode generator'
_exptl_absorpt_coefficient_mu    0.485
_exptl_absorpt_correction_T_max  0.7455
_exptl_absorpt_correction_T_min  0.7164
_exptl_absorpt_correction_type   multi-scan
_exptl_absorpt_process_details
;
 SADABS 2016/2: Krause, L., Herbst-Irmer, R., Sheldrick G.M. & Stalke D.,
 J. Appl. Cryst. 48 (2015) 3-10
;
_exptl_crystal_colour            yellow
_exptl_crystal_density_diffrn    1.595
_exptl_crystal_density_method    'not measured'
_exptl_crystal_description       block
_exptl_crystal_F_000             536
_exptl_crystal_size_max          0.060
_exptl_crystal_size_mid          0.050
_exptl_crystal_size_min          0.040
_refine_diff_density_max         0.274
_refine_diff_density_min         -0.179
_refine_diff_density_rms         0.042
_refine_ls_abs_structure_details
;
 Flack x determined using 950 quotients [(I+)-(I-)]/[(I+)+(I-)]
 (Parsons, Flack and Wagner, Acta Cryst. B69 (2013) 249-259).
;
_refine_ls_abs_structure_Flack   -0.012(14)
_refine_ls_extinction_method     none
_refine_ls_goodness_of_fit_ref   1.073
_refine_ls_hydrogen_treatment    refall
_refine_ls_matrix_type           full
_refine_ls_number_parameters     191
_refine_ls_number_reflns         2451
_refine_ls_number_restraints     9
_refine_ls_restrained_S_all      1.075
_refine_ls_R_factor_all          0.0278
_refine_ls_R_factor_gt           0.0256
_refine_ls_shift/su_max          0.000
_refine_ls_shift/su_mean         0.000
_refine_ls_structure_factor_coef Fsqd
_refine_ls_weighting_details
'w=1/[\s^2^(Fo^2^)+(0.0308P)^2^+0.3762P] where P=(Fo^2^+2Fc^2^)/3'
_refine_ls_weighting_scheme      calc
_refine_ls_wR_factor_gt          0.0641
_refine_ls_wR_factor_ref         0.0657
_reflns_Friedel_coverage         0.704
_reflns_Friedel_fraction_full    0.995
_reflns_Friedel_fraction_max     0.996
_reflns_number_gt                2335
_reflns_number_total             2451
_reflns_threshold_expression     'I > 2\s(I)'
_cod_data_source_file            d1dt02866a1.cif
_cod_data_source_block           compd2a
_cod_database_code               7708800
_publcif_datablock.id            {ed26d50b-45b5-4634-b739-7cc236fe7486}
_shelx_shelxl_version_number     2018/3
_shelx_space_group_comment
;
The symmetry employed for this shelxl refinement is uniquely defined
by the following loop, which should always be used as a source of
symmetry information in preference to the above space-group names.
They are only intended as comments.
;
_shelx_estimated_absorpt_t_min   0.971
_shelx_estimated_absorpt_t_max   0.981
_shelx_res_file
;
TITL shelxt_a.res in P2(1)2(1)2(1)
    shelx.res
    created by SHELXL-2018/3 at 19:21:21 on 25-Jun-2021
CELL  0.71073   6.5523  10.7066  15.8675   90.000   90.000   90.000
ZERR     4.00   0.0002   0.0004   0.0005    0.000    0.000    0.000
LATT  -1
SYMM  1/2 - X, - Y, 1/2 + Z
SYMM  - X, 1/2 + Y, 1/2 - Z
SYMM  1/2 + X, 1/2 - Y, - Z
SFAC  C    H    N    O    K
UNIT  36 8 20 12 4
MERG   2
OMIT     0   0   2
OMIT     0   1   1
EQIV $11 x-3/2, -y+3/2, -z+1
FMAP   2
PLAN    5
SIZE     0.040   0.050   0.060
ACTA
BOND   $H
LIST   4
L.S.  32
SADI C6A N2A  C6B N2B
SADI N1A O1A N1A O2A N1B O1B N1B O2B
SADI O1A O2A O1B O2B
SADI C1 N1B C3 N1B
TEMP  -150.00
WGHT    0.030800    0.376200
FVAR       0.86372   0.93446   0.07271   0.01404   0.03406   0.07958
K1    5    0.119334    0.825747    0.405010    11.00000    0.01968    0.02000 =
         0.02751    0.00169   -0.00054    0.00362
C1    1    0.735352    0.379200    0.394763    11.00000    0.01896    0.01746 =
         0.01720   -0.00200    0.00159    0.00082
C2    1    0.550829    0.422690    0.360884    11.00000    0.02033    0.01664 =
         0.01546    0.00011    0.00004    0.00223
C3    1    0.438777    0.317990    0.335007    11.00000    0.01905    0.01860 =
         0.01611   -0.00017    0.00178    0.00186
C4    1    0.553598    0.210742    0.355155    11.00000    0.02146    0.01686 =
         0.01554    0.00048    0.00351    0.00056
C5    1    0.738853    0.248336    0.391484    11.00000    0.02041    0.01774 =
         0.01610    0.00084    0.00294    0.00333
C7    1    0.251272    0.320174    0.289747    11.00000    0.02202    0.02146 =
         0.01897    0.00144    0.00106    0.00209
C8    1    0.488870    0.084624    0.344768    11.00000    0.02149    0.02002 =
         0.01684    0.00098    0.00122    0.00080
C9    1    0.895055    0.163981    0.416971    11.00000    0.02222    0.01901 =
         0.01822   -0.00122    0.00197    0.00020
PART 1 10.935
C6A   1    0.480909    0.547677    0.357053    10.93500    0.02203    0.01841 =
         0.01413   -0.00017   -0.00056    0.00183
N1A   3    0.890524    0.456200    0.430005    10.93500    0.02132    0.01913 =
         0.02144   -0.00273   -0.00135    0.00141
N2A   3    0.418400    0.648297    0.353335    10.93500    0.02983    0.01996 =
         0.02557   -0.00192    0.00049    0.00643
O1A   4    1.049283    0.408380    0.456748    10.93500    0.02071    0.03364 =
         0.02775   -0.00276   -0.00689    0.00136
O2A   4    0.860473    0.570719    0.433626    10.93500    0.03693    0.02017 =
         0.06270   -0.01001   -0.01321   -0.00046
PART 2 10.065
N1B   3    0.479810    0.561694    0.343949    10.06500   51.00000
C6B   1    0.873568    0.456953    0.419053    10.06500   31.00000
N2B   3    1.004006    0.510870    0.452464    10.06500   41.00000
O1B   4    0.573504    0.633891    0.388410    10.06500   61.00000
O2B   4    0.291610    0.569957    0.334127    10.06500   61.00000
PART 0
N3    3    0.105321    0.321762    0.250705    11.00000    0.02733    0.03943 =
         0.02728    0.00144   -0.00304   -0.00067
N4    3    0.436845   -0.017440    0.339740    11.00000    0.03128    0.02204 =
         0.02553    0.00035    0.00360   -0.00166
N5    3    1.011626    0.088661    0.434577    11.00000    0.02875    0.02615 =
         0.02735   -0.00249   -0.00067    0.00767
O1W   4   -0.278202    0.827146    0.459075    11.00000    0.02641    0.03378 =
         0.02582    0.00242    0.00223    0.00332
H1W   2   -0.345259    0.812322    0.421043    11.00000    0.06196
H2W   2   -0.322703    0.902663    0.478896    11.00000    0.08627
HKLF    4




REM  shelxt_a.res in P2(1)2(1)2(1)
REM wR2 = 0.0657, GooF = S = 1.073, Restrained GooF = 1.075 for all data
REM R1 = 0.0256 for 2335 Fo > 4sig(Fo) and 0.0278 for all 2451 data
REM 191 parameters refined using 9 restraints

END

WGHT      0.0307      0.3765

REM Highest difference peak  0.274,  deepest hole -0.179,  1-sigma level  0.042
Q1    1   0.9009  0.0576  0.3962  11.00000  0.05    0.27
Q2    1   0.1345  0.4196  0.2698  11.00000  0.05    0.24
Q3    1   0.7443  0.3140  0.3995  11.00000  0.05    0.24
Q4    1   0.4866  0.2578  0.3399  11.00000  0.05    0.23
Q5    1   0.4890  0.3759  0.3419  11.00000  0.05    0.23
;
_shelx_res_checksum              96797
_shelx_hkl_file
;
   1   0   0    0.14    0.48
   1   0   0    0.72    0.58
  -1   0   0   -0.10    0.48
  -1   0   0    0.01    0.47
  -2   0   0 4415.28  141.87
   2   0   0 4242.98  140.94
   3   0   0    0.57    1.28
  -3   0   0    0.55    1.20
  -3   0   0   -0.73    1.22
   3   0   0    0.92    1.22
   4   0   0   69.11    5.04
  -4   0   0   71.44    4.94
  -4   0   0   74.71    5.06
   4   0   0   67.09    4.79
  -5   0   0    7.30    2.59
   5   0   0    2.15    2.08
   5   0   0    5.91    2.45
  -6   0   0  827.03   27.74
   6   0   0  808.47   27.60
   6   0   0  839.05   27.74
  -6   0   0  847.74   27.80
  -7   0   0    5.54    2.73
   7   0   0    0.41    2.49
  -8   0   0  445.32   19.69
   8   0   0  462.50   20.02
   1  -1   0  500.80   14.31
   1  -1   0  506.97   14.47
  -1   1   0  521.55   14.56
   1   1   0  507.70   13.82
  -1   1   0  515.63   14.37
  -1  -1   0  522.15   13.82
   1   1   0  497.41   13.84
  -1  -1   0  515.42   13.87
   2  -1   0  330.86   11.12
  -2  -1   0  342.45   10.52
   2   1   0  327.95   10.41
  -2   1   0  351.21   12.30
  -2   1   0  324.67   10.96
   2   1   0  334.55   10.46
  -2  -1   0  351.53   10.53
   2  -1   0  333.74   10.99
  -3   1   0  491.24   15.70
  -3  -1   0  484.30   15.08
  -3  -1   0  467.74   14.90
  -3   1   0  459.45   15.66
   3  -1   0  452.03   15.37
   3   1   0  476.18   14.98
   3   1   0  471.35   14.94
   3  -1   0  501.91   15.95
   4   1   0  215.52    9.05
   4  -1   0  222.03    9.76
  -4   1   0  207.42    9.45
  -4  -1   0  204.25    8.96
   4  -1   0  193.91    9.14
  -4  -1   0  206.42    8.85
  -4   1   0  207.29    9.51
   4   1   0  197.04    8.73
  -5  -1   0  244.63   10.74
  -5  -1   0  227.79   10.48
   5   1   0  230.10   10.47
   5  -1   0  239.25   11.27
   5  -1   0  245.41   11.08
   5   1   0  210.25   10.20
  -5   1   0  239.34   11.14
   6  -1   0  523.47   20.31
  -6  -1   0  559.78   19.96
   6   1   0  514.49   19.33
   6   1   0  561.21   19.99
  -6   1   0  529.71   20.25
  -6  -1   0  520.76   19.51
   7  -1   0   49.95    6.81
   7   1   0   42.77    6.07
  -7  -1   0   58.91    5.95
  -7   1   0   43.44    6.26
  -8  -1   0   56.98    6.37
   8   1   0   45.85    6.50
   8  -1   0   51.06    7.44
  -8   1   0   47.71    6.84
   0  -2   0  631.72   17.55
   0  -2   0  644.90   17.59
   0  -2   0  635.11   17.26
   0   2   0  588.84   17.30
   1   2   0 1975.40   58.58
   1  -2   0 2002.59   73.02
  -1  -2   0 1984.91   58.84
   2  -2   0 3212.48  119.24
  -2  -2   0 3062.23  103.83
   2   2   0 3103.79  104.52
  -2   2   0 3366.06  120.30
  -3   2   0    1.83    1.67
   3   2   0    2.62    1.35
   3  -2   0   -0.40    1.38
  -3  -2   0    2.18    1.45
   3  -2   0   -0.93    1.41
  -3  -2   0    0.63    1.09
   3   2   0   -0.12    1.03
  -3   2   0    0.60    1.55
   4  -2   0  143.52    7.86
  -4   2   0  150.75    8.11
  -4  -2   0  139.66    6.99
  -4  -2   0  152.51    7.34
   4   2   0  161.50    7.48
   4  -2   0  156.66    8.43
  -4   2   0  150.89    8.27
   4   2   0  149.44    7.22
   5  -2   0  679.47   26.45
   5  -2   0  664.82   23.49
   5   2   0  725.22   22.89
  -5   2   0  689.50   24.23
  -5  -2   0  727.67   22.97
  -5  -2   0  695.98   22.49
   5   2   0  701.86   22.70
  -6   2   0  369.10   16.25
   6   2   0  388.84   15.46
   6  -2   0  396.26   16.93
   6   2   0  369.04   15.28
  -6  -2   0  367.44   15.22
  -6  -2   0  386.29   15.49
  -7  -2   0  133.43    8.71
  -7   2   0  112.78    8.77
   7  -2   0  109.93    9.10
   7   2   0  105.01    8.07
  -8  -2   0   51.39    6.71
   8   2   0   41.45    6.08
  -8   2   0   43.60    6.83
   8  -2   0   52.31    7.45
   0  -3   0    0.41    1.39
   0  -3   0    0.84    0.98
   0   3   0   -1.42    1.03
  -1   3   0 1919.93   51.08
  -2   3   0  968.84   27.91
  -2  -3   0  943.93   26.62
   2   3   0  945.67   26.68
   2  -3   0  967.11   27.79
   2  -3   0  968.87   28.27
   2   3   0  938.94   26.56
  -2   3   0  958.44   28.21
  -3   3   0  199.04    9.28
   3  -3   0  203.73    9.75
  -3  -3   0  205.90    8.16
   3  -3   0  221.92    9.51
   3   3   0  213.43    8.43
   3   3   0  209.24    8.40
  -3   3   0  191.92    9.51
  -3  -3   0  211.27    8.46
   4  -3   0  194.93    9.89
   4   3   0  188.14    8.48
  -4  -3   0  189.48    8.31
   4   3   0  195.10    8.49
  -4  -3   0  188.76    8.50
  -4   3   0  177.15    9.45
   5   3   0  915.54   28.14
   5  -3   0  913.14   30.43
  -5   3   0  919.63   33.09
  -5   3   0  875.56   29.73
  -5  -3   0  950.61   28.43
  -5  -3   0  907.64   27.86
   6  -3   0   69.73    7.04
  -6  -3   0   76.68    6.14
   6   3   0   62.48    5.68
   6   3   0   64.57    5.84
  -6  -3   0   55.14    6.01
  -6   3   0   65.06    6.65
   7   3   0   18.25    4.06
   7  -3   0   24.89    5.16
  -7   3   0   19.26    4.66
  -7  -3   0   25.83    4.49
  -8   3   0   25.40    5.63
  -8  -3   0   28.77    5.04
   8   3   0   24.50    4.79
   0   4   0 2615.78   79.25
   0   4   0 2559.80   79.08
  -1   4   0 1083.17   31.43
   1  -4   0 1019.07   30.77
   1   4   0 1113.22   30.79
   1   4   0 1093.64   30.44
  -1  -4   0 1059.43   30.26
  -1   4   0 1081.54   31.10
   1  -4   0 1114.91   31.69
  -1  -4   0 1127.43   30.63
   2  -4   0   34.98    3.74
   2  -4   0   38.99    4.17
  -2   4   0   35.44    3.64
  -2   4   0   40.93    3.88
  -2  -4   0   37.78    3.22
  -2  -4   0   39.28    3.26
   2   4   0   36.17    3.24
  -2  -4   0   42.34    3.28
  -3   4   0  552.90   19.92
   3  -4   0  577.76   20.08
  -3  -4   0  582.81   17.83
   3  -4   0  543.50   19.25
  -3  -4   0  582.79   18.11
  -3   4   0  542.66   19.41
   3   4   0  562.96   17.96
   3   4   0  549.85   18.01
  -4   4   0   21.49    4.04
  -4   4   0   19.12    4.58
   4  -4   0   18.31    3.79
   4  -4   0   21.78    3.98
   4   4   0   17.98    3.04
  -4  -4   0   22.00    3.34
  -4  -4   0   18.73    2.98
   4   4   0   13.13    2.86
  -5  -4   0  707.31   22.96
  -5  -4   0  727.10   23.52
   5   4   0  741.40   23.54
   5  -4   0  693.88   25.83
   5   4   0  734.55   23.69
  -5   4   0  703.45   25.45
  -6   4   0   -0.61    2.27
  -6  -4   0    2.30    2.56
   6   4   0   -1.85    1.83
  -6  -4   0    2.43    2.26
   6  -4   0    0.45    2.40
   6   4   0    0.60    1.95
   7   4   0   94.57    7.25
   7  -4   0   89.88    9.10
  -7  -4   0   82.21    7.06
  -7   4   0   88.63    8.26
  -7  -4   0   68.56    6.46
   8  -4   0   56.20    8.17
  -8   4   0   41.34    6.72
   8   4   0   43.74    6.06
  -8  -4   0   42.50    5.95
   0  -5   0    2.67    1.89
   0   5   0    1.96    1.83
   0  -5   0    2.73    1.88
   0  -5   0    0.94    1.16
   1   5   0  485.05   16.32
   1  -5   0  494.08   17.37
  -1   5   0  480.27   17.08
   1  -5   0  492.59   16.77
  -1  -5   0  512.59   16.31
  -1   5   0  471.98   16.77
  -1  -5   0  470.83   16.29
  -1  -5   0  487.03   16.44
  -2   5   0 1497.58   42.89
  -2  -5   0 1488.95   41.29
  -2   5   0 1500.23   43.39
   2   5   0 1480.79   41.61
   2  -5   0 1472.24   42.59
  -2  -5   0 1505.89   41.48
  -2  -5   0 1472.24   41.31
   2  -5   0 1505.49   43.58
  -3   5   0  411.32   16.09
  -3  -5   0  401.11   14.01
   3  -5   0  399.69   16.39
   3  -5   0  387.20   15.53
  -3   5   0  407.73   16.34
  -3  -5   0  384.65   14.16
   3   5   0  389.81   14.28
  -3  -5   0  381.52   14.11
  -4  -5   0   22.25    3.36
   4  -5   0   10.48    3.52
   4   5   0   21.68    3.44
   4   5   0   17.22    3.23
  -4  -5   0   16.97    3.03
  -4  -5   0   24.09    3.60
  -4   5   0   19.08    3.94
   5  -5   0  384.22   17.40
   5   5   0  364.91   14.46
   5   5   0  336.45   14.41
  -5  -5   0  349.35   14.40
  -5  -5   0  371.29   14.16
  -5   5   0  385.02   16.92
  -6  -5   0   -1.89    2.01
   6   5   0    0.84    2.32
   6  -5   0    2.93    3.01
  -6   5   0   -2.60    2.23
  -6  -5   0   -1.65    1.51
  -7  -5   0   41.99    5.69
  -7  -5   0   32.32    5.32
   7   5   0   45.86    5.46
   0   6   0  917.93   28.32
   0  -6   0  897.42   27.99
   0  -6   0  923.19   28.87
   0  -6   0  936.85   28.84
   1  -6   0  130.11    7.95
  -1  -6   0  132.23    7.35
  -1   6   0  126.11    7.63
  -1   6   0  120.75    7.51
   1   6   0  135.85    7.29
  -1  -6   0  120.65    6.92
  -1  -6   0  143.10    7.57
   1  -6   0  135.03    8.12
   1  -6   0  121.15    7.33
  -2  -6   0  267.24   11.58
  -2  -6   0  284.47   11.71
  -2  -6   0  306.78   11.93
  -2   6   0  281.68   12.80
  -2   6   0  284.90   13.02
   2   6   0  297.14   12.16
   2  -6   0  290.84   12.63
   2  -6   0  280.43   13.20
  -3  -6   0    7.52    2.29
   3  -6   0   10.68    3.36
   3   6   0   15.54    3.12
  -3  -6   0    8.89    2.45
  -3   6   0    9.08    2.91
  -3  -6   0    8.31    2.29
   4   6   0 1404.31   40.02
  -4   6   0 1360.90   42.53
   4  -6   0 1321.91   43.02
  -4  -6   0 1345.61   39.28
  -4  -6   0 1365.36   39.75
   5   6   0    8.23    2.84
  -5  -6   0    6.98    2.78
  -5  -6   0   10.15    3.10
  -5   6   0    6.78    3.39
  -5  -6   0    4.37    2.23
   5  -6   0   12.20    4.27
  -6   6   0  456.94   20.56
  -6  -6   0  428.91   17.37
   6  -6   0  436.15   20.62
  -6  -6   0  421.08   16.66
   6   6   0  438.53   17.53
   7   6   0   15.62    4.00
   7  -6   0   19.29    5.89
  -7  -6   0    7.42    3.59
  -7   6   0   19.33    5.50
   0  -7   0    2.28    1.86
   0  -7   0    0.92    1.89
   0   7   0    2.93    2.22
   0  -7   0    4.48    2.05
   1   7   0   15.78    3.39
   1  -7   0   14.12    3.31
  -1  -7   0   18.61    3.82
   1  -7   0   17.81    4.00
  -1   7   0   17.03    3.99
  -1  -7   0   17.34    3.38
  -1  -7   0   17.36    3.51
  -2  -7   0 1700.46   48.58
   2  -7   0 1605.32   48.34
  -2   7   0 1537.43   47.24
  -2  -7   0 1569.55   45.97
  -2  -7   0 1590.87   45.88
  -2  -7   0 1592.10   46.05
   3   7   0   26.01    4.41
  -3   7   0   23.01    4.59
  -3  -7   0   34.54    4.78
  -3  -7   0   29.03    4.25
   3  -7   0   24.80    4.90
  -3  -7   0   32.89    3.77
   4  -7   0    2.66    2.13
  -4   7   0    5.58    3.21
  -4  -7   0    6.34    2.74
  -4  -7   0    1.16    2.14
   4   7   0    2.87    2.10
  -4  -7   0    3.00    2.00
  -5  -7   0   40.57    5.40
   5   7   0   44.08    4.90
   5  -7   0   34.87    6.52
  -5  -7   0   39.14    4.49
  -5   7   0   38.45    6.38
  -6  -7   0   91.31    7.33
  -6   7   0   96.04    9.45
  -6  -7   0   98.13    7.33
   6  -7   0  108.10   10.28
   6   7   0  113.48    7.90
   7  -7   0    3.56    3.76
  -7   7   0    5.87    3.69
  -7  -7   0    3.21    3.18
   7   7   0    1.48    2.93
   0  -8   0 2932.29   81.47
   0   8   0 2936.68   80.94
   0  -8   0 2983.80   81.78
  -1  -8   0  113.58    9.22
  -1   8   0  117.48    8.39
  -1  -8   0  109.75    7.78
   1   8   0  112.14    7.86
   1  -8   0  111.14    8.51
  -1  -8   0  122.64    7.80
   2  -8   0  225.10   12.91
  -2  -8   0  243.70   11.97
  -2  -8   0  224.01   11.14
  -2  -8   0  218.32   11.30
  -2  -8   0  233.33   11.45
  -2   8   0  229.06   12.54
   3  -8   0  157.47   10.99
  -3  -8   0  158.67    9.34
  -3   8   0  156.32   10.48
  -3  -8   0  148.66    8.99
  -3  -8   0  159.42    9.40
  -3  -8   0  153.90    8.88
  -4  -8   0  429.27   17.11
  -4   8   0  416.74   19.33
   4  -8   0  414.27   19.66
  -4  -8   0  400.28   16.36
  -5   8   0  115.64   10.11
  -5  -8   0  109.82    7.77
   5  -8   0  122.27   10.82
   5   8   0  134.32    8.77
  -5  -8   0  124.75    8.61
  -6   8   0   -0.95    2.82
   6   8   0   -2.68    2.36
  -6  -8   0    1.83    3.09
   6  -8   0    0.40    2.65
   0   9   0    2.80    2.63
   0  -9   0    0.75    2.46
   1   9   0    0.20    2.24
  -1   9   0   -0.03    1.83
  -1  -9   0   -0.63    2.33
   1  -9   0   -1.89    2.50
  -2  -9   0   13.08    3.52
  -2   9   0    9.06    3.22
   2  -9   0    6.31    2.99
  -2  -9   0    7.93    3.25
  -3  -9   0  363.44   16.12
  -3  -9   0  365.20   16.11
  -3   9   0  378.38   18.24
   3  -9   0  357.64   18.29
  -4  -9   0   -0.18    1.83
  -4  -9   0    1.35    2.33
  -4   9   0    2.06    3.08
   4  -9   0    3.28    3.46
   5  -9   0  381.32   20.55
  -5   9   0  392.38   20.03
  -5  -9   0  398.54   17.01
   6   9   0    7.13    3.38
  -6   9   0    7.23    4.05
   6  -9   0   -0.92    2.30
  -6  -9   0   -2.36    2.83
   0  10   0    7.02    3.22
   0 -10   0    8.63    3.42
   1 -10   0   28.31    5.68
  -1  10   0   22.34    5.13
   1  10   0   22.18    4.85
  -1 -10   0   32.68    5.60
   2 -10   0  105.31    9.69
  -2 -10   0   98.78    8.22
  -2  10   0  100.33    9.03
  -2 -10   0   85.59    8.05
  -3 -10   0   55.42    6.17
  -3  10   0   52.90    7.97
   3 -10   0   51.02    7.97
  -3 -10   0   51.43    6.02
  -4 -10   0   78.50    7.25
  -4  10   0   89.14    9.33
   4 -10   0   70.60    9.85
  -4 -10   0   63.59    6.90
  -5 -10   0   78.81    7.39
   5 -10   0  105.36   11.06
  -5 -10   0   93.52    8.29
  -5  10   0  100.44   10.29
   0  11   0    8.65    4.03
   0 -11   0    5.14    3.25
  -1 -11   0   -0.32    2.25
  -1 -11   0    2.86    2.55
  -1  11   0   -2.32    2.71
   1 -11   0    0.65    2.87
   1  11   0    0.34    2.20
  -2 -11   0   69.50    7.39
  -2  11   0   74.11   11.62
  -2 -11   0   62.97    7.36
   3 -11   0  224.43   15.18
  -3 -11   0  213.02   12.72
  -3  11   0  219.40   14.35
  -3 -11   0  205.11   12.73
  -4 -11   0   11.20    3.77
   4 -11   0    1.48    2.79
  -4 -11   0    3.63    3.55
  -4  11   0   11.21    4.77
  -5 -11   0   48.56    6.80
  -5  11   0   61.56    9.21
  -5 -11   0   34.24    6.32
   5 -11   0   53.25    9.50
   0  12   0  963.27   35.54
   1 -12   0   -2.65    2.50
  -1 -12   0    0.30    2.98
  -1  12   0   -2.44    2.42
  -2 -12   0   16.54    5.08
  -2 -12   0    8.52    3.59
   2 -12   0   12.36    5.32
  -2  12   0    7.54    4.35
  -3  12   0   86.20    9.62
   3 -12   0   76.86    9.08
  -3 -12   0   67.15    7.72
  -4  12   0   41.33    7.79
  -4 -12   0   31.95    6.66
  -4 -12   0   37.44    6.32
   4 -12   0   45.85    8.67
   0  13   0    0.24    2.28
   0 -13   0    2.56    3.46
   1 -13   0    7.42    4.39
  -1 -13   0    3.84    3.47
  -1  13   0   -1.17    2.64
  -1 -13   0    5.29    3.57
  -2 -13   0  268.15   16.36
  -2 -13   0  295.16   16.97
   2 -13   0  298.04   18.44
  -2  13   0  288.06   18.05
  -1   0   1  921.70   39.24
   1   0  -1  948.18   39.62
  -1   0  -1  900.34   38.61
  -2   0  -1  155.52    5.70
   2   0  -1  158.17    6.96
   2   0   1  149.95    5.61
   2   0  -1  162.70    6.45
  -2   0   1  148.68    5.66
  -2   0   1  156.99    6.32
   2   0   1  157.85    6.38
  -3   0  -1 2381.39   63.02
  -3   0   1 2346.89   62.19
   3   0   1 2429.57   62.15
  -3   0  -1 2406.45   62.17
   4   0   1   28.57    3.51
  -4   0   1   28.18    3.19
   4   0  -1   28.28    3.78
   4   0   1   27.56    3.77
  -4   0  -1   30.07    3.99
  -4   0  -1   30.60    3.35
  -4   0   1   25.93    3.77
   4   0  -1   28.83    3.05
   5   0  -1  722.23   24.54
  -5   0   1  732.41   24.03
   5   0  -1  748.25   24.06
   5   0   1  775.04   25.09
  -5   0  -1  771.21   24.21
   5   0   1  748.73   23.93
  -5   0   1  759.86   24.88
   6   0   1   44.08    5.47
   6   0   1   48.33    6.37
  -6   0  -1   47.05    6.60
  -6   0   1   48.54    5.00
  -6   0   1   47.94    6.14
   6   0  -1   46.25    5.07
   7   0  -1  274.03   13.34
  -7   0   1  288.98   14.54
  -7   0  -1  267.10   13.27
   7   0   1  278.89   14.35
  -8   0  -1   11.64    3.57
   8   0  -1    1.46    2.96
   8   0   1    5.73    3.96
  -8   0   1    5.68    2.84
   0   1  -1    0.11    0.35
   0   1   1   -0.15    0.40
   0   1   1   -0.30    0.18
   0  -1   1   -0.11    0.19
   0  -1  -1    0.19    0.33
  -1  -1  -1  216.56    5.94
  -1  -1  -1  218.74    6.89
  -1   1   1  210.22    6.88
   1  -1   1  215.58    7.27
   1   1  -1  213.71    6.85
   1  -1   1  203.84    6.66
  -1   1   1  212.70    7.08
   1   1  -1  210.88    5.79
  -1   1  -1  205.09    6.66
   1  -1  -1  205.78    6.87
  -1   1  -1  203.47    7.11
   1  -1  -1  205.23    7.01
   1   1   1  209.89    6.88
  -1  -1   1  197.53    6.69
   1   1   1  199.72    5.90
  -1  -1   1  203.28    5.76
  -2   1   1  790.87   22.08
  -2   1   1  774.70   22.35
  -2  -1  -1  754.37   21.86
   2  -1   1  767.36   21.74
   2  -1   1  748.17   22.45
   2   1  -1  761.69   20.86
  -2  -1  -1  765.49   21.06
   2   1   1  762.63   21.96
  -2   1  -1  794.31   21.85
   2   1   1  762.67   20.97
  -2  -1   1  775.52   21.94
  -2   1  -1  819.83   22.73
   2  -1  -1  787.57   22.07
   2  -1  -1  817.89   22.46
  -2  -1   1  810.19   20.95
  -3   1   1  398.03   14.17
  -3  -1  -1  401.31   13.06
  -3   1   1  378.13   13.76
   3   1  -1  402.21   12.97
  -3  -1  -1  408.15   13.86
   3   1  -1  414.66   13.89
   3  -1   1  397.01   14.41
   3  -1   1  410.04   13.72
   3   1   1  435.52   13.23
   3   1   1  438.37   14.16
   3  -1  -1  435.95   14.48
  -3   1  -1  434.17   13.95
   3  -1  -1  428.59   14.04
  -3  -1   1  451.85   14.21
  -3   1  -1  435.94   14.74
  -4  -1  -1 1222.70   35.71
   4   1  -1 1236.00   34.76
   4   1  -1 1204.17   35.59
  -4   1   1 1204.55   35.85
   4  -1   1 1254.52   35.58
   4  -1   1 1253.78   36.64
  -4   1   1 1228.71   36.22
  -4  -1  -1 1251.31   34.88
  -4   1  -1 1292.17   35.81
   4   1   1 1280.17   36.01
  -4   1  -1 1274.09   36.67
   4  -1  -1 1273.97   36.01
   4  -1  -1 1222.10   36.15
   4   1   1 1228.38   34.74
  -4  -1   1 1246.73   34.89
  -4  -1   1 1260.96   35.86
   5  -1   1   12.33    3.07
  -5   1   1   17.03    4.13
  -5  -1  -1   14.61    2.91
   5   1  -1    9.87    3.37
   5   1  -1   14.36    3.02
  -5  -1  -1   18.55    3.48
  -5   1   1   16.43    3.35
   5  -1   1   13.99    3.53
  -5  -1   1   15.28    3.33
   5  -1  -1   13.88    3.44
   5  -1  -1   11.04    2.93
  -5   1  -1   11.46    2.95
  -5   1  -1   14.93    3.38
   5   1   1   13.43    2.80
  -5  -1   1   14.43    2.80
   5   1   1   11.69    3.06
   6   1  -1  104.31    7.05
   6  -1   1   89.68    7.17
  -6   1   1   91.16    7.08
   6  -1   1   84.14    7.31
  -6  -1  -1   96.07    6.77
  -6  -1  -1   85.06    6.87
  -6   1   1   97.09    7.65
  -6   1  -1  100.53    7.48
   6  -1  -1  101.72    7.36
  -6  -1   1  107.87    7.82
   6   1   1  112.36    7.97
   6   1   1   92.71    6.54
   7   1  -1   54.35    5.77
   7  -1   1   44.69    6.59
  -7  -1  -1   59.92    5.87
  -7   1   1   53.21    7.07
  -7  -1   1   47.48    6.40
  -7   1  -1   61.91    6.38
   7   1   1   45.50    6.39
   7  -1  -1   46.70    6.50
  -8   1   1   65.69    7.36
   8  -1   1   74.33    7.76
   8   1  -1   70.65    6.81
  -8  -1  -1   83.29    7.19
   8   1   1   56.91    7.68
  -8   1  -1   63.03    7.07
   8  -1  -1   61.79    7.10
  -8  -1   1   54.31    7.41
   0   2   1 1732.60   53.17
   0  -2  -1 1788.38   53.67
   0  -2   1 1758.07   54.65
   0   2  -1 1682.06   53.91
  -1  -2  -1  632.22   17.75
  -1   2   1  657.71   18.89
   1   2  -1  631.85   18.50
  -1   2   1  665.21   19.04
   1  -2   1  626.67   18.59
  -1  -2  -1  653.36   18.56
  -1  -2  -1  649.32   17.75
   1   2  -1  645.85   17.72
   1  -2   1  662.49   19.12
   1   2   1  688.90   18.76
   1  -2  -1  675.76   19.13
  -1  -2   1  673.05   17.71
  -1  -2   1  668.33   18.58
  -1   2  -1  674.00   19.20
   1  -2  -1  665.58   18.91
  -1   2  -1  682.81   18.83
  -2   2   1 3050.36  112.17
   2  -2   1 2774.35  109.71
  -2  -2  -1 2781.79   96.87
   2   2  -1 2735.17   96.91
  -2   2  -1 2877.17  111.18
  -2  -2   1 2907.98   99.04
   2  -2  -1 3056.74  111.96
  -3   2   1 1967.76   55.41
   3  -2   1 1971.26   55.68
  -3  -2  -1 2102.91   53.61
   3   2  -1 2070.89   53.44
   3   2  -1 2059.67   54.66
  -3   2   1 2007.14   55.37
   3  -2   1 2067.36   55.03
  -3  -2  -1 2017.98   54.43
   3  -2  -1 2104.31   55.62
  -3   2  -1 2057.77   55.93
  -3  -2   1 2074.83   53.32
  -3  -2   1 2106.82   54.74
   3   2   1 2011.28   53.53
   3   2   1 2107.98   54.74
   3  -2  -1 2036.27   55.44
  -3   2  -1 2070.93   55.11
  -4  -2  -1  146.77    7.51
   4   2  -1  159.30    7.76
   4  -2   1  153.50    7.91
   4  -2   1  159.88    8.72
  -4   2   1  147.21    8.10
  -4   2   1  154.74    8.43
  -4  -2  -1  147.44    7.07
   4   2  -1  156.63    7.05
  -4  -2   1  162.51    7.06
   4  -2  -1  165.51    8.41
   4  -2  -1  159.03    8.45
   4   2   1  166.84    7.30
   4   2   1  147.80    7.65
  -4  -2   1  162.69    8.02
  -4   2  -1  151.02    7.99
  -4   2  -1  166.44    8.68
   5  -2   1  362.94   14.52
   5   2  -1  348.26   13.20
  -5  -2  -1  353.74   13.27
  -5  -2  -1  379.52   14.29
  -5   2   1  346.31   14.74
   5  -2   1  350.04   15.25
  -5   2   1  348.89   14.95
   5  -2  -1  352.34   14.79
  -5   2  -1  348.10   14.45
   5   2   1  351.33   13.25
   5   2   1  372.08   14.42
  -5  -2   1  352.79   14.16
  -5   2  -1  352.58   15.30
   5  -2  -1  327.12   14.56
  -5  -2   1  343.16   13.04
   6  -2   1  320.35   15.44
  -6   2   1  332.94   15.49
  -6  -2  -1  361.22   14.06
   6   2  -1  343.08   13.69
  -6  -2  -1  324.79   14.22
   6  -2  -1  321.62   15.04
  -6  -2   1  320.10   14.29
   6   2   1  316.32   13.45
   6   2   1  329.98   14.65
  -6   2  -1  336.26   14.89
  -6  -2   1  331.36   13.46
   7  -2   1   99.01    8.60
  -7   2   1   93.29    8.23
   7   2  -1   87.08    7.01
  -7  -2   1   99.99    7.78
   7   2   1   93.14    7.73
   7  -2  -1  100.82    8.32
  -7  -2   1   64.77    6.27
  -7   2  -1   88.20    7.69
  -8   2   1   25.04    6.63
   8  -2   1   41.35    7.20
   8   2  -1   41.97    5.93
  -8  -2  -1   34.66    5.44
   8   2   1   31.66    5.87
  -8  -2   1   37.55    6.01
   8  -2  -1   37.11    6.61
  -8   2  -1   46.94    6.74
   0  -3  -1  756.34   22.26
   0   3  -1  745.22   21.87
   0  -3   1  761.77   21.84
   0  -3   1  791.48   21.92
   0   3   1  746.81   21.57
   0   3   1  813.61   22.54
   0  -3  -1  757.48   22.56
   0   3  -1  752.97   21.76
   0  -3  -1  791.23   22.29
   1   3  -1 3254.26   93.23
  -1  -3  -1 3356.05   88.61
  -1  -3  -1 3300.28   88.87
  -1  -3   1 3292.22   92.91
   1  -3  -1 3504.73  112.31
  -2  -3  -1 1777.11   45.50
  -2  -3  -1 1737.69   45.33
   2  -3   1 1715.30   47.50
  -2   3   1 1744.46   47.26
   2   3  -1 1763.99   46.39
  -2  -3  -1 1760.31   46.26
  -2   3   1 1765.43   47.44
   2   3  -1 1747.31   45.22
   2  -3   1 1752.47   46.86
   2   3   1 1704.07   46.30
  -2   3  -1 1703.09   46.90
   2  -3  -1 1701.44   47.03
  -2  -3   1 1690.50   45.01
  -2  -3   1 1688.15   46.20
  -2   3  -1 1732.26   47.56
   2  -3  -1 1728.74   47.43
   3   3  -1  520.20   15.81
  -3  -3  -1  519.07   15.95
   3  -3   1  507.58   17.40
  -3  -3  -1  507.59   16.61
   3  -3   1  502.79   18.09
   3   3  -1  549.76   17.10
  -3   3   1  505.39   17.86
  -3   3   1  508.87   17.90
   3  -3  -1  505.47   17.72
   3   3   1  490.18   15.83
   3   3   1  529.88   16.98
   3  -3  -1  513.91   17.95
  -3  -3   1  554.88   16.81
  -3   3  -1  518.88   17.64
  -3   3  -1  526.72   18.38
  -3  -3   1  529.70   16.95
  -4   3   1  273.69   12.34
  -4   3   1  271.09   12.29
  -4  -3  -1  290.86   11.37
   4  -3   1  275.06   11.93
   4  -3   1  274.58   12.66
   4   3  -1  299.50   11.63
  -4  -3  -1  267.39   10.43
   4   3  -1  278.33   10.39
  -4  -3   1  267.02   11.22
  -4   3  -1  275.14   12.68
  -4  -3   1  272.82   10.18
   4   3   1  285.89   11.52
  -4   3  -1  263.21   11.86
   4  -3  -1  268.46   12.16
   4   3   1  295.14   10.77
   4  -3  -1  286.17   12.51
  -5   3   1 1105.62   36.36
  -5  -3  -1 1166.19   33.96
  -5   3   1 1213.56   36.91
  -5  -3  -1 1162.44   34.79
   5   3  -1 1194.62   33.86
   5  -3   1 1169.81   37.17
   5  -3   1 1144.68   35.85
   5   3   1 1175.34   35.16
   5  -3  -1 1138.10   36.45
  -5  -3   1 1169.84   33.52
  -5  -3   1 1172.69   35.11
   5   3   1 1156.70   33.96
  -5   3  -1 1196.04   36.29
  -6   3   1    5.97    3.00
   6   3  -1    4.67    2.15
  -6  -3  -1    0.55    1.87
  -6  -3  -1   -2.10    1.61
   6  -3   1    0.56    2.59
  -6  -3   1    1.85    2.41
   6   3   1    2.92    2.25
   6  -3  -1   -1.39    2.44
  -6   3  -1    1.26    2.57
  -6  -3   1    2.35    1.91
  -7  -3  -1   47.83    5.90
   7  -3   1   48.36    7.44
   7   3  -1   42.95    5.01
  -7   3   1   45.39    6.72
   7   3   1   49.90    5.98
  -7   3  -1   41.15    6.32
   7  -3  -1   43.42    6.80
  -7  -3   1   49.64    6.36
  -7  -3   1   45.59    4.90
  -8   3   1    4.13    3.42
   8  -3   1    7.70    3.85
   8   3  -1   -2.67    2.06
  -8  -3  -1   -0.95    2.45
   8   3   1   -0.05    2.69
   8  -3  -1    0.80    3.70
  -8  -3   1   -3.23    2.55
   0   4  -1 2609.09   81.84
   0  -4  -1 2568.18   80.30
   0   4  -1 2536.09   80.48
   0   4   1 2527.61   78.99
  -1   4   1  432.23   15.06
  -1  -4  -1  447.98   13.96
   1  -4   1  429.65   15.08
   1  -4   1  430.51   14.69
  -1   4   1  449.19   14.88
  -1  -4  -1  445.37   14.63
  -1  -4   1  432.22   14.01
   1   4   1  448.09   14.86
  -1   4  -1  439.38   15.12
   1   4   1  416.13   13.80
   1  -4  -1  436.31   14.75
   1  -4  -1  426.49   15.18
  -1  -4   1  427.08   14.30
  -1   4  -1  435.52   14.84
  -1  -4   1  439.51   13.98
  -1  -4   1  438.76   14.58
  -2   4   1  287.19   11.41
  -2   4   1  263.82   11.25
   2   4  -1  274.65    9.80
  -2  -4  -1  275.99   10.34
  -2  -4  -1  268.67    9.70
   2  -4   1  280.70   11.00
   2  -4   1  261.34   11.37
  -2  -4  -1  277.69    9.86
   2  -4  -1  257.78   10.84
   2  -4  -1  263.98   11.38
  -2  -4   1  265.10   10.27
  -2   4  -1  273.45   11.42
   2   4   1  262.41   10.40
  -2  -4   1  274.04   10.42
  -2   4  -1  262.38   10.88
  -2  -4   1  263.45    9.49
  -3  -4  -1 1373.36   37.90
   3  -4   1 1366.31   39.91
   3  -4   1 1386.20   40.99
  -3  -4  -1 1427.32   37.99
   3   4  -1 1393.98   37.77
  -3   4   1 1360.51   40.50
   3   4  -1 1420.44   39.13
  -3   4   1 1372.36   40.36
  -3  -4  -1 1435.29   38.84
   3   4   1 1402.30   39.07
  -3  -4   1 1377.51   38.87
  -3   4  -1 1389.05   40.96
  -3  -4   1 1376.77   37.52
   3  -4  -1 1315.70   39.94
   3  -4  -1 1345.18   40.49
  -3   4  -1 1360.19   40.06
   4   4  -1   25.21    2.84
  -4   4   1   26.18    4.32
  -4   4   1   14.70    3.62
   4  -4   1   21.87    3.99
   4  -4   1   24.87    4.20
  -4  -4  -1   28.19    3.87
   4   4  -1   21.96    3.77
  -4  -4  -1   23.24    3.26
   4  -4  -1   30.29    5.63
   4   4   1   35.91    3.98
   4  -4  -1   31.24    4.74
   4   4   1   26.96    3.56
  -4   4  -1   31.49    4.82
  -4   4  -1   24.76    4.05
  -4  -4   1   30.61    3.01
  -4  -4   1   27.55    4.02
  -5  -4  -1   46.66    4.48
   5  -4   1   44.92    6.37
  -5   4   1   49.54    6.60
   5   4  -1   43.08    4.09
  -5  -4  -1   51.45    4.67
   5   4  -1   50.50    4.81
  -5   4  -1   41.46    5.57
   5   4   1   37.31    4.01
   5   4   1   38.29    4.64
  -5  -4   1   42.96    3.99
   5  -4  -1   53.35    5.90
  -5  -4   1   42.51    4.62
   6  -4   1    9.93    4.00
  -6   4   1    8.35    3.70
  -6  -4  -1    3.00    2.49
   6   4  -1   12.53    2.92
  -6  -4  -1    7.53    2.58
  -6  -4   1    8.38    3.41
  -6  -4   1    6.95    2.35
  -6   4  -1    8.75    3.43
   6  -4  -1    9.01    3.71
   6   4   1    7.21    2.62
   6   4   1    6.30    3.15
   7   4  -1  141.12    8.37
   7  -4   1  129.15   10.59
  -7   4   1  129.49   10.18
  -7  -4  -1  135.55    8.47
  -7  -4   1  128.15    8.93
   7   4   1  129.42    9.13
   7  -4  -1  129.32   10.39
  -7  -4   1  130.73    8.03
  -7   4  -1  129.51    9.80
   8  -4   1  276.99   16.53
  -8   4   1  270.23   16.06
  -8  -4  -1  273.14   13.28
   8  -4  -1  257.67   15.67
   8   4   1  278.14   14.26
  -8  -4   1  277.51   14.25
  -8   4  -1  261.41   15.20
   0  -5   1 1643.72   46.60
   0  -5  -1 1645.36   46.94
   0  -5   1 1786.17   46.85
   0   5  -1 1683.97   46.42
   0   5  -1 1682.70   46.57
   0  -5  -1 1672.52   46.87
   0  -5  -1 1638.61   45.98
   0  -5   1 1735.39   46.46
   0   5   1 1662.27   46.15
   1   5  -1  213.84    9.31
   1  -5   1  234.97    9.82
   1  -5   1  215.84    9.89
  -1  -5  -1  215.87    9.39
  -1  -5  -1  217.57    8.76
  -1   5   1  223.20    9.72
  -1   5   1  208.71    9.73
   1   5   1  207.35    9.39
  -1   5  -1  205.24    9.53
   1  -5  -1  212.91    9.47
  -1  -5   1  188.82    8.84
  -1  -5   1  209.37    9.28
   1   5   1  212.43    8.83
   1  -5  -1  202.84    9.92
  -1  -5   1  206.72    8.89
   1  -5  -1  194.05    9.56
  -1   5  -1  194.92    9.32
  -1  -5   1  195.67    8.67
   2   5  -1  183.72    8.01
  -2  -5  -1  169.97    7.69
  -2  -5  -1  180.20    7.93
  -2   5   1  185.78    9.31
  -2  -5  -1  181.66    8.33
   2  -5   1  174.47    9.16
   2  -5   1  176.57    8.88
  -2   5   1  179.90    9.02
  -2   5  -1  178.14    9.22
   2  -5  -1  178.99    8.97
  -2   5  -1  186.95    9.10
  -2  -5   1  173.42    8.28
  -2  -5   1  181.85    7.83
   2   5   1  163.64    8.32
   2  -5  -1  154.14    8.95
  -2  -5   1  165.70    8.09
   3  -5   1  240.42   11.31
   3   5  -1  231.79    9.75
  -3  -5  -1  249.83   10.46
  -3  -5  -1  243.95    9.99
   3  -5   1  235.34   13.53
  -3  -5  -1  251.51   10.09
  -3   5   1  245.85   13.52
  -3   5   1  237.22   11.78
  -3   5  -1  259.32   12.25
   3  -5  -1  258.52   12.21
  -3  -5   1  252.07   10.68
   3  -5  -1  252.26   11.61
   3   5   1  254.43   10.91
  -3  -5   1  250.17    9.71
  -3   5  -1  259.28   11.76
  -3  -5   1  258.67   10.79
  -4  -5  -1  107.38    6.24
   4  -5   1  112.30    8.15
   4   5  -1  105.63    6.09
  -4  -5  -1  103.41    6.50
  -4  -5  -1  111.48    6.40
  -4   5   1  116.52    8.24
   4   5  -1   97.70    6.63
  -4   5  -1  126.39    8.12
   4   5   1  120.32    7.18
  -4  -5   1  112.82    6.97
  -4  -5   1  108.86    6.03
   4  -5  -1  109.05    8.17
   5  -5   1  586.72   23.25
   5   5  -1  581.61   20.99
   5   5  -1  603.28   19.65
  -5  -5  -1  591.40   19.83
  -5   5   1  536.68   22.23
   5   5   1  582.86   20.78
  -5  -5   1  571.85   20.67
   5   5   1  587.36   20.01
  -5  -5   1  596.65   19.26
   5  -5  -1  595.47   23.17
  -5   5  -1  568.78   22.37
   6   5  -1   73.37    5.76
   6  -5   1   69.28    7.75
  -6   5   1   66.79    7.53
  -6  -5  -1   58.71    5.80
  -6  -5   1   82.59    5.72
   6   5   1   80.43    6.72
  -6  -5   1   84.82    6.92
   6  -5  -1   95.49    8.62
  -6   5  -1   86.50    7.86
   6   5   1   73.62    6.13
  -7   5   1   77.70    8.43
   7   5  -1   83.31    6.60
  -7  -5  -1   83.53    6.74
   7  -5   1   84.44    9.22
   7   5   1   92.78    7.92
   7  -5  -1  101.78    9.45
  -7   5  -1   89.15    8.45
  -7  -5   1   88.94    7.69
  -7  -5   1   75.62    6.25
   0  -6   1  178.04    9.21
   0  -6   1  192.02    9.39
   0   6  -1  192.05    9.28
   0  -6  -1  175.03    9.33
   0  -6  -1  191.73    9.62
   0   6   1  191.44    9.14
   0  -6  -1  183.15    8.85
   0  -6   1  182.63    9.02
  -1  -6  -1  266.70   11.59
   1  -6   1  264.43   11.58
   1  -6   1  250.59   11.86
  -1  -6  -1  260.01   10.83
  -1  -6  -1  269.47   11.66
  -1   6   1  246.02   11.45
   1   6  -1  270.37   11.48
  -1   6  -1  266.50   11.85
   1  -6  -1  270.64   12.34
  -1  -6   1  288.72   11.50
  -1  -6   1  271.50   11.54
  -1  -6   1  268.74   11.32
  -1   6  -1  281.74   11.99
  -1  -6   1  247.20   10.94
   1  -6  -1  258.00   11.40
   1   6   1  290.89   11.36
   1  -6  -1  273.21   12.28
   1   6   1  265.57   11.86
  -2  -6  -1  188.39    9.30
  -2  -6  -1  197.62    9.05
   2  -6   1  209.93   10.28
  -2  -6  -1  198.30    8.96
  -2   6   1  195.50   10.22
  -2   6   1  183.26   10.06
   2  -6   1  182.73   10.32
  -2  -6   1  221.26    9.76
  -2  -6   1  189.23    8.79
  -2   6  -1  198.38   10.51
   2  -6  -1  205.35   10.70
  -2  -6   1  205.71    9.11
   2  -6  -1  199.85   10.13
   2   6   1  214.06   10.05
  -2   6  -1  185.67   10.05
  -2  -6   1  193.94    9.46
   3  -6   1   72.68    6.49
  -3  -6  -1   81.86    5.49
  -3  -6  -1   71.76    5.12
  -3   6   1   80.25    6.57
  -3  -6  -1   74.20    5.51
   3   6  -1   87.63    5.71
  -3  -6   1   82.85    5.95
   3  -6  -1   78.67    6.99
  -3   6  -1   73.94    6.50
  -3  -6   1   88.24    5.48
   3   6   1   77.73    6.06
  -3  -6   1   79.22    5.82
  -4  -6  -1  562.65   19.02
  -4  -6  -1  545.76   19.47
   4   6  -1  562.87   19.00
   4  -6   1  527.23   22.00
  -4  -6  -1  550.65   19.06
  -4   6   1  532.66   21.49
  -4  -6   1  584.66   20.11
  -4   6  -1  575.13   21.82
   4  -6  -1  557.03   22.20
  -4  -6   1  541.55   19.78
   4   6   1  562.00   20.10
  -4  -6   1  539.03   18.33
   5   6  -1   65.25    5.37
  -5  -6  -1   62.31    5.42
  -5  -6  -1   55.07    5.21
  -5   6   1   53.89    6.16
   5  -6   1   44.24    6.90
  -5  -6  -1   61.56    5.31
  -5  -6   1   55.36    4.70
   5  -6  -1   51.40    6.16
  -5   6  -1   56.73    6.48
   5   6   1   56.06    5.72
  -5  -6   1   57.78    5.67
  -6  -6  -1  468.08   17.85
  -6  -6  -1  441.31   17.65
   6   6  -1  470.04   17.48
  -6   6   1  500.38   21.67
   6  -6   1  477.75   22.01
  -6  -6   1  458.95   16.93
  -6   6  -1  461.60   20.76
   6  -6  -1  470.35   21.52
   6   6   1  486.25   19.07
  -6  -6   1  491.15   19.08
  -7   6   1   73.15    9.66
   7   6  -1   92.26    6.71
   7  -6   1   71.99   10.06
   7   6   1   90.49    7.69
  -7   6  -1   94.01    9.07
  -7  -6   1   78.12    7.44
   7  -6  -1   91.78    9.47
   0  -7   1 2389.54   65.51
   0  -7  -1 2450.52   65.39
   0   7   1 2366.35   65.36
   0  -7   1 2374.56   65.93
   0  -7  -1 2317.41   66.16
   0  -7  -1 2343.01   66.37
   0   7  -1 2393.69   65.89
   1   7  -1  213.74   10.74
   1  -7   1  201.97   12.80
   1  -7   1  233.87   11.24
  -1  -7  -1  223.99   10.42
  -1  -7  -1  225.22   11.11
  -1  -7   1  247.94   11.19
   1  -7  -1  227.27   11.17
   1   7   1  244.90   11.00
   1  -7  -1  240.09   12.03
  -1   7  -1  230.09   11.59
   1  -7  -1  257.96   12.57
  -1  -7   1  240.36   11.10
  -1   7  -1  251.94   11.99
  -1  -7   1  233.47   10.93
  -2  -7  -1    7.83    2.41
  -2   7   1    9.19    2.87
   2  -7   1    8.16    2.82
  -2  -7  -1    9.82    2.69
  -2  -7   1    4.92    1.99
  -2  -7   1    9.61    2.68
  -2   7  -1    9.86    3.26
  -2  -7   1    9.95    2.93
  -2  -7   1    7.53    2.33
   2  -7  -1    9.27    3.16
   2   7   1    8.63    2.96
   3  -7   1  812.60   29.40
  -3  -7  -1  880.07   26.79
  -3  -7  -1  825.52   26.57
  -3  -7  -1  849.96   27.34
  -3   7   1  855.45   29.15
   3  -7  -1  832.31   29.64
  -3  -7   1  782.31   26.81
  -3  -7   1  827.52   26.32
   3   7   1  848.15   27.76
  -3  -7   1  810.53   26.00
  -3   7  -1  811.66   28.58
  -4   7   1   35.53    6.07
   4  -7   1   37.90    6.51
  -4  -7  -1   33.98    4.72
  -4  -7  -1   39.18    4.63
   4   7  -1   44.14    4.66
  -4  -7  -1   41.07    4.42
  -4  -7   1   33.80    5.56
  -4   7  -1   38.17    5.97
  -4  -7   1   48.48    5.14
   4  -7  -1   31.23    5.67
  -4  -7   1   33.66    3.87
   4   7   1   34.04    5.20
  -5  -7  -1  206.46   10.50
  -5  -7  -1  205.31   10.68
   5   7  -1  202.68   10.23
   5  -7   1  188.86   12.68
  -5   7   1  190.20   12.55
  -5  -7  -1  201.21   10.29
  -5  -7   1  224.32   11.48
   5   7   1  231.82   11.82
  -5  -7   1  201.56    9.80
   5  -7  -1  202.95   13.28
  -5   7  -1  227.53   13.33
   6   7  -1    7.90    2.89
  -6  -7  -1    1.84    2.66
   6  -7   1    9.02    3.97
  -6   7   1    7.73    3.64
   6   7   1    1.49    2.64
  -6  -7   1    7.22    3.57
   6  -7  -1    5.04    4.49
   7   7  -1    2.66    3.83
  -7   7   1   13.68    3.95
   7  -7   1    2.49    4.12
  -7  -7  -1   -1.57    2.62
   7   7   1    4.52    2.84
   7  -7  -1    5.90    4.05
  -7  -7   1    4.70    3.48
  -7   7  -1    3.92    3.68
   0   8  -1  399.93   16.78
   0  -8   1  399.07   16.86
   0  -8   1  406.98   16.97
   0   8   1  381.91   16.21
   0  -8  -1  411.47   17.35
   0  -8  -1  377.12   15.86
  -1  -8  -1   76.63    6.57
   1  -8   1   69.16    6.66
  -1  -8  -1   66.64    6.34
   1   8  -1   79.94    6.76
  -1  -8  -1   76.03    6.04
  -1   8   1   89.12    7.00
   1  -8  -1   83.15    7.43
  -1  -8   1   85.90    6.61
  -1  -8   1   86.13    6.70
  -1   8  -1   93.12    7.43
  -1  -8   1   84.78    6.61
   1   8   1   83.04    6.59
  -2   8   1   56.75    6.39
   2  -8   1   67.63    7.03
  -2  -8  -1   65.58    5.51
  -2  -8  -1   57.34    5.65
  -2  -8  -1   59.86    5.77
  -2  -8   1   65.60    5.57
  -2   8  -1   58.18    6.07
  -2  -8   1   56.15    5.70
  -2  -8   1   73.51    6.01
   2  -8  -1   62.88    6.82
   3  -8   1  371.63   17.59
  -3  -8  -1  328.75   14.19
  -3  -8  -1  334.62   14.69
  -3  -8  -1  347.75   14.52
  -3   8   1  351.83   16.72
  -3   8  -1  328.94   16.10
   3   8   1  342.34   15.45
  -3  -8   1  347.08   15.14
  -3  -8   1  341.43   14.39
   3  -8  -1  324.75   16.82
  -3  -8   1  345.27   14.39
   4  -8   1   35.29    6.20
  -4  -8  -1   35.42    4.91
  -4  -8  -1   35.75    5.13
  -4   8   1   35.62    6.38
  -4  -8   1   36.04    4.75
  -4  -8   1   28.64    4.40
   4  -8  -1   25.10    5.62
  -4  -8   1   34.53    5.33
  -4   8  -1   28.57    5.67
   4   8   1   34.84    5.37
  -5  -8  -1  233.53   11.76
  -5   8   1  242.25   16.96
   5   8  -1  243.94   11.79
   5  -8   1  226.99   17.17
  -5  -8   1  230.96   12.55
   5  -8  -1  249.36   15.44
   5   8   1  243.39   12.91
  -5   8  -1  234.02   14.29
  -5  -8   1  232.84   11.17
  -6   8   1   28.90    6.19
   6  -8   1   22.83    6.14
  -6  -8  -1   21.86    4.39
  -6  -8   1   22.99    4.08
   6   8   1   22.22    4.63
  -6   8  -1   36.00    6.39
   6  -8  -1   32.19    7.11
  -6  -8   1   22.69    4.86
   0   9   1    3.96    2.99
   0   9  -1    9.88    3.22
   0  -9   1    8.50    3.14
   0  -9  -1    3.71    2.83
  -1  -9  -1  567.72   22.78
  -1   9   1  563.93   22.80
   1   9  -1  594.09   22.68
   1  -9   1  559.56   23.12
   1  -9  -1  603.48   24.02
  -1  -9   1  622.67   23.19
  -1   9  -1  593.03   23.23
   1   9   1  639.96   22.83
  -1  -9   1  578.76   22.42
  -2  -9  -1  746.56   26.52
  -2   9   1  753.36   28.21
  -2  -9  -1  787.16   27.51
   2  -9   1  698.01   28.19
  -2  -9   1  734.85   27.02
  -2   9  -1  776.16   28.60
  -2  -9   1  769.46   28.72
   2  -9  -1  799.17   29.47
  -2  -9   1  806.22   27.04
  -3   9   1    0.95    2.23
  -3  -9  -1    4.37    2.67
  -3  -9  -1    0.10    2.02
   3  -9   1   -1.03    2.11
  -3  -9   1    1.48    2.26
  -3  -9   1    0.46    2.31
  -3   9  -1    5.93    3.34
   3  -9  -1    3.05    2.72
  -3  -9   1    0.15    1.83
  -4  -9  -1  191.54   10.81
   4  -9   1  163.71   12.30
  -4   9   1  191.01   12.87
   4   9   1  198.40   11.63
  -4  -9   1  180.20   11.17
  -4   9  -1  188.33   12.50
  -4  -9   1  184.94   10.41
   4  -9  -1  207.31   13.76
  -4  -9   1  162.89    9.64
  -5   9   1  267.73   15.95
  -5  -9  -1  235.31   12.36
   5  -9   1  233.12   15.29
  -5  -9   1  227.76   12.70
   5   9   1  231.66   13.11
  -5   9  -1  260.85   15.65
  -5  -9   1  235.28   11.85
   5  -9  -1  241.34   15.54
  -5  -9   1  214.54   11.48
  -6   9   1   29.05    6.37
   6  -9   1   10.88    5.16
  -6  -9  -1   20.88    4.50
   6  -9  -1   33.93    7.70
  -6   9  -1   34.43    6.88
  -6  -9   1   17.94    4.09
  -6  -9   1   22.63    5.51
   6   9   1   22.05    5.15
   0 -10  -1  262.22   14.76
   0  10   1  266.85   14.27
   0  10  -1  270.70   14.57
   0 -10   1  278.00   14.84
   1 -10   1  288.34   15.18
   1  10  -1  254.41   13.94
  -1  10   1  251.77   14.17
  -1 -10  -1  261.26   14.17
  -1  10  -1  233.13   13.96
   1 -10  -1  250.87   14.80
   1  10   1  260.06   13.77
  -1 -10   1  261.17   14.13
  -1 -10   1  267.17   14.10
  -2  10   1  139.32   10.75
  -2 -10  -1  134.84    9.90
  -2 -10  -1  129.28    9.37
   2 -10   1  145.55   11.18
  -2 -10   1  127.28    9.28
  -2 -10   1  144.92   10.08
  -2  10  -1  143.14   10.49
   2 -10  -1  142.09   11.16
  -3  10   1  233.92   14.26
   3 -10   1  213.85   14.17
  -3 -10  -1  249.10   13.32
  -3 -10  -1  214.11   12.13
  -3 -10   1  218.60   12.63
  -3  10  -1  206.05   13.75
  -3 -10   1  234.41   12.48
   3 -10  -1  223.04   14.62
  -4  10   1  156.57   12.31
   4 -10   1  177.39   13.41
  -4 -10  -1  172.49   10.64
  -4 -10  -1  168.09   10.97
  -4 -10   1  178.08   11.26
  -4  10  -1  178.67   12.69
  -4 -10   1  180.98   10.84
   4 -10  -1  172.68   13.31
   5 -10   1  123.32   11.88
  -5 -10  -1  127.89    9.79
  -5  10   1  119.40   11.08
  -5 -10  -1  128.80    9.30
  -5 -10   1  115.74    9.62
  -5 -10   1  134.53    9.28
   5 -10  -1  145.42   12.48
  -5  10  -1  138.13   11.88
   0 -11   1   90.19    8.63
   0 -11  -1   91.67    8.97
   0  11  -1   98.52    9.14
   0  11   1  102.20    8.96
   1 -11   1  114.52    9.74
  -1  11   1   86.89    8.74
  -1 -11  -1   97.77    9.00
  -1 -11   1   96.94    8.86
  -1  11  -1   88.23    8.86
  -1 -11   1   92.10    8.53
   1 -11  -1  100.00    9.37
   1  11   1   86.24    8.12
  -2 -11  -1   25.48    5.57
  -2 -11  -1   20.65    4.63
  -2 -11   1   16.80    4.52
  -2 -11   1   19.01    4.50
   2 -11  -1   20.02    6.83
  -2  11  -1   21.29    5.39
   3 -11   1   61.21    9.19
  -3  11   1   57.75    8.60
  -3 -11  -1   56.00    6.42
  -3 -11  -1   55.38    7.76
   3 -11  -1   42.16    7.50
  -3  11  -1   54.23    8.02
  -3 -11   1   62.38    7.07
  -3 -11   1   67.78    6.94
   4 -11   1   63.28    9.30
  -4  11   1   57.14    8.94
  -4 -11  -1   88.65    8.35
  -4 -11  -1   76.24    7.70
  -4  11  -1   66.93    9.48
  -4 -11   1   79.27    8.10
   4 -11  -1   81.02    9.30
  -4 -11   1   68.84    7.23
   5 -11   1  184.17   14.70
  -5  11   1  161.33   13.53
  -5 -11  -1  183.72   11.80
   5 -11  -1  168.82   14.54
  -5  11  -1  172.18   13.51
  -5 -11   1  178.94   14.10
   0 -12  -1  461.68   22.96
   0  12   1  463.67   24.75
   0 -12   1  448.44   21.82
   0  12  -1  472.41   22.10
  -1  12   1   55.95    8.53
  -1 -12  -1   62.80    9.11
   1 -12   1   65.64    9.55
  -1 -12  -1   52.34    7.84
  -1  12  -1   53.92    8.45
  -1 -12   1   48.34    7.61
  -1 -12   1   57.03    8.20
   1  12   1   41.10    7.00
   1 -12  -1   48.65    8.38
   2 -12   1  106.51   10.56
  -2 -12  -1   93.14    8.90
  -2  12   1  122.17   10.55
  -2 -12  -1  109.43   10.01
  -2 -12   1  119.86    9.84
   2 -12  -1  117.36   11.34
  -2  12  -1  109.50   10.75
  -2 -12   1  116.13   10.12
   3 -12   1  178.32   14.04
  -3  12   1  150.22   12.68
  -3 -12  -1  166.20   11.87
  -3 -12  -1  169.99   11.47
  -3  12  -1  165.66   13.12
  -3 -12   1  173.47   11.99
  -3 -12   1  162.04   11.36
   3 -12  -1  145.18   12.59
  -4 -12  -1    9.18    3.98
  -4  12   1   19.10    5.92
  -4 -12  -1   10.83    4.81
   4 -12   1   17.96    6.31
  -4 -12   1    9.63    3.68
   4 -12  -1    9.64    5.56
  -4  12  -1   18.34    5.68
  -4 -12   1    7.82    4.30
   0  13   1   25.61    6.55
   0 -13   1   26.57    6.10
   0 -13  -1   18.31    5.71
   0  13  -1   23.07    5.98
  -1  13   1    7.06    4.17
   1 -13   1    2.86    3.85
  -1 -13  -1    1.08    3.20
  -1 -13  -1    0.65    3.12
  -1  13  -1    6.21    4.07
   1 -13  -1   10.70    4.95
  -1 -13   1    3.80    2.92
  -1 -13   1   -1.07    3.09
  -2 -13  -1   12.34    4.78
  -2 -13  -1   24.88    5.61
  -2  13   1   25.98    6.49
   2 -13   1   19.92    5.94
  -2 -13   1   16.32    4.98
  -2  13  -1   26.96    6.32
   2 -13  -1   22.92    6.31
  -2 -13   1   18.37    5.55
   0   0  -2   -0.02    0.37
   0   0  -2    0.22    0.33
   0   0   2    0.41    0.36
   0   0   2    0.23    0.30
   1   0  -2  222.27    6.49
   1   0   2  218.40    6.24
   1   0   2  226.00    7.57
   1   0  -2  227.23    7.53
   1   0  -2  231.69    6.49
  -1   0  -2  229.95    7.60
  -1   0  -2  221.98    6.24
  -1   0   2  222.63    7.45
  -2   0   2  162.99    6.69
  -2   0  -2  157.72    6.65
  -2   0  -2  146.52    5.34
  -2   0   2  158.93    5.53
   2   0  -2  154.02    5.48
   2   0   2  156.08    6.66
   2   0   2  148.80    5.32
   2   0  -2  146.19    6.42
  -3   0  -2 3049.11   79.83
  -4   0   2   81.62    5.02
  -4   0  -2   83.34    5.00
   4   0   2   80.42    5.84
   4   0   2   87.34    4.99
  -4   0   2   81.19    5.78
   4   0  -2   85.06    5.85
   4   0  -2   82.35    4.90
  -4   0  -2   80.06    5.69
  -5   0  -2   12.39    2.87
  -5   0  -2   16.13    3.57
   5   0  -2   16.31    3.53
   5   0   2   15.74    2.90
   5   0  -2   14.07    2.83
   5   0   2   18.33    3.87
  -5   0   2   17.10    3.04
  -6   0  -2   11.45    2.89
   6   0  -2   11.09    3.11
  -6   0   2    9.66    3.44
   6   0   2   10.82    3.54
   6   0   2   12.74    3.04
   7   0  -2   -0.81    2.28
   7   0   2   -0.65    2.37
  -7   0   2   -0.07    2.56
  -7   0  -2    4.55    2.28
   8   0   2   58.64    7.92
  -8   0  -2   65.17    6.49
  -8   0   2   55.77    7.89
   8   0  -2   57.14    6.31
   0   1  -2  342.95    9.85
   0   1   2  333.25    9.36
   0   1  -2  328.20    9.45
   0  -1   2  335.05    9.79
   0  -1   2  328.22    9.45
   0  -1  -2  347.14    9.39
   0   1   2  328.47    9.94
   0  -1  -2  329.02    9.94
   1  -1  -2 1447.48   37.68
   2  -1   2 1386.33   35.72
  -2  -1  -2 1310.90   34.46
   2   1  -2 1346.40   34.34
  -2   1   2 1324.69   35.90
   2  -1   2 1336.68   36.96
  -2  -1  -2 1356.66   36.55
   2   1  -2 1345.50   36.43
  -2   1   2 1404.55   36.93
  -2  -1   2 1357.64   36.55
  -2   1  -2 1344.99   35.65
   2  -1  -2 1408.18   36.08
   2   1   2 1306.63   36.55
  -2   1  -2 1343.89   36.92
   2   1   2 1302.35   34.44
   2  -1  -2 1344.29   36.73
  -2  -1   2 1354.81   34.38
  -3  -1  -2  287.86   11.08
   3  -1   2  309.40   10.50
   3   1  -2  280.58   10.97
  -3   1   2  286.01   11.40
  -3  -1  -2  285.32    9.58
   3  -1   2  277.03   11.43
   3   1  -2  292.89    9.46
  -3   1   2  291.26   10.62
  -3   1  -2  305.44   11.64
  -3  -1   2  289.69   11.15
   3  -1  -2  293.27   10.64
   3   1   2  298.75    9.62
   3   1   2  310.86   11.41
  -3  -1   2  285.79    9.46
   3  -1  -2  301.41   11.46
  -3   1  -2  293.41   10.44
   4   1  -2   39.17    3.15
   4   1  -2   37.52    4.00
   4  -1   2   41.33    4.18
  -4  -1  -2   36.49    3.22
   4  -1   2   43.21    3.83
  -4   1   2   31.09    3.43
  -4   1   2   39.04    4.01
  -4  -1  -2   32.25    3.63
  -4  -1   2   39.55    3.18
  -4   1  -2   39.95    4.05
  -4  -1   2   45.54    4.38
   4  -1  -2   45.00    4.42
   4  -1  -2   47.71    4.04
   4   1   2   43.64    3.40
   4   1   2   42.26    4.22
  -4   1  -2   44.28    3.87
   5  -1   2  308.89   12.11
  -5   1   2  278.89   12.00
   5   1  -2  280.23   11.00
  -5   1   2  287.64   12.93
   5   1  -2  269.82   12.27
   5  -1   2  281.20   13.28
  -5  -1  -2  291.80   11.22
  -5  -1  -2  271.07   12.27
   5  -1  -2  261.60   11.69
  -5   1  -2  262.03   12.69
   5   1   2  268.27   10.88
  -5  -1   2  271.61   10.96
  -5  -1   2  283.24   12.77
  -5   1  -2  255.23   11.41
   5   1   2  274.82   12.54
   5  -1  -2  268.70   12.54
  -6   1   2  152.55    9.89
  -6  -1  -2  152.48    8.35
  -6   1   2  151.05    9.07
   6  -1   2  141.49    8.75
   6   1  -2  161.13    8.47
   6  -1   2  146.61    9.82
   6   1   2  152.04    9.45
  -6  -1   2  152.21    8.33
  -6   1  -2  153.33    9.06
   6   1   2  147.58    9.53
   6  -1  -2  147.76   10.37
  -6  -1   2  168.41    9.92
  -7   1   2   94.05    8.43
  -7  -1  -2   88.71    6.99
   7  -1   2   73.44    7.82
  -7  -1   2  105.78    7.31
  -7  -1   2  100.34    8.12
   7   1   2  102.10    8.39
   7  -1  -2   89.39    7.61
  -7   1  -2  107.81    7.89
   8   1  -2  103.37    8.02
   8  -1   2   97.87    9.18
  -8   1   2  113.20    9.62
  -8  -1  -2  112.79    7.97
   8   1   2  102.44    9.22
  -8   1  -2   97.64    8.16
  -8  -1   2   94.04    8.81
   8  -1  -2   96.90    8.51
   0   2   2  394.18   11.30
   0   2  -2  373.41   11.24
   0   2   2  364.07   11.88
   0  -2  -2  404.95   12.00
   0  -2   2  357.56   11.23
   0   2  -2  374.39   11.62
   0  -2  -2  387.50   11.16
   0  -2   2  370.87   11.59
   1  -2   2  199.84    7.53
  -1   2   2  205.16    7.52
  -1  -2  -2  210.28    7.59
   1  -2   2  209.14    7.26
  -1  -2  -2  208.40    6.03
  -1   2  -2  193.52    7.16
   1  -2  -2  193.03    7.41
   1  -2  -2  186.02    7.44
  -1   2  -2  182.74    7.44
  -1  -2   2  181.33    5.80
  -1  -2   2  181.80    7.11
  -1  -2   2  197.86    5.92
   1  -2  -2  191.00    7.42
   1   2   2  187.71    5.95
   1   2   2  187.66    7.39
  -2  -2  -2 4506.72  140.41
  -2  -2  -2 4520.37  139.30
   2   2  -2 4320.43  141.72
  -2   2   2 4862.50  158.22
  -2   2  -2 4288.25  153.03
  -2  -2   2 4388.63  140.54
   2  -2  -2 4330.08  151.94
   3  -2   2  543.22   17.36
   3   2  -2  524.60   17.59
   3   2  -2  541.17   15.67
  -3   2   2  521.62   18.21
  -3  -2  -2  517.73   15.73
   3  -2   2  558.94   18.70
  -3  -2  -2  543.11   17.64
  -3   2   2  510.61   17.58
  -3   2  -2  570.80   17.63
  -3  -2   2  523.31   15.47
   3   2   2  549.81   15.87
   3  -2  -2  562.64   18.41
  -3  -2   2  546.66   17.80
   3   2   2  571.81   17.97
   3  -2  -2  576.44   18.01
  -3   2  -2  572.17   18.79
   4   2  -2   48.62    4.34
   4  -2   2   43.55    4.10
   4   2  -2   45.36    3.23
  -4  -2  -2   47.57    4.27
  -4   2   2   40.98    4.06
  -4  -2  -2   44.10    3.40
  -4   2   2   48.32    4.90
   4  -2   2   49.84    4.98
   4   2   2   44.12    4.29
   4  -2  -2   46.62    4.35
  -4   2  -2   42.62    3.98
   4  -2  -2   41.17    5.74
   4   2   2   44.77    3.46
  -4  -2   2   46.02    3.25
  -4  -2   2   39.78    4.17
  -5   2   2  647.69   24.33
   5   2  -2  644.74   19.87
   5  -2   2  645.86   23.17
  -5  -2  -2  649.36   20.17
   5   2  -2  625.93   21.79
   5  -2   2  637.97   21.75
  -5   2   2  626.02   22.78
  -5  -2  -2  606.96   21.75
  -5   2  -2  615.97   25.05
  -5  -2   2  645.32   22.43
   5  -2  -2  641.55   22.04
   5   2   2  605.27   21.80
  -5   2  -2  614.73   21.46
  -5  -2   2  622.98   19.70
   5   2   2  625.07   19.96
  -6  -2  -2  150.81    7.94
  -6   2   2  141.42    9.71
   6  -2   2  133.77    9.60
   6   2  -2  144.90    7.65
  -6  -2   2  140.66    9.05
   6   2   2  154.32    9.43
   6   2   2  134.60    7.76
  -6   2  -2  140.27    8.73
   6  -2  -2  139.32    9.24
  -6  -2   2  140.43    7.65
  -7  -2  -2  137.35    8.45
   7  -2   2  143.05   10.61
  -7   2   2  142.95   10.46
   7   2  -2  135.60    8.22
  -7   2  -2  150.01    9.75
  -7  -2   2  136.33    9.47
   7   2   2  126.61    8.35
   7  -2  -2  138.49    9.51
   7   2   2  126.35    9.29
  -7  -2   2  144.33    9.76
   8   2  -2   25.58    4.43
   8  -2   2   20.04    5.65
  -8   2   2   33.54    6.01
  -8  -2  -2   21.34    4.30
  -8  -2   2   19.15    5.22
   8  -2  -2   21.55    5.04
  -8   2  -2   23.23    4.71
   8   2   2   38.38    6.28
   0  -3   2 2116.19   70.17
   0  -3  -2 2016.27   67.74
   0   3  -2 1986.56   69.10
   0   3   2 2059.99   67.76
  -1   3   2 1162.21   32.75
   1   3  -2 1163.17   32.63
  -1  -3  -2 1214.21   32.86
   1  -3   2 1195.11   33.06
  -1  -3  -2 1166.48   31.25
   1  -3   2 1138.90   32.50
  -1   3  -2 1142.69   32.59
   1  -3  -2 1128.21   32.97
   1   3   2 1227.04   31.41
   1   3   2 1177.27   32.87
  -1  -3   2 1163.56   32.61
  -1  -3   2 1231.38   32.74
  -1  -3   2 1208.24   31.41
   1  -3  -2 1245.62   33.50
   1  -3  -2 1140.72   32.60
  -1   3  -2 1220.17   33.18
   2   3  -2  180.28    6.31
  -2   3   2  180.44    8.20
  -2  -3  -2  178.46    6.46
   2  -3   2  183.82    8.46
  -2  -3  -2  182.49    6.49
   2   3  -2  187.20    7.95
  -2  -3  -2  189.99    7.90
  -2   3   2  176.83    8.16
   2  -3   2  171.10    7.67
  -2   3  -2  187.11    8.56
   2   3   2  188.87    8.11
  -2   3  -2  177.04    7.91
  -2  -3   2  177.44    6.17
   2  -3  -2  181.52    8.34
   2  -3  -2  185.49    8.30
  -2  -3   2  178.10    7.83
  -3   3   2  590.04   20.07
   3   3  -2  554.26   18.99
  -3   3   2  573.48   19.70
  -3  -3  -2  600.77   17.37
  -3  -3  -2  569.26   18.93
   3   3  -2  589.71   16.99
   3  -3   2  577.00   20.16
   3  -3   2  591.17   19.33
   3  -3  -2  595.18   19.99
   3  -3  -2  623.75   20.12
  -3  -3   2  582.42   16.82
  -3   3  -2  607.96   20.58
   3   3   2  614.80   19.56
  -3  -3   2  621.83   19.43
  -3   3  -2  619.14   19.60
  -4   3   2 1044.67   32.28
  -4  -3  -2 1051.51   29.40
   4   3  -2 1070.43   29.11
  -4  -3  -2 1030.30   31.29
   4  -3   2 1060.74   31.72
   4  -3   2 1041.84   33.08
  -4   3   2 1047.95   33.13
   4   3  -2 1016.79   31.42
  -4   3  -2 1061.52   31.78
   4  -3  -2 1021.77   32.39
  -4   3  -2 1029.47   33.08
  -4  -3   2 1025.29   28.83
  -4  -3   2 1065.56   31.62
   4   3   2 1033.25   29.38
   4   3   2 1055.65   31.69
   4  -3  -2 1071.63   32.52
  -5  -3  -2   34.42    4.78
   5  -3   2   35.15    5.53
  -5  -3  -2   35.90    3.74
   5   3  -2   36.77    4.98
   5   3  -2   44.10    3.68
  -5   3   2   32.90    5.08
   5  -3   2   33.30    4.77
  -5   3   2   30.29    5.18
  -5   3  -2   47.27    5.04
   5   3   2   34.09    3.56
   5  -3  -2   38.58    5.29
  -5  -3   2   30.70    3.31
   5   3   2   50.32    5.10
  -6   3   2   36.60    5.87
  -6  -3  -2   43.18    4.27
   6  -3   2   34.09    5.67
   6   3  -2   32.53    4.13
  -6  -3   2   39.60    5.58
  -6   3  -2   50.27    5.70
   6   3   2   32.76    4.34
   6   3   2   29.05    5.19
  -6  -3   2   31.48    3.71
   6  -3  -2   38.41    5.93
   7   3  -2   56.54    5.18
  -7   3   2   62.70    7.17
  -7  -3  -2   61.27    5.60
   7  -3   2   49.12    7.70
   7  -3  -2   62.56    6.83
  -7  -3   2   49.44    4.93
  -7  -3   2   58.06    6.33
  -7   3  -2   51.80    5.99
   7   3   2   47.88    5.81
   7   3   2   55.47    6.34
  -8  -3  -2  273.33   13.15
  -8   3   2  267.84   16.18
   8  -3   2  282.37   16.81
   8   3   2  317.56   15.82
  -8   3  -2  301.52   15.69
   8  -3  -2  313.92   16.46
   0   4  -2  597.48   18.88
   0   4   2  590.53   19.35
   0  -4   2  611.98   18.90
   0   4  -2  605.17   18.58
   0   4   2  612.60   18.44
   0  -4   2  598.31   18.57
   0  -4  -2  611.62   19.37
   0  -4  -2  595.93   18.28
  -1  -4  -2   82.01    4.54
   1  -4   2   84.44    5.16
  -1   4   2   79.78    5.26
   1  -4   2   92.95    5.54
  -1  -4  -2   90.62    5.48
  -1  -4   2  107.67    5.17
  -1   4  -2   92.00    5.57
   1  -4  -2  105.91    6.08
   1   4   2   93.76    4.85
  -1   4  -2   93.78    5.57
   1  -4  -2   94.37    5.94
   1  -4  -2   95.24    5.41
  -1  -4   2  102.90    5.60
  -1  -4   2  100.00    4.82
   1   4   2   99.59    5.83
  -1  -4   2   97.06    5.61
  -2  -4  -2  777.24   21.96
   2  -4   2  728.98   24.29
  -2  -4  -2  743.02   23.32
  -2   4   2  769.37   24.25
   2   4  -2  753.24   23.51
  -2   4   2  793.40   24.35
  -2  -4  -2  742.23   21.79
   2   4  -2  723.04   21.68
   2  -4   2  782.40   23.80
   2  -4  -2  786.11   24.56
   2   4   2  776.52   23.75
  -2   4  -2  791.68   24.02
  -2  -4   2  770.67   21.67
  -2  -4   2  769.61   21.71
  -2   4  -2  761.17   24.52
  -2  -4   2  777.65   23.54
   2  -4  -2  813.59   24.31
  -3  -4  -2  170.46    8.10
  -3   4   2  160.36    8.68
   3   4  -2  165.95    6.63
  -3  -4  -2  166.50    6.83
   3  -4   2  156.20    8.23
  -3  -4  -2  169.49    6.82
   3  -4   2  163.01    9.09
  -3   4   2  165.36    8.76
   3   4  -2  153.00    7.93
  -3  -4   2  163.36    7.16
   3   4   2  150.17    7.99
  -3  -4   2  155.09    7.92
  -3   4  -2  149.77    8.25
   3  -4  -2  151.87    8.56
   4  -4   2   79.53    6.83
  -4  -4  -2   92.11    5.06
  -4   4   2   91.95    6.85
  -4   4   2   82.21    6.37
   4  -4   2   94.05    6.34
   4   4  -2   75.57    5.86
  -4  -4  -2   86.72    5.82
   4   4  -2   79.03    4.55
   4  -4  -2   74.65    6.21
  -4  -4   2   84.63    4.56
  -4   4  -2   86.82    6.28
   4   4   2   83.56    6.20
  -4   4  -2   82.51    6.81
   4  -4  -2   87.55    6.80
   4   4   2   77.63    4.84
  -4  -4   2   85.48    6.20
   5   4  -2   16.69    2.64
   5  -4   2   21.59    4.70
  -5  -4  -2   10.82    3.04
  -5  -4  -2   14.06    2.77
   5   4  -2   12.46    3.26
  -5   4   2   15.16    4.23
   5  -4  -2   20.99    4.43
  -5  -4   2   18.99    2.79
   5   4   2   18.24    3.05
  -5   4  -2   19.10    4.06
  -5  -4   2   15.68    3.62
   5   4   2   16.19    3.76
   6  -4   2  776.00   29.94
  -6   4   2  844.46   30.12
   6   4  -2  840.89   25.25
  -6  -4  -2  837.54   25.82
   6   4   2  796.68   25.72
  -6   4  -2  835.10   28.98
  -6  -4   2  819.53   28.02
   6   4   2  791.65   27.88
  -6  -4   2  789.44   24.86
   6  -4  -2  842.35   29.69
  -7  -4  -2  173.31   10.47
  -7   4   2  140.41   13.05
   7  -4   2  160.97   12.02
   7   4  -2  145.73    8.10
   7   4   2  147.26   10.15
  -7   4  -2  162.19   10.86
   7   4   2  166.53    9.40
   7  -4  -2  153.68   11.29
  -7  -4   2  145.33    7.94
  -7  -4   2  147.45   10.02
   0  -5  -2 3106.71   78.09
   0  -5  -2 2870.95   79.03
   0   5  -2 2903.39   78.11
   0  -5   2 2961.94   78.51
   0   5  -2 3046.15   78.83
  -1   5   2  230.48   10.35
   1  -5   2  248.02   10.47
  -1  -5  -2  223.37    9.29
   1  -5   2  237.74   10.71
  -1  -5  -2  241.79   10.53
  -1  -5   2  237.43   10.39
  -1   5  -2  239.80   10.67
   1   5   2  261.09   11.03
   1  -5  -2  254.20   11.20
  -1  -5   2  237.52    9.74
  -1  -5   2  248.78    9.75
   1  -5  -2  256.83   10.55
   1   5   2  248.99    9.69
  -1   5  -2  253.28   10.71
  -1  -5   2  263.76   10.55
   1  -5  -2  244.48   11.02
  -2  -5  -2  444.35   14.23
   2  -5   2  458.47   16.78
  -2  -5  -2  431.67   15.37
  -2  -5  -2  419.34   14.13
  -2   5   2  431.40   16.33
  -2   5   2  410.22   15.80
   2  -5   2  405.13   15.47
  -2   5  -2  434.69   16.46
   2  -5  -2  449.67   16.76
  -2   5  -2  416.67   15.84
   2  -5  -2  417.58   15.84
  -2  -5   2  413.12   15.19
   2   5   2  396.20   15.41
  -2  -5   2  415.18   13.85
  -2  -5   2  413.23   15.31
  -2  -5   2  428.55   14.00
  -3  -5  -2  328.50   12.89
  -3   5   2  330.78   14.17
  -3  -5  -2  317.68   11.49
  -3  -5  -2  328.69   11.57
   3   5  -2  338.84   11.55
   3  -5   2  320.08   16.44
  -3   5   2  334.57   16.21
   3  -5   2  310.81   13.34
   3   5  -2  331.98   13.21
   3   5   2  299.67   12.91
  -3  -5   2  308.90   12.80
   3  -5  -2  318.68   14.23
   3  -5  -2  315.45   13.73
  -3  -5   2  312.41   11.03
  -3   5  -2  293.22   13.90
  -3   5  -2  314.65   13.50
  -3  -5   2  305.23   12.77
   4   5  -2  509.48   18.73
  -4  -5  -2  509.92   16.80
   4   5  -2  507.88   16.48
   4  -5   2  518.32   20.51
  -4  -5  -2  508.48   18.37
  -4  -5  -2  510.10   16.82
  -4   5   2  509.35   20.00
   4   5   2  526.43   18.95
  -4  -5   2  530.53   18.85
  -4   5  -2  511.48   19.57
   4  -5  -2  487.30   19.90
  -4  -5   2  494.68   16.03
  -5  -5  -2   83.87    6.37
   5  -5   2   91.40    8.36
   5   5  -2   81.98    5.20
  -5  -5  -2   90.47    5.67
  -5   5   2   86.31    7.71
  -5  -5  -2   83.93    5.59
  -5  -5   2   70.48    4.85
  -5   5  -2   77.40    7.07
   5  -5  -2   77.87    7.46
  -5  -5   2   82.42    6.73
  -6   5   2  204.00   12.91
   6  -5   2  196.28   12.96
   6   5  -2  211.98    9.41
  -6  -5  -2  202.13    9.71
  -6  -5   2  208.65   11.54
  -6   5  -2  209.46   12.34
   6  -5  -2  212.16   12.89
   6   5   2  211.20   11.56
  -6  -5   2  209.53    9.13
  -7  -5  -2   93.56    6.81
  -7  -5  -2   87.42    6.53
  -7   5   2   94.12    9.26
   7   5  -2   92.81    6.34
   7  -5   2  103.47   10.05
   7  -5  -2  102.52    9.35
   7   5   2   98.94    8.37
  -7   5  -2   97.13    8.69
   7   5   2   76.95    7.01
  -7  -5   2   97.34    6.16
  -7  -5   2   91.48    8.40
   0   6  -2  239.57   10.98
   0  -6  -2  233.64   10.39
   0  -6   2  241.94   10.87
   0   6   2  259.05   10.80
   0  -6  -2  259.52   11.72
   0  -6   2  250.73   11.03
   0  -6   2  242.16   11.03
   0   6  -2  253.47   10.97
   0  -6  -2  260.24   11.67
   1  -6   2 1366.78   40.68
  -1  -6  -2 1328.38   40.04
  -1  -6  -2 1388.83   38.85
  -1   6   2 1404.92   40.26
   1   6   2 1379.25   39.04
  -1  -6   2 1365.75   40.16
   1   6   2 1398.12   40.76
   1  -6  -2 1335.93   40.85
  -1  -6   2 1433.01   39.49
  -1   6  -2 1351.40   40.41
  -1   6  -2 1362.07   40.30
  -1  -6   2 1340.40   39.75
   1  -6  -2 1363.04   39.89
  -1  -6   2 1408.61   39.26
  -2   6   2  204.91   10.66
   2  -6   2  212.85   11.25
  -2   6   2  222.60   10.98
  -2  -6  -2  211.70    9.21
  -2  -6  -2  211.38   10.04
  -2  -6  -2  213.51    9.04
   2  -6   2  198.31   10.18
  -2   6  -2  207.28   10.46
   2  -6  -2  196.29   11.05
  -2  -6   2  212.89    9.02
   2  -6  -2  212.56   11.16
  -2   6  -2  180.70   10.17
  -2  -6   2  196.24    9.86
   2   6   2  210.51   10.29
  -2  -6   2  187.18    9.59
   2  -6  -2  201.34   10.22
  -2  -6   2  213.31    9.14
  -3  -6  -2  601.27   19.63
   3  -6   2  597.88   22.92
  -3  -6  -2  606.72   21.14
  -3   6   2  610.46   22.58
   3  -6   2  605.64   23.96
  -3  -6  -2  597.27   19.67
  -3  -6   2  594.66   19.20
   3   6   2  611.28   21.62
   3  -6  -2  625.00   23.20
  -3  -6   2  652.80   21.61
  -3  -6   2  627.34   19.61
  -3   6  -2  653.64   22.59
  -3  -6   2  585.26   21.10
  -4  -6  -2  112.43    7.38
  -4  -6  -2  108.35    6.35
  -4  -6  -2  123.72    6.70
  -4   6   2  117.76    8.70
   4  -6   2  115.97    8.75
   4   6  -2  115.28    6.35
  -4  -6   2  102.91    5.87
  -4   6  -2  103.28    7.85
   4  -6  -2  101.19    8.40
   4   6   2  102.83    7.39
  -4  -6   2  110.66    7.55
  -4  -6   2  103.65    7.18
  -5  -6  -2   36.48    4.04
  -5  -6  -2   37.39    5.22
   5   6  -2   33.41    3.77
  -5   6   2   29.82    5.85
   5  -6   2   37.65    6.32
  -5  -6  -2   36.93    4.07
  -5  -6   2   30.54    3.45
   5  -6  -2   31.22    5.80
  -5  -6   2   33.05    5.27
   5   6   2   28.33    4.85
  -5   6  -2   30.02    5.30
  -6  -6  -2   59.04    4.96
   6  -6   2   44.98    7.26
  -6   6   2   48.87    7.51
   6   6  -2   57.40    4.68
  -6  -6  -2   53.06    5.14
  -6  -6   2   58.95    4.61
  -6  -6   2   44.67    6.10
   6  -6  -2   43.06    7.10
  -6   6  -2   44.60    6.87
   6   6   2   52.42    6.19
   7   6  -2  176.51    8.61
  -7  -6  -2  162.56    9.10
  -7   6   2  166.27   12.52
   7  -6   2  167.63   12.82
   7  -6  -2  166.11   12.68
  -7  -6   2  157.48   10.91
  -7   6  -2  176.97   12.22
   7   6   2  181.50   11.43
   0  -7   2  115.78    7.68
   0  -7  -2  108.85    7.73
   0  -7   2  101.12    6.92
   0   7   2  117.65    7.21
   0  -7   2  109.67    7.20
   0  -7  -2   94.91    7.08
   0  -7  -2  114.65    8.25
  -1  -7  -2   79.92    6.37
   1  -7   2   72.68    6.17
  -1  -7  -2   79.39    6.47
  -1  -7  -2   80.93    5.70
   1  -7   2   77.94    7.51
  -1  -7   2   95.59    6.34
  -1   7  -2   83.94    6.74
   1  -7  -2   82.62    6.35
  -1  -7   2   84.54    6.73
  -1  -7   2   91.70    6.54
  -1   7  -2   94.87    6.82
  -1  -7   2   93.14    6.33
   1   7   2   95.33    6.35
   1  -7  -2   91.05    7.23
   1  -7  -2   86.13    7.00
   1   7   2  101.09    7.36
  -2   7   2  772.93   26.41
  -2  -7  -2  747.00   25.42
  -2  -7  -2  767.77   24.16
   2  -7   2  813.14   27.28
  -2  -7  -2  779.12   24.56
   2  -7  -2  753.63   26.95
  -2  -7   2  750.48   24.13
   2   7   2  750.30   25.93
  -2  -7   2  722.05   27.66
  -2   7  -2  737.52   26.16
  -2  -7   2  705.87   24.91
  -2  -7   2  764.33   24.32
   3  -7   2   76.24    7.07
  -3  -7  -2   81.51    5.61
  -3   7   2   85.38    7.47
  -3  -7  -2   78.71    6.36
  -3  -7  -2   89.74    6.06
  -3   7  -2   63.81    6.33
  -3  -7   2   81.70    6.60
  -3  -7   2   82.66    5.53
   3  -7  -2   78.88    7.29
  -3  -7   2   74.42    6.15
   3   7   2   86.79    8.04
  -3  -7   2   82.46    5.69
   4  -7   2  229.67   13.37
  -4   7   2  219.84   12.97
  -4  -7  -2  248.31   10.75
  -4  -7  -2  227.11   10.41
  -4  -7  -2  209.90   11.29
   4  -7  -2  227.01   13.20
   4   7   2  241.91   12.43
  -4   7  -2  234.17   12.75
  -4  -7   2  230.56   11.91
  -4  -7   2  232.71   10.23
   5  -7   2  219.04   14.21
   5   7  -2  243.99   10.76
  -5  -7  -2  237.23   11.02
  -5  -7  -2  235.73   11.03
  -5   7   2  261.92   14.85
   5   7   2  243.53   12.94
  -5  -7   2  240.90   12.59
   5  -7  -2  256.71   14.91
  -5   7  -2  263.11   14.43
  -6  -7  -2   13.45    3.13
   6   7  -2   14.98    3.06
  -6  -7  -2    8.47    3.06
  -6   7   2   24.63    5.80
   6  -7   2   21.14    5.98
  -6   7  -2   16.01    4.98
  -6  -7   2    9.22    2.69
  -6  -7   2   12.87    3.89
   6   7   2   18.17    4.42
   7  -7   2   54.64    8.95
  -7   7   2   45.84    7.88
   7   7  -2   59.47    5.40
  -7  -7  -2   50.23    5.31
  -7   7  -2   48.54    7.94
   7   7   2   57.27    6.65
   7  -7  -2   47.58    8.21
   0  -8   2   44.22    5.03
   0   8  -2   40.88    5.85
   0  -8  -2   45.51    5.26
   0  -8   2   40.65    5.65
   0   8   2   47.52    5.21
   0  -8  -2   47.20    4.83
   1  -8   2  233.34   12.39
  -1  -8  -2  221.38   10.99
  -1  -8  -2  231.75   12.10
  -1   8   2  240.72   12.34
  -1  -8   2  245.31   12.36
  -1  -8   2  228.19   11.45
   1  -8  -2  242.14   12.94
  -1  -8   2  229.76   11.51
  -1   8  -2  231.17   12.37
  -2  -8  -2  166.31    9.27
   2  -8   2  171.95   10.80
  -2   8   2  166.09   10.32
  -2  -8  -2  166.27    9.02
  -2  -8   2  191.69   10.57
  -2   8  -2  166.90   10.50
  -2  -8   2  175.62   10.58
   2  -8  -2  178.96   11.19
   2   8   2  167.68   10.44
  -2  -8   2  179.94    9.47
   3  -8   2   28.76    5.51
  -3  -8  -2   28.87    4.42
  -3   8   2   31.97    5.97
  -3  -8  -2   31.62    4.26
   3  -8  -2   19.24    4.51
  -3  -8   2   26.42    4.61
   3   8   2   23.56    4.83
  -3  -8   2   26.12    4.22
  -3  -8   2   26.40    3.91
  -3   8  -2   32.60    5.85
   4  -8   2  146.09   10.86
  -4   8   2  140.75   10.29
  -4  -8  -2  131.37    7.96
   4  -8  -2  117.58   10.14
  -4  -8   2  135.58    7.60
  -4   8  -2  133.08    9.93
   4   8   2  141.44    9.56
  -4  -8   2  129.70    8.99
  -4  -8   2  128.26    7.77
   5  -8   2    4.26    4.09
  -5   8   2    7.83    4.29
  -5  -8  -2    8.18    2.51
  -5  -8  -2    7.02    2.90
  -5  -8   2   14.63    3.82
   5  -8  -2    2.37    3.37
  -5  -8   2    9.16    2.68
  -5   8  -2    5.70    3.28
   5   8   2    8.83    3.54
  -5  -8   2    3.99    2.24
  -6  -8  -2   76.72    6.61
   6  -8   2   84.70    9.78
  -6   8   2   87.35    9.52
   6   8   2   83.66    7.99
  -6  -8   2   76.40    5.90
  -6  -8   2   82.83    7.88
  -6   8  -2   87.55    9.04
  -6  -8   2   76.34    5.83
   6  -8  -2   94.69    9.82
   0   9  -2   16.18    4.46
   0  -9  -2   14.32    4.06
   0   9   2   18.91    4.18
   0  -9   2    9.24    3.47
  -1  -9  -2  843.13   30.49
   1  -9   2  865.76   31.01
  -1   9   2  882.93   30.51
  -1  -9   2  854.06   29.53
   1  -9  -2  882.66   31.52
  -1   9  -2  887.19   30.99
  -1  -9   2  886.90   30.62
   1   9   2  867.41   29.31
   2  -9   2  232.44   13.39
  -2  -9  -2  240.54   12.95
  -2  -9  -2  231.82   12.01
  -2   9   2  220.47   12.90
  -2  -9   2  224.60   11.81
   2  -9  -2  230.81   13.94
  -2   9  -2  221.56   12.89
  -2  -9   2  227.76   11.69
  -2  -9   2  243.58   12.76
   3  -9   2  168.35   12.12
  -3  -9  -2  189.44   10.49
  -3   9   2  176.62   11.78
  -3   9  -2  185.70   12.30
  -3  -9   2  184.97    9.92
   3  -9  -2  211.49   13.50
   3   9   2  195.90   11.92
  -3  -9   2  196.49   11.47
   4  -9   2  215.50   14.71
  -4  -9  -2  232.12   11.83
  -4   9   2  223.14   14.30
  -4  -9   2  245.91   13.21
   4   9   2  256.04   13.79
  -4  -9   2  224.43   11.10
   4  -9  -2  244.85   15.26
  -4   9  -2  275.39   15.31
   5  -9   2  197.22   14.03
  -5   9   2  224.90   14.58
  -5  -9  -2  186.29   10.62
  -5   9  -2  215.50   14.13
  -5  -9   2  181.71    9.84
  -5  -9   2  206.63   10.46
   5  -9  -2  220.58   14.63
   5   9   2  216.16   12.70
  -5  -9   2  189.07   11.80
  -6   9   2    9.75    4.95
  -6  -9  -2    9.79    3.59
   6  -9   2    7.72    5.00
  -6  -9   2   17.93    4.87
  -6  -9   2   11.86    3.34
   6   9   2   14.80    4.55
  -6   9  -2   20.05    5.15
   6  -9  -2   16.33    5.87
   0 -10  -2   23.21    5.32
   0  10  -2   15.56    4.55
   0  10   2   18.05    4.39
   0 -10   2   25.80    5.13
   1 -10   2   46.02    6.84
  -1  10   2   35.43    5.92
  -1 -10  -2   34.37    6.22
   1  10   2   40.68    6.26
  -1 -10   2   34.58    6.00
  -1  10  -2   31.22    5.74
   1 -10  -2   34.80    6.48
  -1 -10   2   38.56    6.34
  -2 -10  -2  952.89   33.73
   2 -10   2  942.55   34.92
  -2  10   2  955.35   34.39
  -2 -10  -2  962.18   32.54
  -2 -10   2 1004.08   32.82
  -2 -10   2  957.25   33.56
   2 -10  -2  950.65   35.35
  -2  10  -2  954.31   34.54
  -3  10   2    2.39    1.98
  -3 -10  -2    3.45    2.62
   3 -10   2   -0.95    2.70
  -3 -10  -2    1.27    2.29
  -3 -10   2    0.53    2.14
  -3  10  -2   -0.63    2.89
  -3 -10   2   -1.48    2.04
   3 -10  -2   -1.27    3.15
  -4  10   2  123.07   10.75
   4 -10   2  119.14   10.92
  -4 -10  -2  117.36    8.40
  -4 -10  -2  120.12    9.45
  -4 -10   2  108.06    9.03
   4 -10  -2  117.85   11.06
   4  10   2  129.37   10.24
  -4  10  -2  129.22   10.79
  -4 -10   2  116.45    8.45
  -5  10   2   19.88    5.76
  -5 -10  -2   14.07    4.02
   5 -10   2   10.53    4.82
  -5 -10   2   16.60    4.11
  -5  10  -2   23.15    5.92
   5  10   2   18.51    5.42
  -5 -10   2   16.97    4.47
   5 -10  -2   15.39    4.90
   0 -11  -2  504.90   22.94
   0 -11   2  505.00   22.30
   0  11  -2  493.27   22.20
   0  11   2  526.43   22.31
   1 -11   2   45.04    7.50
  -1  11   2   51.66    7.39
  -1 -11  -2   58.79    8.24
  -1 -11   2   58.13    8.26
  -1 -11   2   54.62    6.54
   1  11   2   54.45    7.38
   1 -11  -2   50.44    8.14
  -1  11  -2   41.86    7.23
  -2 -11  -2   36.96    6.19
  -2 -11  -2   27.52    6.01
  -2 -11   2   28.53    5.68
   2 -11  -2   34.74    7.12
  -2 -11   2   32.62    6.13
  -2  11  -2   40.09    7.34
   3 -11   2   33.47    6.82
  -3 -11  -2   22.62    5.21
  -3  11   2   27.00    6.24
  -3 -11  -2   24.82    4.88
   3 -11  -2   22.38    5.55
  -3 -11   2   44.62    7.01
  -3  11  -2   26.00    6.10
  -3 -11   2   37.35    6.06
   4 -11   2   70.65   10.12
  -4 -11  -2   76.94    7.16
  -4 -11  -2   82.91    8.40
  -4  11   2   84.87    9.06
  -4 -11   2   69.09    7.04
  -4  11  -2   58.93    8.83
   4 -11  -2   68.21    9.81
   0 -12   2   85.79    9.08
   0 -12  -2   74.29    8.71
   0  12  -2   68.02    9.18
  -1  12   2  100.06    9.77
   1 -12   2  108.10    9.93
   1 -12  -2  103.24   10.49
   1  12   2  107.18    9.38
  -1 -12   2  110.53    9.61
  -1 -12   2   99.74    9.67
  -1  12  -2  106.79   10.30
  -2  12   2   -0.04    3.47
   2 -12   2   -2.57    2.83
  -2 -12  -2    2.22    2.91
   2 -12  -2    4.52    4.27
  -2 -12   2    5.66    3.78
  -2  12  -2    4.08    3.98
  -2 -12   2    6.64    3.68
  -3  12   2  121.35   11.27
  -3 -12  -2  130.64   10.38
   3 -12   2  129.65   12.14
  -3 -12   2  146.20   11.27
   3 -12  -2  120.49   11.63
  -3  12  -2  127.69   11.79
  -3 -12   2  143.73   10.56
  -4 -12  -2   45.74    6.90
  -4 -12  -2   33.05    6.74
   4 -12   2   43.84    8.89
  -4 -12   2   35.94    6.59
   4 -12  -2   33.21    7.83
  -4 -12   2   37.76    6.10
   0  13   2   33.35    6.51
   0  13  -2   20.38    6.02
   0 -13  -2   36.61    7.49
   0 -13   2   35.88    7.02
   0 -13   2   28.16    6.39
   1 -13   2   56.40    8.89
  -1 -13  -2   65.42    9.87
  -1  13   2   50.96    8.38
  -1 -13  -2   53.64    8.10
   1 -13  -2   44.59    8.71
  -1  13  -2   56.65    9.26
  -1 -13   2   63.34    9.42
   1  13   2   52.50    7.91
  -1 -13   2   56.37    8.04
  -2  13   2   35.03    6.79
   2 -13   2   42.92    8.43
  -2 -13  -2   39.78    7.50
  -2 -13  -2   45.21    7.11
  -2 -13   2   39.50    7.52
   2 -13  -2   32.72    7.33
  -2  13  -2   38.59    7.86
   0   0  -3    0.47    0.69
   0   0  -3    1.25    0.83
   0   0   3    0.78    0.71
   0   0   3    1.28    0.79
   1   0   3 3219.09  105.31
  -1   0  -3 3202.54  104.85
  -1   0   3 3063.15  105.63
   1   0  -3 3239.22  107.03
   2   0   3  261.91    8.07
  -2   0   3  275.28   10.02
  -2   0  -3  266.23    8.12
   2   0  -3  271.47   10.02
  -2   0   3  270.89    8.33
   2   0  -3  277.45    8.38
   2   0   3  267.48   10.11
  -2   0  -3  283.06   10.27
   3   0  -3  476.99   14.30
  -3   0   3  467.24   14.30
   3   0   3  467.54   14.09
   3   0  -3  474.57   16.26
  -3   0  -3  474.31   16.34
   3   0   3  485.49   16.54
  -3   0  -3  479.24   14.21
  -3   0   3  468.80   16.30
   4   0  -3  302.78   12.91
   4   0   3  324.72   11.16
  -4   0   3  325.79   11.42
  -4   0   3  340.24   13.45
   4   0  -3  322.30   11.30
   4   0   3  298.09   12.97
  -4   0  -3  314.04   11.15
  -4   0  -3  310.06   13.05
  -5   0  -3  931.48   30.93
   5   0   3  982.72   28.45
  -5   0  -3  992.72   28.62
  -5   0   3  962.38   28.70
   5   0  -3  947.81   28.47
   5   0  -3  916.49   30.61
   5   0   3  993.47   31.37
  -5   0   3  953.65   30.88
   6   0   3  278.98   13.81
   6   0  -3  248.64   11.30
  -6   0   3  253.65   13.24
  -6   0  -3  268.16   11.54
  -6   0   3  250.84   11.47
   6   0   3  263.71   11.47
   7   0   3  383.16   15.93
  -7   0   3  391.53   18.08
  -7   0  -3  395.01   15.91
  -7   0   3  368.90   15.82
   7   0   3  402.04   18.51
   8   0  -3   -0.93    2.67
  -8   0  -3    4.61    2.48
   8   0   3   -0.19    3.56
  -8   0   3   -6.44    2.32
   0  -1   3 1743.92   64.48
   0   1  -3 1871.91   65.42
   0   1   3 1577.96   65.21
   0  -1  -3 1811.55   64.59
   1  -1   3 5232.93  160.65
  -1   1   3 5237.11  160.92
   1   1  -3 5261.07  157.68
  -1  -1  -3 5348.26  155.38
  -1   1  -3 5223.30  159.88
   1  -1  -3 5211.22  160.73
  -1  -1   3 5303.86  157.87
  -2   1  -3 2552.45   67.06
   3   1  -3 1080.55   31.61
  -3  -1  -3 1109.17   31.92
   3  -1   3 1063.11   32.16
  -3   1   3 1073.09   30.47
   3  -1   3 1087.90   30.12
  -3   1   3 1078.29   31.97
   3   1  -3 1078.88   28.82
  -3  -1  -3 1096.56   29.03
   3  -1  -3 1115.05   30.59
  -3  -1   3 1107.22   28.88
  -3  -1   3 1108.15   31.81
   3   1   3 1073.41   28.84
  -3   1  -3 1073.77   32.14
   3  -1  -3 1087.89   31.93
   3   1   3 1087.07   31.98
  -3   1  -3 1145.01   30.30
   4   1  -3  573.96   17.23
   4  -1   3  565.90   20.43
   4  -1   3  593.94   18.42
   4   1  -3  587.79   19.93
  -4  -1  -3  609.06   17.58
  -4   1   3  563.97   20.22
  -4   1   3  576.90   18.77
  -4  -1  -3  548.34   19.76
  -4  -1   3  574.99   19.99
  -4  -1   3  568.48   17.34
  -4   1  -3  601.20   18.55
   4  -1  -3  577.65   18.64
   4   1   3  573.32   17.32
  -4   1  -3  601.14   22.48
   4   1   3  594.14   20.29
   5  -1   3   27.45    3.77
   5   1  -3   26.55    3.00
   5   1  -3   25.86    4.40
   5  -1   3   27.06    4.80
  -5  -1  -3   29.28    4.44
  -5  -1  -3   25.18    3.32
  -5   1   3   29.21    4.93
  -5   1   3   23.76    3.78
  -5   1  -3   19.80    3.29
  -5  -1   3   25.57    3.03
  -5  -1   3   20.12    4.23
   5   1   3   23.40    3.23
  -5   1  -3   18.48    3.94
   5  -1  -3   23.57    3.57
  -6  -1  -3  380.84   14.08
   6   1  -3  377.43   13.90
   6  -1   3  366.41   14.71
   6  -1   3  342.83   16.39
  -6   1   3  370.99   16.55
  -6   1   3  374.09   15.18
   6   1   3  359.41   16.35
  -6   1  -3  336.88   14.29
  -6  -1   3  357.24   13.81
   6   1   3  361.96   13.83
   6  -1  -3  370.17   14.99
  -6  -1   3  358.02   16.21
  -7   1   3  706.88   27.29
   7  -1   3  727.45   27.64
   7   1   3  726.07   27.16
  -7   1  -3  711.33   24.83
  -7  -1   3  704.43   26.74
   7   1   3  667.22   23.46
   7  -1  -3  742.23   25.29
  -8   1   3    7.70    3.49
   8   1  -3    6.92    3.24
   8  -1   3    9.88    4.64
  -8  -1  -3    7.60    2.54
   8   1   3    5.60    4.39
   8  -1  -3   11.82    4.02
  -8   1  -3   11.65    3.58
  -8  -1   3   16.56    5.47
   0  -2   3  260.18    8.84
   0   2   3  244.30    8.22
   0   2  -3  242.80    8.23
   0   2   3  260.57    9.18
   0  -2   3  256.99    8.29
   0  -2  -3  249.41    8.10
   1  -2   3  270.51    9.96
  -1   2   3  272.56   10.02
   1   2  -3  273.82    8.03
  -1  -2  -3  286.92   10.16
  -1  -2  -3  278.07    8.06
  -1   2   3  281.34    9.93
   1   2  -3  270.47    9.90
   1   2   3  300.11   10.34
   1  -2  -3  282.70    9.96
  -1  -2   3  291.07    8.05
  -1  -2   3  302.09   10.17
  -1   2  -3  294.03    9.68
   1   2   3  299.04    8.14
   1  -2  -3  293.17    9.92
   1  -2  -3  296.99   10.22
  -1   2  -3  289.06   10.21
   2   2  -3  602.94   18.87
  -2  -2  -3  612.10   15.98
  -2  -2  -3  602.14   18.94
   2  -2   3  613.27   19.42
  -2  -2  -3  618.31   15.96
  -2   2   3  633.53   19.34
   2  -2   3  617.48   18.16
  -2   2   3  631.02   18.69
  -2   2  -3  617.75   18.21
   2  -2  -3  597.15   19.06
  -2  -2   3  583.30   18.76
   2  -2  -3  583.37   18.55
   2   2   3  579.14   18.96
  -2   2  -3  631.41   19.61
   3   2  -3  170.18    8.34
  -3   2   3  160.32    8.64
  -3  -2  -3  178.45    8.51
  -3   2   3  170.68    8.03
   3  -2   3  178.44    7.85
   3   2  -3  179.52    5.92
   3  -2   3  171.07    8.97
  -3   2  -3  195.70    8.11
   3   2   3  196.87    6.39
   3   2   3  188.76    8.81
   3  -2  -3  203.50    9.13
  -3  -2   3  192.82    8.85
   3  -2  -3  197.10    8.47
  -3   2  -3  191.94    9.19
  -3  -2   3  192.53    5.97
   4  -2   3  229.51    9.95
  -4   2   3  216.85   10.15
  -4  -2  -3  239.44    8.61
   4   2  -3  225.40   10.63
   4  -2   3  234.85   11.60
   4   2  -3  231.99    8.27
  -4   2   3  218.70   11.07
  -4  -2  -3  227.43   10.68
  -4   2  -3  249.98   10.27
  -4  -2   3  262.23    8.51
   4  -2  -3  258.71   11.65
   4  -2  -3  260.23   10.78
   4   2   3  247.88    8.67
  -4   2  -3  240.39   11.48
  -4  -2   3  256.51   11.20
   4   2   3  261.54   11.37
  -5   2   3   79.83    6.10
   5  -2   3   77.43    5.91
  -5  -2  -3   86.52    5.06
   5  -2   3   94.77    7.64
   5   2  -3   86.05    4.85
   5   2  -3   82.16    6.51
  -5  -2  -3   79.75    6.40
  -5   2   3   85.29    6.90
  -5   2  -3   97.42    6.52
  -5  -2   3   88.54    6.85
   5  -2  -3   93.56    6.57
  -5  -2   3   78.30    4.77
   5   2   3   88.38    5.11
   6  -2   3   65.40    5.96
   6  -2   3   82.12    7.85
  -6   2   3   78.13    6.71
   6   2  -3   83.27    5.46
  -6   2   3   76.52    7.52
  -6  -2  -3   84.92    5.67
   6   2   3   91.20    7.72
  -6   2  -3   83.49    6.44
  -6  -2   3   84.19    5.50
  -6  -2   3   96.46    7.99
   6  -2  -3   80.77    6.74
   6   2   3   79.99    5.57
   7  -2   3   69.11    7.83
   7   2  -3   72.35    5.65
  -7  -2  -3   76.91    5.88
  -7   2   3   97.56    8.79
  -7  -2   3   68.23    7.19
  -7  -2   3   71.27    5.58
   7  -2  -3   66.55    6.89
   7   2   3   76.58    7.72
   7   2   3   65.98    5.73
  -7   2  -3   80.85    7.10
   8  -2   3   27.29    6.22
  -8   2   3   22.92    5.39
   8   2  -3   20.49    3.75
  -8  -2  -3   24.50    3.87
   8  -2  -3   21.87    5.10
   8   2   3   33.17    6.23
  -8   2  -3   22.09    4.64
   0  -3   3  850.94   22.60
   0   3  -3  782.93   23.05
   0  -3   3  795.08   23.04
   0  -3   3  784.06   23.13
   0   3   3  766.69   23.47
   0   3  -3  783.87   23.53
   0   3   3  759.97   22.14
   0  -3  -3  804.88   23.47
  -1  -3  -3 1123.94   31.88
   1  -3   3 1099.12   31.30
  -1  -3  -3 1119.57   29.76
   1   3  -3 1103.42   29.74
   1   3  -3 1096.93   31.70
  -1   3   3 1136.71   31.61
   1  -3   3 1181.35   32.06
   1   3   3 1128.86   32.08
  -1   3  -3 1106.45   31.46
   1  -3  -3 1145.68   31.59
  -1  -3   3 1130.35   29.79
   1   3   3 1139.62   29.95
   1  -3  -3 1084.45   31.99
  -1  -3   3 1112.70   31.67
  -1   3  -3 1244.18   32.33
   1  -3  -3 1110.51   31.97
   2  -3   3 1707.73   47.29
  -2   3   3 1700.65   46.75
  -2  -3  -3 1700.89   43.73
   2   3  -3 1724.48   46.67
  -2   3   3 1654.94   46.86
  -2  -3  -3 1734.27   46.69
   2  -3   3 1720.61   46.22
  -2  -3  -3 1678.98   43.69
  -2   3  -3 1724.95   47.44
   2  -3  -3 1734.06   47.04
   2  -3  -3 1719.09   46.93
   2  -3  -3 1731.59   47.13
  -2   3  -3 1673.12   46.21
   2   3   3 1709.01   46.92
  -2  -3   3 1698.29   46.54
  -2  -3   3 1703.36   43.32
  -2  -3   3 1686.14   43.26
   3   3  -3  137.71    4.80
  -3  -3  -3  116.90    6.82
  -3  -3  -3  135.50    5.20
  -3   3   3  133.55    7.77
   3  -3   3  127.92    6.81
  -3   3   3  126.02    7.11
   3  -3   3  137.86    7.90
  -3  -3  -3  126.56    5.08
   3   3  -3  131.08    7.12
  -3  -3   3  137.07    4.68
   3  -3  -3  128.23    7.37
  -3  -3   3  131.34    7.26
  -3   3  -3  128.95    7.64
   3   3   3  137.86    7.48
   3  -3  -3  141.03    7.60
  -3   3  -3  130.87    6.94
   4  -3   3   42.60    4.13
   4  -3   3   39.19    5.47
  -4   3   3   42.66    4.38
  -4  -3  -3   42.11    3.08
  -4  -3  -3   50.33    4.57
  -4   3   3   33.44    4.78
   4   3  -3   43.40    2.79
  -4   3  -3   43.45    4.85
   4   3   3   47.43    4.72
  -4  -3   3   36.33    2.56
   4  -3  -3   40.50    4.51
   4   3   3   44.22    3.12
  -4   3  -3   41.99    4.19
   4  -3  -3   40.30    4.39
  -4  -3   3   35.77    4.71
   5  -3   3   65.15    6.68
   5   3  -3   70.01    4.13
  -5  -3  -3   65.78    4.42
  -5   3   3   68.47    5.98
   5   3  -3   62.74    5.87
  -5  -3  -3   72.29    6.02
  -5   3   3   66.38    6.18
   5  -3   3   71.23    5.71
   5   3   3   65.39    4.42
  -5  -3   3   65.11    4.02
  -5   3  -3   67.54    7.00
  -5  -3   3   73.22    6.33
  -6  -3  -3  207.01    9.13
  -6   3   3  215.61   12.63
   6   3  -3  223.75    8.95
   6  -3   3  205.88   12.44
  -6  -3   3  189.58   11.30
   6   3   3  191.30    8.91
   6  -3  -3  210.65   11.58
  -6  -3   3  202.10    8.70
   6   3   3  186.27   11.21
  -6   3  -3  219.29   11.49
  -7   3   3   82.35    8.26
   7   3  -3   80.74    5.57
   7  -3   3   73.42    8.31
  -7  -3  -3   83.44    5.91
   7  -3  -3   79.44    7.51
  -7  -3   3   88.03    7.83
  -7   3  -3   84.35    7.59
  -7  -3   3   78.78    5.51
   7   3   3   83.19    7.97
   8   3  -3   13.34    3.42
  -8   3   3   18.13    5.33
  -8  -3  -3   23.40    3.88
   8  -3   3   18.68    5.93
   8  -3  -3   16.67    5.16
   8   3   3   20.72    5.35
  -8   3  -3   15.08    4.37
   0  -4  -3  379.82   12.65
   0   4  -3  377.87   13.42
   0   4   3  384.03   12.75
   0  -4  -3  405.58   13.98
   0   4   3  395.30   14.13
   0  -4   3  381.36   13.38
   0  -4   3  345.62   12.59
   0   4  -3  355.03   12.71
  -1   4   3 1634.51   45.35
  -1  -4  -3 1648.66   43.67
  -1  -4  -3 1601.14   45.63
   1  -4   3 1586.98   45.51
   1  -4   3 1667.60   45.47
   1   4   3 1712.90   43.87
  -1  -4   3 1638.49   45.53
  -1   4  -3 1682.50   45.86
  -1   4  -3 1693.51   45.63
   1  -4  -3 1659.17   46.27
   1   4   3 1739.72   46.25
   1  -4  -3 1664.75   46.13
  -1  -4   3 1613.15   44.96
  -1  -4   3 1550.18   43.59
  -1  -4   3 1688.93   45.57
   1  -4  -3 1707.61   45.46
   2  -4   3   63.18    5.25
   2   4  -3   54.53    4.55
  -2  -4  -3   64.46    3.65
  -2  -4  -3   62.50    4.82
  -2  -4  -3   59.04    3.48
   2  -4   3   59.51    4.67
  -2   4   3   63.66    5.21
   2  -4  -3   60.27    5.09
   2   4   3   67.37    5.21
   2  -4  -3   58.21    4.67
   2  -4  -3   65.79    5.26
  -2   4  -3   56.39    4.71
  -2   4  -3   65.75    5.27
  -2  -4   3   62.58    3.35
  -2  -4   3   64.89    4.70
  -2  -4   3   55.21    3.21
  -3   4   3   83.01    6.19
   3   4  -3   89.18    4.44
   3  -4   3   95.00    6.05
  -3   4   3   82.03    6.09
  -3  -4  -3   82.77    4.81
   3   4  -3   88.78    5.90
  -3  -4  -3   81.27    5.75
  -3  -4  -3   91.00    4.40
   3  -4   3   82.28    6.44
  -3   4  -3   98.80    6.37
   3  -4  -3   87.63    6.41
  -3  -4   3   92.42    4.02
   3  -4  -3   90.03    6.43
  -3   4  -3   94.78    6.74
   3   4   3   99.43    6.48
  -3  -4   3  105.91    6.47
   4  -4   3  122.72    7.51
  -4  -4  -3  114.34    8.24
   4   4  -3  130.77    7.78
   4   4  -3  121.39    5.26
  -4   4   3  104.99    7.42
  -4  -4  -3  114.51    5.57
   4  -4   3  116.34    8.45
  -4  -4  -3  118.17    5.64
  -4   4   3  122.16    8.31
   4  -4  -3  132.03    8.31
  -4  -4   3  136.10    5.26
  -4   4  -3  126.68    7.73
  -4  -4   3  132.17    7.91
   4   4   3  119.77    7.70
  -5  -4  -3  293.18   10.80
  -5   4   3  297.24   14.58
  -5  -4  -3  267.01   12.89
   5   4  -3  274.86   10.00
   5  -4   3  306.63   15.03
   5   4   3  289.92   13.69
   5   4   3  289.52   10.88
  -5  -4   3  283.98   13.37
  -5   4  -3  286.87   13.42
  -5  -4   3  294.67   10.05
   5  -4  -3  294.89   14.05
   6  -4   3  178.24   12.26
  -6   4   3  193.17   12.00
   6   4  -3  190.31    8.03
  -6  -4  -3  190.22    8.78
  -6  -4   3  196.94   11.37
  -6  -4   3  197.88    8.12
   6   4   3  190.29    8.84
   6   4   3  208.29   11.64
  -6   4  -3  180.79   11.06
   6  -4  -3  198.08   11.76
  -7   4   3   50.21    7.74
  -7  -4  -3   52.86    4.75
   7  -4   3   49.53    9.40
   7   4  -3   50.34    4.23
  -7  -4   3   38.01    3.98
  -7  -4   3   45.05    6.52
   7  -4  -3   45.46    7.01
  -7   4  -3   57.99    6.51
   7   4   3   47.45    6.95
   0  -5  -3    8.79    2.55
   0   5  -3   10.04    2.41
   0  -5  -3    7.16    2.15
   0  -5   3    9.49    2.28
   0   5   3    5.66    2.39
   0  -5   3    8.71    2.45
   0   5  -3    8.04    2.48
   0   5   3    9.97    2.32
  -1  -5  -3  500.48   16.47
  -1  -5  -3  563.70   18.57
   1  -5   3  538.46   18.17
  -1   5   3  507.46   17.90
   1  -5   3  562.28   18.58
  -1   5  -3  542.77   18.36
  -1  -5   3  540.25   17.02
   1  -5  -3  512.93   18.65
  -1  -5   3  534.43   18.11
   1   5   3  498.91   18.33
   1  -5  -3  521.75   17.84
  -1  -5   3  518.98   18.08
  -1   5  -3  533.74   18.36
   1   5   3  501.77   16.57
  -1  -5   3  511.94   16.71
   1  -5  -3  517.07   18.81
  -2  -5  -3 1049.87   28.79
  -2  -5  -3  989.66   30.67
   2  -5   3 1006.44   30.77
   2  -5   3 1047.88   31.90
  -2  -5  -3 1007.49   28.48
  -2   5   3 1039.48   31.46
   2  -5  -3 1026.85   31.94
  -2  -5   3 1004.31   28.32
  -2  -5   3  986.49   30.60
   2   5   3  994.96   31.09
   2  -5  -3 1007.87   31.73
  -2   5  -3 1012.63   31.77
  -2  -5   3 1011.90   28.38
   2  -5  -3 1027.07   31.35
  -2  -5   3  998.13   30.70
  -2   5  -3 1010.28   31.03
   3  -5   3  626.32   22.24
   3   5  -3  625.43   24.14
  -3  -5  -3  694.78   19.95
   3  -5   3  640.03   23.44
  -3   5   3  661.21   23.33
  -3   5   3  663.58   23.25
  -3  -5  -3  679.37   19.86
  -3  -5  -3  654.46   22.19
  -3  -5   3  657.43   19.27
  -3   5  -3  648.11   22.63
   3  -5  -3  646.33   23.01
  -3  -5   3  654.87   22.28
  -3   5  -3  642.34   23.60
   3  -5  -3  652.28   23.31
   3   5   3  695.63   22.96
  -3  -5   3  710.36   20.34
   4  -5   3  230.85   12.70
  -4  -5  -3  257.44    9.70
  -4  -5  -3  229.92   11.38
   4  -5   3  243.75   12.16
   4   5  -3  250.84    9.10
   4   5  -3  240.59   11.84
  -4   5   3  248.86   12.97
  -4  -5  -3  262.56    9.70
  -4   5  -3  267.45   12.58
  -4  -5   3  264.57   12.14
   4  -5  -3  244.67   12.71
   4   5   3  253.20   12.18
  -4  -5   3  260.56    9.45
  -5  -5  -3  231.40    9.48
  -5  -5  -3  233.21    9.48
   5   5  -3  225.44    8.72
  -5   5   3  222.42   12.99
   5  -5   3  228.19   13.26
  -5  -5   3  222.39   11.85
   5  -5  -3  213.71   12.48
  -5   5  -3  240.58   12.49
   5   5   3  233.60   12.22
  -5  -5   3  221.97    8.47
   6   5  -3   16.79    2.58
   6  -5   3    9.50    4.45
  -6  -5  -3   19.51    3.11
  -6   5   3   19.83    4.69
  -6  -5  -3   20.48    3.16
   6   5   3   15.14    4.21
  -6   5  -3    9.19    3.74
   6  -5  -3    9.71    3.52
  -6  -5   3   16.21    4.24
  -6  -5   3   12.22    2.21
  -7  -5  -3  188.88    9.27
   7  -5   3  194.89   13.81
   7   5  -3  206.77    8.39
  -7   5   3  196.62   13.54
   7  -5  -3  196.45   12.99
   7   5   3  195.23   12.11
  -7   5  -3  207.00   12.67
  -7  -5   3  185.09    8.09
  -7  -5   3  188.42   11.98
   0  -6  -3    6.04    1.99
   0  -6  -3    6.46    2.43
   0  -6   3   11.87    2.56
   0   6  -3    6.75    2.45
   0   6  -3    7.79    2.10
   0  -6  -3    9.00    2.50
   0  -6   3    5.96    2.17
   0   6   3    7.20    2.25
   1  -6   3  296.74   12.42
  -1   6   3  304.77   12.46
   1  -6   3  283.83   12.45
  -1  -6  -3  310.26   11.30
  -1  -6  -3  305.41   12.77
   1  -6  -3  269.36   12.72
  -1  -6   3  278.30   11.22
   1  -6  -3  269.96   11.85
   1   6   3  263.04   10.89
   1   6   3  262.87   12.33
  -1  -6   3  259.98   11.03
  -1   6  -3  274.42   12.35
  -1   6  -3  275.06   12.28
  -1  -6   3  234.83   11.54
   1  -6  -3  279.53   12.77
  -2  -6  -3  182.49   10.59
  -2  -6  -3  171.60    7.78
   2  -6   3  189.14    9.64
  -2  -6  -3  183.05    8.20
   2  -6  -3  174.68   10.03
  -2   6  -3  176.14   11.01
  -2  -6   3  166.03    7.76
  -2  -6   3  176.67    7.89
  -2  -6   3  177.35    9.38
  -2  -6   3  160.65    8.86
   2  -6  -3  160.42    9.08
  -2   6  -3  165.28    9.64
   2   6   3  173.32    9.51
   3  -6   3  304.33   14.95
  -3  -6  -3  328.67   12.02
  -3  -6  -3  316.81   13.84
  -3  -6  -3  312.83   11.90
  -3   6   3  337.25   15.09
  -3   6  -3  329.76   14.67
  -3  -6   3  326.89   14.02
   3  -6  -3  347.03   15.56
   3   6   3  327.43   14.40
  -3  -6   3  333.68   14.33
  -3  -6   3  325.09   11.58
  -3  -6   3  343.76   11.91
  -4  -6  -3  247.76   10.03
   4  -6   3  245.06   13.58
  -4  -6  -3  236.52    9.98
  -4   6   3  224.87   12.79
  -4  -6  -3  253.08   12.19
   4   6   3  251.15   12.57
  -4  -6   3  258.93   12.43
  -4   6  -3  253.27   12.96
  -4  -6   3  257.39    9.47
   4  -6  -3  268.50   13.80
  -4  -6   3  252.10    9.56
   5  -6   3  353.38   18.10
  -5  -6  -3  342.37   13.31
  -5  -6  -3  356.99   13.38
  -5   6   3  346.16   17.43
  -5  -6   3  375.70   16.52
   5  -6  -3  396.78   18.23
  -5  -6   3  365.04   12.41
  -5   6  -3  425.49   17.95
   5   6   3  370.37   16.53
  -6  -6  -3   83.82    5.78
   6   6  -3   81.11    4.86
  -6  -6  -3   71.20    5.39
  -6  -6   3   80.11    4.75
  -6   6  -3   91.87    8.36
  -6  -6   3   80.06    7.84
   6   6   3   91.21    7.88
   6  -6  -3   93.57    8.90
   7  -6   3   33.89    7.32
  -7  -6  -3   36.08    4.21
  -7   6   3   35.30    6.89
   7   6   3   44.93    6.84
  -7  -6   3   41.37    6.51
   7  -6  -3   50.32    8.17
  -7   6  -3   47.45    7.42
   0   7  -3   32.12    4.84
   0  -7   3   29.37    4.44
   0  -7  -3   31.92    4.88
   0  -7   3   28.87    4.35
   0   7  -3   23.45    3.93
   0   7   3   32.19    4.46
   0  -7  -3   28.38    4.71
  -1  -7  -3  439.74   15.66
   1  -7   3  396.92   16.49
   1  -7   3  414.87   20.28
  -1  -7  -3  400.14   16.83
  -1   7   3  432.25   18.93
   1  -7  -3  407.74   17.49
  -1  -7   3  411.31   15.88
   1  -7  -3  416.24   16.47
  -1   7  -3  424.73   17.13
   1  -7  -3  430.48   17.83
   1   7   3  428.29   15.81
  -1  -7   3  392.09   16.35
  -1   7  -3  434.26   17.19
  -1  -7   3  459.67   17.49
  -1  -7   3  428.01   15.92
  -2   7   3   89.11    7.27
  -2  -7  -3   93.53    6.88
   2  -7   3  117.80    8.23
  -2  -7  -3   98.02    6.41
  -2  -7  -3   86.74    5.88
  -2   7  -3  101.24    7.43
  -2  -7   3  101.32    6.30
  -2  -7   3   98.28    6.84
   2   7   3   92.81    7.59
   2  -7  -3   91.93    7.54
  -2  -7   3   91.89    5.89
  -2  -7   3   98.48    7.26
   3  -7   3 2003.91   60.05
  -3  -7  -3 2004.84   57.92
  -3   7   3 2001.81   59.37
  -3  -7  -3 2058.98   55.50
  -3  -7  -3 1997.80   55.25
  -3  -7   3 2003.10   55.01
   3  -7  -3 2045.77   60.21
  -3  -7   3 1979.57   54.73
  -3  -7   3 2111.59   58.42
   3   7   3 2105.24   59.05
  -3   7  -3 1970.63   58.83
   4  -7   3   24.79    5.12
  -4  -7  -3   25.82    3.66
  -4  -7  -3   30.81    4.04
  -4   7   3   22.87    4.83
  -4  -7   3   29.69    3.36
  -4  -7   3   22.52    3.18
   4  -7  -3   31.22    5.82
   4   7   3   35.40    5.69
  -4  -7   3   33.07    5.29
  -4   7  -3   19.39    4.70
   5  -7   3  144.11   11.28
  -5  -7  -3  150.37    7.87
  -5   7   3  152.76   11.24
  -5  -7  -3  127.59    7.43
  -5  -7   3  146.65    7.08
  -5  -7   3  155.33   10.05
   5  -7  -3  146.10   11.05
  -5   7  -3  136.31   10.28
  -5  -7   3  129.28    6.67
   5   7   3  155.86   10.36
  -6   7   3   11.44    4.83
  -6  -7  -3   11.25    2.93
   6  -7   3   14.00    5.01
  -6   7  -3    9.38    4.04
  -6  -7   3    9.99    4.20
  -6  -7   3   12.65    2.47
  -6  -7   3    9.17    2.17
   6   7   3   17.24    4.74
  -7   7   3  168.23   13.04
   7  -7   3  136.16   12.62
   7   7   3  147.38   10.97
  -7  -7   3  136.01   12.44
  -7  -7   3  129.19    5.97
   7  -7  -3  155.56   12.38
  -7   7  -3  131.31   10.93
   0  -8   3  249.69   12.27
   0  -8  -3  246.46   13.01
   0   8   3  281.77   12.61
   0  -8  -3  227.49   11.59
   0  -8   3  263.38   12.79
   0   8  -3  232.73   12.37
  -1   8   3  400.96   16.92
  -1  -8  -3  377.18   16.99
   1  -8   3  384.86   17.02
  -1  -8  -3  377.23   15.43
  -1   8  -3  395.19   17.35
  -1  -8   3  432.06   16.59
  -1  -8   3  385.04   16.89
   1  -8  -3  383.60   17.66
   1   8   3  412.59   16.14
  -1  -8   3  432.04   16.45
  -2  -8  -3   53.88    4.94
  -2   8   3   54.85    6.17
  -2  -8  -3   52.25    5.21
   2  -8   3   43.59    6.58
  -2  -8   3   57.56    5.29
  -2  -8   3   50.51    6.55
   2  -8  -3   41.58    6.33
  -2   8  -3   56.74    6.00
  -2  -8   3   49.82    4.69
   2   8   3   45.48    5.45
   3  -8   3  285.11   15.22
  -3  -8  -3  315.94   14.30
  -3  -8  -3  295.38   12.53
  -3   8   3  277.57   14.64
   3  -8  -3  258.14   14.89
   3   8   3  278.51   14.41
  -3   8  -3  281.31   14.77
  -3  -8   3  286.43   14.16
  -3  -8   3  300.71   12.36
  -3  -8   3  273.61   11.82
  -4  -8  -3  110.94    7.12
  -4  -8  -3  116.03    7.09
   4  -8   3  113.16    9.84
  -4   8   3   98.65    8.77
  -4  -8   3  108.15    6.56
   4   8   3  104.79    8.85
  -4  -8   3  120.14    6.79
   4  -8  -3  108.19    9.61
  -4  -8   3  122.55    8.92
  -4   8  -3  113.22    9.33
   5  -8   3  160.02   12.41
  -5  -8  -3  173.94    9.01
  -5  -8  -3  181.41    9.10
  -5   8   3  176.22   12.29
   5  -8  -3  160.53   12.29
  -5   8  -3  175.51   12.17
  -5  -8   3  172.60   11.25
  -5  -8   3  161.90    7.99
  -5  -8   3  168.29    8.28
   5   8   3  149.19   10.80
  -6   8   3   64.61    9.30
   6  -8   3   68.31    9.97
  -6  -8  -3   60.83    5.40
   6   8   3   74.82    7.68
  -6   8  -3   80.49    8.51
  -6  -8   3   76.46    7.76
   6  -8  -3   44.92    8.18
  -6  -8   3   50.62    4.40
  -6  -8   3   58.16    4.53
   0  -9   3  420.55   18.25
   0   9  -3  398.56   18.21
   0  -9  -3  451.16   19.62
   0   9   3  437.72   18.10
  -1   9   3  421.47   18.45
   1  -9   3  464.07   19.41
  -1  -9  -3  463.32   19.43
   1   9   3  411.39   17.33
  -1  -9   3  400.63   17.38
  -1   9  -3  421.85   18.94
  -1  -9   3  433.92   18.78
   1  -9  -3  413.97   19.35
  -1  -9   3  416.56   17.82
  -2   9   3  897.88   31.08
  -2  -9  -3  896.59   28.98
   2  -9   3  827.79   31.01
  -2  -9  -3  885.49   30.80
   2   9   3  841.58   30.79
  -2  -9   3  852.26   30.22
   2  -9  -3  892.27   32.28
  -2   9  -3  813.90   30.57
  -2  -9   3  820.94   28.23
  -3  -9  -3   39.75    5.46
  -3  -9  -3   54.09    5.18
   3  -9   3   47.91    7.61
  -3   9   3   38.74    6.35
  -3   9  -3   48.95    7.03
   3   9   3   49.10    7.10
   3  -9  -3   46.84    7.10
  -3  -9   3   38.21    4.52
  -3  -9   3   42.59    6.47
  -3  -9   3   47.79    5.04
  -4  -9  -3    9.43    2.43
   4  -9   3   12.01    5.23
  -4  -9  -3    2.76    2.24
   4  -9  -3    7.15    3.60
  -4  -9   3    2.09    2.22
  -4   9  -3    4.91    3.16
  -4  -9   3    5.42    2.38
   4   9   3    4.32    3.67
  -4  -9   3    7.73    3.47
  -5  -9  -3   24.37    4.51
  -5   9   3   26.74    6.26
   5  -9   3   25.53    6.62
  -5  -9   3   27.92    5.49
   5  -9  -3   28.61    7.09
  -5  -9   3   26.20    3.98
  -5  -9   3   17.05    3.33
  -5   9  -3   37.70    7.04
   5   9   3   36.64    6.33
  -6  -9  -3  150.70    9.05
  -6   9   3  168.51   12.96
   6   9   3  154.50   11.53
  -6  -9   3  130.95   12.36
  -6  -9   3  137.61    7.55
   6  -9  -3  163.91   13.05
  -6   9  -3  170.84   12.69
   0 -10   3   21.49    4.85
   0 -10  -3   22.40    5.43
   0  10  -3   23.11    4.88
   0  10   3   26.03    4.93
   1 -10   3   32.17    5.95
  -1 -10  -3   34.31    5.94
  -1  10   3   31.12    5.72
  -1  10  -3   33.43    6.21
   1 -10  -3   49.86    7.76
  -1 -10   3   31.19    6.03
   1  10   3   35.39    5.88
  -1 -10   3   33.15    5.51
  -2 -10  -3   15.65    3.86
   2 -10   3   15.36    4.54
  -2  10   3   12.16    4.32
  -2 -10  -3   19.92    4.66
  -2  10  -3   15.94    4.96
  -2 -10   3   22.20    4.90
  -2 -10   3   22.31    4.50
   2 -10  -3   17.53    5.24
  -3 -10  -3  159.78   11.07
  -3 -10  -3  166.91    9.99
   3 -10   3  162.97   12.75
  -3  10   3  163.80   14.04
  -3  10  -3  159.43   11.95
  -3 -10   3  165.16   11.20
   3  10   3  151.51   11.23
  -3 -10   3  162.05    9.88
   3 -10  -3  154.71   13.99
  -4  10   3  135.65   11.10
  -4 -10  -3  123.02    8.63
   4 -10   3  121.19   11.35
  -4  10  -3  127.49   11.17
  -4 -10   3  124.94    8.16
   4  10   3  128.29   10.53
  -4 -10   3  135.70   10.22
   4 -10  -3  128.76   11.50
  -4 -10   3  130.68    8.49
  -5 -10  -3   55.50    5.97
  -5  10   3   53.93    8.79
   5 -10   3   57.29    9.10
   5 -10  -3   47.65    8.61
  -5 -10   3   55.20    5.50
  -5  10  -3   55.23    8.63
   0 -11   3   11.21    3.89
   0  11  -3   13.65    4.20
   0 -11  -3   11.23    4.63
   0  11   3    8.75    3.40
   0 -11   3   18.56    4.81
  -1 -11  -3   18.97    5.22
   1 -11   3   22.15    5.24
  -1  11   3   15.32    4.75
  -1  11  -3   26.54    5.93
  -1 -11   3   35.23    5.91
   1  11   3   23.72    4.98
  -1 -11   3   22.00    5.04
   1 -11  -3   30.45    6.42
  -2 -11  -3  120.20    8.98
  -2 -11  -3  113.74    9.65
  -2  11   3   84.47   12.13
  -2  11  -3   95.79    9.48
   2 -11  -3  113.43   10.34
  -2 -11   3   98.87    8.21
  -2 -11   3  103.68    9.31
  -3 -11  -3  100.90    8.48
  -3 -11  -3  105.22    9.38
  -3  11   3   99.01    9.84
   3 -11   3   99.58   10.28
  -3 -11   3  100.47    8.23
   3 -11  -3  102.91   10.17
  -3  11  -3   94.85    9.66
  -3 -11   3   84.33    8.58
  -4  11   3   33.36    7.10
  -4 -11  -3   25.31    4.95
  -4 -11  -3   31.86    5.90
   4 -11   3   16.71    5.81
   4 -11  -3   30.67    7.06
  -4 -11   3   25.92    4.76
  -4 -11   3   17.05    5.05
  -4  11  -3   19.99    5.97
   0 -12   3  139.87   11.21
   0  12  -3  166.94   12.54
   0 -12  -3  130.71   11.65
   0 -12   3  162.64   12.42
   1 -12   3  255.97   16.04
  -1 -12  -3  273.63   16.51
  -1  12   3  243.36   15.05
   1  12   3  268.55   15.05
   1 -12  -3  268.30   17.00
  -1 -12   3  282.75   15.64
  -1 -12   3  255.12   15.87
  -1  12  -3  242.38   15.81
  -2 -12  -3    0.47    2.64
   2 -12   3    2.74    2.58
  -2 -12  -3   -3.19    2.62
  -2  12   3    4.64    3.85
  -2 -12   3    5.54    3.56
   2 -12  -3   -1.04    3.22
  -2 -12   3   -1.98    2.33
  -2  12  -3    7.16    4.10
  -3  12   3   87.87    9.81
  -3 -12  -3  116.48   10.17
   3 -12   3  104.05   10.86
  -3 -12  -3   84.46    8.07
  -3 -12   3   97.02    9.24
   3 -12  -3   95.21   10.92
  -3 -12   3   93.49    8.42
  -3  12  -3  132.22   11.82
   0 -13  -3    6.28    4.22
   0 -13   3    1.47    2.71
   0  13   3    0.22    3.18
   0 -13   3    0.82    3.26
  -1 -13  -3  134.80   12.24
  -1  13   3  133.16   11.46
   1 -13   3  137.94   12.24
  -1  13  -3  145.49   12.40
   1  13   3  149.34   11.43
  -1 -13   3  130.31   11.36
   1 -13  -3  146.29   13.11
  -2 -13  -3   39.90    7.70
   2 -13   3   39.01    7.98
  -2 -13  -3   36.59    6.42
  -2  13   3   41.97    8.07
  -2 -13   3   30.41    6.06
  -2  13  -3   43.22    8.24
  -2 -13   3   28.78    6.35
   2 -13  -3   39.31    8.56
  -1   0   4 4087.90  132.76
  -1   0  -4 3904.69  130.11
   1   0   4 3979.42  130.27
   1   0  -4 3857.68  130.94
  -2   0  -4 1890.36   51.24
   2   0   4 1918.22   51.33
  -2   0  -4 1931.37   48.12
   2   0  -4 1832.92   48.49
   2   0  -4 1921.24   51.03
   2   0   4 1971.87   48.13
   2   0  -4 1832.51   48.53
   3   0   4  317.78   10.10
  -3   0   4  326.64   10.42
   3   0  -4  337.35   12.87
   3   0  -4  322.08   10.37
  -3   0  -4  333.51   13.00
  -3   0   4  310.46   12.57
  -3   0  -4  333.35   10.22
   3   0   4  326.13   12.96
  -4   0  -4   45.69    3.37
   4   0  -4   49.43    3.49
  -4   0   4   45.59    3.43
  -4   0   4   48.93    5.03
   4   0  -4   45.64    4.78
   4   0   4   58.08    5.34
  -4   0  -4   50.76    4.80
   4   0   4   45.93    3.31
  -5   0   4  154.26    9.54
  -5   0   4  155.71    7.58
   5   0  -4  164.17    7.53
  -5   0  -4  155.01    7.41
   5   0   4  166.36    7.52
   5   0   4  155.61    9.74
   6   0   4   68.93    5.42
  -6   0   4   77.16    7.41
   6   0   4   80.63    7.52
   6   0  -4   85.06    5.82
  -6   0  -4   87.42    5.84
  -6   0   4   69.46    5.45
   7   0  -4   51.36    5.24
   7   0   4   39.15    5.29
   7   0   4   48.53    7.43
  -7   0   4   48.45    5.19
  -7   0   4   48.40    7.29
   8   0   4   65.90    7.77
   8   0  -4   40.96    5.49
  -8   0   4   42.77    7.29
   0   1  -4   10.47    1.64
   0  -1   4   11.79    1.75
   0  -1   4   10.77    1.60
   0   1  -4    9.39    1.62
   0   1   4    7.62    1.73
   0  -1  -4   11.24    1.57
   0  -1  -4   11.51    1.93
   1  -1  -4 1924.64   50.88
  -1   1  -4 2003.80   51.86
   2  -1   4  930.65   25.04
  -2  -1  -4  961.02   27.18
   2   1  -4  923.01   26.83
  -2   1   4  947.15   27.11
   2  -1   4  925.12   27.30
   2   1  -4  903.03   23.27
   2   1   4  937.75   27.24
   2  -1  -4  912.56   26.87
  -2   1  -4  878.91   27.04
  -2   1  -4  913.79   25.03
  -2  -1   4  893.61   26.82
   2  -1  -4  942.61   25.70
   2  -1  -4  915.33   25.57
   3  -1   4  798.06   22.59
  -3  -1  -4  799.26   21.08
  -3  -1  -4  781.74   24.86
   3   1  -4  800.78   21.03
   3  -1   4  765.24   25.13
  -3   1   4  790.52   23.03
  -3   1   4  777.86   24.92
   3   1  -4  774.15   24.56
   3   1   4  772.70   24.96
  -3  -1   4  797.89   24.81
   3  -1  -4  814.00   25.01
  -3   1  -4  810.32   25.30
   3  -1  -4  819.66   23.19
   3   1   4  805.58   21.06
  -3  -1   4  817.91   21.10
  -3   1  -4  782.48   22.59
   4   1  -4   70.35    5.69
   4  -1   4   75.33    4.70
  -4   1   4   82.01    5.11
  -4   1   4   74.95    6.17
   4  -1   4   80.96    6.45
   4   1  -4   77.72    3.94
  -4  -1  -4   75.90    3.96
   4  -1  -4   81.94    6.18
   4  -1  -4   82.68    5.12
   4   1   4   84.01    6.03
   4   1   4   86.76    6.51
  -4   1  -4   80.46    4.88
  -4   1  -4   85.20    6.34
  -4  -1   4   82.38    6.26
  -4  -1   4   90.51    4.23
  -5   1   4  289.91   13.61
   5  -1   4  277.63   13.58
   5  -1   4  273.04   10.94
   5   1  -4  268.08    9.84
  -5  -1  -4  261.80    9.90
  -5  -1  -4  257.37   12.89
  -5   1   4  271.55   11.33
   5   1   4  264.71   13.13
  -5  -1   4  267.12    9.98
  -5   1  -4  258.75   10.80
   5  -1  -4  262.14   11.15
  -5  -1   4  261.77   12.81
   5   1   4  267.05    9.91
  -6   1   4  605.31   23.10
  -6  -1  -4  606.54   19.55
   6  -1   4  571.27   23.41
   6   1  -4  599.08   19.37
  -6   1   4  615.38   23.68
  -6   1  -4  614.64   20.74
   6   1   4  603.68   23.45
   6   1   4  603.05   19.43
  -6  -1   4  588.82   19.42
   6  -1  -4  593.37   20.83
  -6  -1   4  623.73   23.46
  -7  -1  -4  136.96    7.66
  -7   1   4  117.72    8.38
   7   1  -4  129.42    7.46
  -7   1   4  130.33   10.32
   7  -1   4  134.20   10.48
   7   1   4  125.53    9.93
   7  -1  -4  133.31    8.71
  -7  -1   4  129.03   10.01
  -7   1  -4  148.83    8.73
  -7  -1   4  134.92    7.71
  -8  -1  -4   25.11    4.02
   8  -1   4   21.53    5.92
  -8   1   4   18.10    5.02
   8   1  -4   11.39    3.24
  -8  -1   4   18.21    5.13
   8   1   4   25.41    7.17
  -8   1  -4   23.22    4.08
   8  -1  -4   17.47    4.38
   0   2   4    2.93    1.11
   0  -2  -4    2.50    1.08
   0  -2   4    4.05    1.26
   0  -2   4    4.91    1.49
   0  -2  -4    1.56    1.26
   0   2  -4    3.20    1.17
   0   2  -4    3.36    1.39
   0   2   4    3.07    1.49
   0  -2   4    3.08    1.21
  -1   2   4  204.44    8.20
  -1   2   4  212.60    8.20
   1   2  -4  196.17    6.24
   1  -2   4  209.16    7.73
   1  -2   4  205.50    8.24
  -1  -2  -4  215.03    8.55
  -1  -2  -4  203.43    6.11
   1   2  -4  211.06    8.27
  -1   2  -4  208.25    7.75
   1  -2  -4  196.99    7.98
  -1   2  -4  209.40    8.35
   1   2   4  207.74    8.60
  -1  -2   4  202.82    6.22
   1   2   4  207.39    6.15
  -1  -2   4  211.00    8.28
   1  -2  -4  191.87    7.98
   2  -2   4 2201.31   60.06
  -2  -2  -4 2244.16   59.79
   2   2  -4 2216.80   59.58
   2  -2   4 2271.83   58.32
  -2   2   4 2232.80   59.82
   2  -2  -4 2243.19   59.01
   2  -2  -4 2218.55   59.67
  -2   2  -4 2225.13   60.08
   2  -2  -4 2200.28   59.00
   2   2   4 2232.44   60.01
  -2   2  -4 2276.40   58.41
   3   2  -4 1111.98   32.71
  -3  -2  -4 1109.52   32.81
   3  -2   4 1095.62   31.08
  -3  -2  -4 1129.39   28.33
  -3   2   4 1167.71   31.93
  -3   2   4 1121.15   33.17
   3  -2   4 1065.83   33.26
  -3   2  -4 1072.01   33.22
  -3  -2   4 1117.82   32.84
   3  -2  -4 1068.16   32.81
  -3   2  -4 1118.40   31.27
   3   2   4 1075.93   32.87
   3  -2  -4 1120.04   31.92
   3   2   4 1081.28   28.31
  -4   2   4  158.24    8.12
   4  -2   4  173.08    7.96
  -4   2   4  154.25    9.36
  -4  -2  -4  164.96    6.12
   4   2  -4  169.56    5.74
   4   2  -4  169.55    8.97
   4  -2  -4  167.50    8.40
   4   2   4  167.49    9.18
  -4  -2   4  161.30    5.70
   4   2   4  162.60    6.06
  -4   2  -4  163.13    7.88
   4  -2  -4  159.91    9.19
  -4  -2   4  167.10    8.95
  -4   2  -4  166.95    9.57
   5  -2   4  238.36   10.86
  -5   2   4  242.54   11.38
  -5   2   4  264.65   13.00
   5   2  -4  252.13    8.89
  -5  -2  -4  221.78   11.97
   5  -2   4  264.93   13.40
  -5  -2  -4  245.60    9.23
   5   2   4  273.62    9.46
  -5   2  -4  272.78   11.41
   5   2   4  255.61   12.74
   5  -2  -4  248.23   11.40
  -5  -2   4  268.52   12.80
   6   2  -4   65.54    4.41
  -6  -2  -4   62.51    4.59
  -6   2   4   69.28    6.25
  -6   2   4   80.14    7.69
   6  -2   4   84.96    7.67
   6  -2   4   64.68    5.66
   6  -2  -4   69.25    6.18
  -6  -2   4   84.05    7.51
  -6  -2   4   74.93    4.73
   6   2   4   65.58    6.83
   6   2   4   75.53    5.01
  -6   2  -4   80.43    6.42
   7  -2   4   79.71    8.54
   7   2  -4   96.51    5.89
  -7   2   4  107.50    9.44
  -7  -2  -4   91.24    6.03
  -7  -2   4   90.09    5.85
  -7   2  -4   98.93    7.49
   7  -2  -4  109.66    8.13
  -7  -2   4  107.10    9.02
   7   2   4  102.95    8.92
   7   2   4   94.46    6.28
  -8   2   4   27.51    5.97
   8  -2   4   24.16    6.57
   8   2  -4   20.15    3.53
  -8   2  -4   31.71    5.46
  -8  -2   4   22.66    5.26
   8  -2  -4   19.75    4.80
   0  -3   4 9999.00  275.29
   0   3   4 9373.19  270.45
   0   3  -4 9956.55  276.62
   0  -3  -4 9618.40  271.97
  -1  -3  -4 1715.35   47.01
  -1   3   4 1733.18   46.53
   1   3  -4 1719.39   46.88
   1  -3   4 1722.40   46.74
  -1   3   4 1706.02   47.17
  -1  -3  -4 1790.45   44.38
   1   3  -4 1730.55   44.42
   1  -3   4 1728.51   46.36
  -1   3  -4 1676.64   46.33
  -1  -3   4 1667.07   44.37
  -1  -3   4 1702.53   46.75
   1  -3  -4 1750.57   47.14
  -1   3  -4 1689.44   46.78
   1   3   4 1711.26   47.22
   1  -3  -4 1777.59   46.58
   2   3  -4  134.81    7.09
  -2  -3  -4  131.03    4.41
   2  -3   4  142.53    7.45
  -2  -3  -4  128.61    7.00
  -2   3   4  123.92    6.91
   2  -3   4  122.94    6.36
  -2  -3  -4  133.90    4.42
   2  -3  -4  119.75    6.68
   2   3   4  128.64    7.22
  -2  -3   4  118.40    6.78
  -2  -3   4  129.85    3.90
   2  -3  -4  121.57    6.78
   2  -3  -4  136.59    7.10
  -2   3  -4  129.79    6.56
  -2   3  -4  120.69    7.05
  -2  -3   4  126.85    3.89
  -3  -3  -4  535.94   14.04
   3   3  -4  519.26   18.00
  -3   3   4  477.37   17.32
  -3   3   4  496.43   18.28
  -3  -3  -4  521.18   13.98
  -3  -3  -4  507.62   17.87
   3  -3   4  533.93   18.95
   3  -3   4  525.38   17.08
  -3  -3   4  487.59   17.75
  -3   3  -4  522.48   20.60
   3  -3  -4  470.54   17.40
  -3   3  -4  495.15   17.01
   3  -3  -4  500.99   17.82
   3   3   4  502.52   18.16
  -4   3   4  583.58   21.84
   4   3  -4  590.41   16.03
  -4  -3  -4  607.02   21.16
   4   3  -4  609.02   21.30
   4  -3   4  599.18   20.07
   4  -3   4  574.60   22.01
  -4  -3  -4  618.68   17.07
  -4   3   4  598.26   20.71
   4  -3  -4  597.81   21.94
  -4  -3   4  613.57   16.06
   4  -3  -4  619.72   21.04
  -4   3  -4  602.22   20.26
  -4   3  -4  576.14   22.02
  -4  -3   4  602.76   21.57
   4   3   4  628.95   21.75
   5  -3   4  130.37    7.83
  -5   3   4  125.73    8.99
  -5   3   4  131.77    8.19
   5  -3   4  132.68    9.33
  -5  -3  -4  132.33    5.89
   5   3   4  127.05    8.87
  -5  -3   4  138.18    5.35
   5  -3  -4  156.03    9.06
  -5   3  -4  122.67    7.75
  -5  -3   4  138.01    9.03
   5   3   4  138.46    6.09
   6  -3   4  252.13   14.07
   6   3  -4  246.78    8.84
  -6  -3  -4  234.80    9.41
  -6   3   4  240.96   13.53
   6   3   4  243.92    9.66
  -6  -3   4  231.65    8.83
  -6   3  -4  254.22   12.39
   6   3   4  264.33   13.62
  -6  -3   4  219.54   12.73
   6  -3  -4  241.82   12.47
  -7  -3  -4  235.03   10.09
   7  -3   4  244.06   15.36
   7   3  -4  252.73    9.44
   7  -3  -4  263.31   13.73
   7   3   4  235.60   10.38
  -7   3  -4  251.63   13.07
   7   3   4  267.34   14.64
  -7  -3   4  237.40    9.39
  -7  -3   4  231.77   13.59
   8   3  -4   93.45    5.76
   8  -3   4   83.75    9.48
  -8   3   4   95.45    9.46
  -8  -3  -4  101.19    6.36
   8   3   4   83.39   11.56
   8  -3  -4   85.95    8.63
  -8  -3   4   88.99    8.72
  -8   3  -4  111.96    8.45
   0  -4   4    9.00    2.57
   0  -4  -4   11.26    2.45
   0   4  -4   10.19    2.14
   0  -4   4   10.97    2.39
   0  -4  -4   11.00    2.26
   0   4   4   10.14    2.80
   0  -4   4   12.54    2.33
   0   4   4    8.59    2.10
   1  -4   4  335.77   12.92
  -1  -4  -4  355.74   11.37
  -1   4   4  339.73   12.71
  -1  -4  -4  350.98   13.29
   1   4  -4  339.13   11.31
   1  -4   4  338.63   12.69
   1   4   4  346.38   11.25
   1  -4  -4  366.32   13.61
  -1  -4   4  344.86   11.24
  -1  -4   4  352.19   13.16
  -1  -4   4  356.38   13.06
   1   4   4  351.90   13.47
  -1   4  -4  350.26   13.14
   1  -4  -4  340.01   12.64
   1  -4  -4  331.83   13.26
  -1   4  -4  336.74   12.90
  -2  -4  -4 1129.49   30.45
  -2   4   4 1193.67   34.25
   2   4  -4 1123.87   33.76
  -2  -4  -4 1138.60   30.55
   2  -4   4 1176.35   33.46
  -2  -4  -4 1170.41   34.00
   2  -4   4 1135.73   34.27
  -2  -4   4 1191.43   30.74
   2   4   4 1154.42   34.26
   2  -4  -4 1132.80   34.19
   2  -4  -4 1100.56   33.98
  -2  -4   4 1132.42   30.14
   2  -4  -4 1114.06   33.79
  -2   4  -4 1125.99   33.39
  -2   4  -4 1116.93   34.33
  -2  -4   4 1172.59   33.91
  -3   4   4  398.23   15.42
   3  -4   4  397.56   16.16
  -3   4   4  404.31   16.03
  -3  -4  -4  390.20   11.85
  -3  -4  -4  390.90   11.83
   3  -4   4  384.90   14.74
  -3  -4  -4  376.54   15.11
   3  -4  -4  384.05   15.59
   3  -4  -4  410.79   15.83
  -3  -4   4  386.12   15.19
  -3   4  -4  419.21   16.45
   3   4   4  367.23   15.34
  -3  -4   4  405.08   11.01
  -3   4  -4  405.19   15.08
  -3  -4   4  407.15   11.07
   3  -4  -4  399.59   15.76
  -4  -4  -4  157.62    6.13
   4   4  -4  152.15    8.90
   4  -4   4  159.06   10.06
  -4   4   4  152.23    8.96
  -4   4   4  157.35    9.57
   4  -4   4  158.60    8.65
  -4  -4  -4  157.58    8.93
  -4  -4   4  150.30    5.02
   4  -4  -4  153.60    9.08
  -4  -4   4  155.37    5.06
   4   4   4  163.58    9.44
  -4   4  -4  151.19    8.68
  -4  -4   4  166.91    9.41
  -5  -4  -4  125.87    5.66
   5  -4   4  119.09    9.51
  -5  -4  -4  110.50    5.54
   5   4  -4  120.15    5.06
  -5   4   4  111.76    8.97
   5   4   4  126.65    8.85
  -5   4  -4  132.04    8.39
  -5  -4   4  127.08    4.71
  -5  -4   4  136.02    9.00
   5  -4  -4  133.36    9.02
  -6   4   4   30.73    5.99
   6  -4   4   33.45    6.33
  -6  -4  -4   44.55    3.66
  -6  -4  -4   37.32    3.50
  -6  -4   4   43.87    6.50
   6   4   4   42.87    6.52
  -6   4  -4   42.25    5.95
   6  -4  -4   40.62    6.08
  -6  -4   4   37.31    2.68
  -7  -4  -4   12.43    2.55
  -7   4   4   12.06    4.67
  -7  -4  -4   13.29    2.66
   7   4  -4   15.78    2.57
   7  -4   4   15.96    5.08
  -7  -4   4   19.13    4.95
   7  -4  -4   12.29    4.41
   7   4   4   23.54    4.95
  -7   4  -4   18.43    4.24
   0  -5   4 1675.21   46.32
   0  -5  -4 1702.10   45.19
   0  -5  -4 1693.13   47.02
   0   5   4 1584.56   46.93
   0  -5   4 1632.21   45.34
   0   5  -4 1612.17   45.31
   0   5  -4 1617.01   46.26
   0  -5   4 1641.69   46.49
   0   5   4 1623.50   45.06
  -1  -5  -4  265.24   11.73
   1  -5   4  272.06   11.30
  -1  -5  -4  273.85   10.00
   1  -5   4  280.94   11.70
   1   5  -4  270.74   10.01
  -1   5   4  269.27   11.19
  -1  -5   4  265.79   11.37
   1  -5  -4  261.85   11.78
   1   5   4  267.71    9.98
  -1  -5   4  266.96   10.04
   1  -5  -4  264.00   11.88
   1  -5  -4  261.15   11.07
  -1   5  -4  274.09   11.59
  -1   5  -4  256.90   11.34
  -1  -5   4  252.92   11.28
   1   5   4  264.77   11.88
  -2  -5  -4  853.84   24.50
   2  -5   4  836.70   26.96
   2  -5   4  866.48   27.94
  -2  -5  -4  825.01   24.25
  -2   5   4  838.35   27.42
  -2  -5  -4  863.27   27.38
   2  -5  -4  833.09   29.39
  -2  -5   4  890.00   27.62
  -2   5  -4  894.68   27.49
  -2   5  -4  835.70   30.21
   2  -5  -4  878.45   28.42
  -2  -5   4  851.50   24.13
   2  -5  -4  874.10   28.10
   2   5   4  866.19   27.81
  -2  -5   4  869.08   27.37
  -3  -5  -4    5.65    1.45
   3  -5   4    4.63    2.25
   3   5  -4    6.79    2.48
  -3   5   4    6.01    2.48
  -3  -5  -4    8.52    1.70
   3  -5   4    8.96    3.14
  -3  -5  -4    7.12    2.29
  -3  -5   4   11.29    1.68
  -3   5  -4    7.94    2.66
  -3  -5   4   11.78    3.22
  -3  -5   4    6.62    1.30
   3   5   4   14.77    3.37
   3  -5  -4    5.39    2.24
  -3   5  -4   11.18    3.21
   3  -5  -4   11.72    2.99
   3  -5  -4    6.70    2.96
  -4   5   4  169.79   10.38
   4  -5   4  199.78   11.42
  -4  -5  -4  176.36    7.04
  -4  -5  -4  178.36    7.09
  -4  -5  -4  180.68    9.85
   4  -5   4  165.96    9.61
  -4  -5   4  164.62    9.71
  -4  -5   4  164.68    5.92
   4  -5  -4  162.66   10.11
   4   5   4  162.81    9.90
  -4   5  -4  172.52    9.90
  -5  -5  -4  342.84   11.79
  -5  -5  -4  360.81   11.90
   5  -5   4  339.79   17.13
  -5   5   4  345.45   16.84
  -5  -5   4  331.90   10.16
   5   5   4  372.18   16.45
  -5  -5   4  325.17   15.46
  -5   5  -4  319.54   15.20
   5  -5  -4  343.01   16.15
   6  -5   4  105.55    9.65
  -6  -5  -4  111.91    5.82
  -6   5   4  114.07    9.81
  -6  -5  -4  107.49    5.77
  -6  -5   4   99.12    4.00
   6  -5  -4  104.38    8.83
   6   5   4  103.95    8.61
  -6   5  -4  101.78    8.26
  -6  -5   4   95.55    8.33
  -7   5   4  238.97   15.22
  -7  -5  -4  227.71    9.62
  -7  -5  -4  234.07    9.70
   7  -5   4  251.95   15.95
   7  -5  -4  253.28   14.93
   7   5   4  231.46   13.85
  -7  -5   4  235.13   13.87
   0  -6   4   10.21    2.55
   0   6  -4   11.85    2.80
   0  -6  -4   13.68    2.62
   0   6  -4   10.91    2.54
   0  -6  -4   14.71    3.21
   0   6   4   15.83    2.98
   0   6   4   12.52    3.42
   0  -6   4   10.71    2.58
  -1   6   4   54.61    5.06
   1  -6   4   49.62    4.91
  -1  -6  -4   55.29    4.30
  -1  -6  -4   61.74    5.52
   1  -6   4   51.68    4.85
  -1  -6   4   74.32    5.57
  -1  -6   4   67.80    4.83
   1   6   4   65.55    5.98
   1   6   4   71.47    4.83
   1  -6  -4   70.69    5.85
  -1   6  -4   65.48    5.73
  -1  -6   4   64.14    5.43
   1  -6  -4   65.82    5.23
   1  -6  -4   63.50    5.97
  -1  -6   4   67.44    4.92
  -1   6  -4   57.88    5.11
  -2   6   4  258.26   12.23
   2  -6   4  261.44   12.62
  -2  -6  -4  253.98   11.95
   2  -6   4  267.60   12.08
  -2  -6  -4  276.46   10.09
  -2  -6   4  242.55    9.71
   2  -6  -4  245.92   11.79
   2  -6  -4  237.21   12.36
  -2   6  -4  248.28   12.35
  -2  -6   4  246.12   11.61
  -2  -6   4  242.54    9.69
   2   6   4  246.72   12.29
   2   6   4  251.41    9.93
   2  -6  -4  270.81   12.96
  -2   6  -4  240.95   13.58
  -3  -6  -4    6.55    2.26
   3  -6   4    6.68    2.72
  -3  -6  -4    5.87    1.76
  -3   6   4    4.95    2.80
  -3  -6  -4    4.80    1.73
   3  -6  -4   12.37    3.72
   3   6   4    9.67    3.23
  -3   6  -4    6.17    2.90
  -3  -6   4    8.07    1.81
  -3  -6   4    7.65    2.77
  -3  -6   4    5.81    2.69
  -3  -6   4    8.11    1.75
  -4  -6  -4  820.23   24.35
  -4   6   4  830.46   29.71
   4  -6   4  817.77   30.01
  -4  -6  -4  843.29   24.39
  -4   6  -4  819.54   28.62
  -4  -6   4  864.18   28.62
   4   6   4  843.78   28.98
   4  -6  -4  841.78   29.85
  -4  -6   4  805.83   23.29
  -5   6   4  739.70   27.72
   5  -6   4  693.91   27.62
  -5  -6  -4  680.99   20.95
  -5  -6  -4  679.40   21.04
  -5  -6   4  685.25   25.60
  -5  -6   4  683.60   21.17
   5  -6  -4  711.30   26.88
   5   6   4  683.49   25.84
  -5   6  -4  679.60   25.78
  -5  -6   4  696.98   19.30
  -6  -6  -4    4.30    1.95
  -6   6   4    7.37    3.12
  -6  -6  -4    3.92    1.81
   6  -6   4    2.21    2.66
   6   6   4    2.07    2.79
  -6  -6   4    2.03    1.32
   6  -6  -4    1.79    3.04
  -6   6  -4    2.39    3.40
  -6  -6   4    4.05    3.01
  -6  -6   4    5.75    1.00
   7  -6   4   61.16    9.52
  -7  -6  -4   80.46    5.18
  -7   6   4   59.51    8.95
  -7  -6   4   75.71   10.44
   7  -6  -4   86.91    8.80
   7   6   4   71.94    7.82
  -7   6  -4   59.12    9.46
   0  -7  -4  320.56   14.62
   0  -7  -4  305.46   14.52
   0  -7   4  324.68   13.54
   0   7   4  318.30   13.27
   0   7  -4  324.01   13.57
   0   7  -4  325.10   14.35
   0  -7   4  310.98   13.98
  -1  -7  -4  313.48   14.34
  -1   7   4  314.46   14.22
  -1  -7  -4  328.76   12.88
  -1  -7   4  342.84   13.50
   1   7   4  313.03   14.73
  -1  -7   4  340.01   13.29
   1  -7  -4  339.01   14.08
  -1  -7   4  302.35   14.09
  -1   7  -4  335.04   14.78
   1  -7  -4  325.59   15.03
  -1   7  -4  333.15   14.52
  -1  -7   4  285.04   15.17
   1   7   4  329.15   13.03
  -2  -7  -4  615.80   23.28
  -2  -7  -4  659.17   20.91
  -2   7   4  631.23   23.44
   2  -7   4  696.64   24.51
   2  -7  -4  646.62   24.47
   2   7   4  646.13   21.02
   2   7   4  653.10   24.01
  -2  -7   4  680.03   21.12
  -2   7  -4  645.99   23.64
  -2  -7   4  625.26   20.75
  -2  -7   4  618.55   23.08
  -3  -7  -4  100.47    6.02
  -3  -7  -4  100.83    5.92
  -3   7   4   85.34    7.48
   3  -7   4   77.50    7.74
   3  -7  -4   97.13    8.13
  -3  -7   4  100.15    5.75
  -3  -7   4  105.91    5.79
   3   7   4  104.43    8.28
  -3   7  -4  122.85    8.85
  -3  -7   4  104.62    7.91
   4  -7   4  182.93   12.17
  -4   7   4  175.37   11.41
  -4  -7  -4  180.39    8.28
  -4  -7  -4  172.73    8.23
   4  -7  -4  181.71   11.93
  -4  -7   4  191.75   11.16
  -4  -7   4  188.71    7.70
  -4   7  -4  188.90   11.49
   4   7   4  185.79   11.34
  -4  -7   4  182.92    7.77
  -5  -7  -4   13.24    2.56
  -5   7   4    8.90    4.03
   5  -7   4    7.39    3.34
  -5  -7  -4    7.47    2.43
  -5  -7   4    1.45    2.65
   5  -7  -4   12.48    4.06
  -5  -7   4    7.09    1.62
   5   7   4   12.44    4.23
  -5   7  -4    9.20    3.79
  -6  -7  -4  274.54   10.91
  -6  -7  -4  271.58   10.98
  -6   7   4  281.43   16.68
   6  -7   4  304.91   17.70
   6   7   4  278.43   15.27
  -6  -7   4  230.21    9.30
  -6  -7   4  308.18   15.54
  -6  -7   4  284.81    8.20
  -6   7  -4  280.02   15.53
  -7  -7  -4   99.81    5.88
   7  -7   4   95.45   10.68
  -7   7   4  101.02   10.41
  -7  -7   4   91.25    8.99
   7  -7  -4   87.95    9.62
   7   7   4  101.11    9.44
  -7   7  -4  120.73   10.20
   0  -8   4   41.15    5.73
   0   8  -4   39.09    5.70
   0  -8  -4   31.92    5.57
   0  -8   4   30.91    4.89
   0   8   4   41.96    4.78
   0   8  -4   29.45    4.78
   0  -8  -4   32.65    4.72
  -1   8   4   94.64    7.41
   1  -8   4   95.13    7.60
  -1  -8  -4   76.43    5.91
   1   8   4   65.17    7.12
  -1  -8   4   74.90    6.98
  -1  -8   4   86.96    7.61
  -1  -8   4   78.00    6.15
   1  -8  -4   76.36    7.18
   1   8   4   79.13    6.18
  -1   8  -4   72.43    7.04
   2  -8   4  504.83   21.43
  -2   8   4  501.68   20.94
  -2  -8   4  535.12   18.86
   2  -8  -4  500.02   21.82
   2   8   4  517.71   18.79
  -2   8  -4  548.36   21.62
  -2  -8   4  549.91   21.29
   2   8   4  549.11   21.98
  -2  -8   4  560.50   19.11
   3  -8   4   68.92    7.19
  -3  -8  -4   78.08    5.74
  -3   8   4   71.28    7.03
  -3  -8  -4   74.79    5.37
  -3   8  -4   70.90    7.37
   3   8   4   69.28    7.11
  -3  -8   4   76.09    5.43
  -3  -8   4   67.65    5.09
   3  -8  -4   66.07    7.41
  -3  -8   4   66.10    6.78
  -4  -8  -4  194.31    9.26
  -4   8   4  172.87   11.97
  -4  -8  -4  205.73    9.53
   4  -8   4  189.63   12.99
  -4   8  -4  199.21   12.51
  -4  -8   4  194.69    8.80
  -4  -8   4  191.25    8.56
   4  -8  -4  192.70   13.02
   4   8   4  201.86   12.60
  -4  -8   4  189.85   11.55
  -5  -8  -4   19.34    3.05
  -5  -8  -4   16.60    3.11
  -5   8   4   18.00    5.37
   5  -8   4   15.03    5.23
  -5  -8   4   18.07    2.61
  -5   8  -4   21.01    5.08
  -5  -8   4   18.82    2.71
  -5  -8   4   23.65    5.07
   5  -8  -4   20.85    5.62
   5   8   4   18.16    4.86
   6  -8   4   60.57    9.26
  -6   8   4   66.95    9.51
  -6  -8  -4   58.35    5.12
  -6  -8   4   56.80    8.13
   6  -8  -4   56.14    8.82
   6   8   4   47.17    7.20
   0   9  -4  914.67   32.23
   0  -9   4  909.56   31.27
   0  -9   4  973.14   32.97
   0  -9  -4  948.69   33.22
   0   9   4  893.77   30.90
   1  -9   4  299.21   15.11
  -1   9   4  295.78   14.60
  -1  -9  -4  286.95   15.32
  -1  -9   4  297.22   14.00
  -1   9  -4  309.21   15.46
  -1  -9   4  305.36   15.21
   1  -9  -4  287.16   15.52
   1   9   4  290.03   13.77
  -1  -9   4  320.82   14.35
  -2  -9  -4  137.45    8.28
   2  -9   4  132.50   10.19
  -2  -9  -4  145.48    8.91
  -2   9   4  137.20   10.06
   2   9   4  133.70    8.55
  -2  -9   4  132.97    8.23
   2   9   4  142.41   10.64
  -2  -9   4  139.44    9.95
   2  -9  -4  112.67    9.65
  -2  -9   4  134.84    8.47
  -2   9  -4  136.79   10.33
  -3   9   4  382.59   18.45
  -3  -9  -4  392.32   17.57
  -3  -9  -4  380.20   15.22
   3  -9   4  379.01   19.07
   3   9   4  348.68   17.77
   3  -9  -4  401.08   19.68
  -3  -9   4  378.64   15.13
  -3  -9   4  387.25   17.90
  -3  -9   4  370.05   15.03
  -3   9  -4  384.29   18.59
  -4  -9  -4   17.54    3.18
  -4   9   4    9.71    3.66
   4  -9   4   13.37    4.81
  -4   9  -4   20.00    5.25
   4  -9  -4   12.82    5.30
   4   9   4   19.01    5.14
  -4  -9   4   18.56    3.41
  -4  -9   4   15.70    3.20
  -4  -9   4   18.46    4.81
   5  -9   4  179.62   13.79
  -5  -9  -4  194.46    9.55
  -5   9   4  193.94   13.89
  -5  -9   4  179.91   12.16
  -5  -9   4  158.75    7.92
  -5  -9   4  193.22    8.61
  -5   9  -4  191.00   13.25
   5   9   4  197.60   12.90
   5  -9  -4  195.80   14.22
  -6   9   4  108.31   10.95
   6  -9   4   86.36   10.29
  -6  -9   4   86.76    9.06
   6   9   4  107.05    9.80
   6  -9  -4   97.13   10.65
  -6   9  -4   88.62    9.52
   0  10   4   52.90    7.20
   0 -10   4   72.51    7.38
   0 -10  -4   59.64    8.34
   0 -10   4   63.55    6.91
   0  10  -4   54.39    7.42
  -1  10   4   44.61    6.91
   1 -10   4   49.18    7.37
  -1 -10  -4   39.20    6.94
   1  10   4   54.20    6.91
   1 -10  -4   46.15    7.54
  -1 -10   4   50.34    5.97
  -1  10  -4   47.98    7.20
  -1 -10   4   61.27    8.17
   2 -10   4  462.37   21.14
  -2 -10  -4  456.33   18.74
  -2  10   4  415.54   20.09
  -2 -10  -4  456.23   20.92
  -2  10  -4  424.28   20.54
  -2 -10   4  452.98   20.51
   2 -10  -4  485.18   22.34
  -2 -10   4  475.45   18.78
  -3 -10  -4  144.19    9.16
  -3 -10   4  143.52    8.73
  -3 -10   4  149.49    9.08
   3  10   4  127.28   10.69
  -3 -10   4  140.81   10.54
   3 -10  -4  117.19   12.83
  -4 -10  -4    2.17    2.37
   4 -10   4   -0.78    3.16
  -4  10   4    3.51    2.99
  -4  10  -4    2.01    3.52
  -4 -10   4   -2.14    2.83
  -4 -10   4   -1.44    1.85
   4 -10  -4    4.07    3.73
  -4 -10   4   -1.28    2.05
   4  10   4    0.18    2.93
  -5  10   4   11.88    5.14
  -5 -10  -4    7.31    3.31
   5 -10   4    8.65    4.64
  -5 -10   4   14.03    2.91
  -5 -10   4   10.63    4.45
   5 -10  -4   15.06    5.47
   5  10   4   18.13    5.36
  -5  10  -4   17.54    5.03
   0  11  -4  364.11   18.90
   0 -11   4  345.01   18.63
   0  11   4  335.41   16.96
   0 -11  -4  347.48   18.75
   0 -11   4  356.74   17.63
  -1  11   4  205.99   13.17
  -1 -11  -4  224.91   14.19
   1 -11   4  197.64   13.23
  -1 -11   4  211.22   12.46
  -1 -11   4  196.06   13.22
  -1  11  -4  185.19   15.15
   1  11   4  200.35   12.11
  -2 -11  -4   61.34    6.90
  -2  11   4   70.14    7.89
  -2 -11  -4   67.48    7.91
  -2 -11   4   78.89    7.47
   2 -11  -4   62.77    9.35
  -2  11  -4   62.11    8.68
  -3 -11  -4  227.71   12.66
   3 -11   4  233.27   15.83
  -3  11   4  241.53   15.22
  -3 -11  -4  216.51   14.25
  -3  11  -4  253.41   15.89
  -3 -11   4  227.02   14.29
   3 -11  -4  222.35   15.59
  -3 -11   4  243.03   12.69
  -4  11   4   48.81    8.04
  -4 -11  -4   51.36    8.02
  -4 -11  -4   53.12    5.95
   4 -11   4   46.41    8.43
  -4 -11   4   48.11    5.45
   4  11   4   49.19    9.90
  -4 -11   4   48.67    7.94
   4 -11  -4   42.97    8.52
  -4  11  -4   53.92    8.48
   0 -12   4   51.61    7.90
   0  12   4   60.96    9.78
   0 -12  -4   60.89    9.05
   0 -12   4   53.67    8.41
   1 -12   4   12.62    4.18
  -1  12   4   14.24    4.87
  -1 -12  -4   10.36    4.65
   1  12   4    9.56    4.09
  -1 -12   4    9.19    4.33
   1 -12  -4    9.61    4.81
  -1  12  -4    8.19    4.40
  -1 -12   4   14.32    4.24
  -2  12   4   83.97    9.18
  -2 -12  -4   87.37    9.44
   2 -12   4   90.99    9.80
  -2 -12  -4   91.95    8.31
  -2 -12   4   84.71    7.90
   2 -12  -4   82.62    9.57
  -2  12  -4   88.96    9.59
  -2 -12   4   86.00    9.28
  -3 -12  -4   81.08    7.62
  -3 -12  -4   72.60    8.71
   3 -12   4   86.08    9.70
  -3  12   4   88.72    9.49
   3 -12  -4   87.73   11.58
  -3  12  -4  104.12   10.71
  -3 -12   4   84.26    9.15
  -3 -12   4   80.15    7.47
   0 -13   4   -0.25    3.41
   0 -13   4   -2.22    3.34
   0  13   4    2.70    3.10
   0 -13  -4   -4.52    3.18
   1 -13   4   28.49    6.66
   1 -13   4   13.21    4.45
  -1 -13  -4    7.92    4.99
  -1  13   4   13.98    5.24
  -1  13  -4   27.17    6.00
  -1 -13   4   15.43    5.64
  -1 -13   4   25.39    5.85
   1 -13  -4   16.98    6.37
   1  13   4   20.37    5.31
  -2 -13  -4  202.54   14.79
  -2  13   4  209.70   15.01
  -2 -13  -4  183.49   12.93
   2 -13   4  222.38   15.73
  -2 -13   4  176.61   12.26
  -2  13  -4  219.04   15.58
  -2 -13   4  225.93   15.25
   2 -13  -4  188.67   15.30
   0   0  -5    7.07    1.75
   2   0  -5  772.77   21.13
   2   0  -5  787.85   21.31
   2   0   5  793.91   24.08
   2   0  -5  763.57   23.59
  -2   0  -5  795.75   24.03
   2   0   5  758.01   20.52
  -2   0   5  775.05   23.75
   3   0  -5 1124.90   30.39
  -3   0   5 1093.69   33.57
   3   0  -5 1136.57   33.63
  -3   0  -5 1145.22   33.95
   3   0   5 1161.11   29.84
   3   0  -5 1157.35   30.31
  -3   0  -5 1061.99   30.47
   3   0   5 1162.91   34.14
  -4   0  -5   23.59    4.03
   4   0  -5   25.83    4.04
  -4   0  -5   25.72    2.38
   4   0  -5   23.88    2.48
   4   0   5   26.10    4.69
  -4   0   5   27.96    5.36
  -4   0   5   23.04    2.41
   4   0   5   19.16    2.20
  -5   0  -5  224.69    8.91
   5   0  -5  223.69    9.05
  -5   0   5  224.78   11.89
  -5   0   5  229.42    9.22
   5   0   5  215.86   11.86
   5   0   5  218.18    8.81
   6   0  -5   32.29    3.79
   6   0   5   33.22    4.08
  -6   0   5   41.15    6.61
  -6   0   5   35.05    3.83
  -6   0  -5   40.96    3.78
   6   0   5   37.19    6.18
  -7   0  -5    0.38    1.60
   7   0   5   -0.18    3.11
   7   0  -5   -0.46    1.92
  -7   0   5    4.75    3.17
  -8   0  -5    3.74    2.57
   8   0   5    9.52    4.24
  -8   0   5   10.88    4.13
   0  -1  -5  416.63   13.57
   0  -1   5  429.15   13.09
   0   1   5  435.56   12.83
   0  -1  -5  426.63   12.74
   0   1  -5  428.91   13.12
   0   1   5  412.86   13.62
   0  -1   5  423.07   13.24
   0   1  -5  425.55   13.29
  -1   1   5 2457.13  103.88
   1   1  -5 2768.46  106.17
  -1  -1  -5 2797.65  104.42
   1  -1   5 2903.26  107.64
  -1  -1   5 3069.54  108.04
   1  -1  -5 2708.47  107.08
   1   1   5 2878.52  104.57
  -1   1  -5 2717.36  106.44
   2   1  -5  392.96   10.44
   2  -1   5  403.88   14.37
   2   1  -5  393.52   10.49
  -2   1   5  391.97   14.03
   2  -1   5  412.11   12.17
   2   1  -5  387.09   13.87
  -2  -1  -5  403.98   14.22
  -2  -1   5  388.92   14.02
   2  -1  -5  379.41   13.81
   2  -1  -5  410.06   12.75
  -2   1  -5  400.14   12.15
  -2   1  -5  380.89   14.13
   2   1   5  370.23   14.18
  -3  -1  -5   20.15    3.48
   3  -1   5   15.53    3.27
   3   1  -5   23.24    1.41
  -3  -1  -5   20.22    1.25
   3  -1   5   21.70    2.24
   3   1  -5   27.50    3.96
   3   1  -5   19.39    1.34
  -3   1   5   24.29    3.94
   3   1   5   25.67    4.04
   3  -1  -5   22.31    2.59
  -3   1  -5   30.69    4.21
  -3   1  -5   21.92    2.30
  -3  -1   5   21.13    3.68
   3  -1  -5   27.00    2.71
   3  -1  -5   27.81    3.86
   3   1   5   23.74    1.30
   4   1  -5  923.46   24.72
   4  -1   5  922.15   26.20
   4   1  -5  926.80   29.25
  -4   1   5  906.12   26.74
  -4  -1  -5  921.91   29.55
  -4  -1  -5  898.35   24.60
  -4   1   5  892.42   29.45
   4  -1   5  968.19   30.71
   4  -1  -5  917.69   26.83
  -4   1  -5  919.60   26.28
   4  -1  -5  826.56   28.87
   4   1   5  910.81   24.51
   4   1   5  960.39   30.06
  -4   1  -5  877.32   29.50
  -5  -1  -5  274.22    9.62
   5   1  -5  271.67    9.49
   5  -1   5  247.20   13.32
   5  -1   5  273.94   10.81
  -5   1   5  268.35   11.16
  -5   1   5  251.00   13.15
   5   1   5  273.95    9.61
   5   1   5  279.78   13.65
   5  -1  -5  279.89   11.28
  -5  -1   5  283.56    9.77
  -5   1  -5  281.68   10.96
  -5  -1   5  286.68   13.76
   6  -1   5    9.10    2.89
  -6   1   5    9.01    3.66
  -6  -1  -5   12.08    2.38
  -6   1   5   11.20    2.71
   6   1  -5    5.53    2.00
   6  -1   5   13.24    4.08
   6   1   5   11.37    4.02
  -6  -1   5    8.58    3.54
   6  -1  -5   10.75    2.82
  -6  -1   5    7.65    2.14
   6   1   5    6.01    2.04
  -6   1  -5   11.22    2.65
  -7   1   5    7.70    2.78
   7  -1   5    5.12    3.76
   7   1  -5    6.24    2.25
  -7   1   5    7.16    3.45
  -7  -1  -5    8.47    2.37
   7  -1   5   -0.23    2.87
  -7  -1   5    6.36    2.27
  -7  -1   5   11.36    4.21
   7   1   5    2.74    2.41
   7   1   5    9.79    4.02
  -7   1  -5    4.87    2.40
  -8   1   5   43.52    7.61
   8  -1   5   64.27    9.60
  -8  -1  -5   54.85    5.05
   8   1  -5   47.56    5.05
  -8   1  -5   57.35    5.56
  -8  -1   5   54.40    8.23
   8   1   5   53.80    8.39
   0  -2   5 2185.83   57.10
   0  -2  -5 2155.57   57.48
   1   2  -5  943.48   26.25
   1  -2   5  994.62   27.92
   1  -2   5  925.01   28.54
   1  -2   5  987.29   28.03
  -1  -2  -5  962.97   25.91
   1   2  -5 1006.95   28.87
  -1   2   5 1014.07   28.80
  -1  -2  -5  969.15   28.93
  -1   2   5 1009.75   28.58
   1  -2  -5 1028.53   28.51
  -1  -2   5 1038.75   28.98
   1   2   5 1018.12   26.03
   1   2   5 1070.85   29.64
   1  -2  -5  991.80   28.50
  -1  -2   5 1060.57   26.35
  -1   2  -5 1014.33   28.80
   2  -2   5  947.39   27.62
   2  -2   5  893.97   25.38
  -2   2   5  861.30   26.91
   2   2  -5  902.39   27.00
  -2  -2  -5  891.30   27.12
  -2  -2   5  853.26   26.76
  -2   2  -5  881.61   27.21
   2   2   5  905.13   27.44
   2  -2  -5  939.48   26.36
   2  -2  -5  917.59   26.21
  -2   2  -5  874.45   25.39
   2  -2  -5  853.34   26.69
   3  -2   5  944.23   29.96
   3  -2   5  960.66   27.30
  -3   2   5  926.55   29.56
  -3  -2  -5  896.61   29.17
   3   2  -5  950.85   29.34
   3  -2  -5  965.82   28.15
  -3  -2   5  952.34   29.46
   3   2   5  964.76   29.88
  -3   2  -5  966.48   30.04
   3  -2  -5  939.74   28.09
  -3   2  -5  994.12   27.51
   3  -2  -5  946.56   29.69
  -4   2   5    8.79    2.39
  -4   2   5    5.68    2.85
   4  -2   5   10.62    2.29
  -4  -2  -5    9.78    1.20
   4  -2   5    9.89    3.05
   4   2  -5    7.22    2.73
  -4  -2  -5   12.68    3.25
   4  -2  -5    9.95    2.66
   4   2   5    7.75    2.85
  -4   2  -5   13.78    3.38
  -4  -2   5   12.45    3.33
   4   2   5   11.59    1.17
   4  -2  -5    6.99    2.58
   4  -2  -5   10.14    2.49
  -4   2  -5    9.40    2.26
  -5   2   5  748.33   24.17
  -5  -2  -5  730.55   20.55
   5  -2   5  742.28   26.92
  -5   2   5  757.45   26.75
   5  -2   5  733.68   23.37
   5   2   5  669.24   22.64
   5   2   5  723.36   26.15
   5  -2  -5  747.50   24.09
  -5  -2   5  741.54   26.10
  -5  -2   5  727.23   19.92
  -5   2  -5  744.05   23.53
  -6  -2  -5  164.61    7.20
  -6   2   5  184.05   11.57
   6  -2   5  168.65   11.65
  -6   2   5  168.03    9.48
   6  -2   5  175.25    9.36
   6   2  -5  169.08    6.70
  -6   2  -5  171.42    9.27
   6   2   5  176.79    7.39
  -6  -2   5  202.47   11.89
   6   2   5  173.17   11.24
   6  -2  -5  206.49   10.56
   7   2  -5  133.00    6.11
  -7   2   5  106.05   11.93
  -7  -2  -5  131.56    6.56
   7  -2   5  135.62   11.16
  -7   2  -5  123.01    8.24
   7  -2  -5  142.29    9.16
  -7  -2   5  113.63    5.94
   7   2   5  124.09    6.75
  -7  -2   5  143.24   10.62
   7   2   5  143.75   10.81
  -8  -2  -5   20.76    3.16
   8   2  -5   12.87    2.78
  -8   2   5   31.64    6.53
   8  -2   5   13.91    5.32
   8   2   5   20.62    5.34
   8  -2  -5   15.81    4.43
  -8   2  -5   21.39    4.24
  -8  -2   5   30.38    6.25
   0   3  -5  122.77    5.65
   0  -3   5  103.09    5.28
   0  -3  -5  119.83    5.42
   0  -3   5  113.58    6.06
   0   3   5  106.69    5.22
   0   3   5   99.33    6.17
   0  -3  -5  119.82    6.35
   0  -3   5  105.92    5.95
   1   3  -5 1266.19   33.99
   1   3  -5 1254.57   36.56
   1  -3   5 1296.79   36.04
  -1  -3  -5 1308.24   33.84
  -1   3   5 1259.75   36.14
   1  -3   5 1322.11   36.60
  -1   3   5 1278.18   36.86
  -1  -3  -5 1285.43   36.88
  -1  -3   5 1291.60   36.67
   1   3   5 1318.02   33.97
   1  -3  -5 1329.35   36.82
  -1   3  -5 1259.75   36.45
   1  -3  -5 1311.72   36.16
  -1   3  -5 1292.51   36.09
   1   3   5 1291.81   37.22
  -1  -3   5 1298.56   34.04
   2   3  -5 1424.82   40.68
  -2  -3  -5 1390.00   35.92
  -2  -3  -5 1448.60   35.98
  -2   3   5 1409.50   40.65
  -2  -3  -5 1409.18   40.78
   2  -3   5 1436.58   39.55
   2  -3   5 1338.58   40.79
   2   3   5 1420.96   41.19
  -2   3  -5 1487.24   41.41
   2  -3  -5 1455.41   40.50
  -2   3  -5 1499.39   39.84
  -2  -3   5 1420.54   40.62
   2  -3  -5 1405.30   40.39
   2  -3  -5 1431.63   40.59
  -3  -3  -5 1188.39   35.17
   3  -3   5 1176.70   35.84
  -3   3   5 1149.47   35.34
   3  -3   5 1200.10   33.66
  -3   3  -5 1117.40   35.58
  -3   3  -5 1140.16   33.52
   3  -3  -5 1184.72   34.59
  -3  -3   5 1137.42   34.92
   3  -3  -5 1176.25   35.34
   3  -3  -5 1174.62   34.52
   3   3   5 1159.00   35.44
  -4  -3  -5  880.19   28.81
   4   3  -5  855.74   28.62
   4  -3   5  877.04   27.07
   4  -3   5  884.11   29.82
  -4   3   5  867.24   29.37
  -4  -3  -5  884.91   22.76
  -4  -3  -5  888.09   22.75
  -4   3  -5  907.55   27.34
   4  -3  -5  858.64   27.80
   4   3   5  856.86   31.67
  -4  -3   5  886.34   28.89
   4  -3  -5  878.80   28.15
   5  -3   5  515.13   21.16
   5  -3   5  522.76   18.28
  -5   3   5  515.21   20.87
  -5   3   5  459.78   18.37
  -5  -3  -5  516.56   14.85
  -5  -3   5  491.14   19.79
   5   3   5  482.94   20.00
  -5   3  -5  483.99   18.09
   5  -3  -5  464.87   18.51
   6  -3   5    8.09    3.85
  -6  -3  -5    5.98    1.53
  -6   3   5    3.22    3.23
   6  -3  -5    9.47    3.11
   6   3   5    7.88    3.69
   6   3   5    8.54    1.83
  -6   3  -5    5.22    2.31
  -6  -3   5   20.25    4.75
   7  -3   5  132.35   11.26
  -7  -3  -5  120.42    6.01
  -7   3   5  143.92   11.30
   7  -3  -5  137.07    9.76
  -7   3  -5  124.80    8.86
   7   3   5  137.56   10.77
  -7  -3   5  133.34   10.43
   7   3   5  141.07    6.68
   0   4   5 1046.13   29.43
   0   4   5 1012.18   31.37
   0  -4   5 1031.11   29.58
   0  -4   5 1051.20   30.85
   0  -4  -5  989.25   30.89
   0  -4  -5 1012.92   29.22
   0  -4   5 1039.74   30.62
   0   4  -5 1104.90   29.96
   1   4  -5  747.14   24.22
  -1  -4  -5  762.40   21.89
   1  -4   5  794.96   24.19
  -1   4   5  779.63   23.88
  -1   4   5  756.52   24.76
  -1  -4  -5  765.17   24.51
   1  -4   5  748.24   23.76
   1   4   5  814.67   25.17
   1   4   5  745.42   21.71
   1  -4  -5  782.26   23.82
  -1   4  -5  763.09   23.99
  -1  -4   5  786.33   24.30
  -1  -4   5  760.15   21.84
   1  -4  -5  778.73   24.67
  -1   4  -5  774.83   24.20
  -1  -4   5  773.73   24.38
  -2   4   5  285.45   12.36
  -2  -4  -5  283.84    9.82
   2   4  -5  283.99   12.30
   2  -4   5  293.82   11.79
  -2  -4  -5  282.76   12.36
  -2  -4  -5  285.08    9.10
   2  -4   5  285.60   12.62
   2   4   5  300.43   12.90
   2  -4  -5  310.79   12.75
  -2   4  -5  317.90   12.22
  -2   4  -5  294.21   12.72
   2  -4  -5  302.62   12.44
  -2  -4   5  308.03   12.61
   2  -4  -5  301.32   12.58
  -2  -4   5  306.72    9.00
  -2  -4   5  286.98    8.81
  -3  -4  -5 1114.77   28.37
   3  -4   5 1118.69   32.74
  -3  -4  -5 1081.71   33.71
  -3  -4  -5 1109.95   28.36
   3  -4   5 1026.61   34.13
  -3   4   5 1074.52   33.98
   3   4  -5 1059.97   33.52
  -3   4  -5 1094.21   34.61
  -3  -4   5 1130.28   33.76
   3   4   5 1099.97   34.19
   3  -4  -5 1094.96   33.71
   3  -4  -5 1082.95   33.64
  -3   4  -5 1062.53   32.65
   3  -4  -5 1122.23   34.09
  -4  -4  -5   30.83    1.96
  -4  -4  -5   30.40    1.92
   4  -4   5   27.94    4.20
  -4  -4  -5   30.36    4.78
   4  -4   5   32.23    5.22
  -4   4   5   27.75    4.76
   4  -4  -5   32.17    4.87
   4   4   5   34.51    5.41
   4  -4  -5   27.49    4.60
  -4  -4   5   32.30    5.14
  -4   4  -5   32.97    4.57
   5  -4   5  120.98    9.67
   5  -4   5  115.50    7.97
  -5  -4  -5  127.56    5.07
  -5  -4  -5  129.62    5.40
  -5   4   5  130.74    9.46
  -5  -4   5  139.12    9.41
   5   4   5  148.19    9.81
  -5   4  -5  129.01    8.31
   5  -4  -5  141.30    9.09
  -6  -4  -5   63.83    3.56
   6  -4   5   58.36    8.46
  -6   4   5   67.99    8.77
   6  -4  -5   68.26    6.66
  -6  -4   5   71.80    7.44
   6   4   5   57.70    6.76
  -6   4  -5   42.53    5.96
  -7   4   5  145.61   11.64
  -7  -4  -5  129.26    5.81
   7  -4   5  124.05   11.27
  -7  -4  -5  139.62    6.09
  -7  -4   5  131.92   10.49
   7  -4  -5  148.62   10.26
   7   4   5  136.72   10.52
  -7   4  -5  134.87    9.51
   0  -5   5  983.63   29.98
   0   5  -5 1040.87   30.27
   0  -5  -5  997.90   29.70
   0   5   5 1032.25   29.95
   0  -5   5 1017.72   31.03
   0   5   5  994.40   31.94
   0  -5  -5 1082.99   32.05
   0  -5   5 1042.99   31.51
  -1   5   5   80.77    6.21
   1   5  -5   75.22    4.60
   1  -5   5   78.93    5.64
  -1  -5  -5   78.43    5.99
  -1  -5  -5   72.98    4.48
   1  -5   5   75.95    5.74
  -1   5   5   81.02    5.74
   1   5   5   77.02    6.04
   1  -5  -5   75.67    5.49
   1   5   5   80.77    4.67
  -1  -5   5   82.75    4.73
  -1  -5   5   73.77    5.62
   1  -5  -5   74.16    5.79
  -1   5  -5   80.47    5.83
   1  -5  -5   82.13    6.10
  -1  -5   5   92.98    6.08
  -1   5  -5   83.16    6.03
   2  -5   5   55.01    5.36
   2   5  -5   61.86    5.23
   2  -5   5   52.41    5.54
  -2  -5  -5   61.80    3.60
  -2   5   5   56.52    5.07
  -2  -5  -5   62.45    5.56
  -2  -5   5   60.80    5.31
  -2   5  -5   63.53    5.45
   2  -5  -5   48.85    4.93
  -2  -5   5   52.74    5.05
   2   5   5   59.55    3.64
  -2   5  -5   63.88    5.38
   2  -5  -5   65.04    5.54
  -2  -5   5   53.87    3.40
   2  -5  -5   50.58    5.19
  -2  -5   5   58.43    3.40
   2   5   5   70.69    5.83
   3  -5   5  465.20   17.73
   3  -5   5  505.29   19.61
  -3  -5  -5  484.37   14.39
   3   5  -5  473.34   18.53
  -3   5   5  459.83   18.70
  -3  -5  -5  460.53   18.25
  -3  -5  -5  488.25   14.36
  -3  -5   5  494.86   18.58
  -3  -5   5  498.22   13.46
  -3   5  -5  483.76   18.15
  -3  -5   5  500.11   13.47
   3   5   5  465.53   21.19
   3  -5  -5  500.22   19.13
   4  -5   5  174.39    9.98
  -4  -5  -5  178.32    6.58
  -4  -5  -5  173.12    6.55
  -4   5   5  161.52   10.44
   4  -5   5  170.94   10.94
   4  -5  -5  207.23   11.35
   4   5   5  202.16   11.36
  -4  -5   5  202.38   11.03
  -4   5  -5  202.18   10.51
  -5   5   5  299.91   15.49
  -5  -5  -5  284.03    9.28
   5  -5   5  266.18   15.18
   5   5   5  273.95   14.44
   5  -5  -5  282.60   14.41
  -5  -5   5  286.37   14.44
  -5   5  -5  289.49   13.90
   6  -5   5   48.87    7.85
  -6  -5  -5   49.58    3.20
  -6   5   5   50.24    8.66
  -6   5  -5   44.15    6.41
  -6  -5   5   56.42    7.54
   6   5   5   55.25    7.67
   6  -5  -5   41.01    6.51
  -7  -5  -5  113.26    4.97
   7  -5   5  112.63   10.99
  -7   5   5  122.68   11.00
   7  -5  -5  120.43    9.90
  -7   5  -5  106.53    8.94
   7   5   5   98.93    9.64
   0  -6   5   78.64    5.92
   0  -6  -5   83.63    6.53
   0   6   5   74.54    6.51
   0  -6   5   81.94    5.59
   0  -6   5   71.99    5.91
   0   6  -5   74.72    5.46
   0   6   5   76.38    5.48
   0  -6  -5   77.18    5.39
  -1  -6  -5  131.93    6.68
   1  -6   5  135.16    8.03
   1  -6   5  141.31    8.34
  -1  -6  -5  143.56    8.51
   1   6  -5  129.73    6.86
  -1   6   5  151.33    8.33
  -1   6  -5  118.22    9.13
  -1  -6   5  115.54    7.58
   1   6   5  131.18    6.86
  -1  -6   5  122.84    6.67
   1   6   5  143.97    9.05
   1  -6  -5  130.89    8.38
  -2  -6  -5  642.06   19.41
  -2  -6  -5  636.75   22.67
   2  -6   5  590.59   22.51
   2  -6   5  619.50   22.12
  -2   6   5  681.93   23.06
  -2   6  -5  627.38   22.49
  -2   6  -5  621.12   22.97
  -2  -6   5  608.16   19.23
  -2  -6   5  617.55   22.32
   2   6   5  682.99   23.65
  -2  -6   5  607.46   22.34
   2  -6  -5  645.87   22.52
   2  -6  -5  618.91   23.18
   2   6   5  640.71   19.52
  -2  -6   5  592.59   18.98
   2  -6  -5  651.22   23.46
  -3  -6  -5  110.70    5.47
  -3   6   5  112.29    8.22
  -3  -6  -5  111.33    5.44
   3  -6   5  112.95    8.62
  -3   6  -5  100.75    7.59
  -3  -6   5  106.23    4.93
  -3  -6   5  116.08    8.15
   3  -6  -5  116.70    8.38
   3   6   5  115.70    8.47
  -3  -6   5  108.99    5.47
  -4  -6  -5   24.25    2.56
  -4   6   5   29.14    5.38
   4  -6   5   24.34    5.31
  -4  -6  -5   27.49    2.63
   4   6   5   31.72    5.66
  -4  -6   5   25.76    1.71
  -4  -6   5   22.88    4.70
  -4   6  -5   24.31    4.70
  -4  -6   5   25.12    1.67
   4  -6  -5   27.13    5.09
   5  -6   5  478.75   22.19
  -5  -6  -5  488.33   15.29
  -5   6   5  489.79   22.02
  -5  -6  -5  508.08   15.35
   5   6   5  522.79   21.61
  -5   6  -5  517.97   20.95
   5  -6  -5  500.25   21.62
  -5  -6   5  504.58   20.99
  -6  -6  -5  268.61    9.32
  -6   6   5  259.92   15.98
   6  -6   5  280.43   16.78
  -6  -6  -5  263.58    9.26
   6  -6  -5  266.75   15.28
   6   6   5  249.09   14.61
  -6   6  -5  276.08   14.71
  -6  -6   5  283.42   15.16
   7  -6   5   29.77    7.04
  -7  -6  -5   35.42    2.59
  -7   6   5   22.83    5.46
   7   6   5   43.63    7.42
   7  -6  -5   36.32    6.75
  -7  -6   5   35.76    6.73
   0  -7  -5 1260.26   40.24
   0  -7   5 1274.16   39.92
   0   7   5 1333.90   38.35
   0   7  -5 1260.00   38.65
   0  -7   5 1351.67   38.73
   0   7   5 1274.81   40.78
   0  -7  -5 1246.00   40.17
   1  -7   5   61.80    5.83
  -1   7   5   50.86    5.34
  -1  -7  -5   57.81    4.58
   1  -7  -5   53.58    6.04
   1  -7  -5   52.07    5.19
   1   7   5   54.97    4.80
  -1  -7   5   60.07    4.99
  -1   7  -5   53.08    5.36
   1   7   5   54.15    6.05
  -1  -7   5   49.34    4.59
  -1   7  -5   56.99    5.99
  -1  -7   5   45.06    5.97
   2  -7   5  146.15    9.72
  -2   7   5  146.99    9.47
  -2  -7  -5  149.13    7.47
  -2  -7   5  150.10    7.46
  -2  -7   5  149.30    9.56
   2  -7  -5  144.70    9.79
  -2   7  -5  154.39    9.81
   2   7   5  155.19    7.75
  -2  -7   5  153.88    7.60
   2   7   5  150.80    9.85
  -3   7   5  228.32   12.80
  -3  -7  -5  233.42    9.71
  -3  -7  -5  251.89   10.02
   3  -7   5  259.75   13.95
   3  -7  -5  242.81   13.62
  -3  -7   5  252.00   12.91
  -3  -7   5  244.02    9.50
  -3   7  -5  247.70   12.92
   3   7   5  248.11   13.44
  -3  -7   5  237.52    9.31
   4  -7   5   17.63    4.87
  -4  -7  -5    7.46    2.07
  -4  -7  -5   11.80    2.29
  -4   7   5    7.54    3.67
  -4   7  -5   14.21    4.29
   4  -7  -5   15.39    4.18
   4   7   5    7.06    3.40
  -4  -7   5   11.45    1.85
  -4  -7   5   19.63    4.53
  -5  -7  -5   48.52    3.67
   5  -7   5   52.74    9.41
  -5  -7  -5   41.07    3.60
  -5   7   5   49.90    7.84
  -5   7  -5   54.55    7.40
  -5  -7   5   46.42    6.67
   5  -7  -5   46.99    7.66
   5   7   5   50.04    7.38
  -6  -7  -5  107.23    5.34
  -6  -7  -5   99.97    5.24
   6  -7   5  109.65   10.90
  -6   7   5  104.98    9.96
   6   7   5  111.14    9.82
  -6   7  -5   99.05    9.02
  -6  -7   5  103.54    9.28
   0   8  -5   84.24    6.65
   0  -8  -5   70.73    7.22
   0  -8   5   77.35    7.35
   0   8   5   77.63    6.53
   0  -8   5   99.13    7.18
   0  -8  -5   79.75    6.25
   1  -8   5  605.98   22.05
  -1  -8  -5  542.07   19.42
  -1   8   5  611.37   21.79
   1   8   5  527.01   19.47
  -1  -8   5  573.98   22.13
  -1  -8   5  544.26   19.76
   1   8   5  496.15   21.91
   1  -8  -5  533.13   22.29
  -1   8  -5  512.29   21.42
  -2  -8  -5  181.46    8.95
  -2   8   5  181.14   11.11
   2  -8   5  185.08   11.48
  -2   8  -5  165.40   10.70
  -2  -8   5  169.25    8.82
   2  -8  -5  172.75   11.59
   2   8   5  151.67   10.77
   2   8   5  178.72    9.08
  -2  -8   5  170.69    8.79
  -2  -8   5  179.57   11.01
   3  -8   5   78.82    7.72
  -3  -8  -5   99.03    6.32
  -3  -8  -5   93.37    5.93
  -3   8   5   87.16    8.22
  -3  -8   5   90.36    5.65
  -3   8  -5   83.87    8.02
  -3  -8   5   77.89    7.25
   3  -8  -5   84.73    8.49
   3   8   5   88.58    8.40
  -3  -8   5   84.35    5.55
   4  -8   5   55.25    7.74
  -4  -8  -5   55.61    4.63
  -4   8   5   57.54    8.07
  -4  -8  -5   59.94    4.54
  -4   8  -5   59.20    7.87
  -4  -8   5   56.40    4.07
  -4  -8   5   59.76    4.12
   4  -8  -5   52.62    7.92
  -4  -8   5   59.08    6.44
   4   8   5   56.12    7.89
  -5  -8  -5   58.81    4.69
   5  -8   5   49.46    8.06
  -5   8   5   54.54    8.30
  -5  -8  -5   66.82    4.62
  -5  -8   5   58.12    7.79
  -5  -8   5   53.34    2.89
  -5   8  -5   67.64    7.61
   5   8   5   62.29    8.62
   5  -8  -5   49.38    7.85
   6  -8   5   93.28   10.29
  -6   8   5   91.92    9.99
  -6  -8  -5   82.99    5.34
  -6   8  -5   99.94    9.42
   6  -8  -5  105.67   10.42
  -6  -8   5  101.65    9.54
   6   8   5   85.34    8.79
   0  -9   5  487.19   19.84
   0   9   5  498.99   19.72
   0  -9  -5  504.17   21.69
   0  -9   5  474.26   20.89
   1  -9   5  194.48   11.47
  -1  -9  -5  189.98   12.10
  -1   9   5  175.57   10.81
   1   9   5  174.16   10.04
  -1  -9   5  177.89   10.40
  -1   9  -5  170.49   11.20
  -1  -9   5  184.61   11.66
  -1  -9   5  176.63   10.18
   1  -9  -5  156.42   11.27
   1   9   5  177.12   12.10
   2  -9   5   83.78    8.08
  -2   9   5   62.71    7.19
  -2  -9  -5   87.77    6.31
  -2  -9   5   73.88    7.53
   2  -9  -5   60.22    7.09
   2   9   5   55.62    7.76
   2   9   5   77.55    6.15
  -2   9  -5   61.68    8.11
  -2  -9   5   66.46    5.87
  -2  -9   5   75.92    6.12
   3  -9   5  120.52    9.92
  -3  -9  -5   97.60    6.74
  -3  -9  -5  115.77    7.28
  -3   9   5  121.79    9.86
   3   9   5  104.65    9.08
  -3  -9   5  115.31    7.13
  -3   9  -5  103.47    9.41
   3  -9  -5  109.04   10.05
  -3  -9   5  113.35    7.00
  -3  -9   5  102.21    8.86
   4  -9   5   58.83    8.56
  -4  -9  -5   63.49    5.90
  -4  -9  -5   53.34    5.03
  -4   9   5   53.98    8.30
  -4  -9   5   45.89    4.13
  -4   9  -5   56.03    8.13
  -4  -9   5   50.90    4.39
   4   9   5   37.63    6.69
  -4  -9   5   49.85    7.51
  -5  -9  -5  153.32    8.42
   5  -9   5  146.27   12.74
  -5   9   5  135.15   11.82
  -5  -9  -5  144.25    7.79
  -5  -9   5  152.54    8.73
   5  -9  -5  163.25   12.74
  -5   9  -5  157.00   11.91
   5   9   5  118.44   10.63
  -5  -9   5  128.05   10.83
  -5  -9   5  129.75    5.94
   6  -9   5   93.59   12.43
   6  -9  -5   92.22   10.14
  -6  -9   5   82.54    9.28
   0  10   5    1.51    2.85
   0 -10   5    5.05    2.92
   0 -10   5    1.34    2.67
   0 -10  -5    4.44    3.25
   1 -10   5  288.56   15.42
  -1  10   5  271.97   14.85
  -1 -10  -5  296.55   16.23
  -1 -10   5  292.53   15.91
   1  10   5  277.51   13.94
  -1  10  -5  298.59   15.95
  -1 -10   5  279.40   13.94
   1 -10  -5  280.89   16.37
  -2  10   5   66.24    7.19
   2 -10   5   75.40    7.91
  -2 -10  -5   70.09    6.47
  -2 -10  -5   77.44    8.17
  -2  10  -5   90.40    8.65
  -2 -10   5   77.40    7.70
   2  10   5   68.24    6.39
   2 -10  -5   71.42    8.57
  -2 -10   5   66.52    6.07
   2  10   5   73.97    8.25
  -3 -10  -5  291.41   13.16
  -3  10   5  264.91   15.52
   3 -10   5  267.37   16.68
  -3 -10   5  263.93   13.85
   3 -10  -5  248.22   16.10
  -3 -10   5  245.38   14.60
  -3 -10   5  263.42   12.27
   3  10   5  267.56   16.01
  -3  10  -5  282.20   16.06
  -4 -10  -5   35.48    5.15
  -4  10   5   45.63    7.92
   4 -10   5   51.85    8.42
  -4  10  -5   42.98    7.51
  -4 -10   5   44.04    4.54
  -4 -10   5   43.07    7.11
  -4 -10   5   35.49    4.15
   4 -10  -5   40.63    7.76
   4  10   5   48.51    7.79
   5 -10   5  119.53   11.82
  -5  10   5  128.98   11.74
  -5 -10  -5  122.11   11.02
  -5 -10   5  129.58   10.99
  -5  10  -5  137.92   11.63
   5 -10  -5  141.30   12.16
   5  10   5  135.76   11.67
  -5 -10   5  120.40    6.39
   0 -11   5   80.75    8.00
   0  11   5   84.29    7.92
   0 -11   5   58.52    8.53
  -1 -11  -5  225.46   14.98
   1 -11   5  208.47   13.42
  -1  11   5  201.70   13.06
   1 -11  -5  210.31   14.60
   1  11   5  205.00   12.43
  -1  11  -5  221.40   14.23
  -1 -11   5  208.94   12.50
  -1 -11   5  168.15   14.96
  -2  11   5    0.96    3.19
  -2 -11  -5    1.83    2.63
   2 -11   5   -2.01    2.20
  -2  11  -5   -1.60    1.87
  -2 -11   5   -1.45    2.73
  -2 -11   5   -2.34    1.68
   2 -11  -5   -0.43    3.05
  -3  11   5   55.11    8.90
  -3 -11  -5   44.89    7.41
  -3 -11  -5   60.57    6.11
   3 -11   5   61.27    9.31
   3  11   5   55.24    9.03
  -3 -11   5   66.66    9.41
  -3 -11   5   65.21    6.08
  -3  11  -5   62.64    9.22
   3 -11  -5   56.53    9.08
  -4  11   5   45.53    8.07
  -4 -11  -5   49.02    6.31
   4 -11   5   44.92    8.46
   4  11   5   38.80    7.47
  -4 -11   5   54.42    8.61
   4 -11  -5   58.52    9.24
  -4  11  -5   40.87    7.57
   0 -12  -5    6.26    3.99
   0 -12   5    2.26    2.73
   0  12   5    7.56    4.31
   0 -12   5    4.40    3.21
  -1  12   5   96.46    9.08
   1 -12   5   84.70    9.09
   1 -12   5   86.21    9.44
  -1 -12  -5   87.33    9.75
   1  12   5   91.68    8.79
  -1  12  -5   97.32   10.24
  -1 -12   5  105.79   10.09
   1 -12  -5   96.73   10.52
  -1 -12   5   99.00    9.12
  -2  12   5  181.21   13.15
  -2 -12  -5  158.56   10.85
   2 -12   5  158.20   13.00
  -2 -12  -5  155.77   12.63
   2 -12  -5  161.13   13.68
  -2  12  -5  144.55   12.47
  -2 -12   5  159.76   12.28
  -3 -12  -5   34.09    6.79
  -3 -12  -5   50.44    7.00
  -3  12   5   45.48    8.04
   3 -12   5   67.02   10.03
  -3  12  -5   63.58    9.62
  -3 -12   5   45.32    6.52
   3 -12  -5   52.62    9.04
  -3 -12   5   47.28    8.53
   0 -13  -5  121.85   11.54
   0 -13   5  115.26   10.67
   0 -13   5  134.27   12.11
   0  13   5  127.82   10.97
   1 -13   5    4.21    3.86
   1 -13   5    9.59    4.84
  -1 -13  -5   11.29    5.01
  -1  13   5    8.56    4.27
   1  13   5    7.19    3.43
  -1 -13   5   11.55    4.76
  -1  13  -5    8.57    3.79
  -1 -13   5   14.84    4.68
   1 -13  -5    7.05    4.63
   0   0   6 2734.13  107.33
   0   0  -6 2758.32  108.11
  -1   0  -6   52.94    4.18
  -1   0   6   53.21    3.85
  -1   0   6   56.97    3.38
   1   0   6   49.84    4.13
   1   0  -6   52.38    3.94
   1   0   6   57.01    3.03
  -1   0  -6   56.56    3.08
   1   0  -6   54.34    3.31
   2   0  -6 1516.61   41.46
  -2   0  -6 1444.56   41.62
   2   0  -6 1493.14   38.54
   2   0  -6 1466.35   38.59
   2   0   6 1465.53   37.77
  -2   0   6 1480.37   41.44
   2   0   6 1449.73   41.79
   2   0   6 1444.97   37.76
  -3   0   6  242.15   11.36
  -3   0  -6  272.86    8.89
   3   0   6  276.90    8.31
  -3   0  -6  251.44   11.81
   3   0   6  269.59   12.01
   3   0  -6  257.54    8.76
   3   0  -6  268.14    8.87
  -4   0   6 1985.83   56.47
  -4   0  -6 1924.33   56.41
   4   0  -6 1966.89   51.44
   4   0  -6 1939.94   56.31
   4   0   6 1957.39   50.94
   4   0   6 2025.96   56.97
  -4   0  -6 1978.78   51.04
  -5   0   6  700.47   25.42
   5   0  -6  695.92   20.94
  -5   0  -6  683.97   20.32
   5   0   6  685.18   20.28
   5   0  -6  692.73   20.68
   5   0   6  681.74   25.63
   6   0  -6   68.19    4.75
  -6   0   6   56.23    7.65
   6   0  -6   69.73    4.96
   6   0   6   72.85    7.72
   6   0   6   51.49    4.28
  -6   0  -6   60.24    4.44
  -7   0  -6   38.23    3.93
   7   0  -6   42.71    4.73
   7   0   6   39.03    4.70
   7   0  -6   50.71    4.56
   7   0   6   42.03    7.26
   8   0  -6  726.20   23.55
   8   0   6  739.45   30.58
   0  -1   6   31.36    2.81
   0   1   6   26.62    3.00
   0  -1   6   25.45    2.67
   0  -1  -6   30.46    2.53
   0   1  -6   28.50    2.76
   0   1   6   31.93    2.63
   0   1  -6   28.74    2.69
   0  -1  -6   34.27    2.93
   1   1  -6 1790.33   48.42
  -1  -1  -6 1825.65   48.89
  -1   1   6 1762.62   48.14
   1  -1   6 1809.40   46.95
   1  -1   6 1728.86   48.38
  -1  -1  -6 1799.40   45.73
  -1   1   6 1784.11   47.69
   1   1  -6 1751.31   46.22
   1  -1  -6 1832.83   48.18
  -1   1  -6 1799.37   48.59
  -1  -1   6 1792.16   46.34
   1   1   6 1881.65   45.80
   1   1   6 1791.00   48.99
   1  -1  -6 1750.21   47.46
  -1  -1   6 1757.23   48.34
   2   1  -6  867.94   23.10
   2   1  -6  900.73   23.23
   2  -1   6  884.39   27.37
   2   1  -6  884.99   26.97
  -2   1   6  885.99   27.05
  -2  -1  -6  894.52   27.29
   2  -1   6  898.22   24.53
   2  -1   6  889.56   24.62
  -2  -1   6  895.53   27.19
   2  -1  -6  894.87   27.02
  -2   1  -6  893.86   27.42
   2   1   6  873.59   27.40
   2  -1  -6  854.93   25.18
   2  -1  -6  935.91   25.41
   3  -1   6   62.70    3.67
  -3   1   6   67.55    5.43
   3   1  -6   61.86    2.32
  -3  -1  -6   63.56    5.30
   3  -1   6   59.84    5.18
   3   1  -6   60.32    2.31
  -3  -1   6   54.27    4.91
   3  -1  -6   59.42    3.99
   3   1   6   65.86    5.44
  -3   1  -6   61.77    3.67
   3  -1  -6   61.70    4.04
   3  -1  -6   58.05    6.09
  -4   1   6  367.62   15.88
  -4  -1  -6  374.66   10.59
   4   1  -6  372.10   15.70
  -4  -1  -6  348.66   15.51
   4   1  -6  374.35   10.81
   4  -1   6  373.40   12.56
   4  -1   6  370.39   16.01
   4   1  -6  378.61   10.75
  -4  -1   6  382.63   15.98
   4   1   6  378.79   16.04
  -4   1  -6  372.12   12.61
   4  -1  -6  386.32   13.24
   4   1   6  388.59   10.61
  -4   1  -6  397.06   18.25
   4  -1  -6  381.04   13.33
   5  -1   6   85.12    7.78
   5  -1   6   90.95    5.45
  -5  -1  -6   77.41    3.93
   5   1  -6   89.75    4.20
   5   1  -6   85.97    4.02
  -5   1   6   84.62    7.38
  -5   1  -6   83.63    5.20
   5  -1  -6   88.96    5.59
   5   1   6   77.84    4.03
   5   1   6   85.01    7.63
   5  -1  -6   86.52    5.73
  -5  -1   6   75.74    7.00
   6  -1   6  255.75   14.53
  -6   1   6  275.07   14.73
   6   1  -6  258.65    9.39
   6  -1   6  249.50   10.70
   6   1  -6  256.75    9.19
  -6  -1  -6  247.63    9.27
  -6   1  -6  256.63   10.80
   6   1   6  239.98   13.96
  -6  -1   6  261.66   14.33
   6   1   6  258.22    9.41
   6  -1  -6  265.31   11.64
   6  -1  -6  272.18   11.39
  -7   1   6   80.21    8.43
   7   1  -6   75.45    4.58
   7  -1   6   65.93    6.20
  -7  -1  -6   68.80    4.51
   7   1  -6   66.19    4.72
   7   1   6   66.02    4.80
   7   1   6   71.14    8.09
   7  -1  -6   75.36    6.61
  -7   1  -6   71.60    5.55
   7  -1  -6   72.39    5.95
  -8  -1  -6   14.62    2.55
  -8   1   6   16.56    4.80
   8  -1   6   12.91    5.59
   8  -1  -6   16.58    3.86
   8   1   6    7.79    4.23
  -8   1  -6   17.14    3.45
  -8  -1   6   13.02    5.04
   0   2  -6 1043.00   29.66
   0   2   6 1071.97   30.37
   0  -2   6 1036.27   28.92
   0   2  -6 1016.32   28.89
   0   2   6  994.06   28.47
   0  -2  -6 1041.22   28.49
   0  -2  -6 1053.87   30.04
   0  -2   6 1045.21   29.58
  -1  -2  -6   39.23    2.39
   1  -2   6   37.90    3.28
   1  -2   6   43.53    3.93
   1   2  -6   33.69    3.60
  -1   2   6   32.82    3.53
  -1   2   6   34.48    3.58
   1   2  -6   37.93    2.51
   1  -2   6   34.91    3.19
  -1  -2  -6   30.17    3.36
   1  -2  -6   48.88    3.90
   1   2   6   45.79    2.55
  -1  -2   6   50.72    4.00
  -1   2  -6   44.83    3.93
  -1  -2   6   48.26    3.19
   1   2   6   46.77    4.44
   1  -2  -6   50.60    3.78
  -2   2   6   96.77    6.29
   2   2  -6   95.31    6.03
   2  -2   6  102.30    5.22
   2  -2   6   95.25    6.23
  -2  -2  -6   98.56    6.38
  -2   2  -6   96.70    6.18
   2  -2  -6   99.63    5.60
   2  -2  -6   99.89    6.27
   2  -2  -6   88.70    5.44
   2   2   6   96.57    6.57
  -2  -2   6  110.43    6.45
  -2   2  -6  100.70    5.23
  -3  -2  -6  495.24   20.63
  -3   2   6  508.30   18.68
   3  -2   6  516.91   16.34
   3  -2   6  495.93   18.84
   3   2  -6  495.38   18.33
   3  -2  -6  511.30   17.09
  -3  -2   6  527.16   18.82
  -3   2  -6  501.60   16.27
  -3   2  -6  529.05   19.16
   3  -2  -6  507.90   17.10
   3  -2  -6  518.83   18.57
   3   2   6  505.10   18.96
   4  -2   6   74.69    4.84
   4  -2   6   85.73    7.19
  -4   2   6   89.11    7.24
  -4  -2  -6   69.42    6.04
   4  -2  -6   74.40    5.38
   4   2   6   71.22    6.42
  -4  -2   6   69.25    6.40
  -4   2  -6   73.04    4.93
   4  -2  -6   76.86    5.45
  -5  -2  -6  498.27   14.22
   5  -2   6  542.99   18.10
  -5   2   6  508.72   21.13
   5  -2   6  540.71   21.99
   5   2   6  560.90   21.73
  -5   2  -6  540.83   18.22
   5  -2  -6  512.97   18.79
   5   2   6  535.96   14.34
   5  -2  -6  539.05   18.81
  -5  -2   6  529.21   21.06
  -6  -2  -6   91.20    4.16
  -6   2   6   91.10    8.57
   6  -2   6   96.36    8.94
   6  -2   6   91.41    6.57
   6   2   6   90.03    8.30
   6  -2  -6   95.37    6.93
  -6   2  -6   94.77    6.54
  -6  -2   6  105.73    8.98
   6  -2  -6   91.86    6.92
   6   2   6   92.42    5.48
  -7   2   6   -0.66    3.06
   7  -2   6    7.11    4.32
  -7  -2  -6    4.74    1.41
   7  -2  -6    3.53    2.72
   7   2   6   -1.17    1.62
  -7   2  -6    2.73    2.25
   7   2   6    2.18    3.06
   0  -3   6    2.16    1.33
   0  -3  -6    2.21    1.18
   0  -3   6   -0.01    1.36
   0  -3   6    3.57    1.89
   0   3   6    2.11    1.45
   0   3   6    1.15    1.72
   0   3  -6    1.00    1.41
   0  -3  -6    0.19    1.07
  -1   3   6  677.47   21.46
   1  -3   6  669.44   20.42
   1   3  -6  679.73   21.27
   1  -3   6  668.97   20.97
   1  -3   6  650.63   20.51
  -1  -3  -6  660.91   21.43
   1   3  -6  612.36   18.38
  -1   3   6  689.28   20.76
  -1  -3  -6  635.55   18.12
   1  -3  -6  670.22   21.12
   1  -3  -6  623.05   20.29
   1   3   6  634.64   21.56
  -1  -3   6  685.55   18.53
   1   3   6  623.22   18.12
  -1  -3   6  610.47   20.82
  -1   3  -6  626.50   20.78
  -2  -3  -6  128.88    3.57
   2  -3   6  130.38    7.72
   2   3  -6  119.96    7.21
  -2  -3  -6  128.65    7.53
  -2  -3  -6  128.42    3.59
   2  -3   6  130.18    6.59
  -2   3   6  128.22    7.41
  -2  -3   6  130.56    7.49
   2  -3  -6  123.14    7.08
   2  -3  -6  119.10    6.89
   2   3   6  113.08    7.42
   2  -3  -6  131.69    7.16
  -2   3  -6  122.54    7.37
  -2   3  -6  132.19    6.69
   3  -3   6  661.35   20.79
  -3  -3  -6  690.55   22.87
   3   3  -6  689.45   22.77
  -3   3  -6  637.67   20.74
   3   3   6  665.53   23.14
   3  -3  -6  642.38   22.53
   3  -3  -6  620.11   21.45
   3  -3  -6  625.58   21.49
  -3  -3   6  640.81   22.40
  -3   3  -6  647.24   23.13
   4  -3   6   79.98    5.60
   4  -3   6   88.46    7.24
  -4   3   6   71.55    6.48
  -4  -3   6   80.46    6.88
   4   3   6   95.18    7.49
  -4   3  -6   78.08    5.56
   4  -3  -6   72.76    5.91
   4  -3  -6   82.31    5.99
   5  -3   6   36.25    4.07
  -5   3   6   34.38    5.90
   5  -3   6   42.60    6.59
   5   3   6   40.22    6.25
  -5  -3   6   42.75    6.37
   5  -3  -6   44.16    5.08
  -5   3  -6   45.95    4.73
   5  -3  -6   45.64    5.08
   6  -3   6    4.39    2.72
  -6  -3  -6   12.18    1.07
  -6   3   6   11.02    3.76
  -6  -3  -6    9.63    0.99
   6  -3   6   10.72    4.24
   6  -3  -6   16.37    3.93
  -6  -3   6    5.94    3.54
  -6   3  -6   10.18    2.99
   6   3   6   10.51    3.85
  -7  -3  -6   12.33    1.40
   7  -3   6    5.08    3.58
  -7   3   6    2.80    3.75
  -7   3  -6    7.72    2.97
   7  -3  -6    6.13    2.87
   7   3   6   10.86    4.33
  -7  -3   6   16.97    5.84
   0   4  -6  548.68   17.70
   0  -4   6  531.86   18.55
   0  -4  -6  529.53   17.08
   0   4   6  516.84   17.12
   0  -4   6  549.74   18.53
   0  -4  -6  541.16   18.99
   0   4   6  538.83   19.32
   0  -4   6  582.17   17.77
   1  -4   6 1078.22   31.81
  -1  -4  -6 1091.81   32.80
   1  -4   6 1086.38   32.09
  -1   4   6 1038.46   31.59
  -1  -4  -6 1093.69   29.44
   1  -4   6 1019.16   31.78
   1   4  -6 1089.60   32.59
  -1   4   6 1068.19   32.87
   1   4  -6 1103.52   29.76
   1   4   6 1062.59   29.39
   1  -4  -6 1064.00   31.56
  -1  -4   6 1062.00   32.34
   1  -4  -6 1094.88   32.68
  -1  -4   6 1086.14   32.42
   1   4   6 1059.44   33.06
  -1  -4   6 1104.63   29.62
  -1   4  -6 1075.29   31.95
  -1   4  -6 1082.97   32.13
   2  -4   6  124.57    7.80
   2   4  -6  112.98    7.35
  -2   4   6  114.41    7.34
   2  -4   6  126.79    6.99
  -2  -4  -6  116.10    4.52
  -2  -4  -6  112.83    8.48
   2  -4  -6  136.27    8.82
   2   4   6  119.39    7.88
  -2  -4   6  119.20    7.49
   2  -4  -6  114.97    7.34
   2  -4  -6  125.86    7.63
  -2  -4   6  125.72    4.43
  -2  -4   6  134.72    4.61
  -2   4  -6  128.51    7.21
   2   4   6  124.63    4.94
   3  -4   6   61.75    5.84
   3   4  -6   58.35    5.54
   3  -4   6   63.11    5.01
  -3   4   6   63.47    5.80
  -3  -4  -6   57.21    5.58
   3  -4  -6   70.52    5.87
   3   4   6   60.52    7.02
  -3   4  -6   64.66    5.22
   3  -4  -6   71.09    5.83
  -3  -4   6   75.19    6.03
   3  -4  -6   58.41    5.45
  -3   4  -6   57.89    5.62
   4  -4   6   49.67    4.89
  -4   4   6   47.71    6.82
   4  -4   6   36.21    5.55
   4  -4  -6   51.06    5.38
  -4   4  -6   45.15    4.94
   4  -4  -6   56.78    5.91
  -4  -4   6   49.08    6.51
   4   4   6   49.79    5.93
  -5   4   6   37.73    6.30
   5  -4   6   37.09    4.33
   5  -4   6   41.44    6.66
  -5   4  -6   49.70    5.48
  -5  -4   6   51.56    6.93
   5  -4  -6   41.46    5.95
   5   4   6   49.86    7.05
  -6   4   6  204.56   13.26
   6  -4   6  213.37   13.95
   6  -4  -6  234.12   12.63
  -6   4  -6  200.13   11.19
  -6  -4   6  213.67   12.95
   6   4   6  220.57   13.31
  -7   4   6  224.51   14.80
   7  -4   6  215.18   14.52
   7   4   6  208.88   13.86
  -7  -4   6  216.33   13.84
   7  -4  -6  213.12   12.78
  -7   4  -6  216.99   12.11
   0   5   6  294.75   13.68
   0  -5   6  330.77   13.45
   0   5   6  324.50   12.10
   0   5  -6  322.18   12.38
   0  -5  -6  320.62   15.54
   0  -5   6  307.67   12.11
   0  -5  -6  308.30   11.84
  -1  -5  -6    3.59    1.37
   1   5  -6    4.16    1.55
   1  -5   6    1.49    1.51
  -1   5   6    3.46    2.39
   1  -5   6    5.15    2.30
  -1  -5  -6    5.17    2.07
  -1   5   6    4.11    2.12
  -1  -5   6    8.16    1.81
  -1   5  -6    8.66    2.69
   1   5   6    6.71    2.51
   1  -5  -6    5.19    2.05
  -1   5  -6    6.42    2.34
  -1  -5   6    7.05    2.31
  -1  -5   6   10.50    2.73
   1   5   6    5.97    1.79
   1  -5  -6   10.43    2.66
  -2  -5  -6  249.11    9.48
   2  -5   6  263.39   14.06
   2  -5   6  241.88   11.29
   2   5  -6  231.58   11.66
  -2  -5  -6  227.83   11.60
  -2   5   6  250.34   12.04
  -2  -5   6  257.30    8.45
   2   5   6  247.83    8.66
   2  -5  -6  236.71   11.43
  -2  -5   6  230.82   11.78
  -2  -5   6  252.37    8.62
   2  -5  -6  237.27   11.90
  -2   5  -6  251.45   12.17
   2  -5  -6  254.98   12.16
  -2   5  -6  254.80   11.60
   3  -5   6  295.70   13.01
  -3  -5  -6  305.50    9.28
   3  -5   6  301.08   14.50
  -3   5   6  292.49   13.95
  -3  -5   6  286.36   13.56
   3  -5  -6  323.45   14.42
  -3   5  -6  333.77   14.03
   3  -5  -6  295.56   13.89
   3   5   6  295.00   14.17
  -4  -5  -6   33.61    1.60
   4  -5   6   29.82    5.58
  -4   5   6   38.02    6.07
  -4  -5  -6   34.91    1.62
   4  -5   6   31.13    5.43
   4   5   6   32.66    5.66
  -4   5  -6   21.25    4.28
   4  -5  -6   26.34    4.70
  -4  -5   6   25.53    4.75
  -5   5   6    8.83    3.59
   5  -5   6    5.03    2.59
   5  -5  -6   14.00    4.10
  -5  -5   6    9.37    3.89
  -5   5  -6   13.67    3.75
   5   5   6   14.44    4.39
   6  -5   6  293.98   17.06
  -6   5   6  291.83   16.36
  -6   5  -6  303.33   14.78
   6   5   6  293.79   16.05
  -6  -5   6  285.13   15.35
   6  -5  -6  286.37   15.21
   7  -5   6   19.66    6.41
  -7   5   6   17.48    5.44
  -7   5  -6   22.65    4.90
   7  -5  -6   32.04    6.35
  -7  -5   6   32.09    6.53
   0  -6   6  244.23   11.76
   0   6   6  257.26   11.02
   0   6  -6  265.69   11.38
   0  -6   6  246.49   12.16
   0  -6  -6  268.19   10.99
   0   6   6  249.64   12.82
   0  -6  -6  245.05   12.34
   0  -6   6  260.48   11.24
   1  -6   6  632.39   22.27
   1   6  -6  655.18   20.48
  -1  -6  -6  625.03   22.98
  -1  -6  -6  630.30   20.12
   1  -6   6  640.59   22.48
  -1   6   6  639.47   22.00
   1   6   6  619.12   20.16
  -1  -6   6  629.60   22.77
   1  -6  -6  670.96   22.12
  -1   6  -6  681.97   22.86
  -1   6  -6  648.31   22.69
  -1  -6   6  666.36   20.55
  -1  -6   6  632.67   22.71
   1  -6  -6  662.64   23.65
   1  -6  -6  567.63   22.59
   1   6   6  634.14   23.63
  -2   6   6    6.63    2.94
   2  -6   6    9.40    3.28
   2  -6   6    9.17    2.67
  -2  -6  -6    8.68    1.93
   2   6   6    8.25    1.90
  -2  -6   6    9.29    1.91
  -2  -6   6    9.18    3.06
   2   6   6    9.23    3.37
  -2  -6   6   12.04    2.13
   2  -6  -6    9.66    2.95
  -2   6  -6   12.70    3.65
  -3  -6  -6  223.49    8.13
   3  -6   6  224.10   12.64
  -3   6   6  228.04   12.44
  -3  -6  -6  218.16    8.06
  -3  -6   6  212.69    7.29
  -3  -6   6  216.02   11.67
  -3   6  -6  207.50   11.33
   3   6   6  227.33   12.56
   3  -6  -6  218.18   12.31
   4  -6   6  436.17   19.87
  -4  -6  -6  445.25   13.19
  -4  -6  -6  454.37   13.24
  -4   6   6  442.03   19.61
  -4   6  -6  461.77   18.81
  -4  -6   6  473.78   19.48
   4   6   6  432.48   19.41
   4  -6  -6  416.62   19.04
   5  -6   6  263.07   15.45
  -5  -6  -6  242.21    9.00
  -5  -6  -6  249.87    7.47
  -5   6   6  252.33   14.83
  -5  -6   6  245.60   13.93
  -5   6  -6  260.73   13.60
   5  -6  -6  253.48   14.17
   5   6   6  238.94   14.11
   6  -6   6   28.64    6.59
  -6   6   6   35.12    6.54
  -6   6  -6   21.68    5.05
   6  -6  -6   29.84    5.93
   6   6   6   36.10    6.57
  -6  -6   6   25.96    6.06
   7  -6   6   13.53    4.72
  -7   6   6   24.53    6.53
   7   6   6   16.82    4.71
   7  -6  -6    9.34    4.21
  -7  -6   6    9.24    4.51
   0  -7   6  159.35    9.86
   0   7   6  142.96    9.81
   0  -7   6  165.40    9.01
   0  -7  -6  154.10    8.60
   0   7   6  151.95    8.58
  -1   7   6   31.37    4.92
  -1  -7  -6   28.83    3.85
   1   7  -6   35.06    3.76
   1  -7   6   33.60    5.06
   1   7   6   30.74    4.05
  -1   7  -6   29.15    4.87
  -1   7  -6   34.31    5.01
  -1  -7   6   33.84    5.17
   1  -7  -6   40.87    4.67
   1   7   6   36.26    5.91
  -1  -7   6   30.77    3.65
   1  -7  -6   25.06    4.82
  -2  -7  -6  792.20   24.31
   2  -7   6  786.51   28.17
  -2   7   6  794.97   27.86
  -2   7  -6  793.64   27.91
   2  -7  -6  801.05   29.02
  -2  -7   6  791.96   24.44
  -2  -7   6  805.00   28.20
   2   7   6  831.67   24.66
  -2  -7   6  824.71   24.38
   2   7   6  791.09   28.99
  -3  -7  -6  315.29   11.36
  -3   7   6  301.85   15.16
   3  -7   6  308.98   15.78
  -3  -7  -6  306.76   11.21
  -3  -7   6  293.23   10.54
   3   7   6  328.89   15.94
   3  -7  -6  333.44   16.31
  -3  -7   6  291.96   14.88
  -3   7  -6  316.90   15.20
  -3  -7   6  306.60   10.64
  -4  -7  -6   28.32    2.72
  -4   7   6   25.36    5.62
  -4  -7  -6   23.62    2.58
   4  -7   6   23.94    5.20
  -4  -7   6   28.16    5.19
  -4   7  -6   14.80    4.11
   4   7   6   31.24    5.68
   4  -7  -6   24.33    5.19
  -4  -7   6   23.19    1.36
  -4  -7   6   21.04    1.27
   5  -7   6  119.23   10.87
  -5   7   6  120.23   10.39
  -5  -7  -6  111.17    4.94
   5   7   6  111.60    9.77
  -5  -7   6  120.29    9.77
   5  -7  -6  113.53    9.77
  -5   7  -6  126.67    9.67
  -6   7   6  152.77   12.23
   6  -7   6  136.43   12.20
   6   7   6  168.41   12.53
  -6  -7   6  133.76   10.99
  -6   7  -6  166.43   11.55
   0   8   6  317.31   14.00
   0   8   6  312.54   16.18
   0  -8   6  324.06   14.37
   0  -8  -6  305.38   13.65
   0   8  -6  306.33   14.07
   0  -8   6  327.38   15.53
   0  -8  -6  303.49   15.69
  -1  -8  -6  643.54   21.52
  -1   8   6  627.72   23.18
   1  -8   6  662.62   23.88
   1   8   6  623.97   21.54
  -1  -8   6  624.42   23.97
   1   8   6  611.19   24.71
  -1  -8   6  618.64   21.61
   1  -8  -6  602.85   24.59
  -1   8  -6  584.21   23.48
  -2   8   6  149.94   10.26
   2  -8   6  151.23   10.48
  -2  -8  -6  167.53    8.32
   2   8   6  158.81   11.00
  -2  -8   6  157.68    8.27
  -2  -8   6  166.71   10.58
   2   8   6  161.22    8.45
  -2   8  -6  164.37   10.54
  -2  -8   6  156.14    8.16
   2  -8  -6  145.22   10.75
  -3  -8  -6   15.86    2.88
  -3   8   6   10.28    3.86
  -3  -8  -6   18.72    3.03
   3  -8   6   15.95    4.49
  -3  -8   6    7.37    3.58
   3   8   6   14.03    4.05
   3  -8  -6    8.58    3.86
  -3  -8   6   17.34    2.78
  -3   8  -6   10.37    3.75
  -3  -8   6   11.64    2.52
  -4   8   6  898.34   33.04
   4  -8   6  904.53   33.83
  -4  -8  -6  847.04   25.83
  -4  -8  -6  883.22   25.91
   4   8   6  871.54   32.62
   4  -8  -6  892.84   33.30
  -4  -8   6  871.14   24.29
  -4  -8   6  872.63   31.67
  -4   8  -6  871.80   31.91
  -5   8   6   39.52    7.16
  -5  -8  -6   31.06    3.20
   5  -8   6   30.97    6.56
  -5  -8  -6   35.77    3.18
  -5  -8   6   36.01    6.76
  -5   8  -6   43.13    6.98
   5   8   6   32.67    6.69
   6  -8   6   26.09    6.80
  -6   8   6   12.48    4.49
  -6  -8  -6   12.05    1.77
   6  -8  -6   19.43    5.76
  -6   8  -6   21.49    5.68
  -6  -8   6   10.90    5.06
   6   8   6   11.56    5.03
   0  -9   6   12.91    3.46
   0   9   6   13.60    3.61
   0  -9  -6    9.72    4.15
   0  -9   6    5.07    2.72
   1  -9   6  472.49   20.65
  -1   9   6  474.36   20.29
  -1   9  -6  507.26   21.65
  -1  -9   6  497.76   19.20
   1  -9  -6  496.99   22.18
   1   9   6  526.82   19.48
  -1  -9   6  515.99   21.73
   1   9   6  516.02   22.73
  -1  -9   6  501.37   19.57
  -2  -9  -6  144.81    8.22
  -2   9   6  124.14    9.81
   2  -9   6  130.87   10.20
   2   9   6  131.68   10.41
  -2  -9   6  133.02    8.03
   2  -9  -6  136.92   10.88
  -2  -9   6  136.60   10.30
  -2   9  -6  141.33   10.22
  -3   9   6  338.48   17.44
   3  -9   6  306.64   16.96
  -3  -9  -6  330.51   13.49
  -3  -9  -6  297.17   14.43
  -3  -9   6  336.34   13.07
   3   9   6  317.41   17.40
  -3   9  -6  357.32   17.77
  -3  -9   6  313.19   12.73
   3  -9  -6  354.27   18.53
  -3  -9   6  362.83   17.57
  -4  -9  -6  145.23    7.83
  -4   9   6  154.44   11.93
  -4  -9  -6  154.76    7.86
   4  -9   6  154.94   12.27
   4   9   6  156.87   11.93
  -4  -9   6  162.87   11.55
  -4  -9   6  146.80    6.88
  -4  -9   6  160.73    7.10
   4  -9  -6  131.24   13.24
  -5  -9  -6   49.23    4.05
  -5   9   6   59.81    9.02
   5  -9   6   60.14    9.34
  -5  -9  -6   52.36    4.53
  -5   9  -6   50.34    8.04
   5  -9  -6   51.86    8.56
  -5  -9   6   54.21    8.04
   0  10   6   73.41    7.20
   0 -10   6   83.31    8.48
   0 -10   6   55.60    6.36
   0 -10  -6   77.84    8.50
  -1  10   6   71.26    7.24
  -1 -10  -6   90.59    9.24
   1 -10   6  111.49    9.60
   1 -10   6   85.37    8.37
  -1 -10   6  104.85    9.34
  -1 -10   6  101.38    7.97
  -1  10  -6   80.79    8.62
   1  10   6   96.64    7.81
   1 -10  -6   88.82    9.38
   2 -10   6   24.05    5.85
  -2  10   6   40.14    6.77
   2 -10  -6   36.21    6.90
   2  10   6   36.20    5.29
   2  10   6   27.27    6.05
  -2 -10   6   26.44    4.59
  -2  10  -6   35.22    6.56
  -2 -10   6   29.02    4.73
  -2 -10   6   26.30    5.70
  -3 -10  -6  195.71   10.16
   3 -10   6  187.62   13.32
  -3  10   6  195.54   13.21
  -3 -10   6  154.42   13.84
  -3  10  -6  189.57   13.03
   3 -10  -6  170.88   13.33
  -3 -10   6  169.91    9.22
   3  10   6  172.56   12.82
  -3 -10   6  156.85   10.06
   4 -10   6   69.33    9.82
  -4  10   6   81.94    8.83
  -4 -10  -6   70.46    5.50
   4 -10  -6   67.89    9.80
   4  10   6   62.41    9.17
  -4 -10   6   67.01    5.09
  -4 -10   6   77.64    8.58
  -4  10  -6   76.28    8.29
  -4 -10   6   69.01    4.92
   5 -10   6  124.13   11.76
  -5  10   6  142.29   12.48
  -5 -10  -6  128.08    7.47
   5 -10  -6  125.45   11.94
  -5  10  -6  127.15   11.29
  -5 -10   6  141.94   11.81
   5  10   6  144.48   12.14
   0 -11   6  107.32    9.16
   0 -11   6  111.88    9.85
   0 -11  -6   90.95    9.80
   0  11   6   97.52    8.43
   1 -11   6   10.66    4.41
   1 -11   6    8.99    4.22
  -1  11   6   12.56    4.08
  -1 -11  -6    7.68    3.50
   1 -11  -6   14.23    4.56
  -1 -11   6    6.25    3.16
  -1 -11   6    6.80    4.04
  -1  11  -6   10.47    4.64
   1  11   6    7.50    3.53
  -2  11   6   30.71    6.53
   2 -11   6   25.08    5.77
  -2 -11  -6   33.04    7.09
  -2 -11  -6   32.38    5.75
  -2 -11   6   45.65    7.60
  -2  11  -6   28.92    6.73
  -2 -11   6   42.75    6.10
   2 -11  -6   27.71    6.92
   2  11   6   40.96    6.07
  -3  11   6   14.42    4.20
   3 -11   6    8.72    4.24
  -3 -11  -6    6.45    2.93
  -3 -11   6    6.15    2.86
  -3  11  -6    6.84    4.08
   3 -11  -6    8.81    4.02
  -3 -11   6    0.52    3.57
   3  11   6    7.90    4.56
  -4 -11  -6   -4.18    1.91
   4 -11   6    3.61    3.30
  -4  11   6    5.74    3.33
  -4 -11   6    0.66    2.04
   4  11   6    1.51    3.57
   4 -11  -6   -4.26    3.76
  -4 -11   6    0.51    3.39
  -4  11  -6    0.91    3.50
   0 -12   6  198.87   13.95
   0 -12   6  198.25   12.97
   0 -12  -6  176.77   13.71
   0  12   6  155.97   13.61
   1 -12   6  224.49   15.41
  -1  12   6  217.81   14.19
  -1 -12  -6  216.04   15.10
   1 -12   6  250.88   15.38
  -1 -12   6  211.53   14.54
   1 -12  -6  229.26   15.81
   1  12   6  211.23   13.19
  -1 -12   6  219.11   13.36
  -2 -12  -6    3.41    2.81
  -2 -12  -6   -1.88    3.00
  -2  12   6    3.09    2.84
   2 -12   6    0.65    3.62
   2 -12  -6    8.81    4.28
  -2 -12   6    3.46    3.28
  -2  12  -6   10.90    4.60
  -2 -12   6   -1.41    2.36
  -3 -12  -6   11.50    3.72
  -3 -12  -6    8.23    4.39
   3 -12   6   19.75    5.57
  -3  12   6    4.58    4.75
  -3 -12   6   10.63    5.13
  -3  12  -6   16.42    5.60
  -3 -12   6   12.13    3.97
   3 -12  -6   15.83    5.78
   0 -13  -6   -3.44    3.05
   0 -13   6    1.16    2.81
   0  13   6   -0.38    3.26
   0 -13   6   -1.12    2.82
  -1  13   6   88.23    9.57
  -1 -13  -6   70.83   10.29
   1 -13   6   84.17    9.57
   1 -13   6   65.30    9.88
  -1 -13   6   87.72    9.98
   1  13   6   76.32    8.06
   1 -13  -6   70.54   10.83
   0   0   7   10.15    2.21
   0   0  -7    6.78    1.89
   0   0   7    8.74    1.97
   0   0  -7    6.03    1.83
  -1   0   7 1942.32   53.26
   1   0   7 1955.86   51.23
  -1   0  -7 1968.73   51.36
  -1   0   7 1954.38   52.09
   1   0  -7 1969.27   51.95
   1   0   7 2000.43   54.00
   1   0  -7 2007.98   53.28
  -1   0  -7 2035.89   53.94
  -2   0   7   42.90    3.05
   2   0   7   46.07    2.59
   2   0  -7   41.30    2.92
   2   0   7   44.99    4.37
   2   0  -7   40.54    3.91
  -2   0  -7   43.50    4.41
  -2   0   7   40.50    4.38
   3   0   7  528.10   15.36
   3   0  -7  547.40   15.74
   3   0  -7  524.81   19.19
  -3   0  -7  527.98   19.54
  -3   0   7  526.84   19.36
   3   0  -7  534.61   15.73
   3   0   7  535.49   14.83
   3   0   7  524.22   19.65
   4   0   7   78.22    3.75
  -4   0   7   82.39    6.76
  -4   0  -7   78.00    3.73
   4   0  -7   86.08    4.28
   4   0   7   89.06    7.45
   5   0   7  564.15   16.70
   5   0  -7  546.95   17.24
   5   0  -7  569.34   17.16
  -5   0   7  553.73   22.23
  -5   0  -7  570.69   16.71
   5   0   7  561.77   22.84
   6   0   7   14.88    2.54
   6   0   7   10.98    4.20
   6   0  -7   14.75    2.64
  -6   0  -7   15.89    2.49
  -6   0   7   11.57    4.58
   6   0  -7   12.83    2.37
  -7   0   7   13.25    5.15
   7   0   7    3.33    2.62
   7   0  -7   11.73    2.90
   7   0  -7   10.86    2.49
   7   0   7   11.63    4.68
  -7   0  -7    9.48    2.27
   0   1   7   61.27    3.94
   0   1  -7   63.37    4.24
   0   1   7   57.74    4.49
   0  -1   7   58.18    4.09
   0  -1  -7   58.48    4.35
   0  -1   7   61.85    4.24
   0   1  -7   60.80    4.09
   0  -1  -7   63.34    3.99
  -1  -1  -7 2944.30   75.67
   1   1  -7 2928.65   75.19
   1  -1   7 2735.92   75.08
  -1   1   7 2834.97   74.74
   1  -1  -7 2869.15   74.71
   1  -1  -7 2921.73   74.23
  -1   1  -7 2720.30   75.03
   2  -1   7  105.00    4.93
  -2   1   7  111.57    5.65
  -2   1   7  115.63    6.73
   2   1  -7  104.43    4.12
   2  -1   7  104.92    4.93
   2  -1   7   98.10    6.65
   2   1  -7  116.23    6.77
  -2  -1  -7  111.31    6.71
   2  -1  -7   94.44    6.11
  -2  -1   7  102.02    4.20
  -2  -1   7   99.65    6.40
   2   1   7  102.66    3.32
   2  -1  -7   98.78    5.25
   2   1   7   98.28    3.28
  -2   1  -7   99.13    6.59
   2   1   7  104.22    6.88
  -3  -1  -7   40.92    4.78
   3  -1   7   51.33    3.35
   3   1  -7   48.40    4.66
   3  -1   7   47.53    5.21
   3   1  -7   55.64    2.29
  -3   1   7   49.45    4.89
   3   1  -7   52.63    2.23
  -3  -1   7   57.82    5.21
   3   1   7   75.77    6.26
  -3   1  -7   68.90    3.75
   3  -1  -7   63.43    5.34
  -3   1  -7   64.45    5.71
   3  -1  -7   61.48    4.05
   3  -1  -7   63.87    4.14
   4   1  -7  254.26    6.92
   4   1  -7  249.71    6.89
  -4   1   7  235.69   12.39
   4  -1   7  246.61   12.62
   4  -1   7  251.70    9.11
   4  -1  -7  234.74    9.57
  -4   1  -7  247.02    9.09
  -4  -1   7  251.07   12.59
   4   1   7  207.77   11.98
   4  -1  -7  233.64    9.63
  -5  -1  -7   84.24    3.22
   5   1  -7   76.76    3.28
   5  -1   7   85.84    5.07
   5   1  -7   83.59    3.34
  -5   1   7   93.47    7.77
   5  -1   7   76.12    7.71
   5  -1  -7   79.45    5.30
   5  -1  -7   81.35    5.37
  -5  -1   7   86.17    8.00
   5   1   7   76.18    7.63
   5   1   7   81.26    3.21
  -5   1  -7   89.41    5.17
  -6   1   7   27.51    5.82
  -6  -1  -7   29.53    2.43
   6   1  -7   24.87    2.07
   6  -1   7   20.93    3.32
   6  -1   7   18.54    5.17
  -6  -1   7   25.57    5.65
   6   1   7   28.31    2.34
  -6   1  -7   36.93    3.67
   6  -1  -7   30.15    4.09
   6  -1  -7   29.27    3.94
   6   1   7   32.91    6.29
  -7  -1  -7  129.27    5.59
  -7   1   7  132.81   10.77
   7  -1   7  121.55    7.61
   7  -1   7  143.34   11.72
   7   1  -7  154.68    7.54
   7  -1  -7  131.60    7.81
   7   1   7  138.35   11.55
  -7  -1   7  117.12   10.49
  -7   1  -7  140.27    7.53
   7  -1  -7  131.58    8.31
   0   2  -7  427.05   14.05
   0  -2  -7  403.95   13.45
   0  -2   7  429.74   14.07
   0   2  -7  432.04   14.63
   0   2   7  429.97   13.70
   0   2   7  403.78   15.04
   0  -2   7  432.16   14.62
   0  -2  -7  416.82   14.94
  -1   2   7 1498.19   41.54
   1  -2   7 1426.53   41.70
   1  -2   7 1506.92   40.88
  -1   2   7 1527.41   41.92
   1   2  -7 1513.52   42.09
  -1  -2  -7 1531.56   38.84
   1  -2   7 1499.05   40.86
  -1  -2  -7 1484.22   42.37
   1   2  -7 1374.78   39.21
   1  -2  -7 1496.17   41.51
  -1  -2   7 1421.63   41.70
   1   2   7 1560.57   43.00
  -1   2  -7 1524.98   42.04
   1   2   7 1531.56   38.91
   1  -2  -7 1508.88   41.37
  -1  -2   7 1479.84   39.39
  -2   2   7  262.01   10.73
   2  -2   7  277.82   10.07
  -2   2   7  267.05   11.37
  -2  -2  -7  244.14   11.37
   2  -2   7  256.40    9.70
   2  -2   7  265.83   11.72
   2   2  -7  247.77    7.39
   2   2  -7  259.46   11.39
  -2  -2   7  258.62    7.48
  -2   2  -7  278.40   11.86
   2  -2  -7  267.23   11.22
   2   2   7  250.58   11.63
   2  -2  -7  262.59   10.51
   2  -2  -7  269.47   10.57
  -2  -2   7  246.86   11.16
   3  -2   7  521.92   16.36
  -3   2   7  502.02   21.14
   3   2  -7  505.31   18.80
  -3  -2  -7  472.20   18.65
   3  -2   7  493.49   21.42
  -3   2  -7  522.09   16.43
   3  -2  -7  512.02   17.23
   3  -2  -7  518.11   18.85
   3  -2  -7  490.18   16.99
   3   2   7  520.66   21.79
  -3   2  -7  496.47   19.03
  -3  -2   7  524.00   21.40
   4  -2   7  366.23   16.74
   4  -2   7  377.19   13.56
  -4   2   7  390.10   16.81
  -4   2  -7  390.67   13.72
   4  -2  -7  391.94   14.53
   4  -2  -7  388.88   14.56
  -4  -2   7  398.54   16.77
   4   2   7  392.92   17.17
   5  -2   7  113.81    6.61
  -5   2   7  131.87    9.75
   5  -2   7  126.38    9.44
  -5  -2   7  137.81    9.42
  -5   2  -7  135.44    7.16
   5   2   7  111.95    8.90
   5  -2  -7  129.08    7.60
   5  -2  -7  124.15    7.46
   6  -2   7  159.96    9.36
   6  -2   7  182.64   12.50
  -6   2   7  151.58   11.43
  -6  -2   7  177.68   12.07
   6  -2  -7  193.32    9.88
   6   2   7  188.90   12.37
  -6   2  -7  173.46    8.89
   6  -2  -7  181.38    9.96
   7  -2   7   58.25    6.27
  -7   2   7   56.58    8.53
   7  -2   7   76.26    8.49
   7  -2  -7   64.94    6.09
  -7   2  -7   61.86    5.60
   7   2   7   61.55   10.63
   7  -2  -7   56.55    6.65
  -7  -2   7   69.52    9.25
   0  -3  -7  423.05   15.33
   0   3   7  413.73   15.46
   0   3   7  400.57   13.58
   0  -3   7  417.76   14.80
   0  -3   7  399.09   14.70
   0  -3   7  384.34   13.74
   0  -3  -7  397.18   13.46
   0   3  -7  431.44   14.15
  -1  -3  -7  366.34   11.29
  -1   3   7  369.97   13.57
   1  -3   7  361.00   13.81
   1  -3   7  358.60   13.23
   1   3  -7  355.55   11.75
  -1  -3  -7  364.32   14.32
  -1   3   7  369.10   14.26
   1   3  -7  358.14   13.99
   1  -3   7  378.26   13.58
   1   3   7  373.45   14.79
  -1   3  -7  353.03   13.70
   1  -3  -7  354.80   13.83
  -1  -3   7  368.13   14.14
   1  -3  -7  382.56   13.59
  -1  -3   7  359.16   11.58
   1   3   7  378.96   11.43
   2  -3   7  275.95   10.39
  -2   3   7  275.62   11.55
  -2  -3  -7  246.67   13.10
   2   3  -7  267.97    7.05
   2  -3   7  264.63   11.77
   2   3  -7  267.65   11.73
  -2  -3   7  233.27   10.99
   2  -3  -7  234.21   10.65
  -2   3  -7  244.99   11.48
  -2  -3   7  233.59    6.92
  -2   3  -7  227.56    9.89
   2  -3  -7  231.45   10.87
   2   3   7  213.71   11.24
   2  -3  -7  231.09   10.57
  -3   3   7  137.47    8.81
   3  -3   7  145.38    9.17
   3   3  -7  147.92    8.79
  -3  -3  -7  141.72    8.72
   3  -3   7  150.88    7.44
  -3   3  -7  136.56    7.25
   3   3   7  131.38    8.65
   3  -3  -7  138.82    7.87
   3  -3  -7  134.92    7.70
  -3  -3   7  146.25    8.90
   3  -3  -7  138.80    8.61
  -3   3  -7  148.39    8.96
   4  -3   7   15.87    3.87
   4  -3   7   18.07    3.21
  -4   3   7   17.74    4.23
   4  -3  -7   16.39    3.49
  -4   3  -7   15.60    3.07
  -4  -3   7   12.92    3.85
   4   3   7   18.61    4.25
   4  -3  -7   15.09    3.18
   5  -3   7   89.09    8.13
  -5   3   7   82.25    7.94
  -5   3  -7  100.46    6.68
   5   3   7   88.94    8.26
   5  -3  -7   82.50    6.68
   5  -3  -7   86.43    6.72
   6  -3   7  387.30   19.48
   6  -3   7  350.44   15.02
  -6   3   7  386.10   19.12
  -6  -3   7  367.26   18.14
   6  -3  -7  391.77   16.24
  -6   3  -7  394.99   15.65
   6   3   7  371.06   18.59
  -7   3   7  134.05   11.54
   7  -3   7  137.94   11.67
   7   3   7  132.69   11.25
   7  -3  -7  127.04    9.11
  -7  -3   7  135.99   11.15
   0  -4  -7  233.19    9.56
   0  -4   7  257.67   11.03
   0   4   7  257.60    9.96
   0  -4   7  251.69   11.10
   0   4  -7  229.21    9.91
   0  -4  -7  233.11   11.15
   0   4   7  251.35   11.74
   0  -4   7  268.00   10.34
  -1  -4  -7  126.50    5.73
   1  -4   7  136.14    7.66
  -1   4   7  123.41    7.91
   1  -4   7  138.29    7.75
  -1   4   7  130.02    7.23
   1   4  -7  143.77    6.28
   1  -4   7  136.54    7.49
   1   4   7  136.86    5.95
  -1  -4   7  140.75    6.12
   1  -4  -7  150.04    7.64
  -1  -4   7  135.93    7.84
   1  -4  -7  163.31    8.55
  -1   4  -7  145.01    7.85
   1   4   7  138.94    8.40
   2  -4   7  263.47   11.28
  -2   4   7  264.18   12.12
  -2  -4  -7  255.51    8.00
  -2  -4  -7  254.48   12.11
   2  -4   7  283.62   12.67
   2   4  -7  286.79   12.55
  -2  -4   7  257.00    7.98
  -2   4  -7  264.98   12.24
   2  -4  -7  284.44   12.20
  -2   4  -7  267.35   11.48
   2  -4  -7  259.67   11.89
   2  -4  -7  257.62   11.87
   2   4   7  271.75    8.14
   2   4   7  254.48   12.88
   3  -4   7  113.35    8.49
  -3   4   7  119.12    8.44
   3  -4   7  130.78    7.40
   3  -4  -7  149.43    8.62
  -3  -4   7  135.84    8.57
  -3   4  -7  141.24    7.97
   3  -4  -7  117.83    7.86
   3   4   7  126.69    8.88
   4  -4   7  807.52   26.41
   4  -4   7  779.90   29.26
  -4   4   7  806.03   29.02
   4  -4  -7  822.83   27.81
  -4   4  -7  841.10   26.86
   4   4   7  838.03   29.51
  -4  -4   7  867.90   29.22
  -5   4   7  114.76    9.23
   5  -4   7  121.11    9.91
   5  -4   7  101.82    7.08
  -5  -4   7   97.36    8.61
   5   4   7  113.98    9.40
   5  -4  -7  123.58    8.51
  -5   4  -7  116.21    7.85
  -6   4   7   24.27    5.82
   6   4   7   22.31    5.49
   6  -4  -7   23.46    4.97
  -6  -4   7   23.27    5.66
  -6   4  -7   28.81    4.67
  -7   4   7  421.86   21.59
   7  -4   7  431.16   22.40
   7   4   7  437.19   21.36
  -7  -4   7  433.60   20.94
   7  -4  -7  429.04   19.07
   0   5   7    6.79    2.20
   0  -5   7    9.81    2.51
   0  -5  -7    7.78    2.58
   0  -5   7    4.80    2.24
   0  -5  -7    8.23    2.16
   0   5  -7    8.78    2.30
   0  -5   7    4.30    1.82
   0   5   7    5.23    2.49
   1  -5   7  478.25   17.89
  -1  -5  -7  464.00   15.13
   1  -5   7  481.09   17.56
  -1  -5  -7  469.55   18.24
  -1   5   7  461.84   18.54
   1   5  -7  482.84   15.57
  -1   5   7  459.33   17.10
   1  -5   7  466.31   17.46
   1  -5  -7  478.03   18.31
  -1   5  -7  483.10   17.78
  -1  -5   7  498.71   15.54
   1   5   7  430.18   20.43
   1  -5  -7  459.31   16.96
  -1  -5   7  471.25   17.88
   1   5   7  463.49   15.18
  -2   5   7   77.02    6.37
   2  -5   7   74.62    5.71
   2   5  -7   69.97    6.87
  -2  -5  -7   69.03    5.20
  -2  -5  -7   62.35    5.79
   2  -5   7   68.54    6.31
   2   5   7   76.22    3.93
  -2  -5   7   82.93    3.88
  -2  -5   7   76.69    3.92
  -2   5  -7   81.39    6.26
  -2  -5   7   80.38    6.67
   2  -5  -7   69.01    6.12
   2  -5  -7   83.63    6.46
  -2   5  -7   65.71    6.03
   2   5   7   69.59    6.66
  -3  -5  -7  190.12    5.55
   3  -5   7  180.02    9.65
  -3   5   7  183.79   10.90
  -3  -5  -7  185.96    5.54
   3  -5   7  178.92   10.82
   3   5   7  185.73   11.26
   3  -5  -7  180.55   10.44
  -3   5  -7  194.10   11.86
  -3  -5   7  200.18   11.10
   3  -5  -7  186.88   10.70
  -4   5   7   36.25    5.65
   4  -5   7   38.52    6.44
   4   5   7   30.97    5.85
  -4  -5   7   34.83    5.67
  -4   5  -7   27.40    4.52
   4  -5  -7   30.12    5.19
   5  -5   7  240.51   14.64
  -5   5   7  250.78   14.60
  -5  -5   7  238.51   13.73
   5  -5  -7  235.85   13.04
   5   5   7  244.56   14.12
  -5   5  -7  238.90   12.33
  -6   5   7  164.87   12.48
   6  -5   7  186.78   13.49
  -6   5  -7  161.86   10.33
  -6  -5   7  157.64   11.26
   6   5   7  176.45   12.44
   6  -5  -7  156.62   10.89
  -7   5   7   51.57    8.43
   7  -5   7   53.87    8.86
   7   5   7   61.22    8.94
  -7   5  -7   72.08    7.46
   7  -5  -7   52.77    7.74
  -7  -5   7   57.66    8.20
   0   6  -7    2.87    1.79
   0  -6   7    2.59    2.20
   0  -6   7    1.48    2.06
   0   6   7    1.10    2.56
   0  -6   7    2.06    1.74
   0   6   7   -0.34    1.65
   0  -6  -7    1.12    1.45
   1  -6   7 1619.82   45.55
  -1  -6  -7 1511.77   42.37
   1  -6   7 1503.64   45.73
   1  -6   7 1482.53   45.21
  -1   6   7 1601.40   45.10
  -1   6   7 1509.00   46.85
   1   6  -7 1529.12   42.83
   1  -6  -7 1516.94   46.51
  -1  -6   7 1487.20   45.66
   1   6   7 1548.23   42.60
  -1   6  -7 1496.22   45.21
   1  -6  -7 1549.42   44.67
   1   6   7 1535.27   47.03
  -1  -6   7 1593.37   42.79
   2  -6   7  548.51   21.83
  -2   6   7  576.30   21.80
  -2  -6  -7  612.07   18.01
  -2  -6   7  574.15   17.96
   2  -6  -7  589.12   22.50
  -2  -6   7  584.72   22.15
  -2  -6   7  606.97   17.87
   2   6   7  604.37   18.10
   2   6   7  547.47   22.50
  -2   6  -7  601.49   21.86
  -3  -6  -7  373.15   11.61
  -3   6   7  382.34   17.18
  -3  -6  -7  372.65   11.63
   3  -6   7  351.18   16.86
   3  -6  -7  384.15   17.28
  -3  -6   7  393.05   17.12
  -3  -6   7  382.06   10.48
  -3   6  -7  373.43   16.31
   3   6   7  377.48   17.46
  -3  -6   7  369.14   10.39
  -4   6   7  122.33    9.89
   4  -6   7  140.16   10.37
   4  -6  -7  140.16   10.04
  -4  -6   7  146.02   10.24
   4   6   7  136.30   10.23
  -4   6  -7  143.79    9.53
   5  -6   7  238.36   14.58
  -5   6   7  224.65   13.92
   5  -6  -7  242.37   13.73
  -5   6  -7  209.53   12.50
   5   6   7  212.18   13.37
  -5  -6   7  229.09   13.73
   6  -6   7   19.12    5.89
  -6   6   7   31.17    6.67
  -6   6  -7   24.39    4.92
   6  -6  -7   24.72    5.26
  -6  -6   7   29.15    6.23
   6   6   7   34.74    6.77
   0  -7  -7   27.47    4.09
   0   7   7   21.54    3.93
   0   7   7   23.64    5.16
   0  -7   7   23.42    3.96
   0  -7   7   15.55    4.14
   0   7  -7   21.61    3.79
  -1   7   7   87.00    7.04
   1  -7   7   88.71    7.33
  -1  -7  -7   93.18    5.84
   1   7  -7   87.50    5.92
   1  -7   7   99.06    7.41
  -1   7  -7   88.64    7.22
   1   7   7   78.13    7.63
  -1  -7   7   91.64    6.10
   1  -7  -7   88.22    7.78
   1   7   7   95.35    6.19
  -1  -7   7   87.68    7.50
   1  -7  -7   96.14    8.03
  -1   7  -7   82.07    7.05
  -2   7   7    8.19    3.05
   2  -7   7    8.14    2.96
  -2  -7  -7    4.73    1.87
  -2   7  -7    7.12    3.05
  -2  -7   7    6.22    1.92
   2   7   7   10.92    3.68
   2  -7  -7    7.47    3.20
  -2  -7   7    9.62    2.22
   2   7   7    5.17    2.03
  -2  -7   7    5.02    3.16
   3  -7   7  258.46   14.27
  -3  -7  -7  264.70    9.53
  -3   7   7  263.32   14.00
  -3  -7  -7  266.65    9.47
  -3  -7   7  236.86    8.49
  -3  -7   7  233.10   13.29
   3  -7  -7  221.35   13.51
  -3   7  -7  263.50   13.46
   3   7   7  226.28   13.54
   4  -7   7   78.56    8.51
  -4  -7  -7   66.78    3.56
  -4   7   7   74.31    7.94
   4  -7  -7   70.38    7.70
   4   7   7   67.61    7.32
  -4  -7   7   65.92    6.88
  -4   7  -7   66.61    6.85
   5  -7   7  218.89   14.49
  -5   7   7  219.14   14.09
   5  -7  -7  204.54   13.55
   5   7   7  246.08   14.70
  -5  -7   7  225.12   13.62
  -5   7  -7  217.42   13.12
   6  -7   7   29.15    6.81
  -6   7   7   15.18    5.20
   6  -7  -7   20.36    6.17
   6   7   7   17.08    5.46
  -6  -7   7   19.86    5.93
  -6   7  -7   27.94    5.99
   0   8  -7   11.62    3.37
   0  -8   7   14.79    4.25
   0   8   7   14.78    4.31
   0  -8   7   14.97    3.46
   0   8   7   16.78    3.72
   0  -8  -7   19.65    3.76
   1  -8   7  336.61   15.38
  -1   8   7  318.45   14.89
   1  -8   7  315.01   15.70
  -1  -8  -7  294.36   12.94
  -1  -8   7  335.16   15.95
   1  -8  -7  315.85   16.12
  -1   8  -7  321.52   15.71
   1   8   7  318.66   16.58
   1   8   7  314.39   13.37
  -1  -8   7  319.91   13.46
  -2  -8  -7   24.99    3.71
   2  -8   7   25.54    5.35
  -2   8   7   20.08    4.73
   2   8   7   21.71    3.70
  -2  -8   7   17.90    4.32
  -2   8  -7   19.81    4.52
  -2  -8   7   21.74    3.37
   2  -8  -7   15.71    4.38
   2   8   7   23.71    5.38
  -2  -8   7   18.45    3.29
  -3  -8  -7  150.95    7.37
  -3   8   7  138.33   10.13
   3  -8   7  149.12   10.87
  -3  -8  -7  143.09    7.06
  -3   8  -7  144.84   10.16
   3  -8  -7  148.18   11.30
   3   8   7  136.53   10.83
  -3  -8   7  146.76   10.41
  -3  -8   7  143.78    6.69
  -3  -8   7  139.67    6.70
   4  -8   7  172.96   14.54
  -4  -8  -7  186.40    7.63
  -4  -8  -7  188.32    7.60
  -4   8  -7  210.09   12.83
  -4  -8   7  176.42   11.84
   4   8   7  176.90   12.35
   4  -8  -7  182.84   12.90
  -5  -8  -7   45.08    2.42
  -5   8   7   43.29    7.56
   5  -8   7   51.93    8.48
   5  -8  -7   47.01    7.90
   5   8   7   36.22    7.31
  -5   8  -7   39.88    6.63
  -5  -8   7   48.37    7.78
   6  -8   7   -1.84    3.27
  -6   8   7   -3.42    1.68
  -6   8  -7    0.85    3.27
   6   8   7   -1.33    3.26
  -6  -8   7   -3.04    3.76
   6  -8  -7    0.89    3.53
   0  -9   7  520.75   22.31
   0  -9   7  525.89   20.55
   0  -9  -7  501.61   22.53
   0   9   7  500.69   20.07
   1  -9   7  102.26    9.07
   1  -9   7  109.83    8.79
  -1   9   7  106.61    8.57
   1   9   7   92.81    7.20
   1   9   7   89.58    8.74
  -1  -9   7  117.24    7.89
   1  -9  -7  101.27    9.47
  -1  -9   7  105.04    7.65
  -1  -9   7  120.15    9.61
   2  -9   7  186.63   11.81
  -2  -9  -7  189.25    9.37
  -2   9   7  199.71   11.96
  -2  -9   7  154.54    9.96
   2   9   7  158.82    9.06
  -2  -9   7  156.43    8.83
   2   9   7  155.00   11.99
  -2   9  -7  171.28   11.90
   2  -9  -7  149.09   11.75
  -2  -9   7  154.66   11.01
  -3   9   7  375.74   18.56
   3  -9   7  361.53   18.79
  -3  -9  -7  360.11   13.85
  -3  -9  -7  376.82   14.30
  -3  -9   7  362.73   13.50
   3  -9  -7  379.66   19.40
  -3  -9   7  358.41   13.55
   3   9   7  336.04   18.62
  -3   9  -7  380.32   18.46
  -3  -9   7  388.33   18.75
  -4  -9  -7   83.51    5.20
   4  -9   7   85.27    9.02
  -4   9   7   94.31    9.42
  -4  -9  -7   80.38    5.37
  -4   9  -7   80.28   12.06
   4   9   7   92.29    9.69
  -4  -9   7   75.90    8.25
  -4  -9   7   83.37    4.12
   4  -9  -7   89.51    9.73
  -5  -9  -7   28.61    2.97
   5  -9   7   32.63    6.78
  -5   9   7   39.49    7.47
  -5   9  -7   39.89    7.19
  -5  -9   7   30.92    6.77
   5   9   7   41.35    7.23
   5  -9  -7   35.59    7.29
   0 -10   7  114.41    9.92
   0 -10   7   95.25    8.51
   0  10   7  117.73    8.79
   0 -10  -7   94.28    9.17
  -1 -10  -7  266.02   16.23
  -1  10   7  260.49   14.64
   1 -10   7  280.87   15.29
   1 -10   7  294.43   16.53
  -1 -10   7  275.21   15.84
   1  10   7  275.40   16.77
   1  10   7  296.22   14.03
  -1 -10   7  293.88   14.09
   1 -10  -7  311.68   17.27
   2 -10   7   86.86    8.79
  -2  10   7   69.38    7.46
   2 -10  -7   71.71    9.74
  -2 -10   7   82.63    6.76
  -2 -10   7   85.06    6.75
   2  10   7   80.36    9.02
   2  10   7   65.65    6.24
  -3  10   7  214.17   13.68
  -3 -10  -7  190.88    9.78
   3 -10   7  197.77   13.63
  -3 -10  -7  200.08   10.41
  -3 -10   7  189.56   13.28
  -3 -10   7  204.61    9.83
  -3  10  -7  191.75   13.54
   3 -10  -7  210.34   14.67
   3  10   7  191.46   14.51
  -3 -10   7  202.31   10.00
   4 -10   7  283.42   17.51
  -4  10   7  278.12   17.09
  -4 -10  -7  269.89   11.77
   4  10   7  304.32   18.00
  -4 -10   7  268.50   10.29
   4 -10  -7  292.30   18.02
  -4  10  -7  279.11   16.79
  -4 -10   7  309.15   17.28
  -4 -10   7  270.05   10.23
   0 -11   7   24.72    5.94
   0 -11  -7   33.83    7.13
   0 -11   7   26.97    5.34
   0  11   7   27.86    5.58
   1 -11   7  236.46   14.71
  -1  11   7  270.93   15.22
  -1 -11  -7  233.53   15.74
   1 -11   7  270.15   16.48
   1  11   7  264.57   13.81
   1 -11  -7  285.75   17.44
  -1 -11   7  271.16   14.16
  -1 -11   7  258.33   15.90
   2 -11   7   74.24    8.26
  -2 -11  -7   77.53    8.63
  -2  11   7   66.60    9.04
  -2 -11   7   76.00    6.98
  -2  11  -7   87.47    9.29
   2  11   7   78.68   10.89
   2  11   7   72.95    7.13
  -2 -11   7   90.52    9.02
   2 -11  -7   75.82   10.59
  -3 -11  -7   21.42    4.25
  -3  11   7   16.46    5.41
   3 -11   7   31.54    7.14
  -3 -11   7   19.29    4.00
  -3  11  -7   24.75    6.00
  -3 -11   7   19.64    5.89
   3  11   7   18.51    6.36
   3 -11  -7   17.04    5.80
  -3 -11   7   29.93    6.55
   4 -11   7   15.01    5.99
  -4 -11  -7   15.21    3.72
  -4  11   7   18.66    5.84
  -4 -11   7   19.29    6.34
  -4  11  -7   23.90    5.85
  -4 -11   7   12.14    2.86
   4  11   7   20.76    5.65
   4 -11  -7   17.11    5.97
   0 -12  -7    1.76    4.18
   0 -12   7    7.68    4.06
   0 -12   7    1.52    3.22
  -1  12   7   94.98    9.29
   1 -12   7   97.91    9.54
   1 -12   7  121.57   11.38
  -1 -12  -7   87.28   10.02
  -1 -12   7   98.92    9.01
   1 -12  -7   97.15   10.76
  -1 -12   7   94.64   10.26
   1  12   7   89.22    8.67
   2 -12   7   55.72    9.17
  -2 -12  -7   60.97    9.58
  -2  12   7   57.81    9.02
   2 -12   7   54.65    8.84
  -2  12  -7   57.58    8.87
   2 -12  -7   53.30    9.66
  -2 -12   7   56.09    6.55
  -2 -12   7   50.66    8.65
   0   0   8  178.05    8.28
   0   0  -8  189.93    7.90
   0   0   8  188.42    7.94
   0   0  -8  175.30    8.07
   1   0   8   90.54    6.11
  -1   0   8   87.21    5.06
   1   0   8   87.17    4.53
   1   0  -8   91.23    4.97
  -1   0  -8   87.49    5.86
  -1   0   8   86.40    5.52
  -1   0  -8   88.84    4.57
   1   0  -8   73.03    5.05
  -2   0   8    8.47    2.81
   2   0   8    5.64    1.30
   2   0  -8    8.12    1.68
  -2   0  -8    6.29    2.40
  -2   0   8    7.71    1.68
   2   0   8    6.65    2.32
   2   0  -8    8.04    2.32
   2   0   8    7.38    1.45
  -3   0   8   83.67    6.54
   3   0   8   91.47    3.79
   3   0  -8   91.29    6.83
   3   0  -8   99.38    4.70
   3   0  -8   83.11    4.79
   3   0   8   94.78    7.13
  -3   0  -8  101.16    7.32
  -4   0   8   15.13    4.16
   4   0   8   19.71    1.78
   4   0  -8   17.80    2.28
   4   0   8   18.61    4.58
   5   0  -8  436.31   13.48
   5   0   8  403.00   19.12
   5   0   8  412.59   12.63
  -5   0   8  413.39   18.91
  -5   0  -8  424.47   12.70
   5   0  -8  461.16   14.61
   6   0  -8   18.83    2.63
  -6   0  -8   24.48    2.31
  -6   0   8   16.03    4.93
   6   0   8   19.56    5.03
   6   0  -8   20.65    2.48
   7   0   8  101.51    9.70
   7   0   8   97.64    5.26
  -7   0  -8  111.65    5.18
   7   0  -8  107.31    5.75
  -7   0   8   92.52    9.72
   7   0  -8  100.48    5.29
   0   1   8  129.83    6.30
   0  -1   8  131.22    6.70
   0  -1  -8  133.39    6.26
   0   1  -8  127.94    6.60
   0  -1   8  141.78    6.84
   0  -1  -8  138.36    7.11
   0   1   8  138.68    7.35
   0   1  -8  134.93    6.69
  -1   1   8  187.33    8.72
  -1  -1  -8  196.84    7.15
   1   1  -8  194.99    8.94
   1  -1   8  193.96    7.86
  -1  -1  -8  184.60    9.08
   1  -1   8  194.11    9.20
   1   1  -8  192.90    7.55
   1  -1   8  203.18    7.88
  -1   1   8  189.46    8.44
  -1  -1   8  188.31    7.60
  -1  -1   8  167.43    8.60
  -1   1  -8  184.54    8.91
   1  -1  -8  178.95    8.44
   1  -1  -8  181.60    8.15
   1   1   8  188.29    6.98
   1   1   8  178.45    9.21
  -2   1   8  774.77   22.90
   2   1  -8  747.20   20.79
   2   1  -8  764.25   26.44
   2  -1   8  710.15   24.62
   2  -1   8  740.36   21.63
   2  -1   8  741.39   21.65
  -2   1   8  767.31   24.64
   2   1   8  761.92   19.84
  -2  -1   8  748.50   21.00
   2   1   8  713.62   24.86
   2  -1  -8  752.11   24.29
  -2  -1   8  744.93   24.58
   2  -1  -8  819.95   22.82
   2   1   8  753.99   19.86
  -2   1  -8  739.70   24.96
   3   1  -8  800.84   26.77
  -3   1   8  837.02   27.28
   3  -1   8  794.64   22.82
   3  -1   8  809.59   27.40
   3  -1   8  812.33   22.98
  -3  -1  -8  766.11   26.96
   3   1  -8  791.22   21.24
   3   1  -8  792.12   21.14
   3  -1  -8  829.72   24.08
  -3  -1   8  839.23   27.18
  -3   1  -8  801.07   27.31
   3  -1  -8  814.76   26.86
   3  -1  -8  830.06   23.95
   3   1   8  771.21   27.19
  -4   1   8  269.63   13.82
   4  -1   8  289.16    9.94
   4  -1   8  295.60   14.35
   4  -1  -8  274.82   10.66
   4  -1  -8  282.47   10.73
   4   1   8  263.88   13.91
  -4   1  -8  275.08    9.88
  -4  -1   8  284.88   14.04
   5  -1   8  171.65   11.41
   5  -1   8  164.64    7.12
  -5   1   8  159.85   10.62
   5   1   8  150.75   10.85
  -5  -1   8  160.10   10.69
   5  -1  -8  149.79    7.57
   5  -1  -8  161.21    7.64
  -5   1  -8  154.74    6.99
   6  -1   8   14.41    4.89
   6  -1   8   10.33    2.57
  -6   1   8   16.60    5.04
  -6  -1   8   10.21    4.14
  -6   1  -8   14.25    2.55
   6   1   8   13.62    4.44
   6  -1  -8    9.77    2.75
   6  -1  -8   12.80    2.87
   7  -1   8   10.75    3.29
   7  -1   8   16.98    4.94
  -7   1   8    9.14    4.44
  -7  -1   8   11.41    4.53
  -7   1  -8   18.92    3.05
   7  -1  -8   11.30    3.48
   7  -1  -8   12.14    3.09
   7   1   8   20.58    5.73
   0   2  -8  645.08   20.24
   0   2   8  652.34   19.84
   0   2  -8  651.30   20.85
   0   2   8  625.05   21.41
   0  -2  -8  657.00   19.72
   0  -2   8  663.66   20.33
   0  -2  -8  645.50   21.28
   0  -2   8  662.84   20.85
  -1   2   8 1047.79   31.11
   1  -2   8 1044.70   30.37
   1  -2   8 1135.94   31.91
  -1   2   8 1057.80   31.45
   1  -2   8 1059.32   30.41
  -1  -2  -8 1044.82   28.45
  -1  -2  -8 1025.04   31.89
   1   2  -8 1071.50   29.25
   1   2  -8 1070.94   31.73
   1  -2  -8 1060.72   31.03
   1  -2  -8  994.59   30.89
  -1   2  -8 1081.72   31.68
   1   2   8 1084.70   28.66
   1   2   8 1025.55   32.31
  -1  -2   8 1040.80   31.50
  -1  -2   8 1070.78   29.23
  -2  -2  -8  480.68   17.86
  -2   2   8  475.80   16.59
   2  -2   8  481.72   15.53
   2  -2   8  458.91   17.50
   2  -2   8  481.50   15.61
  -2   2   8  441.68   17.03
   2   2  -8  484.22   13.24
   2   2  -8  437.39   17.08
  -2  -2   8  459.96   13.25
  -2  -2   8  470.03   17.47
   2   2   8  462.89   17.95
  -2   2  -8  468.84   19.70
   2  -2  -8  478.03   18.92
   2  -2  -8  477.42   16.29
   3  -2   8  334.48   14.75
   3  -2   8  312.16   11.56
  -3   2   8  314.28   13.97
  -3  -2  -8  302.72   13.98
   3  -2   8  327.14   11.51
   3   2  -8  306.55   15.53
   3  -2  -8  316.40   14.15
   3  -2  -8  317.66   12.33
   3  -2  -8  308.02   12.29
  -3  -2   8  304.10   14.02
  -3   2  -8  322.39   11.58
  -3   2  -8  297.74   14.21
   3   2   8  306.46   14.48
   4  -2   8  108.87    8.53
   4  -2   8  101.53    5.72
  -4   2   8   97.07    7.82
  -4   2  -8  104.83    5.81
  -4  -2   8   86.29    7.73
   4   2   8   98.72    8.31
   4  -2  -8  109.77    6.60
   4  -2  -8   95.15    6.19
  -5   2   8    0.04    2.41
   5  -2   8    1.73    1.73
   5  -2   8    3.23    2.60
   5   2   8    2.58    2.17
   5  -2  -8    1.24    2.03
  -5  -2   8    1.11    3.21
   5  -2  -8    1.32    1.86
  -5   2  -8    1.44    1.54
   6  -2   8  409.92   15.53
   6  -2   8  421.52   20.56
  -6   2   8  446.93   20.84
   6   2   8  462.70   21.19
  -6  -2   8  457.12   20.81
  -6   2  -8  421.69   15.66
   7  -2   8   25.14    4.91
   7  -2   8   20.52    5.65
  -7   2   8   37.21    7.62
   7   2   8   37.77    7.28
  -7   2  -8   36.46    4.65
  -7  -2   8   26.87    6.58
   7  -2  -8   33.16    5.53
   0   3   8 1234.58   37.70
   0  -3   8 1241.72   35.76
   0   3   8 1243.01   35.32
   0   3  -8 1256.58   36.95
   0  -3  -8 1258.83   37.39
   0  -3   8 1279.44   36.84
   0  -3   8 1269.45   36.87
   0   3  -8 1330.24   36.13
   0  -3  -8 1299.84   35.33
   1  -3   8  260.19   10.93
  -1   3   8  263.79   11.18
  -1  -3  -8  256.98   13.08
   1   3  -8  269.52    9.65
  -1   3   8  275.67   12.03
   1   3  -8  271.37   11.82
   1  -3   8  272.35   11.52
   1  -3   8  285.28   11.30
   1   3   8  274.72   12.57
  -1  -3   8  276.18    9.62
  -1  -3   8  267.08   11.65
   1   3   8  261.50    9.15
   1  -3  -8  268.55   11.62
  -1   3  -8  284.13   11.74
   1  -3  -8  268.26   11.01
   2  -3   8  900.86   27.05
  -2  -3  -8  874.42   22.60
  -2   3   8  908.17   28.40
   2   3  -8  898.80   23.54
  -2  -3  -8  889.09   29.16
   2  -3   8  868.02   28.84
   2  -3   8  896.42   27.24
  -2   3   8  862.20   28.38
   2   3  -8  864.53   28.64
  -2   3  -8  896.96   29.01
  -2  -3   8  925.69   31.35
   2  -3  -8  876.30   28.24
   2  -3  -8  909.63   28.00
  -2  -3   8  884.37   23.50
   2  -3  -8  980.90   28.56
  -3   3   8   37.41    5.25
   3  -3   8   42.22    3.96
   3  -3   8   39.05    5.64
   3  -3  -8   45.67    4.41
   3   3   8   46.58    6.39
  -3  -3   8   49.07    5.54
  -3   3  -8   47.34    4.27
   3  -3  -8   38.95    4.32
   4  -3   8 1859.77   56.72
   4  -3   8 1876.34   52.38
  -4   3   8 1833.13   56.17
   4   3   8 1892.15   56.84
  -4  -3   8 1891.87   56.09
   4  -3  -8 1945.14   53.93
   4  -3  -8 1969.70   54.05
  -4   3  -8 1935.04   52.73
  -5   3   8    1.90    3.12
   5  -3   8    2.52    2.23
   5  -3  -8   12.51    3.33
  -5  -3   8    4.95    3.55
   5  -3  -8    4.84    2.70
   5   3   8    1.71    2.48
  -5   3  -8    6.35    2.58
   6  -3   8   40.63    5.39
  -6   3   8   43.65    7.58
   6  -3  -8   49.46    5.62
  -6   3  -8   40.04    5.91
  -6  -3   8   44.85    7.36
   6  -3  -8   42.73    6.70
   6   3   8   57.90    8.20
   7  -3   8   39.13    7.59
  -7   3   8   55.73    8.78
  -7   3  -8   32.37    4.87
   7  -3  -8   38.72    5.55
  -7  -3   8   28.55    6.39
   7   3   8   33.93    6.63
   0   4   8   41.86    3.70
   0  -4   8   39.91    3.76
   0   4  -8   38.01    3.79
   0  -4   8   39.25    4.32
   0  -4  -8   33.33    3.93
   0  -4  -8   37.89    3.43
   0   4   8   44.60    4.98
  -1   4   8  331.45   14.32
  -1  -4  -8  320.18   11.07
   1   4  -8  337.34   11.70
   1  -4   8  340.27   13.43
  -1  -4  -8  340.99   14.46
  -1   4   8  338.73   13.40
   1  -4   8  318.55   13.38
   1   4  -8  340.52   14.17
   1  -4   8  345.77   13.80
  -1   4  -8  327.28   13.57
  -1  -4   8  331.24   11.47
   1  -4  -8  344.17   13.27
   1   4   8  314.50   14.52
   1   4   8  333.05   11.22
  -1  -4   8  335.72   14.08
   2  -4   8 1489.18   42.48
   2   4  -8 1500.61   38.37
   2   4  -8 1482.05   44.25
  -2  -4  -8 1474.08   37.96
   2  -4   8 1507.17   47.44
   2  -4   8 1459.35   42.76
  -2  -4  -8 1437.44   44.23
   2   4   8 1458.02   44.95
  -2   4  -8 1454.67   44.15
  -2  -4   8 1452.37   43.89
   2   4   8 1503.35   38.05
   2  -4  -8 1506.07   43.55
   2  -4  -8 1427.04   45.93
  -2  -4   8 1516.42   38.36
   2  -4  -8 1536.75   44.01
  -3   4   8   48.69    5.42
   3  -4   8   50.32    4.65
   3  -4   8   41.36    5.89
   3   4   8   39.60    5.97
  -3  -4   8   35.48    5.48
   3  -4  -8   45.07    5.13
   3  -4  -8   42.50    4.88
  -3   4  -8   49.25    4.72
   4  -4   8  493.37   21.10
   4  -4   8  498.78   18.04
  -4   4   8  475.87   20.48
   4  -4  -8  487.67   19.12
  -4  -4   8  473.50   20.07
  -4   4  -8  479.80   18.10
   4  -4  -8  520.56   19.52
   4   4   8  472.96   20.76
   5  -4   8  196.47   12.97
  -5   4   8  198.47   12.55
   5  -4   8  178.51    9.82
  -5   4  -8  196.75   10.36
  -5  -4   8  184.82   11.81
   5  -4  -8  187.08   10.77
   5   4   8  186.19   12.31
  -6   4   8   94.37    9.53
   6  -4   8   80.70    9.25
   6   4   8   81.94    8.74
   6  -4  -8   73.10    7.12
  -6   4  -8   68.30    6.42
  -7   4   8  133.64   11.75
   7  -4   8  147.20   12.83
   7   4   8  152.58   12.30
   7  -4  -8  154.30   10.55
  -7   4  -8  151.63    9.67
  -7  -4   8  160.55   12.48
   0  -5   8   35.73    5.10
   0  -5  -8   27.88    4.50
   0  -5   8   31.51    4.54
   0  -5  -8   29.31    3.38
   0   5   8   31.86    5.14
   0  -5   8   29.03    3.90
   0   5  -8   35.67    3.81
   0   5   8   26.77    3.66
   1  -5   8  182.68    9.47
  -1  -5  -8  161.23    9.74
  -1  -5  -8  157.67    7.10
   1  -5   8  165.21    8.97
   1   5  -8  164.85    7.52
   1  -5   8  159.67   10.54
  -1   5   8  150.02    9.60
  -1   5   8  158.08    8.73
   1   5   8  161.06    9.91
  -1  -5   8  162.12    9.35
  -1  -5   8  161.77    7.38
   1  -5  -8  168.25    9.58
   1   5   8  156.24    7.18
  -1  -5   8  166.99    9.36
  -1   5  -8  168.15    9.23
  -2   5   8   39.66    5.61
   2  -5   8   39.87    4.42
  -2  -5  -8   41.98    2.84
   2  -5   8   39.35    5.44
   2   5   8   44.31    6.34
  -2   5  -8   42.04    6.43
   2  -5  -8   44.06    5.93
   2  -5  -8   35.10    5.13
   2  -5  -8   39.08    4.52
  -2  -5   8   45.19    6.04
   2   5   8   43.38    2.86
  -2  -5   8   42.06    2.80
  -3   5   8  278.71   14.02
   3  -5   8  279.97   12.64
   3  -5   8  295.55   14.45
   3  -5  -8  284.68   13.76
  -3   5  -8  280.50   12.88
  -3  -5   8  274.99   13.83
   3   5   8  239.69   13.61
   4  -5   8  342.52   17.12
  -4   5   8  350.04   16.95
   4  -5  -8  349.55   16.06
   4   5   8  334.87   16.97
  -4   5  -8  323.43   14.74
  -4  -5   8  340.13   16.52
   5  -5   8  123.79   10.52
  -5   5   8  112.41    9.90
  -5  -5   8  120.59    9.89
   5  -5  -8  104.38    8.75
   5   5   8   98.85    9.22
  -5   5  -8  109.60    8.07
   6  -5   8   11.56    4.94
  -6   5   8    8.25    4.09
  -6   5  -8   15.76    3.75
  -6  -5   8   13.14    4.23
   6  -5  -8   12.59    4.13
   6   5   8    0.95    3.55
   7  -5   8    1.41    4.56
  -7   5   8   18.07    5.77
  -7  -5   8   -1.89    3.81
  -7   5  -8   13.18    3.87
   7  -5  -8    8.45    4.22
   7   5   8    6.32    4.11
   0  -6  -8    7.38    2.14
   0   6   8    7.14    2.28
   0  -6   8   11.42    3.45
   0   6   8    7.55    3.16
   0   6  -8    6.40    2.52
   0  -6   8    9.12    2.54
   1   6  -8  676.06   21.56
   1  -6   8  703.38   24.46
   1  -6   8  651.66   25.90
  -1   6   8  671.68   25.35
  -1  -6  -8  659.73   20.99
   1  -6  -8  694.05   23.30
   1   6   8  679.86   25.60
  -1   6  -8  680.86   23.91
  -1  -6   8  660.68   21.29
   1   6   8  666.96   21.17
  -1  -6   8  686.29   24.59
  -2  -6  -8  285.31    9.95
   2  -6   8  264.94   13.14
   2  -6   8  282.07   13.76
  -2   6   8  289.73   13.59
  -2  -6   8  276.72    9.83
   2   6   8  272.41    9.91
  -2   6  -8  277.90   13.33
   2  -6  -8  265.64   13.74
  -2  -6   8  269.44   10.01
   2   6   8  267.45   14.37
  -2  -6   8  268.97   13.75
  -3  -6  -8   52.47    2.76
   3  -6   8   58.31    6.44
  -3   6   8   52.38    5.96
  -3   6  -8   59.23    6.14
  -3  -6   8   58.95    6.65
   3   6   8   64.69    7.33
   3  -6  -8   62.14    6.73
  -4   6   8  266.80   14.57
   4  -6   8  226.45   14.11
   4   6   8  228.55   14.11
  -4   6  -8  249.58   13.05
  -4  -6   8  236.38   13.68
   4  -6  -8  242.75   13.83
  -5   6   8   52.14    8.18
   5  -6   8   64.63    9.27
   5  -6  -8   56.86    7.88
  -5  -6   8   43.86    6.99
  -5   6  -8   52.66    7.13
   5   6   8   43.92    7.40
  -6   6   8   31.64    6.83
   6  -6   8   36.79    7.58
  -6  -6   8   40.80    7.30
   6   6   8   41.49    7.06
  -6   6  -8   46.89    6.80
   6  -6  -8   41.41    7.03
   0  -7   8   16.94    3.74
   0  -7   8   19.55    3.82
   0   7  -8   13.36    3.24
   0  -7  -8   13.08    3.12
   0   7   8   12.79    3.88
   0   7   8   20.11    3.76
  -1  -7  -8  252.12   10.91
  -1   7   8  279.02   13.01
   1   7  -8  246.80   11.12
   1  -7   8  246.03   13.20
   1  -7   8  275.52   13.29
  -1   7   8  254.62   14.32
  -1  -7   8  265.80   13.81
   1   7   8  269.29   11.27
  -1  -7   8  273.49   11.46
   1   7   8  253.97   14.20
   1  -7  -8  265.93   14.22
   2  -7   8  188.51   11.42
  -2  -7  -8  180.13    8.06
  -2   7   8  183.03   11.09
  -2  -7   8  178.44    8.26
  -2  -7   8  180.02   11.32
  -2   7  -8  200.59   11.34
   2  -7  -8  163.31   11.08
   2   7   8  186.46   11.98
   2   7   8  169.28    8.06
  -2  -7   8  198.15    8.22
  -3   7   8   47.75    6.88
  -3  -7  -8   43.42    3.30
   3  -7   8   45.89    7.20
  -3  -7  -8   44.13    3.28
   3   7   8   52.39    7.72
  -3  -7   8   45.15    2.67
  -3  -7   8   47.08    6.96
  -3   7  -8   51.42    6.96
   3  -7  -8   45.41    7.11
  -4   7   8  160.58   11.45
   4  -7   8  169.84   12.27
   4   7   8  160.90   11.86
  -4   7  -8  168.69   11.07
  -4  -7   8  151.03   10.88
   4  -7  -8  171.88   11.95
   5  -7   8   22.41    6.24
  -5   7   8   31.00    6.73
  -5   7  -8   41.60    6.49
   5   7   8   35.92    6.94
   5  -7  -8   47.33    7.67
  -5  -7   8   42.35    7.27
   6  -7   8    0.87    4.07
  -6   7   8    4.32    4.60
  -6   7  -8    7.83    4.05
   6   7   8   13.35    4.80
  -6  -7   8    4.41    3.17
   6  -7  -8    8.61    3.71
   0   8  -8  134.86    8.74
   0  -8   8  127.27    9.60
   0  -8   8  137.81    8.69
   0   8   8  131.68   10.50
   0   8   8  128.94    8.61
  -1   8   8  565.13   21.81
   1  -8   8  551.30   21.97
  -1  -8  -8  581.86   19.99
   1  -8   8  542.66   22.85
   1   8   8  551.53   23.89
  -1  -8   8  598.39   20.31
   1  -8  -8  556.61   23.73
  -1  -8   8  570.64   23.15
   1   8   8  555.12   19.90
  -2  -8  -8  296.68   12.09
  -2   8   8  293.85   15.22
   2  -8   8  284.64   15.32
   2  -8   8  317.47   16.00
   2   8   8  327.43   12.65
  -2  -8   8  341.10   12.85
   2   8   8  296.66   16.66
  -2   8  -8  336.75   16.11
  -2  -8   8  331.20   16.26
   2  -8  -8  279.74   15.85
  -2  -8   8  304.18   12.12
  -3  -8  -8    0.04    1.40
  -3  -8  -8    0.54    1.51
  -3   8   8    0.15    2.67
   3  -8   8    4.48    2.82
   3  -8  -8   -1.69    1.60
  -3  -8   8    1.62    1.45
   3   8   8    2.61    2.91
  -3  -8   8    1.72    3.12
  -3  -8   8    0.67    1.16
  -3   8  -8    2.33    2.41
  -4  -8  -8   41.41    2.84
  -4   8   8   41.96    7.42
   4  -8   8   52.98    8.28
   4  -8  -8   43.39    7.65
  -4   8  -8   38.88    6.52
   4   8   8   44.79    7.54
  -5   8   8   17.29    5.34
   5  -8   8   19.57    5.87
   5  -8  -8   16.02    5.16
  -5  -8   8    9.80    4.62
   5   8   8   11.22    4.89
   0  -9   8  742.72   28.82
   0   9   8  747.48   30.22
   0  -9  -8  714.97   29.33
   0  -9   8  766.04   26.93
   0   9   8  777.35   26.78
   1  -9   8   67.22    7.29
  -1   9   8   66.22    6.90
   1  -9   8   79.20    7.52
  -1  -9   8   61.20    6.14
  -1  -9   8   72.82    6.16
   1   9   8   47.49    7.67
  -1  -9   8   77.07    8.01
   1  -9  -8   70.24    7.69
   1   9   8   69.52    6.31
   2  -9   8  175.13   12.16
  -2  -9  -8  170.11    8.98
  -2   9   8  167.47   11.47
   2  -9   8  188.54   12.37
   2   9   8  173.20   12.84
   2   9   8  171.12    9.17
   2  -9  -8  172.18   12.39
  -2  -9   8  186.71   12.45
  -2  -9   8  160.07    9.01
  -2   9  -8  161.92   11.80
  -2  -9   8  183.21    9.23
  -3   9   8  147.58   11.63
   3  -9   8  141.20   11.72
  -3  -9  -8  156.02    7.78
  -3  -9  -8  145.41    7.78
   3  -9  -8  147.35   13.90
  -3  -9   8  159.78    7.42
   3   9   8  152.54   12.25
  -3  -9   8  154.11    7.50
  -3   9  -8  155.08   11.20
  -4   9   8  229.29   14.97
  -4  -9  -8  244.12    9.20
  -4  -9  -8  235.50    9.15
   4  -9   8  249.49   16.13
   4  -9  -8  230.78   15.24
   4   9   8  224.74   15.33
  -4  -9   8  248.17   15.21
  -4   9  -8  234.76   14.53
  -5   9   8   62.25    9.49
   5  -9   8   71.10   10.38
   5  -9  -8   79.79    9.45
  -5  -9   8   74.47    8.33
  -5   9  -8   74.19    8.54
   5   9   8   53.65    8.95
   0  10   8   11.45    3.73
   0 -10   8    5.81    3.50
  -1  10   8   33.83    5.95
   1 -10   8   40.97    6.64
   1 -10   8   36.64    8.32
   1 -10  -8   27.16    6.62
  -1 -10   8   37.95    7.43
   1  10   8   44.03    5.91
  -1 -10   8   42.05    5.90
   2 -10   8  226.42   14.34
   2 -10   8  224.04   13.97
  -2  10   8  217.49   13.57
  -2 -10   8  197.84   10.87
  -2  10  -8  237.92   14.87
   2  10   8  204.81   11.00
   2  10   8  220.71   14.97
   2 -10  -8  209.53   14.38
  -2 -10   8  219.17   11.14
  -2 -10   8  196.86   13.37
  -3 -10  -8   46.38    5.02
  -3 -10  -8   54.82    5.01
   3 -10   8   46.62    8.07
  -3  10   8   43.38    7.53
  -3 -10   8   46.90    4.50
  -3  10  -8   47.44    7.73
   3 -10  -8   44.49    8.04
  -3 -10   8   49.55    4.64
   3  10   8   35.61    7.69
  -3 -10   8   50.45    7.87
  -4 -10  -8   68.37    5.28
  -4  10   8   73.43    9.99
   4 -10   8   93.39   10.32
  -4 -10   8   94.56    9.88
   4 -10  -8   92.55   10.41
   4  10   8   87.85   10.00
  -4  10  -8   98.01    9.87
   0  11   8   98.28    8.62
   0 -11   8  111.70   10.48
   0 -11  -8  130.39   11.58
   0 -11   8   99.12    8.67
  -1  11   8   52.77    7.72
   1 -11   8   35.45    6.40
   1 -11   8   32.38    7.00
  -1 -11  -8   36.29    7.75
   1  11   8   39.34    6.16
  -1 -11   8   38.24    6.98
  -1 -11   8   31.37    5.83
   1 -11  -8   26.24    5.97
   2 -11   8   29.09    5.98
   2 -11   8   18.97    5.10
  -2  11   8   22.16    5.50
   2  11   8   25.04    6.44
  -2 -11   8   29.39    6.36
   2  11   8   31.71    5.24
   2 -11  -8   23.46    5.91
  -2 -11   8   23.03    4.52
  -3  11   8   55.49    8.91
  -3 -11  -8   59.45    6.05
   3 -11   8   61.82    9.49
   3  11   8   56.90    9.58
  -3  11  -8   64.22    9.15
   3 -11  -8   64.77    9.92
  -3 -11   8   51.82    5.79
  -3 -11   8   65.45    9.40
   0 -12   8   34.80    6.37
   0 -12   8   32.18    7.36
   0 -12  -8   32.49    7.30
  -1  12   8   74.47    9.61
   1 -12   8   72.84    8.75
  -1 -12  -8   84.58   11.46
   1 -12   8   64.75    9.30
  -1 -12   8   72.49   10.13
   1  12   8   75.12    8.03
   1 -12  -8   69.63   10.77
  -1 -12   8   69.19    7.65
   2 -12   8  117.69   11.45
  -2 -12  -8  130.98   12.22
   2 -12   8  153.26   12.62
  -2  12   8  125.89   11.18
  -2 -12  -8  138.60    9.94
   2 -12  -8  107.76   11.38
   2  12   8  151.22   10.15
  -2 -12   8  129.17   11.86
  -2 -12   8  143.21    9.73
   0   0   9   13.02    2.51
   0   0  -9   12.65    2.45
  -1   0  -9 3995.37  103.94
   1   0  -9 4062.95  104.78
   1   0   9 4071.14  106.94
   1   0  -9 4205.78  106.18
  -1   0  -9 4059.50  106.72
  -2   0   9 1513.89   41.00
   2   0   9 1576.13   44.77
  -2   0   9 1499.24   43.72
   2   0  -9 1503.36   43.54
   2   0  -9 1470.90   40.56
   2   0   9 1508.22   39.61
   2   0   9 1400.34   40.22
  -2   0  -9 1551.18   44.46
   3   0  -9   20.95    2.32
  -3   0   9   12.94    3.35
   3   0   9   18.84    4.07
   3   0  -9   19.51    2.34
   3   0   9   18.57    1.76
   4   0   9   41.95    6.16
   4   0  -9   48.16    3.26
  -4   0   9   42.27    6.19
   4   0   9   48.03    2.39
   4   0   9   51.87    2.50
  -5   0   9  125.39    9.64
   5   0   9  129.28    4.39
   5   0   9  119.68    9.81
   5   0   9  126.36    4.34
   5   0  -9  126.88    5.44
   6   0   9  151.13    4.95
   6   0   9  151.43   11.73
   6   0  -9  152.79    5.96
   7   0   9   15.97    5.47
  -7   0   9   17.04    4.85
   7   0  -9   10.89    1.70
   0  -1  -9   58.56    4.77
   0  -1   9   57.58    4.48
   0  -1   9   55.35    4.43
   0   1   9   57.41    4.18
   0   1  -9   56.26    4.43
   0  -1  -9   59.13    4.25
   0   1   9   56.77    4.92
   0   1  -9   58.36    4.44
  -1   1   9 1172.85   34.11
   1   1  -9 1171.26   32.74
   1  -1   9 1144.48   34.87
  -1   1   9 1195.27   34.45
  -1  -1  -9 1180.73   35.15
   1   1  -9 1186.49   34.70
   1  -1   9 1235.25   33.15
   1  -1   9 1179.73   32.99
  -1  -1  -9 1179.79   32.01
   1  -1  -9 1203.81   34.30
  -1   1  -9 1188.72   34.98
   1  -1  -9 1153.24   33.64
  -1  -1   9 1141.03   34.54
  -1  -1   9 1145.40   32.85
   1   1   9 1164.31   35.46
   1   1   9 1124.64   31.89
  -2  -1  -9 1970.27   56.23
   2   1  -9 1903.72   55.50
   2  -1   9 1932.93   52.26
   2  -1   9 2000.55   56.36
  -2   1   9 1935.16   53.65
   2  -1   9 1966.56   52.37
  -2   1   9 2003.43   55.80
  -2  -1   9 2013.75   51.92
   2   1   9 1987.04   50.57
   2   1   9 1986.12   57.13
  -2   1  -9 2006.68   56.27
   2  -1  -9 2038.76   53.49
  -2  -1   9 1957.20   55.76
   2  -1  -9 2036.80   55.64
   3  -1   9  216.61   11.88
   3   1  -9  216.87    7.31
  -3   1   9  224.87   11.56
   3  -1   9  224.62    8.35
   3   1  -9  226.52    7.20
   3  -1   9  222.57    8.37
   3  -1  -9  223.52    9.34
  -3  -1   9  243.85   12.10
   3   1   9  228.78   12.13
   3  -1  -9  225.36    9.25
  -4   1   9  492.12   20.02
   4  -1   9  447.89   14.47
   4  -1   9  452.43   19.88
   4  -1   9  477.43   14.73
   4  -1  -9  475.02   15.76
  -4  -1   9  488.34   19.96
   4  -1  -9  463.43   15.76
   4   1   9  463.53   20.03
   5  -1   9  186.33    7.54
   5  -1   9  182.85   12.08
  -5   1   9  186.81   12.14
   5  -1  -9  183.03    8.38
   5  -1  -9  186.55    8.33
  -5  -1   9  185.53   12.14
   5   1   9  192.46   12.33
  -6   1   9   70.57    8.15
   6  -1   9   77.86    4.74
   6   1   9   82.37    8.92
   6  -1  -9   71.95    5.20
  -6   1  -9   75.62    4.59
   6  -1  -9   67.15    4.94
   7  -1   9  251.72   16.36
  -7   1   9  231.28   15.50
   7   1   9  237.57   15.64
  -7  -1   9  232.84   15.38
  -7   1  -9  232.19    9.16
   0  -2  -9   38.09    4.10
   0  -2  -9   40.99    3.45
   0   2   9   46.58    3.83
   0   2   9   37.87    4.42
   0  -2   9   39.16    3.93
   0  -2   9   39.61    3.92
   0   2  -9   38.83    3.71
   0   2  -9   46.32    4.18
   1  -2   9  124.41    7.40
   1  -2   9  111.97    6.36
   1   2  -9  109.51    5.67
  -1   2   9  117.16    7.10
   1  -2   9  108.10    6.23
   1   2  -9  104.00    6.92
  -1   2   9  117.87    6.98
  -1  -2  -9  118.00    5.30
  -1   2  -9  131.46    7.51
   1  -2  -9  140.19    7.30
   1   2   9  130.88    5.54
   1  -2  -9  126.07    7.08
   1   2   9  117.60    7.80
  -1  -2   9  147.53    7.79
  -1  -2   9  128.97    6.04
   2  -2   9    4.23    1.71
   2  -2   9    0.93    1.56
  -2   2   9    2.17    2.39
   2  -2   9    2.02    1.54
   2   2  -9    2.64    1.02
  -2  -2  -9    3.36    2.33
  -2   2   9    1.05    1.56
   2   2  -9    3.56    1.86
  -2  -2   9    1.56    0.91
   2  -2  -9    1.67    1.48
   2   2   9    0.65    0.57
   2   2   9    1.53    0.60
  -2   2  -9    0.17    1.42
   2  -2  -9   -0.66    1.71
   2   2   9   -1.08    1.71
  -2  -2   9    1.89    2.13
   3  -2   9   99.63    5.75
   3  -2   9  102.94    8.05
  -3   2   9  108.52    8.03
   3  -2   9  101.62    5.72
   3  -2  -9  112.27    6.74
   3   2   9  117.30    8.62
  -3  -2   9  112.33    7.89
   3  -2  -9  115.29    6.66
   4  -2   9   63.28    4.63
   4  -2   9   61.95    4.52
   4  -2   9   62.81    7.14
  -4   2   9   60.62    6.88
   4   2   9   52.61    7.40
   4  -2  -9   61.39    5.06
  -4  -2   9   65.62    7.01
   4  -2  -9   66.61    5.21
   5  -2   9  100.49    6.03
   5  -2   9   97.54    8.73
  -5   2   9  103.07    8.86
   5   2   9  108.56    9.12
  -5  -2   9  107.02    9.19
   5  -2  -9  108.47    6.92
   5  -2  -9  106.55    6.86
  -5   2  -9  112.27    6.27
   6  -2   9    8.95    4.75
  -6   2   9   11.22    4.13
   6  -2   9    6.38    2.55
  -6   2  -9    9.65    2.43
   6  -2  -9   10.39    2.97
   6   2   9   13.00    4.82
   6  -2  -9   10.93    3.62
  -7   2   9   88.70    9.15
   7  -2   9   71.30    9.96
   7  -2  -9   66.26    6.80
  -7  -2   9   66.60    9.82
   7   2   9   85.74    9.72
  -7   2  -9   73.28    5.49
   0  -3   9   99.03    6.45
   0   3  -9  105.97    6.26
   0  -3  -9  110.72    5.96
   0  -3   9  117.52    6.54
   0   3  -9  123.42    7.24
   0   3   9  106.71    6.06
   0  -3   9  117.04    7.06
   0   3   9  109.75    7.49
  -1   3   9   21.22    3.65
   1  -3   9   12.98    2.84
   1  -3   9   15.52    3.01
   1   3  -9   14.49    3.14
  -1   3   9   20.05    3.58
   1   3  -9   13.89    2.36
   1  -3   9   14.81    2.95
  -1  -3  -9   18.23    2.33
  -1  -3  -9   18.57    3.81
   1   3   9   19.21    4.06
   1  -3  -9   27.41    3.77
   1  -3  -9   14.63    3.20
  -1  -3   9   22.04    3.83
   1   3   9   19.12    2.40
  -1  -3   9   22.65    2.61
  -1   3  -9   19.67    3.38
   2  -3   9  140.68    7.28
   2  -3   9  128.79    6.99
  -2   3   9  120.43    7.60
   2   3  -9  121.84    4.70
  -2  -3  -9  124.14    3.87
   2   3  -9  129.50    8.02
  -2  -3  -9  118.55    8.19
   2  -3   9  120.26    8.25
   2  -3  -9  111.86    7.22
  -2  -3   9  103.69    7.43
  -2   3  -9  102.56    7.35
   2   3   9  105.01    8.07
   2  -3  -9  109.70    7.47
   2   3   9  103.30    3.73
   3  -3   9  224.67   10.00
   3  -3   9  216.14   12.12
   3  -3   9  208.90    9.63
  -3   3   9  210.97   11.75
   3   3   9  216.07   12.16
   3  -3  -9  230.88   10.91
  -3  -3   9  227.41   12.11
   3  -3  -9  216.65   10.50
  -4   3   9  165.49   11.05
   4  -3   9  176.64   11.66
   4  -3   9  182.46    8.75
   4  -3  -9  173.60    9.60
  -4   3  -9  177.64    8.84
  -4  -3   9  173.62   11.15
   4   3   9  169.00   11.43
  -5   3   9    1.39    3.20
   5  -3   9    3.03    2.18
   5  -3   9    4.74    3.48
  -5  -3   9    6.01    3.50
   5  -3  -9    4.42    2.70
   5   3   9    6.25    3.54
  -5   3  -9    5.32    2.32
   5  -3  -9    4.65    2.28
   6  -3   9  221.71   14.74
  -6   3   9  207.73   13.77
   6  -3   9  192.57   10.21
  -6  -3   9  216.45   14.04
   6   3   9  227.97   17.09
  -6   3  -9  211.53   11.83
   6  -3  -9  229.58   11.53
  -7   3   9   39.17    7.80
   7  -3   9   30.67    7.30
  -7   3  -9   26.15    4.42
   7   3   9   29.12    6.63
   7  -3  -9   25.21    4.91
  -7  -3   9   27.83    6.41
   0  -4  -9  387.19   13.63
   0  -4  -9  381.99   15.58
   0  -4   9  366.28   14.95
   0  -4   9  362.11   14.98
   0  -4   9  393.03   14.16
   0   4  -9  352.20   13.79
   0   4   9  360.28   13.54
  -1   4   9  635.55   20.98
   1  -4   9  606.83   22.93
   1   4  -9  631.24   18.91
   1  -4   9  604.52   20.93
   1   4  -9  594.18   21.67
  -1  -4  -9  605.56   18.14
   1  -4   9  620.66   21.23
  -1  -4  -9  551.90   21.51
  -1   4   9  584.18   21.90
  -1  -4   9  588.78   21.45
  -1  -4   9  594.47   18.57
   1   4   9  634.00   18.40
   1  -4  -9  584.12   20.28
   1   4   9  558.19   22.02
   1  -4  -9  605.12   21.56
  -2   4   9   47.32    5.26
   2  -4   9   47.77    5.09
   2  -4   9   51.42    4.86
  -2  -4  -9   47.68    2.46
   2   4  -9   47.49    2.83
  -2   4   9   55.39    5.64
  -2  -4   9   41.54    5.61
   2  -4  -9   44.09    4.68
   2  -4  -9   48.14    5.12
   2   4   9   46.62    2.45
   2   4   9   54.76    6.07
  -2   4  -9   47.30    5.34
   2  -4  -9   49.20    5.19
   3  -4   9   52.22    6.18
  -3   4   9   40.36    5.81
   3  -4   9   43.19    5.40
   3  -4   9   41.50    4.34
   3  -4  -9   37.67    4.55
  -3   4  -9   38.34    4.99
  -3  -4   9   30.56    5.36
   3   4   9   28.95    5.58
   4  -4   9  100.22    6.99
  -4   4   9  101.00    8.85
   4  -4   9   94.59    8.40
   4  -4  -9  102.24    7.58
  -4  -4   9  121.88    9.47
  -4   4  -9  105.37    7.04
   4  -4  -9  115.20    8.38
   4   4   9  124.79    9.48
   5  -4   9   35.22    4.69
  -5   4   9   34.07    6.25
   5  -4   9   40.01    6.70
  -5   4  -9   38.82    5.19
  -5  -4   9   36.66    6.70
   5  -4  -9   41.99    6.13
   5   4   9   42.92    7.15
   6  -4   9   37.87    7.38
  -6   4   9   41.10    7.48
   6  -4  -9   54.54    6.37
  -6   4  -9   62.17    6.10
   6   4   9   58.69    8.98
  -6  -4   9   46.40    7.44
  -7   4   9   96.27   10.41
   7  -4   9   89.97    9.97
   7   4   9  122.58   11.31
  -7   4  -9   97.68    7.81
   7  -4  -9  100.36    8.49
  -7  -4   9  100.24   10.30
   0   5   9   32.71    5.19
   0  -5  -9   34.54    3.70
   0  -5   9   36.65    5.12
   0  -5   9   39.92    5.55
   0   5   9   48.73    4.33
   0  -5   9   44.21    4.46
   0   5  -9   43.92    4.26
   1  -5   9  303.48   13.61
   1  -5   9  339.92   14.22
   1   5  -9  310.24   11.83
   1  -5   9  292.82   13.43
  -1  -5  -9  316.93   11.38
  -1   5   9  334.12   13.68
  -1   5   9  318.20   14.83
   1   5   9  307.34   11.37
   1  -5  -9  309.03   13.20
  -1  -5   9  324.25   11.77
  -1  -5   9  301.83   14.18
   1  -5  -9  311.61   16.14
  -1   5  -9  304.15   13.61
   1   5   9  295.93   14.73
   2  -5   9   23.89    4.26
   2  -5   9   25.58    4.19
  -2   5   9   21.69    4.38
   2   5  -9   27.82    2.46
  -2  -5  -9   30.30    2.44
   2  -5   9   30.80    4.97
   2   5   9   30.31    2.42
   2   5   9   33.42    5.68
  -2  -5   9   26.79    4.92
  -2  -5   9   26.41    2.38
   2  -5  -9   27.52    5.02
   3  -5   9  223.50   11.26
   3  -5   9  225.65   12.76
  -3   5   9  225.64   12.59
   3  -5  -9  216.55   12.07
  -3   5  -9  243.39   11.78
   3   5   9  225.27   13.13
  -3  -5   9  225.52   12.49
  -4   5   9  140.60   10.61
   4  -5   9  148.51   10.82
  -4  -5   9  149.40   10.71
   4  -5  -9  157.88   10.28
  -4   5  -9  159.24    9.58
   4   5   9  157.89   11.47
   5   5   9   40.44    7.12
  -5  -5   9   33.82    6.60
   5  -5  -9   47.01    6.80
  -5   5  -9   38.77    5.52
   6  -5   9  309.90   18.23
  -6   5   9  296.41   17.34
   6   5   9  303.05   17.57
  -6  -5   9  283.73   16.73
  -6   5  -9  286.97   14.42
   6  -5  -9  272.10   14.77
   0  -6   9  151.18    9.57
   0  -6   9  135.17    7.98
   0  -6  -9  146.00    7.99
   0   6  -9  131.67    8.00
   0   6   9  140.16    7.90
   0   6   9  153.07   10.15
  -1   6   9  150.90    9.03
   1  -6   9  145.85    9.46
   1  -6   9  162.21    9.44
  -1   6   9  155.38   10.54
  -1  -6  -9  159.96    7.51
   1   6  -9  150.40    7.69
   1  -6  -9  144.43    8.67
   1   6   9  139.89    7.24
  -1  -6   9  133.68    9.13
  -1  -6   9  133.43    7.30
   1   6   9  130.74    9.70
  -1   6  -9  132.38    8.82
  -2   6   9  320.56   15.25
  -2  -6  -9  329.59   11.37
   2  -6   9  334.33   15.46
   2  -6   9  376.34   16.48
   2  -6  -9  336.73   16.15
   2   6   9  308.61   16.27
  -2  -6   9  341.23   16.09
   2   6   9  350.96   11.58
  -2  -6   9  330.65   11.66
  -2  -6   9  343.42   11.44
  -3   6   9  281.43   14.42
   3  -6   9  300.49   15.36
  -3   6  -9  243.54   13.02
  -3  -6   9  275.84   14.37
   3   6   9  249.14   14.56
   3  -6  -9  283.46   14.68
   4  -6   9  323.55   16.87
  -4   6   9  286.18   15.77
   4   6   9  301.90   16.53
  -4  -6   9  279.88   15.48
   4  -6  -9  257.52   14.69
  -4   6  -9  288.73   14.31
   5  -6   9  168.21   13.02
  -5   6   9  196.20   13.28
  -5   6  -9  180.10   11.31
   5  -6  -9  182.73   12.04
   5   6   9  196.05   13.47
  -5  -6   9  167.04   12.67
  -6   6   9   17.37    5.20
   6  -6   9   23.86    6.39
  -6  -6   9   19.98    6.13
  -6   6  -9   22.63    5.08
   6   6   9   40.14    7.79
   6  -6  -9   21.99    5.44
   0   7  -9   73.89    6.24
   0  -7  -9   67.85    5.58
   0  -7   9   69.86    6.73
   0   7   9   66.67    6.58
   0  -7   9   59.48    5.66
   0   7   9   59.48    6.79
  -1   7   9  246.94   12.58
   1   7  -9  241.13   11.18
  -1  -7  -9  257.50   11.04
   1  -7   9  261.81   13.15
   1  -7   9  268.97   13.99
  -1   7   9  257.68   14.65
  -1  -7   9  264.08   11.40
   1  -7  -9  264.71   14.55
   1   7   9  278.14   11.38
   1   7   9  263.93   14.80
  -1  -7   9  273.45   14.02
  -2  -7  -9  100.83    5.55
   2  -7   9   92.93    8.24
   2  -7   9  107.15    8.64
  -2   7   9   79.08    7.23
   2  -7  -9  103.75    8.89
  -2  -7   9   90.92    5.57
  -2  -7   9   87.39    8.21
   2   7   9   95.65    8.90
   2   7   9   87.43    5.33
  -2  -7   9   98.02    5.52
   3  -7   9  321.24   16.51
  -3   7   9  298.61   15.92
  -3  -7  -9  322.70   10.15
  -3  -7   9  304.03    8.74
   3   7   9  319.09   17.17
   3  -7  -9  317.46   16.45
  -3  -7   9  312.70   16.22
  -3  -7   9  312.87    8.82
  -3   7  -9  330.45   15.78
   4  -7   9  250.32   15.42
  -4   7   9  240.92   14.78
   4   7   9  244.36   15.02
  -4   7  -9  219.35   12.98
   4  -7  -9  230.31   14.21
  -4  -7   9  243.52   14.39
   5  -7   9  194.05   14.11
  -5   7   9  177.49   13.30
   5   7   9  175.38   13.42
   5  -7  -9  218.20   13.88
  -5  -7   9  172.49   13.04
  -5   7  -9  192.50   12.12
   6  -7   9   44.58    8.46
  -6   7   9   42.36    8.32
   6  -7  -9   44.15    7.96
   6   7   9   52.78    8.97
  -6  -7   9   44.62    7.69
   0  -8   9  208.53   11.09
   0   8   9  209.25   13.58
   0   8   9  197.52   10.69
   0  -8   9  180.62   11.74
   1  -8   9  455.99   19.22
  -1   8   9  421.89   18.53
   1   8  -9  444.34   17.44
   1  -8   9  457.32   20.32
  -1  -8  -9  456.10   16.96
   1   8   9  475.06   21.68
   1   8   9  470.78   17.24
  -1  -8   9  461.75   20.43
   1  -8  -9  414.78   20.25
  -1  -8   9  463.82   17.27
  -2   8   9  177.99   11.34
   2  -8   9  175.54   11.60
  -2  -8  -9  163.80    8.13
   2  -8   9  172.89   11.41
   2   8   9  164.75    8.31
  -2  -8   9  174.17    8.61
   2   8   9  165.69   12.30
   2  -8  -9  163.32   12.02
  -2  -8   9  171.82    8.31
  -2  -8   9  193.28   12.33
   3  -8   9   18.93    4.84
  -3  -8  -9   15.78    2.44
  -3  -8  -9   17.36    2.55
  -3   8   9   18.10    4.92
  -3  -8   9   20.05    4.88
   3  -8  -9   12.50    4.47
  -3   8  -9   16.59    4.58
   3   8   9   25.10    5.54
  -3  -8   9   18.07    2.11
   4  -8   9   53.74    8.52
  -4   8   9   67.33    7.69
   4  -8  -9   72.39    8.54
   4   8   9   84.40    9.47
  -4  -8   9   76.95    9.87
  -4   8  -9   81.50    8.03
   5  -8   9    8.32    4.00
  -5   8   9   10.68    4.50
  -5  -8   9   17.10    5.54
  -5   8  -9   16.08    4.86
   5  -8  -9   18.58    5.73
   5   8   9    8.45    4.28
   0  -9   9  457.65   19.26
   0  -9   9  465.91   21.29
   0  -9  -9  447.51   21.82
   0   9   9  489.72   22.96
   0   9   9  475.74   19.13
   1  -9   9    8.65    3.45
   1  -9   9    3.08    3.26
  -1   9   9    6.68    3.10
   1   9   9   10.86    4.62
   1   9   9    3.00    2.71
  -1  -9   9    6.18    3.50
  -1  -9   9    4.43    2.58
  -1  -9   9    2.79    2.45
   1  -9  -9    6.47    3.87
   2  -9   9  304.69   16.37
  -2   9   9  294.13   15.80
   2  -9   9  309.10   16.82
  -2  -9  -9  301.59   12.78
   2  -9  -9  295.99   17.35
   2   9   9  314.25   13.03
   2   9   9  307.72   17.80
  -2  -9   9  315.34   13.18
  -2  -9   9  311.08   12.73
   3  -9   9  196.96   13.54
  -3  -9  -9  183.15    8.50
  -3   9   9  174.43   12.89
  -3  -9  -9  182.32    8.39
  -3  -9   9  185.63   12.96
   3  -9  -9  200.08   13.68
   3   9   9  191.84   13.99
  -3  -9   9  180.33    7.74
  -3  -9   9  185.31    7.98
  -3   9  -9  169.90   14.32
  -4  -9  -9   32.93    2.65
   4  -9   9   42.36    7.68
  -4   9   9   32.13    6.74
  -4  -9   9   48.00    7.72
   4   9   9   57.69    9.13
  -4   9  -9   38.80    6.56
   4  -9  -9   51.48    8.32
   5  -9   9   33.13    7.24
  -5   9   9   32.04    6.99
  -5   9  -9   18.44    5.58
  -5  -9   9   23.15    6.37
   5   9   9   30.43    7.36
   5  -9  -9   41.36    8.16
   0 -10  -9   12.86    5.14
   0  10   9   17.26    4.42
   0 -10   9   14.53    4.93
   0 -10   9   13.74    4.00
   1 -10   9  175.80   12.95
  -1  10   9  168.06   11.37
   1 -10   9  184.37   12.23
   1 -10  -9  176.55   13.45
  -1 -10   9  193.24   13.28
   1  10   9  175.08   10.58
   1  10   9  180.78   13.63
  -1 -10   9  174.65   10.49
   2 -10   9   38.03    7.98
   2 -10   9   39.33    7.35
   2  10   9   38.74    5.38
   2  10   9   42.03    8.11
  -2 -10   9   38.61    7.53
   2 -10  -9   26.10    6.58
  -2 -10   9   38.25    5.08
  -3 -10  -9   10.85    2.90
  -3  10   9   13.28    4.75
   3 -10   9   19.20    5.42
   3 -10   9   17.55    5.58
  -3 -10   9   10.82    2.54
   3  10   9    7.71    4.32
   3 -10  -9   13.87    5.42
  -3 -10   9    8.40    2.52
  -3  10  -9   10.92    4.47
  -3 -10   9    7.49    4.46
  -4 -10  -9   21.21    3.04
  -4  10   9   30.50    6.32
   4 -10   9   30.20    6.67
   4 -10  -9   27.83    7.14
   4  10   9   30.11    6.69
  -4 -10   9   39.46    7.80
  -4  10  -9   34.22    6.53
   0 -11   9   -1.53    3.52
   0  11   9    0.34    2.42
   0 -11   9    0.30    2.59
   0 -11  -9   -2.30    3.27
  -1 -11  -9   46.28    8.32
   1 -11   9   65.50    8.94
   1 -11   9   35.14    6.94
   1 -11  -9   36.21    7.19
   1  11   9   52.01    6.79
  -1 -11   9   52.38    5.95
  -1 -11   9   46.98    7.77
  -2  11   9  247.64   15.08
   2 -11   9  227.37   14.82
   2 -11   9  229.50   15.54
   2  11   9  222.52   15.92
  -2 -11   9  219.77   11.59
  -2 -11   9  216.93   15.05
   2 -11  -9  207.00   15.39
   2  11   9  208.55   11.54
   3 -11   9   37.92    8.01
   3 -11   9   32.81    6.62
  -3  11   9   36.90    6.96
  -3 -11  -9   30.85    4.61
  -3  11  -9   36.19    7.37
   3  11   9   34.95    8.02
  -3 -11   9   26.89    4.02
   3 -11  -9   29.68    7.39
  -3 -11   9   23.64    5.93
   0 -12  -9   -2.96    2.41
   0 -12   9   -1.40    2.94
   0  12   9    3.12    3.63
   0 -12   9   -0.64    2.91
   1 -12   9   62.63    9.09
  -1  12   9   58.17    8.46
  -1 -12  -9   27.00    7.22
   1 -12   9   45.74    8.33
  -1 -12   9   47.82    6.85
   1 -12  -9   46.14    8.81
  -1 -12   9   69.87   10.19
   1  12   9   36.42    6.16
   0   0  10 1202.02   35.50
   0   0 -10 1205.61   34.53
   0   0  10 1206.52   34.58
   0   0 -10 1180.70   35.10
  -1   0  10   27.62    3.19
   1   0  10   26.14    2.94
   1   0 -10   28.98    4.05
   1   0  10   31.46    4.72
  -1   0  10   21.08    3.77
  -1   0 -10   23.25    2.64
   1   0 -10   25.88    3.47
  -2   0  10 2597.44   67.15
  -2   0  10 2508.23   69.92
   2   0  10 2565.97   65.54
  -2   0 -10 2421.37   70.22
   2   0 -10 2516.84   69.70
   2   0  10 2584.26   70.93
   2   0 -10 2585.21   66.76
   2   0  10 2512.10   65.51
   3   0  10    7.17    3.22
   3   0  10    5.11    1.25
   3   0 -10    2.63    1.44
   3   0 -10    4.14    1.55
   3   0  10    4.68    1.20
  -3   0  10    8.96    3.57
   4   0  10  397.53   10.70
   4   0  10  368.72   17.97
   4   0 -10  395.39   12.59
  -4   0  10  394.73   17.88
   4   0  10  398.16   10.73
   5   0 -10  119.07    5.11
  -5   0  10  128.74   10.02
   5   0  10  143.95   10.69
   5   0 -10  121.82    5.15
  -6   0  10   58.57    8.59
   6   0 -10   58.84    2.59
   6   0  10   63.63    9.10
   7   0  10   12.98    5.76
  -7   0  10   17.61    5.61
   0   1  10  267.03   10.86
   0  -1 -10  267.84   10.75
   0   1 -10  287.69   11.56
   0   1 -10  272.73   11.30
   0   1  10  290.95   12.38
   0  -1  10  277.35   11.58
   0  -1 -10  259.70   11.67
   0  -1  10  283.02   11.44
  -1   1  10  204.95    9.60
   1  -1  10  206.11    8.84
   1   1 -10  207.82    8.74
   1  -1  10  199.85    8.69
  -1  -1 -10  203.63    8.11
  -1  -1 -10  195.22   10.13
   1  -1  10  190.96   10.01
  -1   1  10  203.21    9.81
   1   1  10  206.89   10.64
  -1   1 -10  209.48    8.93
  -1   1 -10  202.29   10.21
  -1  -1  10  212.30    8.98
   1   1  10  205.03    8.15
  -1  -1  10  198.37    9.98
   1  -1 -10  211.67    9.64
   1  -1 -10  199.32    9.29
  -2   1  10 1765.01   50.50
  -2  -1 -10 1748.62   52.96
   2   1 -10 1791.70   52.54
  -2   1  10 1859.03   53.12
   2  -1  10 1867.66   49.22
   2  -1  10 1825.69   49.17
   2   1 -10 1861.95   48.71
   2  -1  10 1867.61   53.54
   2   1  10 1885.91   53.89
  -2  -1  10 1821.35   48.87
   2   1  10 1861.74   47.54
  -2   1 -10 1858.98   53.24
   2  -1 -10 1841.82   50.29
   2  -1 -10 1786.02   52.18
  -2  -1  10 1888.63   52.99
   2   1  10 1845.41   47.45
   3   1 -10   43.67    2.82
   3  -1  10   41.82    6.07
  -3   1  10   41.41    5.75
   3   1 -10   45.23    2.75
   3  -1  10   40.51    3.20
   3  -1  10   40.70    3.21
   3  -1 -10   41.96    3.87
   3   1  10   44.33    6.20
   3  -1 -10   44.10    3.96
  -3  -1  10   38.85    5.56
   4  -1  10  495.69   15.33
  -4   1  10  502.51   20.90
   4  -1  10  498.25   21.49
   4  -1  10  489.11   15.29
   4  -1 -10  482.05   16.57
  -4  -1  10  524.32   21.31
   4   1  10  503.49   21.45
   4  -1 -10  510.05   16.66
   5  -1  10    4.52    1.47
   5  -1  10    4.03    1.57
   5  -1  10    4.07    3.62
  -5   1  10    4.93    3.69
   5  -1 -10    3.47    1.69
  -5  -1  10    7.28    3.92
   5   1  10    4.60    3.35
   5  -1 -10    4.33    1.85
   6  -1  10  229.95    8.54
   6  -1  10  235.43    8.55
  -6   1  10  250.51   15.53
   6  -1  10  239.32   15.31
   6  -1 -10  233.15    9.72
  -6  -1  10  255.77   15.27
   6  -1 -10  237.47    9.62
   6   1  10  245.25   15.12
   7  -1  10   32.68    7.41
   7  -1  10   28.58    2.85
  -7   1  10   31.24    6.85
   7  -1 -10   30.46    3.62
   7   1  10   32.33    6.57
  -7  -1  10   31.29    6.69
   0   2  10 1246.07   35.01
   0   2 -10 1241.34   36.23
   0   2 -10 1207.71   35.58
   0  -2  10 1197.05   35.87
   0  -2  10 1207.56   35.55
   0   2  10 1199.85   37.07
   0  -2 -10 1235.73   34.78
   0  -2 -10 1254.89   38.93
   1  -2  10  130.25    8.01
  -1  -2 -10  119.34    8.06
   1  -2  10  126.89    7.02
  -1  -2 -10  130.99    6.06
  -1   2  10  126.57    7.78
  -1   2  10  124.48    7.56
   1   2 -10  120.57    6.39
   1   2 -10  128.20    7.92
   1  -2  10  137.04    7.27
  -1   2 -10  169.77   10.04
   1   2  10  146.12   10.21
   1   2  10  156.61    6.42
  -1  -2  10  154.24    8.42
   1  -2 -10  141.50    7.73
  -1  -2  10  143.32    6.84
   1  -2 -10  143.61    7.91
   2  -2  10   45.81    3.96
  -2   2  10   44.85    4.51
   2  -2  10   51.76    5.61
  -2   2  10   43.70    4.78
   2  -2  10   44.98    3.95
   2   2  10   54.15    5.89
   2   2  10   49.64    2.57
   2  -2 -10   44.03    4.27
  -2  -2  10   61.27    3.60
  -2  -2  10   54.11    5.66
   2   2  10   58.32    2.73
  -2   2 -10   52.49    5.39
   2  -2 -10   59.81    5.25
   3  -2  10  290.51   11.17
   3  -2  10  299.42   11.21
   3  -2  10  287.71   14.38
  -3   2  10  272.94   13.86
   3   2  10  288.35   14.72
   3  -2 -10  289.43   11.98
   3  -2 -10  288.79   12.15
  -3  -2  10  292.18   14.04
   4  -2  10   27.09    5.27
   4  -2  10   42.90    3.94
  -4   2  10   37.28    5.97
   4  -2  10   39.06    3.62
   4  -2 -10   28.19    4.12
   4  -2 -10   35.05    3.98
  -4  -2  10   38.44    6.29
   4   2  10   40.71    6.70
   5  -2  10   34.97    3.79
   5  -2  10   35.43    3.57
  -5   2  10   27.56    6.00
   5  -2  10   32.76    6.24
   5  -2 -10   45.93    4.57
  -5  -2  10   39.37    6.51
   5   2  10   41.54    6.98
   5  -2 -10   35.37    4.73
   6  -2  10  178.44    8.39
   6  -2  10  174.19   13.33
  -6   2  10  179.55   13.07
   6  -2 -10  150.68    8.93
   6  -2 -10  170.80    9.00
  -6  -2  10  179.13   13.02
   6   2  10  164.22   12.76
  -7   2  10   50.75    8.68
   7  -2  10   48.47    9.29
   7  -2 -10   31.10    4.42
  -7  -2  10   48.76    8.65
   7   2  10   34.58    7.48
   0   3 -10  113.09    6.63
   0   3  10  117.00    6.52
   0  -3  10  108.59    7.13
   0   3 -10  110.07    7.16
   0  -3 -10  102.06    6.12
   0  -3 -10  103.60    7.30
   0   3  10  106.29    7.48
   0  -3  10  117.56    6.84
   0  -3  10  110.16    7.10
  -1  -3 -10 1276.08   34.59
   1   3 -10 1287.12   35.55
   1  -3  10 1252.18   37.95
  -1  -3 -10 1197.60   38.63
  -1   3  10 1276.09   38.73
  -1   3  10 1294.89   37.67
   1  -3  10 1314.45   37.49
   1   3 -10 1241.85   38.42
   1  -3  10 1249.42   37.20
   1   3  10 1272.67   39.64
  -1  -3  10 1297.23   35.56
   1  -3 -10 1245.71   37.41
   1  -3 -10 1222.21   37.88
  -1  -3  10 1264.09   38.34
  -1   3 -10 1313.21   38.47
   1   3  10 1262.93   34.72
  -2  -3 -10   50.28    2.42
   2  -3  10   46.85    5.35
  -2   3  10   39.39    4.70
  -2   3  10   57.01    5.79
   2   3 -10   48.44    3.10
   2  -3  10   53.16    4.77
   2  -3  10   55.63    4.64
   2  -3 -10   56.05    5.50
  -2  -3  10   58.35    5.98
  -2  -3  10   46.90    3.03
   2   3  10   52.25    2.44
   2   3  10   67.45    6.70
   3  -3  10  884.56   28.07
   3  -3  10  944.84   32.07
   3  -3  10  937.42   28.54
  -3   3  10  929.99   31.57
   3  -3 -10  946.71   29.88
  -3  -3  10  916.53   31.62
   3   3  10  929.06   32.50
   4  -3  10  202.03    9.56
   4  -3  10  228.63   10.20
   4  -3  10  204.85   12.56
  -4   3  10  194.78   12.06
   4  -3 -10  208.11   10.55
   4  -3 -10  201.41   10.68
  -4  -3  10  209.32   12.36
   4   3  10  210.05   13.04
  -5   3  10    5.16    2.82
   5  -3  10    7.24    2.54
   5  -3  10    6.45    4.11
  -5  -3  10    2.62    3.56
  -5   3 -10    3.12    1.99
   5  -3 -10    0.91    2.31
   5   3  10    4.99    3.49
   6  -3  10   75.50    6.01
   6  -3  10   70.41    9.99
  -6   3  10   64.27    9.18
   6   3  10   86.41    9.28
  -6  -3  10   66.69    9.39
   6  -3 -10   77.77    8.22
  -6   3 -10   78.98    5.89
   6  -3 -10   66.32    6.50
  -7   3  10  113.26   10.90
   7  -3  10  122.34   11.97
  -7  -3  10  116.42   11.37
  -7   3 -10  123.35    7.60
   7   3  10  120.56   11.59
   0   4 -10    2.32    1.57
   0   4  10   -0.30    1.58
   0   4  10    1.79    2.48
   0  -4  10    2.15    1.88
   0  -4 -10   -0.59    1.59
   0  -4  10    0.09    1.88
   0  -4 -10   -0.62    1.73
   0  -4  10    0.21    1.45
  -1  -4 -10  136.96    6.53
   1  -4  10  149.01    8.60
   1   4 -10  143.33    7.06
  -1   4  10  139.29    8.22
   1  -4  10  148.94    8.36
   1  -4  10  143.91    8.65
  -1   4  10  154.53    9.54
  -1   4 -10  146.54    8.73
   1   4  10  148.84    9.59
   1   4  10  152.86    6.80
   1  -4 -10  143.32    8.86
  -1  -4  10  132.44    8.68
   1  -4 -10  130.37    8.07
  -1  -4  10  156.26    7.19
   2   4 -10  168.32    6.59
  -2   4  10  180.46   10.28
   2  -4  10  186.43    9.61
   2  -4  10  172.72   10.35
  -2   4  10  176.23   10.36
   2  -4  10  172.48    9.20
  -2  -4 -10  174.30    5.93
  -2  -4  10  170.38   10.43
   2  -4 -10  176.23   10.01
  -2  -4  10  182.74    6.68
   2   4  10  172.80   11.10
   3  -4  10   45.79    6.80
   3  -4  10   44.89    4.57
   3  -4  10   49.90    5.10
  -3   4  10   46.50    6.54
   3   4  10   41.20    6.44
   3  -4 -10   40.45    5.72
   3  -4 -10   41.95    5.78
  -3  -4  10   52.63    6.85
   4  -4  10  149.26   11.04
   4  -4  10  150.96    8.57
  -4   4  10  132.10    9.99
   4   4  10  152.07   11.18
  -4  -4  10  146.10   10.76
   4  -4 -10  151.22    9.51
   5  -4  10    7.29    2.77
   5  -4  10   15.90    7.74
  -5   4 -10    6.22    2.40
   5   4  10    8.66    4.06
  -5  -4  10   12.84    4.11
   5  -4 -10    6.75    3.14
  -6   4  10   13.61    5.25
   6  -4  10   16.25    5.42
   6  -4 -10   22.16    4.60
  -6   4 -10   29.31    4.63
  -6  -4  10   13.13    5.15
   6   4  10   16.02    5.04
   0  -5 -10   37.72    4.15
   0   5  10   38.93    6.04
   0   5 -10   36.20    4.18
   0  -5  10   41.13    5.70
   0   5  10   36.67    3.95
   0  -5  10   36.20    4.35
   1  -5  10  185.30   10.38
   1  -5  10  175.41   10.03
  -1  -5 -10  190.31    8.09
   1   5 -10  189.54    8.60
  -1   5  10  173.58   10.79
  -1   5 -10  193.86   10.46
   1   5  10  200.09   11.91
  -1  -5  10  188.05    8.45
   1  -5 -10  180.21    9.64
  -1  -5  10  182.80   10.60
   1   5  10  178.35    8.02
  -2   5  10  334.74   15.98
   2  -5  10  316.33   15.40
   2  -5  10  342.05   14.93
  -2  -5 -10  332.69   10.67
  -2   5  10  317.48   15.02
  -2  -5  10  341.99   15.77
   2   5  10  342.45   10.72
   2   5  10  351.16   17.00
  -2  -5  10  357.03   11.13
   2  -5 -10  329.25   15.63
  -3   5  10  315.43   15.88
   3  -5  10  330.38   16.35
   3  -5  10  343.57   15.14
   3  -5 -10  330.32   15.73
  -3  -5  10  341.11   16.53
   3   5  10  342.83   17.13
   4  -5  10  134.46   10.69
  -4   5  10  114.53    9.82
   4  -5 -10  131.48    9.73
   4   5  10  138.97   10.95
  -4  -5  10  135.58   10.50
  -4   5 -10  140.17    9.04
  -5   5  10   55.32    8.18
   5  -5  10   39.01    7.41
  -5   5 -10   67.39    6.35
   5  -5 -10   63.28    7.27
   5   5  10   43.88    8.63
  -5  -5  10   61.39    8.38
  -6   5  10  335.91   19.30
   6  -5  10  395.24   21.20
   6   5  10  381.17   20.48
  -6  -5  10  338.04   19.11
   6  -5 -10  361.37   17.27
   0  -6 -10  475.64   19.10
   0   6  10  455.03   17.15
   0  -6  10  465.94   19.38
   0  -6  10  446.40   17.39
   0   6 -10  500.59   18.15
   0   6  10  460.46   20.47
   1  -6  10   24.61    4.41
  -1  -6 -10   20.87    3.33
   1  -6  10   17.98    4.33
  -1   6  10   27.06    4.58
  -1   6  10   12.91    4.25
   1   6 -10   24.52    3.65
  -1  -6  10   23.34    3.65
   1   6  10   27.60    5.88
  -1  -6  10   21.16    4.65
   1   6  10   20.57    3.22
  -2   6  10  236.46   12.62
   2   6 -10  225.21    8.76
  -2  -6 -10  213.86    8.35
   2  -6  10  239.54   12.56
   2  -6  10  245.43   13.10
  -2  -6  10  207.34   12.51
   2   6  10  235.52    8.59
  -2  -6  10  216.00    8.48
   2   6  10  234.92   13.98
   2  -6 -10  217.33   12.68
   3  -6  10  105.12    9.07
   3  -6  10  117.03    8.69
  -3   6  10  115.71    9.31
  -3  -6  10  113.96    9.47
   3   6  10  102.72    9.56
   3  -6 -10  120.34    9.48
  -4   6  10  132.69   10.80
   4  -6  10  119.84   10.23
  -4  -6  10  124.83   10.44
   4   6  10  136.00   11.28
  -4   6 -10  129.99    9.18
   4  -6 -10  129.28    9.96
   5  -6  10   37.37    7.14
  -5   6  10   45.53    7.60
  -5   6 -10   47.91    6.69
   5   6  10   54.87    8.48
  -5  -6  10   46.64    8.03
   5  -6 -10   55.22    7.87
  -6   6  10   52.89    8.57
   6  -6  10   61.53    9.76
  -6  -6  10   60.03    8.83
  -6   6 -10   62.35    6.67
   6   6  10   56.53    9.16
   6  -6 -10   61.88    8.44
   0   7  10   36.01    4.89
   0  -7 -10   41.01    5.24
   0   7 -10   35.49    5.27
   0  -7  10   41.10    4.86
   0   7  10   39.98    6.51
   0  -7  10   32.75    5.57
  -1   7  10   67.78    7.89
  -1  -7 -10   69.05    5.35
  -1   7  10   69.95    6.53
   1   7 -10   67.78    5.56
   1  -7  10   68.74    6.97
   1  -7  10   66.61    7.02
   1   7  10   55.34    8.06
  -1  -7  10   72.38    5.61
   1   7  10   78.08    5.59
  -1  -7  10   66.73    7.07
   2  -7  10  479.13   20.47
  -2   7  10  464.79   20.04
  -2  -7 -10  483.54   15.73
   2  -7  10  506.66   21.02
  -2  -7  10  482.24   21.13
  -2  -7  10  491.22   15.78
   2   7  10  477.72   15.80
   2   7  10  487.17   22.28
   2  -7 -10  465.22   21.11
  -2  -7  10  452.74   15.94
   3  -7  10    6.00    3.44
  -3  -7 -10    3.54    1.10
   3  -7  10    2.15    3.10
  -3   7  10    7.56    3.75
  -3  -7  10    6.41    3.45
   3   7  10    4.18    3.40
   3  -7 -10   12.73    4.35
  -4   7  10  125.91   10.45
   4  -7  10  143.97   11.77
   4  -7 -10  151.00   11.22
  -4   7 -10  145.04   10.11
  -4  -7  10  124.68   10.84
  -5   7  10   33.55    6.80
   5  -7  10   33.68    7.04
   5  -7 -10   27.83    6.07
  -5   7 -10   29.03    5.69
   5   7  10   34.53    7.25
  -5  -7  10   26.62    6.00
   0   8  10   59.55    8.54
   0  -8  10   59.83    5.96
   0  -8  10   52.42    7.55
   0   8  10   51.13    5.72
  -1  -8 -10   80.80    6.21
   1  -8  10  106.13    9.08
  -1   8  10   97.05    9.14
  -1   8  10   94.25    7.81
   1  -8  10   95.86    8.14
   1   8 -10   90.31    6.86
  -1  -8  10   73.76    7.58
   1   8  10   87.35    6.35
   1  -8 -10   79.46    8.19
   1   8  10   75.95    8.73
  -1  -8  10   83.67    6.38
  -2   8  10   -0.45    2.73
  -2  -8 -10    3.52    1.85
   2  -8  10   -1.04    1.48
   2  -8  10    0.05    3.04
  -2  -8  10    0.46    1.68
   2  -8 -10    2.55    3.30
   2   8  10    0.75    1.68
  -2  -8  10    0.86    2.64
  -2  -8  10    1.73    1.63
   2   8  10    0.53    2.50
   3  -8  10   26.95    5.84
  -3  -8 -10   39.16    3.06
  -3   8  10   32.48    6.54
   3  -8  10   41.16    7.05
  -3  -8 -10   35.42    3.13
  -3  -8  10   42.27    7.21
   3  -8 -10   40.43    7.24
  -3  -8  10   34.04    2.26
   4  -8  10  301.37   17.75
  -4   8  10  354.61   18.57
  -4   8 -10  316.48   16.78
  -4  -8  10  300.33   17.54
   4   8  10  337.51   18.93
  -5   8  10    1.52    2.54
   5  -8  10    1.93    3.78
   5  -8 -10   10.01    4.38
  -5   8 -10    4.05    2.90
  -5  -8  10   -0.80    3.40
   5   8  10   -0.08    3.90
   0  -9  10    5.90    3.81
   0  -9  10    1.48    2.59
   0   9  10    2.60    4.00
   0   9  10   -0.20    1.94
  -1   9  10   71.67    7.24
   1  -9  10   78.48    8.02
   1   9 -10   64.23    6.37
   1  -9  10   66.61    7.23
   1   9  10   62.09    5.81
  -1  -9  10   85.60    6.78
   1  -9 -10   61.32   10.34
   2  -9  10   64.56    9.94
  -2   9  10   71.90    7.86
   2  -9  10   67.99    7.80
  -2  -9 -10   64.60    6.17
  -2  -9  10   67.16    5.41
   2  -9 -10   53.06    8.40
   2   9  10   70.06    5.67
   2   9  10   65.76    9.53
  -2  -9  10   69.36    5.60
  -2  -9  10   72.06    9.50
  -3  -9 -10  168.05    7.80
  -3   9  10  164.70   12.36
  -3  -9 -10  155.15    7.60
   3  -9  10  180.09   12.83
   3  -9  10  183.34   13.33
  -3  -9  10  175.05    7.19
   3  -9 -10  194.53   14.01
   3   9  10  180.27   14.07
  -3  -9  10  177.92    7.01
  -3  -9  10  184.57   12.92
  -4   9  10    9.39    4.89
   4  -9  10   13.56    5.76
  -4   9 -10   27.43    6.05
   4  -9 -10   20.66    6.24
  -4  -9  10    9.67    4.71
   4   9  10   16.47    5.28
   0  10  10   35.00    5.55
   0 -10  10   39.63    7.54
   0 -10  10   34.92    5.73
   0 -10 -10   42.22    8.18
   1 -10  10  134.36   10.88
   1 -10  10  104.65    9.30
  -1  10  10  117.24    9.49
   1  10  10  123.43    8.68
  -1 -10  10  106.82    8.25
   1 -10 -10  110.94   10.93
  -1 -10  10   98.65   10.05
   1  10  10  106.26   11.09
  -2  10  10   60.74    8.55
   2 -10  10   56.20    8.28
   2 -10  10   72.73    9.79
   2 -10 -10   69.16   10.05
  -2 -10  10   68.00    9.41
   2  10  10   66.33    6.13
   2  10  10   55.85    9.47
  -2 -10  10   55.75    5.77
   3 -10  10  190.84   14.06
  -3  10  10  187.38   13.33
   3 -10  10  202.18   14.21
   3  10  10  183.08   14.58
   3 -10 -10  163.94   13.59
  -3 -10  10  164.34    7.73
  -3 -10  10  182.17   13.45
   4 -10  10    9.83    4.45
   4 -10  10    4.24    4.38
  -4  10  10    5.77    4.41
   4 -10 -10    5.76    4.76
  -4  10 -10   10.98    4.68
  -4 -10  10    7.41    4.57
   4  10  10   10.29    5.44
   0 -11  10   88.37   11.32
   0  11  10  102.29    8.67
   0 -11 -10   76.64   10.94
   0 -11  10   87.02    8.24
   1 -11  10   48.03    8.36
  -1  11  10   45.00    7.28
  -1 -11 -10   60.59    9.82
  -1 -11  10   52.04    6.26
   1  11  10   55.06    5.98
   1 -11 -10   53.23    9.18
   1  11  10   47.85    9.44
  -1 -11  10   49.11    8.15
   2 -11  10   78.28    9.03
   2 -11  10   66.81    9.77
  -2  11  10   82.97    8.95
   2 -11 -10   76.18   11.04
   2  11  10   63.38   10.25
  -2 -11  10   74.19    8.61
   2  11  10   72.62    6.52
  -2 -11  10   79.58    6.84
  -1   0  11  113.61    7.35
  -1   0 -11  117.18    6.24
   1   0 -11  106.52    6.45
   1   0 -11  106.63    7.04
   1   0  11  112.91    7.87
  -1   0 -11  113.12    7.40
  -1   0  11  106.57    6.55
   1   0  11  111.29    6.15
  -2   0  11   55.95    5.59
   2   0  11   57.29    5.81
  -2   0  11   68.54    4.91
   2   0  11   63.33    4.07
   2   0  11   68.15    4.22
   2   0 -11   63.61    4.58
   3   0  11  356.60   10.96
   3   0 -11  373.74   12.59
   3   0  11  341.88   10.86
   3   0  11  346.95   16.63
  -3   0  11  337.96   15.89
   3   0 -11  346.56   12.19
   4   0 -11   71.68    4.15
   4   0 -11   72.30    4.20
   4   0  11   67.77    7.82
  -4   0  11   65.51    7.56
  -5   0  11   -1.47    2.05
   5   0 -11   -1.86    0.83
   5   0  11    0.59    2.87
   6   0  11  447.43   22.59
   7   0  11    2.11    4.31
  -7   0  11    0.50    3.91
   0   1  11  207.49    9.31
   0   1 -11  185.61    9.41
   0   1  11  211.84   10.52
   0  -1 -11  199.55    9.11
   0   1 -11  184.37    9.23
   0  -1  11  198.09    9.54
   0  -1  11  199.20    9.81
   1  -1  11  122.49    6.74
  -1  -1 -11  130.51    6.32
   1  -1  11  125.19    6.81
  -1   1  11  133.07    7.89
   1   1 -11  125.97    6.77
  -1   1  11  118.24    7.39
  -1  -1 -11  123.85    8.15
   1   1 -11  128.24    7.70
   1  -1  11  129.45    8.18
   1   1  11  118.02    8.03
   1  -1 -11  119.57    7.34
  -1   1 -11  130.31    7.00
  -1  -1  11  126.84    7.99
   1  -1 -11  132.43    7.43
   1   1  11  129.05    6.39
  -1   1 -11  147.07    8.48
  -1  -1  11  116.03    6.77
  -2   1  11  271.76   12.71
   2  -1  11  239.54    9.65
   2   1 -11  245.82    9.50
  -2   1  11  253.02   11.05
   2  -1  11  246.73    9.80
   2  -1  11  266.72   13.07
   2  -1 -11  241.47   10.45
  -2  -1  11  251.09   12.49
   2   1  11  223.05    8.38
  -2  -1  11  238.20    9.62
   2   1  11  264.83   13.32
   3  -1  11  153.42    6.83
   3  -1  11  157.59    6.91
  -3   1  11  160.80   10.10
   3   1 -11  167.84    7.04
   3  -1  11  148.87   10.37
   3   1 -11  148.45    6.24
   3   1  11  142.05   10.40
   3  -1 -11  161.11    7.96
   3  -1 -11  153.11    7.70
  -3  -1  11  168.48   10.54
   4  -1  11  237.55    8.57
  -4   1  11  229.68   13.26
   4  -1  11  249.91    8.71
   4  -1  11  231.90   13.76
   4   1  11  215.77   13.40
   4  -1 -11  234.33    9.74
   4  -1 -11  221.33    9.76
  -4  -1  11  235.37   13.62
  -5   1  11   29.06    5.76
   5  -1  11   33.92    6.78
   5  -1  11   28.48    2.46
   5  -1 -11   29.81    3.35
  -5  -1  11   37.22    6.56
   5  -1 -11   33.90    3.48
   5   1  11   32.36    6.44
   6  -1  11    0.97    3.76
   6  -1  11   -0.71    1.10
  -6   1  11    3.50    3.84
   6   1  11    0.42    2.54
   6  -1 -11   -0.45    1.53
   6  -1 -11   -1.01    1.80
  -6  -1  11    2.40    3.01
   7  -1  11    9.95    5.08
  -7   1  11    7.17    4.70
   7   1  11    8.62    4.85
  -7  -1  11    9.96    4.89
   0   2 -11  846.35   27.50
   0   2  11  856.01   29.05
   0  -2  11  894.16   27.85
   0   2 -11  938.50   28.75
   0  -2  11  882.43   27.97
   0  -2 -11  902.32   26.89
   0   2  11  907.02   27.11
   0  -2 -11  872.23   28.67
   1  -2  11  370.37   14.05
  -1  -2 -11  382.81   15.82
  -1  -2 -11  360.71   12.48
   1  -2  11  379.49   14.18
   1  -2  11  348.41   15.09
   1   2 -11  346.87   14.88
  -1   2  11  358.68   14.64
   1   2 -11  367.59   13.37
  -1   2  11  356.82   15.02
  -1   2 -11  381.85   15.43
   1   2  11  385.53   16.42
   1  -2 -11  360.11   14.46
   1   2  11  358.33   12.50
  -1  -2  11  355.98   13.36
  -1  -2  11  378.50   15.41
   2  -2  11  106.77    6.23
   2   2 -11  113.40    5.46
  -2   2  11  111.22    7.30
   2  -2  11  103.21    6.31
  -2   2  11  120.70    8.20
   2  -2  11  112.57    8.26
   2   2  11  108.05    8.53
  -2  -2  11  109.37    5.49
   2   2  11  110.45    4.53
   2  -2 -11  103.75    6.75
  -2  -2  11  109.05    7.85
   2   2  11  108.32    4.51
   3  -2  11  381.64   17.66
  -3   2  11  368.43   16.98
   3   2 -11  365.09   10.52
   3   2 -11  398.64   10.65
   3  -2  11  388.04   13.84
   3  -2  11  390.24   13.88
   3  -2 -11  391.90   14.95
   3   2  11  399.23   18.30
  -3  -2  11  376.42   17.05
   3  -2 -11  385.62   15.01
   4  -2  11  151.39    7.27
   4  -2  11  151.22   10.82
  -4   2  11  151.84   10.89
   4  -2  11  163.57    7.52
   4   2  11  131.21   10.72
   4  -2 -11  152.13    8.19
  -4  -2  11  145.38   10.67
   4  -2 -11  140.65    8.25
   5  -2  11   87.26    5.31
   5  -2  11   89.39    5.39
   5  -2  11   77.99    8.98
  -5   2  11   77.02    8.78
   5  -2 -11   98.29    6.59
   5  -2 -11   86.04    6.24
   5   2  11   85.75    8.73
  -5  -2  11   87.44    8.49
   6  -2  11   98.59    5.72
  -6   2  11  101.69    9.78
   6  -2  11   85.57    5.78
   6  -2  11   97.72    9.90
   6  -2 -11   89.97    7.01
  -6  -2  11  105.29   10.63
   6  -2 -11   89.79    6.42
   6   2  11  104.08   10.69
   0   3  11    4.38    2.29
   0  -3 -11    4.93    2.18
   0  -3  11    5.68    2.16
   0  -3 -11    6.62    2.70
   0   3 -11    8.94    2.89
   0   3 -11    8.09    2.58
   0   3  11    8.87    3.16
   0  -3  11    5.50    2.47
  -1  -3 -11  876.25   25.01
  -1   3  11  910.29   28.12
   1  -3  11  865.24   27.54
   1   3 -11  848.39   25.84
   1  -3  11  860.31   27.52
   1  -3  11  850.78   30.56
   1  -3 -11  835.23   27.40
   1  -3 -11  819.57   28.11
   1   3  11  859.10   29.78
  -1   3 -11  872.82   28.39
  -1  -3  11  846.81   28.50
   1   3  11  903.85   25.24
  -1  -3  11  852.25   25.87
  -2  -3 -11   92.94    3.90
  -2   3  11  102.61    7.74
   2   3 -11   89.78    4.74
  -2   3  11   91.03    7.04
   2  -3  11   89.55    6.27
   2  -3  11   92.54    6.30
   2  -3  11  108.66    8.05
  -2  -3  11  107.26    8.13
   2   3  11   88.09    7.73
  -2  -3  11   97.18    4.83
   2  -3 -11   93.94    6.84
  -3   3  11  177.45   10.89
   3  -3  11  180.43    9.01
   3  -3  11  165.68   10.86
   3  -3  11  161.96    8.55
   3   3  11  165.61   11.50
   3  -3 -11  178.50    9.61
   3  -3 -11  186.03   10.00
  -3  -3  11  173.81   11.26
   4  -3  11   76.36    5.58
  -4   3  11   77.01    8.10
   4  -3  11   79.06    8.30
   4  -3  11   83.46    5.92
  -4  -3  11   89.17    8.64
   4  -3 -11   75.86    6.67
   4  -3 -11   76.35    6.37
   4   3  11   72.61    7.96
   5  -3  11   90.48    9.94
   5  -3  11   96.45    6.57
   5  -3  11  115.27    7.03
  -5   3  11   89.42   12.76
   5  -3 -11  115.01    7.98
   5  -3 -11  123.09    8.32
   5   3  11  111.03   10.54
   6  -3  11  201.53   14.37
   6  -3  11  206.13   11.06
  -6   3  11  184.85   13.45
   6  -3  11  201.57    9.96
   6  -3 -11  215.46   11.26
   6   3  11  213.07   14.81
  -6  -3  11  208.01   14.44
   0  -4  11    3.17    1.93
   0   4 -11    1.22    1.68
   0   4  11    2.61    2.78
   0  -4  11   -0.12    2.04
   0  -4 -11    2.90    1.89
   0   4  11    1.43    1.97
   1  -4  11  545.17   19.87
   1  -4  11  529.11   19.46
   1   4 -11  476.32   17.01
   1  -4  11  514.38   19.24
  -1   4  11  517.72   20.70
  -1  -4 -11  497.90   16.39
   1   4  11  511.30   21.12
  -1   4 -11  534.65   19.91
   1   4  11  517.90   16.64
   1  -4 -11  514.58   18.90
  -1  -4  11  522.07   17.32
  -1  -4  11  523.72   20.26
   2  -4  11  192.40    9.99
  -2  -4 -11  186.41    6.58
   2  -4  11  199.03   11.91
  -2   4  11  224.77   11.65
   2  -4  11  197.32   11.49
  -2   4  11  198.72   11.31
   2   4  11  217.53   12.61
  -2  -4  11  195.18   11.50
  -2  -4  11  185.97    7.39
   3  -4  11  157.39   11.06
   3  -4  11  169.81    9.29
  -3   4  11  164.06   10.82
   3  -4 -11  178.83   10.47
   3   4  11  172.63   11.92
  -3  -4  11  171.53   11.03
   4  -4  11   56.56    7.96
  -4   4  11   60.19    8.20
   4  -4  11   45.64    4.93
   4  -4  11   56.85    5.51
   4   4  11   63.32    7.29
   4  -4 -11   54.76    6.02
  -4  -4  11   45.61    7.45
   5  -4  11  112.62   10.64
  -5   4  11  108.08    9.93
   5  -4  11  123.79    8.29
   5  -4  11  119.89    8.90
   5  -4 -11  129.52    9.22
   5   4  11  130.45   10.86
  -5  -4  11  112.88   10.42
  -6   4  11  168.46   13.43
   6  -4  11  135.13   12.51
   6  -4 -11  180.25   10.81
  -6  -4  11  187.10   13.77
   6   4  11  186.51   14.07
   0  -5 -11   -0.45    1.63
   0  -5  11   -0.53    1.57
   0   5  11    0.04    2.58
   0   5  11    1.36    1.89
   0   5 -11    3.13    2.23
   0  -5  11    4.04    2.55
  -1  -5 -11  252.95   10.04
  -1   5  11  241.24   11.92
   1   5 -11  244.58   10.51
   1  -5  11  265.09   12.87
  -1   5  11  252.04   13.57
   1  -5  11  276.68   12.87
  -1  -5  11  219.29   12.32
  -1  -5  11  242.49   10.30
   1   5  11  226.26   13.55
   1  -5 -11  238.08   11.78
   1   5  11  253.72   10.09
  -2   5  11  120.27    9.09
   2  -5  11  109.67    8.57
   2   5 -11  108.59    5.25
  -2   5  11  101.06    8.11
   2  -5  11   99.91    7.60
  -2  -5  11  102.84    8.24
  -2  -5  11  103.26    5.05
   2   5  11  104.11    4.67
   2  -5 -11  100.33    8.32
   2   5  11   93.95    8.85
   3  -5  11  230.41   13.43
   3  -5  11  246.66   12.36
  -3   5  11  231.13   13.26
   3   5  11  246.85   14.51
   3  -5 -11  243.69   13.27
  -3  -5  11  223.55   13.48
  -4   5  11  102.29    9.13
   4  -5  11   92.86    7.49
   4  -5  11   94.88    8.99
  -4  -5  11  104.36    9.62
   4  -5 -11   82.97    7.83
   4   5  11  108.90   10.27
  -5   5  11   96.16    9.34
   5  -5  11   94.36    7.81
   5  -5  11   97.90   10.26
   5   5  11   92.62    9.76
  -5  -5  11   80.66    9.21
   5  -5 -11   85.79    7.89
   6  -5  11   52.84    8.71
  -6   5  11   42.72    7.93
  -6  -5  11   42.30    7.66
  -6   5 -11   53.98    6.18
   6  -5 -11   43.94    6.92
   6   5  11   41.72    8.12
   0   6  11   99.64    6.93
   0   6  11   94.74    8.87
   0  -6  11   98.09    7.20
   0  -6 -11   85.79    6.36
   0   6 -11  106.93    7.35
   0  -6  11   92.16    7.69
   1  -6  11   78.36    7.38
  -1   6  11   86.63    8.40
   1  -6  11   97.66    7.69
  -1  -6 -11   79.73    5.58
  -1   6  11   84.62    7.10
   1   6 -11   96.65    6.20
   1   6  11  104.76    9.24
  -1  -6  11   88.25    6.01
  -1  -6  11   86.30    7.78
   1   6  11   86.50    5.67
   2  -6  11  372.34   16.85
  -2   6  11  304.58   15.32
   2   6 -11  320.43   11.45
   2  -6  11  335.61   15.63
  -2  -6 -11  329.31   11.05
  -2  -6  11  327.90   11.37
  -2  -6  11  314.99   16.14
   2  -6 -11  328.28   16.51
   2   6  11  316.43   10.95
   2   6  11  308.17   17.03
  -3   6  11    7.31    3.23
   3  -6  11    2.64    3.05
   3  -6  11   11.90    3.77
   3   6  11   11.33    4.29
   3  -6 -11   11.86    4.28
  -3  -6  11   15.79    4.47
   4  -6  11  117.88   12.80
   4  -6  11  106.84    8.51
   4  -6 -11  112.80    9.63
  -4  -6  11  122.46   10.48
  -5   6  11    9.17    4.51
   5  -6  11   18.65    5.76
   5  -6  11   15.95    4.54
   5   6  11   14.51    5.62
  -5   6 -11    8.43    3.39
   5  -6 -11    5.38    3.67
  -5  -6  11    8.24    4.27
   6  -6  11  121.42   11.92
  -6   6  11  104.81   11.00
   6   6  11   80.38   11.15
   6  -6 -11   81.23    8.94
   0  -7 -11    9.52    3.17
   0  -7  11    6.58    2.90
   0  -7  11    3.48    2.46
   0   7 -11    6.65    2.99
   0   7  11   13.17    3.61
   0   7  11   10.37    3.94
  -1  -7 -11  113.04    6.87
   1  -7  11  112.05    9.09
   1   7 -11  102.07    7.06
  -1   7  11  125.25   10.31
  -1   7  11  112.25    8.41
   1  -7  11   95.13    8.11
  -1  -7  11  119.06    7.39
   1   7  11  125.36   10.64
   1   7  11  114.62    6.94
  -1  -7  11  130.69    9.98
  -2  -7 -11  136.17    6.57
  -2   7  11  138.74    9.87
   2  -7  11  128.84    9.95
   2  -7  11  122.06    9.47
   2  -7 -11  122.02   10.19
  -2  -7  11  137.10   10.25
   2   7  11  138.64   11.39
  -2  -7  11  142.66    7.07
  -2  -7  11  134.11    6.59
   2   7  11  129.33    6.43
   3  -7  11  127.10   10.37
   3  -7  11  122.44    9.52
  -3   7  11  107.21    9.28
   3   7  11  135.40   11.07
   3  -7 -11  125.35   10.39
   4  -7  11  206.41   12.64
  -4   7  11  181.20   13.22
   4  -7  11  182.71   13.59
   4  -7 -11  206.88   13.53
  -4  -7  11  189.10   13.52
   4   7  11  195.41   14.34
   5  -7  11  109.82    9.31
   5  -7  11  133.84   12.10
  -5   7  11  128.01   11.55
  -5   7 -11  104.95    9.47
   5   7  11  106.58   10.64
  -5  -7  11  111.55   10.57
   0  -8  11  122.83    8.71
   0   8  11  125.40    8.36
   0  -8  11  101.32    8.97
   0   8  11  109.95   10.31
  -1  -8 -11  203.05   10.22
  -1   8  11  223.54   12.18
  -1   8  11  185.24   13.69
   1  -8  11  199.67   12.89
   1  -8  11  206.82   12.22
   1   8 -11  188.64   10.28
  -1  -8  11  194.01   10.30
   1  -8 -11  193.76   13.16
   1   8  11  193.97   13.84
  -1  -8  11  212.71   13.19
   1   8  11  205.90   11.69
   2  -8  11  124.79   10.01
  -2   8  11  136.04   10.28
  -2  -8 -11  124.94    7.05
   2  -8  11  124.91   10.18
   2  -8 -11  150.93   11.67
  -2  -8  11  155.12    7.59
   2   8  11  144.42    7.45
  -2  -8  11  156.45    7.80
   3  -8  11  193.36   12.62
   3  -8  11  155.17   14.11
  -3  -8 -11  183.75    8.41
   3  -8 -11  171.90   13.22
  -3  -8  11  178.91   12.63
   3   8  11  192.56   14.26
  -4   8  11   18.26    5.82
   4  -8  11   18.81    5.81
   4  -8  11   13.92    5.33
  -4  -8  11    3.84    3.84
   4  -8 -11   23.35    6.22
   4   8  11   21.11    6.11
   5  -8  11   26.49    5.71
   5  -8  11   28.28    7.15
  -5   8  11   28.54    6.85
   5  -8 -11   14.99    5.20
  -5  -8  11   25.96    6.14
  -5   8 -11   22.34    5.79
   5   8  11   12.80    5.82
   0   9  11  436.52   22.81
   0  -9  11  480.60   21.98
   0  -9  11  476.66   19.75
   0   9  11  464.81   19.13
  -1   9  11   29.64    5.44
   1  -9  11   22.05    5.37
   1  -9  11   21.44    5.02
  -1  -9  11   28.19    4.80
   1   9  11   28.31    6.48
  -1  -9  11   31.59    6.24
   1   9  11   23.69    4.41
   1  -9 -11   31.44    6.95
   2  -9  11   65.60    7.83
  -2   9  11   72.21    7.83
   2  -9  11   75.55    8.61
   2   9  11   72.97   10.50
  -2  -9  11   70.48    5.62
   2  -9 -11   46.45    8.28
  -2  -9  11   62.12    5.34
  -2  -9  11   65.76    9.07
   2   9  11   70.69    5.52
  -3   9  11  560.82   24.93
  -3  -9 -11  549.42   17.29
  -3  -9 -11  520.48   17.08
   3  -9  11  582.61   25.37
   3  -9  11  587.89   25.96
  -3  -9  11  564.85   25.61
   3   9  11  572.58   27.31
   3  -9 -11  614.84   27.00
  -4   9  11    5.10    3.83
   4  -9  11   -1.09    2.95
   4  -9  11    0.02    2.99
   4  -9 -11   10.06    4.31
  -4  -9  11   -2.79    2.68
   4   9  11    3.63    2.88
   0 -10  11  109.41    8.75
   0  10  11   99.71   10.92
   0  10  11   98.64    8.47
   0 -10  11  101.03   10.10
   0 -10 -11  111.27   11.09
   1 -10  11  249.07   15.76
  -1  10  11  240.22   14.00
   1 -10  11  261.06   14.81
   1 -10 -11  246.93   16.47
   1  10  11  228.14   16.59
  -1 -10  11  249.14   15.96
  -1 -10  11  242.33   12.68
   1  10  11  248.03   12.67
  -2  10  11   34.74    6.74
  -2 -10 -11   33.20    4.85
   2 -10  11   36.05    7.06
   2 -10  11   29.04    7.01
   2  10  11   30.34    7.28
  -2 -10  11   36.14    5.76
  -2 -10  11   32.81    7.20
   2 -10 -11   32.41    7.12
  -2 -10  11   31.81    4.87
   2  10  11   34.10    4.96
  -3 -10 -11  178.50    8.05
   3 -10  11  130.92   11.94
  -3  10  11  151.97   12.00
   3 -10  11  135.93   12.04
   3 -10 -11  161.32   13.71
   3  10  11  159.50   13.49
  -3 -10  11  148.33    6.50
  -3 -10  11  145.61   12.51
   0 -11  11    5.69    4.21
   0 -11 -11   -3.46    3.80
   0  11  11    1.22    2.68
   0 -11  11   -2.04    2.77
   1 -11  11  172.33   13.89
  -1 -11 -11  182.88   14.77
   1 -11  11  207.22   13.48
  -1  11  11  190.14   12.94
   1  11  11  179.53   14.93
  -1 -11  11  194.46   11.67
   1 -11 -11  203.78   15.23
  -1 -11  11  207.60   14.48
   2 -11  11   63.13    9.69
  -2  11  11   77.86    8.56
   2 -11  11   54.60    8.70
  -2 -11  11   65.08    6.22
   2 -11 -11   58.18    9.24
   2  11  11   82.78   12.23
  -2 -11  11   48.58    8.87
   0   0 -12  528.56   19.71
   0   0  12  600.48   20.68
   0   0 -12  534.25   19.01
   0   0  12  548.12   19.21
  -1   0 -12   22.39    3.32
  -1   0 -12   16.97    3.97
   1   0 -12   12.05    2.90
   1   0  12   16.74    3.81
  -1   0  12   14.13    3.11
   1   0  12   13.85    2.77
   1   0 -12   14.04    3.32
  -1   0  12   20.08    4.05
   2   0  12  461.25   19.63
   2   0  12  470.90   15.25
  -2   0  12  447.84   16.51
  -2   0  12  492.66   19.21
   2   0 -12  469.52   16.26
   2   0  12  468.63   15.25
  -3   0  12  544.04   21.82
   3   0 -12  542.96   17.45
   3   0  12  548.66   15.94
   3   0 -12  543.26   17.68
   3   0  12  523.02   22.26
  -4   0  12  950.55   33.92
   4   0  12  925.41   34.28
   4   0 -12  976.39   26.74
   4   0 -12  928.84   26.78
   5   0  12  389.54   19.91
   5   0 -12  374.47   11.06
  -5   0  12  391.07   19.46
  -6   0  12   20.87    5.66
   6   0  12   14.02    5.19
   0  -1  12  282.22   12.30
   0   1  12  264.96   14.60
   0   1  12  300.89   12.08
   0  -1  12  294.86   12.76
   0   1 -12  271.96   12.09
   0  -1 -12  264.62   12.53
   0  -1 -12  269.58   11.58
   1  -1  12  287.49   11.85
   1  -1  12  295.25   13.64
  -1   1  12  303.87   13.15
   1   1 -12  290.59   13.21
   1  -1  12  285.01   11.86
  -1  -1 -12  289.06   11.18
   1   1 -12  298.28   12.08
   1  -1 -12  310.27   14.41
  -1  -1  12  311.08   13.71
  -1   1 -12  277.88   13.32
   1   1  12  282.41   13.95
   1   1  12  300.06   11.34
   1  -1 -12  269.98   12.55
  -1  -1  12  303.28   12.32
  -1   1 -12  295.86   12.04
   2  -1  12  286.10   10.94
  -2   1  12  278.52   13.60
  -2   1  12  273.89   12.17
   2  -1  12  251.58   13.54
   2  -1  12  281.31   10.92
   2   1 -12  294.19   10.95
   2   1  12  261.63    9.55
  -2  -1  12  281.38   11.00
   2   1  12  278.99   14.34
   2  -1 -12  275.00   11.74
   2   1  12  273.70    9.68
  -2  -1  12  260.73   13.32
   3  -1  12  162.38    7.14
   3   1 -12  160.49    6.80
   3  -1  12  162.96    7.19
   3  -1  12  163.06   11.09
   3   1 -12  162.22    6.70
  -3   1  12  163.74   10.76
   3  -1 -12  150.24    7.88
   3   1  12  157.99   10.85
   3  -1 -12  172.05    8.52
  -3  -1  12  129.93    9.77
   4  -1  12  426.79   13.41
   4  -1  12  440.86   13.51
  -4   1  12  426.48   19.58
   4  -1  12  380.62   19.32
   4   1  12  420.58   20.37
  -4  -1  12  440.25   19.94
   4  -1 -12  420.93   14.98
   4  -1 -12  439.27   15.37
  -5   1  12   89.11    8.73
   5  -1  12   76.10    3.72
   5  -1  12   94.37    9.56
   5   1  12   89.34    9.01
   5  -1 -12   93.25    5.40
  -5  -1  12   80.18    9.02
   5  -1 -12   82.51    5.26
   6  -1  12   32.88    6.89
  -6   1  12   29.53    6.99
  -6  -1  12   31.98    7.07
   6  -1 -12   24.31    3.24
   6  -1 -12   21.07    2.82
   6   1  12   22.97    6.16
   0   2  12   12.36    2.92
   0  -2 -12   14.29    2.78
   0  -2 -12   10.30    3.10
   0  -2  12   12.45    3.83
   0   2  12   16.93    3.55
   0   2 -12   13.29    3.16
   0  -2  12   11.17    2.90
   0   2 -12   12.99    3.50
  -1   2  12   11.17    3.30
   1  -2  12   14.04    2.98
   1  -2  12    8.25    3.06
  -1  -2 -12   12.44    2.45
   1  -2  12    6.33    2.42
   1   2 -12    6.77    2.29
  -1   2 -12   10.84    3.19
  -1  -2  12   13.54    3.63
   1  -2 -12   13.68    3.17
  -1  -2  12   14.41    2.94
   1   2  12   14.96    2.67
   1  -2 -12   14.25    3.17
   1   2  12   14.57    4.00
  -2   2  12  204.18   10.59
   2  -2  12  175.92   10.94
   2  -2  12  199.75    9.24
   2   2 -12  205.86    8.33
  -2   2  12  218.13   11.39
   2  -2  12  211.56    9.49
   2  -2 -12  180.87    9.94
  -2  -2  12  192.11    8.30
   2   2  12  199.78   12.05
  -2  -2  12  178.90   11.05
   2   2  12  194.50    7.12
   3  -2  12  287.96   11.36
   3   2 -12  269.88    8.60
   3  -2  12  281.46   15.12
  -3   2  12  290.63   14.74
   3  -2  12  293.15   11.37
  -3  -2  12  276.93   14.63
   3   2  12  261.87   14.89
   3  -2 -12  286.83   12.60
   3  -2 -12  267.72   12.10
   4  -2  12  176.08    8.07
   4  -2  12  183.35    8.30
   4  -2  12  183.44   12.66
  -4   2  12  161.10   11.60
  -4  -2  12  174.17   12.09
   4  -2 -12  174.12    9.17
   4   2  12  188.16   12.58
   4  -2 -12  202.48    9.88
   5  -2  12    5.61    3.87
  -5   2  12    1.60    2.23
   5  -2  12    4.03    1.99
   5  -2  12    4.35    2.02
   5  -2 -12    1.34    2.06
  -5  -2  12   10.23    4.40
   5   2  12    2.91    2.52
   5  -2 -12    3.96    2.29
   6  -2  12   56.23    4.15
  -6   2  12   50.94    8.72
   6  -2  12   52.91    4.62
   6  -2  12   61.37    9.54
   6  -2 -12   56.82    5.19
   6   2  12   56.78    9.24
   6  -2 -12   62.61    8.29
  -6  -2  12   57.67    8.81
   0  -3  12   95.12    7.16
   0  -3 -12  101.67    6.45
   0  -3  12  103.52    7.48
   0   3  12   96.73    7.93
   0   3  12  111.53    6.75
   0   3 -12   87.43    7.72
   0  -3  12  109.08    7.15
  -1  -3 -12  131.62    6.48
  -1   3  12  129.03    8.24
  -1   3  12  130.69    8.94
   1   3 -12  133.59    7.18
   1  -3  12  134.33    8.05
   1  -3  12  135.07    8.72
   1   3  12  128.08    9.52
   1  -3 -12  129.07    8.05
   1   3  12  135.95    6.67
  -1  -3  12  124.28    7.07
   1  -3 -12  124.32    8.49
  -1   3 -12  116.00    8.18
  -1  -3  12  138.51    9.01
   2  -3  12   19.25    3.64
   2  -3  12   13.33    4.06
   2   3 -12   11.59    2.29
  -2  -3 -12   10.29    1.65
   2  -3  12   15.82    3.22
  -2   3  12   15.31    4.13
  -2   3  12   16.48    3.85
  -2  -3  12   15.33    2.43
   2   3  12   14.31    1.80
   2  -3 -12   13.80    3.47
  -2  -3  12   14.16    4.00
   2   3  12   12.25    4.02
   3  -3  12  311.18   15.99
   3  -3  12  309.87   12.86
   3  -3  12  321.10   14.35
  -3   3  12  292.22   15.06
  -3  -3  12  315.74   15.89
   3  -3 -12  295.62   13.61
   3   3  12  294.14   16.15
   3  -3 -12  296.04   14.05
   4  -3  12  291.09   12.32
   4  -3  12  269.76   15.79
   4  -3  12  298.36   12.24
  -4   3  12  277.01   15.65
   4  -3 -12  304.33   13.66
   4   3  12  286.20   16.48
  -4  -3  12  278.38   15.65
   4  -3 -12  283.29   13.07
   5  -3  12   10.55    2.92
   5  -3  12   11.65    3.58
   5  -3  12   10.44    4.18
  -5   3  12   10.94    4.49
   5  -3 -12   12.55    3.38
   5   3  12   13.20    4.94
   5  -3 -12    9.61    3.28
  -5  -3  12   11.34    4.75
   6  -3  12   32.77    4.37
   6  -3  12   32.59    7.32
  -6   3  12   33.49    6.86
   6   3  12   34.41    7.25
   6  -3 -12   29.25    4.98
  -6  -3  12   24.08    6.53
   0   4 -12    1.03    1.71
   0  -4  12    2.82    2.53
   0  -4 -12    1.40    1.72
   0  -4  12    0.81    1.65
   0   4  12   -1.40    1.79
   0   4  12    0.47    2.45
  -1   4  12   51.58    5.85
   1   4 -12   56.98    4.69
   1  -4  12   58.72    5.89
  -1   4  12   59.83    5.71
   1  -4  12   56.82    5.63
  -1  -4 -12   49.60    3.99
   1  -4 -12   54.88    5.39
   1   4  12   52.10    6.22
  -1  -4  12   52.61    6.05
  -1  -4  12   46.48    4.38
   1   4  12   49.69    4.12
   2  -4  12  313.02   13.78
   2   4 -12  325.49   11.16
   2  -4  12  341.68   14.33
  -2   4  12  301.88   14.72
  -2  -4 -12  319.97    9.92
  -2   4  12  304.09   15.12
   2  -4  12  308.49   15.29
  -2  -4  12  292.70   15.00
  -2  -4  12  319.73   11.04
   2   4  12  314.97   16.50
   2   4  12  327.80    9.97
   3  -4  12   92.37    6.81
  -3   4  12   87.96    8.06
   3  -4  12   95.24    8.29
   3  -4  12   82.26    6.73
   3   4  12   86.25    8.44
   3  -4 -12   81.14    7.19
  -3  -4  12   86.72    8.11
   4  -4  12   63.06    5.67
  -4   4  12   66.55    7.29
   4  -4  12   68.17    9.08
   4  -4  12   56.27    5.62
   4   4  12   67.65    9.22
   4  -4 -12   56.73    6.52
  -4  -4  12   63.75    7.37
   5  -4  12   29.86    4.72
   5  -4  12   31.98    6.99
  -5   4  12   21.74    6.14
   5  -4 -12   43.24    6.20
   5   4  12   30.84    7.04
  -5  -4  12   31.14    6.29
   6  -4  12   18.02    5.69
  -6   4  12   22.51    6.37
   6  -4  12   17.47    3.94
   6  -4 -12   11.01    3.80
  -6  -4  12   15.60    5.16
   6   4  12   23.44    6.52
   0   5  12  129.94   10.14
   0  -5 -12  135.95    8.00
   0   5 -12  128.92    8.25
   0  -5  12  131.30    9.25
   0   5  12  130.50    7.84
   0  -5  12  151.68    8.59
  -1   5  12  160.73   10.94
   1   5 -12  146.30    7.93
  -1   5  12  142.72    9.05
   1  -5  12  146.29    9.38
  -1  -5 -12  144.21    7.36
   1  -5  12  154.06    9.64
   1   5  12  155.76    7.59
  -1  -5  12  164.66   10.52
   1   5  12  142.20   10.80
  -1  -5  12  149.27    7.93
   2  -5  12   56.09    5.82
   2  -5  12   54.56    6.54
  -2   5  12   44.62    6.43
  -2   5  12   60.40    6.67
   2   5 -12   54.59    3.92
   2   5  12   46.49    7.16
  -2  -5  12   51.48    7.15
   2   5  12   59.20    3.39
  -2  -5  12   55.05    3.80
   3  -5  12  122.54    8.56
   3  -5  12  114.82    9.77
  -3   5  12  135.65   10.22
   3  -5 -12  129.39    9.63
  -3  -5  12  147.96   10.58
   3   5  12  135.25   11.14
   4  -5  12   13.06    3.79
   4  -5 -12   14.68    4.33
  -4  -5  12   16.76    5.19
   4   5  12    8.68    3.41
  -5   5  12   76.56    8.89
   5  -5  12   86.24    7.24
   5  -5  12   81.07    9.28
   5  -5 -12   78.42    7.66
  -5  -5  12   88.85    9.59
   5   5  12   83.15    9.69
   6  -5  12   81.01    7.31
  -6   5  12   62.22    9.32
   6  -5  12   67.85    9.97
   6   5  12   82.70   11.64
   6  -5 -12   66.67    7.61
  -6  -5  12   78.77   10.78
   0  -6 -12  412.13   16.84
   0  -6  12  482.84   20.05
   0   6 -12  475.90   18.41
   0   6  12  455.98   21.04
   0  -6  12  455.16   17.92
  -1   6  12   66.07    6.38
  -1   6  12   63.22    7.47
   1  -6  12   72.63    7.15
   1   6 -12   63.64    5.40
   1  -6  12   66.67    6.71
  -1  -6 -12   69.81    5.15
  -1  -6  12   72.04    7.44
  -1  -6  12   67.97    5.49
   1   6  12   74.09    5.37
   1   6  12   74.68    8.26
  -2   6  12  330.31   15.88
   2  -6  12  327.51   15.64
   2   6 -12  312.87   11.44
   2  -6  12  342.92   16.55
  -2  -6 -12  319.42   10.81
   2  -6 -12  303.76   16.08
  -2  -6  12  298.29   15.90
   2   6  12  326.60   10.88
  -2  -6  12  311.40   11.26
   2   6  12  308.57   17.18
  -3   6  12   22.73    5.41
   3  -6  12   20.91    4.94
   3  -6  12   15.49    3.96
   3  -6 -12   24.06    5.44
   3   6  12   20.19    5.56
  -3  -6  12   21.46    5.67
   4  -6  12  443.42   21.62
  -4   6  12  446.57   21.46
   4  -6  12  421.95   18.83
  -4  -6  12  450.68   21.76
   4   6  12  439.51   22.48
   4  -6 -12  437.90   20.32
   5  -6  12   36.35    7.64
   5  -6  12   38.60    6.26
  -5   6  12   31.54    6.87
  -5  -6  12   27.52    6.38
   5  -6 -12   25.10    5.86
   5   6  12   31.26    7.04
   0   7  12   -1.53    2.09
   0  -7  12    1.11    2.25
   0   7  12    1.65    2.97
   0  -7  12    5.03    3.25
   1  -7  12  211.40   12.89
  -1  -7 -12  232.77   11.83
  -1   7  12  238.76   14.94
  -1   7  12  244.98   12.84
   1  -7  12  232.64   12.97
  -1  -7  12  242.59   11.14
   1   7  12  248.72   10.92
   1   7  12  262.20   15.88
  -1  -7  12  236.80   14.11
   2   7 -12  136.12    7.01
   2  -7  12  154.66   10.69
   2  -7  12  138.18   10.37
  -2   7  12  141.42   10.14
  -2  -7 -12  131.94    6.56
  -2  -7  12  148.24   10.85
   2   7  12  132.52    6.52
  -2  -7  12  136.74    6.81
   2   7  12  135.96   11.65
   2  -7 -12  144.53   11.08
   3  -7  12   19.10    4.75
  -3   7  12   23.53    5.21
   3  -7  12   14.39    4.80
   3   7  12    8.66    3.74
  -3  -7  12   14.90    4.99
   3  -7 -12   20.64    5.61
   4  -7  12   17.14    5.55
   4  -7  12   16.19    4.55
  -4   7  12   13.73    4.84
   4   7  12   11.01    5.09
   4  -7 -12   14.01    4.70
  -4  -7  12   15.74    5.39
   5  -7  12   98.35   10.80
   5  -7  12  105.93    9.18
  -5   7  12   73.65   10.02
  -5  -7  12  103.02   11.10
   5   7  12   88.97   10.68
   5  -7 -12   95.47    9.61
   0  -8  12  107.53    8.06
   0   8  12  115.97   12.25
   0  -8  12   92.89    9.06
   0   8  12   97.34    7.56
  -1   8  12  378.08   20.47
   1  -8  12  364.36   17.07
  -1   8  12  315.01   15.75
   1  -8  12  369.43   18.06
   1   8 -12  346.24   14.95
  -1  -8 -12  342.45   14.17
  -1  -8  12  337.42   20.78
   1   8  12  338.17   19.04
   1  -8 -12  319.26   18.66
  -2  -8 -12   92.06    5.83
   2  -8  12   95.99    8.60
   2  -8  12   97.26    8.78
  -2   8  12   88.35    8.62
  -2  -8  12   95.31    9.46
  -2  -8  12   83.68    5.54
  -2  -8  12   87.22    5.83
   2   8  12   85.74    9.36
   2   8  12   96.47    5.82
  -3   8  12   97.84    9.55
   3  -8  12   97.01    9.92
   3  -8  12   98.62    9.55
   3  -8 -12   89.43    9.67
   3   8  12   96.11   10.07
  -3  -8  12  104.41   10.20
   4  -8  12  169.23   13.00
  -4   8  12  153.22   12.72
   4  -8  12  158.76   12.07
   4  -8 -12  190.09   13.55
   4   8  12  156.04   13.58
  -4  -8  12  165.11   13.18
   0   9  12  820.09   29.03
   0  -9  12  848.03   32.78
   0  -9  12  850.38   29.80
   0   9  12  838.44   34.45
   1  -9  12  108.47   10.01
   1  -9  12  116.73    9.44
  -1   9  12  113.18    9.03
  -1  -9  12   93.00    9.18
   1  -9 -12   91.58    9.67
   1   9  12  110.94   11.27
  -1  -9  12   94.71    7.44
   1   9  12  112.59    7.79
   2  -9  12   58.89   10.15
   2  -9  12   69.04    9.41
   2   9  12   64.92    5.36
   2   9  12   61.04    9.46
   2  -9 -12   58.43    9.19
  -2  -9  12   54.48    5.12
  -2  -9  12   74.23    8.38
  -2  -9  12   58.72    5.06
  -3   9  12   50.99    7.93
   3  -9  12   48.79    8.22
  -3  -9 -12   58.49    3.43
   3  -9  12   71.45    9.63
   3  -9 -12   57.41    8.79
   3   9  12   52.46    9.04
  -3  -9  12   57.16    8.76
   0 -10  12   -5.20    2.26
   0  10  12   -0.60    2.76
   0 -10  12    1.47    2.52
   0  10  12    7.39    3.53
   1 -10  12   48.30    7.36
  -1  10  12   66.31    7.57
   1 -10  12   50.75    8.29
   1 -10 -12   40.51    7.97
   1  10  12   54.87    5.99
   1  10  12   57.00    9.48
  -1 -10  12   56.58    6.17
  -1 -10  12   37.43    7.78
   2 -10  12    5.71    3.75
   2 -10  12   10.55    4.64
  -2  10  12   10.92    4.96
  -2 -10  12    8.83    4.03
   2  10  12    9.87    5.72
   2  10  12    7.07    2.87
  -2 -10  12    9.03    4.19
   2 -10 -12    6.27    4.08
   0 -11 -12   -4.04    2.89
   0  11  12   -0.43    2.91
   0 -11  12   -1.79    2.93
   0 -11  12   -2.00    3.71
  -1   0 -13  316.76   12.65
   1   0  13  313.32   12.56
  -1   0  13  326.65   14.39
   1   0  13  331.20   15.27
  -1   0  13  309.36   13.62
  -2   0  13  419.85   18.29
   2   0  13  429.92   14.75
  -2   0  13  445.27   16.42
   2   0 -13  427.77   15.78
   2   0  13  437.59   19.32
   2   0  13  451.72   14.83
   3   0 -13   96.35    5.83
   3   0 -13  101.02    6.09
   3   0  13   99.21    4.78
   3   0  13   99.47    8.69
  -3   0  13   90.48    8.43
   3   0  13   93.13    4.70
   4   0 -13   42.96    3.58
  -4   0  13   42.98    6.98
   4   0 -13   45.97    3.67
   4   0  13   34.00    6.65
   5   0  13  258.61   16.33
  -5   0  13  273.48   16.32
   5   0 -13  243.34    7.39
   6   0  13   24.27    5.97
  -6   0  13   28.92    6.75
   0  -1 -13   28.71    4.91
   0   1 -13   24.45    4.02
   0   1  13   24.89    4.00
   0   1  13   35.49    5.47
   0  -1  13   31.76    5.65
   0  -1 -13   26.18    4.59
   0   1 -13   26.65    4.31
  -1  -1 -13  373.34   13.80
  -1   1  13  413.17   16.30
  -1   1  13  386.37   15.98
   1  -1  13  384.26   16.70
   1  -1  13  381.85   14.72
   1  -1  13  386.88   14.60
   1   1 -13  345.68   14.42
   1   1  13  367.47   16.88
   1  -1 -13  370.01   15.32
  -1  -1  13  386.21   15.13
   1   1  13  356.84   13.69
  -1  -1  13  390.56   16.30
   1  -1 -13  372.58   17.23
   2  -1  13   47.62    4.49
   2  -1  13   57.63    6.21
   2   1 -13   46.99    4.36
  -2   1  13   45.60    6.42
   2  -1  13   56.50    4.57
  -2   1  13   48.18    5.10
  -2  -1  13   64.46    6.66
   2   1  13   55.23    3.84
   2  -1 -13   59.68    5.33
   2   1  13   61.87    7.09
  -2  -1  13   64.64    4.97
   2   1  13   54.67    3.89
   3   1 -13   53.20    3.98
  -3   1  13   51.81    7.31
   3  -1  13   49.71    4.05
   3  -1  13   61.90    4.38
   3  -1  13   50.17    7.31
   3   1 -13   57.74    4.06
   3  -1 -13   56.51    5.22
   3   1  13   72.81    7.97
   3   1  13   58.08    2.37
   3   1  13   58.49    2.34
  -3  -1  13   56.42    6.45
   3  -1 -13   62.32    5.12
   4   1 -13    0.93    0.66
  -4   1  13    2.51    3.30
   4   1 -13    0.74    0.55
   4  -1  13    3.02    1.49
   4  -1  13    2.69    1.48
   4  -1  13    8.18    3.48
   4  -1 -13    0.48    1.67
   4  -1 -13    1.25    1.91
  -4  -1  13    4.60    3.53
   4   1  13   -0.50    1.96
   5  -1  13   51.27    8.12
  -5   1  13   49.37    7.96
   5  -1 -13   43.26    4.06
   5   1  13   44.70    8.13
   5  -1 -13   38.89    3.84
  -5  -1  13   41.74    7.73
   6  -1  13    3.07    4.14
  -6   1  13    0.91    4.11
  -6  -1  13    8.33    4.90
   6  -1 -13    5.68    1.82
   6   1  13   10.65    4.58
   0  -2  13  707.39   24.57
   0   2 -13  739.32   24.67
   0   2  13  684.30   23.37
   0   2 -13  709.12   24.99
   0   2  13  718.98   26.05
   0  -2  13  744.52   24.80
  -1   2  13  340.67   15.37
  -1   2  13  351.47   15.03
  -1  -2 -13  346.73   12.82
   1   2 -13  371.67   14.05
   1  -2  13  372.80   14.51
   1  -2  13  337.58   15.46
   1  -2  13  345.52   14.22
  -1  -2  13  351.99   15.67
   1  -2 -13  358.19   16.44
  -1  -2  13  356.75   13.94
   1   2  13  329.82   12.69
   1  -2 -13  302.66   14.35
   1   2  13  345.06   16.52
   2  -2  13   93.16    8.11
  -2   2  13  102.58    8.10
   2  -2  13   88.68    6.09
   2   2 -13   93.42    5.56
   2  -2  13   93.08    6.23
   2   2  13   95.42    8.66
   2   2  13   88.57    4.52
  -2  -2  13   80.38    7.67
   2  -2 -13   83.16    6.45
  -2  -2  13   91.94    5.60
   2   2  13   95.03    4.68
   3   2 -13  186.94    6.93
   3   2 -13  190.67    6.97
   3  -2  13  189.31    8.90
   3  -2  13  200.06    9.08
   3  -2  13  194.11   12.63
  -3   2  13  200.67   12.35
   3   2  13  170.25   12.16
   3  -2 -13  196.35   10.06
  -3  -2  13  186.19   12.08
   3  -2 -13  182.92   10.06
   4  -2  13  256.11   10.08
   4  -2  13  256.18   15.31
  -4   2  13  224.20   14.14
   4  -2  13  233.36    9.79
   4   2  13  217.68   14.30
  -4  -2  13  220.03   13.82
   4  -2 -13  233.43   11.30
   5  -2  13  146.82    6.88
   5  -2  13  165.28   13.01
  -5   2  13  143.86   11.60
   5  -2  13  142.59    6.90
  -5  -2  13  164.62   12.22
   5   2  13  147.80   12.40
   5  -2 -13  144.40    8.28
   5  -2 -13  118.29    8.59
   6  -2  13    2.86    3.73
   6  -2  13   -3.61    1.30
  -6   2  13    0.69    3.45
   6   2  13   -2.13    3.17
  -6  -2  13   -7.61    2.84
   6  -2 -13   -3.51    2.11
   0  -3  13    2.96    2.37
   0   3 -13    0.33    2.14
   0  -3  13    4.55    2.66
   0   3  13    3.66    2.34
   0   3  13    3.54    2.85
   1   3 -13  192.67    9.32
   1  -3  13  201.81   10.55
  -1  -3 -13  203.43    8.70
  -1   3  13  184.03   11.16
   1  -3  13  180.51   10.01
  -1   3  13  194.86   10.62
   1  -3  13  186.95   10.82
  -1  -3  13  210.78    9.69
   1   3  13  177.59    8.38
   1   3  13  204.64   12.19
  -1  -3  13  181.39   11.00
   2  -3  13  260.17   13.72
  -2   3  13  238.46   12.81
   2  -3  13  224.34   10.95
  -2   3  13  207.87   11.94
   2   3 -13  223.88    9.25
  -2  -3  13  237.08   13.32
   2   3  13  236.41    8.15
   2   3  13  248.44   14.20
  -2  -3  13  242.64    9.52
   3  -3  13   33.62    4.67
  -3   3  13   34.33    6.23
   3  -3  13   24.82    5.33
   3  -3  13   39.66    4.32
   3   3  13   29.35    6.15
  -3  -3  13   24.81    5.28
   3  -3 -13   21.66    4.86
   3  -3 -13   23.34    4.59
  -4   3  13   16.52    5.06
   4  -3  13   20.74    5.41
   4  -3  13   18.74    3.67
   4  -3 -13   14.51    3.52
   4  -3 -13   20.68    4.50
   5  -3  13   62.48    5.32
  -5   3  13   61.06    8.84
   5  -3  13   63.50    9.48
   5   3  13   59.67    9.28
  -5  -3  13   53.90    8.62
   5  -3 -13   54.80    6.00
   6  -3  13  105.83   11.65
   6  -3  13  130.15    7.33
  -6   3  13  127.51   11.83
   6   3  13  125.60   11.73
   6  -3 -13  118.98    8.37
  -6  -3  13  114.95   11.45
   0  -4 -13  465.83   16.81
   0   4  13  436.79   19.83
   0   4 -13  416.85   17.25
   0   4  13  484.68   17.20
   0  -4  13  431.94   18.23
   1   4 -13  133.80    7.66
  -1   4  13  119.17    9.49
   1  -4  13  146.70    9.22
  -1  -4 -13  130.48    6.90
  -1   4  13  141.90    8.95
   1  -4  13  139.20    9.33
   1   4  13  148.83   10.89
  -1  -4  13  148.12    7.90
  -1  -4  13  126.64    9.29
   1   4  13  147.29    7.33
  -2   4  13  154.58    9.96
   2  -4  13  159.67   10.70
   2   4 -13  136.25    6.77
   2  -4  13  166.43    9.66
  -2   4  13  147.79   10.23
   2   4  13  151.34    5.88
  -2  -4  13  147.50    6.91
  -2  -4  13  158.44   10.87
   2   4  13  153.35   11.14
  -3   4  13  121.58    9.49
   3  -4  13  138.70    8.71
   3  -4  13  131.94   10.45
   3   4  13  117.98   10.73
  -3  -4  13  130.75   10.53
   3  -4 -13  145.22    9.71
   4  -4  13  499.12   19.50
   4  -4  13  554.09   24.66
   4   4  13  579.10   25.59
   4  -4 -13  544.38   21.68
  -4  -4  13  502.48   23.18
  -5   4  13  182.78   13.39
   5  -4  13  161.62   13.01
   5  -4  13  153.74    9.11
   5  -4 -13  156.27   10.32
  -5  -4  13  151.13   12.12
   5   4  13  148.49   12.89
   0   5  13   17.53    4.30
   0  -5 -13   14.33    3.58
   0  -5  13   20.04    4.69
   0  -5  13   19.73    3.79
   0   5  13   17.34    5.03
   0   5 -13   16.66    4.02
  -1   5  13  122.36    9.63
   1  -5  13  113.13    8.62
   1   5 -13  114.78    7.19
  -1   5  13  110.74    8.11
   1  -5  13  124.59    8.93
  -1  -5 -13  111.09    6.52
  -1  -5  13  124.48    7.28
   1   5  13  121.30   10.18
   1   5  13  128.33    6.93
  -1  -5  13  125.83    9.51
   2  -5  13   52.71    6.25
   2   5 -13   51.50    4.09
   2  -5  13   52.81    5.83
  -2   5  13   43.55    6.34
  -2   5  13   50.53    7.39
  -2  -5  13   55.33    7.71
   2   5  13   58.30    3.36
  -2  -5  13   60.19    4.14
   2   5  13   56.96    8.18
   3  -5  13   74.13    8.16
   3  -5  13   84.74    7.30
  -3   5  13   75.44    7.61
  -3  -5  13   74.41    8.26
   3  -5 -13   77.96    7.70
   3   5  13   89.92    9.06
   4  -5  13   49.52    6.44
  -4   5  13   50.23    7.85
   4  -5  13   48.86    7.83
  -4  -5  13   43.66    7.86
   4   5  13   40.95    7.87
   4  -5 -13   48.06    6.66
  -5   5  13    1.90    3.84
   5  -5  13   14.74    4.03
   5  -5  13    8.55    4.22
  -5  -5  13   15.55    5.57
   5   5  13   11.10    5.17
   5  -5 -13    9.93    4.08
   0  -6  13   43.46    5.79
   0  -6 -13   43.21    4.84
   0   6  13   51.10    5.49
   0   6  13   41.45    7.28
   0  -6  13   43.77    6.89
  -1   6  13  238.82   14.64
   1   6 -13  253.71   11.63
  -1  -6 -13  239.19   10.56
   1  -6  13  251.77   13.62
  -1   6  13  229.26   12.53
   1  -6  13  236.87   12.98
  -1  -6  13  221.63   13.32
  -1  -6  13  247.31   11.15
   1   6  13  254.69   10.74
   1   6  13  240.48   15.12
   2  -6  13  118.97    9.18
   2  -6  13  137.36   10.30
  -2   6  13  127.33   10.47
  -2   6  13  124.94    9.61
  -2  -6 -13  125.85    5.80
   2   6 -13  131.72    6.67
  -2  -6  13  135.17   10.56
  -2  -6  13  133.11    6.41
   2   6  13  137.84   11.55
   2  -6 -13  128.17   10.28
   2   6  13  135.29    5.91
  -3   6  13  252.66   14.44
   3  -6  13  263.53   15.43
   3  -6  13  252.32   13.59
  -3  -6  13  214.90   14.18
   3  -6 -13  250.03   14.61
   3   6  13  200.09   14.41
   4  -6  13   45.92    8.22
   4  -6  13   39.69    6.28
  -4   6  13   55.47    8.33
   4  -6 -13   42.93    7.34
   4   6  13   40.09    7.93
  -4  -6  13   39.85    7.80
  -5   6  13  122.16   11.49
   5  -6  13  116.37    9.24
   5  -6  13   99.23   10.83
   5   6  13  118.29   11.76
  -5  -6  13   98.73   10.62
   5  -6 -13  112.58   10.15
   0  -7  13  104.03    9.28
   0   7  13  109.53    7.88
   0  -7  13  106.26    7.88
   0   7  13  100.20   10.42
  -1  -7 -13   47.33    5.55
   1  -7  13   63.51    6.81
  -1   7  13   65.47    6.74
  -1   7  13   75.69    8.19
   1  -7  13   64.46    7.36
   1   7 -13   56.79    5.75
   1   7  13   61.01    5.38
  -1  -7  13   77.15    6.12
  -1  -7  13   62.16    8.47
   2  -7  13  115.96    9.37
   2  -7  13   99.26    9.20
   2   7 -13  106.81    6.20
  -2   7  13  119.51    9.43
  -2  -7 -13   96.55    5.47
  -2  -7  13  105.98    9.77
   2  -7 -13   93.07    9.36
   2   7  13  107.80   10.79
  -2  -7  13  107.44    5.90
   2   7  13   98.96    5.39
   3  -7  13   52.96    7.33
  -3   7  13   34.10    6.62
   3  -7  13   40.06    7.19
   3  -7 -13   31.60    6.80
  -3  -7  13   32.62    6.79
   3   7  13   30.12    6.82
  -4   7  13   14.74    4.65
   4  -7  13   11.90    4.42
   4  -7  13   15.67    5.27
   4   7  13   11.23    4.90
  -4  -7  13   19.27    5.78
   4  -7 -13    7.04    5.52
   0  -8  13   99.32    7.92
   0   8  13   86.06    9.87
   0   8  13   93.76    7.67
   0  -8  13  109.21    9.85
   1  -8  13  132.34    9.83
  -1  -8 -13  111.16    7.61
  -1   8  13  130.17    9.71
  -1   8  13  138.57   11.66
   1   8 -13  128.59    8.63
  -1  -8  13  131.79   11.12
   1   8  13  121.77    7.81
   1   8  13  161.83   12.92
  -1  -8  13  125.47    8.13
  -2   8  13   21.30    5.37
  -2  -8 -13   20.55    3.41
   2  -8  13   25.16    5.81
   2   8  13   28.82    6.82
   2   8  13   21.10    3.15
  -2  -8  13   33.05    6.55
  -2  -8  13   22.25    3.29
   2  -8 -13   30.40    6.38
  -2  -8  13   24.40    3.53
   3  -8  13   18.72    5.50
  -3   8  13   28.22    6.34
   3  -8  13   21.21    5.50
   3  -8 -13   27.99    6.61
  -3  -8  13   24.27    5.96
   3   8  13   21.38    6.02
   4  -8  13   58.42    9.12
   4  -8  13   68.88    7.87
  -4   8  13   50.69    8.68
   4   8  13   60.99    9.77
  -4  -8  13   78.44    9.00
   4  -8 -13   45.93    8.14
   0  -9  13  192.55   13.61
   0  -9  13  178.60   11.34
   0   9  13  166.68   10.70
   0   9  13  186.74   14.46
  -1   9  13   71.54    7.44
   1  -9  13   70.83    7.63
   1  -9  13   79.40    8.90
   1   9  13   69.79    6.24
  -1  -9  13   77.46    8.51
   1   9  13   59.50    9.83
   1  -9 -13   74.76   10.69
   2  -9  13   98.65    9.47
   2  -9  13   81.44   10.65
  -2   9  13   73.50    8.46
   2   9  13  107.24   11.13
   2   9  13   83.36    5.94
  -2  -9  13  105.12   10.44
   2  -9 -13   90.82   10.25
  -2  -9  13   88.28    6.09
   3  -9  13   -1.86    2.24
  -3   9  13   -2.64    3.31
   3  -9  13    7.38    4.32
   3   9  13   -2.35    3.36
   3  -9 -13   -4.17    3.33
  -3  -9  13    2.63    4.13
   0  10  13   45.71    8.90
   0 -10  13   43.39    6.57
   0 -10 -13   35.75    7.57
   0  10  13   44.04    6.48
   0 -10  13   30.10    6.89
   1 -10  13   33.60    7.35
   1 -10  13   33.86    7.65
  -1 -10  13   12.01    5.55
   1 -10 -13   19.95    7.11
   1  10  13   29.01    7.46
  -1 -10  13   26.81    5.30
   1  10  13   27.32    4.92
   2 -10  13   23.23    6.20
   2 -10  13   24.04    6.01
  -2  10  13   35.32    6.52
   2 -10 -13   14.99    6.11
  -2 -10  13   23.34    4.51
  -2 -10  13   36.27    7.77
   2  10  13   27.55    6.36
   0   0  14   27.41    4.72
   0   0  14   35.52    5.42
   0   0 -14   31.30    4.48
   1   0  14  226.22   12.80
   1   0  14  232.63   10.67
  -1   0  14  252.27   12.54
   1   0 -14  228.57   11.30
  -1   0 -14  240.78   10.78
  -1   0  14  225.10   13.38
  -2   0  14  538.20   22.22
  -2   0  14  578.63   20.37
   2   0  14  597.92   23.89
   2   0  14  554.81   18.39
   2   0 -14  576.03   19.84
   3   0  14  252.38    9.32
  -3   0  14  285.34   15.27
   3   0  14  276.23   15.65
  -3   0  14  278.49   11.57
   3   0  14  251.75    9.28
   3   0 -14  261.41   10.91
   4   0  14   26.89    6.55
   4   0 -14    9.63    2.50
   4   0 -14   10.23    2.30
  -5   0  14   14.13    5.15
   5   0  14    7.52    3.68
   6   0  14   44.14    8.63
  -6   0  14   33.86    7.01
   0   1  14  388.50   17.08
   0  -1 -14  368.22   15.03
   0  -1  14  373.01   16.15
   0   1 -14  374.92   17.83
   0   1  14  367.15   16.89
   0  -1  14  398.72   16.08
   1  -1  14  233.68   11.23
  -1  -1 -14  255.35   10.83
   1  -1  14  239.04   11.13
  -1   1  14  251.47   12.54
   1  -1  14  227.32   12.79
   1   1 -14  254.98   11.70
  -1   1  14  250.87   12.59
  -1  -1  14  241.19   12.66
   1   1  14  246.85   10.74
   1   1  14  236.68   13.35
   1  -1 -14  257.08   12.23
  -1  -1  14  236.11   11.53
  -2   1  14  131.83    8.52
   2  -1  14  144.97    7.84
   2  -1  14  132.89    9.91
   2  -1  14  145.02    7.70
   2   1 -14  132.41    7.60
  -2   1  14  150.56    9.94
   2   1  14  165.93   11.32
  -2  -1  14  141.01    7.91
   2  -1 -14  155.73    8.91
  -2  -1  14  149.03   10.24
   2   1  14  148.86    6.93
   2   1  14  154.20    6.94
   3  -1  14   56.86    4.39
   3  -1  14   47.23    4.27
   3   1 -14   51.68    4.23
  -3   1  14   47.51    6.89
   3  -1  14   51.34    7.90
   3  -1 -14   57.51    5.26
  -3  -1  14   59.09    4.45
   3   1  14   59.71    2.63
   3  -1 -14   58.87    5.34
   3   1  14   54.60    7.89
  -3  -1  14   61.54    8.05
   3   1  14   68.03    3.97
   4  -1  14   76.95    4.35
   4   1 -14   73.57    3.09
   4  -1  14   78.62    4.31
   4   1 -14   73.59    3.39
   4  -1  14   81.20    9.17
   4  -1 -14   69.20    5.67
   4   1  14   86.96    9.33
  -4  -1  14   80.69    8.83
   4  -1 -14   91.46    6.15
   5  -1  14   16.31    5.47
  -5   1  14   14.12    5.15
   5  -1 -14   12.58    2.74
   5   1  14   15.17    5.66
  -5  -1  14   14.14    4.95
   5  -1 -14    9.68    2.91
   6  -1  14   -4.24    3.74
  -6   1  14    8.82    4.88
  -6  -1  14    6.47    4.58
   6   1  14   11.85    5.38
   0   2  14  433.84   19.19
   0  -2 -14  443.28   17.00
   0   2 -14  444.50   17.95
   0  -2  14  463.62   18.30
   0  -2  14  481.08   18.58
   0   2  14  465.94   17.41
  -1   2  14   75.55    6.98
   1  -2  14   75.47    6.36
   1   2 -14   76.19    6.85
  -1  -2 -14   79.30    5.36
   1  -2  14   78.74    7.21
   1  -2  14   72.39    6.01
  -1   2  14   83.61    7.06
   1   2  14   79.00    7.84
   1   2  14   70.47    5.27
  -1  -2  14   73.01    5.88
  -1  -2  14   94.91    7.81
   2  -2  14  142.21   10.27
  -2   2  14  151.67   10.13
   2  -2  14  145.74    8.07
   2  -2  14  140.76    8.15
   2   2 -14  144.85    7.36
  -2   2  14  133.29    8.91
   2   2  14  140.71    6.23
   2   2  14  138.43    6.24
  -2  -2  14  125.93    9.39
  -2  -2  14  141.19    7.51
   2  -2 -14  139.67    8.77
   2   2  14  133.91   10.33
   3   2 -14   13.02    2.37
  -3   2  14   17.46    4.57
   3  -2  14   20.65    3.43
   3  -2  14   16.82    4.67
   3  -2  14   13.01    3.01
   3   2  14   15.50    4.46
   3  -2 -14   15.06    3.69
  -3  -2  14   13.80    4.62
   3  -2 -14   17.73    4.58
  -4   2  14    0.96    2.67
   4  -2  14    3.74    2.20
   4  -2  14   -0.51    3.15
   4  -2  14    6.66    2.25
   4   2  14   -0.04    3.29
  -4  -2  14    3.72    3.79
   4  -2 -14    5.23    2.53
   4  -2 -14    1.87    2.35
   5  -2  14   60.03    4.27
   5  -2  14   68.15   10.11
  -5   2  14   55.54    8.68
   5  -2  14   71.28    4.75
  -5  -2  14   53.91    8.64
   5  -2 -14   65.59    5.78
   5   2  14   64.55    9.65
   0  -3 -14   66.70    5.48
   0   3 -14   54.33    5.77
   0   3  14   73.99    7.53
   0  -3  14   69.31    6.24
   0  -3  14   61.61    6.34
   0   3  14   66.95    5.84
   1  -3  14  120.79    8.17
   1   3 -14  117.93    7.41
  -1   3  14  112.46    9.01
  -1  -3 -14  114.82    6.62
   1  -3  14  127.19    9.09
  -1   3  14  138.95    8.90
  -1  -3  14  132.10    9.45
   1   3  14  131.80    6.91
  -1  -3  14  111.39    7.26
   1   3  14  114.47    9.61
  -2   3  14    8.06    3.49
  -2  -3 -14    8.27    1.75
   2   3 -14    8.05    2.37
  -2   3  14   17.63    4.39
   2  -3  14   10.59    2.96
   2  -3  14   10.29    3.23
   2  -3  14    6.52    3.65
  -2  -3  14    5.63    3.53
  -2  -3  14    7.30    2.18
   2   3  14    7.52    1.61
   2   3  14    2.46    3.17
   3   3 -14   97.07    3.57
   3   3 -14   94.96    3.55
   3  -3  14  106.54    7.04
  -3   3  14   85.19    8.09
   3  -3  14   99.33    9.52
   3  -3 -14  103.82    8.26
  -3  -3  14  112.39    9.42
   3   3  14   96.42    9.66
   4  -3  14  214.03   14.29
  -4   3  14  218.81   14.19
   4  -3  14  225.08   10.53
   4  -3  14  219.14   10.38
   4  -3 -14  222.19   11.91
  -4  -3  14  195.76   13.66
   4   3  14  215.93   15.03
   5  -3  14   27.62    6.89
  -5   3  14   18.54    5.36
   5  -3  14   23.79    3.75
   5  -3 -14   19.33    4.40
   5   3  14   18.92    5.92
  -5  -3  14   28.28    6.75
   0  -4  14   13.43    3.55
   0   4 -14   10.05    3.76
   0  -4 -14   10.80    3.09
   0   4  14    6.81    3.51
   0  -4  14    6.02    3.29
   1  -4  14   -0.36    2.34
  -1  -4 -14    1.39    1.78
  -1   4  14    1.18    2.75
   1  -4  14    1.49    2.70
   1   4 -14   -0.67    1.91
  -1   4  14    2.47    2.79
   1   4  14    0.08    2.12
  -1  -4  14    0.80    2.10
   1   4  14    0.99    1.65
  -1  -4  14    2.52    3.06
  -2   4  14  299.77   15.54
  -2   4  14  305.90   15.18
   2  -4  14  278.42   13.66
   2   4 -14  302.03   11.27
   2  -4  14  295.92   15.63
   2   4  14  292.73   16.68
  -2  -4  14  306.78   15.98
   2   4  14  297.95    9.80
  -2  -4  14  284.70   11.13
  -3   4  14   63.04    7.15
   3  -4  14   66.37    7.86
   3  -4  14   75.42    6.64
  -3  -4  14   66.65   10.21
   3  -4 -14   79.61    7.53
  -4   4  14   12.09    4.57
   4  -4  14   13.10    3.52
   4  -4  14   10.99    4.38
   4  -4 -14   11.93    4.17
   4   4  14   20.67    5.73
  -4  -4  14    7.72    4.49
   5  -4  14   98.34   10.61
  -5   4  14   91.44    9.64
   5  -4  14   95.61    7.38
  -5  -4  14   88.35   10.21
   5   4  14   99.61   10.28
   5  -4 -14  102.01    8.28
   0  -5  14   45.75    6.06
   0  -5  14   47.28    6.81
   0   5  14   40.85    7.15
   0   5  14   50.56    5.15
   0  -5 -14   43.66    5.56
  -1  -5 -14   52.08    4.52
   1  -5  14   54.78    6.33
  -1   5  14   54.03    5.86
  -1   5  14   56.44    8.06
   1  -5  14   63.48    6.72
   1   5  14   56.55    4.81
   1   5  14   58.71    8.53
  -1  -5  14   57.33    5.19
  -1  -5  14   62.98    7.19
  -2  -5 -14   26.94    3.01
  -2   5  14   26.87    5.74
   2  -5  14   27.83    4.98
   2   5 -14   25.31    3.40
  -2   5  14   28.60    5.51
   2  -5  14   28.14    5.62
   2   5  14   39.53    7.11
   2   5  14   30.97    2.58
  -2  -5  14   34.87    3.38
  -2  -5  14   28.67    6.07
  -3   5  14  184.44   12.54
   3  -5  14  168.70   12.77
   3  -5  14  182.90   11.04
   3  -5 -14  182.92   12.23
  -3  -5  14  186.17   13.12
   3   5  14  208.40   14.54
   4  -5  14   94.73    7.94
  -4   5  14  102.69   10.08
   4  -5  14   90.63    9.91
  -4  -5  14  101.75   10.52
   4  -5 -14  101.60    8.86
   4   5  14  106.27   10.95
   5  -5  14   36.37    7.70
   5  -5  14   23.79    4.82
  -5   5  14   18.98    5.38
   5   5  14   24.32    6.10
  -5  -5  14   28.79    6.76
   5  -5 -14   28.53    5.43
   0   6  14  149.11    9.14
   0   6  14  156.63   12.13
   0  -6  14  151.27   10.82
   0  -6  14  141.10    9.31
   1   6 -14  121.47    8.05
  -1   6  14  126.58    8.92
   1  -6  14  137.81    9.69
   1  -6  14  138.38   10.02
  -1  -6 -14  123.36    7.28
  -1   6  14  118.79   10.41
   1   6  14  123.60   11.11
  -1  -6  14  115.28    9.46
   1   6  14  121.33    7.09
  -1  -6  14  117.16    7.58
   2  -6  14   95.83    8.95
  -2  -6 -14   97.57    4.90
   2   6 -14   87.28    5.54
   2  -6  14   91.60    8.24
  -2   6  14   87.57    8.15
  -2   6  14   94.86    9.36
   2   6  14   89.05    4.63
  -2  -6  14   82.20    5.23
   2  -6 -14   87.01    8.82
  -2  -6  14   99.76    9.51
   2   6  14   95.87    9.99
  -3   6  14  192.15   15.46
   3  -6  14  231.97   14.59
   3  -6  14  222.18   12.72
   3   6  14  228.45   15.80
   3  -6 -14  221.33   14.00
  -3  -6  14  184.22   13.62
   4  -6  14   53.02    8.58
   4  -6  14   46.23    7.03
  -4   6  14   66.32    9.61
   4  -6 -14   54.03    8.01
   4   6  14   48.89    8.66
  -4  -6  14   55.78    8.56
   0  -7  14   -0.06    2.19
   0   7  14   -0.95    1.98
   0   7  14    0.55    2.68
   0  -7  14   -3.08    2.58
  -1   7  14   62.32    6.92
   1  -7  14   57.47    6.50
   1   7 -14   41.37    5.49
  -1  -7 -14   48.06    5.18
   1  -7  14   53.80    7.78
   1   7  14   58.81    5.23
   1   7  14   64.10    9.81
  -1  -7  14   64.53    7.39
  -2   7  14    6.83    3.86
   2  -7  14   26.32    6.01
  -2  -7 -14   11.57    2.41
   2   7 -14    7.06    2.67
   2  -7  14   14.31    4.70
  -2  -7  14   17.56    2.82
   2   7  14   18.21    5.76
   2   7  14   14.86    2.45
  -2  -7  14   19.56    5.70
  -3   7  14  123.46   10.61
   3  -7  14  139.24   10.56
   3  -7  14  111.32   10.73
   3   7  14  110.38   11.32
   3  -7 -14  127.22   11.05
  -3  -7  14  124.05   11.35
   4  -7  14   20.31    4.93
  -4   7  14   17.99    5.28
   4  -7  14    9.84    5.11
   4   7  14    8.33    4.15
  -4  -7  14   22.97    6.01
   4  -7 -14   23.18    6.05
   0   8  14   87.53    7.57
   0  -8  14   86.53    8.99
   0  -8  14   76.95    7.25
   0   8  14   86.36   10.27
   1  -8  14   92.24    9.09
   1  -8  14   74.73    7.75
  -1   8  14   81.33    7.73
  -1   8  14   90.89   10.23
  -1  -8 -14   72.87    6.61
   1   8  14   97.16    6.93
  -1  -8  14   81.51    9.25
   1   8  14   97.93   10.75
  -1  -8  14   92.41    7.16
   2  -8  14  100.20    9.54
   2  -8  14  100.87    9.57
  -2  -8 -14   82.23    5.53
   2   8  14   89.31    5.57
   2  -8 -14   92.16    9.94
   2   8  14   95.58   10.32
  -2  -8  14   84.47    5.96
  -2  -8  14   94.25    5.82
  -2  -8  14   97.92   10.04
  -3   8  14   60.69    8.86
   3  -8  14   73.01    8.35
   3  -8  14   75.51    9.08
  -3  -8  14   74.84   10.59
   3  -8 -14   61.94    8.99
   3   8  14   85.58    9.79
   0   9  14   79.57    7.39
   0  -9  14   89.59    8.11
   0  -9  14   83.36    8.83
   0   9  14   73.15   11.10
   1  -9  14  179.77   12.24
   1  -9  14  195.93   13.76
  -1   9  14  186.29   11.87
  -1  -9  14  179.99   10.34
  -1  -9  14  166.54   13.42
   1  -9 -14  180.19   14.09
   1   9  14  173.40   14.23
   1   9  14  179.99   10.11
   2  -9  14   43.50    7.52
  -2   9  14   38.44    6.83
   2  -9  14   56.21    8.40
  -2  -9  14   51.84    8.87
   2   9  14   41.65    4.46
   2   9  14   38.04    8.29
  -2  -9  14   37.55    4.41
   2  -9 -14   29.50    6.83
   0   0  15    8.28    2.92
   0   0  15    9.98    3.30
   1   0  15  270.89   12.05
  -1   0 -15  270.53   12.07
   1   0  15  270.64   14.49
   1   0 -15  264.86   14.46
  -1   0  15  263.13   13.54
  -1   0  15  284.18   13.45
   2   0  15  287.21   11.49
   2   0  15  261.17   11.03
  -2   0  15  287.21   12.98
  -2   0  15  264.74   14.44
   2   0 -15  285.15   12.66
   2   0  15  282.92   15.36
   3   0  15  434.45   14.06
  -3   0  15  468.60   16.78
  -3   0  15  431.95   20.40
   3   0  15  434.65   14.09
   3   0  15  439.30   21.39
   3   0 -15  426.37   15.97
   4   0 -15   76.87    5.21
  -4   0  15  103.38    9.41
   4   0  15   93.11    9.43
   4   0 -15   86.28    5.41
  -5   0  15   34.10    7.02
   5   0  15   36.72    7.54
   0  -1  15  151.23    9.31
   0   1  15  136.47    9.74
   0  -1 -15  139.78    8.57
   0   1  15  135.21    8.57
   0  -1  15  146.85    9.58
   1  -1  15   94.36    6.92
   1  -1  15   96.03    7.17
  -1   1  15   75.32    7.26
  -1  -1 -15   99.33    7.56
  -1   1  15   99.23    8.09
   1  -1  15  101.96    8.49
   1   1 -15  106.94    7.47
   1   1  15   98.82    8.70
  -1  -1  15  108.45    7.63
  -1  -1  15  107.88    8.44
   1   1  15  107.98    6.93
   2  -1  15   37.75    4.37
  -2   1  15   42.20    5.75
   2   1 -15   33.47    4.39
   2  -1  15   40.68    4.27
   2  -1  15   41.01    6.60
  -2   1  15   40.36    6.36
  -2  -1  15   34.70    5.94
   2  -1 -15   40.45    5.35
  -2  -1  15   39.69    4.57
   2   1  15   47.44    3.99
   2   1  15   44.13    3.88
   2   1  15   43.70    6.90
   3  -1  15  816.79   31.42
   3   1 -15  787.67   24.15
   3  -1  15  783.19   24.22
   3  -1  15  809.96   24.38
  -3   1  15  814.35   30.48
  -3   1  15  804.88   26.78
   3   1  15  793.29   31.44
  -3  -1  15  804.44   30.37
   3   1  15  783.28   21.31
   3  -1 -15  757.72   25.83
   3  -1 -15  807.50   26.57
  -3  -1  15  810.16   24.69
   4   1 -15  139.00    5.03
   4  -1  15  144.59   12.08
  -4   1  15  152.07   11.56
   4  -1  15  135.87    6.02
   4  -1  15  140.96    6.14
   4  -1 -15  127.69    7.98
   4  -1 -15  139.78    8.00
  -4  -1  15  170.29   12.55
   4   1  15  149.96   12.37
   5  -1  15  125.87   11.87
  -5   1  15  120.54   11.03
   5  -1 -15  102.67    6.19
  -5  -1  15  124.17   11.67
   5   1  15  121.60   11.45
   0   2  15  151.44    9.05
   0  -2  15  167.10   10.11
   0   2  15  148.29   10.49
   0  -2  15  149.01    9.69
   0  -2 -15  141.39    8.54
   1   2 -15   80.50    6.19
   1  -2  15   71.89    7.26
  -1   2  15   78.31    6.92
  -1   2  15   66.09    6.87
   1  -2  15   88.35    7.00
  -1  -2 -15   73.26    5.39
  -1  -2  15   64.05    5.95
  -1  -2  15   75.09    7.00
   1   2  15   67.37    7.61
   1   2  15   59.41    5.23
  -2   2  15   94.60    8.13
   2   2 -15   81.05    5.81
   2  -2  15   81.92    7.37
   2  -2  15   85.64    6.29
   2  -2  15   80.98    7.82
  -2   2  15   80.40    7.12
  -2  -2  15   77.58    5.77
  -2  -2  15   75.65    7.94
   2   2  15   72.49    4.55
   2   2  15   79.88    4.70
   2   2  15   76.70    8.37
   3   2 -15  603.45   18.10
   3  -2  15  582.48   25.31
  -3   2  15  576.32   24.49
  -3  -2  15  588.82   24.80
   3  -2 -15  611.46   22.40
  -4   2  15   20.61    5.65
   4  -2  15   24.86    3.57
   4  -2  15   23.31    6.40
   4  -2  15   22.30    3.39
  -4  -2  15   16.13    5.18
   4   2  15   21.32    6.36
   4  -2 -15    9.51    3.56
   4  -2 -15   20.13    4.51
   5  -2  15    9.90    2.24
  -5   2  15   20.31    5.73
   5  -2  15    4.81    4.52
   5   2  15   17.96    5.70
  -5  -2  15   19.06    6.32
   5  -2 -15   14.50    3.30
   0   3  15    2.11    2.17
   0  -3 -15    1.45    1.99
   0  -3  15    1.18    2.35
   0   3  15    2.48    2.93
   0  -3  15    4.81    3.29
  -1   3  15  253.93   14.13
   1  -3  15  277.96   13.14
   1   3 -15  243.00   11.68
  -1  -3 -15  262.52   11.05
  -1   3  15  251.98   13.00
   1  -3  15  252.89   13.65
  -1  -3  15  267.68   12.09
   1   3  15  261.28   15.10
   1   3  15  236.50   10.62
  -1  -3  15  238.63   13.61
   2  -3  15  159.55   11.10
  -2   3  15  143.28    9.98
  -2   3  15  145.99   10.30
   2  -3  15  153.66    9.01
   2   3 -15  126.81    7.19
   2   3  15  135.47    6.04
  -2  -3  15  137.06   10.69
  -2  -3  15  135.17    7.42
   2   3  15  126.21   11.03
  -3   3  15   14.20    4.55
   3  -3  15   14.49    3.66
   3   3 -15   10.52    1.59
   3  -3  15   12.49    3.11
   3  -3  15    8.48    3.96
   3  -3 -15   10.75    3.53
  -3  -3  15   17.88    5.48
   3   3  15   16.65    5.62
   4  -3  15   68.39    9.76
  -4   3  15   61.74    8.68
   4  -3  15   49.69    8.60
   4  -3  15   54.15    5.76
   4   3  15   56.43    9.15
  -4  -3  15   53.96    8.60
   4  -3 -15   56.15    6.28
   5  -3  15   86.30    9.99
   5  -3  15   65.63    5.67
  -5   3  15   92.36   10.19
   5  -3 -15   92.64    7.60
   5   3  15   86.61   10.03
  -5  -3  15   90.45   10.30
   0  -4  15    1.55    2.36
   0   4  15   -0.67    2.65
   0   4  15   -0.02    2.12
   0  -4 -15   -2.35    1.66
   0  -4  15    0.84    2.15
  -1  -4 -15    7.26    2.34
  -1   4  15    3.84    3.15
   1  -4  15    8.17    3.19
   1  -4  15    9.43    3.64
  -1   4  15   12.09    3.75
   1   4 -15    9.08    2.93
   1   4  15   10.07    2.73
  -1  -4  15    5.84    2.57
  -1  -4  15   11.12    3.58
   1   4  15    3.21    3.52
   2   4 -15   38.43    4.00
   2  -4  15   53.79    6.71
  -2   4  15   38.86    6.37
   2  -4  15   45.48    7.18
  -2   4  15   42.82    6.80
  -2  -4 -15   42.23    3.21
  -2  -4  15   38.41    3.96
   2   4  15   38.90    2.91
   2   4  15   32.23    6.93
  -2  -4  15   49.57    7.22
   3  -4  15   86.03    7.25
  -3   4  15   69.19    7.58
   3  -4 -15   82.31    8.01
   3   4  15   82.01    9.00
  -3  -4  15   95.39    9.14
  -4   4  15   20.34    5.95
   4  -4  15   22.40    4.22
   4  -4  15   36.16    7.45
  -4  -4  15   22.46    6.38
   4  -4 -15   17.62    4.46
   4   4  15   20.98    5.95
  -5   4  15  138.19   12.44
   5  -4  15  135.85    8.71
   5  -4 -15  151.94   10.31
  -5  -4  15  154.46   13.10
   5   4  15  132.68   12.33
   0  -5  15   59.53    6.17
   0   5  15   42.09    5.75
   0  -5  15   51.21    7.20
   0   5  15   47.20    7.91
  -1   5  15  355.92   18.42
  -1   5  15  346.42   16.06
   1  -5  15  362.33   17.00
   1  -5  15  340.32   16.79
  -1  -5 -15  346.14   13.46
  -1  -5  15  352.00   14.61
   1   5  15  345.10   18.88
  -1  -5  15  372.06   17.95
   1   5  15  344.06   13.56
  -2   5  15   71.62    7.46
   2  -5  15   82.58    7.51
   2   5 -15   72.53    5.29
  -2  -5 -15   78.90    4.22
  -2   5  15   77.88    8.50
   2  -5  15   82.71    8.53
   2   5  15   80.26    4.14
  -2  -5  15   82.38    8.32
   2   5  15   84.99    9.17
  -2  -5  15   72.81    5.04
  -3   5  15   43.58    7.38
   3  -5  15   28.19    6.22
   3  -5  15   41.77    6.26
   3  -5 -15   30.87    6.11
   3   5  15   42.05    7.68
  -3  -5  15   39.55    7.58
  -4   5  15   22.92    6.01
   4  -5  15   20.40    4.48
   4  -5  15   27.55    6.40
  -4  -5  15   13.98    5.11
   4  -5 -15   15.62    4.51
   4   5  15   31.85    7.04
   0  -6  15   15.13    4.77
   0   6  15   22.53    4.49
   0  -6  15   18.09    4.11
   1  -6  15  159.21   10.71
   1  -6  15  137.48   10.55
  -1   6  15  148.01    9.93
  -1   6  15  181.76   12.97
   1   6 -15  127.35    8.70
   1   6  15  148.46   12.38
  -1  -6  15  146.51   11.51
   1   6  15  157.85    8.34
   2   6 -15   94.19    6.09
   2  -6  15   76.32    8.53
  -2  -6 -15   95.37    4.95
  -2   6  15  103.90    9.09
   2  -6  15   95.55    8.79
  -2   6  15   84.35    9.10
   2   6  15  104.48    4.96
  -2  -6  15  100.18    5.77
   2   6  15  116.52   10.83
  -2  -6  15  102.31    9.93
   2  -6 -15  104.37    9.66
  -3   6  15   32.85    6.41
   3  -6  15   30.88    6.05
   3  -6  15   21.71    5.92
  -3  -6  15   18.54    5.74
   3   6  15   24.16    6.61
   3  -6 -15   30.63    6.33
   4  -6  15    1.16    4.19
   4  -6  15    7.18    3.77
  -4   6  15    9.01    4.51
  -4  -6  15    0.43    4.68
   4   6  15    4.43    3.72
   4  -6 -15    3.61    3.61
   0  -7  15  415.64   18.17
   0  -7  15  432.80   20.70
   0   7  15  421.27   17.45
   0   7  15  401.88   21.74
  -1   7  15  161.13   13.01
   1  -7  15  139.21   11.22
  -1  -7 -15  129.51    8.25
  -1   7  15  146.45   10.18
   1  -7  15  164.64   11.27
   1   7  15  169.46   13.75
  -1  -7  15  155.72    9.13
  -1  -7  15  143.24   11.22
  -2   7  15  110.38    9.64
  -2  -7 -15   96.99    5.31
   2  -7  15   84.87   12.17
   2   7 -15   95.31    6.43
  -2  -7  15  103.31    5.94
   2  -7 -15   96.67   10.12
   2   7  15  103.42    5.24
   2   7  15  112.66   11.52
  -2  -7  15   89.49    9.74
   3  -7  15   97.27    9.57
  -3   7  15   98.50    9.54
   3  -7 -15   81.39    9.31
   3   7  15   82.87   11.83
  -3  -7  15   70.80    9.88
   0   8  15   25.59    6.31
   0  -8  15   21.53    4.82
   0  -8  15   28.95    6.63
   0   8  15   20.19    4.49
  -1   8  15   18.27    6.28
   1  -8  15   26.88    6.42
   1  -8  15   32.29    6.08
  -1   8  15   17.29    4.72
  -1  -8  15   34.62    5.25
  -1  -8  15   41.58    7.89
   1   8  15   29.16    6.61
   1   8  15   34.88    4.75
  -2   8  15   83.32    8.32
   2  -8  15   82.21    8.88
   2  -8  15   91.71    9.37
   2   8  15   83.51    5.24
  -2  -8  15   63.40    9.48
   2   8  15   68.77   10.46
   2  -8 -15   58.14    9.01
  -2  -8  15   78.41    5.41
   0   9  15   32.26    6.87
   0   9  15   50.37    6.67
   0  -9  15   42.30    8.54
   0  -9  15   58.66    6.93
   1  -9  15   88.31    8.93
   1  -9  15   93.45   10.15
  -1   9  15   72.99   10.83
  -1   9  15   96.93   10.59
   1  -9 -15  107.51   11.33
  -1  -9  15   99.70    7.65
  -1  -9  15  110.44   11.02
   1   9  15  105.23   11.20
   1   9  15   96.15    7.24
   0   0  16  845.22   30.22
   0   0  16  839.37   28.57
  -1   0 -16   26.17    4.25
   1   0  16   21.38    4.05
  -1   0  16   19.24    4.62
   1   0  16   25.89    5.13
  -1   0  16   26.33    4.90
   2   0  16    5.37    2.50
   2   0  16    8.22    2.48
   2   0  16    7.30    3.96
  -2   0  16    5.86    3.78
   2   0 -16    4.15    2.94
  -2   0  16    3.74    2.68
   3   0  16  728.68   22.04
   3   0  16  783.03   31.08
   3   0  16  747.28   22.08
  -4   0  16   -2.90    2.79
   4   0 -16    0.88    1.80
   4   0 -16   -6.02    2.03
   4   0  16   -2.13    3.42
   5   0  16    5.10    4.27
  -5   0  16    1.77    3.75
   0   1  16   36.60    6.07
   0  -1  16   30.20    5.25
   0  -1  16   27.06    5.03
   0   1  16   43.33    5.97
  -1  -1 -16    5.66    2.37
  -1   1  16    2.44    2.79
   1  -1  16    6.02    2.73
  -1   1  16    5.96    3.31
   1  -1  16   10.84    3.84
   1   1  16    7.78    2.66
  -1  -1  16    2.72    2.84
  -1  -1  16    6.12    2.67
   1   1  16    5.73    3.71
   2  -1  16  358.76   13.93
   2   1 -16  332.96   14.04
   2  -1  16  306.18   13.24
   2  -1  16  336.79   17.55
  -2   1  16  331.16   16.57
  -2   1  16  334.21   15.42
  -2  -1  16  308.11   16.16
   2   1  16  293.18   12.06
   2   1  16  345.37   12.56
   2   1  16  335.69   17.77
  -2  -1  16  323.34   14.00
   3  -1  16   24.19    3.47
   3   1 -16   13.59    3.16
  -3   1  16   22.24    4.30
   3  -1  16   15.00    3.18
   3  -1  16   24.98    6.02
   3   1  16   20.29    1.96
   3  -1 -16   16.94    3.70
   3   1  16   11.33    5.01
  -3  -1  16   12.29    4.17
   3  -1 -16   10.33    3.97
  -3  -1  16   21.59    3.47
   4  -1  16    7.98    4.63
   4  -1  16    2.25    1.60
   4   1 -16    2.82    2.38
  -4   1  16    0.14    3.35
   4  -1  16    4.23    1.83
   4  -1 -16    0.93    2.31
  -4  -1  16    5.71    3.94
  -5   1  16   22.99    5.99
   5  -1  16   18.87    5.21
   5  -1 -16   14.96    3.02
   5   1  16   19.61    6.25
  -5  -1  16   16.18    5.73
   0  -2  16  187.26   11.39
   0   2  16  181.08   12.05
   0   2  16  195.00   10.59
   0  -2  16  165.32   10.75
  -1   2  16  245.98   13.16
   1  -2  16  260.95   12.77
   1  -2  16  252.40   14.03
  -1  -2 -16  229.30   10.98
  -1   2  16  243.77   13.75
   1   2 -16  240.52   12.15
  -1  -2  16  266.28   14.11
   1   2  16  244.81   14.76
  -1  -2  16  266.69   12.74
   1   2  16  244.74   11.22
  -2   2  16   15.42    4.55
   2  -2  16   15.84    4.99
   2  -2  16   16.26    3.70
  -2   2  16   14.93    3.95
   2   2 -16    6.78    2.89
   2  -2  16   16.65    3.82
  -2  -2  16   12.16    4.60
   2   2  16   14.26    2.39
   2   2  16   21.35    5.63
  -2  -2  16   15.79    3.28
   2   2  16   16.01    2.68
   3   2 -16   42.20    3.99
   3  -2  16   45.90    4.93
   3  -2  16   49.40    5.22
   3  -2  16   48.85    7.97
  -3  -2  16   54.90    4.22
   3  -2 -16   70.59    6.80
  -3  -2  16   61.22    8.37
   3   2  16   55.74    8.90
  -4   2  16  100.32   10.07
   4  -2  16   85.79    6.15
   4  -2  16   81.21    5.72
   4  -2  16   92.53   10.09
   4   2  16   95.27   10.34
   4  -2 -16   86.35    7.25
  -4  -2  16   99.68   10.16
  -5   2  16   19.14    5.78
   5  -2  16   18.65    5.51
  -5  -2  16    5.19    3.55
   5  -2 -16    5.92    3.46
   5   2  16    6.64    4.38
   0  -3  16   38.73    6.19
   0   3  16   49.92    7.43
   0  -3  16   57.97    6.34
   0   3  16   51.97    5.64
   1  -3  16   28.46    5.12
  -1   3  16   42.15    6.07
   1   3 -16   28.97    4.84
   1  -3  16   36.75    6.04
  -1   3  16   30.72    5.91
  -1  -3  16   25.42    5.62
   1   3  16   37.36    7.10
  -1  -3  16   38.14    5.36
   1   3  16   35.78    4.58
   2  -3  16  129.77    8.92
   2   3 -16  128.33    7.63
   2  -3  16  120.54   10.32
  -2   3  16  148.06   10.53
  -2   3  16  145.19   10.35
  -2  -3  16  136.52   10.51
  -2  -3  16  149.11    7.98
   2   3  16  151.86    6.42
   2   3  16  124.98   13.23
   2   3  16  132.04    6.23
  -3   3  16   86.76    9.08
   3  -3  16   95.85    9.31
   3  -3  16   70.34    6.37
   3  -3 -16   78.71    7.88
   3   3  16   83.66    9.53
  -3  -3  16   96.67    9.84
  -4   3  16    2.46    3.87
   4  -3  16    7.50    4.11
  -4  -3  16    3.01    4.14
   4  -3 -16    2.42    3.06
   4   3  16   13.63    5.42
   0   4  16   49.66    5.63
   0  -4  16   47.28    6.55
   0   4  16   68.20    8.06
   0  -4  16   60.35    7.86
   1  -4  16    6.07    3.08
  -1   4  16    2.53    2.99
   1  -4  16   -2.38    2.13
   1   4 -16   -2.48    2.82
  -1   4  16    2.06    2.52
  -1  -4  16   -1.11    2.16
   1   4  16    1.91    2.70
   1   4  16   -1.00    1.63
  -1  -4  16    2.47    2.33
   2  -4  16   14.30    4.62
   2  -4  16   11.76    3.88
  -2   4  16   13.72    4.12
  -2  -4 -16    9.87    2.02
  -2   4  16   16.68    4.58
   2   4 -16    9.63    2.92
  -2  -4  16   11.55    2.70
   2   4  16   11.94    2.06
  -2  -4  16   10.38    4.94
   2   4  16   11.01    4.23
  -3   4  16  114.62   10.06
   3  -4  16  113.19   10.23
   3  -4  16  105.49    8.25
  -3  -4  16  121.90   10.98
   3  -4 -16  109.17    9.17
   3   4  16  114.56   10.92
   4  -4  16    7.56    3.40
   4  -4  16   16.86    5.74
  -4   4  16   10.05    3.97
  -4  -4  16   17.96    6.26
   4   4  16   13.53    5.24
   4  -4 -16   10.51    4.24
   0   5  16   17.11    6.08
   0   5  16   19.39    4.21
   0  -5  16   23.61    5.36
   0  -5  16   17.21    4.02
   1  -5  16   46.92    6.88
   1  -5  16   39.71    6.43
  -1   5  16   39.70    7.09
  -1   5  16   59.00    6.25
   1   5 -16   42.67    5.65
  -1  -5  16   42.08    4.95
   1   5  16   49.35    8.48
   1   5  16   44.09    4.56
   2   5 -16  272.99   11.38
  -2   5  16  308.57   15.96
  -2   5  16  319.14   17.08
  -2  -5 -16  274.77    9.57
   2  -5  16  305.63   16.59
   2  -5  16  277.93   14.48
   2   5  16  265.70   17.24
  -2  -5  16  241.70   10.81
  -2  -5  16  293.67   16.76
   2   5  16  271.45    9.43
  -3   5  16  154.70   11.88
   3  -5  16  154.86   10.15
   3  -5  16  145.17   12.13
  -3  -5  16  137.39   12.12
   3  -5 -16  136.25   10.81
   3   5  16  157.18   13.34
   4  -5  16   37.16    5.73
  -4   5  16   32.92    7.06
   4  -5  16   24.63    5.98
  -4  -5  16   46.96    8.62
   4   5  16   36.41    8.11
   4  -5 -16   47.09    7.24
   0  -6  16  459.75   21.57
   0   6  16  439.06   22.51
   1  -6  16   -3.51    2.44
   1   6 -16   -0.32    3.35
   1  -6  16   -3.40    2.57
  -1  -6 -16    2.29    2.31
  -1   6  16    0.29    3.33
  -1   6  16    5.70    2.98
   1   6  16    4.82    4.21
  -1  -6  16    7.58    3.82
   1   6  16    5.95    2.30
  -1  -6  16   -1.68    1.99
  -2   6  16   12.70    4.28
   2  -6  16   10.97    4.36
   2   6 -16   -6.13    2.60
  -2   6  16   13.50    5.00
   2  -6  16    4.12    3.92
  -2  -6 -16    4.36    1.71
  -2  -6  16   10.55    2.47
   2   6  16   12.61    5.10
   2  -6 -16    4.29    3.73
  -2  -6  16   10.01    4.97
   2   6  16    4.79    1.59
   3  -6  16    3.36    3.12
   3  -6  16    2.72    3.59
  -3   6  16    0.95    3.28
   3   6  16    6.99    5.05
   3  -6 -16   -2.00    2.82
  -3  -6  16   -5.27    3.54
   0  -7  16   -0.69    2.70
   0   7  16    2.34    3.07
   0  -7  16   -1.79    3.35
   0   7  16    2.60    2.60
   1  -7  16  105.50    9.46
  -1   7  16  126.41   11.62
  -1   7  16  118.12    9.36
   1  -7  16  119.50   10.38
  -1  -7  16  121.48    8.25
  -1  -7  16  115.42   10.82
   1   7  16  127.82   12.28
   2  -7  16  177.46   12.81
   2  -7  16  202.67   13.31
  -2   7  16  183.27   12.33
   2  -7 -16  172.65   13.62
   2   7  16  186.48    7.34
  -2  -7  16  181.83   13.85
   2   7  16  183.33   14.71
  -2  -7  16  158.57    8.03
   0   8  16   36.76    7.78
   0   8  16   50.80    6.69
   0  -8  16   55.56    8.54
   0  -8  16   42.24    6.56
  -1   8  16   75.24   11.33
   1  -8  16   68.23    9.33
  -1   8  16   80.89    8.05
  -1  -8  16   65.81    6.43
   1   8  16   72.00   10.49
  -1  -8  16   71.88   10.03
   0   0  17    5.22    3.16
   0   0  17    3.23    2.58
   1   0  17   24.74    4.57
  -1   0  17   14.46    4.62
  -1   0  17   21.03    4.52
   1   0  17   14.38    4.52
   2   0  17  103.05   11.36
   2   0  17  107.91    6.96
  -2   0  17  100.36    9.26
  -2   0  17   91.24    7.49
   3   0  17    1.52    1.98
   3   0  17   -0.96    1.66
   3   0 -17   -3.77    2.91
  -3   0  17    3.12    2.50
  -3   0  17    2.23    3.07
   3   0  17    6.19    3.89
   4   0 -17   -2.03    1.95
  -4   0  17   -2.51    3.09
   4   0  17   -2.56    3.48
   0  -1  17   63.38    7.15
   0   1  17   60.02    7.11
   0  -1  17   66.38    6.78
   0   1  17   70.01    6.72
  -1   1  17   76.85    7.59
   1  -1  17   70.64    7.73
   1  -1  17   80.23    7.10
  -1   1  17   84.69    7.80
  -1  -1 -17   76.25    6.16
   1   1  17   72.14    6.22
  -1  -1  17   84.59    8.03
   1   1  17   78.55    8.03
  -1  -1  17   73.92    7.01
  -2   1  17    0.92    2.40
   2   1 -17   -5.78    2.50
   2  -1  17   -0.16    2.22
   2  -1  17   -0.99    2.11
   2  -1  17   -3.21    2.17
  -2   1  17    7.68    3.62
   2   1  17    1.08    1.96
   2   1  17   -1.14    1.84
  -2  -1  17   -2.64    2.84
  -2  -1  17    1.57    2.32
   2   1  17    3.98    3.44
   3   1 -17   34.12    4.57
  -3   1  17   58.96    6.17
   3  -1  17   38.51    4.46
  -3   1  17   37.44    7.09
   3  -1  17   37.36    4.28
   3  -1  17   54.94    8.85
   3   1  17   27.62    6.70
   3   1  17   30.18    3.28
  -3  -1  17   37.52    7.00
  -3  -1  17   38.43    4.53
   4   1 -17   41.25    3.94
   4  -1  17   44.99    3.43
   4  -1  17   61.61    9.64
  -4   1  17   56.04    9.09
  -4  -1  17   56.05    9.02
   4   1  17   52.49    8.82
   4  -1 -17   49.14    5.34
   0   2  17  363.06   15.69
   0   2  17  325.80   17.45
   0  -2  17  364.89   16.83
   0  -2  17  336.61   16.34
   1  -2  17   45.28    6.55
   1  -2  17   68.81    7.60
  -1   2  17   61.73    7.12
  -1  -2 -17   60.85    5.49
  -1   2  17   49.88    6.88
  -1  -2  17   67.19    7.34
   1   2  17   49.96    7.67
  -1  -2  17   60.23    6.14
  -2   2  17   36.07    6.68
   2  -2  17   27.06    4.84
   2  -2  17   39.33    6.94
   2   2 -17   22.81    4.47
  -2   2  17   41.65    6.59
   2   2  17   29.60    3.69
   2   2  17   37.25    6.90
  -2  -2  17   28.98    4.40
   2   2  17   36.36    3.74
   3  -2  17   22.82    6.18
   3   2 -17    7.07    2.58
  -3   2  17    3.58    3.98
   3  -2  17   12.07    3.52
  -3  -2  17    9.36    2.50
   3   2  17   17.04    5.40
   3  -2 -17    9.48    3.62
  -3  -2  17   13.35    5.37
  -4   2  17   19.39    5.88
   4  -2  17    9.18    5.12
   4  -2  17    5.85    2.76
   4  -2 -17   10.24    3.19
  -4  -2  17    8.90    5.25
   4   2  17   15.74    4.89
   0   3  17    2.59    3.04
   0  -3  17   -1.58    2.78
   0  -3  17   -1.33    2.46
   0   3  17   -1.21    2.47
   1  -3  17   39.19    6.57
   1  -3  17   35.58    6.11
  -1  -3 -17   34.04    4.58
  -1   3  17   34.82    6.61
  -1   3  17   38.87    6.17
  -1  -3  17   34.96    6.56
  -1  -3  17   35.87    5.28
   1   3  17   35.03    4.65
  -2   3  17  395.17   18.71
   2  -3  17  408.86   22.39
   2  -3  17  383.05   16.62
   2   3 -17  373.99   16.48
  -2   3  17  373.58   18.27
   2   3  17  365.60   12.74
   2   3  17  364.65   12.62
  -2  -3  17  359.12   18.84
  -2  -3  17  361.35   14.70
   2   3  17  402.78   20.89
  -3   3  17  109.38    9.78
   3  -3  17  102.78    7.78
   3  -3  17  118.59   11.15
  -3  -3  17  130.18   10.80
   3  -3 -17  125.06    9.63
   3   3  17  128.42   11.90
   4  -3  17   32.22    5.09
   4  -3  17   34.33    7.53
  -4   3  17   41.70    7.96
   4   3  17   39.62    8.31
  -4  -3  17   34.26    7.94
   4  -3 -17   45.13    6.90
   0   4  17  242.81   12.21
   0  -4  17  221.20   13.38
   0   4  17  202.51   16.71
   0  -4  17  236.14   13.09
  -1   4  17  111.43   10.13
  -1  -4 -17  130.01    7.62
   1  -4  17  122.94    9.67
   1  -4  17  114.66    9.82
  -1   4  17  109.02    8.68
   1   4  17  116.66   11.00
   1   4  17  122.94    7.37
  -2   4  17    5.17    3.13
  -2   4  17    5.32    3.86
   2   4 -17    0.97    2.28
   2  -4  17    8.54    3.39
   2  -4  17    2.94    4.31
   2   4  17    1.50    1.49
  -2  -4  17    2.21    3.73
   2   4  17   -0.79    1.61
  -2  -4  17    4.73    2.31
   2   4  17    0.22    3.37
  -3   4  17   81.35    8.81
   3  -4  17   68.58    6.89
   3  -4  17   85.72    9.45
  -3  -4  17   69.00    9.35
   3  -4 -17   76.49    7.82
   3   4  17   71.88   10.35
   0   5  17   37.50    7.40
   0   5  17   48.67    5.58
   0  -5  17   30.14    5.59
  -1   5  17   17.06    5.73
   1  -5  17   22.07    5.18
  -1  -5 -17   18.04    3.69
   1  -5  17   20.82    4.99
  -1   5  17   17.78    4.18
   1   5  17   12.73    2.99
   1   5  17   14.14    5.12
  -1  -5  17   11.40    4.31
  -1  -5  17   13.77    3.70
   2  -5  17  117.31    9.52
  -2  -5 -17  116.12    6.04
   2  -5  17  120.78   10.46
   2   5  17  116.46    5.23
  -2  -5  17  108.47    6.72
   2   5  17  106.23   11.19
  -2  -5  17  105.73   10.69
   3  -5  17   97.22   10.21
  -3   5  17  106.49   10.02
   3  -5  17   83.39    8.16
  -3  -5  17   79.35   10.75
   3  -5 -17   82.49    9.29
   3   5  17   92.90   10.55
   0  -6  17    6.17    3.98
   0   6  17    1.74    2.37
   0  -6  17   -0.42    2.73
   0   6  17   -0.21    3.74
   1  -6  17   11.75    4.56
  -1   6  17   16.92    4.28
  -1   6  17    6.07    4.59
   1  -6  17   10.66    4.20
   1   6  17   15.39    5.58
  -1  -6  17   17.11    5.85
  -1  -6  17   16.03    3.95
  -2   6  17   23.06    5.24
   2  -6  17   27.70    6.41
  -2   6  17   29.19    6.70
   2  -6 -17   25.59    6.67
  -2  -6  17   25.69    6.11
   2   6  17   19.26    2.36
  -2  -6  17   37.57    3.97
   2   6  17   34.51    7.61
   0   7  17   59.32    9.61
   0  -7  17   60.87    6.78
   0  -7  17   61.50    8.94
  -1   7  17   49.40    8.50
   1  -7  17   46.50    7.76
  -1   7  17   49.41    7.10
  -1  -7  17   49.61    8.50
  -1  -7  17   48.73    5.66
   1   7  17   53.19    5.40
   1   7  17   56.70    9.84
   0   0  18   28.03    5.12
   0   0  18   21.60    5.16
   1   0  18   99.23    9.62
   1   0  18  103.14    7.95
  -1   0  18  107.86    8.99
   2   0  18  105.78   10.18
   2   0  18  103.60    7.46
  -2   0  18  105.83    8.41
  -2   0  18  109.68   10.07
  -3   0  18  387.25   19.79
  -3   0  18  365.67   15.70
   3   0  18  375.86   13.03
   3   0  18  370.28   20.63
   0   1  18   30.94    5.35
   0  -1  18   36.67    6.19
   0   1  18   32.95    6.19
   0  -1  18   40.78    6.69
   1  -1  18  117.40    8.72
  -1   1  18  117.35    9.70
  -1   1  18  109.66    9.14
   1  -1  18  112.26    9.83
  -1  -1  18  111.81    8.74
   1   1  18  118.02    7.98
  -1  -1  18  106.54    9.38
   1   1  18  115.23   11.99
   2  -1  18    1.96    2.71
   2  -1  18    2.89    3.59
  -2   1  18   -0.22    2.80
   2   1  18    0.49    2.12
   2   1  18    3.17    3.92
  -2  -1  18    5.15    2.80
  -2  -1  18    3.81    3.84
   2   1  18   -3.71    2.45
   3  -1  18    6.48    4.44
  -3   1  18    5.85    3.25
   3  -1  18    5.98    2.73
  -3   1  18    5.47    2.82
  -3  -1  18    4.05    3.95
   3  -1 -18    3.89    2.86
   3   1  18    9.61    4.14
  -3  -1  18   10.43    3.10
   3   1  18    4.04    1.80
   0  -2  18   10.04    3.92
   0  -2  18    5.89    3.20
   0   2  18    3.91    3.17
   0   2  18    5.73    3.58
  -1   2  18   45.23    7.01
  -1   2  18   48.44    7.52
   1  -2  18   49.26    6.63
   1  -2  18   46.27    7.42
   1   2  18   44.11    7.22
  -1  -2  18   43.21    7.19
  -1  -2  18   42.12    6.05
   1   2  18   51.63    5.36
  -2   2  18  198.09   12.58
   2   2 -18  210.08   11.51
   2  -2  18  246.10   15.18
   2   2  18  211.19   14.68
  -2  -2  18  201.84   10.85
  -2  -2  18  207.53   13.86
   2   2  18  216.99    9.23
   2   2  18  204.10    9.36
  -3   2  18   -2.28    3.17
   3  -2  18    5.37    4.12
   3  -2  18   -3.61    2.46
   3   2  18    0.97    3.32
  -3  -2  18    0.65    3.69
   3  -2 -18    0.31    2.95
   0  -3  18   33.90    5.98
   0  -3  18   25.70    5.76
   0   3  18   40.40    5.78
  -1   3  18    5.65    3.40
   1  -3  18   -2.08    2.57
  -1  -3 -18    4.98    2.22
  -1   3  18    7.08    3.31
   1  -3  18    1.90    3.10
   1   3  18   11.12    4.36
  -1  -3  18    4.82    2.72
  -1  -3  18    5.24    3.71
   1   3  18    8.98    2.83
  -2   3  18    3.99    4.11
   2  -3  18    0.47    3.05
  -2   3  18    8.63    3.76
   2  -3  18   -0.32    3.06
   2   3  18    0.45    1.61
  -2  -3  18    1.84    3.88
   2   3  18   -0.37    3.77
   2   3  18    5.37    3.97
  -2  -3  18    3.06    2.65
   3  -3  18    6.32    4.06
  -3   3  18    2.54    3.68
   3  -3  18    5.14    3.26
   3  -3 -18    0.80    3.25
   3   3  18    8.03    4.96
  -3  -3  18    2.90    4.75
   0   4  18   20.82    5.40
   0   4  18   22.69    4.57
   0  -4  18   15.51    4.17
   1  -4  18   50.10    7.22
  -1  -4 -18   55.56    5.36
  -1   4  18   37.92    6.31
   1  -4  18   51.85    7.31
  -1   4  18   45.12    7.89
   1   4  18   47.20    8.19
   1   4  18   49.64    8.59
  -1  -4  18   44.22    6.11
  -1  -4  18   61.77    9.06
  -2   4  18   64.72    7.36
  -2   4  18   60.25    8.41
   2  -4  18   60.74    8.72
   2  -4  18   59.19    7.45
  -2  -4  18   54.22    8.54
   2   4  18   61.85    9.56
   2   4  18   54.67    3.83
  -2  -4  18   59.17    5.33
   3  -4  18   13.71    4.99
  -3   4  18   28.76    6.27
   3  -4  18   15.52    4.41
  -3  -4  18   22.72    6.90
   3  -4 -18   26.16    5.78
   3   4  18   35.38    7.73
   0  -5  18  184.15   12.80
   0  -5  18  184.75   11.61
  -1   5  18   10.48    3.83
   1  -5  18    6.02    4.75
   1  -5  18   15.38    4.48
  -1   5  18    7.29    4.38
  -1  -5  18   10.05    3.21
  -1  -5  18   17.36    5.15
   1   5  18    9.80    4.52
   1   5  18   14.88    5.30
  -2   5  18   22.26    6.02
  -2   5  18   17.94    4.85
   2  -5  18   17.68    5.14
   2  -5  18    8.72    4.29
   2   5  18   18.73    5.76
  -2  -5  18    6.92    2.72
   2   5  18   10.88    2.12
  -2  -5  18   10.24    5.35
   0   6  18   51.12    8.51
   0   6  18   43.89    6.36
   0  -6  18   57.65    6.59
   0  -6  18   46.92    7.93
   1  -6  18   98.79   11.36
   1  -6  18   97.56    9.48
  -1   6  18  118.15    9.27
  -1   6  18  134.32   12.16
  -1  -6  18  118.21   11.01
   1   6  18  100.27    7.02
   1   6  18  104.78   11.40
  -1  -6  18  103.20    7.77
   0   0  19    6.32    3.48
   0   0  19    5.49    3.57
   1   0  19   -0.10    2.82
  -1   0  19    3.03    3.63
   1   0  19    0.39    3.08
  -1   0  19   -1.13    2.98
   2   0  19   13.26    4.88
  -2   0  19   16.34    5.38
  -2   0  19   15.20    3.99
   2   0  19   11.23    3.52
   3   0  19  107.72   11.30
   0   1  19   11.69    4.26
   0  -1  19   12.54    4.76
   0   1  19   16.57    4.53
   0  -1  19   21.23    5.04
   1  -1  19   46.29    7.32
  -1   1  19   39.47    6.59
  -1   1  19   46.47    7.52
   1  -1  19   45.85    6.56
   1   1  19   53.38    8.56
  -1  -1  19   50.43    7.14
   2  -1  19   34.10    5.28
   2  -1  19   27.84    6.46
  -2   1  19   26.14    5.32
  -2   1  19   35.58    6.77
  -2  -1  19   44.14    5.96
  -2  -1  19   27.97    6.24
   2   1  19   26.21    3.98
   2   1  19   29.43    6.60
   0   2  19  100.75    9.88
   0   2  19  122.14    9.03
   0  -2  19  132.90   10.00
   0  -2  19  120.44    9.70
   1  -2  19  105.14   11.39
  -1   2  19  104.65    9.22
   1  -2  19  110.24    9.00
  -1   2  19  101.17    9.43
   1   2  19  110.57    7.76
  -1  -2  19   78.92    8.59
  -1  -2  19   99.38    8.38
   1   2  19   96.33   10.03
   2  -2  19   14.17    4.15
  -2   2  19   16.51    5.01
   2  -2  19   22.62    5.79
  -2   2  19   29.97    6.39
  -2  -2  19   23.05    4.43
   2   2  19   12.73    5.43
  -2  -2  19   26.69    6.37
   2   2  19   16.48    3.19
   0  -3  19    1.11    3.23
   0   3  19    0.09    2.59
   0   3  19   -3.48    3.00
   1  -3  19   22.35    5.39
   1  -3  19   26.42    6.80
  -1   3  19   21.04    4.83
  -1   3  19   16.95    5.21
   1   3  19   17.85    4.03
   1   3  19   23.35    6.34
  -1  -3  19   33.75    5.53
  -1  -3  19   28.13    6.48
  -2   3  19   98.72    9.36
  -2   3  19   83.68    9.37
   2  -3  19   81.16    9.59
   2  -3  19   95.60    8.45
   2   3  19  101.97    5.79
   2   3  19   99.77   10.77
  -2  -3  19  101.12    7.45
  -2  -3  19   76.15   10.31
   0  -4  19   38.59    6.51
   0  -4  19   60.20    8.37
   0   4  19   49.54    8.65
   0   4  19   49.25    6.55
  -1   4  19   15.31    4.67
  -1   4  19   15.08    4.84
   1  -4  19   15.94    5.02
  -1  -4  19   10.60    5.02
   1   4  19   14.50    3.52
  -1  -4  19   11.11    3.73
   1   4  19   15.27    5.07
   0   0  20  556.43   24.67
   0   0  20  566.78   23.21
   1   0  20    0.98    3.13
  -1   0  20    2.61    3.37
  -1   0  20    3.45    3.21
   1   0  20    6.41    4.11
   0   1  20    1.72    3.15
   0  -1  20    0.74    3.65
   0  -1  20    4.13    3.87
   0   1  20    1.06    3.21
   1  -1  20    2.30    3.35
  -1   1  20    0.85    3.34
  -1   1  20    0.78    2.84
  -1  -1  20    0.07    2.85
  -1  -1  20   -3.14    3.66
   1   1  20    6.66    4.53
   1   1  20   -1.89    2.68
   0  -2  20   68.81    7.78
   0  -2  20   61.33    8.55
   0   2  20   76.73    8.72
   0   2  20   70.83    7.30
   0   0   0    0.00    0.00


 _exptl_absorpt_process_details
)
 SADABS 2016/2: Krause, L., Herbst-Irmer, R., Sheldrick G.M. & Stalke D.,
 J. Appl. Cryst. 48 (2015) 3-10
)
 _exptl_absorpt_correction_type   multi-scan
 _exptl_absorpt_correction_T_max  0.7455
 _exptl_absorpt_correction_T_min  0.7164
 _exptl_special_details
)
 The following wavelength and cell were deduced by SADABS from the
 direction cosines etc. They are given here for emergency use only:
 CELL 0.71073    6.557   10.712   15.877   89.996   89.997   90.012
)

_computing_structure_solution     'SHELXT 2014/5 (Sheldrick, 2014)'
;
_shelx_hkl_checksum              23996
loop_
_space_group_symop_operation_xyz
'x, y, z'
'-x+1/2, -y, z+1/2'
'-x, y+1/2, -z+1/2'
'x+1/2, -y+1/2, -z'
loop_
_atom_site_label
_atom_site_type_symbol
_atom_site_fract_x
_atom_site_fract_y
_atom_site_fract_z
_atom_site_U_iso_or_equiv
_atom_site_adp_type
_atom_site_occupancy
_atom_site_site_symmetry_order
_atom_site_calc_flag
_atom_site_refinement_flags_posn
_atom_site_refinement_flags_adp
_atom_site_refinement_flags_occupancy
_atom_site_disorder_assembly
_atom_site_disorder_group
K1 K 0.11933(7) 0.82575(5) 0.40501(3) 0.02240(13) Uani 1 1 d . . . . .
C1 C 0.7354(3) 0.3792(2) 0.39476(14) 0.0179(5) Uani 1 1 d D . . . .
C2 C 0.5508(3) 0.4227(2) 0.36088(14) 0.0175(4) Uani 1 1 d . . . . .
C3 C 0.4388(3) 0.3180(2) 0.33501(12) 0.0179(4) Uani 1 1 d D . . . .
C4 C 0.5536(3) 0.2107(2) 0.35515(14) 0.0180(5) Uani 1 1 d . . . . .
C5 C 0.7389(4) 0.2483(2) 0.39148(14) 0.0181(5) Uani 1 1 d . . . . .
C7 C 0.2513(3) 0.3202(2) 0.28975(13) 0.0208(4) Uani 1 1 d . . . . .
C8 C 0.4889(4) 0.0846(2) 0.34477(14) 0.0195(5) Uani 1 1 d . . . . .
C9 C 0.8951(3) 0.1640(2) 0.41697(13) 0.0198(4) Uani 1 1 d . . . . .
C6A C 0.4809(5) 0.5477(5) 0.3571(4) 0.0182(11) Uani 0.935 1 d D . P A 1
N1A N 0.8905(6) 0.4562(4) 0.4300(3) 0.0206(9) Uani 0.935 1 d D . P B 1
N2A N 0.4184(3) 0.6483(2) 0.35333(14) 0.0251(5) Uani 0.935 1 d D . P A 1
O1A O 1.0493(3) 0.40838(19) 0.45675(12) 0.0274(4) Uani 0.935 1 d D . P B 1
O2A O 0.8605(3) 0.57072(19) 0.43363(14) 0.0399(5) Uani 0.935 1 d D . P B 1
N1B N 0.480(6) 0.562(6) 0.344(5) 0.03(3) Uiso 0.065 1 d D U P A 2
C6B C 0.87(2) 0.457(15) 0.419(10) 0.07(5) Uiso 0.065 1 d D U P B 2
N2B N 1.004(4) 0.511(3) 0.4525(17) 0.014(5) Uiso 0.065 1 d D U P B 2
O1B O 0.574(6) 0.634(4) 0.388(3) 0.080(10) Uiso 0.065 1 d D U P A 2
O2B O 0.292(5) 0.570(5) 0.334(3) 0.080(10) Uiso 0.065 1 d D U P A 2
N3 N 0.1053(3) 0.3218(2) 0.25070(12) 0.0313(5) Uani 1 1 d . . . . .
N4 N 0.4368(3) -0.0174(2) 0.33974(13) 0.0263(5) Uani 1 1 d . . . . .
N5 N 1.0116(3) 0.0887(2) 0.43458(13) 0.0274(5) Uani 1 1 d . . . . .
O1W O -0.2782(3) 0.8271(2) 0.45907(12) 0.0287(4) Uani 1 1 d . . . . .
H1W H -0.345(7) 0.812(4) 0.421(3) 0.062(12) Uiso 1 1 d . . . . .
H2W H -0.323(7) 0.903(5) 0.479(3) 0.086(15) Uiso 1 1 d . . . . .
loop_
_atom_site_aniso_label
_atom_site_aniso_U_11
_atom_site_aniso_U_22
_atom_site_aniso_U_33
_atom_site_aniso_U_23
_atom_site_aniso_U_13
_atom_site_aniso_U_12
K1 0.0197(2) 0.0200(2) 0.0275(2) 0.0017(2) -0.00054(19) 0.0036(2)
C1 0.0190(10) 0.0175(10) 0.0172(11) -0.0020(9) 0.0016(9) 0.0008(8)
C2 0.0203(10) 0.0166(10) 0.0155(10) 0.0001(8) 0.0000(9) 0.0022(8)
C3 0.0191(9) 0.0186(10) 0.0161(9) -0.0002(9) 0.0018(7) 0.0019(9)
C4 0.0215(11) 0.0169(10) 0.0155(9) 0.0005(8) 0.0035(8) 0.0006(8)
C5 0.0204(11) 0.0177(10) 0.0161(11) 0.0008(8) 0.0029(9) 0.0033(8)
C7 0.0220(10) 0.0215(11) 0.0190(10) 0.0014(10) 0.0011(8) 0.0021(10)
C8 0.0215(11) 0.0200(11) 0.0168(11) 0.0010(9) 0.0012(9) 0.0008(9)
C9 0.0222(10) 0.0190(10) 0.0182(9) -0.0012(8) 0.0020(9) 0.0002(10)
C6A 0.022(2) 0.0184(16) 0.0141(15) -0.0002(17) -0.0006(10) 0.0018(10)
N1A 0.0213(15) 0.0191(14) 0.0214(14) -0.0027(10) -0.0014(11) 0.0014(10)
N2A 0.0298(12) 0.0200(11) 0.0256(11) -0.0019(8) 0.0005(9) 0.0064(9)
O1A 0.0207(9) 0.0336(10) 0.0278(10) -0.0028(8) -0.0069(8) 0.0014(8)
O2A 0.0369(11) 0.0202(10) 0.0627(14) -0.0100(9) -0.0132(11) -0.0005(9)
N3 0.0273(10) 0.0394(12) 0.0273(10) 0.0014(10) -0.0030(9) -0.0007(12)
N4 0.0313(11) 0.0220(10) 0.0255(10) 0.0004(8) 0.0036(9) -0.0017(9)
N5 0.0288(11) 0.0261(11) 0.0273(11) -0.0025(8) -0.0007(9) 0.0077(9)
O1W 0.0264(9) 0.0338(10) 0.0258(9) 0.0024(9) 0.0022(7) 0.0033(9)
loop_
_atom_type_symbol
_atom_type_description
_atom_type_scat_dispersion_real
_atom_type_scat_dispersion_imag
_atom_type_scat_source
C C 0.0033 0.0016 'International Tables Vol C Tables 4.2.6.8 and 6.1.1.4'
H H 0.0000 0.0000 'International Tables Vol C Tables 4.2.6.8 and 6.1.1.4'
N N 0.0061 0.0033 'International Tables Vol C Tables 4.2.6.8 and 6.1.1.4'
O O 0.0106 0.0060 'International Tables Vol C Tables 4.2.6.8 and 6.1.1.4'
K K 0.2009 0.2494 'International Tables Vol C Tables 4.2.6.8 and 6.1.1.4'
loop_
_geom_angle_atom_site_label_1
_geom_angle_atom_site_label_2
_geom_angle_atom_site_label_3
_geom_angle
_geom_angle_site_symmetry_1
_geom_angle_site_symmetry_3
_geom_angle_publ_flag
O1W K1 O1W 89.43(4) . 4_566 ?
O1W K1 N2A 138.31(7) . . ?
O1W K1 N2A 70.47(6) 4_566 . ?
O1W K1 N4 143.04(6) . 1_565 ?
O1W K1 N4 116.63(6) 4_566 1_565 ?
N2A K1 N4 77.73(6) . 1_565 ?
O1W K1 N3 77.45(6) . 3 ?
O1W K1 N3 141.13(7) 4_566 3 ?
N2A K1 N3 95.44(7) . 3 ?
N4 K1 N3 94.00(6) 1_565 3 ?
O1W K1 N5 73.55(7) . 1_465 ?
O1W K1 N5 119.76(7) 4_566 1_465 ?
N2A K1 N5 148.14(7) . 1_465 ?
N4 K1 N5 70.80(6) 1_565 1_465 ?
N3 K1 N5 91.63(6) 3 1_465 ?
O1W K1 O2B 117.0(7) . . ?
O1W K1 O2B 71.4(9) 4_566 . ?
N4 K1 O2B 96.9(8) 1_565 . ?
N3 K1 O2B 82.2(7) 3 . ?
N5 K1 O2B 165.9(9) 1_465 . ?
O1W K1 O2A 102.49(6) . 4_466 ?
O1W K1 O2A 57.79(6) 4_566 4_466 ?
N2A K1 O2A 96.97(6) . 4_466 ?
N4 K1 O2A 74.24(6) 1_565 4_466 ?
N3 K1 O2A 160.60(6) 3 4_466 ?
N5 K1 O2A 70.11(6) 1_465 4_466 ?
O1W K1 O2A 57.63(6) . 1_455 ?
O1W K1 O2A 61.58(6) 4_566 1_455 ?
N2A K1 O2A 80.72(6) . 1_455 ?
N4 K1 O2A 157.25(6) 1_565 1_455 ?
N3 K1 O2A 80.81(6) 3 1_455 ?
N5 K1 O2A 131.12(6) 1_465 1_455 ?
O2A K1 O2A 115.88(3) 4_466 1_455 ?
O1W K1 O1B 66.7(7) . 4_466 ?
O1W K1 O1B 48.3(7) 4_566 4_466 ?
N2A K1 O1B 115.7(7) . 4_466 ?
N4 K1 O1B 110.2(8) 1_565 4_466 ?
N3 K1 O1B 143.5(7) 3 4_466 ?
N5 K1 O1B 72.3(8) 1_465 4_466 ?
O2A K1 O1B 37.9(8) 4_466 4_466 ?
O2A K1 O1B 85.6(8) 1_455 4_466 ?
O1W K1 K1 117.36(4) . 4_566 ?
O1W K1 K1 30.78(4) 4_566 4_566 ?
N2A K1 K1 58.63(4) . 4_566 ?
N4 K1 K1 85.90(4) 1_565 4_566 ?
N3 K1 K1 153.54(5) 3 4_566 ?
N5 K1 K1 113.09(5) 1_465 4_566 ?
O2A K1 K1 43.08(4) 4_466 4_566 ?
O2A K1 K1 89.10(4) 1_455 4_566 ?
O1W K1 K1 31.37(4) . 4_466 ?
O1W K1 K1 58.24(4) 4_566 4_466 ?
N2A K1 K1 115.48(5) . 4_466 ?
N4 K1 K1 158.75(5) 1_565 4_466 ?
N3 K1 K1 100.81(5) 3 4_466 ?
N5 K1 K1 93.45(5) 1_465 4_466 ?
O2A K1 K1 87.19(4) 4_466 4_466 ?
O2A K1 K1 42.43(4) 1_455 4_466 ?
K1 K1 K1 87.487(16) 4_566 4_466 ?
O1W K1 H1W 13.8(8) . . ?
O1W K1 H1W 98.5(8) 4_566 . ?
N2A K1 H1W 132.6(8) . . ?
N4 K1 H1W 141.3(8) 1_565 . ?
N3 K1 H1W 64.0(8) 3 . ?
N5 K1 H1W 78.0(8) 1_465 . ?
O2B K1 H1W 110.1(10) . . ?
O2A K1 H1W 116.1(8) 4_466 . ?
O2A K1 H1W 55.2(8) 1_455 . ?
O1B K1 H1W 80.4(11) 4_466 . ?
K1 K1 H1W 128.3(8) 4_566 . ?
K1 K1 H1W 40.8(8) 4_466 . ?
C6B C1 C5 130(8) . . ?
C6B C1 C2 120(8) . . ?
C5 C1 C2 109.4(2) . . ?
C5 C1 N1A 125.6(3) . . ?
C2 C1 N1A 125.0(3) . . ?
C3 C2 C1 107.4(2) . . ?
C3 C2 C6A 125.0(2) . . ?
C1 C2 C6A 127.5(2) . . ?
C3 C2 N1B 123.3(10) . . ?
C1 C2 N1B 129.1(10) . . ?
C2 C3 C4 107.79(18) . . ?
C2 C3 C7 125.9(2) . . ?
C4 C3 C7 126.1(2) . . ?
C5 C4 C3 108.74(19) . . ?
C5 C4 C8 125.2(2) . . ?
C3 C4 C8 125.9(2) . . ?
C1 C5 C4 106.7(2) . . ?
C1 C5 C9 129.4(2) . . ?
C4 C5 C9 123.8(2) . . ?
N3 C7 C3 177.4(2) . . ?
N4 C8 C4 177.3(2) . . ?
N5 C9 C5 174.5(2) . . ?
N2A C6A C2 178.0(3) . . ?
O1A N1A O2A 121.8(3) . . ?
O1A N1A C1 119.8(3) . . ?
O2A N1A C1 118.4(4) . . ?
C6A N2A K1 148.4(3) . . ?
N1A O2A K1 117.1(3) . 4_566 ?
N1A O2A K1 137.8(2) . 1_655 ?
K1 O2A K1 94.49(5) 4_566 1_655 ?
O1B N1B O2B 122(4) . . ?
O1B N1B C2 111(5) . . ?
O2B N1B C2 112(5) . . ?
N2B C6B C1 167(10) . . ?
N1B O2B K1 112(3) . . ?
C7 N3 K1 153.72(18) . 3_545 ?
C8 N4 K1 138.43(18) . 1_545 ?
C9 N5 K1 142.69(18) . 1_645 ?
K1 O1W K1 117.86(7) . 4_466 ?
K1 O1W H1W 107(3) . . ?
K1 O1W H1W 111(3) 4_466 . ?
K1 O1W H2W 115(3) . . ?
K1 O1W H2W 100(3) 4_466 . ?
H1W O1W H2W 106(4) . . ?
loop_
_geom_bond_atom_site_label_1
_geom_bond_atom_site_label_2
_geom_bond_distance
_geom_bond_site_symmetry_2
_geom_bond_publ_flag
K1 O1W 2.7424(18) . ?
K1 O1W 2.7895(19) 4_566 ?
K1 N2A 2.850(2) . ?
K1 N4 2.867(2) 1_565 ?
K1 N3 2.876(2) 3 ?
K1 N5 2.940(2) 1_465 ?
K1 O2B 3.17(5) . ?
K1 O2A 3.206(2) 4_466 ?
K1 O2A 3.246(2) 1_455 ?
K1 O1B 3.32(4) 4_466 ?
K1 K1 4.7382(7) 4_566 ?
K1 K1 4.7382(7) 4_466 ?
K1 H1W 3.06(4) . ?
C1 C6B 1.29(6) . ?
C1 C5 1.402(3) . ?
C1 C2 1.403(3) . ?
C1 N1A 1.423(4) . ?
C2 C3 1.402(3) . ?
C2 C6A 1.416(6) . ?
C2 N1B 1.58(7) . ?
C3 C4 1.410(3) . ?
C3 C7 1.423(3) . ?
C4 C5 1.403(3) . ?
C4 C8 1.425(3) . ?
C5 C9 1.424(3) . ?
C7 N3 1.140(3) . ?
C8 N4 1.147(3) . ?
C9 N5 1.145(3) . ?
C6A N2A 1.154(6) . ?
N1A O1A 1.235(5) . ?
N1A O2A 1.243(5) . ?
N1B O1B 1.21(2) . ?
N1B O2B 1.25(2) . ?
C6B N2B 1.16(3) . ?
O1W H1W 0.76(4) . ?
O1W H2W 0.92(5) . ?
