#------------------------------------------------------------------------------
#$Date: 2021-11-10 02:03:57 +0200 (Wed, 10 Nov 2021) $
#$Revision: 270551 $
#$URL: file:///home/coder/svn-repositories/cod/cif/7/70/87/7708747.cif $
#------------------------------------------------------------------------------
#
# This file is available in the Crystallography Open Database (COD),
# http://www.crystallography.net/
#
# All data on this site have been placed in the public domain by the
# contributors.
#
data_7708747
loop_
_publ_author_name
'Shreeve, Jean'ne M.'
'Chinnam, Ajay Kumar'
'Staples, Richard J.'
_publ_section_title
;
 1,2-Bis(5-(trinitromethyl)-1,2,4-oxadiazol-3-yl)diazene: A Water Stable,
 High-Performing Green Oxidizer
;
_journal_name_full               'Dalton Transactions'
_journal_paper_doi               10.1039/D1DT03496K
_journal_year                    2021
_chemical_formula_moiety         '2(C3 N6 O7)'
_chemical_formula_sum            'C6 N12 O14'
_chemical_formula_weight         464.18
_space_group_crystal_system      triclinic
_space_group_IT_number           2
_space_group_name_Hall           '-P 1'
_space_group_name_H-M_alt        'P -1'
_atom_sites_solution_primary     direct
_audit_creation_date             2020-11-26
_audit_creation_method
;
Olex2 1.3-alpha
(compiled 2020.11.12 svn.r5f609507 for OlexSys, GUI svn.r6197)
;
_audit_update_record
;
2021-09-01 deposited with the CCDC.	2021-11-09 downloaded from the CCDC.
;
_cell_angle_alpha                106.137(2)
_cell_angle_beta                 92.992(2)
_cell_angle_gamma                92.277(2)
_cell_formula_units_Z            2
_cell_length_a                   5.92194(16)
_cell_length_b                   11.2781(3)
_cell_length_c                   12.7041(4)
_cell_measurement_reflns_used    3970
_cell_measurement_temperature    100.00(10)
_cell_measurement_theta_max      76.6120
_cell_measurement_theta_min      3.6170
_cell_volume                     812.64(4)
_computing_cell_refinement       'CrysAlisPro 1.171.40.84a (Rigaku OD, 2020)'
_computing_data_collection       'CrysAlisPro 1.171.40.84a (Rigaku OD, 2020)'
_computing_data_reduction        'CrysAlisPro 1.171.40.84a (Rigaku OD, 2020)'
_computing_molecular_graphics    'Olex2 1.3-alpha (Dolomanov et al., 2009)'
_computing_publication_material  'Olex2 1.3-alpha (Dolomanov et al., 2009)'
_computing_structure_refinement  'SHELXL 2018/3 (Sheldrick, 2015)'
_computing_structure_solution    'SHELXS  (Sheldrick, 2008)'
_diffrn_ambient_environment      N~2~
_diffrn_ambient_temperature      100.00(10)
_diffrn_detector                 'Hybrid Pixel Array Detector'
_diffrn_detector_area_resol_mean 10.0000
_diffrn_detector_type            HyPix
_diffrn_measured_fraction_theta_full 0.998
_diffrn_measured_fraction_theta_max 0.951
_diffrn_measurement_details
;
List of Runs (angles in degrees, time in seconds):

  # Type    Start    End  Width  t~exp~   \w     \q     \k     \f   Frames
#--------------------------------------------------------------------------
  1  \w     70.00 105.00   0.50    0.69    --   47.45-144.00-158.00   70
  2  \w     84.00 109.00   0.50    2.75    --  106.49-144.00-158.00   50
  3  \w     68.00  94.00   0.50    2.75    --  106.49 -94.00-150.00   52
  4  \w     61.00 103.00   0.50    2.75    --  106.49 -94.00-120.00   84
  5  \w     59.00 102.00   0.50    2.75    --  106.49 -94.00 -30.00   86
  6  \w     78.00 109.00   0.50    2.75    --  106.49-126.00   9.00   62
  7  \w     39.00  93.00   0.50    0.69    --   47.45-126.00   9.00  108
  8  \w     25.00  61.00   0.50    0.69    --   47.45 -57.00-120.00   72
  9  \w     36.00  95.00   0.50    0.69    --   47.45  19.00 -30.00  118
 10  \w     34.00  68.00   0.50    2.75    --  106.49 -61.00 -30.00   68
 11  \w     39.00  69.00   0.50    2.75    --  106.49 -61.00 -90.00   60
 12  \w     38.00  69.00   0.50    2.75    --  106.49 -61.00-150.00   62
 13  \w     45.00  70.00   0.50    2.75    --  106.49 -61.00-180.00   50
 14  \w     42.00 103.00   0.50    2.75    --  106.49-100.00-165.23  122
 15  \w     38.00  68.00   0.50    2.75    --  106.49 -61.00-120.00   60
 16  \w      1.00  48.00   0.50    0.69    --   47.45 -77.00   0.00   94
 17  \w    -22.00   4.00   0.50    0.69    --   47.45 -19.00 -90.00   52
 18  \w    -24.00  24.00   0.50    0.69    --   47.45 -19.00 -60.00   96
 19  \w     -9.00  16.00   0.50    0.69    --   47.45 -57.00-120.00   50
 20  \w    -20.00  41.00   0.50    0.69    --   47.45 -37.00-180.00  122
 21  \w    123.00 176.00   0.50    2.75    --  106.49  45.00 -90.00  106
 22  \w    146.00 174.00   0.50    2.75    --  106.49  77.00 -30.00   56
 23  \w    122.00 172.00   0.50    2.75    --  106.49  45.00-120.00  100
 24  \w    138.00 164.00   0.50    2.75    --  106.49  61.00-180.00   52
 25  \w    131.00 160.00   0.50    2.75    --  106.49  61.00-150.00   58
 26  \w    101.00 126.00   0.50    2.75    --  106.49 144.00-105.00   50
 27  \w    124.00 178.00   0.50    2.75    --  106.49  45.00   0.00  108
 28  \w    129.00 168.00   0.50    2.75    --  106.49  61.00 120.00   78
 29  \w    123.00 168.00   0.50    2.75    --  106.49  45.00 150.00   90
 30  \w     97.00 150.00   0.50    2.75    --  106.49 126.00  86.00  106
 31  \w     42.00  68.00   0.50    2.75    --  106.49 -61.00 150.00   52
 32  \w     44.00  69.00   0.50    2.75    --  106.49 -61.00  90.00   50
 33  \w     39.00  67.00   0.50    2.75    --  106.49 -61.00  30.00   56
 34  \w     43.00  68.00   0.50    2.75    --  106.49 -61.00   0.00   50
 35  \w     34.00  96.00   0.50    2.75    --  106.49 -94.00  60.00  124
 36  \w     82.00 108.00   0.50    2.75    --  106.49-125.00 150.00   52
 37  \w     36.00  73.00   0.50    2.75    --  106.49-125.00 150.00   74
 38  \w     36.00  67.00   0.50    2.75    --  106.49 -61.00 120.00   62
 39  \w     -5.00  22.00   0.50    0.69    --   47.45 -19.00 150.00   54
 40  \w    -22.00  40.00   0.50    0.69    --   47.45 -37.00 120.00  124
;
_diffrn_measurement_device       'four-circle diffractometer'
_diffrn_measurement_device_type  'XtaLAB Synergy, Dualflex, HyPix'
_diffrn_measurement_method       '\w scans'
_diffrn_orient_matrix_type
'CrysAlisPro convention (1999,Acta A55,543-557)'
_diffrn_orient_matrix_UB_11      -0.1515900000
_diffrn_orient_matrix_UB_12      0.0783583000
_diffrn_orient_matrix_UB_13      0.0844003000
_diffrn_orient_matrix_UB_21      0.1708372000
_diffrn_orient_matrix_UB_22      -0.0058827000
_diffrn_orient_matrix_UB_23      0.0938654000
_diffrn_orient_matrix_UB_31      0.1261444000
_diffrn_orient_matrix_UB_32      0.1187907000
_diffrn_orient_matrix_UB_33      -0.0084587000
_diffrn_radiation_monochromator  mirror
_diffrn_radiation_probe          x-ray
_diffrn_radiation_type           'Cu K\a'
_diffrn_radiation_wavelength     1.54184
_diffrn_reflns_av_R_equivalents  0.0342
_diffrn_reflns_av_unetI/netI     0.0410
_diffrn_reflns_Laue_measured_fraction_full 0.998
_diffrn_reflns_Laue_measured_fraction_max 0.951
_diffrn_reflns_limit_h_max       7
_diffrn_reflns_limit_h_min       -7
_diffrn_reflns_limit_k_max       14
_diffrn_reflns_limit_k_min       -10
_diffrn_reflns_limit_l_max       15
_diffrn_reflns_limit_l_min       -15
_diffrn_reflns_number            8576
_diffrn_reflns_point_group_measured_fraction_full 0.998
_diffrn_reflns_point_group_measured_fraction_max 0.951
_diffrn_reflns_theta_full        67.684
_diffrn_reflns_theta_max         76.819
_diffrn_reflns_theta_min         3.630
_diffrn_source                   'micro-focus sealed X-ray tube'
_diffrn_source_current           1
_diffrn_source_type              'PhotonJet (Cu) X-ray Source'
_diffrn_source_voltage           50
_exptl_absorpt_coefficient_mu    1.691
_exptl_absorpt_correction_T_max  1.000
_exptl_absorpt_correction_T_min  0.903
_exptl_absorpt_correction_type   gaussian
_exptl_absorpt_process_details
;
CrysAlisPro 1.171.40.84a (Rigaku Oxford Diffraction, 2020)
Numerical absorption correction based on gaussian integration over
a multifaceted crystal model
Empirical absorption correction using spherical harmonics,
implemented in SCALE3 ABSPACK scaling algorithm.
;
_exptl_crystal_colour            yellow
_exptl_crystal_colour_primary    yellow
_exptl_crystal_density_diffrn    1.897
_exptl_crystal_description       plate
_exptl_crystal_F_000             464
_exptl_crystal_recrystallization_method 'used as received'
_exptl_crystal_size_max          0.155
_exptl_crystal_size_mid          0.097
_exptl_crystal_size_min          0.015
_refine_diff_density_max         1.114
_refine_diff_density_min         -0.777
_refine_diff_density_rms         0.088
_refine_ls_extinction_method     none
_refine_ls_goodness_of_fit_ref   1.057
_refine_ls_hydrogen_treatment    undef
_refine_ls_matrix_type           full
_refine_ls_number_parameters     289
_refine_ls_number_reflns         3268
_refine_ls_number_restraints     0
_refine_ls_restrained_S_all      1.057
_refine_ls_R_factor_all          0.0768
_refine_ls_R_factor_gt           0.0660
_refine_ls_shift/su_max          0.000
_refine_ls_shift/su_mean         0.000
_refine_ls_structure_factor_coef Fsqd
_refine_ls_weighting_details
'w=1/[\s^2^(Fo^2^)+(0.0972P)^2^+1.5418P] where P=(Fo^2^+2Fc^2^)/3'
_refine_ls_weighting_scheme      calc
_refine_ls_wR_factor_gt          0.1794
_refine_ls_wR_factor_ref         0.1903
_reflns_Friedel_coverage         0.000
_reflns_number_gt                2735
_reflns_number_total             3268
_reflns_threshold_expression     'I > 2\s(I)'
_cod_data_source_file            d1dt03496k2.cif
_cod_data_source_block           js1120j
_cod_database_code               7708747
_shelx_shelxl_version_number     2018/3
_chemical_oxdiff_formula         C6N12O14
_chemical_oxdiff_usercomment     A93
_shelx_space_group_comment
;
The symmetry employed for this shelxl refinement is uniquely defined
by the following loop, which should always be used as a source of
symmetry information in preference to the above space-group names.
They are only intended as comments.
;
_shelx_estimated_absorpt_t_max   0.975
_shelx_estimated_absorpt_t_min   0.780
_reflns_odcompleteness_completeness 99.90
_reflns_odcompleteness_iscentric 1
_reflns_odcompleteness_theta     66.97
_olex2_refinement_description
;
;
_shelx_res_file
;
TITL JS1120J in P-1 #2
    js1120j.res
    created by SHELXL-2018/3 at 16:11:16 on 26-Nov-2020
REM reset to P-1 #2
CELL 1.54184 5.921939 11.278065 12.704094 106.1373 92.9917 92.277
ZERR 2 0.000164 0.000278 0.000367 0.0023 0.0023 0.0021
LATT 1
SFAC C N O
UNIT 12 24 28

L.S. 4
PLAN  5
SIZE 0.015 0.097 0.155
TEMP -173.15(10)
CONF
MORE -1
fmap 2
acta
REM <olex2.extras>
REM <HklSrc "%.\\JS1120J.hkl">
REM </olex2.extras>

WGHT    0.097200    1.541800
FVAR       4.71634
O1    3   -0.190281    0.239517    0.623194    11.00000    0.01931    0.03875 =
         0.02425    0.00106   -0.00050   -0.00613
O2    3   -0.056394    0.065260    0.710758    11.00000    0.16946    0.07492 =
         0.08032    0.05058   -0.08051   -0.08879
O3    3    0.230598    0.102045    0.826430    11.00000    0.05055    0.03316 =
         0.05204    0.00625    0.01189    0.00343
O4    3    0.445009    0.298851    0.753703    11.00000    0.02091    0.04164 =
         0.03249    0.00998    0.00810    0.00448
O5    3    0.342189    0.384766    0.919077    11.00000    0.02548    0.03390 =
         0.02314    0.00574   -0.00394   -0.00380
O6    3   -0.120777    0.431756    0.890368    11.00000    0.02670    0.08901 =
         0.03458   -0.02229    0.00465    0.00632
O7    3   -0.165343    0.251604    0.921700    11.00000    0.03058    0.17145 =
         0.05391    0.07592    0.01977    0.03040
N1    2   -0.083201    0.461900    0.490146    11.00000    0.02014    0.03191 =
         0.02282   -0.00362   -0.00004    0.00440
N2    2    0.065779    0.396213    0.651317    11.00000    0.02101    0.03483 =
         0.01861   -0.00138   -0.00117   -0.00156
N3    2   -0.237833    0.297705    0.541868    11.00000    0.02070    0.03856 =
         0.02390    0.00031   -0.00092    0.00028
N4    2    0.083626    0.131966    0.772475    11.00000    0.06630    0.04140 =
         0.02373    0.00385   -0.00072   -0.02806
N5    2    0.309441    0.326124    0.824111    11.00000    0.01855    0.02479 =
         0.02502    0.00621    0.00174    0.00035
N6    2   -0.088998    0.322941    0.876051    11.00000    0.01522    0.09511 =
         0.01820    0.00487    0.00081    0.00453
C1    1   -0.081924    0.387391    0.561917    11.00000    0.01830    0.03182 =
         0.02014   -0.00444    0.00034    0.00367
C2    1   -0.009289    0.304112    0.682864    11.00000    0.01951    0.03229 =
         0.01895   -0.00395    0.00251   -0.00378
C3    1    0.070232    0.271064    0.784354    11.00000    0.02235    0.03650 =
         0.02009    0.00138    0.00382   -0.00673
O1A   3    0.253063    0.249966    0.381332    11.00000    0.02184    0.03299 =
         0.02462    0.01227    0.00638    0.00840
O2A   3    0.221090    0.066575    0.119944    11.00000    0.03870    0.03653 =
         0.03274   -0.00220   -0.00546   -0.00661
O3A   3    0.211848    0.240439    0.073092    11.00000    0.04383    0.12361 =
         0.05963    0.06938   -0.02233   -0.02535
O4A   3    0.353071    0.430048    0.291296    11.00000    0.09494    0.03562 =
         0.06536    0.02315    0.05206    0.03098
O5A   3    0.615172    0.402084    0.173422    11.00000    0.05377    0.03737 =
         0.03678    0.01436    0.00419   -0.00945
O6A   3    0.685927    0.115125    0.082238    11.00000    0.04941    0.04899 =
         0.02947    0.00263    0.01422    0.01107
O7A   3    0.848372    0.220473    0.243496    11.00000    0.01966    0.05327 =
         0.03840    0.01911   -0.00244   -0.00047
N1A   2    0.418512    0.033991    0.512047    11.00000    0.01895    0.02281 =
         0.01975    0.00321    0.00157   -0.00084
N2A   2    0.506363    0.106417    0.348894    11.00000    0.02122    0.02360 =
         0.01770    0.00405    0.00160    0.00246
N3A   2    0.276918    0.172164    0.126399    11.00000    0.02885    0.05950 =
         0.02437    0.01331    0.00009   -0.00062
N4A   2    0.482248    0.368538    0.230325    11.00000    0.04346    0.03600 =
         0.03219    0.01406    0.00428    0.00699
N5A   2    0.689302    0.180722    0.175654    11.00000    0.02890    0.03540 =
         0.03060    0.01036    0.00542    0.00379
N11   2    0.236139    0.189736    0.463136    11.00000    0.02336    0.03048 =
         0.02486    0.01144    0.00543    0.00368
C1A   1    0.389863    0.108096    0.440005    11.00000    0.01712    0.02143 =
         0.01978    0.00283    0.00117   -0.00185
C2A   1    0.415758    0.194010    0.318802    11.00000    0.01883    0.02320 =
         0.01868    0.00219   -0.00035    0.00003
C3A   1    0.463575    0.231128    0.217744    11.00000    0.02095    0.02765 =
         0.01878    0.00440    0.00036    0.00220
HKLF 4




REM  JS1120J in P-1 #2
REM wR2 = 0.1903, GooF = S = 1.057, Restrained GooF = 1.057 for all data
REM R1 = 0.0660 for 2735 Fo > 4sig(Fo) and 0.0768 for all 3268 data
REM 289 parameters refined using 0 restraints

END

WGHT      0.0972      1.5418

REM Highest difference peak  1.114,  deepest hole -0.777,  1-sigma level  0.088
Q1    1   0.5378  0.1188  0.0425  11.00000  0.05    1.11
Q2    1   0.2926  0.3413  0.2008  11.00000  0.05    1.07
Q3    1   0.4271  0.1286  0.1142  11.00000  0.05    0.99
Q4    1   0.6978  0.2968  0.2154  11.00000  0.05    0.89
Q5    1  -0.0098  0.0537  0.7025  11.00000  0.05    0.81
;
_shelx_res_checksum              94578
_shelx_hkl_file
;
   0   0   1 192.908 17.7575  16
   0   0   2 53870.7 2296.74  16
   0   0  -2 55039.7 2311.11  20
   0   0   3 95034.0 4008.23  16
   0   0  -3 94246.4 4029.15  20
   0   0  -4 9657.35 479.775  20
   0   0   4 9899.15 450.611  16
   0   0  -4 10585.3 494.131  39
   0   0  -5 33668.0 1449.23  20
   0   0  -5 34813.5 1466.96  39
   0   0   5 31103.8 1403.26  16
   0   0   6 3910.23 209.859  16
   0   0  -6 4097.32 264.400  20
   0   0  -7 32207.0 1481.20  20
   0   0  -8 126.483 57.4304  27
   0   0  -8 176.964 107.528  20
   0   0  -9 5208.26 351.580  20
   0   0  -9 4183.83 230.507  27
   0   0 -10 94.5075 120.931  20
   0   0 -10 5.82348 75.7619  27
   0   0 -11 918.247 181.653  20
   0   0 -11 782.703 99.0957  27
   0   0  12-10.2924 58.4164  24
   0   0 -12-5.76645 78.2357  27
   0   0  13 1534.13 112.181  24
   0   0 -13 2033.07 130.333  27
   0   0 -14 112.952 55.6747  27
   0   0  15 963.232 68.8805  25
   0   0  15 812.319 60.9485  23
   0  -1  15 28.9436 42.5486  25
   0   1 -14-8.08529 61.6048  27
   0   1 -13-5.31819 70.3266  27
   0   1 -12 1209.34 117.590  27
   0  -1  12 1042.33 91.9720  24
   0   1 -11 92.7453 80.1195  27
   0   1 -11 234.252 125.932  20
   0   1 -10 72.5068 125.376  20
   0   1 -10 40.5785 75.1174  27
   0   1  -9 200.243 70.4327  27
   0   1  -8 624.205 130.008  20
   0   1  -7 364.755 112.220  20
   0   1  -6 432.812 111.970  20
   0   1  -5 55.1371 72.9813  20
   0   1  -4 197.049 65.4816  20
   0   1  -4 155.670 23.5922   7
   0   1  -3 286.487 39.3447   7
   0   1  -2 88.9680 36.0978   1
   0   1  -1 191.542 35.1375   1
   0   1  -1 159.617 16.9236  16
   0  -1   0 13.4027 17.7361   9
   0   1   1 146.336 35.1372   1
   0   1   1 152.525 35.4460  16
   0   1   2 135.460 30.4985   7
   0  -1  -2 57.0620 58.8466  39
   0   1   2 124.296 51.3170  16
   0   1   3 18.6531 23.0455   7
   0  -1  -3 64.3610 67.8603  39
   0   1   3-8.86465 45.5318  16
   0  -1  -3 63.6114 59.3465  20
   0  -1  -4-8.75334 73.6517  39
   0   1   4 22.1749 46.1775  16
   0  -1  -4-7.11797 61.9525  20
   0   1   5 168.530 59.4870  16
   0  -1  -5 275.578 97.9031  39
   0  -1  -5 176.421 74.1387  20
   0  -1  -6 103.672 98.1792  39
   0   1   6 112.032 56.0314  16
   0  -1  -6 11.7409 73.3414  20
   0  -1  -7 116.679 87.6426  20
   0   1   7-8.83306 49.8646  16
   0  -1  -8 35.5085 92.0911  20
   0  -1  -8-14.0871 57.1250  27
   0   1   8-38.7848 51.1577  29
   0  -1  -9-20.7408 111.747  20
   0  -1  -9-21.4616 75.5468  27
   0  -1 -10 45.6048 108.635  20
   0  -1 -10 156.687 76.2623  27
   0  -1 -11 228.055 80.8166  27
   0   1  12-85.0963 66.3025  24
   0  -1 -12-63.6618 71.7711  27
   0  -1 -13-20.8000 60.5251  27
   0   1  13 12.5849 52.2344  24
   0  -1 -14 109.866 51.5056  27
   0   1  14 135.840 43.3630  24
   0   2 -14 554.066 80.3198  27
   0   2 -13 13000.3 599.744  27
   0   2 -12 8488.93 569.342  20
   0   2 -12 9044.88 435.271  27
   0   2 -11 3867.36 335.295  20
   0   2 -11 3470.76 210.286  27
   0   2 -11 3473.13 193.383  13
   0   2 -10 8476.32 416.971  13
   0   2 -10 9278.47 431.443  27
   0   2  -9 582.937 145.600  20
   0   2  -9 454.609 66.1198  22
   0   2  -9 492.873 79.8775  27
   0   2  -8 22041.8 1081.28  20
   0   2  -7 11541.9 613.795  20
   0   2  -6 939.354 129.355  20
   0   2  -5 41422.3 1798.90   7
   0   2  -5 43703.9 1854.01  20
   0   2  -4 25662.9 1093.69   7
   0   2  -4 24170.5 1123.62  20
   0   2  -3 194734. 8225.30   7
   0   2  -2 54180.1 2202.82   1
   0   2  -2 50459.8 2181.38  16
   0   2  -1 29220.6 1251.50  17
   0   2  -1 29733.1 1255.48  16
   0  -2   1 28987.4 1255.16   9
   0   2   0 160757. 6781.61  18
   0   2   1 65962.0 2851.98  18
   0   2   1 68227.5 2854.29   1
   0   2   2 9658.00 448.225   7
   0   2   2 10062.8 462.635  16
   0  -2  -3 179295. 7798.94  39
   0   2   3 181605. 7772.43   7
   0   2   3 193022. 7798.55  16
   0   2   4 6864.46 336.087  16
   0  -2  -4 5673.78 327.639  20
   0   2   4 6041.61 290.762   7
   0  -2  -4 7245.96 354.567  39
   0  -2  -5 23790.6 1092.28  39
   0   2   5 23520.7 1062.21  16
   0  -2  -5 22877.8 1064.26  20
   0  -2  -6 48136.5 2203.26  20
   0  -2  -6 53135.2 2242.35  39
   0   2   6 49509.5 2190.53  16
   0   2   7 10647.0 486.766  29
   0   2   7 10473.1 545.952  16
   0  -2  -7 11227.3 572.917  20
   0  -2  -8 18838.8 886.416  20
   0  -2  -8 16133.4 769.633  27
   0   2   8 18185.9 773.627  29
   0  -2  -9 1514.76 125.645  27
   0  -2  -9 1622.89 196.431  20
   0  -2 -10 34.2632 71.6054  27
   0   2  11 1812.41 133.348  24
   0  -2 -11 1668.36 128.683  27
   0   2  12 325.047 73.8283  24
   0  -2 -12 341.741 73.3182  27
   0   2  13 4594.86 227.442  24
   0  -2 -13 4430.55 221.478  27
   0   2  14 1990.61 112.322  25
   0   3 -15 63.7663 38.8924  12
   0   3 -14 47.1328 72.1545  27
   0   3 -14 4.01322 48.2348  12
   0   3 -13 232.903 85.1377  27
   0   3 -12 720.055 176.790  20
   0   3 -12 822.726 104.527  27
   0   3 -12 608.885 83.4509  13
   0   3 -11 32.4931 61.2621  22
   0   3 -11 44.3492 81.3740  27
   0   3 -11 30.8828 64.2399  13
   0   3 -11-109.079 135.746  20
   0   3 -10 34.8238 63.3470  13
   0   3 -10 13.7211 65.7637  22
   0   3 -10 41.1593 71.8680  27
   0   3 -10-101.042 116.416  20
   0   3  -9 161.178 67.4748  27
   0   3  -9 101.424 56.7091  22
   0   3  -9 111.203 105.940  20
   0   3  -9 49.7042 55.7712  13
   0   3  -8 80.2953 55.8461  27
   0   3  -8-18.8426 93.8235  20
   0   3  -7 1428.41 165.323  20
   0   3  -6 2949.90 172.472   7
   0   3  -5 1080.01 97.1392   7
   0   3  -4 386.762 66.9079   7
   0   3  -3 107.546 58.6730   7
   0   3  -3 92.8396 31.8913  16
   0   3  -3 53.0798 64.7339  20
   0   3  -2 1336.11 113.470   1
   0   3  -2 1202.22 87.0238  16
   0  -3   2 1397.66 101.356   9
   0   3  -1 28.8885 37.8233  18
   0  -3   1-3.50924 41.3473   9
   0   3  -1 48.7639 54.7000  16
   0   3   0 58.8783 44.4011  18
   0   3   1 270.375 63.9603   7
   0   3   1 336.364 67.7694  16
   0   3   1 260.392 59.3964  18
   0   3   2 253.406 70.0555  16
   0   3   2 339.147 64.0165   7
   0   3   2 379.432 67.2336  18
   0  -3  -3 836.945 101.503  39
   0   3   3 969.215 109.599  16
   0   3   3 944.168 90.2140   7
   0  -3  -4 187.189 73.0971  20
   0  -3  -4 216.396 85.7671  39
   0   3   4 198.341 53.9161   7
   0   3   4 152.929 79.9539  16
   0  -3  -5 420.506 108.560  39
   0   3   5 462.252 98.7018  16
   0  -3  -5 354.013 89.6969  20
   0  -3  -6 344.096 92.8371  20
   0  -3  -6 116.262 89.0036  39
   0   3   6 299.406 93.6166  16
   0  -3  -7-15.1752 81.7582  20
   0   3   7 14.4794 51.5287  29
   0   3   7 12.5332 52.2568  10
   0   3   7-15.0319 74.8262  16
   0  -3  -8 149.203 76.7109  27
   0   3   8 77.8490 64.4693  29
   0  -3  -8 88.0375 96.1110  20
   0  -3  -9 142.824 70.5050  27
   0   3  10 108.759 58.4199  34
   0  -3 -10-21.6337 68.4436  27
   0  -3 -11-57.5922 70.6398  27
   0   3  11 76.3289 70.0406  24
   0  -3 -12 47.3118 55.0371  27
   0   3  12-24.3063 57.4126  24
   0   3  13 90.6444 55.9348  24
   0   3  13 52.6023 52.9321  25
   0   4 -15 3568.77 176.796  12
   0   4 -14 67.8472 53.4761  12
   0   4 -13-62.4196 63.5576  13
   0   4 -13-135.185 81.2013  27
   0   4 -12 131.613 70.9533  13
   0   4 -12 144.873 131.554  19
   0   4 -12 333.607 89.0937  27
   0   4 -11 3945.93 215.623  13
   0   4 -11 4152.60 354.845  20
   0   4 -11 3938.72 224.801  27
   0   4 -10 14063.9 661.642  22
   0   4 -10 14979.7 673.952  27
   0   4 -10 15234.3 833.075  19
   0   4 -10 16196.7 833.449  20
   0   4 -10 14901.6 668.482  13
   0   4  -9 10501.1 579.925  20
   0   4  -9 9426.74 440.927  13
   0   4  -9 9242.95 437.372  22
   0   4  -8 3535.59 192.449  13
   0   4  -7 68243.6 2940.69   7
   0   4  -6 3732.85 277.711  19
   0   4  -6 4401.00 242.641   7
   0   4  -6 3482.26 273.023  20
   0   4  -5 9052.13 467.211  20
   0   4  -5 8527.62 442.418   7
   0   4  -5 8857.60 474.593  19
   0   4  -4 49392.8 1999.55  20
   0   4  -4 50006.5 2006.84  19
   0   4  -4 48857.8 1993.14   7
   0   4  -3 86779.7 3761.55   7
   0   4  -3 86318.5 3723.79  16
   0   4  -3 86922.3 3728.14  17
   0  -4   3 91527.0 3749.31   9
   0   4  -2 6780.65 314.769  17
   0   4  -2 6593.63 339.922   8
   0   4  -2 6623.30 323.577  16
   0  -4   2 6299.17 320.330   9
   0   4  -2 6374.26 306.852  18
   0   4  -1 207069. 8532.72   8
   0   4  -1 200567. 8503.67  18
   0  -4   1 201488. 8509.39   9
   0   4  -1 202751. 8523.88  16
   0   4  -1 194325. 8540.41   7
   0   4   0 10292.2 489.771  18
   0   4   0 11162.7 523.566   7
   0   4   1 24182.9 1051.46   7
   0   4   1 23625.9 1029.53  18
   0   4   1 21463.0 1041.57  16
   0   4   2 3725.45 222.001   7
   0   4   2 3217.28 224.072  16
   0  -4  -3 11384.1 567.752  39
   0   4   3 12245.8 576.923   7
   0   4   3 11849.0 592.780  16
   0  -4  -4-55.9453 64.7029  20
   0   4   4-59.1786 56.4691   7
   0  -4  -4 88.8316 71.1607  39
   0   4   4 26.2851 80.5113  16
   0  -4  -5 4145.82 262.688  20
   0   4   5 4698.48 299.586  16
   0  -4  -5 3976.34 282.164  39
   0   4   6 5146.27 260.473  29
   0  -4  -6 4761.23 312.873  20
   0   4   6 5616.16 352.504  16
   0   4   6 5189.99 257.691  10
   0   4   7 7605.24 375.145  29
   0   4   7 7785.22 369.623  10
   0   4   7 8030.88 471.217  16
   0  -4  -8 11487.6 554.303  27
   0   4   8 12769.1 557.693  10
   0  -4  -9 2460.10 156.072  27
   0   4  10 267.027 81.6301  24
   0  -4 -10 420.670 75.0666  27
   0   4  10 417.157 76.2737  34
   0   4  11 1110.62 104.489  24
   0  -4 -11 1042.41 88.6451  27
   0   4  12 10132.8 459.392  24
   0   4  12 9891.99 452.220  25
   0   4  13 4148.07 199.089  24
   0   5 -15 196.956 52.1792  12
   0   5 -14 73.0998 52.3955  12
   0   5 -13 318.673 74.6011  12
   0   5 -12 16.7358 69.1471  13
   0   5 -12 6.39658 83.9005  27
   0   5 -11 142.432 117.422  19
   0   5 -11-58.5489 71.7295  13
   0  -5  11-29.4435 131.092   9
   0   5 -10 342.647 77.4848  13
   0   5 -10 536.875 157.296  19
   0   5  -9 998.319 184.159  19
   0   5  -9 769.952 96.5358  13
   0   5  -8 127.201 62.6021  27
   0   5  -8 124.903 110.877  20
   0   5  -8 85.0362 108.905  19
   0   5  -8 27.2234 58.5839  22
   0   5  -8 191.464 61.6527  13
   0   5  -7 2415.05 189.373   7
   0   5  -7 2672.99 238.436  20
   0   5  -7 2658.57 239.028  19
   0   5  -6 1734.17 176.752  19
   0   5  -6 1547.83 154.348   7
   0  -5   5 12.0166 69.3267   9
   0   5  -5-59.5055 72.9101   7
   0   5  -4 535.530 72.9996  17
   0  -5   4 503.633 94.1799   9
   0   5  -4 746.586 111.542   7
   0   5  -4 468.492 65.5233  16
   0   5  -3 230.887 92.2614   7
   0   5  -3 158.702 76.7131   8
   0   5  -3 118.566 40.5635  18
   0  -5   3 135.162 61.7473   9
   0   5  -3 61.3697 49.4414  17
   0   5  -3 53.7649 55.3014  16
   0   5  -2 1233.05 141.488   7
   0   5  -2 1355.50 95.9124  18
   0   5  -2 1332.11 131.556   8
   0  -5   2 1361.60 111.698   9
   0   5  -2 1379.91 122.744  16
   0   5  -1 479.695 91.4059   8
   0   5  -1 502.918 67.5566  18
   0   5  -1 564.845 99.3875   7
   0   5  -1 534.256 88.4510  16
   0   5   0 80.6739 76.9980  16
   0   5   0 138.846 86.1278   7
   0   5   0 131.348 56.0334  18
   0   5   1 1503.38 128.855  18
   0   5   1 1679.39 151.840   7
   0   5   2 128.772 85.3441  16
   0  -5  -2 14.2505 47.2603  39
   0   5   2 95.3301 73.0280   7
   0   5   3 2090.20 183.289  16
   0   5   3 1944.56 164.387   7
   0  -5  -3 1481.15 138.769  39
   0   5   4 100.778 62.6383   7
   0   5   4 99.0234 97.2967  16
   0   5   5 592.026 132.849  16
   0   5   5 474.542 74.6821  10
   0   5   6 40.4531 108.983  16
   0   5   6 71.7387 63.8214  10
   0   5   6 5.51573 57.6113  29
   0   5   7 63.0952 103.192  16
   0   5   7 32.7214 63.0947  10
   0   5   7 6.16895 71.7450  29
   0  -5  -8 211.771 69.7254  27
   0   5   8 387.164 79.4607  10
   0  -5  -9 227.232 68.0321  27
   0   5  10 22.7861 52.0347  25
   0   5  10 53.3176 61.7345  34
   0   5  11 180.100 50.4879  34
   0   5  11 217.582 63.6953  24
   0   5  12 274.929 55.5142  24
   0   6 -15 2227.97 121.651  12
   0   6 -14 1609.68 110.013  12
   0   6 -13 5.40047 59.4208  12
   0   6 -12 3849.05 216.839  12
   0   6 -12 3649.93 215.415  13
   0   6 -11 4870.98 253.892  13
   0   6 -11 4411.22 248.677  12
   0   6 -10 3649.93 330.710  19
   0  -6  10 2896.64 316.242   9
   0   6 -10 3760.98 210.327  13
   0  -6   9 6669.29 491.224   9
   0   6  -9 7857.53 374.880  13
   0  -6   8 64.3493 106.782   9
   0   6  -8-4.14684 49.3640  14
   0   6  -8 89.1809 65.6330  13
   0   6  -8 27.6614 63.7549   7
   0  -6   7 6446.47 390.577   9
   0   6  -7 5902.47 279.453  14
   0  -6   6 19463.8 937.562   9
   0   6  -6 18651.6 882.951  17
   0   6  -6 20161.5 940.333   7
   0  -6   5 1265.27 137.275   9
   0   6  -5 1119.61 104.865  17
   0   6  -5 1175.44 144.620   7
   0   6  -5 1457.32 162.558   8
   0   6  -4 2474.08 156.729  17
   0   6  -4 2138.17 135.095  18
   0   6  -4 2422.14 207.438   7
   0   6  -4 2870.50 168.968  16
   0   6  -4 2345.10 200.990   8
   0  -6   4 2557.03 179.546   9
   0   6  -3 97972.8 4083.84   8
   0   6  -3 94045.4 4012.28  18
   0  -6   3 92225.8 4043.30   9
   0   6  -3 95193.1 4052.98  16
   0   6  -2 29871.9 1322.91   8
   0   6  -2 28020.3 1337.07   7
   0   6  -2 29441.1 1306.76  16
   0   6  -2 28553.5 1263.11  18
   0   6  -1 22575.3 1048.86   7
   0   6  -1 22478.4 1023.80  16
   0   6  -1 21304.9 978.131  18
   0   6   0 46575.5 1953.42   7
   0   6   0 41818.7 1887.19  18
   0   6   0 42828.7 1930.60  16
   0   6   1 21251.5 1022.13   7
   0   6   2 6850.24 400.273   7
   0   6   2 6486.15 402.847  16
   0   6   3 5252.85 252.673  28
   0   6   3 5262.00 349.468  16
   0   6   3 4642.23 244.836  10
   0   6   3 4591.40 314.267   7
   0   6   3 4906.73 244.221  29
   0   6   4 34278.2 1534.37  16
   0   6   4 31735.0 1392.41   5
   0   6   4 32398.8 1400.09  10
   0   6   4 32258.1 1398.92  29
   0   6   5 826.329 90.9733  10
   0   6   5 907.862 95.1598  29
   0   6   5 729.118 156.276  16
   0   6   6 1885.12 138.417  10
   0   6   6 1648.72 218.019  16
   0   6   6 2244.40 143.650  24
   0   6   7 2149.20 146.424  24
   0   6   7 1811.42 220.877  16
   0   6   7 2033.03 142.022  10
   0   6   7 1938.55 126.014  25
   0   6   8 22.4452 46.9193  25
   0   6   8 68.7168 69.9611  24
   0   6   8 87.8372 65.1950  10
   0   6   9 651.145 87.5276  24
   0   6  10 3561.32 201.688  34
   0   6  10 4291.08 212.619  24
   0   6  11 2226.27 118.924  34
   0   6  12 2098.60 107.327  35
   0   7 -15 74.0412 37.2192  15
   0   7 -15 69.1865 36.4272  12
   0   7 -14 34.3119 49.3003  12
   0   7 -13 233.730 65.2990  12
   0   7 -12 84.0681 65.7779  12
   0   7 -11 206.676 84.2867  13
   0   7 -11 131.093 56.3041   3
   0   7 -11 207.347 71.4422  12
   0   7 -10 30.9904 52.7260   3
   0   7 -10 101.491 78.6446  13
   0   7 -10 17.4745 53.0474  14
   0   7 -10 85.1659 73.7734  12
   0   7  -9 79.5151 54.5564   3
   0   7  -9 113.459 68.0086  12
   0   7  -9 18.8120 60.7619  14
   0  -7   9 138.917 113.646   9
   0   7  -9 128.637 76.1789  13
   0   7  -8 469.570 115.463   7
   0  -7   8 409.987 125.978   9
   0   7  -8 658.715 153.048   8
   0   7  -8 709.151 83.8499   3
   0   7  -8 707.141 82.0086  14
   0   7  -7 849.887 85.7524   3
   0   7  -7 867.148 81.7531  30
   0  -7   7 734.492 137.787   9
   0   7  -7 677.674 84.0105  14
   0   7  -7 972.078 155.003   8
   0   7  -6 194.879 107.582   8
   0   7  -6 152.726 93.7293   7
   0   7  -6 38.2888 61.1752  13
   0   7  -6 43.9826 51.1496  12
   0   7  -6 120.570 57.2157  14
   0   7  -6 109.169 51.7307   3
   0   7  -6 61.2514 47.9549  30
   0   7  -5 1090.26 155.663   8
   0   7  -5 1244.62 161.925   7
   0   7  -5 1011.13 89.8518  14
   0   7  -5 1187.11 89.8600  15
   0   7  -5 1175.46 90.8944  12
   0   7  -5 1136.51 91.1069   3
   0   7  -5 1254.39 98.1451  30
   0   7  -4 742.045 74.3629  14
   0   7  -4 855.284 131.967   8
   0   7  -4 623.506 128.421   7
   0   7  -4 618.593 71.0525   3
   0   7  -4 704.173 68.6849   4
   0   7  -4 601.829 93.5405  16
   0   7  -3 533.191 97.7700  16
   0   7  -3 678.970 118.051   8
   0   7  -2 136.322 47.3023  18
   0   7  -2 230.755 89.5354  16
   0   7  -2 303.564 90.6345   8
   0   7  -2 205.978 107.138   7
   0   7  -1 1285.07 156.494  16
   0   7  -1 1467.03 174.900   7
   0   7   0 25.1380 41.1508  11
   0   7   0 114.049 95.9783   7
   0   7   0 66.8563 85.5631  16
   0   7   1 26.6349 42.4649  11
   0   7   1 114.632 92.3647   7
   0   7   1 40.9123 52.7343  30
   0   7   1 46.8860 52.2218  28
   0   7   1 73.4755 97.7685  16
   0   7   2 37.9062 82.9049   7
   0   7   2 137.132 52.9235  30
   0   7   2 17.0720 48.6488  29
   0   7   2 65.1129 52.7120   5
   0   7   2 41.8521 56.2584  28
   0   7   3 161.870 90.5046   7
   0   7   3 217.393 61.4617   5
   0   7   3 265.899 125.768  16
   0   7   3 333.650 66.2215  10
   0   7   3 402.144 67.2129  29
   0   7   3 407.455 62.7445  24
   0   7   4 688.538 78.6343  24
   0   7   4 625.191 89.2515  10
   0   7   4 620.208 76.9088   5
   0   7   4 687.816 89.5692  29
   0   7   4 741.633 164.641  16
   0   7   5 102.906 68.7655  10
   0   7   5 150.569 131.891  16
   0   7   5 22.5268 57.1236  24
   0   7   6 18.3204 69.7046  10
   0   7   6 143.110 65.0365  24
   0   7   7 47.6444 68.8341  24
   0   7   7 168.485 79.8364  10
   0   7   8 143.173 67.8886  24
   0   7   9 64.7302 60.7945  24
   0   7   9 144.418 65.3786  34
   0   7  10 6.20946 53.6644  34
   0   7  10-13.6653 56.1821  24
   0   7  11 8.67164 34.7076  35
   0   8 -15 2873.59 139.914  15
   0   8 -14 4950.16 220.692  15
   0   8 -14 5036.90 220.728  12
   0   8 -13 3247.22 168.203  12
   0   8 -13 2637.05 156.219   4
   0   8 -12 5191.76 269.319  12
   0   8 -11 2388.04 145.883   3
   0   8 -11 2402.10 159.830  12
   0   8 -10 3794.57 209.127   3
   0   8 -10 3627.14 216.940  12
   0   8 -10 3902.23 336.014   8
   0   8 -10 3907.42 205.193  14
   0   8  -9 1161.47 101.752   3
   0   8  -9 1010.33 97.4107  14
   0   8  -8 20786.7 891.795  14
   0   8  -8 19723.4 892.873   3
   0   8  -8 19653.1 1037.44   8
   0   8  -8 18845.8 999.383   7
   0   8  -7 16625.7 771.154  12
   0   8  -7 16295.9 766.233  14
   0   8  -7 17903.3 776.061  30
   0   8  -7 17516.4 902.807   8
   0   8  -7 17140.6 894.490   7
   0   8  -7 17206.5 774.439  15
   0   8  -7 17754.8 772.758   3
   0   8  -6 14814.2 678.843  15
   0   8  -6 14945.7 804.200   7
   0   8  -6 14231.0 672.755  14
   0   8  -6 15507.5 677.930   3
   0   8  -6 14607.3 675.218  12
   0   8  -6 15816.3 684.712  30
   0   8  -6 15391.5 800.271   8
   0   8  -6 14674.3 677.305   4
   0   8  -5 19.7674 98.3984   8
   0   8  -5-23.0392 104.393   7
   0   8  -5-14.9047 59.2659  14
   0   8  -5-6.14095 59.1393  30
   0   8  -5-21.6547 45.5510   4
   0   8  -5-10.6713 46.2215  15
   0   8  -5 26.7622 54.9731   3
   0   8  -5 49.9486 55.1179  12
   0   8  -4 7934.58 451.978   8
   0   8  -4 7016.35 351.870  30
   0   8  -4 6984.18 341.781   4
   0   8  -4 6968.42 337.947  11
   0   8  -4 6304.49 389.306  16
   0   8  -4 7280.01 341.174  15
   0   8  -4 7328.99 343.405   3
   0   8  -4 6933.13 461.421   7
   0   8  -4 6861.49 338.111  12
   0   8  -3 1421.03 171.029   8
   0   8  -3 1563.96 110.500  14
   0   8  -3 1357.04 100.601  11
   0   8  -3 1503.06 103.514  15
   0   8  -3 1320.79 159.353  16
   0   8  -3 1431.24 102.963   4
   0   8  -2 9927.72 475.625  28
   0   8  -2 10270.6 481.242  15
   0   8  -2 10994.2 484.951  36
   0   8  -2 10039.1 494.291  30
   0   8  -2 9925.92 482.874   4
   0   8  -2 11075.3 624.876   7
   0   8  -2 10589.7 482.985  11
   0   8  -2 11571.0 485.193  14
   0   8  -2 10968.9 580.268  16
   0   8  -1 2568.39 247.448   7
   0   8  -1 2160.05 140.907  28
   0   8  -1 2346.35 142.784  11
   0   8  -1 2334.50 143.302   4
   0   8  -1 2420.08 224.556  16
   0   8  -1 2490.69 157.840  30
   0   8  -1 2604.38 145.269  36
   0   8   0 20.5313 100.735  16
   0   8   0 69.2078 97.0575   7
   0   8   0 54.4750 44.3900  35
   0   8   0-18.3920 61.0419  30
   0   8   0 4.98515 45.9584  11
   0   8   1 2836.08 173.352  30
   0   8   1 2569.12 258.908  16
   0   8   1 2870.23 162.172  35
   0   8   1 2730.52 156.325  29
   0   8   1 2796.29 170.008  10
   0   8   1 2634.84 256.338   7
   0   8   2 1111.91 100.378  29
   0   8   2 1086.99 175.093   7
   0   8   2 1425.51 109.844   5
   0   8   2 1409.39 111.108  30
   0   8   3 2936.01 284.741  16
   0   8   3 2698.41 159.297  24
   0   8   3 2859.32 167.612   5
   0   8   4-105.476 125.508  16
   0   8   4-30.9156 53.9758  24
   0   8   4 79.8899 58.6010   5
   0   8   4-12.5248 72.2478  10
   0   8   5 27593.7 1409.32  16
   0   8   5 28109.8 1250.03  24
   0   8   5 29500.3 1260.66  10
   0   8   6 5132.86 271.745  10
   0   8   6 5123.13 265.272  24
   0   8   7 6198.96 310.137  24
   0   8   7 6415.73 315.172  10
   0   8   8 6379.24 316.241  24
   0   8   8 6708.83 326.448  34
   0   8   8 6891.08 326.239  35
   0   8   9 322.443 69.1324  34
   0   8   9 384.827 66.6352  35
   0   8  10 117.629 36.3855  35
   0   9 -14 83.0685 25.8911   4
   0   9 -14 59.2705 34.4954  15
   0   9 -13-9.67249 37.1053   4
   0   9 -13 34.9655 45.0653  15
   0   9 -13 53.8906 51.4208  12
   0   9 -12 22.2691 47.1180   4
   0   9 -12 24.8136 50.9824  15
   0   9 -12 34.0115 55.0124  12
   0   9 -11 57.6593 53.3122  15
   0   9 -11 102.469 53.7062   3
   0   9 -11 150.800 59.7521   4
   0   9 -10-48.0692 59.1764   4
   0   9 -10 18.8022 60.5880  15
   0   9 -10 10.6427 59.2314   3
   0   9  -9 27.1120 47.7943   6
   0   9  -9-6.48593 60.5271  15
   0   9  -9 12.5298 68.5298  12
   0   9  -9-49.1447 103.378   8
   0   9  -9 17.6169 58.8816   3
   0   9  -9-12.6477 58.7743   4
   0   9  -9 90.3361 68.8347  14
   0   9  -8 89.6165 63.0604   4
   0   9  -8 24.3421 100.351   8
   0   9  -8 117.621 66.7228   3
   0   9  -8-51.7751 61.1449  15
   0   9  -8 62.0440 66.8718  12
   0   9  -8 11.2075 72.1426  14
   0   9  -8 68.0381 95.4252   7
   0   9  -7 4055.99 225.218  30
   0   9  -7 3143.70 312.536   7
   0   9  -7 3891.30 321.921   8
   0   9  -7 3793.37 214.786  15
   0   9  -7 3986.40 219.965   3
   0   9  -7 3591.72 212.953  12
   0   9  -7 3908.37 216.144  14
   0   9  -7 3764.41 216.681   4
   0   9  -6 578.218 79.1732   4
   0   9  -6 388.412 125.253   8
   0   9  -6 540.614 88.3954  30
   0   9  -6 696.847 87.8689  12
   0   9  -6 419.123 141.307   7
   0   9  -6 620.854 89.5745  14
   0   9  -6 441.362 72.9623  15
   0   9  -6 669.889 83.0047   3
   0   9  -6 495.328 73.0706  11
   0   9  -5 1452.63 114.730  11
   0   9  -5 1482.13 199.827   8
   0   9  -5 1604.99 131.930  30
   0   9  -5 1669.70 127.043  14
   0   9  -5 1801.48 123.033  15
   0   9  -5 1697.00 234.380   7
   0   9  -5 1601.87 122.326   4
   0   9  -5 1601.60 124.138   3
   0   9  -4 175.029 59.9106   4
   0   9  -4 133.322 65.9707   3
   0   9  -4 50.4351 50.1276  15
   0   9  -4 21.4799 95.7536   8
   0   9  -4 160.212 59.1234  11
   0   9  -3-106.575 95.7016  16
   0   9  -3-4.19383 57.3407  10
   0   9  -3-26.5970 51.0383  11
   0   9  -3-21.8658 46.4600  15
   0   9  -3 81.6493 118.995   7
   0   9  -3 7.16550 68.7472  30
   0   9  -3-5.72036 52.7319   4
   0   9  -2 372.346 83.0659  30
   0   9  -2 354.435 63.1304   4
   0   9  -2 320.161 113.917  16
   0   9  -2 435.048 138.072   7
   0   9  -2 306.847 65.5088  10
   0   9  -2 382.344 66.5559  11
   0   9  -1 33.5604 53.2464   4
   0   9  -1-7.10317 69.1851  30
   0   9  -1 5.48600 50.7760  11
   0   9  -1 35.5047 65.5619  10
   0   9  -1-88.0197 115.627  16
   0   9  -1-27.0044 124.452   7
   0   9   0 406.654 82.0557  30
   0   9   0 342.172 131.613   7
   0   9   0 143.316 121.230  16
   0   9   0 294.087 57.9060  35
   0   9   0 252.035 75.5150  10
   0   9   1 76.0337 118.734  16
   0   9   1 101.807 64.8644  30
   0   9   1-53.5137 50.5463  35
   0   9   1-100.775 118.028   7
   0   9   1-23.9467 66.2572   5
   0   9   1-29.2429 65.4731  10
   0   9   2 158.713 124.152  16
   0   9   2 177.887 60.7756  35
   0   9   2 138.365 106.545   7
   0   9   2 245.574 77.3364  10
   0   9   2 153.990 68.9253   5
   0   9   3 162.638 124.987  16
   0   9   3 101.994 64.3801  35
   0   9   3 73.8932 62.8541   5
   0   9   4 6.05014 61.9346  35
   0   9   4 30.6411 44.8130  24
   0   9   4 5.15287 60.7038   5
   0   9   4 18.5072 71.7406  10
   0   9   5 23.2453 70.3599  10
   0   9   5-63.8181 66.2267  35
   0   9   6 112.534 65.7132  10
   0   9   6 104.276 60.7983  35
   0   9   7 64.6509 52.8196  35
   0   9   7-18.3941 66.2437  34
   0   9   8-47.2455 58.6285  34
   0   9   8 109.788 51.2041  35
   0  10 -13 2481.61 125.887  15
   0  10 -13 2200.48 118.930   4
   0  10 -12 3350.65 178.950  15
   0  10 -12 3459.69 176.470   4
   0  10 -11 105.523 52.4216  15
   0  10 -11 58.8652 50.3729   4
   0  10 -10 4335.23 238.019  12
   0  10 -10 4662.21 237.473   4
   0  10 -10 4771.43 240.778  15
   0  10 -10 4094.86 223.217  11
   0  10 -10 4858.90 236.361   3
   0  10  -9-5.87976 55.9731  15
   0  10  -9-33.0279 48.1348  11
   0  10  -9 64.2008 60.7445   4
   0  10  -9 27.6679 59.8082   3
   0  10  -9 75.4231 64.7634  12
   0  10  -9-13.4098 47.2767   6
   0  10  -8 5339.81 279.287  15
   0  10  -8 5513.08 282.415   4
   0  10  -8 5708.32 273.761  11
   0  10  -8 5180.38 278.315   3
   0  10  -8 5120.44 273.922   6
   0  10  -7 87.8196 62.4835   4
   0  10  -7 55.2132 58.4355  15
   0  10  -7-104.187 113.897   7
   0  10  -7 94.4262 95.2800   8
   0  10  -7 32.2472 48.9573  11
   0  10  -7 99.2846 64.4032   3
   0  10  -6 1562.23 123.270   4
   0  10  -6 1747.47 128.426   3
   0  10  -6 1532.78 116.861  11
   0  10  -6 1935.40 145.007  30
   0  10  -6 1593.84 202.070   8
   0  10  -6 1779.08 234.501   7
   0  10  -6 1470.15 119.590  15
   0  10  -5 3668.87 214.307  30
   0  10  -5 3328.94 189.940  11
   0  10  -5 3168.82 319.033   7
   0  10  -5 3294.78 195.829   4
   0  10  -5 3242.30 191.494  15
   0  10  -4 2707.81 166.773  11
   0  10  -4 2914.98 173.745   4
   0  10  -3 482.596 69.8613  11
   0  10  -3 472.295 68.9427  10
   0  10  -3 738.854 180.704   7
   0  10  -3 684.982 83.2132   4
   0  10  -3 488.022 95.1438  30
   0  10  -2 2699.59 182.725  30
   0  10  -2 2574.98 158.260  11
   0  10  -2 2394.34 152.726  10
   0  10  -2 2202.51 268.215   7
   0  10  -2 2090.46 231.480  16
   0  10  -2 2882.75 163.600   4
   0  10  -1 82.3859 69.9558   5
   0  10  -1 85.7632 120.283   7
   0  10  -1 37.9332 61.8758  10
   0  10  -1-70.5228 106.531  16
   0  10  -1 61.2065 75.0944  30
   0  10   0 4451.40 371.361  16
   0  10   0 4156.93 372.817   7
   0  10   0 4872.51 260.095   5
   0  10   0 5097.27 270.803  30
   0  10   0 4764.40 256.490  10
   0  10   1 24.5123 69.1778   5
   0  10   1-129.343 121.188  16
   0  10   1-77.3871 72.2375  10
   0  10   1 49.9833 100.847   7
   0  10   1 34.8369 47.3754  35
   0  10   2 213.443 63.0612   6
   0  10   2 219.884 71.0963   5
   0  10   2 341.364 81.4014  10
   0  10   2 220.268 59.1612  35
   0  10   3 25.4276 58.0952  35
   0  10   3 103.933 64.9013   5
   0  10   4 1207.05 94.6023   5
   0  10   4 970.831 91.7141  35
   0  10   4 1201.23 107.723  10
   0  10   5 1750.65 117.600  35
   0  10   5 1955.40 132.908  34
   0  10   5 1886.03 128.082  10
   0  10   6 13.3969 46.3943  35
   0  10   7 275.473 56.0411  34
   0  11 -12 36.2962 36.5148  15
   0  11 -12 11.8985 33.9936   4
   0  11 -11 240.303 47.4722  15
   0  11 -11 141.188 43.0024   4
   0  11 -10 38.7192 44.6515   4
   0  11 -10 30.0122 43.0122  15
   0  11  -9 130.794 51.4521  15
   0  11  -9 58.6551 40.5247  11
   0  11  -9-9.92016 50.9999   4
   0  11  -8 120.160 53.2957  15
   0  11  -8 32.2959 48.7137   5
   0  11  -8 111.048 46.9242  11
   0  11  -8 151.852 57.5262   4
   0  11  -8 136.051 60.8631   6
   0  11  -7 1384.63 107.886  15
   0  11  -7 1267.07 112.296   6
   0  11  -7 1431.45 106.227   5
   0  11  -7 1318.41 101.506  11
   0  11  -7 1414.39 110.670   4
   0  11  -6 787.912 85.6334   4
   0  11  -6 656.365 74.9884  11
   0  11  -5 230.068 59.1032  11
   0  11  -5 320.277 71.6310   4
   0  11  -4 64.3536 53.4187  11
   0  11  -4 11.8090 60.6684   4
   0  11  -3 427.675 65.2667  10
   0  11  -3 532.139 76.4751   4
   0  11  -3 488.947 69.2056  11
   0  11  -2 137.042 74.4700   5
   0  11  -2 103.935 59.8276  10
   0  11  -1 1072.84 98.8752  10
   0  11  -1 945.318 103.301   5
   0  11   0 188.289 56.5506  34
   0  11   0 68.9975 65.0731   6
   0  11   0 112.162 70.7475   5
   0  11   0 47.2364 63.5528  10
   0  11   1 65.1929 57.5550  34
   0  11   1 119.918 60.1469   6
   0  11   1 82.5055 65.5417   5
   0  11   1 63.0987 60.1138  10
   0  11   2 471.909 79.1630  10
   0  11   2 504.140 73.8046  34
   0  11   2 637.906 77.6126   5
   0  11   2 417.411 61.9586   6
   0  11   3 35.4611 51.5798   5
   0  11   3-23.2812 61.2036  10
   0  11   3 39.7817 60.2058  34
   0  11   4 7.82904 57.9925  34
   0  11   5 141.886 60.9639  34
   0  11   6 48.6579 40.6428  34
   0  12 -11 264.862 35.7549   4
   0  12 -10 120.035 46.0757   4
   0  12  -9 2412.81 136.151   4
   0  12  -8 367.746 57.2645   4
   0  12  -8 479.681 65.0063   6
   0  12  -7 3112.82 167.761   4
   0  12  -7 2922.36 171.309   6
   0  12  -7 3012.03 162.934   5
   0  12  -7 2733.97 154.166  11
   0  12  -6 67.9884 51.8986   4
   0  12  -6 35.7050 43.8389  11
   0  12  -6 106.817 58.1375   5
   0  12  -6 16.3178 61.9545   6
   0  12  -5 1561.63 115.066   4
   0  12  -5 1665.23 119.563   5
   0  12  -4 683.204 96.5549   6
   0  12  -4 827.786 82.1655   4
   0  12  -4 858.329 94.0595   5
   0  12  -3 1725.22 130.754   6
   0  12  -2 5119.24 279.280   6
   0  12  -2 5876.89 283.771   5
   0  12  -1 3873.47 196.884  10
   0  12  -1 3736.95 207.608   5
   0  12  -1 3584.09 204.000   6
   0  12   0 1102.08 93.0942   6
   0  12   0 1032.39 90.8406  10
   0  12   0 1261.95 100.938   5
   0  12   1 158.430 58.5825  10
   0  12   1 153.051 56.5850   5
   0  12   1 88.4573 46.2659   6
   0  12   2 1389.30 98.0880  10
   0  12   2 1275.76 92.6829   5
   0  12   3 256.482 43.6768   5
   0  13  -9 44.2434 29.7230   4
   0  13  -8 437.919 51.7470   4
   0  13  -7 131.183 57.7738   6
   0  13  -6 1306.02 97.2385   6
   0  13  -6 1061.74 85.6946   5
   0  13  -5 105.673 55.6352   5
   0  13  -4 105.473 65.6907   6
   0  13  -4 39.9648 57.3360   5
   0  13  -3 216.896 62.6469   6
   0  13  -2 303.976 69.0078   5
   0  13  -2 240.118 62.7695   6
   0  13  -1 186.683 58.8981   6
   0  13  -1 220.675 59.6073   5
   0  13   0 30.1977 48.4785   5
   0  13   0-2.19094 39.6693   6
   0  13   1 36.8351 36.3587   5
   0  14  -6 207.483 42.0077   6
   0  14  -5 37.8587 35.0035   5
   0  14  -4 537.837 52.2810   6
   0  14  -4 555.720 54.0450   5
   0  14  -3 92.9290 38.5601   6
   0  14  -2 275.155 36.9573   5
  -1  14  -3 26.1843 31.6577   6
  -1  14  -3 52.9067 32.5725   5
  -1  14  -4 65.2417 37.4827   6
  -1  14  -5 236.641 40.9635   5
  -1  14  -6 54.9234 34.1815   6
  -1  13   1 1520.27 87.6051  10
  -1  13   0 1990.59 111.678   6
  -1  13   0 2258.21 118.456   5
  -1  13   0 2126.95 116.458  10
  -1  13  -1 2819.70 142.383   5
  -1  13  -1 2167.80 134.426   6
  -1  13  -2 647.253 73.4076   5
  -1  13  -2 505.396 69.0046   6
  -1  13  -3 351.292 65.7924   6
  -1  13  -3 389.977 66.8192   5
  -1  13  -4-29.0445 56.6305   6
  -1  13  -5 92.0615 57.4308   5
  -1  13  -6 133.621 53.0126   5
  -1  13  -6 123.409 58.8651   6
  -1  13  -7 130.765 55.4420   6
  -1  13  -7 119.952 50.0668   5
  -1  12   2-13.6080 39.5974   5
  -1  12   2 28.1648 57.8967  10
  -1  12   1 31.0337 54.4243  10
  -1  12   1 9.72887 41.9217   6
  -1  12   1 3.68630 46.9399   5
  -1  12   0 787.266 79.0575   6
  -1  12   0 887.173 83.4417   5
  -1  12   0 822.824 79.7716  10
  -1  12  -1 4024.60 205.544   5
  -1  12  -1 3575.24 196.423  10
  -1  12  -2 5.07322 63.9251   5
  -1  12  -2 85.9247 53.8434  10
  -1  12  -3 145.189 66.6191   5
  -1  12  -3 162.033 79.2860  30
  -1  12  -4 292.080 60.0620  11
  -1  12  -4 293.507 80.4742  30
  -1  12  -5 328.436 59.1193  11
  -1  12  -6 358.977 57.9145  11
  -1  12  -6 378.147 57.0987   4
  -1  12  -7 3247.83 171.777  11
  -1  12  -7 3103.51 168.901   4
  -1  12  -8 618.312 62.0190   5
  -1  12  -8 577.156 61.0425   4
  -1  12  -8 502.113 64.7612   6
  -1  12  -8 479.345 57.9737  11
  -1  12  -9 50.0077 39.6679  11
  -1  12  -9 41.8030 35.7673   4
  -1  12 -10 30.0295 29.7390   4
  -1  11   6 150.303 42.3724  34
  -1  11   5 42.8012 52.8548  34
  -1  11   5 12.1578 48.7376  10
  -1  11   4 563.082 73.1736  10
  -1  11   3 331.978 52.7997   5
  -1  11   2 101.759 48.7371   6
  -1  11   2 74.7188 67.0196  10
  -1  11   2 64.5941 53.7333   5
  -1  11   1 290.342 69.5210   5
  -1  11   1 145.709 62.8598  10
  -1  11   0 992.214 96.7820   5
  -1  11   0 1101.98 98.1500  10
  -1  11   0 955.202 103.641  30
  -1  11  -1 466.824 79.5467  10
  -1  11  -1 411.271 91.0694  30
  -1  11  -2 3186.91 199.460  30
  -1  11  -2 2952.53 173.822  10
  -1  11  -3 3451.83 191.732  11
  -1  11  -3 2978.68 175.744  10
  -1  11  -3 3406.61 206.723  30
  -1  11  -4 2509.92 154.786   4
  -1  11  -4 2428.19 141.000  10
  -1  11  -4 2529.02 156.572  11
  -1  11  -5 695.142 100.582  30
  -1  11  -5 442.442 74.7566  11
  -1  11  -5 588.709 76.2871   4
  -1  11  -6 1147.83 98.2606   4
  -1  11  -6 1137.77 98.6135  11
  -1  11  -6 1220.20 118.024  30
  -1  11  -7 3004.14 183.892  30
  -1  11  -7 2881.84 173.586  15
  -1  11  -7 2821.39 168.258  11
  -1  11  -7 2914.38 168.095   4
  -1  11  -8 144.530 58.0918  15
  -1  11  -8 97.1737 49.0661   4
  -1  11  -8 140.273 52.0627  11
  -1  11  -9 1174.87 88.2572   4
  -1  11  -9 1230.69 92.3783  11
  -1  11 -10 511.286 54.6151   4
  -1  11 -10 520.211 59.1104  11
  -1  11 -11 1179.47 72.9780   4
  -1  11 -11 1351.73 82.6399  11
  -1  10   7 1248.15 87.7007  34
  -1  10   6 120.899 59.2285  10
  -1  10   5 4289.92 224.586  10
  -1  10   4 2096.99 138.506  10
  -1  10   3 16.8978 67.8886  10
  -1  10   3 72.3856 56.2425   5
  -1  10   2 990.113 93.1112   5
  -1  10   2 1102.01 98.4832  30
  -1  10   1 5552.48 288.178   5
  -1  10   1 5814.96 296.735  30
  -1  10   1 5667.35 291.608  10
  -1  10   1 5368.45 408.865  16
  -1  10   0 1279.24 110.252  10
  -1  10   0 1659.01 128.482  30
  -1  10   0 1674.92 215.505   7
  -1  10   0 1157.88 186.728  16
  -1  10  -1 233.926 66.1038  28
  -1  10  -1 254.281 132.772   7
  -1  10  -1 257.156 82.4455  30
  -1  10  -1 272.960 119.980  16
  -1  10  -2 313.726 112.616  16
  -1  10  -2 275.680 66.1257  28
  -1  10  -2 637.556 169.806   7
  -1  10  -2 563.169 71.3546   4
  -1  10  -2 413.472 87.9591  30
  -1  10  -3 961.949 185.619   7
  -1  10  -3 785.290 79.8212  28
  -1  10  -3 951.963 90.3679   4
  -1  10  -3 919.795 112.330  30
  -1  10  -3 900.143 94.5326  11
  -1  10  -4 1167.77 101.766  11
  -1  10  -4 1209.88 104.652   4
  -1  10  -5 172.685 59.1554  11
  -1  10  -5 266.142 81.5925  30
  -1  10  -5 283.179 135.080   7
  -1  10  -5 209.271 63.4579   4
  -1  10  -6 12803.9 586.036  11
  -1  10  -6 12555.0 581.584   4
  -1  10  -6 12637.3 594.463  30
  -1  10  -6 13089.6 731.036   8
  -1  10  -6 11807.2 729.169   7
  -1  10  -7 52.8738 69.2693  30
  -1  10  -7 67.7879 54.4462   4
  -1  10  -7-25.6833 105.890   8
  -1  10  -7 254.438 128.470   7
  -1  10  -7 24.4424 57.0644  11
  -1  10  -8 70.5576 61.4911  30
  -1  10  -8 91.6348 56.2058   4
  -1  10  -9 1728.05 119.684   4
  -1  10 -10 576.397 64.7171   4
  -1  10 -11 229.180 45.4850   4
  -1  10 -12 53.2877 38.6542  11
  -1   9   8 825.373 78.7779  34
  -1   9   7 4683.89 228.397  10
  -1   9   7 4381.95 223.752  35
  -1   9   6 1736.42 119.365  10
  -1   9   6 1629.33 113.702  35
  -1   9   5 1894.66 134.761  10
  -1   9   4 58.9381 73.5643  10
  -1   9   4 5.38680 62.8148  29
  -1   9   3 5824.19 292.385   5
  -1   9   3 5653.80 428.598  16
  -1   9   3 5751.26 289.843  35
  -1   9   3 6309.44 305.702  10
  -1   9   3 5807.21 295.247  29
  -1   9   2 130.404 59.1045  29
  -1   9   2 197.500 77.3167  28
  -1   9   2 171.084 66.0800  30
  -1   9   2 200.860 121.597  16
  -1   9   2 350.618 121.479   7
  -1   9   2 188.394 63.7037   5
  -1   9   1 1055.87 100.789  30
  -1   9   1 779.353 159.945   7
  -1   9   1 812.352 79.2635  29
  -1   9   1 937.789 168.631  16
  -1   9   1 918.921 100.437  28
  -1   9   0 1252.28 105.866  11
  -1   9   0 1133.63 186.949   7
  -1   9   0 1325.13 112.439  28
  -1   9   0 1263.57 189.192  16
  -1   9   0 1414.26 120.611  30
  -1   9  -1 2447.79 263.104   7
  -1   9  -1 2870.89 175.520  30
  -1   9  -1 2810.15 161.541   4
  -1   9  -1 2281.62 156.057  28
  -1   9  -1 2164.70 239.312  16
  -1   9  -2 393.820 68.0621  28
  -1   9  -2 477.433 86.5569  30
  -1   9  -2 363.853 119.824  16
  -1   9  -2 590.910 74.2224   4
  -1   9  -3 523.826 156.096   7
  -1   9  -3 504.595 66.4398  28
  -1   9  -3 394.358 109.619  16
  -1   9  -3 763.377 81.7074   4
  -1   9  -3 583.172 92.4000  30
  -1   9  -4 927.089 160.073   8
  -1   9  -4 952.701 92.9083  11
  -1   9  -4 522.304 146.625   7
  -1   9  -4 883.649 85.3041   4
  -1   9  -4 717.060 96.3492  30
  -1   9  -5 854.174 162.570   8
  -1   9  -5 738.194 82.9703   4
  -1   9  -5 858.377 96.1327  30
  -1   9  -5 829.898 170.947   7
  -1   9  -6 12661.6 704.544   7
  -1   9  -6 12059.8 554.951   4
  -1   9  -6 11941.5 563.663  30
  -1   9  -6 11454.7 686.484   8
  -1   9  -7 1003.21 171.969   7
  -1   9  -7 1157.66 107.299  12
  -1   9  -7 975.840 192.452   8
  -1   9  -7 1202.99 106.507  30
  -1   9  -7 946.220 93.1711   4
  -1   9  -8 4006.59 225.010   4
  -1   9  -8 3992.09 347.508   8
  -1   9  -8 4178.75 226.792  30
  -1   9  -8 3872.93 322.819   7
  -1   9  -8 4568.02 236.120  12
  -1   9  -9 1947.55 131.538   4
  -1   9  -9 1969.24 140.831  12
  -1   9  -9 1547.56 217.537   8
  -1   9 -10-54.4633 51.8792   4
  -1   9 -10 42.1138 67.9254  12
  -1   9 -11 16.2049 56.7686  12
  -1   9 -11-8.30254 41.6257   4
  -1   9 -11 52.8366 61.8959  15
  -1   9 -12 1123.75 95.9496  15
  -1   9 -12 1194.63 94.4022  12
  -1   9 -13 3188.93 171.379  15
  -1   9 -14 2909.86 146.306  15
  -1   8   9 588.351 72.7702  34
  -1   8   9 420.489 59.1007  24
  -1   8   8 8620.30 397.245  24
  -1   8   7 153.215 63.8992  10
  -1   8   7 94.8920 56.8752  24
  -1   8   6 1912.70 130.647  24
  -1   8   6 2149.21 148.137  29
  -1   8   6 2099.33 141.836  10
  -1   8   5 1568.75 114.529  24
  -1   8   5 1401.57 203.858  16
  -1   8   5 1710.04 128.586  29
  -1   8   5 1746.86 128.381  10
  -1   8   4 199.807 118.135  16
  -1   8   4 472.330 81.1368  29
  -1   8   4 369.603 61.0693  24
  -1   8   4 425.335 82.8373  10
  -1   8   3 221.848 64.4692  29
  -1   8   3 241.656 124.028  16
  -1   8   3 214.218 60.0822   5
  -1   8   2 4781.97 246.474  30
  -1   8   2 4684.33 249.152  28
  -1   8   2 4425.77 345.192   7
  -1   8   2 4506.35 236.123  29
  -1   8   1 2895.98 256.842  16
  -1   8   1 2650.83 159.418  11
  -1   8   1 2526.90 159.676  28
  -1   8   1 2849.61 260.402   7
  -1   8   1 2526.65 147.337  29
  -1   8   1 2600.29 220.811  18
  -1   8   1 2746.48 166.918  30
  -1   8   0 55.1499 68.8005  18
  -1   8   0 145.403 64.0546  30
  -1   8   0 44.7625 97.9709   7
  -1   8   0 39.0098 95.8161  16
  -1   8   0 171.083 52.9276  11
  -1   8   0 119.161 60.1531  28
  -1   8  -1 289.449 80.5431  18
  -1   8  -1 218.327 55.7974  28
  -1   8  -1 202.354 113.930   7
  -1   8  -1 125.207 100.310  16
  -1   8  -1 264.201 54.7900  11
  -1   8  -1 219.092 65.3095  30
  -1   8  -1 238.275 53.7757   4
  -1   8  -2 409.370 74.4252  30
  -1   8  -2 404.316 83.5902  18
  -1   8  -2 339.259 122.995   7
  -1   8  -2 211.381 94.2858  16
  -1   8  -2 411.136 57.4058  28
  -1   8  -2 458.226 61.2780   4
  -1   8  -3 6833.61 317.745   4
  -1   8  -3 6391.77 357.341  18
  -1   8  -3 6005.84 380.092  16
  -1   8  -3 6485.44 307.382  28
  -1   8  -4 12753.9 566.855   4
  -1   8  -4 12463.8 576.997  30
  -1   8  -4 12418.7 693.285   7
  -1   8  -4 11589.9 618.933  16
  -1   8  -5 574.098 80.1409   3
  -1   8  -5 526.193 81.1452  30
  -1   8  -5 519.727 66.6862   4
  -1   8  -6 24617.4 1183.63   7
  -1   8  -6 24272.5 1049.33   3
  -1   8  -6 23309.6 1052.22  30
  -1   8  -6 24208.7 1047.25   4
  -1   8  -6 23640.7 1050.41  12
   1  -8   6 21961.5 1158.14   9
  -1   8  -7 1585.19 117.333   3
  -1   8  -7 1483.53 117.090  12
  -1   8  -7 1389.90 190.301   7
  -1   8  -7 1487.28 112.111   4
   1  -8   7 1318.62 189.753   9
  -1   8  -7 1423.68 113.997  30
  -1   8  -7 1449.09 117.767  15
  -1   8  -8 351.154 77.3583  12
  -1   8  -8 424.054 68.5390   3
  -1   8  -8 393.681 67.4070   4
  -1   8  -8 221.950 92.6314   7
   1  -8   8 315.238 126.653   9
  -1   8  -8 334.425 62.7098  30
  -1   8  -9 363.496 64.7709   3
  -1   8  -9 185.324 57.3882   4
  -1   8  -9 263.183 76.2318  12
  -1   8 -10 2607.24 168.081  12
  -1   8 -10 2537.04 157.556   4
  -1   8 -11 105.475 62.7867  12
  -1   8 -11 18.9656 46.9095   4
  -1   8 -12 106.379 57.8759  12
  -1   8 -12 41.1465 40.8787   4
  -1   8 -13 218.117 55.9602  12
  -1   8 -13 78.5475 51.7796  15
  -1   8 -14 497.307 57.7267  15
  -1   8 -15 311.663 32.2035  15
  -1   7  11 159.444 36.4533  35
  -1   7  10 293.647 59.3079  24
  -1   7  10 195.967 57.1721  34
   1  -7  -9-46.3965 52.7885  27
  -1   7   9-34.8534 54.3993  24
  -1   7   8 2887.81 167.958  10
   1  -7  -8 2848.04 170.078  27
  -1   7   8 3082.37 174.869  24
  -1   7   7 431.351 74.8026  24
  -1   7   7 615.190 82.4532  10
  -1   7   6 3068.54 181.267  29
  -1   7   6 2945.52 178.052  10
  -1   7   5 730.988 151.218  16
  -1   7   5 762.945 92.1801  10
  -1   7   5 934.964 94.4698  29
  -1   7   4 5250.43 270.831  29
  -1   7   4 5146.99 276.690  28
  -1   7   3 1815.19 121.913  29
  -1   7   3 1598.90 183.364   7
  -1   7   3 1723.38 125.932  28
  -1   7   3 1969.34 215.720  16
  -1   7   2 632.992 116.212  18
  -1   7   2 419.036 61.9737  29
  -1   7   2 368.344 114.219   7
  -1   7   2 388.800 64.2456  30
  -1   7   1 4596.06 322.229   7
  -1   7   1 4356.36 227.757  11
  -1   7   1 4161.39 284.274  18
  -1   7   1 4277.53 219.342  29
  -1   7   1 4431.17 320.431  16
  -1   7   1 5071.58 237.887  30
  -1   7   1 4468.79 229.499  28
  -1   7   0 135.661 43.9864  11
  -1   7   0 147.651 45.3157   4
  -1   7   0 257.699 86.0600  18
  -1   7   0 226.199 58.9428  30
  -1   7   0 263.111 100.261   7
  -1   7   0 144.903 50.8565  28
  -1   7   0 161.206 94.2409  16
  -1   7  -1 10909.5 556.251  18
  -1   7  -1 11151.4 510.704  30
  -1   7  -1 11292.9 504.016  11
  -1   7  -1 10342.0 576.651  16
  -1   7  -2 1186.56 124.981  18
  -1   7  -2 1122.56 94.2240  30
  -1   7  -2 1100.84 132.638  16
  -1   7  -3 27.3101 40.7161  15
  -1   7  -3 70.6430 73.4716  16
   1  -7   3 108.107 84.2164   9
  -1   7  -3-50.3328 61.6660  18
  -1   7  -4 7385.82 364.124  30
  -1   7  -4 8154.09 471.755   7
  -1   7  -4 7431.85 361.777  15
  -1   7  -4 7640.59 359.750  14
   1  -7   4 7350.65 443.845   9
  -1   7  -4 7650.79 415.072  17
  -1   7  -4 7244.26 398.171  16
  -1   7  -4 8158.21 361.868   3
  -1   7  -4 7585.62 401.617  18
   1  -7   5 124.849 85.1164   9
  -1   7  -5 173.242 55.9300   3
  -1   7  -5 142.992 52.9870  30
  -1   7  -5 234.859 63.9027  14
  -1   7  -5 168.636 50.5215  15
  -1   7  -5 134.074 44.6031   4
  -1   7  -5 89.9032 66.9006  17
  -1   7  -5 94.1608 87.0085   7
  -1   7  -5 123.841 51.6933  12
  -1   7  -6 11807.1 593.387  17
  -1   7  -6 10920.0 522.191  30
   1  -7   6 10607.0 626.479   9
  -1   7  -6 11155.4 519.671  14
  -1   7  -6 11919.2 523.053   3
  -1   7  -6 11629.3 525.410  12
  -1   7  -6 11584.1 521.948   4
  -1   7  -6 11165.8 623.839   7
  -1   7  -7 1496.43 159.606  17
  -1   7  -7 1442.49 169.381   7
   1  -7   7 1398.01 190.864   9
  -1   7  -7 1365.15 102.206  14
  -1   7  -7 1142.44 96.3299  30
  -1   7  -7 1332.20 103.110   3
  -1   7  -7 1228.08 106.362  12
  -1   7  -8 6170.88 388.336  17
  -1   7  -8 6754.51 309.641   3
   1  -7   8 5914.54 439.999   9
  -1   7  -8 5966.04 388.347   7
  -1   7  -8 5945.25 315.094  12
   1  -7   9 10627.1 708.933   9
  -1   7  -9 13008.9 584.008  12
  -1   7 -10 25.5334 66.0006  12
   1  -7  10-83.9875 117.780   9
  -1   7 -11 2629.43 167.506  12
  -1   7 -12 70.8102 60.0055  12
  -1   7 -13 17.4091 50.4778  12
   1  -7  13-7.81532 46.0312  23
  -1   7 -14 115.976 44.2528  12
  -1   7 -15 1991.12 107.502  15
  -1   6  12 419.292 40.8023  24
  -1   6  11 1424.35 100.790  24
   1  -6 -10 1000.02 82.0682  27
  -1   6  10 823.291 85.5427  24
   1  -6  -9 1128.84 103.389  27
  -1   6   9 1178.54 105.865  24
  -1   6   8-24.3503 75.8013  29
  -1   6   8 29.3352 60.1806  10
  -1   6   7 176.675 113.114  16
  -1   6   7 151.662 77.5352  29
  -1   6   7 47.7394 64.3622  10
  -1   6   6 21.8743 102.502  16
  -1   6   6 69.0183 64.0011  10
  -1   6   5 9859.92 446.509  28
  -1   6   5 9244.15 440.747  29
  -1   6   5 9538.00 555.582  16
  -1   6   5 9022.66 439.738  10
  -1   6   4 3422.21 289.610  16
  -1   6   4 3979.02 203.869  29
  -1   6   4 3791.69 207.589  28
   1  -6  -4 3369.83 273.250  39
  -1   6   3 8233.13 384.597  29
  -1   6   3 8297.52 389.174  28
  -1   6   3 8814.15 468.413   7
  -1   6   3 8149.29 463.651  18
  -1   6   3 7998.16 479.702  16
  -1   6   2 23598.7 1086.20   7
  -1   6   2 23505.9 1091.32  16
  -1   6   2 21481.1 1062.42  18
  -1   6   1 3072.11 215.713  18
  -1   6   0 310.450 96.2567  16
  -1   6   0 269.644 76.5170  18
  -1   6  -1 2975.42 221.914  16
  -1   6  -1 3513.34 214.272  18
  -1   6  -1 3208.51 241.073   8
  -1   6  -2 28126.8 1212.97  18
  -1   6  -2 25759.6 1217.63  16
   1  -6   2 26953.2 1241.79   9
  -1   6  -2 26543.6 1246.34   8
  -1   6  -3 13286.2 639.817  17
   1  -6   3 13150.6 664.429   9
  -1   6  -3 12832.8 627.966  16
  -1   6  -3 13369.7 670.672   8
  -1   6  -4 2833.27 189.778  16
  -1   6  -4 3430.15 220.170  17
   1  -6   4 3363.69 241.328   9
  -1   6  -4 3149.71 241.156   8
   1  -6   5 20600.6 1020.53   9
  -1   6  -5 21368.7 1042.54   8
  -1   6  -5 21321.4 991.054  17
  -1   6  -6 1592.13 107.769  12
   1  -6   6 1679.27 187.920   9
  -1   6  -6 1547.96 164.180   7
  -1   6  -7 10885.0 503.454   3
  -1   6  -7 11187.2 585.622   7
  -1   6  -7 10994.8 512.805  12
  -1   6  -7 11413.2 502.258  14
   1  -6   7 11024.3 636.038   9
   1  -6   8 319.094 133.149   9
  -1   6  -8 384.102 75.6636  12
  -1   6  -9 60.0183 66.6329  12
   1  -6   9-27.4399 115.452   9
  -1   6 -10 2711.58 168.372  12
   1  -6  10 2198.25 276.559   9
   1  -6  11 89.9963 126.247   9
  -1   6 -11 73.9711 63.8174  12
  -1   6 -12 488.169 78.9885  12
  -1   6 -13 64.2687 54.8281  12
  -1   6 -14 1293.00 84.7471  12
   1  -6  14 1108.80 89.6406  23
   1  -6  15 1408.20 82.0109  23
   1  -5 -12 7.17408 42.7327  27
  -1   5  12 68.2129 48.4072  24
   1  -5 -11 5913.60 266.091  27
  -1   5  11 5150.20 256.503  34
   1  -5 -10 5138.69 261.909  27
   1  -5  -9 2001.40 143.648  27
  -1   5   8 1505.00 124.252  29
  -1   5   8 1418.69 109.728  10
   1  -5  -7 44.5765 95.6440  39
  -1   5   7-19.9657 92.0337  16
  -1   5   7 44.2617 59.9971  10
  -1   5   7 91.2564 64.5930  29
  -1   5   6 1249.33 102.956  29
   1  -5  -6 818.188 143.848  20
   1  -5  -6 1103.50 170.382  39
  -1   5   6 1084.58 99.3430  10
  -1   5   6 1044.79 157.235  16
  -1   5   6 1227.28 103.806  28
  -1   5   5-14.1725 49.9818  28
  -1   5   5-69.5429 91.3641  16
   1  -5  -5-35.6477 86.1618  39
  -1   5   4 36.2001 47.5062  29
  -1   5   4 62.9732 82.7271  16
  -1   5   4 4.20455 47.2040  28
  -1   5   4-11.4387 56.9437   7
  -1   5   3 4109.82 272.015  18
  -1   5   3 4201.34 284.720  16
  -1   5   2 4557.86 291.299  16
  -1   5   2 4465.22 279.979  18
   1  -5  -1 45.9191 43.2140  40
  -1   5   1-9.60119 62.0639  18
   1  -5   0 2850.79 172.825  40
  -1   5   0 3203.84 199.365  18
  -1   5  -1 12046.1 622.469   8
   1  -5   1 12367.1 623.963   9
  -1   5  -1 13347.0 606.100  18
   1  -5   2 3869.86 252.672   9
  -1   5  -2 4039.74 253.548   8
  -1   5  -2 3649.64 231.298  17
   1  -5   3 18846.3 923.463   9
  -1   5  -3 19660.9 932.390   8
  -1   5  -3 20432.5 910.966  17
  -1   5  -4 20340.1 936.876   8
   1  -5   4 18685.6 926.275   9
  -1   5  -5 4936.89 251.510  16
   1  -5   5 6731.86 364.869   9
   1  -5   6 7560.83 454.378   9
  -1   5  -7 163.254 68.7563   7
  -1   5  -7 50.0646 50.3260  12
  -1   5  -7 139.996 63.0941  13
   1  -5   7-62.4962 110.905   9
  -1   5  -7 80.2032 95.4899  19
  -1   5  -8 29.9626 62.6055  13
  -1   5  -8-30.5367 55.0075  12
  -1   5  -8 68.6319 98.1517  19
   1  -5   9 7535.54 538.676   9
  -1   5  -9 8461.98 398.377  13
  -1   5  -9 8382.84 537.897  19
  -1   5  -9 8021.90 395.146  12
  -1   5 -10 924.519 197.710  19
   1  -5  10 952.736 203.459   9
  -1   5 -10 1066.35 104.303  12
  -1   5 -11-6.00667 65.7029  12
  -1   5 -11-29.0950 124.828  19
   1  -5  11 93.0290 127.823   9
  -1   5 -12-16.7734 60.9804  12
  -1   5 -13 55.3609 54.5326  12
  -1   5 -14-53.4781 41.4065  12
   1  -5  15 130.383 45.4167  23
  -1   4  13 670.297 60.2661  24
   1  -4 -12 735.391 74.0054  27
  -1   4  12 761.852 78.7934  24
   1  -4 -11 642.392 84.6938  27
   1  -4 -10 2714.37 174.655  27
  -1   4   9 7696.16 373.491  29
   1  -4  -9 7430.16 374.013  27
   1  -4  -8 20.0358 94.0094  20
  -1   4   8 196.809 74.3935  29
  -1   4   7 1493.80 106.884  10
  -1   4   7 1784.41 118.963  29
   1  -4  -7 1315.11 182.598  20
   1  -4  -7 1525.83 203.072  39
  -1   4   7 1299.14 170.350  16
   1  -4  -6 12071.6 664.585  20
  -1   4   6 12413.7 575.091  28
  -1   4   6 13817.3 672.118  16
  -1   4   6 12796.6 577.582  29
  -1   4   6 12942.5 572.764  10
   1  -4  -6 13205.3 694.700  39
  -1   4   5 564.819 62.7240  29
   1  -4  -5 587.799 122.375  39
  -1   4   5 640.353 112.432  16
  -1   4   4 177.590 78.5084  16
  -1   4   4 36.1744 55.5052   7
   1  -4  -3 1460.20 125.955  40
   1  -4  -2 1483.72 119.907  40
  -1   4   2 1733.34 145.527  18
  -1   4   1 53857.8 2242.11  18
   1  -4  -1 50042.6 2222.09  40
  -1   4   0 28492.0 1262.68  18
  -1   4   0 28381.3 1275.42   8
   1  -4   0 28633.9 1252.63  40
  -1   4  -1 4964.57 261.485  17
   1  -4   1 4395.41 270.671   9
  -1   4  -1 4524.71 265.709   8
   1  -4   2 10974.0 548.333   9
  -1   4  -2 11213.9 547.264   8
  -1   4  -2 11328.6 536.651  17
   1  -4   3 137619. 5875.87   9
   1  -4   4 49922.4 2203.22   9
   1  -4   5 20271.3 965.147   9
  -1   4  -5 19769.8 958.667  19
  -1   4  -6 12784.5 676.349  19
   1  -4   6 13252.2 690.106   9
  -1   4  -7 5193.74 301.029   7
   1  -4   7 6139.83 394.831   9
  -1   4  -7 6571.33 400.962  19
  -1   4  -8 1604.55 108.121  13
  -1   4  -8 1388.67 108.488  27
   1  -4   8 1266.81 198.380   9
  -1   4  -8 1588.26 206.113  19
   1  -4   9-80.8218 124.165   9
  -1   4  -9 72.9016 72.9573  27
  -1   4  -9 75.7622 114.436  19
  -1   4  -9 34.2939 62.2571  13
  -1   4 -10 21836.6 961.841  27
  -1   4 -10 20894.2 951.081  13
   1  -4  10 22048.1 1147.94   9
  -1   4 -10 23666.0 1146.80  19
  -1   4 -11 2426.56 284.942  19
  -1   4 -11 2841.97 179.986  27
   1  -4  11 2403.62 302.352   9
  -1   4 -12 12539.5 576.948  12
  -1   4 -13-35.7432 52.6518  12
  -1   4 -14 3224.33 160.075  12
   1  -4  14 3004.35 162.610  25
   1  -4  15 4593.78 225.341  23
   1  -3 -13 318.995 63.0243  27
  -1   3  13 403.424 63.5507  24
   1  -3 -12 677.049 81.5978  27
  -1   3  12 720.886 82.3035  24
   1  -3 -11 2743.33 174.519  27
   1  -3 -10 78.8700 75.4436  27
   1  -3  -9 5767.51 309.609  27
  -1   3   9 6334.79 307.995  29
   1  -3  -9 6019.25 416.029  20
   1  -3  -8 3040.19 277.082  20
  -1   3   8 3444.15 189.782  29
   1  -3  -8 3380.68 306.398  39
   1  -3  -7 3873.59 308.554  39
  -1   3   7 3667.46 264.850  16
  -1   3   7 3942.11 204.512  29
   1  -3  -7 3647.46 290.392  20
   1  -3  -6 1411.16 174.913  39
  -1   3   6 1441.69 143.703  16
   1  -3  -6 1091.18 147.548  20
   1  -3  -5 353.882 109.254  39
  -1   3   5 330.463 91.5770  16
  -1   3   4 23031.6 1059.43  18
  -1   3   3 3719.07 229.804  18
   1  -3  -3 3709.83 226.684  40
   1  -3  -2 9031.83 439.434  40
   1  -3  -1 22796.3 1008.13  40
   1  -3   0 9395.84 470.124   9
  -1   3   0 9891.65 465.064   8
  -1   3  -1 30623.9 1330.00   8
   1  -3   1 29824.8 1334.20   9
   1  -3   2 268.856 73.4265   9
   1  -3   3 48165.0 2126.95   9
  -1   3  -3 49210.2 2122.78  19
   1  -3   4 27023.9 1257.05   9
  -1   3  -4 28253.9 1254.58  19
  -1   3  -5 12295.8 624.075  19
  -1   3  -6 8107.46 443.777  20
  -1   3  -6 7127.98 441.000  19
  -1   3  -7 20913.2 1032.07  19
  -1   3  -7 21159.2 1028.71  20
  -1   3  -8 8326.19 513.864  19
  -1   3  -8 9246.56 521.552  20
  -1   3  -8 8354.01 397.639  27
  -1   3  -9 1351.35 116.043  27
  -1   3  -9 1424.16 204.907  19
  -1   3  -9 1445.75 201.209  20
  -1   3  -9 1286.18 100.266  13
  -1   3 -10 2059.19 144.810  27
  -1   3 -10 1795.36 243.915  19
  -1   3 -11 8511.74 409.802  27
  -1   3 -11 9113.24 581.344  19
  -1   3 -12 12709.4 591.225  27
  -1   3 -13 436.467 64.1713  12
   1  -3  14 214.422 55.0292  25
   1  -3  15 572.497 54.6119  25
   1  -3  15 547.924 64.0648  23
  -1   2  14 525.118 51.6200  24
   1  -2 -14 509.154 54.4831  27
  -1   2  13 66.1263 53.8261  24
   1  -2 -13 38.5942 58.7652  27
   1  -2 -12 349.503 79.3365  27
   1  -2 -11 7764.36 383.080  27
   1  -2 -10 306.632 127.607  20
   1  -2 -10 261.963 85.5752  27
  -1   2   9 1554.03 114.309  29
   1  -2  -9 1629.30 199.997  20
   1  -2  -9 1382.31 123.989  27
   1  -2  -8 6219.01 393.601  20
  -1   2   8 5457.57 274.087  29
   1  -2  -8 5503.24 401.295  39
   1  -2  -7 6090.97 396.364  39
  -1   2   7 5594.50 328.522  16
  -1   2   7 5730.25 276.637  29
   1  -2  -7 5893.28 373.546  20
  -1   2   6 4877.66 277.938  16
   1  -2  -6 4506.28 317.160  39
   1  -2  -6 4448.24 303.881  20
   1  -2  -5 2629.98 221.497  39
  -1   2   5 2790.95 188.328  16
  -1   2   4 94.9056 68.6320  18
   1  -2  -4 119.662 73.2827  40
  -1   2   3 261832. 10983.7  18
   1  -2  -3 257332. 10991.0  40
   1  -2  -2 23464.0 1039.59  40
  -1   2   2 23286.2 1033.48  18
   1  -2  -1 8758.69 416.526  40
  -1   2   0 7108.59 337.723   8
   1  -2   0 6891.06 349.960   9
  -1   2  -1 5233.76 264.285   8
  -1   2  -2 950.773 97.2041  19
   1  -2   3 10374.5 517.916   9
  -1   2  -3 10881.3 513.083  19
  -1   2  -4 363.254 84.6970  19
  -1   2  -4 350.081 90.9336  20
  -1   2  -5 1832.13 169.123  20
  -1   2  -6 7851.31 438.476  20
  -1   2  -7 24788.7 1176.13  20
  -1   2  -8 103.715 59.1459  27
  -1   2  -8 57.4272 104.451  20
  -1   2  -9 14698.0 677.408  27
  -1   2  -9 16662.7 823.666  20
  -1   2 -10 6420.30 449.843  19
  -1   2 -10 5179.68 413.521  20
  -1   2 -10 5902.51 302.261  27
  -1   2 -11 58.2952 120.156  19
  -1   2 -11 24.2012 77.2189  27
  -1   2 -12 11197.2 525.160  27
  -1   2 -13 3119.31 181.830  27
   1  -2  14 576.532 72.0893  25
   1  -2  15 226.290 43.3716  25
   1  -1 -14 165.095 62.6293  27
  -1   1  14 77.0955 46.2278  24
  -1   1  13 78.9337 52.6351  24
   1  -1 -13 59.7178 65.0910  27
   1  -1 -12 881.235 103.821  27
   1  -1 -11-24.9428 107.014  20
   1  -1 -11 31.0470 79.5799  27
   1  -1 -10 8438.08 544.923  20
   1  -1 -10 8771.93 424.456  27
   1  -1  -9 2348.88 158.104  27
  -1   1   9 2446.69 144.850  29
   1  -1  -9 2685.62 256.564  20
   1  -1  -8 12734.6 668.839  20
   1  -1  -8 13805.1 702.479  39
  -1   1   8 12335.8 545.569  29
   1  -1  -8 11469.1 553.794  27
  -1   1   7 9711.40 494.280  16
   1  -1  -7 10502.6 556.789  20
   1  -1  -7 10808.9 579.367  39
  -1   1   6 1694.68 131.924  16
   1  -1  -6 1606.13 178.207  39
   1  -1  -6 1904.61 179.583  20
   1  -1  -5 293.089 110.557  39
   1  -1  -4 6102.99 338.074  40
  -1   1   4 6005.42 318.014  18
  -1   1   3 10940.0 512.524  18
   1  -1  -3 11113.3 531.617  40
  -1   1   2 121345. 5136.69  18
   1  -1  -2 121028. 5150.47  40
   1  -1  -1 267934. 11310.9  40
  -1   1   0 66.1514 37.5437   8
  -1   1   0 43.0751 45.7681  17
  -1   1  -1 21701.3 942.170  19
  -1   1  -2 71922.8 3064.89  19
  -1   1  -3 9083.37 438.024  20
  -1   1  -4 3615.81 221.345  20
  -1   1  -5 45550.6 2003.46  20
  -1   1  -6 4155.13 278.719  20
  -1   1  -7 123.020 92.5459  20
  -1   1  -8 808.685 146.543  20
  -1   1  -8 804.730 80.1995  27
  -1   1  -9 355.710 75.1290  27
   1  -1   9 410.602 61.3863  24
  -1   1  -9 276.878 131.423  20
  -1   1 -10 3177.95 183.276  27
  -1   1 -10 2770.83 281.178  20
   1  -1  10 2783.12 167.325  24
  -1   1 -11 1266.61 114.627  27
   1  -1  11 1332.20 104.586  24
  -1   1 -12 638.620 89.6678  27
  -1   1 -13 12885.2 582.937  27
   1  -1  14 148.156 57.6564  25
   1  -1  15 237.176 43.7207  23
   1  -1  15 118.715 41.2072  25
   1   0 -15 2475.00 127.848  27
   1   0 -14 68.1227 61.4180  27
  -1   0  14-24.9535 39.7276  24
   1   0 -13 10942.6 509.072  27
   1   0 -12 2884.58 187.286  27
   1   0 -11 6387.85 453.626  20
   1   0 -11 6435.35 324.730  27
   1   0 -11 6113.31 307.139  22
   1   0 -10 5914.72 309.562  27
   1   0 -10 6462.34 439.457  20
   1   0  -9 10522.2 492.792  27
   1   0  -9 10378.4 603.637  20
   1   0  -8 1136.41 176.030  39
   1   0  -8 835.820 88.0144  27
   1   0  -8 844.159 150.289  20
   1   0  -7 7148.91 420.490  20
   1   0  -7 6662.43 422.795  39
   1   0  -6 48674.7 2107.12  20
  -1   0   6 45895.2 2039.38  16
   1   0  -6 50544.6 2129.34  39
   1   0  -5 2099.91 177.127  20
   1   0  -5 2424.27 188.536  39
   1   0  -4 3164.64 211.613  40
  -1   0   3 155378. 6636.59  18
   1   0  -3 159560. 6663.99  40
  -1   0   2 23220.4 1005.14  18
  -1   0   1 1778.02 100.192  17
   1   0   0 1012.87 75.4007   9
  -1   0   0 850.208 47.4254   8
   1   0   1 4376.50 221.085   9
  -1   0  -2 78862.9 3351.44  20
  -1   0  -3 110288. 4685.78  20
  -1   0  -4 40413.6 1765.69  20
  -1   0  -5 11018.5 419.442  20
   1   0   5 6907.27 314.285   1
  -1   0  -6 24672.8 1141.61  20
  -1   0  -7 19181.2 930.450  20
  -1   0  -8 4816.65 244.750  27
  -1   0  -8 5101.13 338.849  20
  -1   0  -9 667.968 85.6823  27
  -1   0  -9 632.557 147.426  20
   1   0   9 692.007 79.7467  24
  -1   0 -10 967.651 97.2050  27
  -1   0 -10 756.093 155.384  20
   1   0  10 856.289 89.6722  24
   1   0  11 13186.7 628.284  24
  -1   0 -11 14469.6 632.265  27
   1   0  12 1887.08 133.034  24
  -1   0 -12 2164.28 139.709  27
   1   0  13 4856.31 251.412  24
  -1   0 -13 5768.58 260.128  27
   1   0  14 155.548 62.3442  25
   1   0  14 163.558 58.2528  23
   1   0  15 3086.18 148.746  25
   1   1 -15 956.520 76.2773  27
   1   1 -14 2435.92 148.528  27
   1   1 -13 9069.25 433.525  27
   1   1 -12 427.791 93.7798  27
   1   1 -12 261.219 63.9879  13
   1   1 -12 430.645 70.6704  22
   1   1 -11-26.6022 116.307  20
   1   1 -11 56.9654 81.9878  27
   1   1 -11-15.1221 62.0448  22
   1   1 -10 4041.24 333.132  20
   1   1 -10 3804.63 222.441  27
   1   1  -9 148.715 67.8578  27
   1   1  -9 193.316 120.096  20
   1   1  -9 180.176 57.4910  31
   1   1  -8 1570.45 182.833  20
   1   1  -7 134.107 93.1521  20
   1   1  -6 23456.2 1092.05  20
   1   1  -5 18503.6 814.620   1
   1   1  -4 12329.4 594.292  39
   1   1  -4 12498.9 603.263  40
  -1  -1   3 3386.13 170.556  18
  -1  -1   2 31376.8 1336.70  18
  -1  -1   1 34672.3 1476.91  17
   1   1  -1 38644.9 1505.89  40
   1   1  -1 34057.0 1477.16  19
   1   1   0 54682.6 2319.50   9
   1   1   1 279475. 11780.4   9
  -1  -1  -2 65110.8 2765.68  20
  -1  -1  -3 599.067 71.9641  20
   1   1   4 14067.6 614.730   1
  -1  -1  -4 13384.9 639.846  20
  -1  -1  -5 1412.29 131.680  20
  -1  -1  -6 5767.99 333.880  20
  -1  -1  -7 12664.3 649.040  20
  -1  -1  -8 6429.92 392.122  20
  -1  -1  -8 6032.79 296.400  27
  -1  -1  -9 10002.5 576.151  20
  -1  -1  -9 10576.4 471.428  27
   1   1   9 9616.71 473.536  24
  -1  -1 -10 3208.05 189.829  27
   1   1  10 3429.17 196.484  24
   1   1  11 2691.24 170.932  24
  -1  -1 -11 2752.69 165.894  27
  -1  -1 -12 4.20182 60.0017  27
   1   1  12 25.4782 58.3197  24
   1   1  13 284.228 68.2159  25
   1   1  13 327.354 61.6120  23
   1   1  14 70.5373 49.2447  25
   1   2 -15 782.365 78.8299  27
   1   2 -14 195.282 74.2551  27
   1   2 -13 345.711 85.5626  27
   1   2 -13 174.450 63.7444  13
   1   2 -13 212.055 63.6624  22
   1   2 -12 13547.9 595.944  27
   1   2 -12 12599.8 578.975  22
   1   2 -12 12474.4 579.804  13
   1   2 -12 12880.2 748.075  20
   1   2 -12 11243.4 734.780  19
   1   2 -11 996.517 184.630  20
   1   2 -11 1058.24 117.414  27
   1   2 -11 942.461 100.693  22
   1   2 -10 20896.1 935.450  31
   1   2 -10 21038.1 934.980  22
   1   2 -10 23048.3 1102.15  20
   1   2  -9 3813.24 204.776  31
   1   2  -9 3928.41 312.884  20
   1   2  -8 4466.82 309.690  20
   1   2  -8 3946.65 211.696  27
   1   2  -7 7751.19 459.697  39
   1   2  -6 26210.2 1140.80  39
   1   2  -6 23652.4 1062.73   1
   1   2  -5 2436.32 186.963  39
   1   2  -5 2527.56 154.745   1
   1   2  -5 2051.98 176.776  20
   1   2  -4 17.8099 64.5754   1
   1   2  -4 37.7063 63.4775  20
   1   2  -4 62.7094 69.1971  39
   1   2  -4 52.2844 57.4392   7
   1   2  -3 9719.94 451.282  39
   1   2  -3 9813.69 458.485   7
   1   2  -3 9048.57 447.893  20
   1   2  -3 9608.20 463.860  40
   1   2  -2 3084.94 186.300   7
   1   2  -2 2891.85 162.640  20
   1   2  -2 3156.20 161.858  19
   1   2  -2 3227.48 180.003  40
   1   2  -2 2870.44 160.617  39
   1   2  -1 1535.63 81.1650  20
   1   2  -1 1429.12 98.3263  40
   1   2   0 19887.7 868.238  40
   1   2   0 20186.3 896.284   7
   1   2   1 11315.5 533.390   7
   1   2   2 83234.8 3515.90  16
   1   2   2 84327.9 3505.81   7
  -1  -2  -2 80883.8 3467.56  20
   1   2   3 166234. 7070.05   1
  -1  -2  -3 166388. 7057.42  20
   1   2   3 169219. 7098.38  16
   1   2   4 17626.9 810.692  16
   1   2   4 17033.2 764.880   1
  -1  -2  -4 17019.2 777.156  20
  -1  -2  -5 2739.91 185.997  20
  -1  -2  -6 446.887 93.5305  20
  -1  -2  -7 1201.33 145.449  20
   1   2   8 4958.79 253.806  34
   1   2   8 4938.54 261.278  24
   1   2   9 2424.34 160.028  24
   1   2  10 5311.79 282.272  24
   1   2  11 1422.58 121.979  24
   1   2  12 168.212 62.3707  24
   1   2  12 149.596 60.0450  23
   1   2  13-13.7416 36.0478  35
   1   2  13 24.4177 55.9519  25
   1   2  14 904.819 66.5704  25
   1   3 -15 1662.91 103.529  12
   1   3 -14 252.628 76.0552  27
   1   3 -14 197.457 54.6858  13
   1   3 -13 181.928 68.0516  13
   1   3 -13 94.7964 63.8829  22
   1   3 -12 9281.37 427.055  22
   1   3 -12 8797.94 428.129  13
   1   3 -12 8670.26 580.033  19
   1   3 -12 9043.49 586.801  20
   1   3 -11 3201.73 188.739  22
   1   3 -11 3327.66 316.364  19
   1   3 -11 2972.40 304.431  20
   1   3 -10 496.829 88.4479  31
   1   3 -10 525.412 156.125  19
   1   3 -10 512.364 90.5302  27
   1   3 -10 489.501 80.4064  22
   1   3  -9 103.095 65.9348  27
   1   3  -9 85.8568 62.7634  31
   1   3  -9 135.615 63.1660  22
   1   3  -8 13194.7 599.599  31
   1   3  -8 13827.6 599.237  22
   1   3  -8 12935.4 598.558  27
   1   3  -7 3928.78 284.146  20
   1   3  -6 16071.9 733.978   1
   1   3  -6 15893.6 779.657  20
   1   3  -5 413.153 92.3772  20
   1   3  -5 523.891 92.6226   1
   1   3  -5 556.189 89.0292   7
   1   3  -5 420.957 96.0668  19
   1   3  -4 51599.8 2230.17   1
   1   3  -4 56133.1 2238.55  19
   1   3  -4 48706.2 2227.49  20
   1   3  -4 49589.2 2225.97  39
   1   3  -4 51853.1 2236.98   7
   1   3  -3 35512.1 1560.88  20
   1   3  -3 35998.6 1576.01   1
   1   3  -3 36214.3 1582.70   7
   1   3  -3 35934.6 1562.42  19
   1   3  -2 17247.0 822.209  40
   1   3  -2 18655.5 814.686  20
   1   3  -2 19257.5 847.727   1
   1   3  -2 19166.3 821.813   8
   1   3  -1 44660.0 1940.69   7
   1   3  -1 42595.9 1897.78  40
   1   3  -1 44533.9 1935.53   1
   1   3  -1 43951.8 1904.38   8
   1   3  -1 49335.6 1933.09  16
   1   3   0 7229.50 368.769   7
   1   3   0 6979.46 312.111  40
   1   3   1 46573.5 1845.12   7
   1   3   1 40395.7 1778.29   9
   1   3   1 45390.3 1837.32   1
   1   3   1 41570.6 1781.47  40
   1   3   1 46628.7 1848.46  16
   1   3   2 1415.60 121.320   1
   1   3   2 1277.80 120.380   7
  -1  -3  -2 1109.51 62.5104  20
   1   3   3 18044.8 835.857  16
   1   3   3 18406.0 797.661   1
  -1  -3  -3 16616.5 762.208  20
   1   3   3 17707.4 805.235   7
   1   3   4 9479.46 492.616  16
   1   3   4 8911.71 438.481   1
  -1  -3  -4 9033.52 432.551  20
   1   3   5 1422.46 157.852  16
   1   3   6 22.6789 53.1651  10
   1   3   7 2689.81 164.008  24
   1   3   8 6412.68 324.230  34
   1   3   8 6616.11 330.964  24
   1   3   9 3333.02 190.022  34
   1   3   9 3014.99 193.794  24
   1   3  10 287.614 71.2431  34
   1   3  10 398.245 82.8588  24
   1   3  11 3548.67 202.568  25
   1   3  11 3551.22 202.356  24
   1   3  11 3365.57 187.082  23
   1   3  12 847.165 82.4979  25
   1   3  12 712.750 81.4584  24
   1   3  13 115.061 40.8025  35
   1   3  13 114.130 49.0743  25
   1   3  13 91.7738 40.4892  33
   1   4 -15 1981.35 118.249  12
   1   4 -14 5890.03 282.158  13
   1   4 -13 10503.4 486.114  13
   1   4 -12 1909.67 141.668  13
   1   4 -12 2116.72 152.651  27
   1   4 -12 2201.47 143.777  22
   1   4 -11 69.5827 74.8201  13
   1   4 -11 89.8033 74.3985  22
   1   4 -11-6.22478 76.2869  27
   1   4 -11 27.1578 111.963  19
   1   4 -10 30804.3 1372.26  27
   1   4 -10 31245.5 1369.46  22
   1   4 -10 33883.4 1539.62  19
   1   4 -10 32409.2 1536.58  20
   1   4  -9 2028.02 137.901  27
   1   4  -9 2178.89 139.765  22
   1   4  -9 1789.99 219.291  20
   1   4  -9 2078.45 233.909  19
   1   4  -9 2138.40 142.333  31
   1   4  -8 8535.03 406.458  27
   1   4  -8 8935.39 409.284  31
   1   4  -8 8494.94 405.477  22
   1   4  -8 9714.24 526.053  19
   1   4  -8 8403.98 505.907  20
   1   4  -7 498.697 115.466  20
   1   4  -7 581.145 127.959  19
   1   4  -6 6550.09 365.589   1
   1   4  -6 6987.74 400.547  20
   1   4  -6 6566.55 374.608   7
   1   4  -5 56373.6 2524.41  20
   1   4  -5 58195.2 2525.78   7
   1   4  -5 56441.2 2511.36   1
   1   4  -5 60518.3 2530.37  19
   1   4  -4 932.417 110.822  20
   1   4  -4 882.837 118.665   7
   1   4  -4 1060.92 119.488   1
   1   4  -4 1178.55 119.478  19
   1   4  -3 119755. 5048.65   8
   1   4  -3 119559. 5078.12   7
   1   4  -3 119103. 5038.68  20
   1   4  -3 115004. 5065.91   1
   1   4  -2 47204.9 2103.54   1
   1   4  -2 48606.0 2076.73   8
   1   4  -1 27713.4 1249.73   7
   1   4  -1 27699.9 1211.45   8
   1   4  -1 30212.2 1241.01  16
   1   4   0 3198.29 221.163   7
   1   4   0 3084.56 207.282   1
   1   4   1 46171.8 1977.90   1
   1   4   1 45753.4 1989.49   7
   1   4   1 42961.4 1986.96  16
   1   4   2 393.148 90.9302   1
   1   4   2 551.683 113.815  16
   1   4   2 283.594 89.5269   7
   1   4   3 14.1182 84.8365  16
   1   4   3 21.7426 66.5957   7
   1   4   3 9.02145 67.0424   1
   1   4   4 31.6241 84.1546  16
   1   4   5 105.507 92.5322  16
   1   4   5 166.240 55.8842  24
   1   4   5 69.5318 58.5843  10
   1   4   6 22417.2 988.900  10
   1   4   7 6.16302 63.2988  24
   1   4   8 801.206 99.3860  34
   1   4   8 706.262 96.5921  24
   1   4   9 1425.07 121.247  25
   1   4   9 1589.23 128.727  24
   1   4   9 1324.68 119.546  34
   1   4  10 4060.30 224.111  34
   1   4  10 4050.65 226.811  25
   1   4  10 4231.89 232.885  24
   1   4  11 461.094 70.8652  25
   1   4  11 759.411 84.7631  24
   1   4  12 724.400 71.2025  35
   1   4  12 661.048 69.1065  25
   1   5 -15 146.844 48.6189  12
   1   5 -14 225.023 61.1595  12
   1   5 -14 87.9120 57.7964  13
   1   5 -13 16.4849 72.7513  27
   1   5 -13 145.383 68.6296  13
   1   5 -12 30.4056 78.9397  27
   1   5 -12 5.76264 71.9216  13
   1   5 -11 3655.55 333.462  19
   1   5 -11 3379.89 326.410  20
   1   5 -11 3881.34 219.382  27
   1   5 -11 3865.54 217.798  22
   1   5 -11 3742.47 217.947  13
   1   5 -10 7317.07 364.796  13
   1   5 -10 7493.12 366.148  27
   1   5 -10 7797.81 503.455  19
   1   5 -10 6941.49 490.839  20
   1   5 -10 7340.84 364.520  22
   1   5  -9 11882.8 659.694  19
   1   5  -9 11242.3 521.664  14
   1   5  -9 12423.5 669.118  20
   1   5  -9 11375.7 532.752  22
   1   5  -9 11356.3 531.977  27
   1   5  -9 11903.5 537.818  31
   1   5  -8 158.779 115.779  20
   1   5  -8 23.2305 55.0374  27
   1   5  -8 72.4238 62.4695  31
   1   5  -8 116.327 58.9747  22
   1   5  -8 176.814 97.8889  19
   1   5  -8 152.299 52.8145  14
   1   5  -7 202.103 96.4382  19
   1   5  -7 307.941 62.4373  22
   1   5  -7 117.814 91.0231  20
   1   5  -7 67.8581 70.8385   7
   1   5  -6 4344.58 285.620  20
   1   5  -6 4448.52 282.062   1
   1   5  -6 4116.29 287.970   7
   1   5  -6 4585.10 295.895  19
   1   5  -5 6162.12 374.353   7
   1   5  -5 6487.43 356.846  20
   1   5  -5 6170.16 362.027   1
  -1  -5   4 4916.71 269.524   9
   1   5  -4 5885.01 334.610   7
   1   5  -4 5153.19 313.023   1
   1   5  -4 4978.37 298.336   8
   1   5  -3 1511.36 134.249   8
   1   5  -3 1608.99 147.397   1
   1   5  -2 3590.23 232.161  16
   1   5  -2 3555.58 216.358   8
   1   5  -2 3456.35 253.579   7
   1   5  -2 3573.58 239.954   1
   1   5  -1 2018.94 171.309  16
   1   5  -1 2041.58 185.725   7
   1   5   0 608.585 122.208   7
   1   5   0 613.238 111.050  16
   1   5   0 510.898 102.821   1
   1   5   1 8736.50 470.809   7
   1   5   1 8285.55 452.736   1
   1   5   2 1122.39 152.975  16
   1   5   2 1379.05 150.732   7
   1   5   2 1346.35 145.081   1
   1   5   3 1342.87 170.919  16
   1   5   3 1410.88 153.941   7
   1   5   4 71.7447 50.4997   5
   1   5   4 42.8614 51.4934  24
   1   5   4 19.2306 58.0783  10
   1   5   4-38.5950 100.103  16
   1   5   5 460.553 139.523  16
   1   5   5 496.047 73.5219  24
   1   5   5 257.794 60.9561   5
   1   5   5 305.485 58.2171  25
   1   5   5 462.046 78.2042  10
   1   5   6 2407.19 152.513  25
   1   5   6 2590.68 165.970  24
   1   5   6 2577.41 165.713  10
   1   5   7 201.264 67.5752  25
   1   5   8 2605.66 171.894  34
   1   5   8 2458.79 158.783  25
   1   5   9-5.53550 62.4900  25
   1   5   9 29.9292 75.8843  34
   1   5   9 19.3987 73.1989  24
   1   5  10 6730.65 334.922  34
   1   5  10 6959.61 334.091  25
   1   5  10 7181.08 345.371  24
   1   5  11 4101.57 211.837  35
   1   5  11 4073.64 203.193  25
   1   5  12 1337.19 85.0149  33
   1   5  12 1311.22 81.8807  35
   1   6 -15 409.114 52.4167  12
   1   6 -14 2294.20 137.877  12
   1   6 -13 412.268 73.3027  12
   1   6 -13 305.146 73.4897  13
   1   6 -12 116.049 79.3265  13
   1   6 -11 90.4045 78.2983  27
   1   6 -11 61.4412 77.2657  13
   1   6 -10 2065.48 245.397  20
   1   6 -10 2252.17 137.737  14
   1   6 -10 2289.01 153.320  27
   1   6 -10 2123.92 152.187  13
   1   6  -9-11.3933 72.5374  22
   1   6  -9-5.40465 68.8198  27
   1   6  -9 65.9797 60.7927  14
   1   6  -9-23.2210 112.241  20
   1   6  -8 6969.92 339.662  14
   1   6  -8 7263.12 341.675  27
   1   6  -8 6384.98 410.808   7
   1   6  -8 6998.05 346.243  22
   1   6  -7 15296.7 700.520  13
   1   6  -7 15382.0 698.029  14
   1   6  -7 16218.7 705.698  31
   1   6  -7 17089.2 811.367  20
   1   6  -7 15264.5 791.979   7
   1   6  -6 393.933 63.9996  14
   1   6  -6 594.538 72.6898  36
   1   6  -6 366.079 65.4173  13
   1   6  -6 394.155 102.578   7
   1   6  -5 29252.4 1357.46   1
   1   6  -5 29713.5 1353.32   8
   1   6  -5 29087.4 1376.83   7
   1   6  -4 467.377 107.328   1
   1   6  -4 515.409 118.648   7
   1   6  -4 590.220 99.7228   8
   1   6  -3 154.230 68.7793   8
   1   6  -3 379.453 98.6996   1
   1   6  -2 5071.80 309.930  16
   1   6  -2 5266.83 339.844   7
   1   6  -2 4861.98 292.206   8
   1   6  -2 4673.85 314.192   1
   1   6  -1 4507.62 295.663  16
   1   6  -1 4411.77 315.455   7
   1   6   0 7037.62 404.633  16
   1   6   0 6083.23 379.729   1
   1   6   0 6577.74 405.579   7
   1   6   1 3739.68 276.542   7
   1   6   1 3536.79 258.403   1
   1   6   2 35156.4 1656.71  16
   1   6   2 35854.6 1640.15   7
   1   6   2 35110.3 1534.07  10
   1   6   2 35990.8 1534.77   5
   1   6   3 189.249 109.217  16
   1   6   3 116.659 91.0568   7
   1   6   3 161.251 55.1596  24
   1   6   3 103.077 57.3651   5
   1   6   4-22.7380 113.186  16
   1   6   4 52.1102 57.1695   5
   1   6   4-64.7736 59.2186  24
   1   6   4-5.60426 61.6641  10
   1   6   5 8031.43 394.171   5
   1   6   5 8907.80 406.759  10
   1   6   5 8065.52 386.884  25
   1   6   5 8074.29 399.779  24
   1   6   6 1657.33 129.689  24
   1   6   6 1599.81 115.551  25
   1   6   6 1729.61 135.305  10
   1   6   6 1389.61 115.740   5
   1   6   7 227.333 80.2314  24
   1   6   7 184.831 86.8427  34
   1   6   7 115.323 54.6003  25
   1   6   8 495.441 93.4951  34
   1   6   8 354.287 67.3360  25
   1   6   8 443.465 89.7199  24
   1   6   9 173.702 75.6792  34
   1   6  10 1683.69 111.470  34
   1   6  10 1481.98 114.344  35
   1   6  11 72.6927 44.4921  35
   1   6  11 32.0333 47.6622  33
   1   7 -15 704.953 58.5477  12
   1   7 -15 667.441 52.4539   4
   1   7 -14 1431.08 101.624  12
   1   7 -13 652.687 66.1502   3
   1   7 -13 619.956 80.7036  12
   1   7 -13 634.967 81.5598  13
   1   7 -12 607.167 74.4233   3
   1   7 -12 593.450 91.6393  13
   1   7 -11 5496.05 276.329  14
   1   7 -11 5835.68 297.208  13
   1   7 -10 127.765 70.1377  12
   1   7 -10 127.537 64.2259  14
   1   7 -10 237.457 114.934   8
   1   7  -9 8239.89 521.513   8
   1   7  -9 7871.91 408.794  12
   1   7  -9 8979.84 403.804  14
   1   7  -8 5163.68 256.250  14
   1   7  -8 4203.91 331.680   7
   1   7  -8 4271.36 347.795   8
   1   7  -8 4791.55 258.178  13
   1   7  -8 4991.38 259.283  12
   1   7  -7 3731.91 215.116  13
   1   7  -7 4425.59 313.486   8
   1   7  -7 4154.47 217.015  14
   1   7  -7 4043.21 309.540   7
   1   7  -7 3977.61 214.862  12
   1   7  -7 3773.42 208.392   6
   1   7  -6 1603.40 117.614  36
   1   7  -6 1161.59 155.218   8
   1   7  -6 1199.14 172.195   7
   1   7  -6 1371.76 100.648  12
   1   7  -6 1137.70 100.209  14
   1   7  -6 1294.05 104.100  13
   1   7  -5 14023.8 601.971  13
   1   7  -5 13921.8 732.192   7
   1   7  -5 13524.9 687.559   8
   1   7  -5 12961.7 599.894  15
   1   7  -5 13021.8 602.957  14
   1   7  -5 13344.1 600.560  12
   1   7  -5 13659.7 609.918  36
   1   7  -4 11121.0 508.531   3
   1   7  -4 11694.9 523.443  30
   1   7  -4 10868.8 627.389   7
   1   7  -4 11257.0 511.412   2
   1   7  -4 10869.1 510.113   4
   1   7  -4 11124.1 582.645   8
   1   7  -3 360.635 58.5263   4
   1   7  -3 384.549 72.7229   2
   1   7  -3 365.591 86.8131   8
   1   7  -3 442.801 60.6612   3
   1   7  -3 398.246 63.6321  36
   1   7  -3 370.970 61.5920  14
   1   7  -2 3057.56 168.903   4
   1   7  -2 3154.34 182.784  30
   1   7  -2 3133.57 247.442  16
   1   7  -2 2913.30 263.540   7
   1   7  -2 3319.20 177.515  36
   1   7  -1 5971.73 389.126  16
   1   7  -1 6460.29 315.550  30
   1   7  -1 6241.35 413.867   7
   1   7  -1 6250.05 300.048   4
   1   7  -1 6180.50 304.745   2
   1   7   0 146.592 57.8910   5
   1   7   0 93.2036 58.5277  30
   1   7   0 115.680 100.192  16
   1   7   0 144.061 43.0779   4
   1   7   0 161.529 52.6222  35
   1   7   0 148.863 56.5081  36
   1   7   0 149.074 58.0740  10
   1   7   0 229.853 115.457   7
   1   7   0 181.645 66.7614   2
   1   7   1 1581.85 114.007   5
   1   7   1 1522.60 110.545  35
   1   7   1 1645.35 197.529  16
   1   7   1 1516.63 113.726  10
   1   7   1 1472.71 186.589   7
   1   7   1 1440.16 102.208   4
   1   7   2 837.923 96.1739  10
   1   7   2 923.823 91.8248   5
   1   7   2 777.435 79.5160  24
   1   7   2 1000.82 158.091   7
   1   7   2 944.047 91.1021  35
   1   7   2 908.941 86.2099   6
   1   7   3 24.5336 113.130  16
   1   7   3 85.2045 63.8825   5
   1   7   3 38.7924 86.4439   7
   1   7   3 146.611 61.8002  24
   1   7   4 4700.52 257.883   5
   1   7   4 4940.35 258.947  24
   1   7   4 5153.79 269.406  10
   1   7   5 78.5520 73.4898  10
   1   7   5 39.6162 63.0010   5
   1   7   5-37.2626 66.3108  24
   1   7   6 285.353 70.1503   5
   1   7   6 362.813 79.9387  24
   1   7   6 274.005 84.9519  10
   1   7   7 5653.10 294.324  34
   1   7   7 5215.95 283.932  24
   1   7   8 150.082 74.1284  35
   1   7   8 252.376 79.2422  34
   1   7   8 163.935 68.9462  24
   1   7   9-76.7600 61.5059  35
   1   7   9 4.41206 63.5658  34
   1   7  10 1232.78 90.5367  33
   1   7  10 1190.63 87.0988  35
   1   8 -15 92.0602 32.7993  12
   1   8 -14 150.058 45.8826   4
   1   8 -14 161.463 40.3806  15
   1   8 -13 136.697 46.0972   3
   1   8 -13 78.6433 45.1053  15
   1   8 -12 620.738 71.4189   3
   1   8 -12 630.811 84.7639  12
   1   8 -11 196.137 62.5181  14
   1   8 -11 163.635 65.5975   3
   1   8 -11 202.705 69.9532  12
   1   8 -10 3183.76 183.801  14
   1   8 -10 3624.48 193.042   3
   1   8 -10 3044.32 191.391  12
   1   8  -9 732.352 87.4398  12
   1   8  -9 399.312 133.717   8
   1   8  -9 671.543 90.2109  14
   1   8  -9 750.982 88.4273   3
   1   8  -9 664.447 93.1352  13
   1   8  -8 5004.41 256.189  14
   1   8  -8 4594.33 252.199  12
   1   8  -8 4395.70 347.271   7
   1   8  -8 5006.84 255.482  13
   1   8  -8 4895.72 355.471   8
   1   8  -8 4740.04 253.498   3
   1   8  -8 4618.23 244.300   6
   1   8  -8 4553.59 246.719  15
   1   8  -7 27.2596 69.4250  14
   1   8  -7 19.6948 84.5032   8
   1   8  -7 5.41669 49.7274  15
   1   8  -7 97.5689 70.2199  13
   1   8  -7 47.2047 112.344   7
   1   8  -7-47.0129 61.1692   3
   1   8  -7 54.7471 62.3226  12
   1   8  -7 33.8047 64.8337   6
   1   8  -6 25059.5 1104.99  11
   1   8  -6 25191.3 1115.58  14
   1   8  -6 26306.4 1224.06   8
   1   8  -6 24915.2 1258.95   7
   1   8  -6 26176.3 1114.53  13
   1   8  -6 25391.9 1112.74  12
   1   8  -6 25453.6 1119.12   3
   1   8  -6 25165.1 1112.58  15
   1   8  -5 8185.51 468.161   8
   1   8  -5 7895.31 374.040  15
   1   8  -5 8127.74 374.523  12
   1   8  -5 8456.65 522.644   7
   1   8  -5 7624.30 367.874  11
   1   8  -4 1136.22 84.9874  11
   1   8  -4 1075.37 145.676   8
   1   8  -4 1278.77 101.100  14
   1   8  -4 1198.38 104.776  36
   1   8  -4 1137.55 96.6874   3
   1   8  -4 1064.09 92.1321   4
   1   8  -4 1085.09 86.6419  12
   1   8  -4 1118.15 87.3375  15
   1   8  -4 771.904 174.139   7
   1   8  -3 1918.34 129.224  14
   1   8  -3 2109.62 129.222  35
   1   8  -3 2059.55 132.433   4
   1   8  -3 1792.56 224.164   7
   1   8  -3 1951.82 121.368  11
   1   8  -3 2326.82 135.190   3
   1   8  -3 2121.01 138.445  36
   1   8  -3 1868.32 120.225  15
   1   8  -2 9762.03 453.852  10
   1   8  -2 9903.50 479.623  30
   1   8  -2 10375.2 459.448  14
   1   8  -2 9886.66 600.981   7
   1   8  -2 10092.2 463.214   4
   1   8  -2 9839.32 464.663   5
   1   8  -2 10277.2 460.540   3
   1   8  -2 9871.55 454.844  11
   1   8  -2 10049.3 466.669  36
   1   8  -2 9333.99 459.217  35
   1   8  -1 1797.90 124.707  35
   1   8  -1 1848.61 121.261  14
   1   8  -1 1930.55 124.898   4
   1   8  -1 2169.49 219.196  16
   1   8  -1 1842.53 128.024  36
   1   8  -1 1707.13 225.354   7
   1   8  -1 1870.00 125.338  10
   1   8   0 472.628 78.6403  10
   1   8   0 341.823 128.356  16
   1   8   0 422.422 73.6159   5
   1   8   0 270.079 121.694   7
   1   8   0 435.599 64.8215   4
   1   8   0 404.520 70.8102  35
   1   8   0 395.429 67.1014  36
   1   8   1 1061.91 102.533   5
   1   8   1 761.571 163.855  16
   1   8   1 741.404 89.0254  35
   1   8   1 1032.45 97.3733  10
   1   8   1 675.617 150.485   7
   1   8   1 739.065 79.1521  36
   1   8   1 768.354 88.4455   6
   1   8   2 1981.84 139.430  10
   1   8   2 2079.26 143.201   5
   1   8   2 2113.98 141.613  35
   1   8   2 1519.96 212.398   7
   1   8   2 1670.71 130.575   6
   1   8   3 870.966 101.648  35
   1   8   3 815.507 96.5339   5
   1   8   4 732.246 93.7910   5
   1   8   4 857.428 104.658  10
   1   8   4 969.833 105.746  35
   1   8   5 5677.89 305.762  35
   1   8   5 5621.55 291.574   5
   1   8   5 5907.84 305.224  10
   1   8   6 1336.74 127.750  34
   1   8   6 1064.85 114.267  35
   1   8   7 2796.16 178.494  34
   1   8   8 6539.43 318.519  34
   1   8   9 153.080 52.7535  34
   1   8   9 195.260 55.2616  33
   1   9 -14 2474.13 126.313   4
   1   9 -13 289.623 54.1577   4
   1   9 -13 296.369 58.5558  12
   1   9 -13 192.871 43.4533   3
   1   9 -12 1419.30 102.760   4
   1   9 -12 1399.28 97.0344   3
   1   9 -12 1381.08 101.912  12
   1   9 -12 1209.79 92.4035  15
   1   9 -11-4.13908 57.9735  14
   1   9 -11 94.3789 56.5505   3
   1   9 -11 14.4987 46.5559  15
   1   9 -11 15.7462 58.7657  12
   1   9 -11 17.0500 56.5923   4
   1   9 -10 2164.97 142.018  14
   1   9 -10 1925.63 136.424  15
   1   9 -10 2323.78 146.447   3
   1   9 -10 2252.79 145.373  12
   1   9 -10 2115.89 148.169   4
   1   9  -9 5614.43 273.370   3
   1   9  -9 5284.00 268.945  14
   1   9  -9 4698.22 254.171   6
   1   9  -9 4967.89 262.781  15
   1   9  -9 5355.27 275.386   4
   1   9  -9 5000.45 266.151  12
   1   9  -8 2831.05 270.364   8
   1   9  -8 3609.97 206.074   3
   1   9  -8 3468.55 195.395  15
   1   9  -8 3157.61 296.450   7
   1   9  -8 3885.40 211.150   4
   1   9  -8 3490.65 201.409  12
   1   9  -8 3247.73 198.758   6
   1   9  -8 3911.51 207.971  14
   1   9  -7 8245.28 394.465   3
   1   9  -7 7992.98 376.813   5
   1   9  -7 7156.98 479.535   8
   1   9  -7 8050.08 384.507  15
   1   9  -7 7710.67 389.138  14
   1   9  -7 8459.67 397.871   4
   1   9  -7 8220.15 385.362  12
   1   9  -7 8069.27 391.617   6
   1   9  -6 545.261 151.325   7
   1   9  -6 770.531 93.0798  14
   1   9  -6 621.384 74.0981  15
   1   9  -6 545.260 124.758   8
   1   9  -6 726.834 80.6473  12
   1   9  -6 659.079 81.2305   5
   1   9  -6 672.810 68.1574  11
   1   9  -6 715.843 94.6283   6
   1   9  -5 7178.95 340.775  15
   1   9  -5 7269.01 500.943   7
   1   9  -5 6996.94 344.960   5
   1   9  -5 6925.43 335.241  11
   1   9  -4 6458.13 330.635   5
   1   9  -4 6539.91 337.643  36
   1   9  -4 7527.17 337.165   3
   1   9  -4 6371.88 320.574  15
   1   9  -4 6797.64 332.255   4
   1   9  -4 6683.33 329.581  14
   1   9  -4 6408.79 318.133  11
   1   9  -3-6.02461 67.4405  36
   1   9  -3 11.9553 64.8023   5
   1   9  -3 56.5303 66.9884  14
   1   9  -3-11.0906 54.6122   3
   1   9  -3 11.5785 48.9542   4
   1   9  -3-20.6793 47.2522  35
   1   9  -3-18.9506 46.4877  11
   1   9  -3 85.2221 117.096   7
   1   9  -2 1646.61 125.510  36
   1   9  -2 1709.76 120.831   4
   1   9  -2 1937.80 123.668  14
   1   9  -2 1647.54 131.061   5
   1   9  -2 1524.19 116.987  10
   1   9  -2 1756.85 237.025   7
   1   9  -2 1656.08 119.687  35
   1   9  -1 1147.89 98.4546  35
   1   9  -1 1034.81 92.6424  34
   1   9  -1 1243.01 100.201   4
   1   9  -1 1005.44 97.2855  10
   1   9  -1 1029.38 100.126  36
   1   9  -1 1110.68 110.025   5
   1   9  -1 840.092 182.089   7
   1   9   0 283.391 69.4503  36
   1   9   0 531.284 82.1194  34
   1   9   0 609.778 91.7201   5
   1   9   0 351.739 71.2847  35
   1   9   0 516.659 87.5342   6
   1   9   0 551.185 80.0226  10
   1   9   0 655.280 165.181   7
   1   9   1 647.963 93.5830  10
   1   9   1 719.565 93.8718  34
   1   9   1 676.765 74.6329  36
   1   9   1 647.181 75.0475  33
   1   9   1 799.680 91.1770  35
   1   9   1 574.108 153.208   7
   1   9   1 636.884 88.9108   6
   1   9   1 676.256 95.3085   5
   1   9   2 3354.68 198.116  34
   1   9   2 2924.58 191.525   5
   1   9   2 3070.45 193.733  10
   1   9   2 3341.82 186.305   6
   1   9   2 3145.38 192.568  35
   1   9   3 4124.15 227.562  10
   1   9   3 3726.33 222.043  35
   1   9   3 3854.78 226.429  34
   1   9   3 3724.21 220.013   5
   1   9   4 2502.37 171.613  35
   1   9   4 2601.71 176.533  34
   1   9   4 2720.25 166.251   5
   1   9   5-36.2415 63.2878  35
   1   9   5-27.2796 57.1426   5
   1   9   6 556.289 80.3450  35
   1   9   7 1035.02 87.6206  33
   1   9   7 983.631 97.0663  34
   1   9   7 884.247 86.9967  35
   1   9   8 1174.57 86.2739  34
   1   9   8 1143.88 81.3160  33
   1   9   8 1245.90 83.3869  35
   1  10 -13 257.300 42.3115   4
   1  10 -12 1310.33 95.5091   4
   1  10 -12 1435.43 96.7719  12
   1  10 -12 1446.63 92.2141   3
   1  10 -11 672.022 72.4358   3
   1  10 -11 408.880 65.4103   4
   1  10 -11 609.647 70.7881  12
   1  10 -11 446.733 56.4044  15
   1  10 -10 1435.87 107.800  14
   1  10 -10 1514.29 109.466   3
   1  10 -10 1302.91 106.504   4
   1  10 -10 1445.61 107.335  12
   1  10 -10 1260.44 94.8220  15
   1  10  -9 6160.23 300.180   3
   1  10  -9 5465.90 286.521  15
   1  10  -9 6523.14 299.183  14
   1  10  -9 6174.68 301.634   4
   1  10  -9 5787.84 292.277  12
   1  10  -9 5395.58 284.345   6
   1  10  -8 1656.97 128.440  14
   1  10  -8 1644.21 125.336   3
   1  10  -8 1806.96 128.560   4
   1  10  -8 1482.09 109.972  15
   1  10  -8 1294.78 117.133   6
   1  10  -7 1653.48 126.124   3
   1  10  -7 1597.47 126.217   4
   1  10  -7 1600.14 112.571  15
   1  10  -7 1652.15 114.179   5
   1  10  -7 1440.21 123.843   6
   1  10  -7 1676.36 130.796  14
   1  10  -6 8923.04 422.913   5
   1  10  -6 9210.19 419.661  15
   1  10  -6 8885.51 586.493   7
   1  10  -6 8708.70 410.623  11
   1  10  -6 8841.31 435.222   6
   1  10  -5 853.724 105.484   6
   1  10  -5 736.691 91.0967   3
   1  10  -5 1113.17 103.432  14
   1  10  -5 803.927 93.3627   5
   1  10  -5 1131.90 203.672   7
   1  10  -5 796.127 76.2586  11
   1  10  -4 4904.57 265.190   5
   1  10  -4 5009.34 262.820  14
   1  10  -4 4663.22 261.072   4
   1  10  -4 5561.59 267.819   3
   1  10  -4 4884.74 249.827  11
   1  10  -3 199.245 76.8213   5
   1  10  -3 303.486 149.268   7
   1  10  -3 269.584 75.2838  14
   1  10  -3 221.337 85.1869   6
   1  10  -3 281.555 67.6932   4
   1  10  -2 162.422 86.8446   6
   1  10  -2 129.153 61.5530  10
   1  10  -2 260.515 60.5790  35
   1  10  -2 60.0816 121.748   7
   1  10  -2 168.974 62.8444   4
   1  10  -1 872.321 94.5395  10
   1  10  -1 885.343 91.4286   4
   1  10  -1 832.188 89.1277  35
   1  10  -1 908.871 106.271   5
   1  10  -1 613.408 171.385   7
   1  10  -1 811.029 104.328   6
   1  10   0 577.782 81.6713  34
   1  10   0 608.852 158.473   7
   1  10   0 622.099 83.7073  35
   1  10   0 819.279 100.677   5
   1  10   0 670.985 95.8413   6
   1  10   0 562.302 86.8444  10
   1  10   1 5159.22 264.978   5
   1  10   1 4436.60 252.693   6
   1  10   1 4976.73 259.637  10
   1  10   1 4757.19 255.419  34
   1  10   1 4693.67 253.177  35
   1  10   2 3597.59 206.690  34
   1  10   2 3379.17 203.292  10
   1  10   2 3487.33 200.402  35
   1  10   2 3343.85 191.427   6
   1  10   2 3613.20 208.030   5
   1  10   3 1486.72 127.753  34
   1  10   3 1838.49 133.566  10
   1  10   3 1669.16 126.368   5
   1  10   3 1579.07 122.284  35
   1  10   4-10.7022 68.7270  34
   1  10   4 8.87672 55.6427   5
   1  10   4 15.4431 58.2724  35
   1  10   5 4340.26 224.321  34
   1  10   5 4072.60 216.722  35
   1  10   6 166.317 59.7698  35
   1  10   7 1837.65 100.804  35
   1  11 -12 1855.54 104.008   4
   1  11 -11 1122.44 86.6028   4
   1  11 -10 259.691 58.6853   4
   1  11 -10 300.390 59.3909   3
   1  11  -9 130.019 57.5444   4
   1  11  -9 155.098 56.3858   3
   1  11  -8 409.881 71.7191   3
   1  11  -8 390.684 67.7151   4
   1  11  -8 311.389 79.2631  14
   1  11  -8 315.986 70.4716   6
   1  11  -7 370.574 73.5206   3
   1  11  -7 351.514 82.5074  14
   1  11  -7 257.207 77.3989   6
   1  11  -7 254.127 61.6665   5
   1  11  -7 301.029 70.5644   4
   1  11  -6 333.447 74.2170   5
   1  11  -6 550.868 90.9345   6
   1  11  -5 2335.34 153.127   5
   1  11  -5 2392.57 169.564   6
   1  11  -4 66.1218 72.0052   5
   1  11  -4 108.616 64.8466   4
   1  11  -4 130.854 86.6357   6
   1  11  -3 7872.49 388.317   5
   1  11  -3 8066.59 381.641   4
   1  11  -3 7691.00 394.545   6
   1  11  -2 746.365 103.551   6
   1  11  -2 705.818 75.3306  10
   1  11  -1 68.7948 75.5658   5
   1  11  -1 62.7930 72.2906   6
   1  11  -1 46.7349 61.5979  10
   1  11   0 42.2935 70.9938   5
   1  11   0-24.5870 59.5329  10
   1  11   0-32.1849 51.4740  35
   1  11   0-28.2353 64.4560   6
   1  11   1 342.854 79.6529   5
   1  11   1 316.381 71.9857  10
   1  11   1 420.454 70.2370  34
   1  11   1 286.192 57.5659  35
   1  11   1 414.071 70.3583   6
   1  11   2-39.8707 59.8728  34
   1  11   2 21.4308 49.7114  35
   1  11   2 34.6235 63.6633   5
   1  11   3 785.304 78.7671   5
   1  11   3 666.974 70.1720  35
   1  11   3 783.637 81.4338  34
   1  11   4 350.887 69.8025  34
   1  11   5 378.188 55.0981  34
   1  12 -11 778.167 58.3899   4
   1  12 -10 171.519 44.4751   4
   1  12  -9 162.035 52.2029   4
   1  12  -8 253.344 54.8266   4
   1  12  -8 278.965 61.1350   6
   1  12  -7 5788.11 285.978   4
   1  12  -7 5944.74 291.251   6
   1  12  -6 446.500 80.3713   6
   1  12  -6 320.505 62.9721   5
   1  12  -5 90.5488 62.3669   5
   1  12  -4 5.78239 70.3436   6
   1  12  -4 76.6138 62.1361   5
   1  12  -4-4.68593 50.1920   4
   1  12  -3 758.783 92.4774   5
   1  12  -3 687.999 92.0774   6
   1  12  -2 117.942 70.6346   6
   1  12  -1 2312.05 150.642   5
   1  12  -1 2322.92 145.693   6
   1  12   0 428.430 76.3071   5
   1  12   0 481.772 67.2572   6
   1  12   1 1008.41 88.7672   5
   1  12   1 610.630 62.3726   6
   1  12   2 87.7048 57.4983   5
   1  13  -9 192.800 36.5359   4
   1  13  -8 60.6816 35.8170   4
   1  13  -7 113.934 53.2740   6
   1  13  -6 1410.79 103.356   6
   1  13  -5 1229.54 91.6756   5
   1  13  -4 29.0020 59.7043   5
   1  13  -4 130.165 63.2833   6
   1  13  -3 224.553 64.2735   6
   1  13  -3 249.284 68.5917   5
   1  13  -2 869.630 82.4590   6
   1  13  -1 486.947 64.0879   5
   1  13  -1 504.345 58.2479   6
   1  13   0 293.246 53.0172   5
  -2  13   1 261.347 37.9373  10
  -2  13   0 375.802 45.8229  10
  -2  13  -1 49.9821 40.6299   6
  -2  13  -1 9.73608 38.0049   5
  -2  13  -1 31.2294 37.8764  10
  -2  13  -2 173.761 47.0606   5
  -2  13  -3 755.428 71.6979   5
  -2  13  -4 296.041 57.5079   5
  -2  13  -6 209.490 47.9764   5
  -2  13  -7 231.970 41.9350   5
  -2  13  -7 284.853 41.7594  11
  -2  13  -7 287.159 45.4740   6
  -2  13  -8 121.650 32.1423  11
  -2  12   3 292.739 50.7358  10
  -2  12   1 563.131 67.8783  10
  -2  12   1 636.666 55.4459   5
  -2  12   0 2130.29 124.282   5
  -2  12   0 2090.86 126.795  10
  -2  12  -1 1204.47 94.4059   5
  -2  12  -1 1317.27 94.3793  10
  -2  12  -1 1192.55 101.771  30
  -2  12  -2-3.67141 50.3843  10
  -2  12  -2 32.7620 63.4966  30
  -2  12  -3 62.5008 70.2230  30
  -2  12  -3 115.451 48.0735  10
  -2  12  -4 2914.76 176.299  30
  -2  12  -4 2839.16 161.618  11
  -2  12  -5-82.4822 63.1954  30
  -2  12  -6 1815.90 126.619  30
  -2  12  -7 514.450 70.5071  30
  -2  12  -8 241.800 51.0870  11
  -2  12  -9 142.594 43.1314  11
  -2  12 -10 244.077 37.9060  11
  -2  11   5 1088.71 76.2180  10
  -2  11   4 216.957 60.5269  10
  -2  11   3-3.98328 55.7811  10
  -2  11   2 938.713 74.8058   5
  -2  11   1 145.818 54.6421   5
  -2  11   1 124.163 61.5314  10
  -2  11   1 80.6996 56.3560  30
  -2  11   0 553.642 78.7697  10
  -2  11   0 539.568 79.2177  30
  -2  11  -1 2437.03 161.785  30
  -2  11  -1 2356.31 147.854  28
  -2  11  -2 676.644 94.2293  30
  -2  11  -2 435.076 71.9648  28
  -2  11  -2 576.778 76.9196  11
  -2  11  -3 5674.24 298.317  30
  -2  11  -3 5429.17 271.503  28
  -2  11  -3 5803.39 288.035  11
  -2  11  -4 948.114 93.5682  11
  -2  11  -5 431.052 86.3165  30
  -2  11  -5 422.354 71.4342  11
  -2  11  -6 141.840 69.2912  30
  -2  11  -7-71.4478 61.0733  30
  -2  11  -8 237.675 58.4440  15
  -2  11  -8 200.038 58.2370  30
  -2  11  -9 763.235 73.8389  11
  -2  11  -9 774.659 75.3665  15
  -2  11 -10 88.2625 49.7030  15
  -2  11 -10 126.203 49.7797  11
  -2  11 -11 1301.66 84.0048  15
  -2  11 -11 1220.82 80.0802  11
  -2  10   6 36.9346 51.1014  10
   2 -10  -6 113.860 45.7003  27
  -2  10   5 2052.05 126.653  10
  -2  10   4 772.293 85.2267  10
  -2  10   3 3092.81 174.013  29
  -2  10   3 3379.15 186.936  10
  -2  10   2 610.830 85.3777  10
  -2  10   2 685.182 92.9466  28
  -2  10   2 692.520 80.6001  30
  -2  10   2 642.578 71.6485   5
  -2  10   2 535.309 70.4507  29
  -2  10   1 618.979 89.4089  28
  -2  10   1 615.186 87.3460  30
  -2  10   1 579.403 63.2861  29
  -2  10   0 339.039 80.4636  30
  -2  10   0 515.184 80.7221  28
  -2  10  -1 21.6447 98.0968  16
  -2  10  -1 21.4954 73.1249  30
  -2  10  -1 71.2802 57.8447  28
  -2  10  -1-27.0930 106.944   7
  -2  10  -1 77.5170 56.5791  11
  -2  10  -2 154.189 60.8805  28
  -2  10  -2 100.264 102.922  16
  -2  10  -2 206.349 80.7421  30
  -2  10  -2 222.253 119.443   7
  -2  10  -2 224.330 63.3668  11
  -2  10  -3 11972.0 721.894   7
  -2  10  -3 11262.4 556.714  28
  -2  10  -3 13200.9 587.784  30
  -2  10  -3 13347.8 575.694  11
  -2  10  -4 8008.74 364.837   4
  -2  10  -4 7142.93 353.573  28
  -2  10  -4 7044.71 506.866   7
  -2  10  -4 8062.76 377.232  11
  -2  10  -5 4425.38 236.641  15
  -2  10  -5 4731.03 250.236  30
  -2  10  -5 4337.06 236.899  11
  -2  10  -5 3929.63 218.779   4
  -2  10  -5 4239.26 359.048   7
  -2  10  -6 870.973 94.5294  11
  -2  10  -6 796.498 75.9594   4
  -2  10  -6 934.062 100.321  30
  -2  10  -6 753.345 88.4126  15
  -2  10  -7 30.4921 65.7250  30
  -2  10  -7 43.9533 61.1719  15
  -2  10  -7 25.1048 43.9914   4
  -2  10  -8 337.958 68.7629  15
  -2  10  -8 276.472 64.7364  30
  -2  10  -9 274.869 65.2302  15
  -2  10 -10 39.7852 51.4463  15
  -2  10 -11 94.7953 45.2584  15
  -2  10 -12 2062.62 114.079  15
  -2  10 -12 1897.94 110.902  11
  -2  10 -13 245.005 33.4305  15
   2  -9  -7 371.166 59.6624  27
  -2   9   7 430.397 58.0755  10
  -2   9   6 204.166 57.8228  10
  -2   9   5 7181.63 340.564  29
  -2   9   5 6852.17 339.647  10
  -2   9   4 140.367 67.6140  10
  -2   9   4 129.058 67.7113  29
  -2   9   3 3577.33 211.138  28
  -2   9   3 3634.04 198.178  30
  -2   9   3 3646.04 198.680  29
  -2   9   2 320.476 65.9277  29
  -2   9   2 434.605 149.992  16
  -2   9   2 354.009 68.3465  30
  -2   9   1 1051.04 87.7234  29
  -2   9   1 819.228 160.527  16
  -2   9   1 930.448 99.3344  30
  -2   9   1 1070.85 104.371  28
  -2   9   1 924.402 144.200  18
  -2   9   1 912.336 168.549   7
  -2   9   0 357.200 130.833  16
  -2   9   0 365.365 80.2383  30
  -2   9   0 308.153 72.9484  28
  -2   9   0 332.416 103.917  18
  -2   9   0 438.984 132.842   7
  -2   9   0 283.434 54.1670  29
  -2   9   0 310.551 64.9248  11
  -2   9  -1 4988.38 331.761  18
  -2   9  -1 4767.22 250.539  28
  -2   9  -1 4348.22 372.965   7
  -2   9  -1 4970.15 254.629  11
  -2   9  -1 4773.94 265.930  30
  -2   9  -1 4446.67 346.391  16
  -2   9  -2 143.068 88.7847  18
  -2   9  -2 86.0894 72.7638  30
  -2   9  -2 58.0124 89.1806  16
  -2   9  -2 85.8459 60.1812  28
  -2   9  -2 80.8481 111.136   7
  -2   9  -2 53.6972 54.1714  11
  -2   9  -3 173.328 78.5618  30
  -2   9  -3 85.2159 49.7805   4
  -2   9  -3 45.7675 77.0531  18
  -2   9  -3 52.1848 85.3746  16
  -2   9  -3 9.32926 50.4692  28
  -2   9  -3 24.4321 55.6390  11
  -2   9  -4 1067.35 98.2772  15
  -2   9  -4 1104.03 113.336  30
  -2   9  -4 816.657 79.1842  28
  -2   9  -4 1015.05 84.0849   4
  -2   9  -4 985.474 93.8465  11
  -2   9  -4 803.906 167.552   7
  -2   9  -5 1474.27 105.731   4
  -2   9  -5 1262.40 194.601   8
  -2   9  -5 1427.96 124.536  30
  -2   9  -5 1735.69 122.838  15
  -2   9  -5 1492.96 207.101   7
  -2   9  -6 5658.65 414.077   8
  -2   9  -6 5722.21 287.536  15
  -2   9  -6 5445.44 285.457  30
  -2   9  -6 5100.99 264.704   4
  -2   9  -6 4842.37 388.266   7
  -2   9  -7 1375.54 115.245  30
  -2   9  -7 1550.21 121.078  15
  -2   9  -7 1426.23 207.393   8
  -2   9  -7 1128.03 181.185   7
  -2   9  -8 48.8219 54.2265  30
  -2   9  -8 33.0177 57.7687  15
  -2   9  -9 4194.58 234.113  15
  -2   9 -10 111.423 59.3967  15
  -2   9 -11 1767.38 121.508  15
  -2   9 -12 1423.85 99.7831  15
  -2   9 -13 39.4258 36.6692  15
   2  -8  -9 1110.06 76.2627  27
   2  -8  -8 90.1808 59.0293  27
  -2   8   8 106.600 43.5394  10
  -2   8   7 428.607 66.3752  10
  -2   8   7 458.263 60.3949  24
  -2   8   6 2395.09 149.921  29
  -2   8   6 2124.28 131.861  24
  -2   8   6 2232.15 142.961  10
  -2   8   5 1437.69 119.451  29
  -2   8   5 1598.31 128.040  28
  -2   8   5 1462.03 115.743  10
  -2   8   4 4243.41 231.880  29
  -2   8   4 4377.34 241.988  28
  -2   8   4 4322.78 347.824  16
  -2   8   3 7238.63 492.337  16
  -2   8   3 7753.90 373.638  30
  -2   8   3 7953.03 375.038  29
  -2   8   3 7748.88 382.834  28
  -2   8   2 7886.90 388.292  30
  -2   8   2 8657.01 510.955   7
  -2   8   2 8260.45 379.495  29
  -2   8   1 2184.78 136.228  29
  -2   8   1 2599.43 250.469  16
  -2   8   1 2209.41 152.209  30
  -2   8   1 2435.08 151.909  28
  -2   8   1 2198.77 142.935  11
  -2   8   1 2314.34 244.925   7
  -2   8   1 1963.05 208.234  18
  -2   8   0 3716.87 200.821  28
  -2   8   0 3529.70 273.468  18
  -2   8   0 4258.39 308.963  16
  -2   8   0 3904.41 211.918  30
  -2   8   0 3200.80 182.354  29
  -2   8   0 3406.31 195.785  11
  -2   8  -1 6345.29 406.722  16
  -2   8  -1 6310.99 312.617  11
  -2   8  -1 5998.40 308.580  28
  -2   8  -1 6964.69 397.010  18
  -2   8  -1 6420.43 323.503  30
  -2   8  -2-87.1387 88.0028  16
  -2   8  -2 19.7034 62.5498  30
  -2   8  -2 15.6974 77.0373  18
  -2   8  -2 106.135 50.8081   4
  -2   8  -2 70.5604 54.4459  28
  -2   8  -2 60.5330 50.5451  11
  -2   8  -3 13290.8 591.154   4
  -2   8  -3 12055.0 669.517  16
  -2   8  -3 14016.6 735.194   8
  -2   8  -3 12800.7 589.325  28
  -2   8  -3 13561.3 678.902  18
  -2   8  -3 13372.7 602.281  15
  -2   8  -4 137.866 48.9449  28
   2  -8   4 121.354 122.615   9
  -2   8  -4 122.346 78.4056  18
  -2   8  -4-23.1501 101.317   8
  -2   8  -4 117.284 58.1440  15
  -2   8  -4 131.069 48.9150   4
  -2   8  -4 68.7406 68.5888  16
  -2   8  -4 78.0037 71.2495  30
  -2   8  -5 11915.1 554.862  30
  -2   8  -5 12094.2 679.803   8
  -2   8  -5 12499.6 552.578  15
  -2   8  -5 11652.8 618.784  18
  -2   8  -5 11258.2 534.273   4
   2  -8   5 12202.9 698.337   9
  -2   8  -6 1004.78 160.461  17
  -2   8  -6 1220.76 101.706  30
  -2   8  -6 719.864 159.607   8
  -2   8  -6 734.065 123.683  18
   2  -8   6 511.161 156.653   9
  -2   8  -6 790.631 158.798   7
  -2   8  -6 962.510 94.3565  15
   2  -8   7-56.3640 123.214   9
  -2   8  -7 38.3253 89.7726  17
  -2   8  -7-51.7741 94.9437   8
  -2   8  -7 29.1653 58.2795  30
  -2   8  -7-6.63032 58.2447  15
  -2   8  -7 43.7648 88.3010   7
  -2   8  -8 400.379 135.963   8
   2  -8   8 723.708 178.245   9
  -2   8  -8 306.634 62.9359  30
  -2   8  -8 524.720 126.899  17
  -2   8  -8 568.663 83.1516  15
  -2   8  -9 9541.70 637.955   8
  -2   8  -9 11120.2 506.957  15
   2  -8   9 9887.14 653.201   9
  -2   8  -9 10471.4 496.885  12
  -2   8 -10 764.104 92.2226  15
  -2   8 -11 34.6347 53.6668  15
  -2   8 -12 226.362 57.9532  15
  -2   8 -13 1771.31 111.657  15
  -2   8 -14 415.845 42.2158  15
   2  -7 -10-13.6228 45.5302  27
  -2   7  10 2.52247 42.3425  24
   2  -7  -9 1394.13 100.701  27
  -2   7   9 1179.98 90.2715  24
  -2   7   8 822.814 78.2588  10
  -2   7   8 910.991 94.6547  29
  -2   7   7 644.383 80.9101  10
  -2   7   6 6037.06 295.346  28
  -2   7   6 5494.10 284.357  10
  -2   7   5 367.366 129.051  16
  -2   7   5 514.361 82.2040  29
  -2   7   4 3053.59 187.836  28
  -2   7   4 2945.19 280.895  16
  -2   7   4 3404.19 186.583  29
  -2   7   3 131.920 96.4686  18
  -2   7   3 172.382 117.511  16
  -2   7   3 14.9045 57.1892  29
  -2   7   3 16.5352 60.1342  28
  -2   7   3-19.3156 82.8877   7
  -2   7   3 52.0777 56.3113  30
  -2   7   2 5107.56 261.939  29
  -2   7   2 4974.07 266.645  28
  -2   7   2 5193.28 265.357  11
  -2   7   2 5431.15 352.717  18
  -2   7   2 5723.26 273.200  30
  -2   7   1 7010.78 392.987  18
  -2   7   1 6006.31 396.241  16
  -2   7   1 6145.13 298.918  11
  -2   7   1 5768.59 292.285  29
  -2   7   1 6263.23 307.076  30
  -2   7   0 479.523 107.034  18
  -2   7   0 706.268 80.6042  30
  -2   7   0 494.429 60.6964  29
  -2   7   0 621.731 72.2850  28
  -2   7   0 650.435 68.2705  11
  -2   7  -1 2175.34 124.760   4
  -2   7  -1 1970.81 137.292  30
  -2   7  -1 2156.02 130.835  28
  -2   7  -1 2471.46 199.428  18
  -2   7  -1 1945.92 127.247  11
  -2   7  -2 1360.33 107.868  30
  -2   7  -2 1322.32 163.793   8
  -2   7  -2 1375.26 98.5690  28
  -2   7  -2 1426.87 92.8985   4
  -2   7  -2 1615.28 159.580  18
  -2   7  -2 1345.39 99.0321  15
  -2   7  -3 4847.73 304.179  18
  -2   7  -3 4454.55 234.827  15
  -2   7  -3 4842.14 335.510   8
  -2   7  -3 4220.31 239.702  30
  -2   7  -3 4661.77 225.656   4
   2  -7   3 5031.54 351.857   9
  -2   7  -4-33.5091 78.4916  17
  -2   7  -4-28.7308 53.8399  30
  -2   7  -4-40.3022 94.4036   8
  -2   7  -4 52.2634 48.3736  15
   2  -7   4 206.658 123.711   9
  -2   7  -5 1869.03 204.365  17
   2  -7   5 2203.67 243.941   9
  -2   7  -5 2453.22 149.939  30
  -2   7  -5 2615.08 237.071   8
  -2   7  -5 2371.51 147.006  15
  -2   7  -6 5980.33 324.891  30
  -2   7  -6 6483.90 418.418  17
   2  -7   6 7871.54 484.025   9
  -2   7  -6 7093.32 456.164   8
  -2   7  -6 6894.53 333.806  15
  -2   7  -6 6925.63 330.571  12
   2  -7   7-82.3071 136.573   9
  -2   7  -7 39.8132 91.7459  17
  -2   7  -7 26.1423 50.3607  30
  -2   7  -7 24.9619 111.142   8
  -2   7  -7 51.6370 63.3195  12
  -2   7  -7 19.5307 85.3948   7
  -2   7  -8 609.460 154.696   8
  -2   7  -8 628.369 83.4322  12
   2  -7   8 408.696 159.071   9
  -2   7  -8 480.425 132.500  17
  -2   7  -9 1066.62 169.752  17
   2  -7   9 1001.29 199.697   9
  -2   7  -9 963.529 189.413   8
  -2   7  -9 1139.77 104.156  12
  -2   7 -10 3728.79 349.525   8
  -2   7 -10 4125.16 222.770  12
  -2   7 -11 2892.08 170.693  12
   2  -7  12 96.0417 52.3826  23
  -2   7 -12 156.778 52.4556  12
  -2   7 -13 203.245 53.3870  15
  -2   7 -14 26.9844 34.6760  15
   2  -6 -11 27.7324 47.1005  27
  -2   6  11 48.6972 42.6790  24
   2  -6 -10 118.011 61.1193  27
  -2   6  10 250.945 57.7391  24
  -2   6   9 29.8275 65.7487  29
   2  -6  -9 25.0530 69.9230  27
  -2   6   8 4631.61 236.333  29
  -2   6   8 4013.37 216.555  10
  -2   6   7 16441.0 872.525  16
  -2   6   7 16797.8 751.511  10
  -2   6   7 17062.7 761.278  29
  -2   6   6 1885.79 224.836  16
  -2   6   6 2188.09 140.268  28
   2  -6  -6 1802.40 222.979  39
  -2   6   6 1795.31 129.665  10
  -2   6   5 2118.13 135.151  28
   2  -6  -5 1878.27 223.506  39
  -2   6   4 19213.4 967.098  18
  -2   6   4 20095.5 866.020  28
  -2   6   4 20355.8 987.367  16
  -2   6   4 18746.9 861.759  29
  -2   6   3 900.438 143.390  18
  -2   6   3 1065.20 154.822  16
  -2   6   3 1263.75 93.7949  29
  -2   6   3 979.050 88.4741  28
  -2   6   3 998.343 86.8257  30
  -2   6   2 1353.98 160.741  18
  -2   6   2 1669.02 107.212  28
  -2   6   2 1458.72 106.937  30
  -2   6   2 1275.39 95.4094  11
  -2   6   2 1499.91 101.338  29
  -2   6   1 28.8185 70.6945  18
  -2   6   1-34.6445 50.1448  30
  -2   6   1 12.0195 39.4577  11
  -2   6   0-27.2683 69.7842  18
   2  -6   0-11.8595 65.4383  40
  -2   6  -1 66.2724 72.2781  18
   2  -6   1-52.7944 77.7398  40
   2  -6   2 10549.1 579.534   9
  -2   6  -2 9994.57 554.564   8
  -2   6  -2 10031.6 536.535  18
  -2   6  -2 10332.6 544.286  17
  -2   6  -3 786.727 133.839   8
   2  -6   3 1078.23 157.977   9
  -2   6  -3 989.624 131.573  17
  -2   6  -4 1713.33 176.047  17
   2  -6   4 1532.88 199.456   9
  -2   6  -4 1736.65 180.425   8
  -2   6  -4 1655.67 109.273  15
  -2   6  -5-33.7020 85.0731  17
   2  -6   5-21.9019 109.025   9
  -2   6  -5 59.1040 49.2133  30
  -2   6  -5-9.14563 47.9058  12
  -2   6  -5 57.8669 91.8118   8
  -2   6  -6 3402.66 270.877  17
  -2   6  -6 3200.28 183.360  30
  -2   6  -6 3409.87 187.961  12
   2  -6   6 3595.42 306.703   9
  -2   6  -7 7285.37 366.352  30
  -2   6  -7 8993.77 521.558   8
  -2   6  -7 8482.04 380.224  12
   2  -6   7 7584.25 511.394   9
  -2   6  -8 264.838 67.4289  12
  -2   6  -8 126.852 117.377   8
   2  -6   8 342.237 148.287   9
  -2   6  -9 18667.1 808.117  12
   2  -6   9 17351.8 807.694  23
   2  -6   9 17830.2 990.465   9
   2  -6  10 622.444 174.597   9
  -2   6 -10 786.679 87.7339  12
   2  -6  10 744.543 91.6369  23
  -2   6 -11 35.5635 58.4731  12
   2  -6  11 30.4743 62.6137  23
  -2   6 -12 2279.71 132.850  12
   2  -6  12 2032.88 142.053  23
   2  -6  13 133.818 55.6080  23
  -2   6 -14 419.319 56.4146  15
   2  -6  14 564.539 61.3384  23
   2  -5 -12 154.794 41.3956  27
   2  -5 -11 549.139 73.1670  27
   2  -5 -10 1656.37 124.041  27
  -2   5   9 26.9129 68.5445  29
   2  -5  -8 2578.85 255.934  20
  -2   5   8 3004.97 176.836  29
   2  -5  -8 2512.77 270.916  39
  -2   5   7 2915.83 176.559  29
  -2   5   7 2956.17 257.573  16
   2  -5  -7 2556.62 273.241  39
   2  -5  -7 2801.38 271.760  20
  -2   5   7 3057.03 171.787  28
  -2   5   7 2893.28 164.960  10
  -2   5   6 212.132 110.541  16
  -2   5   6 179.224 66.4532  29
  -2   5   6 289.706 66.0994  28
   2  -5  -6 434.159 149.496  39
  -2   5   5 7071.78 339.890  29
  -2   5   5 7163.22 339.363  28
  -2   5   5 6436.90 424.993  18
  -2   5   5 6945.07 432.519  16
  -2   5   4 17032.0 755.043  28
  -2   5   3-8.01261 44.1244  29
  -2   5   3 136.313 47.4416  28
   2  -5  -3 13.2993 66.2305  40
   2  -5  -2 1836.90 164.364  40
   2  -5  -1 5286.83 316.550  40
  -2   5   1 5525.60 328.428  18
  -2   5   0 19483.6 893.543  18
   2  -5   0 18183.6 890.859  40
  -2   5  -1 6865.43 382.236  17
  -2   5  -1 6807.41 388.257   8
   2  -5   1 6356.67 405.659   9
  -2   5  -2-26.1217 75.3423   8
   2  -5   2 33.0286 105.824   9
  -2   5  -2-25.2984 73.7399  17
  -2   5  -3 25976.6 1230.09   8
  -2   5  -3 27962.0 1233.48  17
   2  -5   3 25334.1 1249.10   9
   2  -5   4-36.2819 83.6058   9
  -2   5  -4 91.9384 82.5570   8
  -2   5  -4-14.4488 82.4568  17
  -2   5  -5 5587.07 355.084   8
   2  -5   5 5060.20 366.998   9
  -2   5  -6 34.3863 43.8582  12
   2  -5   6-22.0218 114.226   9
   2  -5   7 494.990 154.271   9
  -2   5  -7 459.735 67.3956  12
   2  -5   8 9995.01 614.826   9
  -2   5  -8 9612.21 451.512  12
   2  -5   9 6460.21 505.388   9
  -2   5  -9 7458.47 355.131  12
   2  -5  10 2702.98 317.523   9
  -2   5 -10 2924.59 171.012  12
  -2   5 -11 176.517 57.0526  12
   2  -5  12 410.969 80.9769  23
   2  -5  13 20.4907 56.8625  23
   2  -5  14 986.747 86.1092  23
   2  -4 -13 71.0742 38.3278  27
  -2   4  13 40.9760 34.3810  24
   2  -4 -12 678.484 78.0744  27
  -2   4  12 677.335 75.0351  24
   2  -4 -11-14.1295 66.4324  27
   2  -4 -10 18899.5 861.658  27
  -2   4  10 19586.5 856.251  29
   2  -4  -9 522.596 136.906  20
  -2   4   9 798.137 91.9312  29
   2  -4  -9 569.955 157.552  39
   2  -4  -8 642.544 149.481  20
  -2   4   8 652.572 83.9280  29
   2  -4  -8 585.279 152.541  39
  -2   4   7 2001.08 122.477  28
  -2   4   7 1527.50 185.505  16
  -2   4   7 1739.79 127.008  29
   2  -4  -7 1576.03 206.895  20
   2  -4  -7 1987.57 238.569  39
  -2   4   6 168.128 59.5858  29
  -2   4   6 184.120 99.7773  16
  -2   4   6 104.928 48.9161  28
   2  -4  -6 301.856 135.499  39
  -2   4   5 19516.0 852.213  28
  -2   4   5 20204.3 953.458  18
   2  -4  -5 18532.7 945.528  40
  -2   4   5 19377.5 855.120  29
  -2   4   4 24856.9 1114.74  18
   2  -4  -4 22261.4 1105.78  40
   2  -4  -3 11392.7 594.214  40
  -2   4   3 11827.5 591.875  18
   2  -4  -2 14826.2 721.789  40
  -2   4   2 14728.1 718.277  18
   2  -4  -1 10745.4 546.097  40
   2  -4   0 2623.87 199.519  40
  -2   4  -1 18794.3 891.736   8
   2  -4   1 19706.9 929.054   9
  -2   4  -2 5328.65 306.498   8
   2  -4   2 5185.73 335.500   9
   2  -4   3 1395.49 158.253   9
  -2   4  -3 1475.82 144.358   8
   2  -4   4 5719.91 364.126   9
   2  -4   5 11516.8 631.838   9
   2  -4   6 83.3855 100.876   9
  -2   4  -6 142.198 95.8840  19
   2  -4   7 14735.6 808.578   9
  -2   4  -7 14507.0 654.921  12
  -2   4  -7 15712.9 788.769  19
   2  -4   8 80.9920 118.040   9
  -2   4  -8 9.26285 48.5306  12
  -2   4  -8 92.9600 117.332  19
  -2   4  -9 1265.60 102.209  12
  -2   4  -9 1187.32 197.972  19
   2  -4   9 1459.30 229.088   9
   2  -4  10 597.401 180.907   9
   2  -4  10 805.254 87.0285  25
  -2   4 -10 877.299 86.4622  12
  -2   4 -10 1016.59 189.658  19
   2  -4  11 8021.99 385.022  25
  -2   4 -11 8092.48 545.663  19
   2  -4  12 1719.02 119.575  25
   2  -4  13 55.1225 47.5146  25
   2  -4  13-16.7393 63.8671  23
   2  -4  14 48.5373 58.9822  23
   2  -4  15-6.57919 34.3249  23
   2  -3 -13 405.056 60.9913  27
  -2   3  13 275.180 52.5148  24
   2  -3 -12 175.108 66.5734  27
   2  -3 -11 54.7844 77.4425  27
  -2   3  10 95.8513 62.8220  29
   2  -3 -10 243.469 89.3476  27
  -2   3   9 25.9970 61.9307  29
   2  -3  -9 119.468 120.656  20
   2  -3  -9 196.321 141.614  39
  -2   3   8 551.656 77.0763  29
   2  -3  -8 708.251 162.522  20
   2  -3  -8 449.546 144.372  39
  -2   3   7 1818.53 183.406  16
   2  -3  -7 1741.00 223.581  39
  -2   3   7 1859.57 127.469  29
   2  -3  -7 2039.70 224.797  20
  -2   3   6 14765.6 642.573  28
  -2   3   6 14196.2 647.416  29
   2  -3  -5 12925.2 679.269  40
  -2   3   5 13065.4 660.212  18
   2  -3  -4 690.812 118.163  40
  -2   3   4 853.780 115.955  18
  -2   3   3 2269.81 174.626  18
   2  -3  -3 1900.35 177.701  40
  -2   3   2 20174.8 924.696  18
   2  -3  -2 19713.7 935.925  40
  -2   3   1 28538.0 1276.54  18
   2  -3  -1 28416.1 1290.67  40
  -2   3   0 19957.8 940.047   8
  -2   3   0 22263.6 955.494  17
   2  -3   0 20138.6 977.131   9
   2  -3   1 108.527 83.9131   9
  -2   3  -1 166.058 74.7295  17
  -2   3  -1 166.556 60.7698   8
   2  -3   2 40482.2 1816.81   9
  -2   3  -2 40911.8 1788.10   8
   2  -3   3-13.0957 76.3421   9
   2  -3   4 3234.97 243.050   9
   2  -3   5 289.082 114.252   9
  -2   3  -5 303.249 98.5224  19
  -2   3  -6 24385.2 1163.44  19
  -2   3  -7 1149.41 164.487  19
  -2   3  -8 8013.31 506.016  19
  -2   3  -9-25.3882 124.564  19
   2  -3  10 10504.4 680.745   9
  -2   3 -10 11253.3 668.056  19
  -2   3 -11 2481.48 282.726  19
   2  -3  11 2861.84 314.763   9
   2  -3  11 2907.97 174.819  25
   2  -3  12 305.774 77.1285  25
   2  -3  13 1578.78 111.852  25
   2  -3  13 1723.61 127.121  23
   2  -3  14 1027.45 76.8348  25
   2  -3  14 1159.39 95.8406  23
   2  -3  15 200.248 41.2942  23
   2  -2 -14-16.8140 42.5916  27
  -2   2  14-7.40086 31.6790  24
   2  -2 -13 1212.13 97.3432  27
   2  -2 -12 2612.70 162.460  27
   2  -2 -12 2517.30 144.865  22
   2  -2 -11 12566.3 583.593  27
   2  -2 -10 1750.96 146.412  27
  -2   2  10 2003.69 125.978  29
   2  -2  -9 4548.08 375.735  20
  -2   2   9 5067.02 253.423  29
   2  -2  -9 4724.17 394.331  39
   2  -2  -8 1217.73 187.781  20
  -2   2   8 1232.11 99.4645  29
   2  -2  -8 1171.29 200.695  39
   2  -2  -7 9869.37 555.633  20
  -2   2   7 9189.96 495.256  16
  -2   2   7 9305.38 431.556  29
   2  -2  -7 9803.69 573.350  39
   2  -2  -6 13056.0 693.833  40
  -2   2   5 670.661 107.239  18
   2  -2  -5 592.356 124.895  40
  -2   2   4 22525.1 1048.02  18
   2  -2  -4 23145.8 1077.33  40
  -2   2   3 10264.6 508.609  18
   2  -2  -3 10358.7 535.169  40
  -2   2   2 156923. 6626.65  18
   2  -2  -2 154551. 6646.66  40
   2  -2  -1 70.6283 78.3264  40
  -2   2   0 125389. 5402.15   8
   2  -2   0 120967. 5439.14   9
  -2   2   0 134865. 5421.41  17
  -2   2  -1 118.871 51.9709   8
  -2   2  -2 1073.47 101.102   8
  -2   2  -3 2042.39 158.501  19
  -2   2  -4 302.672 91.3049  19
  -2   2  -5 43107.6 1926.62  19
  -2   2  -6 62.8342 87.6760  19
   2  -2   6-37.8794 94.2808   9
  -2   2  -7 941.961 152.334  19
   2  -2   7 1314.18 184.562   9
   2  -2   8 2356.46 260.957   9
  -2   2  -8 2735.59 156.228  27
  -2   2  -8 2229.05 246.007  19
   2  -2   9 5967.68 437.604   9
  -2   2  -9 5561.55 281.905  27
  -2   2  -9 5103.76 405.738  19
  -2   2 -10 162.745 133.183  19
   2  -2  10 90.6626 132.235   9
   2  -2  11 451.844 157.367   9
   2  -2  11 442.229 82.8696  25
  -2   2 -11 459.169 158.570  19
   2  -2  12 1486.09 119.997  25
   2  -2  13 574.324 76.7796  25
   2  -2  13 548.854 85.1162  23
   2  -2  14 181.325 54.4455  25
   2  -1 -14 114.266 51.6007  27
  -2   1  14 155.195 43.1628  24
   2  -1 -13 25.8537 63.4548  27
   2  -1 -13 59.9052 45.1182  22
   2  -1 -12 1891.12 136.987  27
   2  -1 -12 1629.63 117.654  22
   2  -1 -11 3812.82 224.356  27
   2  -1 -10 176.428 127.424  20
  -2   1  10 158.226 57.4593  29
   2  -1 -10 166.134 91.4956  27
   2  -1  -9 23.7313 112.967  20
  -2   1   9 55.7866 49.6684  29
   2  -1  -9-27.2400 116.881  39
  -2   1   8 3343.12 176.815  29
   2  -1  -8 3314.40 285.507  20
   2  -1  -8 3197.10 301.580  39
   2  -1  -7 4008.98 308.436  20
   2  -1  -7 4555.43 339.059  39
   2  -1  -6 2006.87 207.455  40
   2  -1  -5 12354.5 648.990  40
  -2   1   5 12461.3 605.986  18
   2  -1  -4 38188.0 1686.12  40
  -2   1   4 36808.9 1642.49  18
   2  -1  -3 1872.09 169.091  40
  -2   1   3 1957.99 143.132  18
  -2   1   2 9664.50 458.685  18
   2  -1  -2 9279.56 483.306  40
  -2   1   1 49.8894 54.5688  17
   2  -1  -1 47.2803 72.9504  40
  -2   1   0 150476. 6397.40  17
   2  -1   0 151210. 6419.53   9
  -2   1  -1 8137.75 385.647   8
   2  -1   1 8765.81 428.223   9
   2  -1   2 13281.5 639.979   9
   2  -1   3 17573.4 796.891   9
  -2   1  -3 16091.3 765.008  19
   2  -1   4 9316.77 492.622   9
  -2   1  -4 9012.70 466.333  19
   2  -1   5 3970.24 282.255   9
  -2   1  -5 4032.94 264.747  19
   2  -1   6 28181.7 1340.30   9
   2  -1   7-86.2844 102.736   9
  -2   1  -8 6887.04 444.965  19
   2  -1   8 6422.65 455.070   9
   2  -1   9 9450.50 595.666   9
  -2   1  -9 10003.4 584.291  19
  -2   1  -9 8911.80 427.496  27
   2  -1  10 1387.65 217.889   9
  -2   1 -10 943.420 97.2873  27
  -2   1 -10 1245.44 200.486  19
   2  -1  11 500.402 88.4167  25
   2  -1  12 1588.50 124.409  25
   2  -1  13 33.2118 57.2013  25
   2  -1  13 77.8752 63.9417  23
   2  -1  14 5029.97 245.555  25
   2  -1  14 5253.13 249.634  23
   2   0 -15 2246.49 114.227  27
   2   0 -14 2554.19 139.260  27
  -2   0  14 2053.65 118.041  24
   2   0 -13 4.77164 69.0818  27
   2   0 -13 34.6628 53.7876  22
   2   0 -12 4158.96 223.447  22
   2   0 -11 17142.3 927.387  20
   2   0 -10 12286.2 560.050  31
   2   0 -10 12679.6 717.225  20
   2   0  -9 5024.51 247.303  31
   2   0  -9 4476.91 255.431  27
   2   0  -9 5042.64 374.779  20
   2   0  -8 530.404 134.781  20
   2   0  -8 523.681 79.5555  27
   2   0  -7 6009.43 387.763  20
   2   0  -6 261.288 116.851  40
   2   0  -5 1540.26 168.721  40
  -2   0   5 1375.16 125.529  18
   2   0  -4 71405.5 3040.00  40
  -2   0   4 68688.0 2986.96  18
   2   0  -3 229410. 9719.12  40
  -2   0   3 228395. 9671.23  18
  -2   0   2 5708.60 285.441  18
   2   0  -2 5491.87 315.823  40
  -2   0   1 7955.17 378.565  17
   2   0   0 19642.7 891.184   9
  -2   0  -1 60812.6 2669.08   8
   2   0   1 70370.4 2719.54   9
   2   0   2 247191. 10098.4   9
  -2   0  -2 233615. 10065.1  19
   2   0   3 23036.7 1054.37   9
   2   0   4 28289.3 1292.71   9
   2   0   5 707.279 118.111   9
   2   0   6 12231.0 654.685   9
   2   0   7 66.0790 51.8093  24
   2   0   7-41.6341 92.7000   9
   2   0   8 144.093 126.216   9
   2   0   8 42.3231 57.2333  24
   2   0   9 19350.4 979.047   9
   2   0   9 17810.6 809.715  24
  -2   0 -10 9317.33 600.683  19
   2   0  10 9486.19 612.975   9
   2   0  10 9845.49 461.174  24
   2   0  11 10034.0 483.793  25
   2   0  12 58.8701 67.8270  25
   2   0  12 108.061 68.0483  23
   2   0  13 3401.47 189.866  25
   2   0  13 3565.54 190.931  23
   2   0  14 1522.15 94.2938  23
   2   0  14 1701.87 98.6334  25
  -2  -1  14 127.935 37.3100  24
   2   1 -14 124.817 42.4102  22
   2   1 -13 175.415 57.8249  13
   2   1 -13 159.744 61.3577  22
   2   1 -12 163.979 75.3688  22
   2   1 -11 186.210 124.973  20
   2   1 -11 292.343 72.3314  31
   2   1 -11 143.208 84.0193  27
   2   1 -10 4117.69 212.874  31
   2   1 -10 3602.54 220.339  27
   2   1 -10 3436.97 323.447  20
   2   1  -9-34.2941 66.8516  31
   2   1  -9 38.8143 71.3697  27
   2   1  -9 76.2325 115.140  39
   2   1  -8 366.803 71.6668  27
   2   1  -8 524.625 148.076  39
   2   1  -7 13377.4 711.926  39
   2   1  -6 958.233 135.611  20
   2   1  -6 1061.09 154.884  40
   2   1  -6 1024.14 147.774  39
   2   1  -5 14436.7 695.780  20
   2   1  -5 13616.5 709.975  40
  -2  -1   4 12292.9 563.364  18
  -2  -1   3 1688.28 109.964  18
  -2  -1   2 35846.0 1539.93  18
   2   1  -2 35466.6 1583.69  40
  -2  -1   1 80786.4 3523.26  17
   2   1  -1 88470.9 3567.50  40
   2   1   0 21791.1 970.429   9
   2   1   1 2079.26 141.038   9
   2   1   2 24433.9 1089.91   9
   2   1   3 51324.1 2238.81   9
   2   1   4 926.031 122.582   9
   2   1   5 2886.46 226.646   9
   2   1   6 14941.2 765.152   9
   2   1   7 3350.60 284.202   9
   2   1   7 3361.60 189.258  34
   2   1   7 3495.49 193.418  24
   2   1   8 22.9499 102.185   9
   2   1   8-16.1549 61.9682  34
   2   1   8-47.0882 64.2004  24
   2   1   9 595.294 158.703   9
   2   1   9 412.726 82.3561  24
   2   1  10 3334.35 315.921   9
   2   1  10 3684.32 221.246  25
   2   1  10 3824.88 213.688  24
   2   1  11 191.028 84.4960  25
   2   1  11 190.503 72.5790  23
   2   1  11 118.259 59.5270  33
   2   1  12 5.50294 62.6433  25
   2   1  12 35.8044 56.2862  23
   2   1  13 139.557 61.9355  25
   2   1  13 129.387 51.4763  23
   2   1  14 93.2805 38.6604  25
   2   2 -14 1095.47 83.5197  13
   2   2 -14 1282.11 87.4751  22
   2   2 -13-51.4974 69.4828  27
   2   2 -13 76.6679 59.9910  13
   2   2 -13 74.0425 63.2835  22
   2   2 -12 88.2737 80.7952  27
   2   2 -12 32.1834 73.2331  22
   2   2 -11 1258.67 112.768  31
   2   2 -11 1391.07 124.605  27
   2   2 -11 1460.42 124.381  22
   2   2 -10 2325.25 157.392  31
   2   2 -10 2534.54 161.976  27
   2   2  -9 5505.63 284.742  31
   2   2  -9 5569.12 286.731  27
   2   2  -8 210.566 60.0563  31
   2   2  -8 233.420 62.0702  27
   2   2  -8 57.9343 101.830  20
   2   2  -8 251.181 122.317  39
   2   2  -7 146.902 91.2618  20
   2   2  -7 105.340 106.663  39
   2   2  -6 25297.5 1192.56  20
   2   2  -6 25825.4 1200.99  39
   2   2  -5 299.972 92.9127  20
   2   2  -5 201.608 103.571  40
   2   2  -5 387.286 102.597  39
   2   2  -4 1391.57 132.223  20
   2   2  -4 1083.30 140.916  40
   2   2  -3 8540.45 428.203  40
  -2  -2   3 8110.60 358.759  18
   2   2  -3 8015.68 369.887  19
   2   2  -3 7159.40 391.096  20
   2   2  -2 188.497 74.1665  40
  -2  -2   2 106.327 31.5405  18
  -2  -2   1 66891.1 2883.91  17
   2   2  -1 72384.8 2934.83  40
   2   2   0 633.711 84.7918  40
   2   2   1 72505.9 3091.88   9
   2   2   2 60971.9 2616.63   9
   2   2   3 39560.2 1733.17   9
   2   2   4 2270.85 175.708   9
   2   2   5 14220.0 645.381   9
   2   2   5 11552.7 585.929   1
   2   2   6 4337.81 295.325   9
   2   2   6 3900.66 214.229  34
   2   2   6 3958.28 214.880  24
   2   2   7 441.662 80.8026  34
   2   2   7 265.618 114.144   9
   2   2   7 431.667 81.5401  24
   2   2   8 234.079 79.9818  34
   2   2   8 274.261 114.315   9
   2   2   8 347.896 75.9022  24
   2   2   9 5849.54 311.721  34
   2   2   9 6440.54 324.134  24
   2   2   9 6443.02 321.019  23
   2   2  10 11720.7 545.268  24
   2   2  10 11464.8 541.841  23
   2   2  11 4063.24 224.587  33
   2   2  11 4305.78 218.807  35
   2   2  11 4291.64 227.631  23
   2   2  12 971.789 77.2888  33
   2   2  12 1008.21 83.4955  23
   2   3 -14 533.653 75.6695  27
   2   3 -14 472.777 63.4951  13
   2   3 -13 668.041 90.0921  27
   2   3 -13 644.738 82.6927  13
   2   3 -13 578.146 82.3311  22
   2   3 -12 4844.63 262.557  27
   2   3 -12 4906.11 260.817  22
   2   3 -11 2526.33 167.250  31
   2   3 -11 2299.49 249.237  19
   2   3 -11 2530.68 276.266  20
   2   3 -11 2665.35 170.698  27
   2   3 -11 2561.67 167.092  22
   2   3 -10 2314.61 254.634  20
   2   3 -10 2175.60 237.840  19
   2   3 -10 2193.81 147.348  31
   2   3 -10 1876.61 143.836  27
   2   3 -10 2088.41 133.404  14
   2   3 -10 2293.77 151.770  22
   2   3  -9 3270.72 188.291  31
   2   3  -9 3247.89 176.789  14
   2   3  -9 3022.79 275.393  19
   2   3  -9 2817.56 183.334  22
   2   3  -9 3375.27 187.747  27
   2   3  -9 3595.99 296.127  20
   2   3  -8 226.758 99.9017  19
   2   3  -8 220.556 62.9799  31
   2   3  -8 140.407 53.1732  14
   2   3  -8 193.464 64.9117  27
   2   3  -7 8960.07 476.222  19
   2   3  -7 8154.11 395.522  38
   2   3  -7 8691.12 481.600  20
   2   3  -7 8308.20 484.019  39
   2   3  -6 874.651 122.238   1
   2   3  -6 843.070 126.402  20
   2   3  -6 684.262 120.564  39
   2   3  -6 819.423 117.389  19
   2   3  -5 10814.7 503.927  19
   2   3  -5 9621.11 533.997  40
   2   3  -5 9810.25 512.944  20
   2   3  -5 9799.63 513.051  39
   2   3  -4 315.913 76.0897  20
   2   3  -4 223.198 77.1737  39
   2   3  -4 277.963 88.6993  40
   2   3  -4 220.024 59.3780  19
   2   3  -3 10913.0 510.465  20
   2   3  -3 11336.5 544.992  40
   2   3  -3 10533.9 488.185   8
   2   3  -3 10809.2 509.039  39
   2   3  -2 14229.9 652.665  40
   2   3  -2 13491.1 612.989  20
   2   3  -1 16269.2 748.009  40
   2   3   0 9397.61 452.326  40
   2   3   1 43678.2 1897.21  40
   2   3   2 1141.91 83.9376   9
   2   3   3 31.7790 43.4979   9
   2   3   3 120.911 82.7499   1
   2   3   4 10511.4 538.953   1
   2   3   4 10906.6 527.823   9
   2   3   5 23156.8 1039.11  34
   2   3   5 23830.9 1091.74   9
   2   3   5 23578.6 1038.32  25
   2   3   5 24028.6 1040.10  24
   2   3   6 2797.42 174.338  34
   2   3   6 3027.83 173.694  25
   2   3   6 2642.14 168.914  24
   2   3   6 2734.20 162.370  23
   2   3   7 1247.63 117.534  34
   2   3   7 1069.70 108.546  25
   2   3   7 1148.86 110.551  24
   2   3   7 974.562 96.7831  23
   2   3   8 58.5878 77.2680  34
   2   3   8 75.7136 71.6367  25
   2   3   8-54.9747 74.9439  24
   2   3   8-23.7194 56.0067  23
   2   3   9 42.8794 71.0451  34
   2   3   9-41.5463 72.0666  25
   2   3   9-6.82846 72.2201  24
   2   3   9 17.4126 59.2119  23
   2   3  10 537.932 89.8945  25
   2   3  10 692.654 93.8290  24
   2   3  10 504.441 73.8273  23
   2   3  11 229.583 57.1405  35
   2   3  11 202.493 67.6346  25
   2   3  11 247.777 65.9616  33
   2   3  12 428.120 56.5468  33
   2   3  12 595.094 74.0939  25
   2   4 -15 29.8999 40.4822  12
   2   4 -14 356.996 68.2347  27
   2   4 -14 275.022 59.5815  13
   2   4 -13 3387.60 196.518  22
   2   4 -13 3647.01 200.928  27
   2   4 -13 3662.68 198.889  13
   2   4 -12 5459.64 282.983  27
   2   4 -12 5282.92 281.469  13
   2   4 -12 5455.52 281.128  22
   2   4 -11 207.564 115.046  19
   2   4 -11 136.968 82.0020  31
   2   4 -11 315.281 143.463  20
   2   4 -11 173.823 81.4842  27
   2   4 -11 161.432 83.9119  22
   2   4 -10 2087.09 137.972  14
   2   4 -10 2163.71 147.813  27
   2   4 -10 2089.98 231.917  19
   2   4 -10 2337.40 157.692  22
   2   4 -10 2222.39 158.296  31
   2   4  -9 40.4703 90.1289  19
   2   4  -9 224.706 126.857  20
   2   4  -9 96.6878 68.7320  31
   2   4  -9 101.296 67.8315  27
   2   4  -9-4.66840 56.5715  14
   2   4  -9 44.8916 70.8682  22
   2   4  -8 6225.47 313.509  31
   2   4  -8 6161.76 305.346  27
   2   4  -8 6463.35 308.730  14
   2   4  -8 6364.04 401.416  19
   2   4  -8 7127.82 427.303  20
   2   4  -7 17409.5 787.530  14
   2   4  -7 17794.6 871.457  19
   2   4  -7 18538.5 859.011   1
   2   4  -7 18745.0 890.869  20
   2   4  -6 17017.8 797.879  19
   2   4  -6 16011.8 806.956  20
   2   4  -6 16722.3 809.953   1
   2   4  -5 437.671 91.4026  20
   2   4  -5 374.036 115.390   1
   2   4  -4 107.006 83.4710   1
   2   4  -4-8.41403 60.4963  20
   2   4  -4 20.2542 44.0134   8
   2   4  -3 12879.1 601.278   8
   2   4  -3 14555.7 696.901   7
   2   4  -3 14595.1 680.588   1
   2   4  -3 12642.6 639.477  40
   2   4  -3 13427.9 611.411  20
   2   4  -2 15140.1 694.312  40
   2   4  -2 14488.8 733.602   1
   2   4  -1 1771.02 122.449  40
   2   4  -1 1417.13 169.518   7
   2   4   0 6535.77 392.235   7
   2   4   0 6127.41 307.104  40
   2   4   0 6842.78 380.428   1
   2   4   1 15417.4 759.443   1
   2   4   2 2996.39 229.886   1
   2   4   3 39704.7 1776.77   1
   2   4   4 27232.7 1185.45  34
   2   4   4 26751.1 1180.89   5
   2   4   4 27069.9 1179.16  25
   2   4   4 27108.0 1233.50   1
   2   4   5 633.575 88.9802  34
   2   4   5 679.112 73.1150  37
   2   4   5 656.734 82.7726  25
   2   4   6 1366.25 126.707  34
   2   4   6 1104.29 93.7724  37
   2   4   6 1276.23 110.663  25
   2   4   6 1361.63 116.343  24
   2   4   7 103.498 85.7371  34
   2   4   7 85.6640 66.3267  25
   2   4   7 48.4921 70.6932  24
   2   4   7-5.09989 50.9855  23
   2   4   8 2758.42 180.552  34
   2   4   8 2878.10 175.615  25
   2   4   8 2788.77 181.038  24
   2   4   8 2356.76 152.954  23
   2   4   9 11748.1 567.889  34
   2   4   9 12178.6 571.195  25
   2   4   9 12814.7 576.786  24
   2   4  10 2275.84 144.111  35
   2   4  10 2190.43 147.600  25
   2   4  11 734.981 81.0815  33
   2   4  11 691.813 69.6197  35
   2   4  11 851.255 78.0582  25
   2   4  12 10.8655 34.1605  33
   2   4  12 7.43209 36.9389  25
   2   5 -15 318.192 48.5152  12
   2   5 -14 548.248 53.9667   3
   2   5 -14 803.493 76.2627  13
   2   5 -13 105.147 63.1409  27
   2   5 -13 14.3676 64.7767  13
   2   5 -12 2535.66 158.229  27
   2   5 -12 2236.11 153.962  13
   2   5 -12 2375.86 159.896  22
   2   5 -11 25.3127 114.796  20
   2   5 -11 105.037 74.2897  27
   2   5 -11 105.964 57.6334  14
   2   5 -11 131.593 77.7929  13
   2   5 -11 174.276 75.3239  22
   2   5 -10 464.768 138.810  20
   2   5 -10 147.004 100.978  19
   2   5 -10 328.760 84.9896  31
   2   5 -10 478.974 77.6440  27
   2   5 -10 278.282 70.5742  14
   2   5 -10 374.522 88.1727  22
   2   5  -9 7300.47 455.849  19
   2   5  -9 6902.99 350.266  14
   2   5  -9 7282.04 359.689  31
   2   5  -9 7428.13 350.954  27
   2   5  -9 7032.46 470.496  20
   2   5  -9 7472.44 360.924  22
   2   5  -8 19.5583 96.0290  20
   2   5  -8-17.0043 87.1085  19
   2   5  -8 96.4598 55.8294  27
   2   5  -8 223.291 70.1300  14
   2   5  -7 647.354 126.712  20
   2   5  -7 684.996 135.606   1
   2   5  -7 868.674 87.2068  31
   2   5  -7 836.984 83.4633  14
   2   5  -7 905.379 82.7418  36
   2   5  -7 852.064 89.7841  22
   2   5  -6 972.431 127.163  20
   2   5  -6 831.168 80.7218  36
   2   5  -6 1009.16 84.7331  31
   2   5  -6 1039.26 86.7691  14
   2   5  -6 898.028 83.2014  22
   2   5  -6 873.693 144.915   1
   2   5  -6 952.535 87.5269  38
   2   5  -5 105.778 56.1669   8
   2   5  -5 91.1475 92.0973   7
   2   5  -5 54.1107 63.1845  20
   2   5  -5 77.5605 95.9762   1
   2   5  -4 13726.8 687.502   7
   2   5  -4 13104.7 663.485   1
   2   5  -4 12199.3 596.380  20
   2   5  -4 12564.1 596.105   8
   2   5  -3 2489.89 158.733   8
   2   5  -3 2866.16 221.735   1
   2   5  -2 3597.95 267.248   1
   2   5  -2 3750.08 285.385   7
   2   5  -1 17764.7 896.522   7
   2   5   0 5408.58 349.022   1
   2   5   0 5869.03 376.409   7
   2   5   1 800.737 129.211   1
   2   5   1 1035.11 154.377   7
   2   5   2 430.952 63.6197  35
   2   5   2 541.668 75.6644  34
   2   5   2 386.237 66.5225   5
   2   5   2 518.671 72.8094  10
   2   5   2 372.943 108.201   1
   2   5   3 17346.9 801.352   5
   2   5   3 18322.6 806.043  35
   2   5   3 17623.3 792.811  37
   2   5   3 18185.4 796.382  25
   2   5   3 18289.0 802.713  24
   2   5   3 18299.3 875.094   1
   2   5   4 21590.7 965.792  37
   2   5   4 21627.0 979.101   5
   2   5   4 22087.5 1036.62   1
   2   5   4 22144.0 973.684  25
   2   5   4 23248.4 982.417  24
   2   5   4 21879.2 983.002  34
   2   5   5 449.487 82.0399   5
   2   5   5 353.243 87.6996  34
   2   5   5 283.164 70.3371  25
   2   5   5 444.446 80.7977  24
   2   5   5 359.155 62.9187  37
   2   5   6 78.6741 85.9160  34
   2   5   6 161.312 67.4813  25
   2   5   7 3983.86 231.620  34
   2   5   7 3751.54 218.153  25
   2   5   8 1029.80 117.834  35
   2   5   8 1213.68 125.383  34
   2   5   8 1319.37 113.094  25
   2   5   8 1161.42 117.528  24
   2   5   9-5.62875 69.9276  34
   2   5   9 5.87604 65.4053  35
   2   5   9 15.9649 58.0377  25
   2   5  10 1843.08 125.706  33
   2   5  10 1692.60 116.313  35
   2   5  10 1489.52 108.585  25
   2   5  11 85.5801 46.0326  35
   2   5  11 98.8653 52.4590  33
   2   6 -14 849.478 63.9445   3
   2   6 -14 1037.88 84.9801  13
   2   6 -13 5209.66 263.662  13
   2   6 -13 5192.62 262.503  12
   2   6 -12 89.7884 53.2192  14
   2   6 -12 54.8447 70.0595  13
   2   6 -11 684.828 87.5216  27
   2   6 -11 507.460 76.5011  14
   2   6 -11 700.078 101.443  22
   2   6 -10 16513.9 749.748  14
   2   6 -10 16726.9 749.371  27
   2   6 -10 15957.5 880.904  20
   2   6 -10 17269.6 761.213  22
   2   6  -9 1118.19 174.689  20
   2   6  -9 1149.81 103.685  14
   2   6  -9 1129.21 99.0792  27
   2   6  -9 1214.25 111.773  13
   2   6  -8 2035.62 208.040  20
   2   6  -8 1827.04 131.657  31
   2   6  -8 1377.53 168.829   8
   2   6  -8 1755.32 116.825  27
   2   6  -8 1473.50 123.724  14
   2   6  -8 1814.24 130.018  22
   2   6  -7 22035.0 981.168  36
   2   6  -7 21616.0 979.806  14
   2   6  -7 22236.7 981.910  31
   2   6  -7 22159.5 1067.16  20
   2   6  -7 22459.1 1058.25   8
   2   6  -7 22427.6 1075.14   1
   2   6  -7 22085.1 981.035  22
   2   6  -7 23191.8 980.845   6
   2   6  -6 3891.20 217.932  36
   2   6  -6 4166.42 213.248  31
   2   6  -6 4092.36 264.664   8
   2   6  -6 4139.04 215.032  14
   2   6  -6 3867.11 267.654  20
   2   6  -6 3796.25 210.877  22
   2   6  -6 4341.48 219.118   6
   2   6  -6 4434.69 309.747   1
   2   6  -6 3930.84 211.590   2
   2   6  -5 204.806 58.3102  38
   2   6  -5 268.158 67.0344   2
   2   6  -5 236.290 59.7846  35
   2   6  -5 292.693 58.2007  31
   2   6  -5 374.320 114.911   1
   2   6  -5 290.656 70.4581   8
   2   6  -5 235.373 115.966   7
   2   6  -5 373.016 66.2600  22
   2   6  -5 339.737 63.3298  36
   2   6  -5 447.425 71.4296   6
   2   6  -4 412.572 68.0823  36
   2   6  -4 408.709 64.3049  35
   2   6  -4 505.991 75.7685   8
   2   6  -4 423.480 71.6426   2
   2   6  -4 596.403 137.823   7
   2   6  -4 681.249 133.739   1
   2   6  -4 458.073 64.6183  14
   2   6  -4 446.774 70.0928   6
   2   6  -3 9134.78 527.799   1
   2   6  -3 9275.41 428.353   2
   2   6  -2 38.5007 62.3461   2
   2   6  -2 42.5710 102.885   7
   2   6  -2-54.2530 87.4124   1
   2   6  -2-46.6823 53.8095   6
   2   6  -1 2739.91 160.212   2
   2   6  -1 2546.21 156.923  37
   2   6  -1 2977.76 163.965   5
   2   6  -1 2708.20 255.562   7
   2   6  -1 2872.79 165.491   6
   2   6  -1 2909.30 162.900  35
   2   6   0 4222.56 219.063  37
   2   6   0 3796.54 315.242   7
   2   6   0 4606.45 227.608   6
   2   6   0 3938.94 217.438   2
   2   6   0 4377.83 225.993  35
   2   6   0 3943.37 298.791   1
   2   6   1 676.257 78.9078  10
   2   6   1 522.077 75.0086   6
   2   6   1 630.298 77.6322   2
   2   6   1 679.983 81.2594  34
   2   6   1 594.044 134.084   1
   2   6   1 586.450 77.6731   5
   2   6   1 680.992 77.1800  37
   2   6   1 598.559 141.777   7
   2   6   2 66.3595 53.6266  37
   2   6   2 146.966 70.3303  34
   2   6   2 133.122 71.4423   5
   2   6   2 132.030 64.0483   2
   2   6   2 147.687 57.8964   6
   2   6   2 134.845 103.388   1
   2   6   2 164.338 66.6894  10
   2   6   3 28800.3 1303.90  37
   2   6   3 30068.4 1318.85   5
   2   6   3 30913.1 1324.30  35
   2   6   3 29682.5 1320.68  34
   2   6   3 29805.0 1396.75   1
   2   6   3 30722.2 1319.19  10
   2   6   3 29686.4 1305.24  25
   2   6   3 30849.8 1299.74   2
   2   6   4 27.7136 52.7472  37
   2   6   4 48.7776 69.1476  35
   2   6   4 107.490 77.4829   5
   2   6   4 21.2965 56.3374  25
   2   6   5 1608.37 129.364   5
   2   6   5 1562.51 132.449  35
   2   6   5 1767.65 144.228  34
   2   6   5 1386.56 115.740  25
   2   6   6 18873.6 859.426  35
   2   6   6 18504.4 843.202  25
   2   6   6 19393.0 861.456  34
   2   6   7 575.745 98.5952  35
   2   6   7 582.003 107.758  34
   2   6   7 599.423 81.2814  25
   2   6   8 597.549 91.0723  35
   2   6   8 680.397 100.443  34
   2   6   8 700.637 78.8925  25
   2   6   9 209.664 65.4523  35
   2   6   9 189.143 71.8650  34
   2   6   9 184.508 70.3284  33
   2   6  10 20.6049 54.8518  35
   2   6  10 65.4699 59.8626  33
   2   7 -15 204.537 32.7924   4
   2   7 -15 194.501 33.9405  12
   2   7 -14 215.932 42.1503   3
   2   7 -14 257.180 55.5403  12
   2   7 -13 132.941 48.9278   3
   2   7 -13 63.9076 63.4595  13
   2   7 -13 85.1002 53.7476  12
   2   7 -12 540.387 67.6234  14
   2   7 -12 785.725 82.8964  12
   2   7 -11 5739.92 287.014  14
   2   7 -11 5838.96 295.326  12
   2   7 -10-5.23023 66.8855  14
   2   7 -10 47.5037 76.7536  13
   2   7 -10-23.4410 58.9644  12
   2   7  -9 890.372 96.4967  14
   2   7  -9 1081.09 106.669  13
   2   7  -9 864.899 92.8581  12
   2   7  -8 1921.19 140.102  31
   2   7  -8 2007.51 140.132  14
   2   7  -8 2074.00 140.619  13
   2   7  -8 1827.16 131.190  12
   2   7  -8 1724.83 128.514   6
   2   7  -7 4923.22 266.344  36
   2   7  -7 5062.35 259.082  31
   2   7  -7 4750.28 257.501  14
   2   7  -7 4903.80 254.584  13
   2   7  -7 4773.38 251.939   2
   2   7  -7 4901.72 251.550  12
   2   7  -7 4954.99 257.434   6
   2   7  -6 18820.0 847.155  36
   2   7  -6 18647.2 838.159  31
   2   7  -6 20741.4 1004.45   7
   2   7  -6 18365.7 841.574  14
   2   7  -6 18981.0 835.866  13
   2   7  -6 19325.4 960.388   1
   2   7  -6 18383.9 833.434  12
   2   7  -6 19209.9 841.275   2
   2   7  -6 19843.9 850.148   6
   2   7  -5-17.1624 64.5803  36
   2   7  -5-30.0498 50.8257  31
   2   7  -5-4.93297 70.3162   2
   2   7  -5 26.7285 49.0150   5
   2   7  -5 23.9435 63.7079   6
   2   7  -5 24.8291 102.346   7
   2   7  -5 15.9251 50.0243  13
   2   7  -5-11.4035 56.7649  35
   2   7  -5 40.4412 116.640   1
   2   7  -4 4.93181 46.5848   4
   2   7  -4 41.1642 105.343   1
   2   7  -4 61.9708 60.3373  36
   2   7  -4 39.6483 53.9228  35
   2   7  -4 24.7924 65.3072   2
   2   7  -4 38.2643 51.3856   5
   2   7  -4-46.4752 60.8362  14
   2   7  -4-24.8899 120.307   7
   2   7  -4 12.0397 60.1490   6
   2   7  -3 3121.38 179.737  35
   2   7  -3 3145.42 170.167   3
   2   7  -3 2912.27 169.680  14
   2   7  -3 3129.20 174.766   5
   2   7  -3 3272.92 171.375   4
   2   7  -3 2718.40 256.497   1
   2   7  -3 2851.72 176.465   2
   2   7  -2 2984.17 148.670   3
   2   7  -2 2597.65 158.219   5
   2   7  -2 2354.01 143.571  14
   2   7  -2 2175.79 253.159   7
   2   7  -2 2435.81 144.670   4
   2   7  -2 2411.08 161.974   6
   2   7  -2 2534.68 158.018  35
   2   7  -1 890.052 76.1654   3
   2   7  -1 936.760 84.7921  34
   2   7  -1 831.971 79.6193  33
   2   7  -1 882.173 90.1400   5
   2   7  -1 800.258 91.3299   2
   2   7  -1 877.658 89.5560  35
   2   7  -1 810.102 83.2165  10
   2   7  -1 843.640 76.5356  14
   2   7  -1 785.854 72.1480   4
   2   7  -1 946.578 171.335   7
   2   7  -1 737.039 152.316   1
   2   7  -1 722.885 88.4180   6
   2   7   0 9229.40 439.545  33
   2   7   0 9867.33 444.340  34
   2   7   0 9344.37 447.981  35
   2   7   0 10040.7 589.941   7
   2   7   0 9156.37 428.901   4
   2   7   0 9743.48 552.261   1
   2   7   0 9365.74 439.061   2
   2   7   0 9405.79 446.761   6
   2   7   0 9015.60 437.842  10
   2   7   1 8407.16 418.858  33
   2   7   1 9339.07 427.010  34
   2   7   1 8520.76 518.174   1
   2   7   1 9185.15 426.189   5
   2   7   1 8741.13 414.582   2
   2   7   1 8224.96 419.309   6
   2   7   1 9025.66 427.588  35
   2   7   1 8589.08 418.467  10
   2   7   2 389.643 76.7202   6
   2   7   2 575.363 83.1175   2
   2   7   2 393.653 91.3994  34
   2   7   2 561.665 93.4585   5
   2   7   2 498.813 87.5911  35
   2   7   2 454.343 89.1781  10
   2   7   3 2365.40 165.591   5
   2   7   3 2453.88 169.615  34
   2   7   4 158.990 81.6233   5
   2   7   5 2543.56 178.955  35
   2   7   5 2649.37 185.199  34
   2   7   6 3159.28 210.731  34
   2   7   6 3383.57 208.407  35
   2   7   7 1221.64 115.032  35
   2   7   7 1060.34 117.803  34
   2   7   8 1384.77 119.464  34
   2   7   8 1592.01 117.769  35
   2   7   9 31.9544 60.1426  33
   2   7   9 149.362 62.0003  35
   2   7  10 409.706 47.0758  33
   2   7  10 396.666 42.4416  35
   2   8 -14 584.646 47.5621   3
   2   8 -14 748.494 60.4093   4
   2   8 -14 773.801 59.9118  12
   2   8 -13 838.680 71.4556   3
   2   8 -13 877.773 75.6984  12
   2   8 -12 2523.31 147.560   3
   2   8 -12 2434.90 139.807  14
   2   8 -12 2552.92 153.142  13
   2   8 -12 2527.11 147.255  12
   2   8 -11 141.303 59.6337  14
   2   8 -11 115.603 75.0657  13
   2   8 -11 236.512 62.8923   3
   2   8 -11 253.152 65.0981  12
   2   8 -10 4786.82 259.194  15
   2   8 -10 5899.00 280.180  14
   2   8 -10 5623.86 282.874  13
   2   8 -10 5650.59 278.699  12
   2   8  -9-72.5407 67.7135  14
   2   8  -9 79.0085 74.4764  13
   2   8  -9 10.8646 58.7127  12
   2   8  -8 506.281 89.2702  14
   2   8  -8 751.630 89.1253  13
   2   8  -8 574.444 75.7081  12
   2   8  -8 577.839 82.2320   6
   2   8  -7 99.4769 67.6831   6
   2   8  -7 114.989 72.7997  14
   2   8  -7 45.6110 61.8811  13
   2   8  -7 72.6723 52.9395  12
   2   8  -6 1068.74 89.5663   5
   2   8  -6 935.147 106.235  36
   2   8  -6 804.473 87.2709  13
   2   8  -6 1042.54 106.124   2
   2   8  -6 896.505 82.6332  12
   2   8  -6 1007.03 96.5087   4
   2   8  -6 1098.62 108.788   6
   2   8  -5 133.235 75.4642  36
   2   8  -5 132.453 58.1487   4
   2   8  -5 113.714 59.9949  35
   2   8  -5 189.271 78.2489   2
   2   8  -5 80.7071 76.4991   6
   2   8  -5 87.6771 58.9064   5
   2   8  -5 107.236 67.8471  14
   2   8  -5 112.435 133.878   7
   2   8  -5 105.781 61.8076   3
   2   8  -4 15394.8 695.678   5
   2   8  -4 14644.3 699.722  35
   2   8  -4 15776.8 694.912   3
   2   8  -4 15095.7 692.503  14
   2   8  -4 15336.8 863.411   7
   2   8  -4 15968.7 834.755   1
   2   8  -4 15897.3 697.023   4
   2   8  -4 15419.5 698.258   2
   2   8  -4 15334.7 707.125   6
   2   8  -3 161.487 73.4733  36
   2   8  -3 174.142 67.1484  35
   2   8  -3 169.472 72.7429   2
   2   8  -3 260.466 57.9474   4
   2   8  -3 195.358 58.8694   3
   2   8  -3 128.896 71.7759   5
   2   8  -3 254.286 68.4446  14
   2   8  -3 205.505 84.1563   6
   2   8  -3 399.324 148.188   7
   2   8  -3 185.896 129.971   1
   2   8  -2 2003.84 143.483  36
   2   8  -2 2120.73 129.951   3
   2   8  -2 1799.74 125.185  14
   2   8  -2 2077.67 128.487   4
   2   8  -2 1737.00 240.462   7
   2   8  -2 1770.93 142.137   6
   2   8  -2 1960.54 142.159   5
   2   8  -2 1951.18 140.302  35
   2   8  -1 9164.85 438.944  36
   2   8  -1 9388.49 421.189   3
   2   8  -1 9125.81 440.399   5
   2   8  -1 9065.66 429.187  34
   2   8  -1 8483.30 416.550  14
   2   8  -1 9242.59 593.231   7
   2   8  -1 9173.15 424.745   4
   2   8  -1 9137.24 428.479  10
   2   8  -1 9183.00 435.827   2
   2   8  -1 9425.06 444.681   6
   2   8  -1 8968.02 439.751  35
   2   8   0 1310.87 115.862  35
   2   8   0 1173.32 110.505  34
   2   8   0 1155.51 101.781  33
   2   8   0 1061.92 114.128   6
   2   8   0 1147.34 93.0155   4
   2   8   0 1001.76 196.714   7
   2   8   0 1496.76 117.541   2
   2   8   0 1138.66 110.403  10
   2   8   1 14265.3 647.020  35
   2   8   1 13343.3 637.050  10
   2   8   1 14073.3 640.526  34
   2   8   1 13750.8 635.216  33
   2   8   1 13993.7 645.488   5
   2   8   1 13779.9 638.409   6
   2   8   2 4197.80 227.837  33
   2   8   2 3796.22 213.571  36
   2   8   2 3941.91 233.041   5
   2   8   2 4189.33 234.715  35
   2   8   2 3847.32 230.761  34
   2   8   2 3773.34 218.386   6
   2   8   3 13339.6 629.805   5
   2   8   3 13126.7 607.503  36
   2   8   3 13791.9 635.395  35
   2   8   3 12996.7 631.265  34
   2   8   3 14607.8 633.245  33
   2   8   4 2875.15 187.078   5
   2   8   4 2864.49 193.700  34
   2   8   4 2934.25 186.693  33
   2   8   5 1688.72 138.015  33
   2   8   6 219.056 80.3971  35
   2   8   6 108.477 73.0664  33
   2   8   6 304.117 91.9174  34
   2   8   7 532.760 81.9563  33
   2   8   7 541.173 78.7366  35
   2   8   7 538.711 89.1321  34
   2   8   8 449.016 70.8299  33
   2   8   8 329.670 63.6954  35
   2   8   9 3313.83 159.644  35
   2   9 -14 160.662 30.0054   4
   2   9 -13 1042.60 76.1763   3
   2   9 -13 1080.69 78.6230   4
   2   9 -13 1097.19 77.8703  12
   2   9 -12 200.170 50.2621  14
   2   9 -12 217.998 48.9269  12
   2   9 -11 772.267 80.1838   3
   2   9 -11 589.244 74.6887  14
   2   9 -11 647.322 71.0218  12
   2   9 -10 1080.32 97.5495   3
   2   9 -10 1158.28 104.798  14
   2   9 -10 1164.50 93.5459  12
   2   9  -9 1197.15 108.629   3
   2   9  -9 1136.54 110.875  14
   2   9  -9 1222.69 107.755   4
   2   9  -9 1245.90 98.4595  12
   2   9  -8 316.471 72.0777   4
   2   9  -8 323.324 82.7609  14
   2   9  -8 327.149 60.8340  12
   2   9  -8 285.450 76.1923   6
   2   9  -7 3200.53 187.794  14
   2   9  -7 3479.44 191.000   4
   2   9  -7 2869.60 168.256  12
   2   9  -7 2990.74 189.519   6
   2   9  -6 3189.48 185.477  36
   2   9  -6 2695.61 167.530   3
   2   9  -6 2409.33 163.038   4
   2   9  -6 2899.60 181.746   6
   2   9  -6 2441.34 156.037   5
   2   9  -5 1834.65 129.732   3
   2   9  -5 1526.41 122.905   5
   2   9  -5 1536.57 126.333  14
   2   9  -5 1427.04 227.816   7
   2   9  -5 1808.65 125.520   4
   2   9  -5 1942.01 146.754   6
   2   9  -5 1541.99 120.607  35
   2   9  -4-12.4390 60.8053  35
   2   9  -4 6.08975 68.7467   5
   2   9  -4 17.0888 61.3805   3
   2   9  -4 74.7395 70.8822  14
   2   9  -4-5.75990 55.8936   4
   2   9  -3 3115.56 202.473  36
   2   9  -3 3361.16 201.033  35
   2   9  -3 3676.42 194.834   3
   2   9  -3 3684.85 206.412   5
   2   9  -3 3576.25 195.065  14
   2   9  -3 2826.06 322.547   7
   2   9  -3 3570.32 194.465   4
   2   9  -3 2998.35 208.883   6
   2   9  -2 7631.71 388.380  36
   2   9  -2 7512.43 387.036  35
   2   9  -2 8287.14 394.205   5
   2   9  -2 7528.07 370.685  14
   2   9  -2 7639.58 549.065   7
   2   9  -2 8249.06 378.906   4
   2   9  -2 8218.81 400.053   6
   2   9  -1 805.897 103.660   6
   2   9  -1 654.407 91.8862  36
   2   9  -1 598.005 81.3603  34
   2   9  -1 764.963 95.8926  35
   2   9  -1 596.531 72.1457  14
   2   9  -1 664.273 172.777   7
   2   9  -1 729.288 74.4250   4
   2   9   0 99.3773 70.9932  36
   2   9   0 264.839 78.5315  35
   2   9   0 184.068 69.6266  34
   2   9   0 216.662 56.8045  33
   2   9   0 324.063 89.1684   5
   2   9   0 252.069 81.7621   6
   2   9   1 127.908 63.7959  36
   2   9   1 219.074 80.6422  35
   2   9   1 343.737 84.7494  34
   2   9   1 152.531 61.9800  33
   2   9   1 232.230 73.8306   6
   2   9   1 183.337 87.1863   5
   2   9   2 2975.75 166.442  36
   2   9   2 3062.55 195.238   5
   2   9   2 3051.22 190.275  34
   2   9   2 3038.22 191.134  35
   2   9   2 2729.23 173.252   6
   2   9   2 2936.92 177.801  33
   2   9   3 967.236 108.125   5
   2   9   3 975.416 111.507  34
   2   9   3 689.087 102.225  35
   2   9   3 973.306 101.518  33
   2   9   4 3415.23 204.375  34
   2   9   4 3362.45 195.282  33
   2   9   4 3260.98 200.574  35
   2   9   5 736.106 85.4242  33
   2   9   5 862.285 102.198  34
   2   9   5 648.427 92.7487  35
   2   9   6 383.670 67.0923  33
   2   9   7 51.6750 44.3526  33
   2  10 -13 388.232 43.6387   4
   2  10 -12 541.582 61.1224   3
   2  10 -11 270.382 57.4739   3
   2  10 -11 160.429 54.4634  14
   2  10 -10 313.602 64.0576   3
   2  10 -10 368.224 68.3970  14
   2  10  -9-31.8931 55.1433   3
   2  10  -9 24.1635 67.5559  14
   2  10  -9-16.0202 52.7853   4
   2  10  -8 2431.23 155.134  14
   2  10  -8 2485.26 151.643   4
   2  10  -8 2172.47 150.347   6
   2  10  -7 127.890 60.1212   4
   2  10  -7 234.764 67.9015   3
   2  10  -6 656.573 98.3109   6
   2  10  -6 507.651 76.5247   5
   2  10  -6 789.211 89.8646   3
   2  10  -6 620.999 90.2916  14
   2  10  -6 531.241 78.5677   4
   2  10  -5 22.6762 66.9628   5
   2  10  -5 84.9446 63.9409   3
   2  10  -5 16.1503 69.8924  14
   2  10  -5 86.2555 58.4773   4
   2  10  -5-5.14479 50.8696  35
   2  10  -5-21.3534 80.3611   6
   2  10  -4 12820.7 545.249  36
   2  10  -4 11636.7 530.275   3
   2  10  -4 10545.6 528.092  35
   2  10  -4 10536.7 534.481   5
   2  10  -4 11883.6 531.243  14
   2  10  -4 11727.8 531.585   4
   2  10  -3 1920.71 143.268  36
   2  10  -3 1641.56 129.025  35
   2  10  -3 1933.13 145.665   5
   2  10  -3 1858.28 128.025  14
   2  10  -3 1927.51 127.310   4
   2  10  -3 1712.62 147.431   6
   2  10  -2 138.004 73.6957  36
   2  10  -2 114.291 83.3027   5
   2  10  -2 7.15456 85.5077   6
   2  10  -2 138.695 53.1951   4
   2  10  -2 180.621 74.8502  35
   2  10  -1 353.635 76.2746  36
   2  10  -1 273.901 76.5199  35
   2  10  -1 389.241 90.8399   6
   2  10   0 1426.59 131.731   5
   2  10   0 1142.43 104.766  36
   2  10   0 1452.93 121.570  35
   2  10   0 1460.42 112.843  34
   2  10   0 1428.00 122.244   6
   2  10   1 2478.50 151.404  36
   2  10   1 2849.14 181.900   5
   2  10   1 2662.39 172.992  35
   2  10   1 2946.31 171.861  34
   2  10   1 2866.83 170.092   6
   2  10   2 5128.04 282.909  34
   2  10   2 5997.71 295.109   5
   2  10   2 5777.48 291.781  35
   2  10   3 1359.50 114.323   5
   2  10   3 1458.13 115.208  34
   2  10   3 1245.97 107.787  35
   2  10   4 163.739 67.9841  34
   2  10   4 222.815 64.8377  35
   2  10   5 599.400 75.2911  35
   2  10   6 199.258 46.4537  35
   2  11 -11 314.922 50.6272   3
   2  11 -10 180.879 55.3727   3
   2  11 -10 178.872 58.7739  14
   2  11 -10 87.3820 50.2343   4
   2  11  -9 1270.28 98.3947  14
   2  11  -9 1127.70 90.9701   4
   2  11  -8 153.037 64.9039  14
   2  11  -8 97.6621 58.8402   6
   2  11  -8 142.890 53.7401   4
   2  11  -7 2701.02 151.672   3
   2  11  -7 2601.36 150.483   4
   2  11  -6 1223.41 99.2089   5
   2  11  -6 1434.84 109.609  14
   2  11  -6 1380.88 103.926   4
   2  11  -6 1373.80 119.813   6
   2  11  -5 106.318 65.3558   5
   2  11  -5 289.876 70.1677  14
   2  11  -5 246.648 61.0890   4
   2  11  -4 933.139 98.8258   5
   2  11  -4 1050.12 87.4219   4
   2  11  -4 1028.53 111.555   6
   2  11  -3-5.85648 72.4261   5
   2  11  -3-32.2788 77.0148   6
   2  11  -3 46.2585 50.9035   4
   2  11  -3 27.7417 48.5967  35
   2  11  -2 1045.59 92.7154  35
   2  11  -2 1074.30 110.879   5
   2  11  -2 1135.36 111.987   6
   2  11  -1 138.853 58.3756  35
   2  11  -1 119.021 67.8319   6
   2  11   0-67.2058 71.1572   5
   2  11   0 48.4039 56.4376  35
   2  11   0 49.0370 62.8492   6
   2  11   1 477.594 81.1032   5
   2  11   1 380.072 66.1571  35
   2  11   2 772.966 84.6012   5
   2  11   2 739.274 76.3545  35
   2  11   3 20.5964 56.8998  35
   2  11   4-2.52540 37.9518  35
   2  12 -10 191.932 37.1066   4
   2  12  -9 384.269 49.0462   4
   2  12  -8 231.515 51.0443   4
   2  12  -7 851.804 72.5354   4
   2  12  -7 932.010 86.6657   6
   2  12  -6 545.225 59.7336   4
   2  12  -6 439.500 76.0283   6
   2  12  -5 3068.65 153.637   4
   2  12  -5 2528.16 153.057   5
   2  12  -4 171.394 63.1655   5
   2  12  -4 256.430 70.0708   6
   2  12  -3 225.504 68.7049   5
   2  12  -3 171.170 66.4886   6
   2  12  -2 99.3314 66.3007   5
   2  12  -2 45.0552 58.1861   6
   2  12  -1 824.915 80.9164   6
   2  12   0 2663.20 157.603   5
   2  13  -4 727.115 62.4827   5
   2  13  -3 629.911 60.2715   5
  -3  13  -3 370.417 42.7356   5
  -3  13  -4 12.5002 35.2814   5
  -3  13  -5 640.220 53.6679   5
  -3  12   2 896.424 65.3404  10
  -3  12   0 853.765 63.8592   5
  -3  12   0 917.539 75.2850  30
  -3  12   0 939.310 75.6349  10
  -3  12  -1 635.741 68.9746  10
  -3  12  -1 693.846 63.5396   5
  -3  12  -1 592.627 73.6243  30
  -3  12  -2 174.411 50.7065  10
  -3  12  -2 271.623 66.1469  30
  -3  12  -3 176.589 46.2939  10
  -3  12  -3 186.888 65.8229  30
  -3  12  -4 913.791 74.7095  11
  -3  12  -5 113.584 60.6249  30
  -3  12  -5 17.2484 43.3954  11
  -3  12  -6 118.821 57.9773  30
  -3  12  -6 111.404 46.3821  11
  -3  12  -7 234.885 52.3790  30
  -3  12  -7 291.095 46.4942  11
  -3  12  -8 114.067 36.6360  11
  -3  12  -9 1584.27 86.3685  11
  -3  11   4 276.565 45.2504  10
  -3  11   3 54.0389 51.1987  10
  -3  11   2 565.213 68.6083  10
  -3  11   1 881.124 69.2221   5
  -3  11   1 998.456 81.0373  30
  -3  11   0 1328.15 101.375  30
  -3  11   0 1226.04 97.0553  28
  -3  11  -1 987.679 94.0605  30
  -3  11  -1 877.992 83.2686  28
  -3  11  -2 1388.22 115.800  30
  -3  11  -2 1253.55 96.4375  28
  -3  11  -2 1517.55 101.964  11
  -3  11  -3 32.3291 42.8039  28
  -3  11  -3 14.1612 45.6886  11
  -3  11  -4 2420.23 144.993  11
  -3  11  -5 160.421 53.8253  11
  -3  11  -5 155.522 70.2634  30
  -3  11  -6 1989.21 134.711  30
  -3  11  -6 2111.14 129.371  11
  -3  11  -7 323.421 60.5920  30
  -3  11  -7 278.259 56.5194  11
  -3  11  -8 884.095 77.4184  11
  -3  11  -9 62.4541 42.6591  11
  -3  11 -10 160.671 37.3477  11
   3 -10  -6 5.61788 39.1070  27
  -3  10   5 3069.03 158.069  10
  -3  10   4 1224.96 86.4736  29
  -3  10   4 1272.91 92.7637  10
  -3  10   3 396.386 66.4484  10
  -3  10   3 241.332 53.1616  29
  -3  10   3 400.063 73.1332  28
  -3  10   2 1602.39 107.643  30
  -3  10   2 1441.71 97.6992  29
  -3  10   1 104.504 63.1537  30
  -3  10   1 141.027 67.2786  28
  -3  10   0 1246.06 114.024  30
  -3  10   0 1151.08 105.858  28
  -3  10  -1 663.752 89.8080  30
  -3  10  -1 728.340 86.0816  28
  -3  10  -1 632.574 77.7284  11
  -3  10  -2 2672.44 173.466  30
  -3  10  -2 2312.07 148.814  28
  -3  10  -2 2499.03 151.414  11
  -3  10  -3 777.284 99.9959  30
  -3  10  -3 778.185 81.0168  28
  -3  10  -3 912.166 86.2767  11
  -3  10  -4 767.558 74.5718  28
  -3  10  -4 864.620 88.0348  11
  -3  10  -5 142.343 73.3214  30
  -3  10  -5 45.4798 56.2960  11
  -3  10  -6 1455.59 118.136  30
  -3  10  -6 1421.61 109.698  11
  -3  10  -7 660.564 77.2996  11
  -3  10  -7 601.034 77.4996  30
  -3  10  -8 651.663 70.9255  15
  -3  10  -8 458.801 66.8920  11
  -3  10  -9 343.722 55.5830  15
  -3  10 -10 330.357 58.6906  11
  -3  10 -10 465.491 52.7641  15
  -3  10 -11 34.1597 35.7964  11
   3  -9  -7 353.484 57.3713  27
  -3   9   6 481.575 64.6076  29
  -3   9   6 344.339 55.2407  10
  -3   9   5 23.3004 51.7750  10
  -3   9   5 19.7969 51.9401  29
  -3   9   4 278.241 63.2128  10
  -3   9   4 146.745 60.5383  29
  -3   9   4 210.382 70.0406  28
  -3   9   3 4470.02 226.617  30
  -3   9   3 4296.55 225.871  29
  -3   9   3 4334.01 235.654  28
  -3   9   2 6081.03 301.183  30
  -3   9   2 5860.33 291.946  29
  -3   9   1 8883.26 412.040  30
  -3   9   1 7808.86 389.063  29
  -3   9   1 8768.82 405.907  28
  -3   9   0 971.824 154.966  18
  -3   9   0 1217.76 112.425  30
  -3   9   0 1105.64 169.526  16
  -3   9   0 979.104 84.4180  29
  -3   9   0 1123.09 105.480  28
  -3   9   0 1281.95 193.538   7
  -3   9   0 1112.91 96.7304  11
  -3   9  -1 1475.68 186.446  18
  -3   9  -1 1827.18 141.886  30
  -3   9  -1 1352.28 185.779  16
  -3   9  -1 1690.72 125.894  28
  -3   9  -1 1828.00 122.330  11
  -3   9  -2 1648.10 188.468  18
  -3   9  -2 1846.17 145.024  30
  -3   9  -2 1378.45 182.285  16
  -3   9  -2 1809.34 126.550  28
  -3   9  -2 1706.21 122.249  11
  -3   9  -3 1764.69 189.302  18
  -3   9  -3 1642.83 119.652  28
  -3   9  -3 1895.83 128.593  11
  -3   9  -4 3660.69 217.124  30
  -3   9  -4 3306.22 272.778  18
  -3   9  -4 3565.10 191.395  28
  -3   9  -4 3510.11 202.499  11
  -3   9  -5 93.5020 58.8315  11
  -3   9  -5 165.082 72.6319  30
  -3   9  -5 287.279 60.6337  15
  -3   9  -5 123.925 47.0211  28
  -3   9  -5 340.922 128.858   7
  -3   9  -6 268.242 74.6643  30
  -3   9  -6 498.177 73.9294  15
  -3   9  -7 889.833 92.5583  30
  -3   9  -7 905.502 89.4231  15
   3  -9   8 84.3064 65.1620  21
  -3   9  -8-4.62386 49.3698  30
  -3   9  -8-5.45475 51.5229  15
  -3   9  -9 39.5668 50.4743  15
   3  -9   9 25.1352 56.6078  21
   3  -9  10-40.1198 55.2526  21
  -3   9 -10 42.0359 44.7392  15
   3  -9  11-35.6479 48.9410  21
  -3   9 -11 87.3927 40.6957  15
  -3   9 -12 321.160 36.7752  15
   3  -9  12 397.518 48.0327  21
   3  -8  -8 576.054 74.7751  27
  -3   8   7 823.526 68.7751  10
  -3   8   6 3612.91 197.909  29
  -3   8   6 3676.33 191.228  10
  -3   8   5 189.177 66.4595  10
  -3   8   5 152.360 69.0207  29
  -3   8   5 217.336 71.3721  28
  -3   8   4 10.2320 65.5663  29
  -3   8   4-17.1563 66.6745  28
  -3   8   3 123.578 101.050  18
  -3   8   3 23.2741 101.756  16
  -3   8   3-65.2000 56.3634  30
  -3   8   3 46.3784 63.5771  29
  -3   8   3 29.3063 71.6374  28
  -3   8   2 4836.85 363.363  18
  -3   8   2 5632.27 278.258  30
  -3   8   2 4947.64 264.372  29
  -3   8   2 5256.21 274.928  28
  -3   8   1 3712.76 288.754  18
  -3   8   1 3518.77 297.399  16
  -3   8   1 3800.78 207.304  30
  -3   8   1 3188.98 185.136  29
  -3   8   1 3114.81 185.036  11
  -3   8   0 179.843 106.393  18
  -3   8   0 21.8242 98.9476  16
  -3   8   0 90.9517 71.6974  30
  -3   8   0 54.3498 56.3715  29
  -3   8   0 166.863 66.8223  28
  -3   8   0 47.9010 50.1863  11
  -3   8  -1 3549.83 207.919  30
  -3   8  -1 3113.03 177.913  29
  -3   8  -1 3581.43 197.100  28
  -3   8  -1 3506.07 192.316  11
  -3   8  -1 3397.73 279.129  18
  -3   8  -2 4887.67 330.381  18
  -3   8  -2 3977.57 244.942  30
  -3   8  -2 4505.47 235.424  28
  -3   8  -2 4405.73 233.627  11
  -3   8  -3 10369.3 577.042  18
  -3   8  -3 9852.13 468.291  28
  -3   8  -3 10189.4 475.223  11
  -3   8  -4 4342.51 329.155  18
  -3   8  -4 4875.24 256.021  30
  -3   8  -4 4531.21 240.334  15
  -3   8  -4 4299.02 231.943  28
   3  -8   5 12590.1 752.500   9
  -3   8  -5 12463.5 706.306   8
  -3   8  -5 12289.5 578.528  30
  -3   8  -5 12693.9 572.003  15
  -3   8  -5 11940.0 555.962  28
  -3   8  -5 12856.6 679.716  18
   3  -8   6 3278.16 343.879   9
  -3   8  -6 3125.76 276.351  18
  -3   8  -6 3295.45 197.105  30
  -3   8  -6 3121.22 301.361   8
  -3   8  -6 3634.41 197.181  15
  -3   8  -6 3239.94 287.998  17
  -3   8  -7 2002.85 221.110  17
  -3   8  -7 1767.57 131.711  30
  -3   8  -7 2110.09 137.254  15
  -3   8  -7 2163.31 239.043   8
  -3   8  -7 1452.54 196.463   7
   3  -8   7 1981.44 265.930   9
  -3   8  -8 3555.52 199.351  30
  -3   8  -8 4189.03 215.481  15
  -3   8  -9 22.1189 53.2611  15
  -3   8 -10 288.065 58.9191  15
  -3   8 -11 98.7815 42.9070  15
  -3   8 -12 11.0708 34.1496  15
   3  -8  13 76.8047 41.6094  21
   3  -7 -10 402.698 47.7083  27
   3  -7  -9 2989.51 162.999  27
  -3   7   8 236.557 61.4274  29
  -3   7   7 3.55404 48.6908  10
  -3   7   7 66.7094 65.6424  29
  -3   7   6 1221.32 100.162  28
  -3   7   6 1016.52 92.9740  10
  -3   7   5 49.0772 69.0753  29
  -3   7   5 123.463 65.8729  28
  -3   7   4 2381.30 248.858  16
  -3   7   4 2278.01 153.031  29
  -3   7   4 2368.56 155.474  28
  -3   7   3 7161.12 480.793  18
  -3   7   3 8909.64 519.485  16
  -3   7   3 8131.89 384.529  30
  -3   7   3 7633.81 381.241  29
  -3   7   3 8086.25 386.778  28
  -3   7   2 1923.65 219.569  18
  -3   7   2 2256.54 151.892  30
  -3   7   2 2085.98 142.217  29
  -3   7   2 2457.71 149.979  28
  -3   7   1 3376.97 278.245  18
  -3   7   1 3644.23 208.817  30
  -3   7   1 3451.22 189.466  11
  -3   7   0 3126.48 193.174  30
  -3   7   0 3006.47 182.867  28
  -3   7   0 3186.43 266.852  18
  -3   7   0 3191.63 175.296  11
  -3   7  -1 405.174 80.9271  30
  -3   7  -1 409.408 64.3812  11
  -3   7  -2 5637.31 365.131  18
   3  -7   2 4747.79 358.346  40
  -3   7  -2 5077.03 276.919  30
  -3   7  -2 5184.89 263.485  11
   3  -7   3 2600.43 289.082   9
  -3   7  -3 3338.69 262.254  18
  -3   7  -3 2967.32 186.858  30
  -3   7  -3 2970.77 170.737  15
  -3   7  -4 21.2382 101.088  17
   3  -7   4 17.8768 61.8161  21
   3  -7   4-59.2104 127.017   9
  -3   7  -4 53.1818 69.1876  30
  -3   7  -4-21.6628 49.9181  15
  -3   7  -4 65.9646 104.658   8
   3  -7   5 5186.48 420.980   9
  -3   7  -5 4914.38 367.936  17
  -3   7  -5 5289.25 273.993  30
  -3   7  -5 4778.89 367.867   8
  -3   7  -5 5048.26 262.656  15
   3  -7   6 980.121 205.090   9
  -3   7  -6 1293.18 186.812  17
  -3   7  -6 1128.36 105.657  30
  -3   7  -6 1269.06 100.651  15
  -3   7  -6 1009.08 167.817   8
   3  -7   7-32.6058 128.708   9
  -3   7  -7 70.4227 111.763  17
  -3   7  -7 77.7423 53.9514  30
  -3   7  -7 96.3108 54.6158  15
  -3   7  -7-24.2922 102.233   8
   3  -7   8 1991.35 274.091   9
  -3   7  -8 2171.37 244.809  17
  -3   7  -8 2629.91 158.085  15
  -3   7  -8 2214.89 249.245   8
  -3   7  -9 87.6627 57.8830  15
  -3   7 -10 1384.93 106.143  15
  -3   7 -11 724.434 72.2342  15
  -3   7 -12 181.545 42.3537  15
  -3   7 -13 352.436 37.5246  15
   3  -6 -11 570.867 49.5031  27
   3  -6 -10 1152.45 95.9992  27
  -3   6   9 1739.32 115.038  29
   3  -6  -9 1652.34 122.455  27
  -3   6   8 287.605 71.5815  29
  -3   6   7 13812.2 627.355  29
  -3   6   7 14776.4 624.849  28
  -3   6   7 13002.9 612.297  10
  -3   6   6 18487.5 999.415  16
  -3   6   6 20870.0 887.458  29
  -3   6   6 20238.6 883.031  28
  -3   6   5 167.979 101.748  18
  -3   6   5 152.930 108.992  16
  -3   6   5 179.513 61.4924  28
  -3   6   4 1443.13 116.785  29
  -3   6   4 1523.61 115.848  28
  -3   6   3-5.58627 53.3856  30
  -3   6   3 72.6109 62.0235  29
  -3   6   3-37.7766 63.5711  28
  -3   6   2 652.030 79.4727  28
  -3   6   2 590.233 64.8214  11
   3  -6  -1 14041.0 746.868  40
  -3   6   1 14397.7 639.856  11
  -3   6   0 2704.74 229.204  18
  -3   6   0 2457.47 140.543  11
   3  -6   0 2419.45 225.090  40
  -3   6  -1 5024.22 330.627  18
  -3   6  -1 4537.44 233.171  11
   3  -6   1 4771.64 334.769  40
   3  -6   2 3397.71 308.152   9
  -3   6  -2 3456.69 183.244  15
   3  -6   3 665.933 169.374   9
  -3   6  -3 619.507 129.394  17
  -3   6  -3 535.546 62.9875  15
  -3   6  -3 651.507 129.412   8
   3  -6   3 536.371 74.9537  21
  -3   6  -4 17864.5 888.706  17
   3  -6   4 17637.0 934.372   9
  -3   6  -4 17547.8 874.518   8
  -3   6  -4 16615.8 756.668  15
  -3   6  -5 1984.38 223.017  17
  -3   6  -5 2089.64 217.181   8
  -3   6  -5 1580.24 116.861  15
   3  -6   5 1907.66 243.093   9
  -3   6  -6 2525.14 259.534  17
  -3   6  -6 2489.96 159.108  30
  -3   6  -6 2677.72 257.686   8
  -3   6  -6 2830.62 162.204  15
   3  -6   6 2911.11 304.285   9
   3  -6   7 31.4782 124.251   9
  -3   6  -7 24.1978 105.818  17
  -3   6  -7 67.2169 50.7855  30
  -3   6  -7 45.9235 53.3973  15
  -3   6  -7 70.3335 102.526   8
   3  -6   8 3656.08 367.311   9
  -3   6  -8 3800.71 338.852  17
  -3   6  -8 4037.41 344.828   8
  -3   6  -8 4204.43 228.700  15
   3  -6   8 4457.53 232.244  23
   3  -6   9 1688.89 244.321   9
  -3   6  -9 1599.57 211.360  17
  -3   6  -9 1633.18 120.400  15
  -3   6  -9 1284.84 198.593   8
   3  -6   9 1597.68 124.271  23
  -3   6 -10 3204.68 180.960  15
   3  -6  10 2915.29 181.917  23
  -3   6 -11 9.47782 47.5173  15
   3  -6  11 15.6865 57.0269  23
  -3   6 -12 3924.44 202.561  15
   3  -6  12 4241.90 211.036  23
  -3   6 -13 477.302 45.9677  15
   3  -6  13 664.828 60.6162  23
   3  -6  14 190.493 40.8983  21
   3  -5 -11 402.317 63.4000  27
  -3   5  10 878.166 79.5038  29
   3  -5 -10 1069.15 96.6614  27
  -3   5   9 492.024 77.1492  29
  -3   5   8 1075.01 102.084  29
   3  -5  -7 73.7338 115.142  20
  -3   5   7 38.7024 83.0240  16
  -3   5   7-5.48188 65.0679  29
  -3   5   7-24.1774 55.9349  28
   3  -5  -7-81.8365 114.763  39
  -3   5   6 1422.02 186.063  16
  -3   5   6 1626.51 125.026  29
  -3   5   6 1612.22 117.012  28
   3  -5  -6 1715.90 236.732  39
  -3   5   5 5097.09 267.946  29
  -3   5   5 5186.83 264.805  28
  -3   5   5 5339.84 365.773  18
  -3   5   4 132.340 103.160  18
  -3   5   4 79.9445 56.3726  28
   3  -5  -4 80.4422 94.2877  40
   3  -5  -3 8258.13 517.509  40
  -3   5   3 8851.62 516.314  18
  -3   5   3 9331.43 425.625  28
  -3   5   2 318.471 97.7193  18
   3  -5  -2 359.138 108.794  40
  -3   5   1 792.997 129.126  18
   3  -5  -1 644.259 129.401  40
   3  -5   0 279.407 108.089  40
   3  -5   1 748.429 149.705  40
  -3   5  -2 17.0849 82.5938  17
   3  -5   2 46.7797 114.765   9
  -3   5  -2 45.5322 71.1183   8
   3  -5   3 4100.13 338.358   9
  -3   5  -3 4367.67 294.426   8
   3  -5   4-75.2870 123.125   9
  -3   5  -4 17.0326 39.5777  15
  -3   5  -4 33.6387 77.5151   8
  -3   5  -5 5751.13 364.164   8
  -3   5  -5 5272.84 258.192  15
   3  -5   5 4923.93 260.191  23
   3  -5   5 5350.44 403.777   9
   3  -5   6 8079.20 522.593   9
  -3   5  -6 7413.66 464.025   8
  -3   5  -6 7448.59 354.012  15
   3  -5   6 7173.78 359.226  23
  -3   5  -7 1714.65 215.140   8
   3  -5   7 2012.91 140.147  23
   3  -5   8 95.3595 136.378   9
  -3   5  -8-71.4682 107.947   8
   3  -5   8-6.67904 64.5722  23
   3  -5   9 162.296 147.083   9
  -3   5  -9-49.3008 95.0572   8
   3  -5   9-62.2085 70.2868  23
   3  -5  10 8713.85 428.066  23
   3  -5  11 178.185 72.9482  23
  -3   5 -12 145.512 43.8051  15
   3  -5  12 259.115 67.6024  23
   3  -5  13 1321.61 97.4002  23
   3  -4 -12 44.3684 50.0146  27
   3  -4 -11 11.9649 63.2295  27
  -3   4  10 41.4938 54.9032  29
   3  -4 -10 51.7798 72.5361  27
  -3   4   9 48.7936 62.0260  29
   3  -4  -8 5744.44 437.982  20
  -3   4   8 6573.22 313.930  29
   3  -4  -8 5483.78 445.303  39
  -3   4   7 1689.77 187.732  16
  -3   4   7 2024.67 134.236  29
  -3   4   7 1715.96 118.054  28
   3  -4  -7 1892.08 247.382  39
  -3   4   6 10.5469 57.3556  29
  -3   4   6 50.2698 53.5740  28
  -3   4   5 17171.7 840.924  18
  -3   4   5 16189.1 725.546  28
   3  -4  -5 15810.1 855.273  40
  -3   4   4 42061.4 1843.18  18
  -3   4   4 40572.2 1738.49  28
   3  -4  -4 37589.1 1858.04  40
  -3   4   3 19175.6 925.351  18
   3  -4  -3 18641.8 949.909  40
  -3   4   2 13223.7 671.096  18
   3  -4  -2 12750.7 689.915  40
  -3   4   1 16544.8 802.404  18
   3  -4  -1 15811.4 818.577  40
   3  -4   0 6620.75 414.995  40
  -3   4  -1 29439.6 1320.80  17
   3  -4   1 26987.5 1354.41   9
  -3   4  -2 557.557 120.082  17
  -3   4  -2 373.895 91.3918   8
   3  -4   2 396.651 120.490   9
   3  -4   3 216.233 112.658   9
  -3   4  -3 250.289 84.3554   8
  -3   4  -3 283.661 96.8370  17
  -3   4  -4 4794.34 330.131  17
   3  -4   4 4669.46 347.501   9
  -3   4  -4 4433.47 299.788   8
  -3   4  -5 36161.6 1607.93   8
   3  -4   5 34392.3 1509.57  23
  -3   4  -6 5954.91 382.112   8
   3  -4   6 5597.32 290.517  23
  -3   4  -7 933.412 155.898   8
   3  -4   7 899.095 99.0624  23
   3  -4   8 606.612 92.4170  23
   3  -4   9 3202.60 337.734   9
   3  -4   9 3416.14 211.065  23
   3  -4  10 5335.89 291.837  23
   3  -4  11 1746.63 138.404  23
   3  -4  12 2266.92 150.174  23
   3  -4  13 1513.58 109.328  23
   3  -4  14 296.936 44.8465  23
   3  -3 -13 148.086 43.4602  27
  -3   3  13 82.5229 34.2101  24
   3  -3 -12 176.638 68.6066  27
   3  -3 -12 30.8827 47.2554  22
  -3   3  11 160.246 50.3888  29
  -3   3  10 103.938 58.5796  29
  -3   3   9 970.589 91.5737  29
   3  -3  -8 351.123 137.612  20
  -3   3   8 372.271 73.9087  29
   3  -3  -8 342.374 146.823  39
  -3   3   7 6831.40 336.568  29
   3  -3  -7 7249.07 492.983  39
   3  -3  -6 1547.52 207.960  40
  -3   3   6 1534.74 175.651  18
  -3   3   6 1602.43 113.287  29
  -3   3   6 1395.22 101.853  28
  -3   3   5 2691.25 144.892  28
  -3   3   5 2435.06 216.412  18
  -3   3   4 235.877 85.3617  18
   3  -3  -4 99.8059 96.7669  40
  -3   3   3 57293.6 2545.27  18
   3  -3  -3 58344.1 2591.15  40
  -3   3   2 234.529 86.3093  18
   3  -3  -2 292.566 103.979  40
  -3   3   1 12916.4 623.319  18
   3  -3  -1 11214.9 635.195  40
  -3   3   0 712.077 118.215  17
   3  -3   0 1082.00 152.985  40
  -3   3  -1 766.986 115.847  17
  -3   3  -2 4661.17 302.952  17
  -3   3  -2 4477.98 268.222   8
  -3   3  -3 831.835 107.173   8
  -3   3  -4 4033.49 269.023   8
   3  -3   5 2066.40 227.465   9
  -3   3  -5 1976.23 185.339   8
   3  -3   5 1998.72 132.570  23
   3  -3   6 543.547 164.133   9
   3  -3   6 578.341 82.1279  23
   3  -3   7 623.171 161.438   9
   3  -3   7 576.216 72.6681  25
   3  -3   7 575.105 89.2896  23
   3  -3   8 87.5790 120.340   9
   3  -3   8-11.2574 61.5785  25
   3  -3   8 58.2860 69.9050  23
   3  -3   9 4810.20 411.613   9
   3  -3   9 4928.10 261.410  25
   3  -3   9 5034.36 277.842  23
   3  -3  10-60.4163 121.910   9
   3  -3  10 69.4693 63.3467  25
   3  -3  10 45.3327 76.3062  23
   3  -3  11-52.0296 62.0787  25
   3  -3  11 6.95044 73.7529  23
   3  -3  12 559.199 69.2868  25
   3  -3  12 675.292 91.1757  23
   3  -3  13 2924.35 166.297  23
   3  -3  14 464.203 53.7645  23
   3  -2 -13 397.677 48.4048  22
   3  -2 -12 744.364 76.2689  22
  -3   2  11 678.920 67.7254  29
  -3   2  10 568.078 71.6071  29
   3  -2 -10 525.253 97.7165  27
   3  -2  -9 3414.98 307.668  20
  -3   2   9 3040.02 174.867  29
   3  -2  -9 3009.69 194.326  27
   3  -2  -9 3797.58 336.590  39
   3  -2  -8-24.7150 121.262  20
  -3   2   8 19.1199 57.1726  29
   3  -2  -8 140.303 127.150  39
  -3   2   7 8271.47 387.738  29
   3  -2  -7 9110.46 554.664  39
   3  -2  -6 8715.47 563.799  40
  -3   2   6 9720.49 518.163  18
  -3   2   5 2417.08 202.641  18
   3  -2  -5 2366.35 243.209  40
  -3   2   4 2125.56 178.072  18
   3  -2  -4 1746.69 200.520  40
  -3   2   3 415.537 88.6451  18
   3  -2  -3 353.976 117.480  40
  -3   2   2 8845.95 459.614  18
   3  -2  -2 8311.10 494.139  40
   3  -2  -1 1018.13 147.987  40
  -3   2   0 18606.2 880.183  17
   3  -2   0 18722.6 923.021  40
   3  -2   1 4331.53 312.305   9
  -3   2  -1 4537.12 284.335  17
   3  -2   2 30453.7 1331.84   9
  -3   2  -2 27187.9 1243.49   8
   3  -2   3-34.3820 92.6210   9
  -3   2  -3 36.0394 53.0708   8
   3  -2   4 2786.81 244.990   9
  -3   2  -4 2721.86 201.631   8
   3  -2   5 3557.86 294.479   9
   3  -2   5 3645.98 200.342  23
   3  -2   6 12283.6 568.186  25
   3  -2   6 12546.5 579.663  23
   3  -2   6 13273.9 712.798   9
  -3   2  -7 316.106 106.497  19
   3  -2   7 178.604 121.779   9
   3  -2   7 181.363 63.9063  25
   3  -2   7 224.804 75.2781  23
   3  -2   8 427.069 80.2054  25
   3  -2   8 377.757 86.5189  23
   3  -2   9 4913.83 406.590   9
   3  -2   9 4914.81 263.586  25
   3  -2   9 4767.01 273.815  23
   3  -2  10 305.513 78.6651  25
   3  -2  10 427.033 94.1693  23
   3  -2  11 579.517 85.0430  25
   3  -2  11 521.247 95.3520  23
   3  -2  12 188.579 61.5534  25
   3  -2  12 57.3773 67.2893  23
   3  -2  13 5722.81 273.477  25
   3  -2  13 5983.07 285.857  23
   3  -1 -13 3174.09 166.774  27
   3  -1 -13 2882.42 156.087  22
   3  -1 -12 27.4675 68.2718  27
   3  -1 -12 41.3167 59.2198  22
   3  -1 -11 7444.47 365.597  27
  -3   1  10 43.8622 50.3442  29
   3  -1 -10 145.605 80.8851  27
   3  -1  -9 3103.71 296.755  20
   3  -1  -9 2969.21 172.335  31
  -3   1   9 2834.00 165.451  29
   3  -1  -9 3348.83 193.816  27
  -3   1   8 986.449 87.4193  29
  -3   1   7 1042.96 88.4674  29
   3  -1  -7 1100.39 192.380  40
   3  -1  -7 1098.35 93.9397  38
   3  -1  -6 22.9393 110.897  40
   3  -1  -6 31.8168 52.0586  38
  -3   1   6-147.167 73.8464  18
  -3   1   5 1317.33 140.430  18
   3  -1  -5 1649.41 192.497  40
  -3   1   4 21570.6 1002.60  18
   3  -1  -4 21815.4 1065.71  40
  -3   1   3 12391.8 612.179  18
   3  -1  -3 12819.2 670.682  40
  -3   1   2 18286.0 852.519  18
   3  -1  -2 18139.5 898.349  40
  -3   1   1 348.491 80.1621  17
   3  -1  -1 332.691 111.860  40
  -3   1   0 9100.02 474.191  17
   3  -1   0 9750.19 513.559   9
   3  -1   1 12231.1 636.823   9
  -3   1  -1 12420.0 611.871  17
   3  -1   2 103.617 90.7770   9
   3  -1   3 30028.7 1393.48   9
   3  -1   4 17259.1 865.919   9
   3  -1   5 488.028 70.1090  25
   3  -1   5 443.911 72.2549  23
   3  -1   6 14058.1 736.132   9
   3  -1   6 13093.2 606.519  25
   3  -1   6 13328.0 615.289  23
   3  -1   7 12156.2 703.490   9
   3  -1   7 12575.7 575.216  25
   3  -1   7 12205.8 582.135  23
   3  -1   8-26.2560 123.020   9
   3  -1   8 79.6844 67.3108  25
   3  -1   9 7706.65 548.097   9
   3  -1   9 8653.43 418.916  25
   3  -1  10 107.287 75.8298  25
   3  -1  11 495.814 83.6854  25
   3  -1  12 166.014 63.2368  25
   3  -1  13 113.175 53.7381  25
   3  -1  13 198.320 60.5693  23
   3   0 -14 374.228 50.4878  27
  -3   0  14 260.815 34.0714  24
   3   0 -14 339.622 40.6950  22
   3   0 -13 33.3123 61.2668  27
   3   0 -13-16.3269 52.7068  22
   3   0 -12 4986.12 252.866  27
   3   0 -12 4722.80 249.253  22
   3   0 -11-21.5357 56.2606  31
   3   0 -11 33.6853 76.6079  27
   3   0 -10 10851.5 508.549  31
   3   0 -10 11277.4 521.226  27
   3   0 -10 11117.2 683.700  39
   3   0  -9 29109.0 1266.58  31
   3   0  -9 28745.0 1272.54  27
   3   0  -9 29609.7 1445.60  39
   3   0  -8 2979.04 277.079  20
   3   0  -8 2642.17 172.125  27
   3   0  -8 2716.03 282.087  39
   3   0  -8 2853.79 169.945  38
   3   0  -7 15375.3 781.669  20
   3   0  -7 14569.2 657.993  38
   3   0  -7 14232.4 800.649  40
   3   0  -7 13963.9 787.195  39
   3   0  -6 603.789 74.3981  38
   3   0  -6 401.640 137.432  40
  -3   0   5 8495.72 444.677  18
   3   0  -5 8845.76 517.926  40
  -3   0   4 118.943 59.8473  18
   3   0  -4 125.217 96.5082  40
  -3   0   3 2232.01 160.931  18
  -3   0   2 5702.20 310.949  18
  -3   0   1 2051.03 149.851  17
  -3   0   0 3578.98 227.338  17
   3   0   0 4211.93 280.579  40
   3   0   1 7329.82 411.539   9
   3   0   2 3106.16 228.452   9
   3   0   3 439.507 108.942   9
   3   0   4 3558.18 263.047   9
   3   0   5 413.083 110.718   9
   3   0   5 242.575 62.8869  25
   3   0   5 313.033 62.2437  33
   3   0   6 24541.7 1128.80   9
   3   0   6 21926.6 999.729  33
   3   0   6 22736.8 1003.93  25
   3   0   6 22833.6 1009.26  23
   3   0   7 782.259 94.2538  33
   3   0   7 791.006 151.706   9
   3   0   7 679.504 94.8477  25
   3   0   7 723.075 93.9581  23
   3   0   8 35703.5 1725.41   9
   3   0   8 36210.8 1581.21  33
   3   0   8 36549.2 1591.14  25
   3   0   8 36552.6 1594.40  23
   3   0   9 3451.12 208.491  25
   3   0   9 3586.08 211.919  23
   3   0  10 143.304 77.0042  25
   3   0  10 107.003 84.4137  23
   3   0  11 2218.64 153.313  25
   3   0  11 2409.03 158.251  23
   3   0  12 201.682 62.0586  25
   3   0  12 247.638 66.3343  23
   3   0  13 69.8733 43.9987  25
   3   0  13 120.365 46.1118  23
   3   1 -14 79.3284 47.3834  27
   3   1 -14 7.22474 36.3337  13
   3   1 -14 15.1637 43.1099  22
   3   1 -13 93.3012 61.7064  27
   3   1 -13 55.5528 56.6049  22
   3   1 -12 98.3698 69.8368  27
   3   1 -12 74.2691 70.0537  22
   3   1 -11 438.107 77.6841  31
   3   1 -11 712.435 95.3965  27
   3   1 -10 6749.41 344.189  31
   3   1 -10 7604.60 493.315  20
   3   1 -10 7159.61 350.195  27
   3   1 -10 6815.28 494.346  39
   3   1  -9 3522.48 205.276  31
   3   1  -9 3602.72 205.549  27
   3   1  -9 4289.64 338.339  20
   3   1  -9 3530.16 324.027  39
   3   1  -8 9071.18 549.903  20
   3   1  -8 9127.62 428.846  27
   3   1  -8 8936.74 564.548  39
   3   1  -8 9042.51 434.262  38
   3   1  -7 12428.7 572.712  38
   3   1  -7 13669.1 688.321  20
   3   1  -7 12385.1 565.069  27
   3   1  -7 11837.2 703.819  40
   3   1  -7 12502.6 693.529  39
   3   1  -6 119.056 61.3204  38
   3   1  -6 34.1581 94.3101  20
  -3  -1   5 6285.61 329.858  18
  -3  -1   4 21133.8 922.787  18
   3   1  -4 18828.2 997.020  40
  -3  -1   3 2297.92 151.906  18
   3   1  -3 2284.70 213.695  40
   3   1  -2 11605.5 607.177  40
   3   1  -1 4159.39 280.020  40
  -3  -1   1 4151.65 227.360  17
  -3  -1   0 1441.71 117.908  17
   3   1   0 1294.44 153.583  40
   3   1   1 11072.7 557.008   9
   3   1   2 30109.9 1364.93   9
   3   1   3 11640.4 590.814   9
   3   1   4 3645.64 259.392   9
   3   1   4 3680.03 199.129  25
   3   1   4 3642.02 200.592  23
   3   1   5 34.8607 57.7886  33
   3   1   5 131.226 84.0574   9
   3   1   5 147.878 62.3537  25
   3   1   5 109.251 59.2051  23
   3   1   6 3161.79 254.975   9
   3   1   6 2633.98 170.362  33
   3   1   6 2719.27 171.413  25
   3   1   6 2714.43 174.535  23
   3   1   7 1400.94 124.311  33
   3   1   7 1530.68 188.177   9
   3   1   7 1361.08 123.786  25
   3   1   7 1453.99 124.807  23
   3   1   8 919.696 101.764  33
   3   1   8 1024.70 112.232  25
   3   1   8 990.950 107.896  23
   3   1   9 284.268 73.9666  33
   3   1   9 304.056 86.3735  25
   3   1   9 406.419 86.3623  23
   3   1  10 8663.28 445.464  33
   3   1  10 9946.90 440.786  37
   3   1  10 9868.78 463.901  25
   3   1  10 9902.60 461.902  23
   3   1  11 263.064 74.4708  25
   3   1  11 326.666 69.1013  23
   3   1  12 3106.15 171.669  25
   3   1  12 3081.60 166.284  23
   3   2 -14 7602.35 339.837  27
   3   2 -14 7149.37 335.616  13
   3   2 -14 7557.41 337.794  22
   3   2 -13 1875.90 120.628  27
   3   2 -13 1736.25 119.325  22
   3   2 -12 1053.62 96.1885  31
   3   2 -12 968.129 96.9059  27
   3   2 -12 951.084 100.999  22
   3   2 -11-16.2793 70.7483  31
   3   2 -11 54.0314 70.1509  27
   3   2 -11 48.3336 52.3033  14
   3   2 -11 41.2193 80.0570  22
   3   2 -10 9769.24 468.404  31
   3   2 -10 10087.7 467.842  27
   3   2 -10 9798.95 459.902  14
   3   2 -10 10300.0 614.223  20
   3   2  -9 2393.72 164.119  31
   3   2  -9 2409.48 156.413  27
   3   2  -9 3011.56 283.783  39
   3   2  -9 3027.83 276.214  20
   3   2  -8 326.764 85.9817  38
   3   2  -8 401.832 131.771  20
   3   2  -8 367.330 72.4046  27
   3   2  -8 614.307 142.900  39
   3   2  -7 11753.5 552.324  38
   3   2  -7 13477.9 664.030  20
   3   2  -7 11862.3 538.888  27
   3   2  -7 11605.5 656.669  39
   3   2  -6 2346.72 209.476  20
   3   2  -6 2434.68 145.685  38
   3   2  -6 1973.27 225.593  40
   3   2  -6 1819.09 204.942  39
   3   2  -5 3979.65 280.970  20
   3   2  -5 4799.86 325.322  40
   3   2  -4 269.314 109.416  40
   3   2  -4 285.307 90.3295  20
   3   2  -3 43123.3 1943.93  40
  -3  -2   2 713.084 75.4296  18
   3   2  -2 734.370 119.105  40
   3   2  -1 8756.43 472.861  40
   3   2   0 7904.22 427.251  40
  -3  -2   0 7300.90 366.826  17
   3   2   1 10444.7 548.961  40
   3   2   2 3537.24 222.552   9
   3   2   3 534.517 89.6089   9
   3   2   4 4256.69 223.706  35
   3   2   4 4383.21 234.621  33
   3   2   4 3970.77 269.898   9
   3   2   4 4370.31 232.605  25
   3   2   4 4545.25 231.829  23
   3   2   5 7159.96 362.128  33
   3   2   5 7233.04 349.788  35
   3   2   5 7562.22 361.818  25
   3   2   5 6380.10 405.152   1
   3   2   5 7470.76 357.310  23
   3   2   6 12325.0 568.039  35
   3   2   6 11860.9 578.817  33
   3   2   6 12335.4 578.209  25
   3   2   6 12831.3 577.060  23
   3   2   7 171.985 59.6916  35
   3   2   7 216.566 80.6600  33
   3   2   7 78.9736 70.5411  25
   3   2   7 215.321 73.0661  23
   3   2   8 3262.70 185.843  35
   3   2   8 3371.46 204.323  33
   3   2   8 3202.39 204.794  25
   3   2   8 3140.19 197.767  23
   3   2   9 131.552 77.0897  33
   3   2   9 210.744 60.2343  37
   3   2   9 84.6886 82.4426  25
   3   2   9 281.375 73.4100  23
   3   2  10 130.991 76.0750  25
   3   2  10 96.6643 63.9237  33
   3   2  10-54.3971 60.3979  23
   3   2  11 1643.37 110.221  33
   3   2  11 1955.65 130.482  25
   3   2  11 2004.04 119.390  23
   3   3 -14 647.658 70.2689  27
   3   3 -14 613.235 69.9306  13
   3   3 -13 1356.39 97.7688  27
   3   3 -13 1079.27 97.0578  13
   3   3 -13 1286.26 100.034  22
   3   3 -12 25.2478 65.9675  31
   3   3 -12 36.7980 63.2504  27
   3   3 -12 15.5916 70.5208  22
   3   3 -11 1131.63 112.124  31
   3   3 -11 1067.95 90.2779  14
   3   3 -11 913.281 96.4189  27
   3   3 -11 1049.07 111.193  22
   3   3 -10 3152.27 195.338  31
   3   3 -10 3276.90 187.226  27
   3   3 -10 3196.77 184.318  14
   3   3 -10 3155.65 196.771  22
   3   3 -10 3301.25 304.436  20
   3   3  -9 23.7306 72.0335  31
   3   3  -9 68.7679 61.7665  27
   3   3  -9 5.31237 64.5111  14
   3   3  -8-6.26824 72.6993  38
   3   3  -8-20.4923 104.881  20
   3   3  -8 48.6729 59.5695  27
   3   3  -8-106.528 101.409  39
   3   3  -7 373.391 110.793  20
   3   3  -7 516.874 80.7807  38
   3   3  -7 534.756 119.896  39
   3   3  -6 150.811 95.0015  20
   3   3  -6 74.6221 60.4049  38
   3   3  -6-41.9796 101.495  40
   3   3  -6 110.397 88.0681  39
   3   3  -5 4151.05 266.676  20
   3   3  -5 4254.30 306.758  40
   3   3  -5 3980.02 273.220  39
   3   3  -4 2831.23 201.534  20
   3   3  -4 3295.13 246.231  40
   3   3  -4 2809.74 206.068  39
   3   3  -3 12569.8 612.678  20
   3   3  -3 14257.0 679.064  40
   3   3  -2-13.6318 72.5443  40
   3   3  -1 694.718 107.630  40
   3   3   0 11328.2 573.120  40
   3   3   1 426.668 90.4333  40
   3   3   2 29305.5 1335.87  40
   3   3   2 29855.0 1280.33  33
   3   3   2 28760.5 1272.93  25
   3   3   3 31.4780 50.5797  35
   3   3   3 47.4183 67.8755  34
   3   3   3 72.3503 63.4062  33
   3   3   3 43.1692 55.6584  25
   3   3   3 86.3639 49.1703  23
   3   3   4 3057.88 179.401  35
   3   3   4 2660.40 185.347  34
   3   3   4 3128.04 189.347  33
   3   3   4 2605.46 236.868   1
   3   3   4 3225.77 183.934  25
   3   3   4 3386.08 178.761  23
   3   3   5 2049.59 163.924  34
   3   3   5 2279.88 154.943  35
   3   3   5 2673.08 169.889  33
   3   3   5 2452.97 161.124  25
   3   3   5 2404.90 153.518  23
   3   3   6 6041.27 316.967  34
   3   3   6 5418.87 299.382  35
   3   3   6 6233.26 303.035  37
   3   3   6 5939.23 314.943  33
   3   3   6 5918.55 310.163  25
   3   3   6 5817.16 300.940  23
   3   3   7 360.229 73.7032  37
   3   3   7 454.951 79.3713  35
   3   3   7 419.624 90.4347  33
   3   3   7 441.415 77.2770  23
   3   3   8 2383.54 160.881  35
   3   3   8 2731.04 156.148  37
   3   3   8 2422.92 160.858  23
   3   3   9 217.270 64.3510  35
   3   3   9 375.919 82.9426  33
   3   3   9 259.416 64.8594  23
   3   3  10-55.7298 61.6719  33
   3   3  11 18.8358 43.6506  33
   3   4 -14 974.836 79.6843  13
   3   4 -13 3164.64 170.122  27
   3   4 -13 3306.69 179.113  13
   3   4 -13 3359.44 181.422  22
   3   4 -12 1634.99 109.876  14
   3   4 -12 1836.08 122.435  27
   3   4 -12 1982.92 133.088  22
   3   4 -11 10549.5 492.968  31
   3   4 -11 10341.0 478.321  14
   3   4 -11 10103.8 479.434  27
   3   4 -11 10721.6 494.279  22
   3   4 -10 4418.20 246.763  31
   3   4 -10 4526.69 232.757  27
   3   4 -10 4448.01 237.245  14
   3   4 -10 4153.13 347.398  20
   3   4  -9 3741.17 205.984  31
   3   4  -9 3298.24 185.642  27
   3   4  -9 3390.82 196.010  14
   3   4  -9 3269.73 200.749  22
   3   4  -9 3514.61 300.745  20
   3   4  -8 2597.41 160.629  14
   3   4  -8 2593.62 164.176  22
   3   4  -8 2480.51 237.606  20
   3   4  -8 2090.58 161.579  38
   3   4  -7 2670.12 249.470   1
   3   4  -7 2535.27 160.003  14
   3   4  -7 2545.54 163.008  22
   3   4  -7 2847.13 235.850  20
   3   4  -6 32914.2 1449.12  38
   3   4  -6 33180.8 1438.54  36
   3   4  -6 35195.9 1559.35   1
   3   4  -6 33436.5 1441.79  22
   3   4  -6 32510.3 1512.96  39
   3   4  -6 33656.8 1521.72  20
   3   4  -5 10036.1 459.536  38
   3   4  -5 9599.63 459.409  32
   3   4  -5 10157.7 452.730  26
   3   4  -5 10661.3 566.231   1
   3   4  -5 9488.42 446.689  22
   3   4  -5 9233.13 544.474  40
   3   4  -5 9632.16 502.691  20
   3   4  -4 1268.96 102.782  38
   3   4  -4 1076.51 147.197  40
   3   4  -4 1427.18 104.685  26
   3   4  -4 1198.47 98.9814  32
   3   4  -3 510.618 72.9171  35
   3   4  -3 650.011 79.3431   6
   3   4  -3 452.600 102.209  40
   3   4  -2 18481.9 879.982  40
   3   4  -1 9500.87 490.531  40
   3   4   0 26133.5 1255.49  40
   3   4   0 28740.1 1221.43  33
   3   4   0 27557.3 1213.29  37
   3   4   0 28285.0 1218.83   5
   3   4   0 28819.6 1221.85  35
   3   4   0 26701.1 1212.65  26
   3   4   0 28704.0 1220.46   6
   3   4   1 17633.0 787.380   5
   3   4   1 17793.2 787.976  35
   3   4   1 18092.9 788.870  34
   3   4   1 17992.9 790.968  33
   3   4   1 16645.5 777.630  26
   3   4   2 18711.2 833.082   5
   3   4   2 18867.2 827.118  37
   3   4   2 18156.3 830.519  35
   3   4   2 18450.3 927.808   1
   3   4   3 35253.2 1528.88  37
   3   4   3 36571.7 1536.44  35
   3   4   3 35118.3 1538.90  34
   3   4   3 33159.0 1619.59   1
   3   4   3 35533.9 1532.52  25
   3   4   3 34625.8 1520.78  23
   3   4   4 7458.90 360.527  37
   3   4   4 6704.17 429.792   1
   3   4   4 7646.74 367.546  35
   3   4   4 7130.02 371.889  34
   3   4   4 7193.53 372.153  33
   3   4   4 7312.40 364.224  25
   3   4   4 7403.89 351.753  23
   3   4   5 434.190 80.4599  37
   3   4   5 417.616 81.7228  35
   3   4   5 362.808 93.6655  34
   3   4   5 405.489 91.8240  33
   3   4   5 497.708 86.7445  25
   3   4   5 511.121 72.8547  23
   3   4   6 1102.42 103.845  37
   3   4   6 1315.73 119.101  35
   3   4   6 1257.01 130.673  34
   3   4   6 1402.78 130.144  33
   3   4   6 1256.29 119.447  25
   3   4   6 1030.54 97.5375  23
   3   4   7 6324.96 309.431  37
   3   4   7 6698.16 327.891  35
   3   4   7 6522.48 338.065  33
   3   4   7 6101.22 327.241  25
   3   4   7 6026.56 308.056  23
   3   4   8 220.770 88.2819  33
   3   4   8 255.529 76.2234  35
   3   4   8 248.049 81.9523  25
   3   4   8 257.218 56.0118  23
   3   4   9 57.3879 54.0249  35
   3   4   9-5.98053 67.7303  33
   3   4   9 89.6799 67.8834  25
   3   4  10 226.918 48.1169  35
   3   4  10 306.039 64.9188  33
   3   4  11 9.34187 36.6074  33
   3   5 -14 793.976 72.3734  13
   3   5 -14 917.303 69.7802  12
   3   5 -13 150.947 62.6724  13
   3   5 -12 69.9549 50.4282  14
   3   5 -12 132.798 72.0741  13
   3   5 -12 189.392 75.1668  22
   3   5 -11 2556.68 165.761  31
   3   5 -11 2431.36 149.357  14
   3   5 -11 2259.79 140.894  27
   3   5 -10 152.316 108.327  20
   3   5 -10 80.1857 78.8968  31
   3   5 -10-38.2786 54.6505  27
   3   5 -10 99.6501 64.2747  14
   3   5  -9 2993.57 182.992  14
   3   5  -9 3087.91 189.243  22
   3   5  -9 2972.94 265.578  20
   3   5  -8-5.88501 71.9466  31
   3   5  -8 67.3191 68.0963  14
   3   5  -8 92.7967 93.7103  20
   3   5  -8 22.6362 69.5126  22
   3   5  -7 2715.07 256.030   1
   3   5  -7 2652.93 163.206  36
   3   5  -7 2914.00 165.955   2
   3   5  -7 2647.67 171.665  31
   3   5  -7 2977.85 174.623  14
   3   5  -7 2941.55 171.465  22
   3   5  -7 2896.17 181.161  38
   3   5  -6 926.565 104.160  38
   3   5  -6 795.555 87.4401  36
   3   5  -6 875.996 91.2908  31
   3   5  -6 1051.97 176.628   1
   3   5  -6 924.767 93.9436  14
   3   5  -6 840.953 88.0937  22
   3   5  -5 306.115 71.1271  38
   3   5  -5 346.183 67.9176  36
   3   5  -5 287.960 71.0974  35
   3   5  -5 377.919 69.8468  32
   3   5  -5 322.448 68.1024  14
   3   5  -5 468.034 138.863   1
   3   5  -5 393.679 64.6429  22
   3   5  -5 465.556 79.4245   6
   3   5  -4 1376.70 187.116   1
   3   5  -4 1149.88 100.955  32
   3   5  -4 1255.68 101.002  14
   3   5  -4 1394.53 114.107   6
   3   5  -4 1465.39 106.372  38
   3   5  -3-4.65194 54.5204  38
   3   5  -3 33.6299 55.4281  37
   3   5  -3-36.9115 51.6518   5
   3   5  -3-26.3100 51.4451  32
   3   5  -3-12.3388 52.9402  40
   3   5  -3-41.2950 98.2773   1
   3   5  -3 4.17755 48.9612  14
   3   5  -3-35.0254 63.0948   6
   3   5  -2 4617.95 240.417  37
   3   5  -2 4488.80 239.228   5
   3   5  -2 4631.94 246.581  35
   3   5  -2 5192.95 245.291  32
   3   5  -2 4424.63 229.216  14
   3   5  -2 4149.97 333.862   1
   3   5  -2 4658.93 248.889   6
   3   5  -1 1327.77 109.038   5
   3   5  -1 1508.42 114.596  35
   3   5  -1 1390.88 108.639  33
   3   5  -1 1334.98 107.260  37
   3   5  -1 1412.37 116.291   6
   3   5   0 2714.62 175.593   5
   3   5   0 3154.53 181.059  35
   3   5   0 3017.61 176.969  33
   3   5   0 2873.03 262.357   1
   3   5   0 3060.74 178.983   6
   3   5   1 1506.86 115.118  37
   3   5   1 1391.21 112.834  35
   3   5   1 1272.35 115.733  34
   3   5   1 1293.57 113.867  33
   3   5   1 1088.20 177.926   1
   3   5   2 2490.67 167.132   5
   3   5   2 2677.69 163.377  37
   3   5   2 2539.66 167.139  35
   3   5   2 2553.00 242.696   1
   3   5   2 2473.15 172.450  34
   3   5   2 2434.35 167.852  33
   3   5   3 1346.93 106.833   2
   3   5   3 1372.86 122.731  35
   3   5   3 1353.98 116.350  37
   3   5   3 1397.80 185.528   1
   3   5   4 3051.40 184.487  37
   3   5   4 3338.83 200.173  35
   3   5   4 3129.71 207.740  34
   3   5   5 3704.27 203.527  37
   3   5   5 3287.27 211.098  35
   3   5   5 3689.98 226.875  34
   3   5   5 3481.10 221.965  33
   3   5   5 3623.08 210.075  25
   3   5   6 363.499 69.8198  37
   3   5   6 551.810 88.5581  35
   3   5   6 461.618 103.489  34
   3   5   6 474.342 105.276  33
   3   5   6 384.290 84.8494  25
   3   5   7 246.906 54.0936  37
   3   5   7 306.489 83.3287  35
   3   5   7 252.304 94.8598  33
   3   5   7 205.622 74.6965  25
   3   5   8 1837.92 131.949  35
   3   5   8 1803.25 140.299  33
   3   5   9 272.428 59.8300  35
   3   5   9 360.256 74.2062  33
   3   5  10 512.580 54.9964  35
   3   5  10 620.536 67.5833  33
   3   6 -14 851.548 64.8294   3
   3   6 -14 1054.68 68.6678  12
   3   6 -13 2398.00 134.060  12
   3   6 -12-10.3333 49.7999  14
   3   6 -12 89.1842 53.7397  12
   3   6 -11 2603.70 156.585  14
   3   6 -11 2720.66 168.280  13
   3   6 -10 4967.94 265.048  14
   3   6 -10 5033.73 267.491  13
   3   6 -10 5303.44 273.201  22
   3   6  -9 2595.19 160.167  14
   3   6  -9 2533.25 160.668  22
   3   6  -8 1212.88 111.088  31
   3   6  -8 1130.89 109.704  14
   3   6  -8 1133.95 112.226  22
   3   6  -7 1528.54 121.662  36
   3   6  -7 1547.95 208.686   1
   3   6  -7 1610.45 124.778  31
   3   6  -7 1633.68 127.749  14
   3   6  -7 1719.43 123.754  22
   3   6  -7 1768.66 123.583   2
   3   6  -6-75.2550 71.0865  38
   3   6  -6 5.64960 67.0578  36
   3   6  -6-76.3928 64.9876  31
   3   6  -6 84.9282 71.3354   2
   3   6  -6 171.078 127.232   1
   3   6  -6 19.3253 64.7872  22
   3   6  -5 14935.6 660.694  36
   3   6  -5 14982.1 790.739   1
   3   6  -5 14003.6 668.331  35
   3   6  -5 14760.6 656.842   2
   3   6  -5 14657.2 649.405  31
   3   6  -5 14015.3 654.362  14
   3   6  -5 15132.4 667.432   6
   3   6  -5 13697.7 654.486  38
   3   6  -4 138.524 58.6891  38
   3   6  -4 101.213 43.6514   4
   3   6  -4 90.9106 117.940   1
   3   6  -4 13.2889 69.0241  35
   3   6  -4 63.0406 54.1010   5
   3   6  -4 53.3501 54.1783  32
   3   6  -4 142.301 51.1030  31
   3   6  -4 82.0404 63.9221  14
   3   6  -4 45.3593 74.6485   6
   3   6  -3 336.152 61.6774  38
   3   6  -3 250.874 75.1619  35
   3   6  -3 170.248 66.2769   5
   3   6  -3 168.457 57.1155  32
   3   6  -3 160.566 117.671   1
   3   6  -3 156.487 59.9011  14
   3   6  -3 143.626 43.0803   4
   3   6  -2 7690.22 375.882  37
   3   6  -2 7438.14 376.992   5
   3   6  -2 8305.27 375.448  32
   3   6  -2 7267.75 489.106   1
   3   6  -2 7785.88 364.072  14
   3   6  -2 7712.15 386.090   6
   3   6  -1 68.0799 113.170   1
   3   6  -1 163.720 65.4409  33
   3   6  -1 286.480 74.9862   5
   3   6  -1 128.607 48.3819  14
   3   6  -1 162.889 71.8053   6
   3   6   0 11400.3 522.503  37
   3   6   0 11095.4 528.169   5
   3   6   0 11640.0 531.838  35
   3   6   0 10294.5 515.533   2
   3   6   0 11403.9 526.122  33
   3   6   0 11423.6 528.501   6
   3   6   0 10913.8 642.816   1
   3   6   1 1674.35 132.293  37
   3   6   1 1570.75 125.703   2
   3   6   1 1666.97 132.817  35
   3   6   1 1875.36 142.644  34
   3   6   1 1678.51 136.113  33
   3   6   1 1818.85 224.613   1
   3   6   1 1708.91 132.829   6
   3   6   2 47.1827 69.4908  37
   3   6   2 65.1410 71.5569  35
   3   6   2 42.8816 82.2466  34
   3   6   2 98.3278 83.3777   5
   3   6   2 7.22861 71.9810  33
   3   6   2 20.1054 117.213   1
   3   6   2-9.53556 63.9525   2
   3   6   3 2403.27 163.801  37
   3   6   3 2390.55 171.200  35
   3   6   3 2560.63 182.456  34
   3   6   3 2643.94 180.328  33
   3   6   3 2736.32 255.671   1
   3   6   3 2752.02 155.792   2
   3   6   4 606.321 86.7235  37
   3   6   4 743.690 105.074  35
   3   6   4 794.718 111.859  33
   3   6   5 29774.9 1317.65  37
   3   6   5 30261.2 1339.94  35
   3   6   5 31301.8 1345.44  34
   3   6   6 12060.9 559.639  37
   3   6   6 13186.3 590.864  35
   3   6   6 12829.0 595.694  33
   3   6   7-53.2908 69.4052  35
   3   6   7 6.56967 79.7330  33
   3   6   8 1380.64 105.025  35
   3   6   8 1302.42 114.763  33
   3   6   9 1322.43 92.9338  35
   3   6   9 1373.00 101.302  33
   3   7 -14 44.7486 29.0091   4
   3   7 -14 1.55897 28.8139   3
   3   7 -13 187.281 50.2003   3
   3   7 -13 95.1074 61.9191  13
   3   7 -13 54.0409 43.1584  12
   3   7 -12 1208.18 90.9241  14
   3   7 -12 1221.94 90.8540  12
   3   7 -11 1290.12 103.824  14
   3   7 -11 1556.09 111.109  13
   3   7 -11 1219.41 95.5135  12
   3   7 -10 152.703 69.9759  14
   3   7 -10 150.383 72.3445  13
   3   7 -10 36.2869 55.8565  12
   3   7  -9 10612.9 471.730  31
   3   7  -9 9844.32 466.202  14
   3   7  -9 10246.3 464.292  13
   3   7  -9 9049.69 450.554  12
   3   7  -8 422.251 74.7899   2
   3   7  -8 321.921 81.4406  31
   3   7  -8 447.226 84.9696  14
   3   7  -8 339.350 76.4006  13
   3   7  -8 300.247 57.3756  12
   3   7  -7 2991.89 186.539  36
   3   7  -7 3266.11 184.877  31
   3   7  -7 2961.91 176.621  13
   3   7  -7 2972.93 294.039   1
   3   7  -7 3353.25 186.814   2
   3   7  -6 1150.19 114.952  36
   3   7  -6 1381.57 107.209  31
   3   7  -6 1163.74 97.0254  13
   3   7  -6 1544.40 126.493   6
   3   7  -6 1291.41 114.756   2
   3   7  -6 1200.02 200.704   1
   3   7  -5 835.175 90.9717  38
   3   7  -5 703.953 78.2605   4
   3   7  -5 920.344 101.095  36
   3   7  -5 890.775 103.535  35
   3   7  -5 733.193 180.367   1
   3   7  -5 774.213 82.6109  31
   3   7  -5 899.464 98.3069  14
   3   7  -5 946.138 108.940   6
   3   7  -5 958.424 102.900   2
   3   7  -4 5128.78 263.637   2
   3   7  -4 4616.52 377.038   1
   3   7  -4 5150.08 260.896   5
   3   7  -4 5161.94 268.164  36
   3   7  -4 4931.41 272.420  35
   3   7  -4 5142.11 257.166  14
   3   7  -4 4853.57 248.522   4
   3   7  -4 5443.47 278.046   6
   3   7  -4 4336.47 246.404  38
   3   7  -3 1547.37 129.649   2
   3   7  -3 1854.13 133.708   5
   3   7  -3 1900.37 141.888  35
   3   7  -3 1566.05 115.729  32
   3   7  -3 1686.40 114.920   3
   3   7  -3 1833.81 237.027   1
   3   7  -3 1764.28 122.970  14
   3   7  -3 1941.60 115.132   4
   3   7  -2 64.9581 70.0373  35
   3   7  -2-38.3640 77.2179   5
   3   7  -2-20.4265 48.6138   3
   3   7  -2-34.4414 57.3911  14
   3   7  -2-16.2899 39.5197   4
   3   7  -2 50.1791 83.5769   6
   3   7  -1 1584.87 136.453   5
   3   7  -1 1419.23 118.785  33
   3   7  -1 1606.51 225.266   1
   3   7  -1 1352.26 99.7631  14
   3   7  -1 1637.32 136.475   6
   3   7  -1 1646.99 127.058   2
   3   7   0 3720.81 223.587  37
   3   7   0 4084.35 235.959   5
   3   7   0 4123.47 227.058  33
   3   7   0 3996.29 234.158   6
   3   7   0 4033.44 337.827   1
   3   7   0 4040.03 222.856   2
   3   7   1 2198.00 257.849   1
   3   7   1 2342.65 162.208  37
   3   7   1 2625.08 179.456  35
   3   7   1 2820.90 178.869  34
   3   7   1 2799.48 175.470  33
   3   7   1 2696.30 171.788   6
   3   7   1 2266.66 158.713   2
   3   7   2 3856.05 229.646  37
   3   7   2 4339.42 251.294   5
   3   7   2 4255.09 247.105  35
   3   7   2 4417.09 249.907  34
   3   7   2 4316.80 243.500  33
   3   7   2 4052.71 333.866   1
   3   7   2 4296.39 226.359   2
   3   7   3 3269.04 186.540  37
   3   7   3 3169.34 203.069  35
   3   7   3 2896.21 204.201  34
   3   7   3 3256.62 202.729  33
   3   7   4 2042.32 161.403  35
   3   7   4 2163.51 162.888  33
   3   7   5 137.958 82.3645  35
   3   7   5 190.893 88.0991  33
   3   7   6 156.476 75.0555  35
   3   7   7 4.86769 57.9224  35
   3   7   8 2701.46 148.326  35
   3   7   8 2606.65 152.283  33
   3   7   9 768.711 57.9213  33
   3   8 -13 54.5771 36.7875   4
   3   8 -13-37.1645 36.1088   3
   3   8 -12 66.2476 46.0226   4
   3   8 -12 73.8014 46.4631  14
   3   8 -12 46.9176 45.7425   3
   3   8 -12 97.6218 56.3668  13
   3   8 -11 256.536 63.3453  14
   3   8 -11 157.444 60.9179  13
   3   8 -11 212.962 55.8065   3
   3   8 -10 14.1290 64.5240  14
   3   8 -10 49.1540 57.7774  13
   3   8  -9 9299.25 425.757  14
   3   8  -9 8901.42 417.451  13
   3   8  -9 8529.16 422.263   4
   3   8  -8 1196.16 117.949  14
   3   8  -8 1282.72 103.557  13
   3   8  -8 1380.04 109.771   4
   3   8  -7 3889.65 221.446  36
   3   8  -7 3791.89 200.963  13
   3   8  -7 3849.66 210.426   4
   3   8  -7 3733.25 209.824   2
   3   8  -6 12243.5 584.602  36
   3   8  -6 12969.1 581.693  14
   3   8  -6 11943.5 711.525   1
   3   8  -6 13088.3 578.566   4
   3   8  -6 12277.1 579.447   2
   3   8  -6 12337.2 591.069   6
   3   8  -5 2078.10 138.147   5
   3   8  -5 2166.32 155.924  36
   3   8  -5 1888.24 150.294  35
   3   8  -5 2063.98 138.518   3
   3   8  -5 2263.30 147.277  14
   3   8  -5 2065.73 133.457   4
   3   8  -5 2170.86 161.919   6
   3   8  -5 2216.76 149.791   2
   3   8  -4 16200.3 717.386   5
   3   8  -4 15534.2 727.320  35
   3   8  -4 16058.3 708.995   3
   3   8  -4 15766.3 709.629  14
   3   8  -4 15828.2 706.276   4
   3   8  -4 15360.4 856.587   1
   3   8  -4 15260.6 716.827   2
   3   8  -4 15815.8 723.664  36
   3   8  -3-88.1430 84.4286  36
   3   8  -3 7.36331 73.0481  35
   3   8  -3 57.8515 76.3002   5
   3   8  -3 72.7439 73.7423   2
   3   8  -3 9.39444 51.6882   3
   3   8  -3-9.57496 59.8885  14
   3   8  -3 32.1882 44.6265   4
   3   8  -3 120.998 85.8450   6
   3   8  -3-25.3735 128.098   1
   3   8  -2 9308.17 453.026   5
   3   8  -2 9121.18 456.936  35
   3   8  -2 9440.69 426.332   3
   3   8  -2 9137.24 429.422  14
   3   8  -2 9391.94 427.104   4
   3   8  -2 9191.19 458.871   6
   3   8  -1 1286.67 126.034   5
   3   8  -1 1078.07 117.288  35
   3   8  -1 1050.51 111.178   2
   3   8  -1 1157.41 124.694   6
   3   8  -1 1190.87 197.709   1
   3   8   0 7172.98 367.436  33
   3   8   0 7495.99 383.906  35
   3   8   0 7749.87 500.285   1
   3   8   0 7758.62 368.047   2
   3   8   0 7311.67 378.502   6
   3   8   1 2229.37 154.568  33
   3   8   1 2223.81 146.168   2
   3   8   2 255.824 80.9110  33
   3   8   2 439.791 96.6866   5
   3   8   3 50.3935 81.9434  35
   3   8   3 240.284 81.2226  33
   3   8   4 658.955 100.469  35
   3   8   4 866.326 100.442  33
   3   8   5 2258.89 156.878  35
   3   8   5 2532.48 157.570  33
   3   8   6 669.502 83.0394  35
   3   8   6 733.334 85.0399  33
   3   8   7 1012.95 81.2510  35
   3   8   7 1024.45 83.9546  33
   3   9 -13 37.6866 29.9711   3
   3   9 -13 42.1319 25.4914   4
   3   9 -12 167.663 44.8212   3
   3   9 -12 222.244 47.5677  14
   3   9 -12 202.751 43.6123   4
   3   9 -11 341.588 55.4073   4
   3   9 -11 422.284 62.7889  14
   3   9 -11 432.636 61.0002   3
   3   9 -10 73.9475 60.9626  14
   3   9 -10 147.078 50.6752   4
   3   9  -9 76.7221 51.8782   4
   3   9  -9 61.3837 67.1118  14
   3   9  -9 25.2444 56.7252   3
   3   9  -8 1392.02 110.113   3
   3   9  -8 1459.54 107.544   4
   3   9  -7 2755.91 168.145   3
   3   9  -7 2779.64 163.024   4
   3   9  -6 749.187 106.818  36
   3   9  -6 742.276 78.5105   4
   3   9  -6 848.344 89.5989   3
   3   9  -6 704.420 92.4224  14
   3   9  -6 856.571 107.671   6
   3   9  -5 3647.32 197.422   5
   3   9  -5 3073.23 207.125  36
   3   9  -5 2962.71 200.971  35
   3   9  -5 3496.44 194.661   3
   3   9  -5 3458.04 197.065  14
   3   9  -5 3708.09 192.581   4
   3   9  -5 3974.69 209.302   2
   3   9  -5 3607.83 217.862   6
   3   9  -4 6.61243 83.6970  36
   3   9  -4 6.87369 72.7623  35
   3   9  -4 294.343 89.7573   2
   3   9  -4 35.4208 68.8954   5
   3   9  -4 122.268 58.7103   3
   3   9  -4 108.078 65.9481  14
   3   9  -4 32.9729 46.3212   4
   3   9  -3 5486.33 311.008   5
   3   9  -3 5881.41 318.529  35
   3   9  -3 6594.74 295.922   3
   3   9  -3 6417.59 299.055  14
   3   9  -3 5997.79 292.473   4
   3   9  -3 5661.10 308.386   2
   3   9  -3 6145.64 325.196   6
   3   9  -2 1222.41 124.035   5
   3   9  -2 1431.06 127.469  36
   3   9  -2 1117.06 93.4119  14
   3   9  -2 1331.51 91.2930   4
   3   9  -2 1484.15 133.408   6
   3   9  -2 1246.32 122.378  35
   3   9  -1-6.28086 79.6371  36
   3   9  -1 7.23645 78.6990  35
   3   9  -1 48.4384 83.5798   5
   3   9  -1 111.731 86.1674   6
   3   9   0 5153.34 282.045  36
   3   9   0 5749.58 298.120  35
   3   9   1 4187.72 237.257   5
   3   9   1 4095.62 219.804  36
   3   9   1 4083.07 234.357  35
   3   9   1 3767.02 216.359  33
   3   9   2 867.574 85.4180  36
   3   9   2 962.771 94.1091  33
   3   9   3 81.4206 63.7446  33
   3   9   4 117.670 57.9630  33
   3   9   5 1426.92 105.434  33
   3   9   5 1638.59 117.397  35
   3   9   6 170.063 49.8519  35
   3   9   6 102.998 42.3145  33
   3  10 -12 167.992 35.7130   3
   3  10 -11 1723.34 99.2999   3
   3  10 -11 1873.92 99.5819  14
   3  10 -10 64.5306 44.0816   4
   3  10 -10 115.248 57.8902  14
   3  10  -9 2336.92 134.622   3
   3  10  -9 2315.93 136.289  14
   3  10  -9 2022.92 126.196   4
   3  10  -8 2215.00 133.688   3
   3  10  -8 1981.84 125.010   4
   3  10  -7 2718.94 154.286   3
   3  10  -7 2586.71 155.808  14
   3  10  -7 2437.45 145.309   4
   3  10  -6 27.8732 53.8481   3
   3  10  -6 152.356 67.4850  14
   3  10  -6 90.6774 49.0016   4
   3  10  -5 1525.79 127.152  36
   3  10  -5 1445.94 102.253   3
   3  10  -5 1237.25 104.159   5
   3  10  -5 1418.26 107.805  14
   3  10  -5 1315.08 96.3775   4
   3  10  -5 1367.25 132.140   6
   3  10  -4 167.545 66.0127  35
   3  10  -4 201.793 71.7738   5
   3  10  -4 218.333 62.8455  14
   3  10  -4 241.138 49.8185   4
   3  10  -3 4087.00 231.591   5
   3  10  -3 4072.23 230.689  36
   3  10  -3 3898.33 228.892  35
   3  10  -3 4512.84 212.617  14
   3  10  -3 3967.11 238.564   6
   3  10  -2 446.698 84.3349  36
   3  10  -2 523.965 85.0032  35
   3  10  -2 565.446 91.4449   5
   3  10  -2 480.183 91.1640   6
   3  10  -1 2221.42 155.603   5
   3  10  -1 2086.00 141.448  36
   3  10  -1 2076.74 148.565  35
   3  10   0 132.551 61.7031  36
   3  10   0 154.760 70.9031  35
   3  10   1 810.501 77.0100  36
   3  10   1 830.980 93.3553  35
   3  10   2 81.0391 61.5571  35
   3  10   3 836.644 91.0072  35
   3  11 -10-9.13935 40.6935  14
   3  11 -10-11.2082 26.7238   4
   3  11  -9 222.854 50.3153   3
   3  11  -9 124.021 40.8809   4
   3  11  -8 249.296 53.2496   3
   3  11  -8 320.722 65.3675  14
   3  11  -8 241.417 43.2578   4
   3  11  -7 290.451 61.8562  14
   3  11  -7 187.622 42.0011   4
   3  11  -6 48.9578 52.4803  14
   3  11  -6 12.4099 37.2987   4
   3  11  -5 805.145 74.2785  14
   3  11  -4 526.610 71.3580   5
   3  11  -3 719.470 79.7427  35
   3  11  -3 591.655 85.3538   5
   3  11  -2 851.747 93.1911   5
   3  11  -2 726.651 82.7876  35
   3  11  -1 1705.39 91.9784  36
   3  11  -1 466.655 75.5304  35
   3  11   0 1744.78 116.336  35
   3  11   1 64.4431 60.2332  35
   3  11   2 105.668 45.0162  35
   3  11   3-4.07145 33.4343  35
  -4  12  -1 39.5890 31.6935  10
  -4  12  -2 68.5247 33.3531  10
  -4  12  -2 74.8281 40.3225  30
  -4  12  -3 150.182 45.4395  30
  -4  12  -5 49.9318 37.5293  30
  -4  11   2-19.3663 36.8925  10
  -4  11   1 641.588 56.9840  30
  -4  11   1 892.060 67.0574  10
  -4  11   0 299.807 57.3272  30
  -4  11   0 355.597 58.9266  28
  -4  11  -1 276.012 62.1064  30
  -4  11  -1 290.775 55.2594  28
  -4  11  -2 146.365 61.1913  30
  -4  11  -2 121.228 47.3450  28
  -4  11  -3 841.604 83.6800  30
  -4  11  -4 37.3989 36.2622  11
  -4  11  -5 1143.35 93.4544  30
  -4  11  -5 1111.49 77.3167  11
  -4  11  -6 80.8006 52.4789  30
  -4  11  -6 171.055 42.3377  11
  -4  11  -7 68.5637 33.7655  11
  -4  11  -8 66.2352 28.5311  11
  -4  10   4 156.887 42.1334  10
  -4  10   3 656.039 65.4555  10
  -4  10   3 612.401 70.2669  28
  -4  10   2 9.00775 37.4743  30
  -4  10   1-4.11087 48.7942  30
  -4  10   0 145.508 60.1049  30
  -4  10   0 239.189 60.6660  28
  -4  10  -1 2887.86 175.587  30
  -4  10  -1 3058.13 166.942  28
  -4  10  -2 652.674 85.3348  30
  -4  10  -2 610.561 70.9411  28
  -4  10  -2 646.748 63.0261  11
  -4  10  -3 90.6523 67.0852  30
  -4  10  -3 37.4367 48.4993  28
  -4  10  -3-15.6519 39.6536  11
  -4  10  -4 2141.40 126.570  11
  -4  10  -5 1009.60 93.3065  30
  -4  10  -5 845.294 76.1714  11
  -4  10  -6 1955.84 128.679  30
  -4  10  -6 2141.93 123.323  11
  -4  10  -7 1671.15 108.143  30
  -4  10  -7 1860.50 109.303  11
  -4  10  -8 179.938 46.2118  11
  -4  10  -9 354.447 43.1122  11
  -4  10 -10 552.442 43.7846  11
  -4   9   6 33.3056 37.1394  29
  -4   9   5 309.628 51.4167  10
  -4   9   5 299.991 57.9756  29
  -4   9   4 173.726 51.5338  10
  -4   9   4 224.586 52.1716  29
  -4   9   4 266.102 58.3850  28
  -4   9   3 652.040 65.4336  30
  -4   9   3 728.240 71.8634  29
  -4   9   2 9.19436 49.3979  30
  -4   9   2 3.72365 46.6964  29
  -4   9   2 99.8511 61.4711  28
  -4   9   1 323.175 70.6251  30
  -4   9   1 327.118 59.9195  29
  -4   9   0 24.3908 65.1086  30
  -4   9   0-3.65925 47.6099  29
  -4   9   0 76.7925 59.8514  28
  -4   9  -1 4169.14 227.058  30
  -4   9  -1 3713.90 212.096  28
  -4   9  -1 3890.21 201.646  11
  -4   9  -2 2078.03 152.120  30
  -4   9  -2 2216.92 138.991  28
  -4   9  -2 2028.03 128.692  11
  -4   9  -3 822.747 84.6823  28
  -4   9  -3 836.334 76.6251  11
  -4   9  -4 3290.36 198.124  30
  -4   9  -4 2934.18 172.189  28
  -4   9  -4 3501.31 181.121  11
  -4   9  -5 2766.96 169.745  30
  -4   9  -5 2495.07 146.952  28
  -4   9  -5 3001.81 161.157  11
  -4   9  -6 418.804 72.6184  30
  -4   9  -6 405.725 63.8256  11
  -4   9  -7 272.194 56.7464  11
  -4   9  -7 272.709 57.6914  30
  -4   9  -8 408.909 59.1462  11
   4  -9   8 445.367 61.6638  21
  -4   9  -9 1108.00 80.1090  11
   4  -9   9 898.547 75.1339  21
   4  -9  10 80.6101 42.1701  21
  -4   9 -10 204.163 41.5686  11
  -4   9 -11 319.695 35.9836  11
   4  -8  -8 1305.25 74.9094  27
  -4   8   6 37.9806 37.0582  10
  -4   8   6 29.8279 53.0774  29
  -4   8   5 1111.49 90.4043  29
  -4   8   5 1096.27 89.2532  28
  -4   8   5 1123.97 83.3431  10
  -4   8   4 2101.21 132.916  29
  -4   8   4 2057.86 134.794  28
  -4   8   3 266.539 65.9241  29
  -4   8   3 379.272 73.1544  28
  -4   8   2 2335.47 150.723  30
  -4   8   2 2117.21 142.122  29
  -4   8   2 2404.65 152.964  28
  -4   8   1 32.1980 68.1106  30
  -4   8   1 4.73326 58.8063  29
  -4   8   0 381.339 85.0171  30
  -4   8   0 381.172 66.2841  29
  -4   8   0 264.686 52.4467  11
  -4   8  -1 1241.79 121.215  30
  -4   8  -1 1252.05 98.1006  29
  -4   8  -1 1519.79 118.197  28
  -4   8  -1 1354.41 97.7049  11
  -4   8  -2 73.3162 74.5860  30
  -4   8  -2 180.355 71.8121  28
  -4   8  -2 14.4867 46.4021  11
  -4   8  -3 1965.51 127.662  11
  -4   8  -4-27.9102 74.7312  30
  -4   8  -4-21.1612 51.9193  11
  -4   8  -5 3235.71 198.197  30
   4  -8   5 3271.51 189.846  21
  -4   8  -6 367.751 78.0699  30
  -4   8  -6 513.749 61.1358  28
   4  -8   6 593.685 86.9173  21
  -4   8  -7 11276.4 535.107  30
   4  -8   7 12388.4 549.389  21
   4  -8   8 45.1680 65.1642  21
   4  -8   9 40.3921 59.1959  21
   4  -8  10 433.507 68.6402  21
   4  -8  11 1051.73 78.3174  21
   4  -7  -9 75.5591 35.8729  27
  -4   7   8 4339.34 204.276  29
   4  -7  -8 3986.78 207.324  27
  -4   7   7 485.652 67.5837  29
  -4   7   6 45.7869 43.6038  10
  -4   7   6 7.97219 48.8492  28
  -4   7   5 642.809 78.8602  28
  -4   7   4 3479.77 201.892  29
  -4   7   4 3771.80 204.265  28
  -4   7   3-33.8736 56.8104  30
  -4   7   3-47.7635 66.5378  29
  -4   7   3 33.5230 69.2559  28
  -4   7   2 1139.24 107.150  30
  -4   7   2 1081.39 102.688  29
  -4   7   2 1025.88 104.030  28
  -4   7   1 4341.80 249.087  30
  -4   7   1 4460.46 242.072  28
  -4   7   0 8209.27 410.864  30
  -4   7  -1 1947.18 222.125  18
  -4   7  -1 2051.49 125.344  11
  -4   7  -2 4031.95 321.967  18
  -4   7  -2 4099.51 212.229  11
   4  -7   2 4035.90 220.739  21
   4  -7   2 3687.13 328.955  40
  -4   7  -3 44.8918 101.712  18
   4  -7   3 18.8965 62.7200  21
  -4   7  -3 41.1173 44.9572  11
   4  -7   3-27.0088 106.598  40
  -4   7  -4 3793.97 328.297  18
  -4   7  -4 4292.64 242.496  30
   4  -7   4 4292.01 238.517  21
   4  -7   4 4071.10 359.959  40
   4  -7   5 1314.35 229.431   9
  -4   7  -5 1515.61 204.193  17
  -4   7  -5 1401.20 121.000  30
   4  -7   5 1448.95 126.720  21
  -4   7  -6 5023.68 272.109  30
   4  -7   6 5416.41 285.238  21
  -4   7  -7 4498.60 240.858  30
   4  -7   7 4953.79 266.093  21
   4  -7   8 388.517 87.5303  21
   4  -7   9 1058.74 107.174  21
   4  -7  10 97.4270 64.8569  21
   4  -7  11 527.590 78.6148  21
   4  -7  12 493.112 57.1983  21
  -4   6   9 640.789 64.0150  29
  -4   6   8 512.512 66.6286  29
  -4   6   7 5388.47 274.245  29
  -4   6   7 5652.82 266.451  28
  -4   6   6 39.7737 65.5054  29
  -4   6   6 49.2857 55.0532  28
  -4   6   5 7854.32 376.716  28
  -4   6   4 4457.69 345.734  18
  -4   6   4 4819.58 250.607  30
  -4   6   4 5051.91 255.989  28
  -4   6   3 21.3096 96.5562  18
  -4   6   3-6.14351 61.8150  30
  -4   6   3 11.4278 66.0957  28
  -4   6   2 339.070 124.582  18
  -4   6   2 401.669 81.4405  28
  -4   6   1 530.531 125.659  18
   4  -6  -1 517.274 140.771  40
   4  -6   0 739.552 84.5491  21
  -4   6   0 831.860 149.947  18
   4  -6   0 527.960 145.054  40
   4  -6   1 1934.73 137.118  21
   4  -6   1 1856.33 231.452  40
   4  -6   2-25.9869 66.2765  21
   4  -6   2 82.0666 119.600  40
   4  -6   3 704.346 95.6146  21
   4  -6   3 755.257 175.426  40
   4  -6   4 5160.21 441.959   9
  -4   6  -4 5378.24 398.247  17
   4  -6   4 5606.99 296.326  21
   4  -6   5-102.475 143.705   9
   4  -6   5 30.6682 78.4815  21
   4  -6   6 10542.8 666.298   9
  -4   6  -6 9136.78 455.935  30
   4  -6   6 10251.2 480.242  21
  -4   6  -7 9086.12 441.574  30
   4  -6   7 9935.70 449.462  23
   4  -6   8 670.016 83.6797  23
   4  -6   9 25.5581 57.2304  23
   4  -6  10 1742.60 115.380  23
   4  -6  11 439.516 76.7336  21
   4  -6  11 572.588 61.3690  23
   4  -6  12 1095.55 85.7546  21
  -4   5  10 188.760 43.6032  29
  -4   5   9 37.1676 49.8391  29
   4  -5  -9 158.086 70.1390  27
  -4   5   8 409.305 69.3475  29
  -4   5   7 1033.08 99.0118  29
  -4   5   7 1145.69 88.8838  28
  -4   5   6 11426.0 536.309  29
  -4   5   6 11698.5 528.401  28
  -4   5   5 10321.8 622.852  18
  -4   5   5 11477.1 525.338  29
  -4   5   5 11327.6 519.314  28
   4  -5  -4 1332.04 192.971  40
  -4   5   4 930.584 165.224  18
  -4   5   4 1344.28 105.608  28
  -4   5   3 143.373 111.704  18
   4  -5  -3 58.4480 51.3897  21
   4  -5  -3-50.1454 101.194  40
   4  -5  -2 681.412 152.598  40
  -4   5   2 606.991 136.310  18
   4  -5  -2 956.604 92.8942  21
  -4   5   1 424.686 121.888  18
   4  -5  -1 439.264 74.2806  21
   4  -5  -1 657.212 163.144  40
   4  -5   0 5506.97 409.045  40
  -4   5   0 5891.99 386.839  18
   4  -5   0 5456.16 285.836  21
  -4   5  -1 691.305 144.281  18
   4  -5   1 605.225 87.3692  21
   4  -5   1 447.905 150.790  40
  -4   5  -2 85.8783 98.9945  17
   4  -5   2 27.8974 119.731  40
   4  -5   2 87.3821 74.6704  21
   4  -5   3 2448.15 299.565   9
   4  -5   3 2718.58 163.152  23
   4  -5   3 2732.96 182.538  21
  -4   5  -4 2019.65 235.916  17
   4  -5   4 2159.42 140.414  23
   4  -5   4 1870.58 150.850  21
  -4   5  -5 74.0102 111.783  17
   4  -5   5-18.3953 62.7657  23
  -4   5  -6 307.544 124.457  17
   4  -5   6 277.812 74.9082  23
   4  -5   7-33.7362 139.211   9
  -4   5  -7 104.713 112.499  17
  -4   5  -7 239.173 57.2353  30
   4  -5   7 86.2241 71.1050  23
   4  -5   8 59.1237 67.2901  23
   4  -5   9 55.6345 65.4204  23
   4  -5  10 1149.26 103.640  23
   4  -5  11 38.8580 53.7856  23
   4  -5  12 2352.37 129.708  23
   4  -4 -11 29.4895 43.9778  27
  -4   4  10 56.9825 43.7684  29
   4  -4 -10 85.1370 63.3560  27
  -4   4   9 126.602 54.3874  29
   4  -4  -9 71.2478 68.3195  27
  -4   4   8 13837.1 624.273  29
  -4   4   7 243.838 74.5317  29
  -4   4   6 663.139 131.757  18
  -4   4   6 672.464 88.4008  29
  -4   4   6 598.714 72.2565  28
   4  -4  -6 461.606 137.188  40
  -4   4   5 6750.18 447.885  18
  -4   4   5 7430.91 347.029  28
   4  -4  -5 6336.98 479.210  40
  -4   4   4 58.2604 102.046  18
   4  -4  -4-25.9633 107.023  40
  -4   4   3 37.9949 103.862  18
   4  -4  -3 265.192 64.3527  21
   4  -4  -3 77.5125 108.957  40
  -4   4   2 4495.13 326.004  18
   4  -4  -2 4545.84 243.848  21
   4  -4  -2 4699.10 368.175  40
  -4   4   1 1552.12 182.265  18
   4  -4  -1 1375.92 113.437  21
   4  -4  -1 1098.98 186.069  40
  -4   4   0-19.1952 89.9248  18
   4  -4   0 30.6792 62.1680  21
   4  -4   0-75.3262 128.508  40
   4  -4   1 1568.79 123.154  21
   4  -4   1 1361.04 210.633  40
  -4   4  -2 3296.26 267.146  17
   4  -4   2 2832.26 172.394  23
   4  -4   2 3187.55 190.755  21
   4  -4   3 1046.70 196.881   9
  -4   4  -3 1054.81 168.019  17
   4  -4   3 843.996 94.5696  23
   4  -4   3 1088.69 108.679  21
   4  -4   4 60.1218 138.854   9
  -4   4  -4 364.444 124.558  17
   4  -4   4 278.549 71.8357  23
   4  -4   4 157.046 75.0391  21
   4  -4   5 249.418 158.010   9
  -4   4  -5 243.032 126.820  17
   4  -4   5 383.897 79.1996  23
   4  -4   6 3464.00 353.553   9
  -4   4  -6 3648.10 330.339  17
   4  -4   6 3975.41 224.613  23
   4  -4   7-32.5473 125.524   9
  -4   4  -7 26.5967 114.140  17
   4  -4   7 122.701 74.6746  23
   4  -4   8 6450.93 482.539   9
  -4   4  -8 5653.60 437.760  17
   4  -4   8 5824.68 313.641  23
   4  -4   9 918.351 106.618  23
   4  -4  10 444.161 79.5266  23
   4  -4  11 3421.43 191.784  23
   4  -4  12 172.771 59.6892  23
   4  -4  12 224.775 64.0043  21
   4  -3 -12 116.733 39.2250  27
   4  -3 -12 22.8629 36.2262  22
   4  -3 -11-19.0115 61.2085  27
  -4   3  10 3052.92 161.612  29
   4  -3 -10 3188.55 175.985  27
  -4   3   9 20.3988 52.3999  29
   4  -3  -9-10.3919 71.7053  27
  -4   3   8 109.873 65.2244  29
  -4   3   7 2526.07 155.618  29
   4  -3  -7 2312.29 276.519  39
  -4   3   6 129.101 93.2720  18
  -4   3   6 158.670 53.9244  28
   4  -3  -6 27.4613 110.950  40
  -4   3   5 347.120 112.556  18
  -4   3   5 293.030 61.9381  28
   4  -3  -5 189.532 121.151  40
  -4   3   4 106.087 94.3969  18
   4  -3  -4 201.040 63.1443  21
   4  -3  -4 236.189 130.855  40
  -4   3   3 8040.45 447.304  18
   4  -3  -3 7046.94 357.719  21
   4  -3  -3 7387.76 491.380  40
  -4   3   2 21097.3 1001.59  18
   4  -3  -2 20784.5 1057.72  40
   4  -3  -2 20098.5 908.752  21
  -4   3   1 638.757 133.406  18
   4  -3  -1 489.454 78.1580  21
   4  -3  -1 549.793 152.149  40
   4  -3   0 2287.69 238.475  40
   4  -3   0 1839.83 136.225  21
  -4   3  -1 586.454 127.013  17
   4  -3   1 739.859 88.4851  21
   4  -3   1 569.095 75.5733  23
   4  -3   1 634.797 156.334  40
   4  -3   2 5003.53 398.618   9
  -4   3  -2 5883.59 376.615  17
   4  -3   2 5366.87 275.812  23
   4  -3   2 5315.31 283.975  21
   4  -3   3 4824.31 372.580   9
  -4   3  -3 4214.77 325.474  17
   4  -3   3 4427.53 240.102  23
   4  -3   3 4362.01 247.183  21
   4  -3   4 11292.5 670.292   9
  -4   3  -4 11914.9 637.723  17
   4  -3   4 10441.5 511.518  23
   4  -3   5 116.195 119.822   9
  -4   3  -5 189.883 126.386  17
   4  -3   5 75.7803 70.6577  23
   4  -3   6-121.045 141.767   9
   4  -3   6 58.3509 68.0640  23
   4  -3   7 1669.75 253.069   9
   4  -3   7 1991.13 151.733  23
   4  -3   8 4090.21 381.585   9
   4  -3   8 4648.38 260.706  23
   4  -3   9 2975.09 194.621  23
   4  -3  10 372.143 81.7686  23
   4  -3  11 1514.48 116.182  23
   4  -3  12 3729.58 191.101  23
   4  -3  12 3538.48 188.408  21
   4  -3  13 470.820 44.4234  23
   4  -2 -12 65.9373 47.9908  27
   4  -2 -12 5.02422 44.8605  22
   4  -2 -11 3046.28 167.615  27
  -4   2  10 2545.60 139.618  29
   4  -2 -10 2606.92 158.647  27
   4  -2  -9 743.947 79.8507  31
  -4   2   9 844.205 79.6653  29
   4  -2  -9 760.073 94.3863  27
   4  -2  -8 2670.77 273.492  20
  -4   2   8 2725.67 160.680  29
   4  -2  -7 1750.81 231.277  20
  -4   2   7 1999.56 130.452  29
   4  -2  -7 1390.80 221.046  40
   4  -2  -6 102.005 65.0120  38
  -4   2   6 50.3916 83.6690  18
   4  -2  -6 28.2865 121.397  40
  -4   2   5 1929.69 208.040  18
   4  -2  -5 2336.35 270.481  40
  -4   2   4 348.185 103.504  18
   4  -2  -4 434.298 73.8394  21
   4  -2  -4 233.666 130.204  40
  -4   2   3 6547.93 380.485  18
   4  -2  -3 5932.65 299.027  32
   4  -2  -3 6521.05 441.048  40
   4  -2  -3 6070.99 307.256  21
  -4   2   2 92.1776 83.9186  18
   4  -2  -2 173.045 54.8966  32
   4  -2  -2 57.1802 55.9121  21
   4  -2  -2 167.541 112.235  40
  -4   2   1 9281.39 484.402  18
   4  -2  -1 8205.16 402.961  21
   4  -2  -1 7760.55 515.025  40
  -4   2   0 30631.7 1395.90  17
   4  -2   0 29265.0 1311.62  23
   4  -2   0 30580.8 1319.61  21
   4  -2   0 31667.4 1468.58  40
  -4   2  -1 147.425 89.6436  17
   4  -2   1 207.224 57.8091  23
   4  -2   1 201.849 65.5401  21
   4  -2   1 48.8564 118.317  40
   4  -2   2 10058.8 613.689   9
  -4   2  -2 10491.9 580.234  17
   4  -2   2 10400.3 491.759  23
   4  -2   2 10698.3 498.980  21
   4  -2   3 467.685 141.623   9
  -4   2  -3 346.763 123.700  17
   4  -2   3 448.470 77.2215  23
   4  -2   4 3472.81 317.278   9
   4  -2   4 3823.23 218.263  23
   4  -2   5 135.280 132.784   9
   4  -2   5 63.4052 70.7156  23
   4  -2   6 11159.0 690.588   9
   4  -2   6 11716.1 554.432  23
   4  -2   7 919.908 186.216   9
   4  -2   7 1086.09 118.737  23
   4  -2   8 4904.37 419.228   9
   4  -2   8 5802.53 308.096  23
   4  -2   9 13801.8 647.485  23
   4  -2  10 45.1454 70.5701  23
   4  -2  11 2737.15 164.954  23
   4  -2  11 2714.13 159.462  21
   4  -2  12 29.1177 52.4353  23
   4  -1 -13 509.875 48.2992  22
   4  -1 -12 1098.89 88.9926  27
   4  -1 -12 1357.21 97.5190  22
   4  -1 -11 438.365 71.0185  27
   4  -1 -10-87.9915 55.9434  31
   4  -1 -10 33.6327 65.9637  27
  -4   1   9 954.175 82.8369  29
   4  -1  -9 1105.96 104.264  27
  -4   1   8 2190.48 139.055  29
   4  -1  -8 2491.76 263.058  20
   4  -1  -8 2559.07 157.018  27
   4  -1  -7 5719.31 406.601  20
   4  -1  -7 4906.66 403.557  39
   4  -1  -7 5130.97 262.885  38
   4  -1  -6 251.300 78.3859  38
   4  -1  -6 481.085 145.392  40
   4  -1  -5 504.943 86.0938  38
  -4   1   5 345.979 94.3599  18
   4  -1  -5 637.752 166.930  40
  -4   1   4 16821.3 801.885  18
   4  -1  -4 16456.3 733.981  32
   4  -1  -4 15859.7 734.693  21
   4  -1  -4 16559.0 886.967  40
   4  -1  -3 7395.73 512.242  40
   4  -1  -3 8480.95 391.154  32
  -4   1   3 8030.27 447.446  18
   4  -1  -3 7971.99 391.900  21
  -4   1   2 6443.10 384.863  18
   4  -1  -2 6787.27 329.648  32
   4  -1  -2 6780.57 331.710  21
   4  -1  -2 6158.60 434.870  40
   4  -1  -1 28.3404 57.0433  21
  -4   1   0 8992.38 468.676  17
   4  -1   0 8279.56 402.089  23
  -4   1  -1 9072.11 506.186  17
   4  -1   1 9136.25 439.022  23
   4  -1   1 10300.8 582.709  40
   4  -1   2 4255.15 341.338   9
  -4   1  -2 5288.84 328.317  17
   4  -1   2 4855.56 254.683  23
   4  -1   2 4711.92 255.229  21
  -4   1  -3 13813.8 696.495  17
   4  -1   3 12836.7 596.447  23
   4  -1   3 12789.1 713.650   9
   4  -1   3 12596.7 598.420  21
   4  -1   4 10499.5 611.334   9
   4  -1   4 10462.9 492.802  23
   4  -1   4 10061.2 493.698  21
   4  -1   5 421.391 134.027   9
   4  -1   5 214.420 80.8083  23
   4  -1   6 1261.82 201.457   9
   4  -1   6 1458.46 128.978  23
   4  -1   7 15142.8 864.671   9
   4  -1   7 15754.6 726.201  25
   4  -1   7 16191.3 737.208  23
   4  -1   8 100.666 75.3323  25
   4  -1   8 177.427 88.2225  23
   4  -1   9 397.878 83.2404  25
   4  -1  10 1032.89 97.1500  21
   4  -1  11 2916.48 156.425  37
   4  -1  12 86.5967 47.9582  23
   4   0 -13 576.585 53.5279  13
   4   0 -13 628.107 57.6631  22
   4   0 -12 557.101 65.5298  27
   4   0 -12 671.800 78.7760  22
   4   0 -11 47.4604 53.5777  31
   4   0 -11 32.2237 58.5231  27
   4   0 -11 26.8397 41.7863  14
   4   0 -10 202.500 67.0521  31
   4   0 -10 317.924 72.7747  27
   4   0  -9 3878.71 213.812  27
   4   0  -8 9022.22 545.932  20
   4   0  -8 8457.47 409.383  38
  -4   0   8 8241.31 390.410  29
   4   0  -8 8591.84 403.325  27
   4   0  -8 8463.33 551.899  39
   4   0  -7 1662.25 132.597  38
   4   0  -7 2086.96 228.023  20
   4   0  -7 1594.49 118.958  27
   4   0  -7 1851.11 246.476  40
   4   0  -7 1816.35 229.487  39
   4   0  -6 1453.93 125.801  38
   4   0  -6 1380.96 192.758  20
   4   0  -6 1313.20 215.971  40
   4   0  -5 4532.81 253.864  32
   4   0  -5 4127.04 360.692  40
  -4   0   4 3092.21 218.523  18
   4   0  -4 3144.15 182.835  32
   4   0  -4 3032.22 180.602  21
  -4   0   3 3395.35 231.635  18
   4   0  -3 3486.05 195.014  32
   4   0  -3 3304.94 192.382  21
  -4   0   2 4251.28 270.311  18
   4   0  -2 4186.62 329.771  40
   4   0  -1 21868.8 967.136  21
   4   0  -1 21755.0 1090.65  40
  -4   0   0 301.268 81.0973  17
   4   0   0 203.624 60.8101  23
   4   0   0 235.947 64.7186  21
   4   0   0 237.181 122.112  40
  -4   0  -1 1938.04 170.178  17
   4   0   1 1793.63 124.282  23
   4   0   1 1486.59 121.379  21
   4   0   1 2098.77 220.561  40
   4   0   2 488.084 124.155   9
  -4   0  -2 336.369 97.7107  17
   4   0   2 628.407 84.6450  21
   4   0   3 13821.8 741.771   9
   4   0   3 13975.1 642.401  21
   4   0   4 230.922 110.737   9
   4   0   4 282.233 81.1816  33
   4   0   4 184.691 78.1108  21
   4   0   5 442.384 82.9251  33
   4   0   5 664.119 143.778   9
   4   0   5 496.530 77.5881  26
   4   0   5 771.091 96.6505  21
   4   0   6 12849.0 739.425   9
   4   0   6 12537.1 619.995  33
   4   0   6 14185.6 631.014  25
   4   0   6 14005.1 629.463  21
   4   0   7 146.365 69.7082  33
   4   0   7 193.268 79.9418  25
   4   0   7 184.319 84.5062  23
   4   0   7 110.949 74.3195  21
   4   0   8 3950.05 224.603  33
   4   0   8 4389.64 241.992  25
   4   0   8 4171.22 244.312  23
   4   0   8 4284.26 235.418  21
   4   0   9 1344.83 119.901  25
   4   0   9 1441.60 126.648  23
   4   0   9 1445.65 114.320  21
   4   0  10 3214.98 179.245  37
   4   0  10 3363.24 192.025  23
   4   0  11 20.8842 58.6036  23
   4   0  12 2582.01 133.657  23
   4   1 -13 2170.92 120.629  22
   4   1 -12 122.878 49.4930  31
   4   1 -12 108.573 61.7568  22
   4   1 -11 1050.25 93.3611  31
   4   1 -11 1036.44 83.3022  14
   4   1 -11 980.049 90.6403  27
   4   1 -11 1122.29 106.017  22
   4   1 -10 222.748 75.8317  31
   4   1 -10 129.899 66.8486  27
   4   1  -9 3502.87 313.070  20
   4   1  -9 3776.40 201.984  27
   4   1  -9 3406.55 315.580  39
   4   1  -8 5511.09 398.252  20
   4   1  -8 5179.44 264.226  27
   4   1  -8 4907.32 394.305  39
   4   1  -8 5434.32 283.978  38
   4   1  -7 75.8228 75.5344  38
   4   1  -7 107.344 115.771  20
   4   1  -7 219.060 114.133  39
   4   1  -6 8268.25 404.255  38
   4   1  -6 8522.11 500.945  20
   4   1  -6 7845.36 514.016  39
   4   1  -5 16289.5 708.623  38
   4   1  -5 14793.3 788.254  20
   4   1  -5 14129.2 701.800  32
   4   1  -5 16318.9 701.581  26
   4   1  -5 15349.2 847.515  40
   4   1  -4 366.873 72.2821  32
   4   1  -4 405.699 138.560  40
   4   1  -3 494.375 76.2390  32
   4   1  -3 386.191 69.9665  21
   4   1  -3 541.436 142.023  40
   4   1  -2 1405.89 109.040  21
   4   1  -2 1143.62 173.840  40
   4   1  -1 7227.40 339.504  37
   4   1  -1 7053.14 344.480  35
   4   1  -1 7794.68 461.344  40
   4   1  -1 6933.68 347.364  21
   4   1   0 12063.3 560.450  23
   4   1   0 11931.8 559.892  21
   4   1   1 2548.07 152.871  23
   4   1   1 2195.46 147.035  21
   4   1   1 2104.85 227.843  40
  -4  -1  -2 28.0340 64.6508  17
   4   1   2 77.7864 61.3041  23
   4   1   2 74.6100 59.0034  21
   4   1   2 65.8267 102.827  40
   4   1   3 16115.2 832.076   9
   4   1   3 16380.6 759.789  33
   4   1   3 16182.6 749.705  26
   4   1   3 17478.5 760.248  23
   4   1   3 16976.5 754.914  21
   4   1   4 7268.79 346.946  33
   4   1   4 6225.83 324.351  26
   4   1   4 6791.42 342.017  23
   4   1   4 6555.26 334.121  21
   4   1   5 4630.79 265.226  33
   4   1   5 5036.96 268.857  23
   4   1   5 4821.42 258.680  21
   4   1   6 618.535 94.2284  33
   4   1   6 978.139 108.093  25
   4   1   6 871.124 101.347  23
   4   1   6 529.495 84.3340  21
   4   1   7 3984.51 238.311  33
   4   1   7 4391.75 248.421  25
   4   1   7 4423.97 246.770  23
   4   1   7 4244.29 232.015  21
   4   1   8 557.038 87.1425  33
   4   1   8 905.703 108.343  25
   4   1   8 816.713 100.849  23
   4   1   8 555.646 74.9315  21
   4   1   9 73.0612 66.3033  37
   4   1   9 91.7453 59.8160  33
   4   1   9 84.5961 67.1584  23
   4   1  10 2694.79 158.998  23
   4   1  11 1235.60 90.2479  23
   4   2 -13 425.620 57.9870  13
   4   2 -13 397.500 60.7275  22
   4   2 -12 1034.07 90.6952  31
   4   2 -12 1484.91 104.664  22
   4   2 -11 7195.29 336.691  31
   4   2 -11 6708.06 325.145  14
   4   2 -10 2846.95 174.376  31
   4   2 -10 2625.81 155.178  27
   4   2 -10 2913.99 168.434  14
   4   2  -9 2203.62 159.127  31
   4   2  -9 2363.18 139.413  27
   4   2  -9 2435.30 248.595  20
   4   2  -8 7790.24 537.022  39
   4   2  -8 9244.50 438.277  38
   4   2  -8 9159.70 549.133  20
   4   2  -7 5809.08 301.023  38
   4   2  -7 5726.76 387.009  20
   4   2  -7 4708.86 411.381  40
   4   2  -7 5981.45 403.233  39
   4   2  -6 5527.89 277.621  38
   4   2  -6 4576.02 338.906  20
   4   2  -6 5202.00 262.636  26
   4   2  -6 4612.73 389.144  40
   4   2  -6 4234.58 345.249  39
   4   2  -5 2572.60 167.705  38
   4   2  -5 2771.23 224.448  20
   4   2  -5 2397.68 163.688  32
   4   2  -5 2692.28 168.722  26
   4   2  -5 2483.08 258.218  40
   4   2  -4 2990.70 237.252  20
   4   2  -4 3755.88 206.666  32
   4   2  -4 4023.95 209.393  26
   4   2  -4 3139.54 192.226  21
   4   2  -4 3851.85 311.620  40
   4   2  -3 1512.50 101.026  37
   4   2  -3 1528.28 117.862  32
   4   2  -3 1473.08 125.671  26
   4   2  -3 1225.09 105.863  21
   4   2  -3 1287.26 181.319  40
   4   2  -2 7615.15 360.404  37
   4   2  -2 7304.04 371.995  35
   4   2  -2 7909.04 378.135  26
   4   2  -2 7643.96 367.240  21
   4   2  -2 8040.88 479.386  40
   4   2  -1 25890.2 1136.10  37
   4   2  -1 26261.3 1145.57  35
   4   2  -1 25680.9 1146.74  26
   4   2  -1 25914.9 1140.04  21
   4   2  -1 27479.1 1265.22  40
   4   2   0 439.940 74.1860  37
   4   2   0 478.384 72.3253  35
   4   2   0 401.250 86.7623  26
   4   2   0 396.922 68.8095  23
   4   2   0 332.904 63.8054  21
   4   2   0 482.701 118.414  40
   4   2   1 1089.07 102.898  37
   4   2   1 981.569 93.6577  35
   4   2   1 1133.87 109.480  26
   4   2   1 1059.81 97.3259  23
   4   2   1 1005.27 94.4062  21
   4   2   1 1141.42 161.457  40
   4   2   2-5.63192 53.4289  35
   4   2   2 68.7606 68.9631  33
   4   2   2 50.0349 73.9804  26
   4   2   2 125.854 63.6063  23
   4   2   2 26.9550 59.3397  21
   4   2   2-19.8884 80.2720  40
   4   2   3 404.366 67.8299  35
   4   2   3 294.767 80.9304  33
   4   2   3 247.223 79.1038  26
   4   2   3 259.946 71.9934  23
   4   2   3 258.683 64.4699  21
   4   2   3 205.233 98.4290  40
   4   2   4 708.045 84.3522  26
   4   2   4 708.022 93.1769  23
   4   2   4 777.476 84.5095  21
   4   2   4 545.383 125.090  40
   4   2   5 405.609 88.6243  33
   4   2   5 367.528 79.0607  23
   4   2   5 323.472 66.1400  21
   4   2   6 30.3355 81.7272  33
   4   2   6 27.9612 69.8517  23
   4   2   7 5741.10 290.464  37
   4   2   7 5351.98 294.932  33
   4   2   7 5326.76 288.788  23
   4   2   8 1072.81 104.934  37
   4   2   8 971.228 104.137  33
   4   2   8 1064.64 103.472  23
   4   2   9 196.367 60.6720  37
   4   2   9 130.481 59.0224  33
   4   2   9 321.285 64.8965  23
   4   2  10 1899.77 114.921  23
   4   3 -13 4506.66 230.364  13
   4   3 -13 5215.81 234.527  22
   4   3 -12 82.2567 59.7401  31
   4   3 -12 105.408 41.7443  14
   4   3 -11 689.421 86.8355  31
   4   3 -11 792.033 76.8995  14
   4   3 -10 7336.72 372.362  31
   4   3 -10 7677.18 366.904  14
   4   3 -10 7816.95 375.402  22
   4   3  -9 1774.99 140.689  31
   4   3  -9 1981.45 137.741  14
   4   3  -9 1888.15 143.404  22
   4   3  -8 3877.92 209.418  22
   4   3  -8 3784.60 296.108  20
   4   3  -8 3151.45 213.235  38
   4   3  -7 839.465 107.910  38
   4   3  -7 741.007 134.276  20
   4   3  -7 812.695 97.6273  22
   4   3  -6 6466.59 330.694  38
   4   3  -6 6677.38 320.679  26
   4   3  -6 6190.32 317.688  22
   4   3  -6 6457.01 450.331  40
   4   3  -5 1520.25 124.722  32
   4   3  -5 1777.46 127.104  26
   4   3  -5 1519.06 113.218  22
   4   3  -4 6747.32 333.317  38
   4   3  -4 6296.04 311.849  37
   4   3  -4 6456.84 433.079  40
   4   3  -4 6579.96 328.602  26
   4   3  -3 1139.15 95.8723  37
   4   3  -3 1191.21 111.381  35
   4   3  -3 1477.93 120.553  26
   4   3  -3 1102.49 95.5562  21
   4   3  -3 1027.50 166.105  40
   4   3  -2 183.661 63.4040  37
   4   3  -2 173.055 68.9103  35
   4   3  -2 258.908 79.6620  26
   4   3  -2 301.930 59.3321  21
   4   3  -2 232.861 99.7949  40
   4   3  -1 796.654 84.7718  37
   4   3  -1 599.133 83.4474  35
   4   3  -1 644.735 73.3077  21
   4   3  -1 540.472 121.594  40
   4   3   0 4405.15 225.936  37
   4   3   0 4110.75 227.383  35
   4   3   0 3888.54 226.309  26
   4   3   0 3970.69 212.732  21
   4   3   0 3671.33 289.445  40
   4   3   1 11863.4 526.569  37
   4   3   1 10815.7 525.961  35
   4   3   1 11425.4 534.619  33
   4   3   1 10912.4 523.795  26
   4   3   1 11243.2 521.451  23
   4   3   1 11330.4 513.635  21
   4   3   1 10414.0 600.939  40
   4   3   2 516.820 86.8765  37
   4   3   2 405.904 76.6248  35
   4   3   2 271.102 82.1080  33
   4   3   2 291.501 76.8185  26
   4   3   2 265.208 68.7676  23
   4   3   3 89.6991 67.6663  35
   4   3   3 114.623 75.6365  33
   4   3   3 123.477 65.7727  26
   4   3   3 55.3503 66.7905  23
   4   3   4 118.332 85.4142  37
   4   3   4 122.099 67.2017  35
   4   3   4 157.685 81.3313  33
   4   3   4-37.6530 125.786   1
   4   3   4 31.8191 63.0098  23
   4   3   5 1277.82 125.620  37
   4   3   5 1302.23 111.971  35
   4   3   5 1225.78 128.423  33
   4   3   5 1368.81 112.557  23
   4   3   6 1155.85 105.953  35
   4   3   6 1303.23 129.579  33
   4   3   6 1190.63 111.494  23
   4   3   7 2449.67 153.124  37
   4   3   7 2089.49 160.038  33
   4   3   7 2140.28 147.615  23
   4   3   8 3567.68 190.402  37
   4   3   8 3340.37 202.165  33
   4   3   8 3559.66 191.099  23
   4   3   9 342.008 65.6746  33
   4   4 -13 2935.30 153.301  13
   4   4 -12 1103.24 93.0105  31
   4   4 -12 772.398 70.3928  14
   4   4 -11 755.234 91.4355  31
   4   4 -11 694.587 76.8953  14
   4   4 -11 661.308 86.3471  22
   4   4 -10 89.0278 78.1381  31
   4   4 -10 54.6068 66.7909  14
   4   4 -10 111.395 74.0961  22
   4   4  -9 1194.82 108.627  14
   4   4  -9 1155.23 109.297  22
   4   4  -8 3635.31 204.101  14
   4   4  -8 3456.10 198.042  22
   4   4  -8 3045.21 207.311  38
   4   4  -7 59.7888 73.4396  14
   4   4  -7 26.3306 66.1896  22
   4   4  -6 4404.85 249.714  38
   4   4  -6 4603.18 363.823   1
   4   4  -6 4453.17 233.104  22
   4   4  -5 2048.86 150.868  38
   4   4  -5 1897.01 145.816  32
   4   4  -5 2299.74 150.420  26
   4   4  -5 2051.89 130.297  22
   4   4  -5 1876.88 220.339  40
   4   4  -5 2296.75 252.737   1
   4   4  -4-12.4693 75.3015  38
   4   4  -4 49.4478 66.4627  35
   4   4  -4 13.4211 72.9755  32
   4   4  -4 29.4008 79.1703  26
   4   4  -4 61.9385 79.6163  40
   4   4  -3 2365.81 151.287  37
   4   4  -3 2429.97 164.557  35
   4   4  -3 2445.61 161.228  32
   4   4  -3 2238.61 157.265  26
   4   4  -3 1879.30 208.358  40
   4   4  -2 900.842 97.2180  37
   4   4  -2 717.348 96.8487  35
   4   4  -2 759.994 98.2483  32
   4   4  -2 953.150 103.051  26
   4   4  -2 694.966 80.2820  14
   4   4  -2 555.375 119.400  40
   4   4  -1 159.926 73.1294  37
   4   4  -1 165.400 74.1191  35
   4   4  -1 23.3877 49.5436  14
   4   4   0 5678.90 283.208  37
   4   4   0 5513.55 288.636  35
   4   4   0 4887.99 278.696  26
   4   4   1 61.8782 73.6491  37
   4   4   1 97.6132 75.0986  35
   4   4   1 247.011 80.1936  26
   4   4   2 90.9274 73.1565  35
   4   4   2 113.777 131.331   1
   4   4   2 105.101 59.9373  23
   4   4   3 5809.11 304.410  37
   4   4   3 5609.02 301.742  35
   4   4   3 5985.06 314.920  33
   4   4   3 5606.09 406.280   1
   4   4   3 5607.75 289.697  23
   4   4   4 5494.80 289.594  37
   4   4   4 5422.41 289.404  35
   4   4   4 5078.74 265.398   2
   4   4   4 5484.48 302.967  33
   4   4   4 5830.92 280.464  23
   4   4   5 92.3147 80.9803  37
   4   4   5 158.510 72.9564  35
   4   4   5 175.666 89.6175  33
   4   4   5 174.721 60.5975  23
   4   4   6 8719.80 399.662  37
   4   4   6 8179.10 397.760  35
   4   4   6 8190.42 413.499  33
   4   4   6 7798.04 386.092  23
   4   4   7 2433.23 145.528  37
   4   4   7 2227.49 142.535  35
   4   4   7 2360.06 164.093  33
   4   4   8 515.170 79.7521  33
   4   4   9 73.7304 58.6898  33
   4   5 -12 454.983 58.4670  14
   4   5 -12 645.434 73.6781  13
   4   5 -11 209.073 75.1723  31
   4   5 -11 389.606 66.3809  14
   4   5 -11 266.502 68.3963  13
   4   5 -11 286.031 70.4561  22
   4   5 -10 101.381 66.1927  14
   4   5 -10 39.7336 67.4508  22
   4   5  -9 316.123 84.7859  31
   4   5  -9 388.059 82.9648  14
   4   5  -9 404.606 83.9340  22
   4   5  -8 1174.09 117.220  31
   4   5  -8 1336.40 118.095  14
   4   5  -8 1212.89 108.484  22
   4   5  -7 690.106 101.548  38
   4   5  -7 739.355 91.4910  31
   4   5  -7 686.500 85.1804   2
   4   5  -7 641.069 86.4703  22
   4   5  -6 71.4897 79.3399  38
   4   5  -6 52.6582 56.3544  36
   4   5  -6 164.819 140.141   1
   4   5  -6 250.380 74.8867  14
   4   5  -6 41.2514 58.4909  22
   4   5  -5 75.1176 73.9271  38
   4   5  -5-56.8429 67.4705  36
   4   5  -5 66.6328 68.4372  32
   4   5  -5-11.1937 65.2538  14
   4   5  -5-24.8337 143.251   1
   4   5  -4 356.753 82.6881  38
   4   5  -4 433.924 86.3059  35
   4   5  -4 409.141 82.2545  32
   4   5  -4 305.941 149.416   1
   4   5  -4 305.319 73.0585  14
   4   5  -3-17.6459 69.2905  38
   4   5  -3 5.74317 64.1113  37
   4   5  -3 7.49581 70.2348  35
   4   5  -3-33.6945 67.5705  32
   4   5  -3 87.5230 62.4533  14
   4   5  -3 77.8026 138.011   1
   4   5  -2 7343.68 351.808  38
   4   5  -2 7013.88 352.799  37
   4   5  -2 6917.00 363.465  35
   4   5  -2 7906.10 364.234  32
   4   5  -2 6666.81 335.527  14
   4   5  -2 6212.68 476.343   1
   4   5  -1 1155.41 111.018  37
   4   5  -1 1228.74 118.996  35
   4   5  -1 1107.62 207.020   1
   4   5   0 2342.52 273.028   1
   4   5   0 2528.86 170.067  37
   4   5   0 2685.84 178.502  35
   4   5   1 1400.84 132.719  33
   4   5   1 1168.01 211.764   1
   4   5   1 1417.59 128.246  35
   4   5   2 351.952 84.5584  37
   4   5   2 374.235 88.1943  35
   4   5   2 204.233 146.109   1
   4   5   3 7770.15 524.234   1
   4   5   3 9101.77 434.122  37
   4   5   3 8672.87 414.101   2
   4   5   3 9331.41 441.865  35
   4   5   4 9596.83 460.471  37
   4   5   4 9534.73 467.699  35
   4   5   4 9744.34 477.685  33
   4   5   5 1432.73 122.716  37
   4   5   5 1377.47 122.161  35
   4   5   5 1502.28 137.350  33
   4   5   6 13.6996 58.5241  37
   4   5   6 51.1704 63.6456  35
   4   5   6-88.7375 79.3754  33
   4   5   7 218.753 58.6707  35
   4   5   7 166.052 74.4840  33
   4   5   8 399.655 51.3439  35
   4   5   8 327.866 74.9356  33
   4   6 -13 687.404 58.1751  13
   4   6 -12 2298.04 129.877  14
   4   6 -12 2614.27 139.264  13
   4   6 -11 114.492 56.8003  14
   4   6 -11 98.8226 57.7402  13
   4   6 -10 99.7894 73.7198  31
   4   6 -10 87.0784 60.0636  14
   4   6 -10 160.150 63.2687  13
   4   6  -9 1546.29 121.758  31
   4   6  -9 1414.67 114.797  14
   4   6  -9 1316.08 107.833  13
   4   6  -9 1354.97 112.210  22
   4   6  -8 18562.1 847.470  31
   4   6  -8 20434.0 854.076  14
   4   6  -8 18868.1 840.087  13
   4   6  -8 19364.0 843.611  22
   4   6  -8 18247.9 834.622   2
   4   6  -7 183.255 80.2414  38
   4   6  -7 102.207 62.7779  36
   4   6  -7 184.490 69.9938  31
   4   6  -7 9.78839 66.0504   2
   4   6  -6 105.340 81.6748  38
   4   6  -6 34.0531 61.8007  36
   4   6  -6 56.9400 64.8326  31
   4   6  -6 70.7183 73.1659   2
   4   6  -6 154.614 74.2500  14
   4   6  -6 94.9029 136.899   1
   4   6  -5 2403.75 278.689   1
   4   6  -5 2506.67 166.712  36
   4   6  -5 2668.54 166.417   2
   4   6  -5 2419.69 151.969  31
   4   6  -5 2742.44 165.532  14
   4   6  -5 2497.76 165.202  38
   4   6  -4 5100.13 270.634  38
   4   6  -4 5343.49 291.290  35
   4   6  -4 5650.13 422.729   1
   4   6  -4 5331.37 277.400  32
   4   6  -4 4726.17 253.562  31
   4   6  -4 5629.32 270.608  14
   4   6  -3 1773.55 130.256  38
   4   6  -3 1928.12 153.617  35
   4   6  -3 1739.66 135.914  32
   4   6  -3 1823.91 259.379   1
   4   6  -3 2038.69 130.163  14
   4   6  -2-25.3826 60.1054  38
   4   6  -2 75.3387 81.6670  37
   4   6  -2-23.5143 76.3440  35
   4   6  -2 19.4122 64.6512  32
   4   6  -2 21.4247 51.4965  14
   4   6  -1 19.3125 75.4720  37
   4   6  -1 125.422 82.6694  35
   4   6  -1-52.7218 153.683   1
   4   6  -1 45.8622 66.6418  32
   4   6   0 385.105 91.5583  35
   4   6   0 266.082 82.6926   2
   4   6   0 504.831 169.183   1
   4   6   1 1348.54 120.082   2
   4   6   1 1539.21 138.632  35
   4   6   1 1597.34 135.453  33
   4   6   1 1105.73 206.040   1
   4   6   2-25.4490 76.1543  37
   4   6   2 160.648 80.9742  35
   4   6   2 92.5297 82.3876  33
   4   6   2 105.347 135.051   1
   4   6   2 97.9631 70.3810   2
   4   6   3 14850.2 691.850  37
   4   6   3 15287.3 704.874  35
   4   6   3 15829.0 709.682  33
   4   6   3 15016.7 675.290   2
   4   6   4 2528.93 160.706  37
   4   6   4 2322.36 166.338  35
   4   6   5 817.639 85.7512  37
   4   6   5 711.791 93.1315  35
   4   6   6 468.272 73.9898  35
   4   6   6 485.685 84.9639  33
   4   6   7 2683.92 148.338  35
   4   6   7 2700.19 162.005  33
   4   7 -13 157.348 30.8661   3
   4   7 -12 2111.36 113.666   3
   4   7 -12 1927.53 107.300  14
   4   7 -12 1891.77 111.125  13
   4   7 -11 104.868 53.4554  14
   4   7 -11 151.306 53.4388  13
   4   7 -10 236.844 64.1675  14
   4   7 -10 307.594 61.7591  13
   4   7  -9 63.3718 41.0530   4
   4   7  -9 175.739 68.7823  31
   4   7  -9 149.481 72.0295  14
   4   7  -9 110.179 55.5442  13
   4   7  -8 7110.92 327.811  31
   4   7  -8 6485.56 313.979  13
   4   7  -8 6250.46 313.871   4
   4   7  -8 6954.14 320.152   2
   4   7  -7 402.929 78.7257  36
   4   7  -7 488.793 77.1663  31
   4   7  -7 472.942 81.6034   2
   4   7  -7 692.555 95.0161  14
   4   7  -7 532.595 60.5630   4
   4   7  -6 605.151 86.4035  36
   4   7  -6 493.132 72.1397  31
   4   7  -6 543.009 84.9076   2
   4   7  -6 595.491 86.0556  14
   4   7  -5 2125.42 158.312  36
   4   7  -5 2276.35 137.662  31
   4   7  -5 2332.80 272.836   1
   4   7  -5 2467.80 154.293  14
   4   7  -5 2521.48 161.463   2
   4   7  -5 2502.64 153.681  38
   4   7  -4 639.010 81.7693  38
   4   7  -4 615.090 99.1416  36
   4   7  -4 728.180 95.1475   2
   4   7  -4 660.169 85.8083  14
   4   7  -4 536.430 67.9216   3
   4   7  -3 3847.45 350.186   1
   4   7  -3 4284.14 226.016   2
   4   7  -3 3758.57 213.728  32
   4   7  -3 4048.34 209.886  14
   4   7  -3 3710.23 204.842  38
   4   7  -2 2839.42 185.969  35
   4   7  -2 2542.76 158.627  32
   4   7  -2 2435.89 143.806  14
   4   7  -1 5273.59 282.752  35
   4   7  -1 4869.38 254.644  32
   4   7  -1 4787.47 392.352   1
   4   7  -1 4706.69 261.465   2
   4   7   0 1806.54 152.871  35
   4   7   0 1812.16 126.230  32
   4   7   0 1868.02 135.348   2
   4   7   1 2015.29 147.705  37
   4   7   1 1984.48 157.345  35
   4   7   1 1825.97 123.861  32
   4   7   1 1827.50 132.238   2
   4   7   2 2454.96 165.548  37
   4   7   2 2707.25 178.152  35
   4   7   2 2307.22 170.509  33
   4   7   2 2580.45 154.895   2
   4   7   3 386.753 86.2580  35
   4   7   3 240.772 84.3056  33
   4   7   4 2340.48 159.609  35
   4   7   4 2545.38 164.703  33
   4   7   5 85.5234 61.7372  35
   4   7   6 2968.45 165.011  35
   4   7   7 664.501 54.1447  35
   4   8 -12 1162.83 69.2537  14
   4   8 -11 37.9079 48.7833  14
   4   8 -10 144.884 56.2333  14
   4   8 -10 93.1877 49.8288   3
   4   8  -9 3137.09 170.520   3
   4   8  -9 3018.32 171.892  14
   4   8  -8 6330.78 307.920   3
   4   8  -7 1584.18 112.547   3
   4   8  -7 1450.50 119.868  14
   4   8  -7 1595.06 117.362   2
   4   8  -6 464.508 87.6498  36
   4   8  -6 685.795 85.5677   2
   4   8  -6 685.092 83.3539  14
   4   8  -6 590.906 73.7325   3
   4   8  -5 258.386 82.3471  36
   4   8  -5 153.070 72.8666   2
   4   8  -5 260.251 58.1592   3
   4   8  -5 186.481 66.4945  14
   4   8  -4 2601.15 169.614  36
   4   8  -4 2381.61 172.882  35
   4   8  -4 2280.94 137.562   3
   4   8  -4 2738.14 151.865  14
   4   8  -4 2376.06 158.120   2
   4   8  -3 1738.20 141.452  36
   4   8  -3 1610.06 111.523  14
   4   8  -3 1786.04 133.171   2
   4   8  -2 97.2125 82.6202  36
   4   8  -1 2590.30 164.822   2
   4   8   0 1608.09 134.602  35
   4   8   0 985.505 101.206   2
   4   8   1 823.502 105.523  35
   4   8   1 879.233 88.4808   2
   4   8   2 552.941 91.2101  35
   4   8   3-39.9451 54.6222  36
   4   8   3 147.307 67.9307  35
   4   8   4 969.893 91.9897  35
   4   8   5 842.206 78.7012  35
   4   8   6 946.990 65.7103  35
   4   9 -11 191.041 38.7498   3
   4   9 -11 175.945 40.2865  14
   4   9 -10 152.897 46.6406   3
   4   9 -10 174.721 50.2990  14
   4   9  -9 2289.98 130.254   3
   4   9  -8 908.240 77.5970   3
   4   9  -8 973.079 87.8943  14
   4   9  -7 912.663 80.6176   3
   4   9  -7 1150.26 89.8827  14
   4   9  -6 5273.58 267.783  36
   4   9  -6 5125.10 253.464   3
   4   9  -6 5365.57 260.392  14
   4   9  -5 37.3891 69.2253  36
   4   9  -5 63.4723 64.6054   2
   4   9  -5 58.9276 54.5635  14
   4   9  -4-61.1625 75.2933  36
   4   9  -4-6.06916 71.8582  35
   4   9  -4-35.5063 66.6682   2
   4   9  -4 32.2703 51.9074  14
   4   9  -3 1057.28 106.902  36
   4   9  -3 984.991 107.490  35
   4   9  -2 807.846 101.225  35
   4   9  -2 779.448 89.8291   2
   4   9  -1 1250.10 111.159  36
   4   9   0 719.349 84.3780  36
   4   9   1 678.557 77.0103  36
   4   9   1 678.660 87.9368  35
   4   9   2 984.720 78.9628  36
   4   9   2 1055.27 99.6850  35
   4   9   3 151.082 64.3148  35
   4   9   4 73.4054 45.8513  35
   4  10 -10 12.6900 30.3591   3
   4  10 -10 30.4591 35.7489  14
   4  10  -9 923.424 63.6278   3
   4  10  -8 55.1242 51.8564  14
   4  10  -7 1971.60 116.421  14
   4  10  -6 2555.56 138.328  14
   4  10  -5 2369.41 146.076  36
   4  10  -4 113.580 68.7347  36
   4  10  -3 257.929 65.1435  35
   4  10  -2 1265.04 99.1840  36
   4  10  -2 1211.35 101.292  35
   4  10  -1 191.986 60.1303  36
   4  10  -1 155.867 63.4563  35
   4  10   0 691.622 71.4456  36
   4  10   0 648.314 85.2164  35
   4  10   3 176.097 33.6064  35
  -5  10   0 141.058 40.6265  30
  -5  10   0 74.4357 41.0032  28
  -5  10  -1 235.831 50.8094  30
  -5  10  -1 241.466 46.7609  28
  -5  10  -2 482.849 62.8691  30
  -5  10  -2 519.859 55.6975  28
  -5  10  -4 109.799 45.6210  30
  -5  10  -5 596.950 57.0784  30
  -5   9   3 22.0912 37.4440  10
  -5   9   3-36.0826 34.0478  29
  -5   9   3 7.71906 39.1500  28
  -5   9   2-60.4113 42.0040  30
  -5   9   2 30.8332 50.7202  28
  -5   9   1 14.1255 47.2654  30
  -5   9   0 46.4051 50.6115  30
  -5   9  -1 1239.81 100.027  30
  -5   9  -1 1245.63 92.1531  28
  -5   9  -2 129.422 64.7824  30
  -5   9  -2 187.507 49.9735  28
  -5   9  -3 1294.45 90.0970  28
  -5   9  -4 13.3144 56.5404  30
  -5   9  -4-70.1396 42.4187  28
  -5   9  -5 531.837 67.1272  30
  -5   9  -6 2832.44 149.986  30
  -5   8   6 313.049 35.5329  29
  -5   8   5 1672.24 95.3194  29
  -5   8   4 197.827 53.3318  29
  -5   8   4 180.542 52.3669  28
  -5   8   3 1594.66 99.6532  30
  -5   8   3 1780.75 107.190  29
  -5   8   3 1795.98 111.105  28
  -5   8   2 439.883 62.7540  30
  -5   8   2 498.236 63.2586  29
  -5   8   2 548.244 70.0951  28
  -5   8   1 152.472 61.1354  30
  -5   8   1 162.932 54.3369  29
  -5   8   1 122.754 59.3437  28
  -5   8   0 561.551 82.2061  30
  -5   8   0 577.553 65.1165  29
  -5   8  -1 198.841 71.9235  30
  -5   8  -1 193.619 51.5834  29
  -5   8  -1 295.125 66.7360  28
  -5   8  -2 231.979 74.6365  30
  -5   8  -2 263.616 67.4304  28
  -5   8  -3 639.402 75.4503  28
  -5   8  -4 1416.07 114.412  30
  -5   8  -4 1462.64 101.000  28
   5  -8   4 1355.98 99.3166  21
   5  -8   5 131.972 55.4101  21
  -5   8  -5 202.806 62.8938  30
  -5   8  -5 214.707 49.7740  28
  -5   8  -6 1108.78 87.0200  30
   5  -8   6 1178.23 91.2682  21
   5  -8   7 1559.30 104.276  21
   5  -8   8 27.6045 51.9492  21
   5  -8   9 923.677 65.0366  21
  -5   7   7 4422.84 202.660  29
   5  -7  -7 4323.63 202.688  27
  -5   7   6 699.008 65.8212  29
  -5   7   5 45.5678 43.3449  28
  -5   7   4 95.9504 56.6668  29
  -5   7   4 56.5083 49.5083  28
  -5   7   3 245.750 56.4821  30
  -5   7   3 195.222 62.7358  29
  -5   7   3 261.583 63.1391  28
  -5   7   2 42.6429 56.5627  30
  -5   7   2-26.8817 59.9698  29
  -5   7   2 62.8940 61.0693  28
  -5   7   1 4972.19 271.840  30
  -5   7   1 5339.95 268.184  28
  -5   7   0 1240.61 114.724  30
  -5   7   0 1147.66 107.772  28
  -5   7  -1 2818.59 179.189  30
   5  -7   1 2604.56 156.408  21
  -5   7  -2 911.643 115.421  30
   5  -7   2 1093.09 95.5750  21
  -5   7  -3 1963.27 151.115  30
   5  -7   3 2279.94 145.001  21
  -5   7  -4 5107.52 272.700  30
   5  -7   4 5144.11 268.152  21
  -5   7  -5 77.3103 60.4827  30
   5  -7   5 69.7295 66.2132  21
  -5   7  -6 1096.31 93.1985  30
   5  -7   6 1317.86 108.572  21
   5  -7   7 166.038 66.0024  21
   5  -7   8 2168.73 137.896  21
   5  -7   9 691.829 73.8595  21
   5  -7  10 52.3520 39.4714  21
  -5   6   8 152.400 36.6755  29
   5  -6  -8 169.558 42.9957  27
  -5   6   7 628.443 65.2934  29
   5  -6  -7 643.129 76.6170  27
  -5   6   6 88.3344 53.1130  29
  -5   6   6 69.3806 40.4371  28
  -5   6   5 1600.62 116.639  29
  -5   6   5 1769.52 109.481  28
  -5   6   4 185.222 52.8554  30
  -5   6   4 263.112 61.5376  28
  -5   6   3 427.090 74.6398  30
  -5   6   3 193.696 63.1805  28
  -5   6   2 2610.06 161.421  28
   5  -6  -1 5455.49 275.059  21
   5  -6   0 27.9829 60.6824  21
   5  -6   1 8471.63 410.886  21
   5  -6   2 399.319 82.1222  21
   5  -6   3 2242.85 159.312  21
   5  -6   4 7960.85 396.857  21
  -5   6  -5 298.630 75.4530  30
   5  -6   5 410.064 85.5936  21
  -5   6  -6 1558.22 114.368  30
   5  -6   6 1772.65 136.375  21
   5  -6   7 714.784 92.2054  21
   5  -6   8 33.2433 64.4431  21
   5  -6   9 1189.12 103.321  21
   5  -6  10 551.097 63.2518  21
  -5   5   9-14.0054 29.9498  29
  -5   5   8 766.856 68.4889  29
   5  -5  -8 872.900 79.5261  27
  -5   5   7 2936.61 159.003  29
  -5   5   6 246.043 65.2586  29
  -5   5   6 306.865 50.2019  28
  -5   5   5 3198.80 178.867  29
  -5   5   5 2889.61 165.004  28
  -5   5   4 5307.36 268.368  28
  -5   5   3 187.635 70.7574  28
   5  -5  -2 265.183 66.6786  21
  -5   5   1 3311.16 290.868  18
   5  -5  -1 3792.96 207.093  21
   5  -5  -1 2892.77 311.975  40
  -5   5   0 3339.99 289.302  18
   5  -5   0 3281.01 196.798  21
   5  -5   0 2966.74 314.585  40
  -5   5  -1 810.109 154.577  18
   5  -5   1 888.535 102.091  21
   5  -5   1 834.280 180.927  40
   5  -5   2 227.357 80.6074  21
  -5   5  -2 278.843 117.736  18
   5  -5   2 214.031 131.562  40
  -5   5  -3 597.375 146.646  18
   5  -5   3 665.187 98.7352  21
   5  -5   4 384.507 92.2464  21
   5  -5   5 2206.65 148.892  23
   5  -5   5 2373.51 171.517  21
   5  -5   6 545.713 82.5514  23
   5  -5   6 534.927 97.2990  21
   5  -5   7 5513.41 276.167  23
   5  -5   7 5290.47 289.148  21
   5  -5   8 969.783 88.0688  23
   5  -5   8 1007.17 108.224  21
   5  -5   9 1408.96 99.9774  23
   5  -5   9 1594.22 117.792  21
   5  -5  10 850.035 70.3233  23
   5  -4 -10 195.784 39.6034  22
  -5   4   9 265.782 47.0048  29
   5  -4  -9 262.416 55.0163  27
  -5   4   8 126.422 48.5809  29
   5  -4  -8 116.548 55.0730  27
  -5   4   7 64.3797 55.2836  29
  -5   4   6 665.958 79.8571  29
  -5   4   6 557.492 63.8583  28
  -5   4   5 960.695 87.0951  28
  -5   4   4 642.297 76.4577  28
  -5   4   3 39.2043 93.3349  18
   5  -4  -3 81.0222 62.9783  21
   5  -4  -3 28.7875 118.690  40
  -5   4   2 11463.7 639.117  18
   5  -4  -2 11515.9 537.528  21
   5  -4  -2 10814.0 694.148  40
  -5   4   1 1438.54 190.899  18
   5  -4  -1 1452.37 124.186  21
   5  -4  -1 1596.16 232.183  40
  -5   4   0 1938.13 217.902  18
   5  -4   0 2022.52 148.788  21
   5  -4   0 1744.23 251.235  40
  -5   4  -1-22.4844 107.169  18
   5  -4   1 238.547 80.5237  21
   5  -4   1 153.337 134.199  40
   5  -4   2 12379.9 588.190  21
   5  -4   2 12380.3 753.421  40
  -5   4  -3 5300.06 391.285  17
   5  -4   3 5754.19 304.388  21
   5  -4   3 4846.24 432.763  40
  -5   4  -4 1674.98 205.744  17
   5  -4   4 1474.36 125.562  23
   5  -4   4 1582.07 138.651  21
   5  -4   4 1357.25 230.191  40
   5  -4   5 405.393 84.0348  23
   5  -4   5 536.895 102.065  21
   5  -4   6 2640.51 176.020  23
   5  -4   6 2895.28 190.820  21
   5  -4   7 7176.93 357.185  23
   5  -4   7 7186.27 368.575  21
   5  -4   8 1338.88 110.582  23
   5  -4   9 1423.08 107.173  23
   5  -4  10 34.5556 54.8855  23
   5  -4  10 47.8091 60.2712  21
   5  -4  11 203.543 45.2851  37
   5  -4  11 274.811 40.2831  23
   5  -4  11 232.913 44.9724  21
  -5   3   9 538.000 54.4010  29
  -5   3   8 273.136 55.4662  29
   5  -3  -8 296.882 62.4415  27
  -5   3   7 848.090 85.3082  29
   5  -3  -7 1026.80 89.6559  27
  -5   3   6 5995.12 299.321  29
  -5   3   5 2711.36 156.510  28
   5  -3  -4-26.6801 63.3376  38
  -5   3   4 36.1916 81.9953  18
   5  -3  -4-59.0824 121.771  40
  -5   3   3 1774.60 194.186  18
   5  -3  -3 2034.59 142.480  21
   5  -3  -3 1590.19 235.389  40
  -5   3   2 1578.38 187.852  18
   5  -3  -2 2103.69 144.837  21
   5  -3  -2 1584.99 238.366  40
  -5   3   1 899.206 157.281  18
   5  -3  -1 825.922 186.724  40
  -5   3   0 4128.45 334.195  18
   5  -3   0 4990.03 263.683  21
   5  -3   0 3875.30 370.780  40
  -5   3  -1 2485.32 247.104  18
   5  -3   1 2479.50 171.224  21
   5  -3   1 1973.80 260.659  40
   5  -3   2 439.316 92.7248  21
   5  -3   2 505.774 179.437  40
  -5   3  -3 445.136 141.437  17
   5  -3   3 715.371 95.1243  23
   5  -3   3 642.826 102.682  21
  -5   3  -4 1835.97 219.336  17
   5  -3   4 1984.45 149.605  23
   5  -3   4 2146.47 162.571  21
  -5   3  -5 2401.47 254.073  17
   5  -3   5 2534.36 169.598  23
   5  -3   5 1921.79 268.889  40
   5  -3   6 4776.04 265.660  23
   5  -3   7 40.1703 73.4559  23
   5  -3   7 7.28873 81.5978  21
   5  -3   8 812.552 96.3819  23
   5  -3   8 806.539 97.8344  21
   5  -3   9 146.048 63.4736  23
   5  -3   9 166.639 69.4484  21
   5  -3  10 1040.17 90.3119  23
   5  -3  10 1144.10 93.9348  21
   5  -3  11 24.3984 39.3995  37
   5  -3  11 73.5738 40.3875  23
   5  -2 -10 24.6081 39.9232  14
   5  -2  -9 1377.81 93.0275  31
  -5   2   9 1372.14 86.0081  29
  -5   2   8 47.3770 49.4844  29
  -5   2   7 379.047 67.0554  29
   5  -2  -7 261.706 64.3134  27
   5  -2  -6 1811.77 126.794  38
   5  -2  -5 3185.92 187.493  38
   5  -2  -5 3144.06 318.840  40
   5  -2  -4 935.099 106.104  38
   5  -2  -4 719.064 178.550  40
  -5   2   3 5143.94 360.788  18
   5  -2  -3 5693.85 289.130  32
   5  -2  -3 5678.41 299.534  21
  -5   2   2 7287.95 456.183  18
   5  -2  -2 7686.87 373.815  32
   5  -2  -2 7921.23 385.010  21
   5  -2  -2 6797.41 518.039  40
  -5   2   1 2799.49 243.173  18
   5  -2  -1 2837.49 173.605  32
   5  -2  -1 2603.11 179.820  21
   5  -2  -1 3037.05 313.067  40
  -5   2   0 1922.22 210.782  18
   5  -2   0 2227.98 159.086  21
   5  -2   1 1630.44 137.999  21
  -5   2  -2 6494.27 442.506  17
   5  -2   2 7246.07 362.454  23
   5  -2   2 7500.64 520.228  40
  -5   2  -3 22731.8 1130.43  17
   5  -2   3 22925.3 1023.31  23
   5  -2   3 22446.4 1204.94  40
  -5   2  -4 312.229 124.319  17
   5  -2   4 446.540 86.0876  23
   5  -2   4 432.299 97.1256  21
   5  -2   4 484.251 157.044  40
  -5   2  -5 4178.74 340.109  17
   5  -2   5 4558.36 257.118  23
   5  -2   5 4485.99 257.350  21
   5  -2   5 4211.67 388.823  40
   5  -2   6 70.9768 58.8709  26
   5  -2   6 191.007 83.5383  23
   5  -2   6 144.563 83.8631  21
   5  -2   7 2207.31 158.624  23
   5  -2   7 2104.56 156.903  21
   5  -2   8 518.527 86.6070  23
   5  -2   8 559.099 86.3008  21
   5  -2   9 1045.87 95.7047  23
   5  -2   9 841.073 86.3569  21
   5  -2  10 1307.87 98.2389  37
   5  -2  10 1088.09 94.3379  23
   5  -2  10 1332.77 91.8744  21
   5  -2  11 400.624 48.3602  23
   5  -1 -10 132.009 47.4246  31
   5  -1 -10 147.484 48.3418  14
   5  -1  -9 1352.76 99.9131  31
  -5   1   8 2924.04 158.257  29
  -5   1   7 6352.95 302.885  29
   5  -1  -7 6089.00 310.103  38
   5  -1  -6 370.588 81.4081  38
   5  -1  -6 297.313 77.1257  26
   5  -1  -5 694.104 100.038  38
   5  -1  -5 651.301 101.556  26
   5  -1  -5 814.228 181.759  40
   5  -1  -4 4696.47 258.376  32
   5  -1  -4 5014.34 263.200  21
   5  -1  -4 4720.02 405.992  40
   5  -1  -3 6532.53 339.163  32
   5  -1  -3 6890.38 343.649  21
   5  -1  -2 4153.94 236.798  32
   5  -1  -2 4191.37 238.392  21
  -5   1   1 17.0941 83.9995  18
   5  -1  -1 148.558 70.8360  32
   5  -1  -1 127.996 74.1575  21
   5  -1  -1 175.875 132.902  40
   5  -1   0 37359.9 1631.62  37
  -5   1   0 38172.7 1742.10  18
   5  -1   0 39453.7 1836.49  40
   5  -1   1 1200.67 210.814  40
   5  -1   2 330.724 85.1793  23
   5  -1   2 129.399 75.5138  21
   5  -1   2 208.408 137.510  40
   5  -1   3 1084.08 112.831  23
   5  -1   3 929.838 111.098  21
   5  -1   3 882.949 182.277  40
   5  -1   4 295.450 86.0467  23
   5  -1   4 284.952 85.7532  21
   5  -1   4 183.849 136.905  40
   5  -1   5 1085.98 105.083  26
   5  -1   5 1317.73 125.870  23
   5  -1   5 1062.90 116.041  21
   5  -1   5 997.185 192.742  40
   5  -1   6 2627.79 179.014  23
   5  -1   6 2483.67 174.721  21
   5  -1   7 254.007 85.6245  23
   5  -1   7 274.552 77.1664  21
   5  -1   8 3925.76 229.363  23
   5  -1   8 4379.56 225.426  21
   5  -1   9 149.906 69.3507  37
   5  -1   9 194.999 53.7786  21
   5  -1  10 96.8464 53.4243  37
   5  -1  11 3080.24 147.951  23
   5   0 -11 87.0334 46.6156  31
   5   0 -11 171.904 41.2091  14
   5   0 -10 27.4480 51.4332  31
   5   0 -10 75.4555 50.4070  14
   5   0 -10 23.1671 60.8955  22
   5   0  -9 1097.04 97.7155  31
   5   0  -8 2054.72 142.391  38
   5   0  -7 1041.88 110.032  38
   5   0  -6 126.218 81.1979  38
   5   0  -6 41.3376 96.9483  20
   5   0  -6 72.3491 68.7833  26
   5   0  -5 100.118 84.9926  38
   5   0  -5-80.5272 101.640  20
   5   0  -5 67.1872 81.4286  26
   5   0  -4 217.342 76.2912  32
   5   0  -4 270.866 92.9679  26
   5   0  -4 237.642 73.2251  21
   5   0  -4 294.077 140.347  40
   5   0  -3 9882.97 476.101  32
   5   0  -3 9753.20 625.189  40
   5   0  -2 1983.13 146.798  32
   5   0  -2 1332.58 221.719  40
   5   0  -1 285.655 69.6258  37
   5   0  -1 645.389 90.8000  21
   5   0  -1 397.553 152.104  40
   5   0   0 568.714 84.5214  37
   5   0   0 529.993 91.1973  21
   5   0   0 559.144 152.402  40
   5   0   1 7889.45 383.412  37
   5   0   1 8016.86 394.183  21
   5   0   1 6800.98 505.957  40
   5   0   2 542.665 90.4174  23
   5   0   2 559.944 93.2830  21
   5   0   2 562.441 158.668  40
   5   0   3 236.702 91.6039  26
   5   0   3 145.690 73.7461  21
   5   0   3 254.074 128.174  40
   5   0   4 918.330 104.016  26
   5   0   4 920.855 104.696  21
   5   0   4 618.972 154.081  40
   5   0   5 2001.57 133.278  26
   5   0   5 1910.55 145.933  21
   5   0   6 1303.17 117.344  21
   5   0   7 468.780 76.3913  21
   5   0   8 517.979 85.1932  37
   5   0   8 795.092 90.1008  23
   5   0   9 200.442 64.8216  37
   5   0   9 286.720 64.6536  23
   5   0  10 37.0248 38.3742  37
   5   0  10 75.1225 43.5470  23
   5   1 -12 23.2400 41.2034  22
   5   1 -11 162.863 57.9793  31
   5   1 -11 222.114 47.7882  14
   5   1 -11 297.745 65.3417  22
   5   1 -10 3728.92 196.604  31
   5   1 -10 3697.75 192.811  14
   5   1 -10 3820.68 199.182  22
   5   1  -9 91.1306 67.7600  31
   5   1  -9 92.2614 66.2113  22
   5   1  -8 724.528 98.2913  38
   5   1  -7 4198.68 239.941  38
   5   1  -6 356.013 93.4763  38
   5   1  -6 322.479 81.3917  26
   5   1  -6 409.356 144.200  40
   5   1  -5 3889.06 223.497  38
   5   1  -5 3478.07 214.611  32
   5   1  -5 3715.37 214.459  26
   5   1  -5 3379.42 331.954  40
   5   1  -4 286.320 81.0462  32
   5   1  -4 306.292 92.1807  26
   5   1  -4 258.477 141.428  40
   5   1  -3 1798.04 142.894  32
   5   1  -3 1822.22 150.579  26
   5   1  -3 1718.16 134.392  21
   5   1  -3 1545.40 226.404  40
   5   1  -2 21005.1 952.567  32
   5   1  -2 22085.1 953.600  26
   5   1  -2 20628.3 942.030  21
   5   1  -2 19502.6 1087.38  40
   5   1  -1 928.020 97.0534  37
   5   1  -1 1233.39 128.381  26
   5   1  -1 1047.01 108.870  21
   5   1   0 2847.90 183.585  37
   5   1   0 3425.23 194.730  21
   5   1   0 3055.16 295.677  40
   5   1   1 2979.54 184.449  37
   5   1   1 2881.07 190.606  26
   5   1   1 2814.48 181.508  21
   5   1   1 2432.47 264.978  40
   5   1   2 6207.59 319.650  37
   5   1   2 5744.90 315.949  26
   5   1   2 6291.96 321.620  23
   5   1   2 6103.51 316.414  21
   5   1   2 5965.77 435.944  40
   5   1   3 2725.77 176.401  37
   5   1   3 2388.58 163.584  26
   5   1   3 2378.40 168.753  23
   5   1   3 2514.52 164.249  21
   5   1   4 324.334 95.8708  37
   5   1   4 365.281 80.8638  26
   5   1   4 305.278 84.5382  23
   5   1   4 314.458 74.5300  21
   5   1   5 4180.35 232.844  37
   5   1   5 3510.71 198.775  26
   5   1   5 4241.20 231.453  23
   5   1   5 3657.29 211.594  21
   5   1   6 4864.87 258.590  23
   5   1   6 4532.73 241.360  21
   5   1   7 3151.85 187.395  37
   5   1   7 2992.98 183.261  23
   5   1   8 512.363 79.6313  37
   5   1   8 516.331 73.1780  23
   5   1   9-50.8157 58.0114  37
   5   1   9 41.3902 55.5979  23
   5   2 -12 913.679 67.5248  22
   5   2 -11 1342.95 97.4719  31
   5   2 -11 1311.07 90.1078  14
   5   2 -11 1482.52 100.965  22
   5   2 -10 1072.71 94.6724  31
   5   2 -10 1113.40 90.6149  14
   5   2 -10 1113.68 94.7389  22
   5   2  -9 177.755 74.2890  31
   5   2  -9 246.168 71.1504  14
   5   2  -9 155.593 65.1763  22
   5   2  -8 915.066 109.376  38
   5   2  -8 941.169 96.9489  22
   5   2  -7 270.775 95.7345  38
   5   2  -7 439.503 76.3596  22
   5   2  -6 1264.15 126.180  38
   5   2  -6 1436.94 114.148  26
   5   2  -6 1003.05 95.4546  22
   5   2  -6 841.033 176.913  40
   5   2  -5 20829.3 885.172  38
   5   2  -5 19151.5 881.254  32
   5   2  -5 20810.2 876.756  26
   5   2  -5 18296.2 852.367  22
   5   2  -5 18597.0 1034.04  40
   5   2  -4 3028.57 193.695  38
   5   2  -4 2689.19 182.907  32
   5   2  -4 2750.74 185.051  26
   5   2  -4 2434.10 275.814  40
   5   2  -3 7424.27 372.757  32
   5   2  -3 7303.88 369.355  26
   5   2  -3 7057.52 356.230  21
   5   2  -3 6472.01 482.748  40
   5   2  -2 7371.29 363.168  37
   5   2  -2 7986.27 389.227  32
   5   2  -2 7814.61 386.114  26
   5   2  -2 7190.71 368.649  21
   5   2  -2 7262.21 499.142  40
   5   2  -1 3469.39 193.383  37
   5   2  -1 3301.10 193.018  21
   5   2   0 7101.86 346.176  37
   5   2   0 6577.93 342.893  35
   5   2   0 6909.72 358.680  26
   5   2   0 7093.36 346.052  21
   5   2   0 6360.79 457.976  40
   5   2   1 9201.88 436.587  37
   5   2   1 8616.76 427.048  35
   5   2   1 8771.51 437.536  26
   5   2   1 9083.09 430.878  21
   5   2   1 9171.44 557.013  40
   5   2   2 1193.89 121.186  37
   5   2   2 912.395 114.568  26
   5   2   2 1205.42 112.664  23
   5   2   2 1118.01 100.934  21
   5   2   3 1842.94 146.436  37
   5   2   3 1751.68 135.357  26
   5   2   3 1671.34 133.353  23
   5   2   3 1540.52 121.116  21
   5   2   4 120.115 90.6692  37
   5   2   4 122.897 63.2032  26
   5   2   4 148.569 72.2666  23
   5   2   4 93.8267 56.0412  21
   5   2   5 63.9937 70.0497  23
   5   2   6 562.675 94.0494  37
   5   2   6 317.416 72.0885  23
   5   2   7 1395.45 109.481  37
   5   2   7 1236.12 101.497  23
   5   2   8 24.7138 55.4204  37
   5   2   8 10.8496 46.2545  23
   5   3 -12 1311.02 82.2385  13
   5   3 -11 64.8403 62.6072  31
   5   3 -11 66.3029 50.7453  14
   5   3 -11 37.3395 56.1579  22
   5   3 -10 676.339 82.3032  31
   5   3 -10 618.045 76.1370  14
   5   3 -10 785.148 77.3001  22
   5   3  -9 2796.70 169.277  31
   5   3  -9 3000.26 168.721  14
   5   3  -9 2703.17 160.495  22
   5   3  -8 1860.71 142.418  14
   5   3  -8 2310.27 138.165  22
   5   3  -8 2086.19 155.022  38
   5   3  -7 2948.96 168.889  22
   5   3  -7 3095.83 197.074  38
   5   3  -6 4197.85 236.489  38
   5   3  -6 3838.83 204.345  22
   5   3  -5 1659.22 134.460  32
   5   3  -5 1464.07 125.953  26
   5   3  -4 289.252 87.5135  32
   5   3  -4 126.265 113.238  40
   5   3  -3 6303.35 310.745  37
   5   3  -3 6483.03 333.606  32
   5   3  -3 6154.71 329.328  26
   5   3  -3 5687.11 425.922  40
   5   3  -2 169.809 73.3962  37
   5   3  -2 137.076 87.6524  26
   5   3  -2 126.820 60.7711  21
   5   3  -2 115.132 100.841  40
   5   3  -1 29.9620 71.1273  37
   5   3  -1-6.99139 68.0965  35
   5   3  -1 45.5207 48.8722  14
   5   3  -1-43.6746 54.9312  21
   5   3   0 5153.54 274.614  37
   5   3   0 5054.31 274.176  35
   5   3   0 4905.26 278.479  26
   5   3   0 5094.85 260.831  21
   5   3   1 1076.59 113.771  37
   5   3   1 1121.37 109.428  35
   5   3   1 887.036 115.329  26
   5   3   1 1052.35 93.1373  21
   5   3   2 59.7958 83.8706  37
   5   3   2-6.34377 62.4979  35
   5   3   2 111.710 78.0802  26
   5   3   2 33.2874 47.2022  21
   5   3   3 1921.17 148.102  37
   5   3   3 1809.54 132.572  35
   5   3   4 4867.98 258.146  23
   5   3   5-34.6345 78.0180  37
   5   3   5-10.6506 57.9093  23
   5   3   6 39.7042 68.7569  37
   5   3   6 26.9852 51.6272  23
   5   3   7 876.452 83.6954  37
   5   3   8 67.0787 49.8556  37
   5   4 -12 434.376 48.1901  13
   5   4 -11 1565.85 98.7729  14
   5   4 -11 1399.70 99.6597  13
   5   4 -10 352.982 63.5440  14
   5   4 -10 450.480 61.9253  22
   5   4  -9 6759.12 331.283  14
   5   4  -9 6967.73 324.914  22
   5   4  -8 1368.77 115.155  31
   5   4  -8 1518.67 118.683  14
   5   4  -8 1345.16 102.505  22
   5   4  -8 1428.72 127.800  38
   5   4  -7 3011.15 185.708  31
   5   4  -7 3212.08 170.063  22
   5   4  -6 477.345 90.6507  14
   5   4  -5 4419.89 251.893  38
   5   4  -5 4481.44 242.911  14
   5   4  -4 13072.7 602.200  38
   5   4  -4 12801.7 588.895  14
   5   4  -4 12136.0 752.765   1
   5   4  -3 469.785 99.4929  38
   5   4  -3 382.284 76.9918  37
   5   4  -3 440.822 95.0934  32
   5   4  -3 386.394 100.232  26
   5   4  -3 349.955 71.9088  14
   5   4  -3 279.916 167.345   1
   5   4  -2 195.601 86.8023  38
   5   4  -2 194.565 76.4586  37
   5   4  -2 221.081 82.4071  35
   5   4  -2 122.072 76.6366  32
   5   4  -2 259.149 95.7029  26
   5   4  -2 179.390 56.9870  14
   5   4  -2 169.951 160.072   1
   5   4  -1 24.7920 71.5050  37
   5   4  -1-51.4569 74.7355  35
   5   4  -1 83.9259 146.998   1
   5   4  -1 7.82131 79.7891  32
   5   4   0 13011.1 603.050  37
   5   4   0 12829.3 607.387  35
   5   4   0 12905.1 763.689   1
   5   4   1 481.406 94.0679  37
   5   4   1 335.264 82.0873  35
   5   4   2 206.446 90.7237  37
   5   4   2 191.099 72.9762  35
   5   4   3 1495.43 123.201  35
   5   4   4-31.3972 58.5925  35
   5   4   5 59.9288 70.8588  37
   5   4   6 288.622 67.5379  37
   5   4   7-30.2441 52.6677  37
   5   5 -11 1732.52 103.405  14
   5   5 -11 1846.25 102.006  13
   5   5 -10 1008.68 89.3956  31
   5   5 -10 818.034 80.2958  14
   5   5 -10 954.335 75.3390  13
   5   5  -9 874.265 87.2165  31
   5   5  -9 778.590 85.0816  14
   5   5  -8 240.515 69.2637  31
   5   5  -7 542.278 96.7607  38
   5   5  -7 543.262 80.3422  31
   5   5  -7 531.383 77.5656   2
   5   5  -7 791.779 89.5054  14
   5   5  -6 4895.26 247.465   2
   5   5  -6 4394.60 242.886  31
   5   5  -6 5017.02 252.711  14
   5   5  -6 4622.82 258.018  38
   5   5  -5 427.310 95.1610  38
   5   5  -5 468.112 74.2396  36
   5   5  -5 406.633 76.6393  31
   5   5  -5 473.848 83.9906  14
   5   5  -4 359.973 87.2259  38
   5   5  -4 271.813 83.7197  32
   5   5  -4 318.485 72.1632  14
   5   5  -3 496.005 90.3990  38
   5   5  -3 356.474 85.1579  32
   5   5  -3 450.535 70.6904  14
   5   5  -2 3617.86 204.913  38
   5   5  -2 3668.36 208.410  37
   5   5  -2 3864.30 222.322  35
   5   5  -2 3935.66 217.495  32
   5   5  -2 3055.25 179.611  14
   5   5  -1 1409.62 116.920  38
   5   5  -1 1530.59 128.801  37
   5   5  -1 1356.98 133.103  35
   5   5  -1 1568.58 133.551  32
   5   5   0 1705.24 129.045  38
   5   5   0 1995.47 148.740  37
   5   5   0 1674.08 145.346  35
   5   5   0 2147.46 152.754  32
   5   5   1 2373.42 145.814  38
   5   5   1 2587.58 171.491  37
   5   5   1 2332.90 168.275  35
   5   5   2 5026.61 257.395   2
   5   5   2 5154.30 273.832  35
   5   5   3 1495.62 116.975  35
   5   5   3 1250.79 96.6309   2
   5   5   4 458.909 81.3818  37
   5   5   4 253.314 64.7508  35
   5   5   5 2100.82 133.208  37
   5   5   5 2214.78 127.316  35
   5   5   6 1064.72 84.6099  37
   5   6 -11 1190.78 75.6133  14
   5   6 -10 59.4851 55.6783  14
   5   6  -9 235.625 60.3299  31
   5   6  -9 125.493 59.7338  14
   5   6  -8 484.661 62.4438   2
   5   6  -8 527.203 71.7906  31
   5   6  -7 1826.32 120.533  31
   5   6  -7 2037.97 129.171  14
   5   6  -7 1780.88 120.397   2
   5   6  -6 6788.48 317.855   2
   5   6  -6 6058.23 308.444  36
   5   6  -6 6591.17 310.297  31
   5   6  -6 6777.75 317.779  14
   5   6  -6 6232.53 321.912  38
   5   6  -5 2016.60 134.598  36
   5   6  -5 2041.60 138.799   2
   5   6  -5 1975.67 132.231  14
   5   6  -5 1937.81 139.053  38
   5   6  -4 3230.59 190.291  36
   5   6  -4 3164.68 188.154   2
   5   6  -4 3179.15 178.206  14
   5   6  -4 3326.11 188.161  38
   5   6  -3 7378.15 363.850  38
   5   6  -3 7932.43 373.437   2
   5   6  -3 8124.76 377.627  32
   5   6  -3 7201.70 352.204  14
   5   6  -2 533.841 76.7991  38
   5   6  -2 644.697 102.538  35
   5   6  -2 544.543 86.7785  32
   5   6  -1 546.763 97.3403  35
   5   6  -1 536.284 87.6998  32
   5   6  -1 688.201 87.8565   2
   5   6   0 4254.91 237.069  37
   5   6   0 4357.93 228.189   2
   5   6   0 4078.73 240.937  35
   5   6   0 4205.00 231.767  32
   5   6   1 55.6852 78.4106  37
   5   6   1-25.9210 72.3457  35
   5   6   1 27.6442 62.4247  32
   5   6   1 53.8862 61.5187   2
   5   6   2 35.3803 67.4900  35
   5   6   2-19.9696 56.9872  32
   5   6   2 55.4127 56.1290   2
   5   6   3 594.883 80.6111  37
   5   6   3 472.971 77.9221  35
   5   6   3 491.576 67.7344  32
   5   6   4 36.5101 52.7909  35
   5   6   5 382.164 56.3095  35
   5   7 -11 94.4955 29.5954  14
   5   7 -10 450.156 51.7480  14
   5   7 -10 285.321 41.7397   3
   5   7  -9 372.004 53.2534   3
   5   7  -8 380.249 64.4572  14
   5   7  -8 193.184 45.4374   3
   5   7  -7 144.806 57.2784   2
   5   7  -7 88.8058 56.2959  14
   5   7  -6 1093.90 90.2436  36
   5   7  -6 1051.29 91.4044  14
   5   7  -6 1294.23 98.0666   2
   5   7  -5 526.457 77.4179  36
   5   7  -5 691.817 81.5103   2
   5   7  -5 586.482 70.5607  14
   5   7  -4 353.835 74.6499  36
   5   7  -4 483.485 75.1288   2
   5   7  -4 380.594 61.4902  14
   5   7  -3 1268.08 111.511  36
   5   7  -3 1306.38 106.690   2
   5   7  -2 3281.22 191.557  36
   5   7  -2 3386.55 199.168  35
   5   7  -2 3042.66 176.930  32
   5   7  -1 3970.82 221.899  35
   5   7  -1 3572.92 196.614  32
   5   7  -1 3836.55 205.090   2
   5   7   0-18.1312 67.2784  35
   5   7   0 55.2404 59.0827   2
   5   7   1 946.079 98.4524  35
   5   7   1 922.130 85.5824   2
   5   7   2 390.476 73.8078  35
   5   7   3 116.292 61.0236  35
   5   7   4 26.7430 40.7449  36
   5   7   4 60.0451 44.9144  35
   5   8  -9 1984.59 109.095  14
   5   8  -8 292.122 56.5376  14
   5   8  -7 629.681 67.2758  14
   5   8  -6 1963.62 116.786  36
   5   8  -6 1629.66 107.365  14
   5   8  -6 1937.36 117.543   2
   5   8  -5 757.663 78.5240  36
   5   8  -5 789.545 83.7527   2
   5   8  -4 149.179 60.4089  36
   5   8  -4 83.0894 60.4398   2
   5   8  -3 660.760 83.3578  36
   5   8  -3 736.114 80.2555   2
   5   8  -2 300.359 72.5069  36
   5   8  -2 392.021 77.3946  35
   5   8  -1 631.285 83.2501  36
   5   8  -1 688.392 88.6709  35
   5   8  -1 693.859 74.6871   2
   5   8   0 177.378 68.7028  35
   5   8   0 346.827 60.9635   2
   5   8   1 367.895 72.4845  36
   5   8   1 403.878 75.7547  35
   5   8   2 136.655 49.9474  36
   5   8   2 136.719 53.9710  35
   5   8   3 204.782 36.4586  36
   5   8   3 323.686 47.8295  35
   5   9  -8 630.658 51.1547  14
   5   9  -7 67.2922 35.4091  14
   5   9  -5 705.108 76.4809  36
   5   9  -4 63.2385 59.1361  36
   5   9  -3 2476.17 142.944  36
   5   9  -2 23.5851 56.2808  36
   5   9   0-2.64510 43.1561  36
   5   9   1 117.154 37.0368  36
  -6   8   2 498.061 44.5741  28
  -6   8   1 80.5755 35.0567  30
  -6   8   1 173.821 39.9157  28
  -6   8   0 69.0452 41.8595  30
  -6   8   0 12.0895 38.6878  28
  -6   8  -1 1050.96 78.8521  30
  -6   8  -2 15.9164 43.0604  30
  -6   8  -2 66.0814 39.4924  28
  -6   8  -3 203.762 47.7902  30
  -6   8  -3 244.273 42.4863  28
  -6   8  -4 897.213 67.2371  30
  -6   8  -4 875.090 57.1344  28
  -6   7   4 70.0830 32.1345  29
  -6   7   3 786.902 61.8997  29
  -6   7   3 740.472 58.3339  28
  -6   7   2 428.895 53.2535  30
  -6   7   2 373.100 53.3622  29
  -6   7   2 338.560 52.1913  28
  -6   7   1 42.0096 52.5985  30
  -6   7   1 112.812 52.6084  29
  -6   7   1 206.967 53.9393  28
  -6   7   0 979.851 92.0253  30
  -6   7   0 1093.34 78.7031  29
  -6   7   0 1080.73 85.8218  28
  -6   7  -1 854.577 83.7674  30
  -6   7  -1 478.440 58.4570  29
  -6   7  -2 1203.92 92.3819  28
   6  -7   2 1185.26 79.9061  21
  -6   7  -3 3649.95 186.765  30
  -6   7  -3 3363.44 176.466  28
   6  -7   3 3267.93 169.939  21
  -6   7  -4 167.205 57.4352  30
  -6   7  -4 136.440 49.9967  28
   6  -7   4 210.648 52.2851  21
  -6   7  -5 119.875 42.4715  30
  -6   7  -5 100.257 40.5629  28
   6  -7   5 56.6430 43.5353  21
   6  -7   6 496.272 50.4686  21
  -6   6   5 613.585 54.8627  29
  -6   6   4-15.2063 37.7752  28
  -6   6   3 118.289 43.3158  30
  -6   6   3 153.344 50.5560  28
  -6   6   2 225.696 56.4982  30
  -6   6   2 271.533 58.7044  29
  -6   6   2 276.378 55.4510  28
  -6   6   1 432.000 126.676  30
  -6   6   1 363.846 63.3784  28
  -6   6   0 131.823 65.4536  30
  -6   6   0 20.8177 53.0836  28
  -6   6  -1 1310.85 113.622  30
   6  -6   1 1576.80 103.915  21
   6  -6   2 2251.82 136.468  21
  -6   6  -3 62.7144 57.8512  30
   6  -6   3 8.77506 55.0239  21
  -6   6  -4 76.1176 54.7715  30
   6  -6   4 90.8729 59.7074  21
  -6   6  -5 2409.36 137.472  30
   6  -6   5 2542.43 146.059  21
   6  -6   6 10.7547 52.1594  21
   6  -6   7 127.066 46.7922  21
  -6   5   6 305.467 44.4604  29
  -6   5   5 447.233 59.7756  29
  -6   5   5 364.150 42.0341  28
  -6   5   4 466.242 52.1715  30
  -6   5   4 423.971 66.5342  29
  -6   5   4 468.678 52.5019  28
   6  -5  -4 509.451 63.1207  26
  -6   5   3 950.889 83.9057  30
  -6   5   3 928.286 78.0553  28
  -6   5   2 1467.45 105.389  28
   6  -5  -1 1059.35 89.6392  21
   6  -5   0-24.4033 54.9522  21
   6  -5   1 5340.83 272.357  21
   6  -5   2 168.296 65.9425  21
   6  -5   3 5798.63 293.748  21
   6  -5   4 180.541 65.7990  21
   6  -5   5 359.337 57.8691  37
  -6   5  -5 383.703 58.9026  30
   6  -5   5 466.197 76.4445  21
   6  -5   6 5040.99 254.945  21
   6  -5   7 465.813 57.8901  37
   6  -5   7 492.733 65.9719  21
   6  -5   8 42.2882 37.6320  37
   6  -5   8 49.9273 45.2983  21
  -6   4   7 586.843 50.7223  29
  -6   4   6 35.6940 49.7330  29
  -6   4   5 92.4513 54.7155  29
  -6   4   5 42.8641 33.8260  28
  -6   4   4 167.154 46.6267  28
   6  -4  -4 219.158 66.7542  26
  -6   4   3 567.610 67.7973  28
   6  -4  -2 8.12128 56.5565  38
   6  -4  -1 648.337 80.1652  21
   6  -4   0 1651.68 126.520  21
   6  -4   1 249.076 74.2846  21
   6  -4   2-31.0264 68.0880  21
   6  -4   3 455.925 83.6990  21
   6  -4   4 3090.58 168.418  37
   6  -4   4 3130.91 188.016  21
   6  -4   5 1107.65 96.9964  26
   6  -4   5 1339.67 109.301  21
   6  -4   6 1756.39 123.734  21
   6  -4   7 3476.49 182.449  37
   6  -4   8 820.186 66.7515  37
   6  -4   8 729.924 66.3972  21
  -6   3   7 244.841 48.4634  29
  -6   3   6 640.057 66.5747  29
  -6   3   5 64.8850 54.5648  29
   6  -3  -5 61.3325 58.8155  26
   6  -3  -4 3106.53 172.738  38
  -6   3   4 3090.37 169.420  28
   6  -3  -3 1070.33 97.7272  38
   6  -3  -2 3727.27 210.664  21
   6  -3  -1 650.230 87.4634  21
   6  -3   0 3115.12 193.042  21
   6  -3   1 237.167 81.3236  21
   6  -3   2 3480.95 194.345  32
   6  -3   2 3764.92 214.563  21
   6  -3   3 4156.13 217.748  37
   6  -3   3 4244.98 221.678  32
   6  -3   3 4134.77 235.696  21
   6  -3   4 63.5958 63.0599  37
   6  -3   4 10.2153 73.9588  26
   6  -3   5 2304.18 145.156  37
   6  -3   6 1695.09 117.525  37
   6  -3   6 1624.67 120.633  21
   6  -3   7 261.591 69.3742  37
   6  -3   7 209.064 67.6153  21
   6  -3   8 429.707 57.5928  37
   6  -3   8 339.786 52.7182  21
   6  -2  -8 1127.57 74.5490  31
  -6   2   7 90.0697 41.1036  29
  -6   2   6 3132.21 159.101  29
   6  -2  -6 2782.00 154.247  38
   6  -2  -5 3416.85 191.485  38
   6  -2  -5 3831.12 195.581  26
   6  -2  -4 77.4354 67.2689  38
   6  -2  -4 110.436 80.1065  26
   6  -2  -3 50.1395 73.0843  38
   6  -2  -3 12.3163 84.9940  26
   6  -2  -2 1923.84 132.891  32
   6  -2  -2 2354.18 151.339  21
   6  -2  -1 1221.22 103.944  32
   6  -2  -1 1149.40 112.255  21
   6  -2   0 553.554 81.3797  32
   6  -2   0 531.942 91.8860  21
   6  -2   1 172.015 72.8563  32
   6  -2   2 104.165 63.7425  37
   6  -2   2 54.9775 68.4665  32
   6  -2   3 355.240 75.9479  37
   6  -2   3 240.989 90.7743  26
   6  -2   4 500.274 82.6284  37
   6  -2   4 482.308 83.7994  26
   6  -2   4 507.039 87.0727  21
   6  -2   5 444.345 79.8222  37
   6  -2   5 597.271 83.5464  21
   6  -2   6 1270.47 102.903  37
   6  -2   6 1077.50 96.9137  21
   6  -2   7 1559.07 113.902  37
   6  -2   7 1562.47 108.033  21
   6  -2   8 696.864 64.1322  37
   6  -2   8 467.997 50.7641  21
   6  -1  -9 176.788 36.3393  31
   6  -1  -9 183.299 39.9645  14
   6  -1  -8 405.864 65.5867  31
  -6   1   7-32.4450 38.6883  29
   6  -1  -6 102.757 63.0247  38
  -6   1   6 77.2403 47.0838  29
   6  -1  -5 2341.04 150.118  38
   6  -1  -5 2322.29 147.672  26
   6  -1  -4 527.388 89.6117  38
   6  -1  -4 441.842 90.0203  26
   6  -1  -3 9883.96 476.344  38
   6  -1  -3 10018.4 478.481  26
   6  -1  -2 509.250 87.0309  32
   6  -1  -2 706.020 113.525  26
   6  -1  -2 701.011 93.1049  21
   6  -1  -1 217.712 73.1751  32
   6  -1  -1 261.052 103.455  26
   6  -1   0 130.646 73.9453  32
   6  -1   1 270.318 65.5711  37
   6  -1   1 182.178 79.0566  32
   6  -1   1 238.214 96.9928  26
   6  -1   1 213.415 79.5531  21
   6  -1   2 1598.82 121.646  37
   6  -1   2 1794.56 142.868  26
   6  -1   2 1667.16 133.818  21
   6  -1   3 4214.78 224.590  37
   6  -1   3 4153.19 229.555  26
   6  -1   3 3906.47 227.851  21
   6  -1   4 4924.17 248.682  37
   6  -1   4 4391.60 239.180  26
   6  -1   4 4762.91 250.918  21
   6  -1   5 67.9236 65.9612  37
   6  -1   5-5.09112 58.9030  21
   6  -1   6 21.4562 65.2078  37
   6  -1   6 41.3864 52.2533  21
   6  -1   7 362.677 73.4429  37
   6  -1   8 172.591 50.7419  37
   6   0  -9 464.183 53.9332  31
   6   0  -9 527.750 55.0475  14
   6   0  -8 475.893 71.6136  31
   6   0  -7 129.594 62.8436  38
   6   0  -6 1831.93 117.082  26
   6   0  -6 1812.11 128.884  38
   6   0  -5 1661.08 128.354  38
   6   0  -5 1637.61 122.267  26
   6   0  -4 411.863 92.0617  38
   6   0  -4 415.367 86.9022  26
   6   0  -3 6236.33 314.489  38
   6   0  -3 5499.64 301.577  32
   6   0  -3 6033.13 311.894  26
   6   0  -2 7021.38 361.112  32
   6   0  -2 7315.89 369.298  26
   6   0  -2 7275.66 359.659  21
   6   0  -1 9834.84 462.985  32
   6   0  -1 9493.01 465.292  26
   6   0  -1 9287.93 456.457  21
   6   0   0 3154.16 178.961  37
   6   0   0 3329.74 202.966  32
   6   0   0 3217.46 194.237  21
   6   0   1 2495.13 158.910  37
   6   0   1 2597.99 177.601  32
   6   0   1 2623.54 179.359  26
   6   0   1 2688.83 169.950  21
   6   0   2 403.837 79.0645  37
   6   0   2 454.085 95.0136  26
   6   0   2 413.143 76.8396  21
   6   0   3 1939.54 140.449  37
   6   0   3 2242.51 143.704  26
   6   0   3 1964.61 140.264  21
   6   0   4 118.267 71.3795  37
   6   0   4 135.814 60.6817  26
   6   0   4 81.3182 63.0256  21
   6   0   5 103.971 71.5618  37
   6   0   5 143.643 54.1847  21
   6   0   6 171.334 70.1259  37
   6   0   7 1398.93 98.8921  37
   6   1 -10 443.236 43.3326  31
   6   1  -9 1082.77 80.0303  31
   6   1  -9 1226.58 80.9931  14
   6   1  -8 172.847 67.5748  31
   6   1  -8 58.6888 59.3499  14
   6   1  -7 873.009 92.1804  38
   6   1  -6 137.070 76.3902  38
   6   1  -5 4636.50 255.139  38
   6   1  -5 4850.51 248.719  26
   6   1  -4 1586.27 136.809  38
   6   1  -4 1475.90 125.322  26
   6   1  -3 6.57336 88.8417  38
   6   1  -3 70.5863 76.5510  32
   6   1  -3-36.7993 88.3369  26
   6   1  -2 81.4684 77.1200  32
   6   1  -2 70.9822 91.5476  26
   6   1  -2 62.7593 61.3603  21
   6   1  -1 34.6047 59.0330  37
   6   1  -1-7.02964 73.6455  32
   6   1  -1 13.0653 89.4844  26
   6   1  -1 40.6430 61.8035  21
   6   1   0 28.9925 67.0375  37
   6   1   0 86.9771 80.7655  32
   6   1   0 156.127 68.2207  21
   6   1   1 5710.72 284.104  37
   6   1   1 5965.35 305.776  32
   6   1   1 5157.50 291.877  26
   6   1   1 5462.61 284.967  21
   6   1   2 3452.09 197.280  37
   6   1   2 3385.89 199.751  26
   6   1   2 3344.99 191.154  21
   6   1   3 682.183 90.6639  37
   6   1   3 541.450 81.6702  26
   6   1   3 570.688 76.5576  21
   6   1   4 829.360 94.5206  37
   6   1   5 151.201 71.1815  37
   6   1   6 734.823 88.2576  37
   6   2 -10 55.3376 36.0571  31
   6   2 -10 12.8793 31.8241  14
   6   2  -9 16.6516 48.0834  31
   6   2  -9-5.23467 45.4007  14
   6   2  -8 1071.45 91.2643  14
   6   2  -7 728.342 89.8951  38
   6   2  -6 369.989 85.2608  38
   6   2  -6 265.127 68.3504  14
   6   2  -5 1195.90 117.720  38
   6   2  -5 1362.12 111.159  26
   6   2  -4 276.440 94.1481  38
   6   2  -4 195.322 82.9943  26
   6   2  -3 598.068 91.0444  32
   6   2  -3 700.245 99.3445  26
   6   2  -3 397.064 69.6090  14
   6   2  -2 945.290 88.2983  37
   6   2  -2 1376.04 121.175  32
   6   2  -2 1007.83 87.0580  14
   6   2  -2 1345.63 125.040  26
   6   2  -1 455.220 75.1321  37
   6   2  -1 420.420 95.4219  32
   6   2   0 2697.03 158.831  37
   6   2   0 2595.57 177.403  32
   6   2   0 2362.34 170.299  26
   6   2   0 2354.44 150.114  21
   6   2   1 979.122 98.6010  37
   6   2   1 973.535 113.422  32
   6   2   1 852.687 103.861  26
   6   2   1 665.083 78.6786  21
   6   2   2 1133.15 104.538  37
   6   2   2 1114.87 102.622  26
   6   2   2 821.652 78.9937  21
   6   2   3 5308.79 271.770  37
   6   2   4 1980.81 133.967  37
   6   2   5 94.5574 70.2789  37
   6   2   7 20.1495 40.7335  37
   6   3 -10 45.1040 33.5474  31
   6   3 -10 64.8759 31.2832  14
   6   3  -9 160.042 46.5866  14
   6   3  -8 1721.16 114.548  31
   6   3  -7 17.7027 66.9279  38
   6   3  -7 64.3283 58.7119  31
   6   3  -7-25.0957 47.7839   2
   6   3  -7 29.8589 53.3915  14
   6   3  -6 876.862 97.6435  38
   6   3  -6 803.554 83.8102  14
   6   3  -5 2837.28 160.879  14
   6   3  -4 3443.59 184.826  14
   6   3  -3 891.014 107.351  38
   6   3  -3 901.290 102.794  32
   6   3  -3 787.563 76.8019  14
   6   3  -2 2614.78 176.582  38
   6   3  -2 2754.84 181.938  32
   6   3  -2 2924.23 181.777  26
   6   3  -1 1824.33 138.891  38
   6   3  -1 1620.04 120.699  37
   6   3  -1 1764.17 139.878  32
   6   3   0 1789.05 126.814  37
   6   3   1 149.866 70.8658  37
   6   3   2 647.892 85.0131  37
   6   3   3 91.1150 67.0541  37
   6   3   4 404.222 76.4559  37
   6   3   6 128.250 45.4849  37
   6   3   6 253.350 50.4558  32
   6   4  -9 2570.86 133.476  31
   6   4  -8 2855.01 152.304  31
   6   4  -7 479.155 64.9365  31
   6   4  -7 444.630 55.4840   2
   6   4  -6 635.091 69.6850  31
   6   4  -6 758.787 75.4108  14
   6   4  -6 611.755 71.7457   2
   6   4  -5 101.509 72.6988  38
   6   4  -5 91.5536 53.5729  31
   6   4  -5 28.9527 52.7339  14
   6   4  -4 380.638 81.2175  38
   6   4  -4 420.953 62.8397  14
   6   4  -3 1434.78 112.813  38
   6   4  -3 1127.96 92.5673  36
   6   4  -2 644.637 87.2475  38
   6   4  -1 196.030 68.5526  38
   6   4  -1 253.954 76.1000  32
   6   4   0 184.995 65.3541  38
   6   4   0 193.260 70.8244  37
   6   4   0 144.958 72.5751  32
   6   4   1 907.847 93.6008  37
   6   4   1 1012.36 100.539  32
   6   4   2 492.223 78.5863  37
   6   4   2 606.613 80.8836  32
   6   4   2 432.993 63.6532   2
   6   4   3 452.409 77.7145  37
   6   4   3 418.521 74.3422  32
   6   4   4 125.774 58.0079  32
   6   4   5 79.3849 44.7250  37
   6   4   5 63.8464 39.8547  32
   6   5  -8 1243.53 81.5909  31
   6   5  -8 1458.73 87.1776  14
   6   5  -7 315.608 53.5517   2
   6   5  -7 427.595 62.0965  14
   6   5  -6 2519.63 135.863  14
   6   5  -6 2666.86 139.071   2
   6   5  -6 2188.34 145.716  38
   6   5  -5 2789.47 153.085   2
   6   5  -5 2788.78 145.189  14
   6   5  -5 2546.08 156.419  38
   6   5  -4 484.548 72.1348  38
   6   5  -4 318.334 51.6881  36
   6   5  -4 533.530 73.2810   2
   6   5  -3 3349.40 182.807  38
   6   5  -3 3424.35 178.107  36
   6   5  -3 3354.00 185.537   2
   6   5  -2 79.9808 56.9973  38
   6   5  -2 9.82005 57.5737  32
   6   5  -1 1373.32 106.165   2
   6   5  -1 1333.14 107.046  32
   6   5   0 46.1590 56.8688  32
   6   5   0 70.3756 55.9785   2
   6   5   1 1395.19 104.110  32
   6   5   1 1481.53 99.0721   2
   6   5   2 123.719 59.2808  32
   6   5   3 25.4632 44.8024  32
   6   6  -8 209.069 39.4137  14
   6   6  -7 1551.13 84.9809  14
   6   6  -7 1278.39 81.1591   2
   6   6  -6 822.859 72.6716   2
   6   6  -5 2222.43 130.354   2
   6   6  -4 2707.02 148.749  36
   6   6  -4 3316.95 164.154   2
   6   6  -3 2729.18 147.751  36
   6   6  -3 2724.76 153.503   2
   6   6  -2 262.567 61.6686  36
   6   6  -1-62.0501 61.1400  36
   6   6  -1 84.3161 51.0311  32
   6   6  -1 101.037 61.4076   2
   6   6   0 75.6038 52.2734  32
   6   6   0 44.7646 56.3605   2
   6   7  -5 236.639 49.0346   2
   6   7  -4 738.005 60.4035  36
   6   7  -4 877.147 70.5588   2
   6   7  -3 655.391 63.6452  36
   6   7  -3 835.898 68.7272   2
   6   7  -2 543.499 57.8478  36
   6   7  -1 509.996 58.6726  36
   6   7  -1 641.265 60.8229   2
   6   7   0-2.44851 41.8682  36
   6   7   1 782.992 57.8023  36
  -7   5   1 274.893 40.0885  30
  -7   5   1 296.174 36.4077  29
   7  -5  -1 319.770 47.2934  26
  -7   5   0 88.1904 39.4689  30
  -7   5   0 152.282 34.9775  29
  -7   5   0 80.2984 33.0429  28
   7  -5   0 124.610 48.0200  26
  -7   5  -1 41.5881 35.8090  30
  -7   5  -1 37.0522 35.7618  28
  -7   5  -2 713.798 57.6118  30
  -7   5  -2 851.527 57.5690  28
   7  -5   2 880.408 66.7360  26
  -7   4   3 371.642 41.5583  29
  -7   4   2 397.540 48.5699  29
   7  -4  -2 419.534 54.5272  26
  -7   4   1 794.100 68.9724  30
  -7   4   1 775.692 59.3031  28
   7  -4  -1 862.237 74.5295  26
  -7   4   0 2419.33 123.953  28
   7  -4   0 2264.97 133.458  26
   7  -4   1 3038.65 148.402  38
   7  -4   2 423.426 51.1003  38
  -7   4  -2 434.507 54.5651  30
   7  -4   2 483.128 63.6591  26
   7  -4   2 372.769 48.3106  21
  -7   4  -3 227.294 41.3886  30
   7  -4   3 330.301 47.8133  26
   7  -4   3 338.213 46.2421  21
   7  -4   4 573.109 47.0718  21
  -7   3   4 60.1228 33.8489  29
  -7   3   3 111.377 41.7461  29
   7  -3  -3-12.8905 40.9904  26
   7  -3  -2 18.1726 38.0172  38
  -7   3   2 45.0604 31.0816  28
   7  -3  -2 68.8723 55.8215  26
   7  -3  -1 216.806 52.1511  38
   7  -3  -1 253.089 65.6959  26
   7  -3   0 147.505 57.2696  38
   7  -3   0 147.216 64.3898  26
   7  -3   1 2042.71 120.841  38
   7  -3   1 1919.62 114.853  21
   7  -3   2 915.577 78.2246  26
   7  -3   2 812.147 69.5114  21
   7  -3   3 917.000 68.7551  26
   7  -2  -5 279.005 39.8758  14
  -7   2   4 320.361 41.2627  29
   7  -2  -4 227.160 43.5843  26
   7  -2  -3 3205.97 160.840  38
   7  -2  -3 3247.72 166.390  26
   7  -2  -2 74.8596 57.3819  38
  -7   2   2 51.7166 37.5340  28
   7  -2  -2 58.8917 62.0956  26
   7  -2  -1-16.4371 65.1778  38
   7  -2  -1 93.3231 68.7495  26
   7  -2   0 14812.8 656.580  38
   7  -2   1 246.677 70.1364  26
   7  -2   2 2738.79 149.475  26
   7  -2   2 2772.73 147.221  21
   7  -2   3 6.43024 41.9761  26
   7  -2   3 68.5629 42.8267  21
   7  -2   4 842.445 62.3099  21
   7  -1  -6-19.5537 29.0313  31
   7  -1  -5 160.056 39.5687  14
   7  -1  -4 3708.67 181.579  14
   7  -1  -4 3946.89 186.385  38
   7  -1  -3 2655.95 149.506  38
   7  -1  -3 2800.46 150.145  26
   7  -1  -2 195.694 70.4449  38
   7  -1  -2 232.595 71.8749  26
   7  -1  -1 269.465 74.9458  38
   7  -1  -1 236.352 75.8422  26
   7  -1   0 113.564 75.8623  38
   7  -1   1 448.939 60.1630  32
   7  -1   1 510.857 75.8290  26
   7  -1   2-2.64309 44.9060  32
   7  -1   2 115.850 56.6441  26
   7  -1   2 49.6034 45.0428  21
   7  -1   3 1293.33 77.5418  32
   7  -1   3 1212.25 79.3916  21
   7   0  -5 370.845 51.7201  38
   7   0  -5 358.692 43.7154  14
   7   0  -4 1100.79 82.9765  38
   7   0  -3 1509.48 106.872  38
   7   0  -3 1469.27 104.384  26
   7   0  -2 1289.20 104.357  38
   7   0  -2 1331.25 103.791  26
   7   0  -1 100.246 75.0758  38
   7   0  -1 189.210 73.9226  26
   7   0   0 527.913 86.1960  38
   7   0   0 497.440 68.1750  32
   7   0   1 2476.93 139.134  32
   7   0   1 2385.49 140.868  26
   7   0   2 706.538 67.0110  32
   7   0   3 1752.67 102.129  32
   7   0   4 75.8882 35.5106  32
   7   1  -6 54.8681 34.2654  31
   7   1  -5 755.036 62.6990  31
   7   1  -5 828.442 70.9597  38
   7   1  -4 538.984 65.3862  38
   7   1  -3 522.383 73.1149  38
   7   1  -2 2220.96 137.426  38
   7   1  -1 210.616 59.9821  32
   7   1   0 1706.50 112.212  32
   7   1   1 4689.40 222.956  38
   7   1   1 4212.11 217.671  32
   7   1   2 226.016 58.2750  38
   7   1   2 334.911 52.3935  32
   7   1   3 190.610 47.4104  38
   7   1   3 118.092 44.0428  32
   7   2  -5 98.0157 50.2667  38
   7   2  -5-28.8726 34.4783  31
   7   2  -5 17.5754 38.8038   2
   7   2  -4 1491.24 99.5814  38
   7   2  -1 478.414 69.8378  38
   7   2  -1 403.696 61.5450  32
   7   2   0 5369.78 252.757  38
   7   2   0 5227.61 254.410  32
   7   2   1 386.736 53.9971  38
   7   2   1 352.561 55.4328  32
   7   2   2 167.437 39.4289  38
   7   2   2 186.087 46.2568  32
   7   2   3 47.8190 33.1142  32
   7   3  -4 6089.62 278.251   2
   7   3  -4 6168.76 281.817  38
   7   3  -3 38.8522 44.2941  38
   7   3  -3 115.133 46.9172   2
   7   3  -2 25.6241 43.5538  38
   7   3  -2 2.52206 45.9117   2
   7   3  -1 1481.20 91.7954  38
   7   3   0 451.610 48.3211  38
   7   3   0 382.747 52.5479  32
   7   3   0 398.065 52.6089   2
   7   3   1 53.8342 42.1054  32
   7   4  -4 40.9777 34.8767   2
   7   4  -3 4231.16 197.831   2
   7   4  -1 1327.28 79.1196   2
   0   0   0    0.00    0.00   0

TITL JS1120J in P-1
REM P-1 (#2 in standard setting)
CELL 1.54184   5.921962  11.278103  12.704118 106.1373  92.9912  92.2777
ZERR    2.00   0.000161   0.000272   0.000360   0.0023   0.0023   0.0021
LATT  1
SFAC C N O
UNIT 12.00 24.00 28.00
TREF
HKLF 4
END
;
_shelx_hkl_checksum              78389
_olex2_diffrn_ambient_temperature_device 'Oxford Cryosystems'
_olex2_exptl_crystal_mounting_method
'The crystal was mounted on a nylon loop with paratone oil'
_olex2_submission_original_sample_id A93
_olex2_submission_special_instructions 'No special instructions were received'
_oxdiff_exptl_absorpt_empirical_details
;
Empirical correction (ABSPACK) includes:
- Absorption correction using spherical harmonics
- Frame scaling
;
_oxdiff_exptl_absorpt_empirical_full_max 1.516
_oxdiff_exptl_absorpt_empirical_full_min 0.729
loop_
_space_group_symop_operation_xyz
'x, y, z'
'-x, -y, -z'
loop_
_atom_site_label
_atom_site_type_symbol
_atom_site_fract_x
_atom_site_fract_y
_atom_site_fract_z
_atom_site_U_iso_or_equiv
_atom_site_adp_type
_atom_site_occupancy
_atom_site_site_symmetry_order
_atom_site_calc_flag
_atom_site_refinement_flags_posn
_atom_site_refinement_flags_adp
_atom_site_refinement_flags_occupancy
_atom_site_disorder_assembly
_atom_site_disorder_group
O1 O -0.1903(4) 0.2395(2) 0.62319(18) 0.0293(5) Uani 1 1 d . . . . .
O2 O -0.0564(10) 0.0653(4) 0.7108(3) 0.108(2) Uani 1 1 d . . . . .
O3 O 0.2306(5) 0.1020(2) 0.8264(3) 0.0461(7) Uani 1 1 d . . . . .
O4 O 0.4450(4) 0.2989(2) 0.7537(2) 0.0315(5) Uani 1 1 d . . . . .
O5 O 0.3422(4) 0.3848(2) 0.91908(18) 0.0283(5) Uani 1 1 d . . . . .
O6 O -0.1208(5) 0.4318(4) 0.8904(2) 0.0579(9) Uani 1 1 d . . . . .
O7 O -0.1653(5) 0.2516(4) 0.9217(3) 0.0751(13) Uani 1 1 d . . . . .
N1 N -0.0832(4) 0.4619(2) 0.4901(2) 0.0272(6) Uani 1 1 d . . . . .
N2 N 0.0658(4) 0.3962(3) 0.6513(2) 0.0268(6) Uani 1 1 d . . . . .
N3 N -0.2378(4) 0.2977(3) 0.5419(2) 0.0296(6) Uani 1 1 d . . . . .
N4 N 0.0836(7) 0.1320(3) 0.7725(3) 0.0459(9) Uani 1 1 d . . . . .
N5 N 0.3094(4) 0.3261(2) 0.8241(2) 0.0230(5) Uani 1 1 d . . . . .
N6 N -0.0890(5) 0.3229(4) 0.8761(2) 0.0450(9) Uani 1 1 d . . . . .
C1 C -0.0819(5) 0.3874(3) 0.5619(2) 0.0258(6) Uani 1 1 d . . . . .
C2 C -0.0093(5) 0.3041(3) 0.6829(2) 0.0259(7) Uani 1 1 d . . . . .
C3 C 0.0702(5) 0.2711(3) 0.7844(3) 0.0278(7) Uani 1 1 d . . . . .
O1A O 0.2531(3) 0.2500(2) 0.38133(18) 0.0253(5) Uani 1 1 d . . . . .
O2A O 0.2211(4) 0.0666(2) 0.1199(2) 0.0389(6) Uani 1 1 d . . . . .
O3A O 0.2118(5) 0.2404(4) 0.0731(3) 0.0687(11) Uani 1 1 d . . . . .
O4A O 0.3531(6) 0.4300(3) 0.2913(3) 0.0610(10) Uani 1 1 d . . . . .
O5A O 0.6152(5) 0.4021(2) 0.1734(2) 0.0421(6) Uani 1 1 d . . . . .
O6A O 0.6859(5) 0.1151(3) 0.0822(2) 0.0437(7) Uani 1 1 d . . . . .
O7A O 0.8484(4) 0.2205(2) 0.2435(2) 0.0361(6) Uani 1 1 d . . . . .
N1A N 0.4185(4) 0.0340(2) 0.5120(2) 0.0211(5) Uani 1 1 d . . . . .
N2A N 0.5064(4) 0.1064(2) 0.3489(2) 0.0211(5) Uani 1 1 d . . . . .
N3A N 0.2769(5) 0.1722(3) 0.1264(2) 0.0374(7) Uani 1 1 d . . . . .
N4A N 0.4822(5) 0.3685(3) 0.2303(3) 0.0361(7) Uani 1 1 d . . . . .
N5A N 0.6893(5) 0.1807(3) 0.1757(2) 0.0312(6) Uani 1 1 d . . . . .
N11 N 0.2361(4) 0.1897(2) 0.4631(2) 0.0253(6) Uani 1 1 d . . . . .
C1A C 0.3899(5) 0.1081(3) 0.4400(2) 0.0201(6) Uani 1 1 d . . . . .
C2A C 0.4158(5) 0.1940(3) 0.3188(2) 0.0211(6) Uani 1 1 d . . . . .
C3A C 0.4636(5) 0.2311(3) 0.2177(2) 0.0229(6) Uani 1 1 d . . . . .
loop_
_atom_site_aniso_label
_atom_site_aniso_U_11
_atom_site_aniso_U_22
_atom_site_aniso_U_33
_atom_site_aniso_U_23
_atom_site_aniso_U_13
_atom_site_aniso_U_12
O1 0.0193(10) 0.0387(12) 0.0242(11) 0.0011(9) -0.0005(8) -0.0061(9)
O2 0.169(5) 0.075(2) 0.080(3) 0.051(2) -0.081(3) -0.089(3)
O3 0.0506(17) 0.0332(13) 0.0520(17) 0.0062(12) 0.0119(14) 0.0034(12)
O4 0.0209(10) 0.0416(13) 0.0325(12) 0.0100(10) 0.0081(9) 0.0045(9)
O5 0.0255(11) 0.0339(12) 0.0231(11) 0.0057(9) -0.0039(8) -0.0038(9)
O6 0.0267(13) 0.089(2) 0.0346(15) -0.0223(15) 0.0046(11) 0.0063(14)
O7 0.0306(14) 0.171(4) 0.054(2) 0.076(2) 0.0198(13) 0.0304(19)
N1 0.0201(11) 0.0319(13) 0.0228(13) -0.0036(10) 0.0000(9) 0.0044(9)
N2 0.0210(12) 0.0348(14) 0.0186(12) -0.0014(10) -0.0012(10) -0.0016(10)
N3 0.0207(12) 0.0386(15) 0.0239(13) 0.0003(11) -0.0009(10) 0.0003(11)
N4 0.066(2) 0.0414(18) 0.0237(15) 0.0039(13) -0.0007(15) -0.0281(17)
N5 0.0185(12) 0.0248(12) 0.0250(13) 0.0062(10) 0.0017(10) 0.0003(9)
N6 0.0152(13) 0.095(3) 0.0182(14) 0.0049(16) 0.0008(10) 0.0045(15)
C1 0.0183(13) 0.0318(16) 0.0201(14) -0.0044(12) 0.0003(11) 0.0037(12)
C2 0.0195(13) 0.0323(16) 0.0190(14) -0.0040(12) 0.0025(11) -0.0038(12)
C3 0.0224(14) 0.0365(17) 0.0201(15) 0.0014(12) 0.0038(12) -0.0067(12)
O1A 0.0218(10) 0.0330(11) 0.0246(11) 0.0123(9) 0.0064(8) 0.0084(8)
O2A 0.0387(14) 0.0365(14) 0.0327(13) -0.0022(10) -0.0055(10) -0.0066(11)
O3A 0.0438(16) 0.124(3) 0.060(2) 0.069(2) -0.0223(15) -0.0253(18)
O4A 0.095(3) 0.0356(14) 0.065(2) 0.0232(14) 0.0521(19) 0.0310(15)
O5A 0.0538(16) 0.0374(14) 0.0368(14) 0.0144(11) 0.0042(12) -0.0095(12)
O6A 0.0494(16) 0.0490(15) 0.0295(13) 0.0026(11) 0.0142(11) 0.0111(12)
O7A 0.0197(11) 0.0533(15) 0.0384(14) 0.0191(12) -0.0024(10) -0.0005(10)
N1A 0.0190(11) 0.0228(12) 0.0198(12) 0.0032(9) 0.0016(9) -0.0008(9)
N2A 0.0212(12) 0.0236(12) 0.0177(12) 0.0041(9) 0.0016(9) 0.0025(9)
N3A 0.0289(14) 0.060(2) 0.0244(14) 0.0133(14) 0.0001(11) -0.0006(13)
N4A 0.0435(17) 0.0360(16) 0.0322(15) 0.0141(13) 0.0043(13) 0.0070(13)
N5A 0.0289(14) 0.0354(15) 0.0306(15) 0.0104(12) 0.0054(11) 0.0038(11)
N11 0.0234(12) 0.0305(13) 0.0249(13) 0.0114(11) 0.0054(10) 0.0037(10)
C1A 0.0171(12) 0.0214(13) 0.0198(13) 0.0028(11) 0.0012(10) -0.0018(10)
C2A 0.0188(13) 0.0232(14) 0.0187(14) 0.0022(11) -0.0003(10) 0.0000(11)
C3A 0.0210(14) 0.0277(15) 0.0188(14) 0.0044(11) 0.0004(11) 0.0022(11)
loop_
_atom_type_symbol
_atom_type_description
_atom_type_scat_dispersion_real
_atom_type_scat_dispersion_imag
_atom_type_scat_source
C C 0.0181 0.0091 'International Tables Vol C Tables 4.2.6.8 and 6.1.1.4'
N N 0.0311 0.0180 'International Tables Vol C Tables 4.2.6.8 and 6.1.1.4'
O O 0.0492 0.0322 'International Tables Vol C Tables 4.2.6.8 and 6.1.1.4'
loop_
_exptl_crystal_face_index_h
_exptl_crystal_face_index_k
_exptl_crystal_face_index_l
_exptl_crystal_face_perp_dist
4 0 -2 0.0315
0 -7 2 0.0409
-4 0 2 0.1117
0 7 -2 0.0449
0 0 1 0.0076
0 0 -1 0.0076
loop_
_geom_angle_atom_site_label_1
_geom_angle_atom_site_label_2
_geom_angle_atom_site_label_3
_geom_angle
_geom_angle_site_symmetry_1
_geom_angle_site_symmetry_3
_geom_angle_publ_flag
C2 O1 N3 105.1(2) . . ?
N1 N1 C1 112.2(3) 2_566 . ?
C2 N2 C1 100.6(3) . . ?
C1 N3 O1 103.6(2) . . ?
O2 N4 O3 126.8(4) . . ?
O2 N4 C3 116.1(4) . . ?
O3 N4 C3 117.1(3) . . ?
O4 N5 C3 113.3(2) . . ?
O5 N5 O4 128.8(3) . . ?
O5 N5 C3 117.8(2) . . ?
O6 N6 C3 113.7(3) . . ?
O7 N6 O6 129.5(4) . . ?
O7 N6 C3 116.8(4) . . ?
N2 C1 N1 128.0(3) . . ?
N3 C1 N1 116.7(3) . . ?
N3 C1 N2 115.3(3) . . ?
O1 C2 C3 117.9(3) . . ?
N2 C2 O1 115.4(3) . . ?
N2 C2 C3 126.4(3) . . ?
N5 C3 N4 104.7(3) . . ?
N5 C3 N6 108.3(2) . . ?
N6 C3 N4 107.4(3) . . ?
C2 C3 N4 115.8(3) . . ?
C2 C3 N5 111.0(2) . . ?
C2 C3 N6 109.3(3) . . ?
C2A O1A N11 105.3(2) . . ?
N1A N1A C1A 111.3(3) 2_656 . ?
C2A N2A C1A 100.6(2) . . ?
O2A N3A O3A 131.0(3) . . ?
O2A N3A C3A 114.4(3) . . ?
O3A N3A C3A 114.6(3) . . ?
O4A N4A O5A 128.3(3) . . ?
O4A N4A C3A 115.7(3) . . ?
O5A N4A C3A 115.8(3) . . ?
O6A N5A O7A 130.4(3) . . ?
O6A N5A C3A 117.3(3) . . ?
O7A N5A C3A 112.2(3) . . ?
C1A N11 O1A 103.0(2) . . ?
N2A C1A N1A 127.9(3) . . ?
N11 C1A N1A 116.3(3) . . ?
N11 C1A N2A 115.7(3) . . ?
O1A C2A C3A 118.7(2) . . ?
N2A C2A O1A 115.4(3) . . ?
N2A C2A C3A 125.7(3) . . ?
N4A C3A N3A 108.0(3) . . ?
N4A C3A N5A 106.3(2) . . ?
N5A C3A N3A 107.2(2) . . ?
C2A C3A N3A 109.4(2) . . ?
C2A C3A N4A 116.1(2) . . ?
C2A C3A N5A 109.5(2) . . ?
loop_
_geom_bond_atom_site_label_1
_geom_bond_atom_site_label_2
_geom_bond_distance
_geom_bond_site_symmetry_2
_geom_bond_publ_flag
O1 N3 1.392(4) . ?
O1 C2 1.342(4) . ?
O2 N4 1.193(5) . ?
O3 N4 1.196(5) . ?
O4 N5 1.217(3) . ?
O5 N5 1.205(3) . ?
O6 N6 1.213(5) . ?
O7 N6 1.202(5) . ?
N1 N1 1.249(5) 2_566 ?
N1 C1 1.401(4) . ?
N2 C1 1.375(4) . ?
N2 C2 1.285(4) . ?
N3 C1 1.303(4) . ?
N4 C3 1.539(5) . ?
N5 C3 1.526(4) . ?
N6 C3 1.539(4) . ?
C2 C3 1.497(5) . ?
O1A N11 1.396(3) . ?
O1A C2A 1.344(3) . ?
O2A N3A 1.202(4) . ?
O3A N3A 1.219(4) . ?
O4A N4A 1.213(4) . ?
O5A N4A 1.214(4) . ?
O6A N5A 1.210(4) . ?
O7A N5A 1.224(4) . ?
N1A N1A 1.254(5) 2_656 ?
N1A C1A 1.409(4) . ?
N2A C1A 1.374(4) . ?
N2A C2A 1.281(4) . ?
N3A C3A 1.546(4) . ?
N4A C3A 1.512(4) . ?
N5A C3A 1.537(4) . ?
N11 C1A 1.307(4) . ?
C2A C3A 1.494(4) . ?
loop_
_geom_torsion_atom_site_label_1
_geom_torsion_atom_site_label_2
_geom_torsion_atom_site_label_3
_geom_torsion_atom_site_label_4
_geom_torsion
_geom_torsion_site_symmetry_1
_geom_torsion_site_symmetry_2
_geom_torsion_site_symmetry_3
_geom_torsion_site_symmetry_4
_geom_torsion_publ_flag
O1 N3 C1 N1 178.5(2) . . . . ?
O1 N3 C1 N2 -1.0(3) . . . . ?
O1 C2 C3 N4 45.0(4) . . . . ?
O1 C2 C3 N5 164.2(2) . . . . ?
O1 C2 C3 N6 -76.4(3) . . . . ?
O2 N4 C3 N5 -156.6(4) . . . . ?
O2 N4 C3 N6 88.4(4) . . . . ?
O2 N4 C3 C2 -34.0(5) . . . . ?
O3 N4 C3 N5 24.2(4) . . . . ?
O3 N4 C3 N6 -90.8(4) . . . . ?
O3 N4 C3 C2 146.7(3) . . . . ?
O4 N5 C3 N4 71.5(3) . . . . ?
O4 N5 C3 N6 -174.1(3) . . . . ?
O4 N5 C3 C2 -54.1(3) . . . . ?
O5 N5 C3 N4 -105.5(3) . . . . ?
O5 N5 C3 N6 8.9(4) . . . . ?
O5 N5 C3 C2 128.9(3) . . . . ?
O6 N6 C3 N4 -177.2(3) . . . . ?
O6 N6 C3 N5 70.2(3) . . . . ?
O6 N6 C3 C2 -50.8(4) . . . . ?
O7 N6 C3 N4 1.9(4) . . . . ?
O7 N6 C3 N5 -110.7(3) . . . . ?
O7 N6 C3 C2 128.3(3) . . . . ?
N1 N1 C1 N2 5.2(5) 2_566 . . . ?
N1 N1 C1 N3 -174.1(3) 2_566 . . . ?
N2 C2 C3 N4 -141.7(3) . . . . ?
N2 C2 C3 N5 -22.5(4) . . . . ?
N2 C2 C3 N6 96.9(4) . . . . ?
N3 O1 C2 N2 0.2(3) . . . . ?
N3 O1 C2 C3 174.3(3) . . . . ?
C1 N2 C2 O1 -0.8(3) . . . . ?
C1 N2 C2 C3 -174.2(3) . . . . ?
C2 O1 N3 C1 0.4(3) . . . . ?
C2 N2 C1 N1 -178.3(3) . . . . ?
C2 N2 C1 N3 1.1(3) . . . . ?
O1A N11 C1A N1A 178.0(2) . . . . ?
O1A N11 C1A N2A -1.0(3) . . . . ?
O1A C2A C3A N3A -76.8(3) . . . . ?
O1A C2A C3A N4A 45.7(4) . . . . ?
O1A C2A C3A N5A 166.1(2) . . . . ?
O2A N3A C3A N4A -169.1(3) . . . . ?
O2A N3A C3A N5A 76.8(3) . . . . ?
O2A N3A C3A C2A -41.8(4) . . . . ?
O3A N3A C3A N4A 11.1(4) . . . . ?
O3A N3A C3A N5A -103.0(3) . . . . ?
O3A N3A C3A C2A 138.3(3) . . . . ?
O4A N4A C3A N3A 86.0(4) . . . . ?
O4A N4A C3A N5A -159.3(3) . . . . ?
O4A N4A C3A C2A -37.2(4) . . . . ?
O5A N4A C3A N3A -89.9(3) . . . . ?
O5A N4A C3A N5A 24.8(4) . . . . ?
O5A N4A C3A C2A 146.9(3) . . . . ?
O6A N5A C3A N3A 4.7(4) . . . . ?
O6A N5A C3A N4A -110.5(3) . . . . ?
O6A N5A C3A C2A 123.3(3) . . . . ?
O7A N5A C3A N3A -178.7(3) . . . . ?
O7A N5A C3A N4A 66.0(3) . . . . ?
O7A N5A C3A C2A -60.2(3) . . . . ?
N1A N1A C1A N2A 4.3(5) 2_656 . . . ?
N1A N1A C1A N11 -174.6(3) 2_656 . . . ?
N2A C2A C3A N3A 98.3(3) . . . . ?
N2A C2A C3A N4A -139.2(3) . . . . ?
N2A C2A C3A N5A -18.8(4) . . . . ?
N11 O1A C2A N2A -0.1(3) . . . . ?
N11 O1A C2A C3A 175.4(2) . . . . ?
C1A N2A C2A O1A -0.4(3) . . . . ?
C1A N2A C2A C3A -175.7(3) . . . . ?
C2A O1A N11 C1A 0.7(3) . . . . ?
C2A N2A C1A N1A -178.0(3) . . . . ?
C2A N2A C1A N11 1.0(3) . . . . ?
loop_
_exptl_oxdiff_crystal_face_indexfrac_h
_exptl_oxdiff_crystal_face_indexfrac_k
_exptl_oxdiff_crystal_face_indexfrac_l
_exptl_oxdiff_crystal_face_x
_exptl_oxdiff_crystal_face_y
_exptl_oxdiff_crystal_face_z
3.7609 0.3455 -2.1067 -0.7208 0.4427 0.5333
0.3693 -7.3019 1.9067 -0.4672 0.2850 -0.8369
-3.7712 0.4974 1.8693 0.7684 -0.4717 -0.4324
0.0281 7.3105 -2.1213 0.3895 -0.2373 0.8899
0.0000 0.0000 1.0000 0.0844 0.0939 -0.0085
-0.0000 -0.0000 -1.0000 -0.0844 -0.0939 0.0085
