#------------------------------------------------------------------------------
#$Date: 2021-11-19 02:05:48 +0200 (Fri, 19 Nov 2021) $
#$Revision: 270758 $
#$URL: file:///home/coder/svn-repositories/cod/cif/7/70/88/7708888.cif $
#------------------------------------------------------------------------------
#
# This file is available in the Crystallography Open Database (COD),
# http://www.crystallography.net/
#
# All data on this site have been placed in the public domain by the
# contributors.
#
data_7708888
loop_
_publ_author_name
'Brune, Veronika'
'Raydan, Nidal'
'Sutorius, Anja'
'Hartl, Fabian'
'Purohit, Bhagyesh'
'Gahlot, Sweta'
'Bargiela, Pascal'
'Burel, Laurence'
'Wilhelm, Michael'
'Hegemann, Corinna'
'Atamt\"urk, Ufuk'
'Mathur, Sanjay'
'Mishra, Shashank'
_publ_section_title
;
 Single source precursor route to nanometric tin chalcogenides.
;
_journal_name_full
'Dalton transactions (Cambridge, England : 2003)'
_journal_paper_doi               10.1039/d1dt02964a
_journal_year                    2021
_chemical_formula_moiety         'C10 H22 N2 S4 Sn'
_chemical_formula_sum            'C10 H22 N2 S4 Sn'
_chemical_formula_weight         417.22
_space_group_crystal_system      triclinic
_space_group_IT_number           2
_space_group_name_Hall           '-P 1'
_space_group_name_H-M_alt        'P -1'
_atom_sites_solution_hydrogens   geom
_audit_creation_method           SHELXL-2014
_audit_update_record
;
2021-08-23 deposited with the CCDC.	2021-11-01 downloaded from the CCDC.
;
_cell_angle_alpha                82.131(7)
_cell_angle_beta                 84.825(7)
_cell_angle_gamma                66.446(7)
_cell_formula_units_Z            2
_cell_length_a                   7.9745(7)
_cell_length_b                   9.8264(9)
_cell_length_c                   11.1097(9)
_cell_measurement_reflns_used    5318
_cell_measurement_temperature    293(2)
_cell_measurement_theta_max      25.242
_cell_measurement_theta_min      1.852
_cell_volume                     789.91(13)
_computing_cell_refinement       'X-Area (Stoe & Cie, 2001)'
_computing_data_collection       'X-Area (Stoe & Cie, 2001)'
_computing_data_reduction        'X-Area (Stoe & Cie, 2001)'
_computing_structure_refinement  'SHELXL-2014 (Sheldrick, 2014)'
_computing_structure_solution    'SHELXS-97 (Sheldrick, 1990)'
_diffrn_ambient_temperature      293(2)
_diffrn_detector_area_resol_mean 'not measured'
_diffrn_measured_fraction_theta_full 1.000
_diffrn_measured_fraction_theta_max 0.988
_diffrn_measurement_device_type  'IPDS 2 T (Stoe & Cie)'
_diffrn_measurement_method       '\w and \f scans'
_diffrn_radiation_type           MoK\a
_diffrn_radiation_wavelength     0.71073
_diffrn_reflns_av_R_equivalents  0.0986
_diffrn_reflns_av_unetI/netI     0.0919
_diffrn_reflns_Laue_measured_fraction_full 1.000
_diffrn_reflns_Laue_measured_fraction_max 0.988
_diffrn_reflns_limit_h_max       10
_diffrn_reflns_limit_h_min       -10
_diffrn_reflns_limit_k_max       12
_diffrn_reflns_limit_k_min       -13
_diffrn_reflns_limit_l_max       15
_diffrn_reflns_limit_l_min       -15
_diffrn_reflns_number            11485
_diffrn_reflns_point_group_measured_fraction_full 1.000
_diffrn_reflns_point_group_measured_fraction_max 0.988
_diffrn_reflns_theta_full        25.242
_diffrn_reflns_theta_max         29.217
_diffrn_reflns_theta_min         1.852
_diffrn_source                   'fine-focus sealed tube'
_exptl_absorpt_coefficient_mu    2.128
_exptl_absorpt_correction_T_max  0.8476
_exptl_absorpt_correction_T_min  0.6604
_exptl_absorpt_correction_type   numerical
_exptl_absorpt_process_details
;
The absorption correction (X-RED; Stoe & Cie, 2001)
was performed after optimizing the crystal shape
using X-SHAPE (Stoe & Cie, 1999).
;
_exptl_crystal_colour            colourless
_exptl_crystal_density_diffrn    1.754
_exptl_crystal_density_meas      ?
_exptl_crystal_density_method    'not measured'
_exptl_crystal_description       column
_exptl_crystal_F_000             420
_exptl_crystal_size_max          0.42
_exptl_crystal_size_mid          0.21
_exptl_crystal_size_min          0.20
_exptl_transmission_factor_max   'not measured'
_exptl_transmission_factor_min   'not measured'
_refine_diff_density_max         1.249
_refine_diff_density_min         -1.333
_refine_diff_density_rms         0.177
_refine_ls_extinction_coef       0.0155(19)
_refine_ls_extinction_expression Fc^*^=kFc[1+0.001xFc^2^\l^3^/sin(2\q)]^-1/4^
_refine_ls_extinction_method     SHELXL
_refine_ls_goodness_of_fit_ref   1.039
_refine_ls_hydrogen_treatment    constr
_refine_ls_matrix_type           full
_refine_ls_number_parameters     157
_refine_ls_number_reflns         4238
_refine_ls_number_restraints     0
_refine_ls_restrained_S_all      1.039
_refine_ls_R_factor_all          0.0856
_refine_ls_R_factor_gt           0.0484
_refine_ls_shift/su_max          0.000
_refine_ls_shift/su_mean         0.000
_refine_ls_structure_factor_coef Fsqd
_refine_ls_weighting_details
'w=1/[\s^2^(Fo^2^)+(0.0686P)^2^] where P=(Fo^2^+2Fc^2^)/3'
_refine_ls_weighting_scheme      calc
_refine_ls_wR_factor_gt          0.1165
_refine_ls_wR_factor_ref         0.1438
_reflns_Friedel_coverage         0.000
_reflns_number_gt                2801
_reflns_number_total             4238
_reflns_threshold_expression     'I > 2\s(I)'
_cod_data_source_file            d1dt02964a2.cif
_cod_data_source_block           shelx
_cod_depositor_comments
;
The following automatic conversions were performed:

data item '_exptl_crystal_density_meas' value 'not measured' was
changed to '?' -- the value is perceived as not measured.

Automatic conversion script
Id: cif_fix_values 7556 2019-12-06 15:28:31Z antanas 
;
_cod_database_code               7708888
_shelx_space_group_comment
;
The symmetry employed for this shelxl refinement is uniquely defined
by the following loop, which should always be used as a source of
symmetry information in preference to the above space-group names.
They are only intended as comments.
;
_shelxl_version_number           2014-3
_shelx_res_file
;
TITL shelx     P -1         R = 0.05  New: P-1
CELL  0.71073   7.9745   9.8264  11.1097   82.131   84.825   66.446
ZERR     2.00   0.0007   0.0009   0.0009    0.007    0.007    0.007
LATT   1
SFAC  C    H    N    S    SN
UNIT  20 44 4 8 2
MERG   2
FMAP   2
PLAN   10
ACTA
BOND   $H
CONF
L.S.  10
TEMP    20.00
WGHT    0.068600
EXTI    0.015538
FVAR       0.74949
SN1   5    0.578718    0.228466    0.743921    11.00000    0.03420    0.03718 =
         0.03584   -0.00634   -0.00066   -0.01360
S1    4    0.371712    0.122685    0.679724    11.00000    0.04306    0.05775 =
         0.06159   -0.01659   -0.00530   -0.02310
S2    4    0.636702    0.152106    0.960237    11.00000    0.07351    0.05098 =
         0.03399   -0.00451   -0.00068   -0.02954
S3    4    0.703621    0.255680    0.538131    11.00000    0.06799    0.05687 =
         0.03766   -0.00660    0.00356   -0.02794
S4    4    0.309207    0.456206    0.784263    11.00000    0.03417    0.04660 =
         0.08043   -0.01467    0.00289   -0.01265
N1    3    0.787926   -0.043115    0.744773    11.00000    0.03762    0.04263 =
         0.04559   -0.00723    0.00181   -0.01123
N2    3    0.730765    0.406114    0.761461    11.00000    0.03329    0.04325 =
         0.04633   -0.00026    0.00030   -0.01460
C1    1    0.520646   -0.069927    0.667684    11.00000    0.07813    0.05089 =
         0.06682   -0.01359   -0.01779   -0.03475
AFIX  23
H1A   2    0.502488   -0.129994    0.740543    11.00000   -1.20000
H1B   2    0.484608   -0.102465    0.599323    11.00000   -1.20000
AFIX   0
C2    1    0.722681   -0.100237    0.651183    11.00000    0.07506    0.04988 =
         0.05145   -0.01462   -0.00106   -0.02382
AFIX  23
H2A   2    0.792170   -0.207115    0.653405    11.00000   -1.20000
H2B   2    0.745140   -0.054261    0.571808    11.00000   -1.20000
AFIX   0
C3    1    0.793690   -0.042422    0.967136    11.00000    0.05074    0.06244 =
         0.05009    0.00923   -0.01657   -0.02512
AFIX  23
H3A   2    0.918346   -0.048144    0.962552    11.00000   -1.20000
H3B   2    0.774876   -0.094070    1.044728    11.00000   -1.20000
AFIX   0
C4    1    0.769325   -0.120463    0.865790    11.00000    0.05597    0.03847 =
         0.05166    0.00156   -0.00947   -0.01849
AFIX  23
H4A   2    0.860197   -0.222228    0.871433    11.00000   -1.20000
H4B   2    0.649240   -0.124518    0.875355    11.00000   -1.20000
AFIX   0
C5    1    0.979895   -0.063284    0.716599    11.00000    0.03789    0.06079 =
         0.07393   -0.00148    0.00304   -0.00719
AFIX 137
H5A   2    1.022531   -0.028158    0.779258    11.00000   -1.50000
H5B   2    0.988361   -0.007546    0.639923    11.00000   -1.50000
H5C   2    1.053930   -0.167295    0.712250    11.00000   -1.50000
AFIX   0
C6    1    0.843941    0.360237    0.550684    11.00000    0.05576    0.07305 =
         0.04643   -0.00210    0.01295   -0.02865
AFIX  23
H6A   2    0.963856    0.291891    0.578009    11.00000   -1.20000
H6B   2    0.860013    0.409656    0.471369    11.00000   -1.20000
AFIX   0
C7    1    0.757485    0.473956    0.637985    11.00000    0.07109    0.04903 =
         0.05609   -0.00099    0.00160   -0.03375
AFIX  23
H7A   2    0.834213    0.528811    0.641706    11.00000   -1.20000
H7B   2    0.639844    0.544459    0.608544    11.00000   -1.20000
AFIX   0
C8    1    0.605221    0.519123    0.837735    11.00000    0.05016    0.03889 =
         0.05098   -0.01107   -0.00723   -0.01802
AFIX  23
H8A   2    0.650215    0.597387    0.837795    11.00000   -1.20000
H8B   2    0.605121    0.472977    0.920700    11.00000   -1.20000
AFIX   0
C9    1    0.410187    0.588691    0.795035    11.00000    0.05340    0.03775 =
         0.05661   -0.01216   -0.00291   -0.01718
AFIX  23
H9A   2    0.408862    0.644541    0.715803    11.00000   -1.20000
H9B   2    0.334838    0.658998    0.850831    11.00000   -1.20000
AFIX   0
C10   1    0.907357    0.332291    0.821760    11.00000    0.03579    0.05938 =
         0.08032   -0.00633   -0.01076   -0.01724
AFIX 137
H10A  2    0.892118    0.275051    0.896041    11.00000   -1.50000
H10B  2    0.948472    0.406574    0.839520    11.00000   -1.50000
H10C  2    0.996334    0.267237    0.768935    11.00000   -1.50000
AFIX   0
HKLF    4

REM  shelx     P -1         R = 0.05  New: P-1
REM R1 =  0.0484 for    2801 Fo > 4sig(Fo)  and  0.0856 for all    4238 data
REM    157 parameters refined using      0 restraints

END

WGHT      0.0686      0.0000

REM Highest difference peak  1.249,  deepest hole -1.333,  1-sigma level  0.177
Q1    1   0.6189  0.3396  0.7461  11.00000  0.05    1.25
Q2    1   0.5220  0.1194  0.7429  11.00000  0.05    1.24
Q3    1   0.7058  0.1788  0.6595  11.00000  0.05    0.95
Q4    1   0.4439  0.3040  0.8212  11.00000  0.05    0.89
Q5    1   0.4118  0.3292  0.7657  11.00000  0.05    0.85
Q6    1   0.2628  0.3179  0.7717  11.00000  0.05    0.84
Q7    1   0.7391  0.1341  0.7222  11.00000  0.05    0.84
Q8    1   0.5755  0.1786  0.8636  11.00000  0.05    0.78
Q9    1   0.4739  0.1853  0.6750  11.00000  0.05    0.77
Q10   1   0.6320  0.0782  0.7392  11.00000  0.05    0.76
;
_shelx_res_checksum              59433
_shelx_hkl_file
;
  -1  -3  -8  113.65   26.68   0
  -1  -3  -7 1362.63   32.34   0
  -1  -3  -6   15.43   20.18   0
  -1  -2  -8  227.81   26.77   0
  -1  -2  -7   -1.97   20.05   0
  -1  -2  -6 3864.36   53.66   0
  -1  -2  -5  393.06   30.60   0
  -1  -1  -7 1025.10   38.80   0
  -1  -1  -6 1200.78   42.47   0
   0  -7  -9   51.95   27.58   0
   0  -7  -8  586.16   29.86   0
   0  -7  -7   17.16   20.03   0
   0  -7  -6 1727.06   36.71   0
   0  -6 -11  611.05   35.74   0
   0  -6 -10  -21.81   22.16   0
   0  -6  -4 1328.06   29.94   0
   0  -6  -3  152.03   31.61   0
   0  -5 -12  102.38   25.95   0
   0  -5  -2  600.97   25.52   0
   0  -4  -1 4503.92   50.99   0
   0  -3 -13   32.46   29.23   0
   0  -2 -13  101.63   27.03   0
   0  -2   0  808.21   36.50   0
   0  -1 -13   81.90   30.94   0
   0   3  -9 1108.14   52.78   0
   1  -8 -10    3.54   26.18   0
   1  -8  -9  180.61   26.08   0
   1  -8  -5  521.87   25.86   0
   1  -8  -4  184.91   26.91   0
   1  -7 -12  102.65   27.20   0
   1  -7  -2  885.43   27.26   0
   1  -3   2 1091.22   34.48   0
   1   6  -7   68.89   28.40   0
   1   6  -4  877.98   31.85   0
   1   6  -3  337.57   22.48   0
   2  -9  -9  177.71   28.65   0
   2  -9  -8  139.72   25.36   0
   2  -9  -7  187.77   26.24   0
   2  -9  -6   57.80   24.77   0
   2  -9  -5  181.80   26.24   0
   2  -9  -4  228.27   32.00   0
   2  -8  -2    6.54   20.88   0
   2  -7   0  854.83   26.97   0
   2  -4   3 1025.75   30.80   0
   2   3   4   14.91   21.03   0
   2   6 -12  113.10   34.03   0
   2   7 -10   19.89   27.60   0
   2   7   0   26.72   19.69   0
   2   8  -7   22.39   21.19   0
   2   8  -6  723.63   27.54   0
   2   8  -5   49.50   25.74   0
   2   8  -4  614.44   24.82   0
   2   8  -3   58.14   18.32   0
   3  -9  -3  259.47   26.43   0
   3  -9  -2   29.41   32.12   0
   3  -8   0  262.34   28.89   0
   3   6   4 1105.83   28.12   0
   3   7   3 1038.08   27.54   0
   3   8   2 1116.28   27.09   0
   3   9  -9   23.65   24.51   0
   3   9  -1  381.81   30.11   0
   4  -9  -1  137.03   30.83   0
   4  -8   1    8.35   31.99   0
   4   1   7   12.03   30.33   0
   4   2   7  539.92   36.18   0
   4   3   7    5.91   21.10   0
   4   7   5 1233.15   29.10   0
   4   8   4  595.22   25.33   0
   4   9   3  600.33   23.33   0
   4  10   1  178.32   22.30   0
   4  11  -6  123.20   25.95   0
   4  11  -5   35.20   24.13   0
   4  11  -4   43.28   23.02   0
   4  11  -3   84.84   22.52   0
   5  -7   3   88.41   29.97   0
   5  -6   4   44.37   23.06   0
   5  -5   5  157.78   24.04   0
   5  -4   6  647.59   35.67   0
   5   2   8  375.91   33.88   0
   5   3   8 1229.01   38.08   0
   5   6   7  463.86   29.87   0
   5   8   6  400.48   21.95   0
   5   9   5  455.51   24.22   0
   5  11   2   84.76   22.68   0
   5  12  -4   21.95   30.75   0
   5  12  -3   51.52   26.00   0
   5  12  -2    9.60   23.17   0
   6   6   8    6.14   25.45   0
   6   8   7   50.28   22.26   0
   6  10   5  290.29   30.42   0
   6  11   4  306.86   22.50   0
   6  12   2    4.72   23.05   0
   7  -2   8  133.41   38.27   0
   7   6   9  176.54   26.23   0
   7   8   8  129.75   28.83   0
   7  12   4   87.77   25.89   0
   8   8   9   85.89   27.70   0
  -1  -4  -9  357.10   28.89   0
  -1  -4  -8  890.58   26.92   0
  -1  -4  -7  393.50   23.79   0
  -1  -4  -6 4549.08   48.41   0
  -1  -4  -5  233.80   27.61   0
  -1  -3  -9  738.29   29.50   0
  -1  -3  -5 2126.22   38.09   0
  -1  -2  -9  215.88   24.74   0
  -1  -1  -8    6.40   18.41   0
  -1  -1  -5 3782.94   67.86   0
   0  -7 -10  363.51   25.23   0
   0  -7  -5  241.09   22.50   0
   0  -7  -4  540.29   30.14   0
   0  -6 -12   28.76   29.70   0
   0  -5 -13   -1.89   29.98   0
   0  -4 -13   38.63   23.12   0
   0  -3   0 2748.51   51.55   0
   0   1 -12    6.40   35.02   0
   0   3  -3 2252.38   46.01   0
   1  -9  -9   27.45   33.25   0
   1  -9  -8   49.99   22.81   0
   1  -9  -7  146.89   22.92   0
   1  -9  -6   33.82   30.49   0
   1  -8 -11   20.61   27.11   0
   1  -8  -3  559.70   24.85   0
   1  -7  -1   70.69   21.83   0
   1  -6   0  -18.53   19.47   0
   1  -5   1  923.18   28.77   0
   1   2   2  515.84   30.77   0
   1   3 -13  123.82   52.89   0
   1   5 -10   24.07   22.05   0
   1   5  -1  324.44   22.54   0
   1   6  -6  153.50   22.89   0
   1   6  -5    0.64   18.13   0
   2 -10  -7   24.82   29.45   0
   2  -9  -3   95.23   21.70   0
   2  -8  -1   77.96   20.42   0
   2  -6   2  113.17   25.72   0
   2   6   1    6.20   18.39   0
   2   7  -1 1297.65   28.50   0
   3 -10  -4   87.96   27.98   0
   3  -9  -1  141.57   31.35   0
   3  -7   2  270.90   25.53   0
   3  -6   3  415.56   24.88   0
   3  -3   5   84.23   22.95   0
   3   4   5  255.84   22.05   0
   3   8   1   27.13   19.75   0
   3   9  -8   44.52   23.70   0
   3   9  -7  325.97   32.64   0
   3   9  -2  195.39   19.89   0
   4  -9   0  -29.91   29.50   0
   4  -7   3    5.82   29.58   0
   4  -6   4   -6.01   27.79   0
   4  -3   6  246.51   30.38   0
   4   5   6 1064.60   28.31   0
   4   9   2  714.51   24.42   0
   4  10  -1  692.91   28.68   0
   4  10   0  150.37   20.43   0
   5  -8   2  114.97   27.82   0
   5   7   6  784.51   29.69   0
   5   9   4  159.72   28.14   0
   5  10   3  461.70   24.14   0
   5  11   0  201.74   26.41   0
   5  11   1  129.67   21.96   0
   6  -6   5   21.32   30.81   0
   6   9   6  103.69   21.28   0
   6  11   3  -21.43   21.69   0
   6  12   1  154.88   23.39   0
   7   9   7   54.09   24.37   0
   7  10   6  -16.63   21.60   0
   7  11   5   -8.26   23.97   0
   7  12   3  258.33   24.71   0
   8   7   9  205.50   27.54   0
   8   9   8   39.22   25.46   0
   8  10   7  130.84   25.75   0
   8  11   6  179.70   26.62   0
  -1  -5  -9   99.63   21.11   0
  -1  -5  -8  137.88   19.45   0
  -1  -5  -7 1865.66   32.99   0
  -1  -5  -6 1121.94   29.59   0
  -1  -5  -5 5582.30   51.62   0
  -1  -4 -10 1352.48   34.11   0
  -1  -4  -4 2239.71   37.52   0
  -1  -3 -10  164.43   23.94   0
  -1  -3  -4    6.54   19.49   0
  -1  -2 -10 1042.02   41.02   0
  -1  -2  -4 1656.66   42.06   0
  -1  -1  -9 1834.17   49.99   0
   0  -8 -10    8.40   27.27   0
   0  -8  -9   51.27   23.94   0
   0  -8  -8   24.81   20.09   0
   0  -8  -7  722.03   26.63   0
   0  -8  -6    2.40   21.32   0
   0  -8  -5  929.74   35.12   0
   0  -7 -12  171.46   31.03   0
   0  -7 -11   23.71   24.08   0
   0  -7  -3  247.43   23.91   0
   0  -6 -13  -22.86   32.43   0
   0  -6  -2 1196.52   29.96   0
   0  -5  -1 1133.15   29.22   0
   0  -4 -14   28.63   30.53   0
   0  -3 -14  113.13   35.03   0
   0   0 -13   39.71   35.12   0
   1  -9 -10   30.06   26.42   0
   1  -9  -5   -3.21   22.62   0
   1  -9  -4  352.59   24.14   0
   1  -8  -2   -1.83   20.50   0
   1  -4   2 1754.67   37.07   0
   1   3   1 3866.80   56.52   0
   1   4   0 2461.40   39.39   0
   1   5  -2   84.61   19.62   0
   2 -10  -6  112.25   25.98   0
   2 -10  -5  136.21   24.32   0
   2 -10  -4  157.46   34.75   0
   2  -9  -2   -5.62   21.96   0
   2  -8   0    7.66   19.64   0
   2  -7   1   72.16   19.91   0
   2  -5   3   39.70   18.64   0
   2  -3   4 1373.71   40.71   0
   2   4   3  202.27   21.39   0
   2   5   2  171.49   20.89   0
   2   7  -9   65.05   21.11   0
   2   7  -2   16.32   19.62   0
   3 -10  -3   22.15   26.64   0
   3  -8   1   57.21   23.83   0
   3  -5   4  346.02   25.21   0
   3   5   4   76.71   27.24   0
   3   7   2  581.43   23.49   0
   3   8 -10   -7.13   28.50   0
   3   8   0  288.69   21.51   0
   3   9  -6  110.34   22.37   0
   3   9  -5  212.39   24.55   0
   3   9  -4   20.50   21.28   0
   3   9  -3  393.69   23.55   0
   4  -8   2  236.99   28.53   0
   4  -5   5  332.24   31.66   0
   4   6   5  369.65   21.24   0
   4   7   4  451.23   28.31   0
   4   8   3 1079.36   27.16   0
   4   9   1  580.27   22.71   0
   4  10  -8   10.88   25.55   0
   4  10  -7  122.41   36.86   0
   4  10  -3  167.52   26.98   0
   4  10  -2  210.46   20.89   0
   5   5   7   55.64   20.17   0
   5   8   5  253.60   21.87   0
   5  10   2  220.31   20.79   0
   5  11  -1   47.62   21.58   0
   6  -5   6   -1.47   25.34   0
   6   5   8  431.51   25.28   0
   6   7   7   74.03   21.05   0
   6   9   5  100.95   25.15   0
   6  10   4   31.52   21.31   0
   6  11   2  193.91   22.76   0
   6  12  -1  183.38   26.00   0
   6  12   0  -25.28   22.53   0
   7   1   9  237.12   40.26   0
   7   3   9  230.65   31.53   0
   7   4   9    1.86   22.76   0
   7   7   8   46.90   24.11   0
   7  11   4  147.23   23.42   0
   7  12   2   20.35   23.94   0
   8   6   9   -8.66   30.79   0
   8   8   8   61.24   34.57   0
   8  12   4   -8.16   26.47   0
   9   9   8   14.75   38.91   0
  -1  -6 -10   29.98   29.95   0
  -1  -6  -9    5.44   20.57   0
  -1  -6  -8   -9.12   18.36   0
  -1  -6  -7  292.29   23.91   0
  -1  -6  -6  857.24   26.62   0
  -1  -6  -5  126.44   21.89   0
  -1  -5 -11  378.84   30.81   0
  -1  -5 -10  128.69   21.22   0
  -1  -5  -4  405.21   23.87   0
  -1  -4 -11  245.81   22.78   0
  -1  -3 -11  791.73   35.17   0
  -1  -3  -3  228.20   31.21   0
  -1  -1  -4  637.00   40.84   0
   0  -9  -9   16.39   32.73   0
   0  -9  -8   24.20   28.12   0
   0  -9  -7  -12.86   28.50   0
   0  -8 -12   30.61   31.21   0
   0  -8 -11  131.88   24.89   0
   0  -8  -4  141.78   21.25   0
   0  -7 -13   29.38   32.22   0
   0  -7  -2 1421.53   31.25   0
   0  -6  -1  515.25   24.10   0
   0  -5 -14   14.79   27.29   0
   0  -4   0  915.97   28.94   0
   0  -2 -14  145.64   26.22   0
   0   3  -8    0.46   26.16   0
   0   3  -4  191.34   21.48   0
   1 -10  -9   22.16   27.93   0
   1 -10  -8   68.83   26.73   0
   1 -10  -7    3.56   23.25   0
   1 -10  -6   77.13   27.03   0
   1 -10  -5  257.01   30.85   0
   1  -9  -3   12.32   22.17   0
   1  -8  -1  441.57   23.50   0
   1  -7   0  662.00   26.86   0
   1  -6   1  484.27   24.09   0
   1   5  -9  531.47   29.76   0
   1   5  -3 2692.62   44.05   0
   2 -10  -3   28.85   24.48   0
   2  -9  -1    4.33   21.56   0
   2   6 -11   37.27   28.60   0
   2   6   0 1954.10   32.60   0
   2   7  -8   -4.13   19.45   0
   2   7  -7  802.66   32.48   0
   2   7  -4   29.71   23.92   0
   2   7  -3 2720.28   36.64   0
   3 -10  -2   16.10   26.33   0
   3  -9   0   33.31   23.92   0
   3  -7   3   72.79   27.14   0
   3  -4   5   88.10   29.48   0
   3   3   5 1876.17   42.47   0
   3   6   3   13.15   18.51   0
   3   8  -1   40.16   20.03   0
   4  -9   1   59.09   28.67   0
   4   4   6  139.70   20.56   0
   4   9   0  194.39   28.43   0
   4  10  -6   43.22   26.29   0
   4  10  -5   55.82   22.86   0
   4  10  -4   96.25   21.56   0
   5  -8   3   13.46   26.30   0
   5  -7   4   -9.62   25.26   0
   5  -6   5   -1.86   23.52   0
   5  -3   7  484.54   37.43   0
   5   6   6   32.27   23.50   0
   5   9   3  134.02   21.32   0
   5  10   1  151.23   20.71   0
   5  11  -6  133.05   25.87   0
   5  11  -5   24.79   24.37   0
   5  11  -4   60.11   23.46   0
   5  11  -3  131.40   23.47   0
   5  11  -2  320.79   25.49   0
   6  -4   7   -1.69   28.92   0
   6   8   6    8.48   21.48   0
   6  10   3   87.73   28.55   0
   6  11   1   23.00   22.56   0
   6  12  -3   61.04   25.91   0
   6  12  -2    6.30   22.86   0
   7   2   9   78.17   31.05   0
   7   6   8   32.76   27.69   0
   7   8   7   23.32   23.66   0
   7   9   6  155.73   23.90   0
   7  10   5  198.24   24.01   0
   7  11   3  -21.89   29.52   0
   7  12   1   57.07   25.78   0
   8   9   7  195.82   24.53   0
   8  10   6   78.97   27.11   0
   8  11   5    7.95   24.01   0
   8  12   3   61.91   26.20   0
   9   7   9   53.25   28.03   0
  -1  -7 -10  170.39   23.92   0
  -1  -7  -9   42.01   19.66   0
  -1  -7  -8  159.69   19.95   0
  -1  -7  -7  141.03   21.56   0
  -1  -7  -6  308.45   24.05   0
  -1  -7  -5    9.51   26.64   0
  -1  -6 -11  184.75   24.76   0
  -1  -6  -4  586.09   25.53   0
  -1  -5 -12   44.55   28.81   0
  -1  -5  -3 4005.24   45.70   0
  -1  -4 -12  181.27   31.02   0
  -1  -4  -3   12.08   20.15   0
  -1  -2 -11   60.66   27.17   0
  -1  -2  -3    9.43   22.05   0
  -1  -1 -10  174.79   32.31   0
  -1   0  -7   40.83   25.36   0
  -1   0  -6 1274.34   62.66   0
   0  -9 -11    2.45   25.33   0
   0  -9 -10   43.31   26.21   0
   0  -9  -6  157.52   22.21   0
   0  -9  -5   59.34   21.53   0
   0  -9  -4  227.81   27.25   0
   0  -8  -3 1095.53   28.21   0
   0  -5   0  123.16   20.80   0
   0  -1 -14   85.48   35.80   0
   0   2  -2  107.24   24.73   0
   0   3  -7  427.22   33.83   0
   0   3  -6  251.87   27.68   0
   0   3  -5 1621.58   40.65   0
   1 -10  -4   61.78   22.16   0
   1  -9  -2  151.86   21.00   0
   1  -5   2  771.64   27.12   0
   1   4 -11   53.33   26.99   0
   1   4  -1   -8.51   22.59   0
   1   5  -8    3.86   26.13   0
   1   5  -4  511.64   29.80   0
   2 -10  -2   67.89   25.30   0
   2  -9   0   82.95   21.89   0
   2  -8   1  540.55   26.12   0
   2  -7   2  818.80   27.29   0
   2  -6   3  606.97   30.87   0
   2  -4   4    4.12   23.30   0
   2   5   1 2925.24   38.85   0
   2   6  -1   30.05   26.36   0
   2   7  -6   24.76   19.99   0
   2   7  -5   97.89   18.17   0
   3 -10  -1   -1.83   24.95   0
   3  -9   1  309.78   25.85   0
   3  -8   2  158.85   22.51   0
   3  -6   4   85.19   21.31   0
   3   7   1 1264.67   28.10   0
   3   8  -9   12.42   24.20   0
   3   8  -8  154.82   29.32   0
   3   8  -2 1182.00   28.30   0
   4  -9   2  -17.51   30.76   0
   4  -8   3    6.71   23.62   0
   4  -7   4   34.15   23.86   0
   4  -4   6  588.81   37.74   0
   4   7   3   77.80   26.37   0
   4   8   2  232.62   20.89   0
   4   9  -9    1.77   30.59   0
   4   9  -1  151.34   20.19   0
   5  -5   6    2.49   21.68   0
   5   4   7  810.08   29.72   0
   5   7   5  255.98   22.09   0
   5   8   4  415.47   22.59   0
   5   9   2  468.44   29.16   0
   5  10   0  196.53   21.38   0
   6   6   7  145.55   21.59   0
   6   9   4   37.97   19.62   0
   6  11   0  180.47   21.81   0
   7  10   4   54.20   26.19   0
   7  11   2  162.64   28.95   0
   7  12  -1   38.44   30.53   0
   7  12   0   30.92   22.72   0
   8   7   8  112.21   25.58   0
   8  11   4   46.65   24.04   0
   8  12   2   38.70   24.23   0
   9   6   9  -14.40   25.59   0
   9   8   8   45.59   26.67   0
  -1  -8 -10  128.15   24.34   0
  -1  -8  -9   31.66   21.43   0
  -1  -8  -8  167.75   21.60   0
  -1  -8  -7  884.03   28.42   0
  -1  -8  -6  187.24   23.08   0
  -1  -8  -5  318.17   28.08   0
  -1  -7 -12   62.20   33.18   0
  -1  -7 -11  184.35   23.92   0
  -1  -7  -4   41.92   22.40   0
  -1  -6 -12   42.54   24.17   0
  -1  -6  -3   12.53   20.34   0
  -1  -4  -2 3106.72   47.29   0
  -1  -3 -12   87.74   22.78   0
  -1   0  -8  897.68   53.03   0
   0 -10 -10   31.05   27.22   0
   0 -10  -9   48.81   26.32   0
   0 -10  -8    5.24   24.84   0
   0 -10  -7   53.42   23.50   0
   0 -10  -6   22.05   23.58   0
   0 -10  -5  -31.29   28.63   0
   0  -9  -3    0.08   26.66   0
   0  -8  -2   15.07   20.29   0
   0  -7  -1   55.17   22.35   0
   0  -6   0 1075.19   29.17   0
   0  -3 -15   15.61   26.96   0
   1 -11  -6   44.38   24.64   0
   1 -11  -5   14.48   29.13   0
   1 -10  -3  122.37   21.11   0
   1  -9  -1   14.83   19.31   0
   1  -8   0  176.00   20.53   0
   1  -7   1   35.60   21.16   0
   1  -6   2   15.93   26.56   0
   1  -2   3  166.10   30.50   0
   1   5  -7  717.36   29.01   0
   1   5  -6   14.00   19.91   0
   1   5  -5  652.16   25.00   0
   2 -11  -3   40.09   26.83   0
   2 -10  -1   58.43   25.90   0
   2   1   4 2117.34   58.15   0
   2   3   3 2657.52   43.77   0
   2   4   2 2081.41   36.23   0
   2   6 -10   16.51   19.70   0
   3 -10   0   28.04   26.04   0
   3   4   4  982.72   28.25   0
   3   5   3  325.57   28.16   0
   3   6   2 1145.52   27.57   0
   3   7 -11    7.41   34.55   0
   3   7   0  117.23   19.76   0
   3   8  -7  322.81   23.22   0
   3   8  -6  502.45   29.31   0
   3   8  -5   13.26   24.17   0
   3   8  -4  480.51   23.18   0
   3   8  -3   89.54   18.94   0
   4  -6   5   43.72   22.08   0
   4   5   5   36.81   19.19   0
   4   6   4  179.63   20.49   0
   4   8   1  347.28   21.85   0
   4   9  -8   19.13   28.89   0
   4   9  -3   -4.75   24.94   0
   4   9  -2  777.82   25.28   0
   5  -7   5   18.64   28.86   0
   5   8   3  453.47   26.39   0
   5  10  -8   14.85   35.02   0
   5  10  -2   15.13   22.89   0
   5  10  -1  420.35   23.76   0
   6  -2   8  128.68   50.78   0
   6   3   8  329.25   27.70   0
   6   7   6  414.37   23.40   0
   6   8   5  419.64   21.41   0
   6  10   2   22.31   19.65   0
   6  11  -2  253.30   25.08   0
   6  11  -1   17.78   19.43   0
   7  -3   8    6.33   38.90   0
   7   5   8   50.18   23.13   0
   7   7   7  101.79   24.41   0
   7   8   6  193.49   24.04   0
   7   9   5  167.46   23.18   0
   7  11   1  -11.30   27.07   0
   7  12  -2   27.06   25.29   0
   8   0   9    4.97   44.64   0
   8   4   9   21.85   23.69   0
   8   8   7   52.98   24.87   0
   8   9   6   42.53   25.05   0
   8  10   5   45.04   25.41   0
   8  11   3   18.01   30.21   0
   8  12   1   19.30   23.37   0
   9   9   7   52.04   26.03   0
   9  10   6   22.33   27.48   0
  -1  -9 -10   17.22   24.45   0
  -1  -9  -9   51.35   23.56   0
  -1  -9  -8   34.91   23.60   0
  -1  -9  -7   -9.62   22.36   0
  -1  -9  -6   47.19   24.88   0
  -1  -8 -12   21.31   31.03   0
  -1  -8 -11   50.77   25.66   0
  -1  -8  -4   12.28   21.11   0
  -1  -7 -13   -1.51   32.52   0
  -1  -7  -3  345.91   22.83   0
  -1  -6 -13   -8.73   24.08   0
  -1  -6  -2 4291.00   49.02   0
  -1  -5 -13   12.32   22.37   0
  -1  -5  -2  314.07   23.09   0
  -1  -4 -13    6.87   21.79   0
  -1  -3  -2   71.62   24.82   0
  -1  -2 -12   12.51   30.88   0
   0 -11  -8  -15.74   26.64   0
   0 -11  -7   14.82   28.79   0
   0 -10  -4    8.26   21.61   0
   0  -9  -2 1057.33   31.59   0
   0  -8  -1  991.09   28.40   0
   0  -7   0  255.50   28.02   0
   0  -5   1  465.45   29.39   0
   0  -4   1 1036.82   28.66   0
   0  -3   1 1780.26   41.82   0
   0  -2 -15   -1.43   28.51   0
   0  -2   1  628.05   40.52   0
   0   1  -1 6002.08  116.58   0
   1 -11  -4   11.77   26.62   0
   1 -11  -3   -6.15   30.99   0
   1 -10  -2   62.32   25.04   0
   1  -9   0   73.85   32.63   0
   1  -8   1  627.17   33.06   0
   1  -4   3 3222.92   52.95   0
   1  -3   3 1810.57   41.59   0
   1   3   0   72.49   21.98   0
   1   4  -2  258.55   26.04   0
   2 -11  -2   -0.87   25.93   0
   2 -10   0   42.67   24.33   0
   2  -9   1   21.03   22.33   0
   2  -8   2  -10.75   23.39   0
   2  -7   3  375.23   28.84   0
   2  -5   4  382.71   25.48   0
   2   5 -12   48.01   32.08   0
   2   5   0  203.64   26.07   0
   2   6  -9   25.12   28.67   0
   2   6  -2 2181.36   35.12   0
   3 -10   1  -21.21   30.27   0
   3  -9   2   24.92   24.98   0
   3  -8   3    1.97   23.10   0
   3  -7   4   16.24   30.20   0
   3  -5   5   62.29   21.40   0
   3   7  -1 1021.48   30.39   0
   4  -9   3   37.78   32.17   0
   4  -8   4   37.47   32.21   0
   4   7   2  961.84   32.88   0
   4   8   0  360.05   22.44   0
   4   9  -7   26.66   23.72   0
   4   9  -6   54.92   23.68   0
   4   9  -5    7.16   22.50   0
   4   9  -4   16.18   18.76   0
   5   5   6 1167.30   28.90   0
   5   6   5 1204.13   32.76   0
   5   7   4 1162.35   27.75   0
   5   9   1  659.81   24.98   0
   5  10  -7  -16.10   24.15   0
   5  10  -6   -6.69   23.17   0
   5  10  -5  -17.61   24.19   0
   5  10  -4   36.74   21.11   0
   5  10  -3   30.17   23.66   0
   6   2   8  511.12   35.03   0
   6   5   7   10.78   19.69   0
   6   9   3  -16.42   19.08   0
   6  10   1   41.81   21.88   0
   6  11  -5   24.68   24.27   0
   6  11  -4    7.65   26.63   0
   6  11  -3   -8.04   24.08   0
   7  10   3    9.97   20.67   0
   7  11   0   -3.68   27.25   0
   8   2   9    6.00   29.63   0
   8   3   9  -37.89   27.61   0
   8   6   8   13.49   27.14   0
   8  10   4  -23.55   24.99   0
   8  11   2   10.92   29.98   0
   8  12   0  -28.71   23.32   0
   9   4   9   45.29   33.37   0
   9   7   8   -3.42   26.53   0
   9   8   7   15.95   33.49   0
   9  10   5   -5.90   25.78   0
   9  11   4   27.81   25.96   0
  -2  -6  -8  219.58   27.31   0
  -2  -6  -7   21.12   26.85   0
  -2  -5  -8  131.04   27.39   0
  -2  -5  -7 1770.82   37.30   0
  -1 -10 -10   24.84   26.44   0
  -1 -10  -9   -8.83   26.64   0
  -1 -10  -8   45.29   24.17   0
  -1 -10  -7  191.20   22.25   0
  -1 -10  -6   91.05   30.24   0
  -1  -9 -12   51.12   28.48   0
  -1  -9 -11   51.05   24.99   0
  -1  -9  -5   87.70   22.72   0
  -1  -9  -4  410.16   30.78   0
  -1  -8  -3 1091.23   27.75   0
  -1  -7  -2  678.35   25.22   0
  -1  -6 -14   21.43   34.83   0
  -1  -5 -14  -15.31   33.47   0
  -1  -3 -13   42.31   23.20   0
  -1  -2  -2  519.39   30.55   0
  -1  -1 -11  466.31   36.07   0
  -1  -1  -3  345.26   38.90   0
   0 -11  -6   58.32   25.78   0
   0 -11  -5    7.27   23.24   0
   0 -10  -3  233.27   24.68   0
   0  -6   1   74.98   29.53   0
   1 -11  -2   35.56   34.32   0
   1 -10  -1  173.99   23.74   0
   1  -7   2  752.70   26.78   0
   1  -5   3   38.65   27.50   0
   1   2   1   24.97   21.45   0
   1   4 -10  181.02   31.34   0
   2 -11  -1   51.02   25.41   0
   2   6  -8  444.96   25.20   0
   2   6  -4  896.61   29.70   0
   2   6  -3  288.63   22.13   0
   3   6   1   42.28   18.91   0
   3   7 -10   17.81   23.04   0
   3   7  -2  184.87   26.51   0
   4  -7   5   -1.86   29.65   0
   4  -5   6  156.29   24.46   0
   4   4   5 1549.83   37.78   0
   4   6   3  915.22   31.17   0
   4   8 -10   11.43   30.13   0
   4   8  -1  292.01   27.23   0
   5  -6   6   39.73   26.58   0
   5  -4   7    9.96   29.55   0
   5   8   2   23.90   18.81   0
   5   9   0  219.76   21.97   0
   6  -5   7    9.04   30.57   0
   6   6   6   11.09   19.49   0
   6   7   5   17.41   19.14   0
   6   8   4  -29.28   18.56   0
   6   9   2  200.41   21.57   0
   6  10  -1   68.48   29.95   0
   6  10   0  114.03   21.84   0
   7   6   7   12.86   21.44   0
   7   7   6  170.77   26.88   0
   7   8   5  256.95   23.84   0
   7   9   4   10.72   19.85   0
   7  10   2   -9.03   20.43   0
   7  11  -2   -2.11   27.83   0
   7  11  -1   31.61   22.64   0
   8   1   9    1.49   31.39   0
   8   5   8  -39.95   28.21   0
   8   7   7  102.86   23.29   0
   8   8   6  320.24   25.77   0
   8   9   5  364.74   25.59   0
   8  11   1   53.71   27.45   0
   9   3   9   37.19   31.93   0
   9   6   8  122.43   36.32   0
   9   9   6    7.36   24.42   0
   9  11   3   58.61   27.08   0
  -2  -8  -9   53.08   27.53   0
  -2  -8  -8  584.15   26.74   0
  -2  -8  -7   83.01   27.53   0
  -2  -7 -10   -7.17   21.50   0
  -2  -7  -9   99.07   22.05   0
  -2  -7  -8   -8.23   19.75   0
  -2  -7  -7  741.74   25.99   0
  -2  -7  -6   -4.17   20.90   0
  -2  -6 -10  291.79   23.27   0
  -2  -6  -9   11.63   19.49   0
  -2  -6  -6 1794.53   31.39   0
  -2  -6  -5  163.46   28.15   0
  -2  -5 -10   -3.00   20.18   0
  -2  -5  -9  244.84   21.58   0
  -2  -5  -6   29.71   19.94   0
  -2  -5  -5 2353.29   41.47   0
  -2  -4  -9   44.17   28.57   0
  -2  -4  -8  302.32   21.92   0
  -2  -4  -7    0.20   18.19   0
  -2  -4  -6 1575.18   37.59   0
  -1 -11  -9   35.89   26.95   0
  -1 -11  -8   45.94   28.90   0
  -1 -11  -7   39.13   31.96   0
  -1 -10  -5   -7.20   22.53   0
  -1 -10  -4  106.56   27.40   0
  -1  -9  -3  152.72   21.45   0
  -1  -8  -2  231.78   22.52   0
  -1  -6  -1  318.93   22.94   0
  -1  -5  -1 5420.20   51.00   0
  -1  -4 -14   33.08   26.31   0
  -1  -4  -1   35.23   20.62   0
  -1   0  -9 1017.59   60.64   0
  -1   0  -5 1231.78   68.24   0
   0 -11  -4   57.26   24.93   0
   0 -11  -3   -0.16   28.17   0
   0 -10  -2    0.12   20.74   0
   0  -9  -1   44.03   22.47   0
   0  -8   0  310.03   23.07   0
   0  -7   1  462.02   28.75   0
   0   2 -10  474.07   44.67   0
   0   2  -3  104.79   24.73   0
   1 -11  -1    5.34   33.04   0
   1 -10   0   -4.92   23.23   0
   1  -9   1   57.66   23.44   0
   1  -8   2  -13.19   24.95   0
   1  -6   3  657.37   30.75   0
   1   4  -3    1.47   18.25   0
   2 -11   0  -10.48   26.08   0
   2 -10   1   35.00   23.45   0
   2  -9   2   21.09   21.61   0
   2  -8   3  203.69   24.19   0
   2  -6   4  166.45   22.69   0
   2   4   1 4467.67   48.85   0
   2   5 -11   48.46   27.65   0
   2   5  -1  164.69   19.97   0
   2   6  -7  117.56   20.97   0
   2   6  -6   15.19   19.73   0
   2   6  -5    7.60   17.20   0
   3 -10   2   -0.27   27.92   0
   3  -9   3   52.00   26.55   0
   3  -8   4   49.53   34.07   0
   3  -6   5  300.19   25.99   0
   3   5   2  945.51   27.14   0
   3   6 -12   13.59   31.93   0
   3   6   0  940.56   29.95   0
   3   7  -9   20.17   22.65   0
   3   7  -8  300.08   28.83   0
   3   7  -3 1189.25   27.59   0
   4   2   6   30.19   25.06   0
   4   5   4  544.73   24.30   0
   4   7   1  104.54   21.75   0
   4   8  -9   27.67   28.20   0
   4   8  -2   35.30   20.60   0
   5   2   7   46.18   30.07   0
   5   4   6   67.31   25.72   0
   5   7   3  143.43   21.20   0
   5   8   1  736.02   28.54   0
   5   9  -9   34.12   24.89   0
   5   9  -2  366.29   25.64   0
   5   9  -1    5.43   19.80   0
   6   1   8  313.24   36.94   0
   6   4   7  510.04   26.82   0
   6   8   3  308.64   28.52   0
   6   9   1   89.32   26.86   0
   6  10  -3  190.52   28.30   0
   6  10  -2   12.33   19.66   0
   7   9   3   94.64   20.46   0
   7  10   1  122.03   22.14   0
   7  11  -4   58.59   24.73   0
   7  11  -3   17.54   23.01   0
   8   9   4   38.49   28.11   0
   8  10   3   26.28   21.06   0
   8  11   0   13.37   22.75   0
   9   7   7   78.99   31.86   0
   9   9   5  141.75   34.77   0
   9  10   4   45.37   24.88   0
   9  11   2   14.43   24.68   0
  -2  -9 -10   30.85   24.35   0
  -2  -9  -9  145.58   23.54   0
  -2  -9  -8  138.71   23.41   0
  -2  -9  -7  615.65   25.05   0
  -2  -9  -6  116.36   29.10   0
  -2  -8 -11   84.62   25.47   0
  -2  -8 -10  112.28   24.71   0
  -2  -8  -6  473.59   23.98   0
  -2  -8  -5    5.29   19.58   0
  -2  -7 -12   33.27   33.02   0
  -2  -7 -11  489.43   26.46   0
  -2  -7  -5    4.53   21.82   0
  -2  -7  -4   35.53   27.27   0
  -2  -6 -12  399.91   31.31   0
  -2  -6 -11   16.99   20.28   0
  -2  -6  -4  696.49   25.37   0
  -2  -5 -11  703.62   26.99   0
  -2  -5  -4  106.57   25.76   0
  -2  -4 -10  537.10   26.68   0
  -2  -4  -5    5.08   19.56   0
  -2  -3  -8  191.38   25.50   0
  -2  -3  -7  687.63   30.40   0
  -1 -11  -6  -20.45   24.12   0
  -1 -11  -5   70.14   24.61   0
  -1 -10  -3  294.37   28.62   0
  -1  -9  -2 1065.46   28.38   0
  -1  -7  -1 1239.08   28.78   0
  -1  -3 -14   50.05   30.99   0
  -1  -3  -1 3655.04   52.05   0
  -1  -2 -13   90.35   29.60   0
   0 -12  -5   32.57   26.88   0
   0 -12  -4   21.22   26.25   0
   0 -11  -2   49.35   30.29   0
   0 -10  -1  189.47   22.02   0
   0  -9   0  333.21   21.71   0
   0  -1 -15   84.11   41.08   0
   1  -1   3 1635.89   78.71   0
   1   3 -12   55.66   33.52   0
   1   4  -9   61.93   21.75   0
   1   4  -4 2097.07   43.76   0
   2 -10   2   30.78   30.46   0
   2  -7   4  355.32   28.76   0
   2   2   3 1218.83   36.57   0
   2   3   2 3736.13   50.91   0
   2   4 -13  141.35   35.24   0
   3  -3   6 1006.85   44.19   0
   3   3   4  800.48   27.81   0
   3   4   3  498.83   23.89   0
   3   7  -7  180.22   21.73   0
   3   7  -6   92.29   19.72   0
   3   7  -5  239.75   20.43   0
   3   7  -4   10.87   18.98   0
   4  -8   5  -13.88   28.62   0
   4  -6   6  152.23   27.35   0
   4   6   2   17.50   25.10   0
   4   7   0  110.18   28.30   0
   4   8  -8   74.12   22.01   0
   4   8  -7  229.48   27.80   0
   4   8  -6   50.60   26.26   0
   4   8  -5    5.95   25.15   0
   4   8  -4  292.87   21.11   0
   4   8  -3  309.82   21.93   0
   5  -7   6   14.86   36.34   0
   5  -5   7  223.57   32.49   0
   5   5   5   48.11   18.45   0
   5   6   4    0.88   19.16   0
   5   9  -8   48.55   25.22   0
   5   9  -7    4.07   23.45   0
   5   9  -6  208.85   31.47   0
   5   9  -5    1.62   28.30   0
   5   9  -4   70.94   20.12   0
   5   9  -3    6.95   18.18   0
   6   5   6  904.12   30.70   0
   6   7   4  652.92   24.22   0
   6   9   0  511.36   27.72   0
   6  10  -7   26.70   24.35   0
   6  10  -6  114.34   24.24   0
   6  10  -5  101.20   22.80   0
   6  10  -4   24.56   21.52   0
   7   3   8   73.58   23.95   0
   7   5   7    3.42   20.23   0
   7   8   4  181.78   21.13   0
   7   9   2  100.82   27.12   0
   7  10   0   21.67   20.18   0
   8   6   7   11.90   23.12   0
   8   7   6   39.42   28.06   0
   8   8   5  101.57   22.71   0
   8  10   2  317.95   23.82   0
   8  11  -2    6.40   29.31   0
   8  11  -1   38.94   22.10   0
   9   5   8   33.84   25.50   0
   9   8   6  170.50   25.56   0
   9  10   3   21.05   23.96   0
   9  11   1   89.46   26.15   0
  10   7   7   52.43   33.35   0
  10   9   5   40.94   37.44   0
  -2 -10 -11   67.31   32.93   0
  -2 -10 -10   23.79   26.36   0
  -2 -10  -9   71.14   25.96   0
  -2 -10  -8  316.95   26.34   0
  -2 -10  -7  138.45   22.10   0
  -2 -10  -6  140.67   24.41   0
  -2  -9 -12   81.50   27.02   0
  -2  -9 -11  167.75   25.21   0
  -2  -9  -5  315.76   22.07   0
  -2  -8 -13   35.09   31.36   0
  -2  -8 -12  269.58   28.15   0
  -2  -8  -4  122.92   21.66   0
  -2  -7 -13   44.91   36.28   0
  -2  -6  -3  220.27   26.93   0
  -2  -5 -12   11.95   22.98   0
  -2  -4 -11   82.03   23.12   0
  -2  -4  -4  178.49   28.69   0
  -2  -3  -9  264.12   24.01   0
  -2  -3  -6  476.38   25.38   0
  -1 -12  -6   -3.76   24.85   0
  -1 -12  -5  108.47   30.39   0
  -1 -11  -4   30.54   23.28   0
  -1 -10  -2   43.54   28.83   0
  -1  -8  -1  289.23   23.04   0
  -1  -6   0 2216.41   35.26   0
  -1  -5   0  140.67   20.54   0
  -1  -1 -12   82.05   34.86   0
   0 -12  -3   38.93   27.33   0
   0 -11  -1  -11.43   32.18   0
   0 -10   0  118.62   30.09   0
   0  -8   1  345.64   22.03   0
   0  -6   2  645.49   26.12   0
   0  -5   2  360.60   23.84   0
   0  -4   2 1090.02   31.18   0
   1 -11   0  214.22   26.79   0
   1 -10   1  121.62   23.36   0
   1  -9   2  108.04   24.52   0
   1  -7   3  183.63   21.57   0
   1   3  -1  193.34   23.50   0
   1   4  -8 1129.21   35.39   0
   1   4  -7   38.02   25.57   0
   1   4  -5   13.56   24.35   0
   2  -9   3   27.98   22.81   0
   2  -4   5  286.48   31.88   0
   2  -3   5   79.94   27.27   0
   2   5 -10   15.33   26.37   0
   2   5  -2  550.85   23.73   0
   3  -9   4   22.16   34.15   0
   3  -7   5   32.62   23.33   0
   3  -4   6    5.51   29.87   0
   3  -2   6   80.98   30.25   0
   3   5   1  233.67   27.96   0
   3   6 -11   87.20   25.29   0
   3   6  -1   11.72   19.11   0
   4   7 -11  -11.91   28.72   0
   5   7   2  932.46   26.89   0
   5   8   0   15.58   18.79   0
   6  -3   8    5.79   40.80   0
   6   0   8  617.96   48.71   0
   6   6   5 1191.53   27.85   0
   6   8   2   46.10   19.03   0
   6   9  -1   41.46   24.68   0
   7   6   6   66.59   20.43   0
   7   7   5   85.41   22.14   0
   7  10  -2   41.19   18.75   0
   7  10  -1   12.90   20.23   0
   8   9   3  304.01   23.61   0
   8  10   1   27.41   23.10   0
   8  11  -3  126.60   26.64   0
   9   6   7   37.65   29.10   0
   9   8   5    1.26   28.06   0
   9   9   4   -4.55   25.41   0
   9  10   2  253.75   26.06   0
   9  11   0   13.62   22.63   0
  10   8   6   -0.99   25.50   0
  -2 -11  -9   30.29   25.77   0
  -2 -11  -8  169.34   26.04   0
  -2 -11  -7  230.96   24.85   0
  -2 -11  -6   27.38   24.49   0
  -2 -10  -5    4.42   20.28   0
  -2 -10  -4  242.27   30.59   0
  -2  -9  -4  117.55   22.08   0
  -2  -8  -3    3.91   20.72   0
  -2  -7  -3  767.93   25.60   0
  -2  -6 -13   17.60   25.05   0
  -2  -5 -13  120.81   33.06   0
  -2  -5  -3 1787.16   32.90   0
  -2  -4 -12  225.54   32.22   0
  -2  -3 -10   53.57   21.55   0
  -2  -3  -5 3033.15   44.68   0
  -1 -12  -4    9.78   21.98   0
  -1 -11  -3   43.35   20.22   0
  -1  -9  -1  226.01   21.46   0
  -1  -8   0  288.74   27.69   0
  -1  -7   0   18.49   21.01   0
  -1  -4   0 2203.35   38.42   0
   0 -12  -2  -10.66   26.06   0
   0  -9   1  256.43   22.64   0
   0  -7   2  205.83   20.49   0
   0  -3   2  189.76   24.19   0
   0   2  -4 5234.57   78.32   0
   1 -11   1   65.16   30.50   0
   1 -10   2   33.74   27.55   0
   1  -8   3  352.64   24.10   0
   1   4  -6  259.38   20.84   0
   2  -8   4   23.23   21.83   0
   2  -5   5  110.24   22.89   0
   2   4   0 1344.24   31.40   0
   2   5  -9  258.11   31.86   0
   2   5  -3 1605.41   31.89   0
   3  -8   5  114.10   31.28   0
   3  -5   6  580.55   36.89   0
   3   1   5  206.61   22.82   0
   3   5 -13    2.70   31.72   0
   3   6 -10   18.90   25.54   0
   3   6  -2  468.18   23.04   0
   4  -7   6   21.16   29.04   0
   4   3   5   41.91   19.29   0
   4   4   4 1047.26   28.52   0
   4   5   3   -1.41   19.34   0
   4   6   1  616.36   29.96   0
   4   7 -10   70.98   33.14   0
   4   7  -1  180.66   21.66   0
   5   1   7  346.89   35.63   0
   5   3   6   14.60   25.33   0
   5   6   3 1230.98   27.77   0
   5   8 -10    3.83   25.06   0
   5   8  -1  597.06   23.12   0
   6   7   3  276.33   22.23   0
   6   8   1  841.16   28.74   0
   6   9  -8  109.06   29.70   0
   6   9  -2  165.55   20.41   0
   7   2   8  331.04   28.06   0
   7   4   7  113.05   20.68   0
   7   8   3   47.59   19.98   0
   7   9   1  171.40   20.78   0
   7  10  -6   65.57   25.00   0
   7  10  -5  105.88   25.09   0
   7  10  -4   47.66   23.01   0
   7  10  -3  273.87   24.63   0
   8   3   8    7.47   26.34   0
   8   5   7   60.86   22.21   0
   8   6   6   94.78   28.21   0
   8   7   5  211.45   28.71   0
   8   8   4  125.05   22.99   0
   8   9   2   61.44   25.45   0
   8  10  -1   39.33   29.74   0
   8  10   0  223.00   23.69   0
   9   4   8   43.57   26.67   0
   9   7   6   28.99   25.78   0
   9   9   3  143.49   30.21   0
   9  10   1   -0.62   20.96   0
  10   6   7   23.51   27.12   0
  10   8   5   38.62   30.78   0
  10   9   4  -21.39   24.64   0
  -3  -9  -9   93.16   26.59   0
  -3  -9  -8    7.49   25.34   0
  -3  -8  -9   22.75   29.12   0
  -3  -8  -8  629.15   30.39   0
  -3  -8  -7  204.80   25.34   0
  -3  -7  -9  546.08   29.67   0
  -3  -7  -8  267.01   28.00   0
  -2 -12  -7   77.35   26.11   0
  -2 -12  -6   14.46   24.43   0
  -2 -11  -5  248.92   23.78   0
  -2 -11  -4   24.54   27.87   0
  -2 -10  -3  140.83   22.25   0
  -2  -9  -3  774.59   24.91   0
  -2  -8  -2  659.73   25.18   0
  -2  -7  -2    4.88   19.57   0
  -2  -6 -14   37.67   25.41   0
  -2  -6  -2 5044.07   47.19   0
  -2  -4  -3  179.92   21.21   0
  -2  -3 -11  413.62   34.97   0
  -2  -3  -4   20.08   25.50   0
  -1 -12  -3   83.06   26.07   0
  -1 -11  -2   30.30   20.54   0
  -1 -10  -1  174.21   21.37   0
  -1  -9   0  234.95   21.19   0
  -1  -3 -15   95.12   33.51   0
  -1  -2  -1   24.33   21.97   0
   0 -12  -1   27.32   27.28   0
   0 -11   0  182.94   25.30   0
   0 -10   1  262.94   23.69   0
   0  -8   2   62.51   19.64   0
   0  -1   1 5294.46  109.35   0
   0   2  -9   23.00   27.11   0
   1  -9   3   57.38   26.93   0
   1  -6   4   20.84   21.43   0
   1  -5   4 1132.43   30.59   0
   1  -4   4  413.17   26.00   0
   1   3 -11   88.30   27.50   0
   1   3  -2    0.58   25.80   0
   2 -10   3   -2.54   24.37   0
   2  -9   4   80.19   34.52   0
   2  -6   5  633.11   28.77   0
   2  -2   5 2355.32   71.03   0
   2   4 -12  118.59   32.12   0
   2   5  -8  332.84   28.57   0
   2   5  -5  256.06   25.78   0
   2   5  -4 1396.43   31.55   0
   3  -6   6   58.40   27.10   0
   3   4   2  479.13   23.40   0
   3   6  -9  253.20   27.54   0
   3   6  -3 1500.10   29.65   0
   4  -4   7  236.00   36.05   0
   4  -3   7  204.89   36.09   0
   4   1   6  664.02   36.37   0
   4   7  -9   22.09   28.91   0
   4   7  -3  140.63   28.50   0
   4   7  -2  519.02   23.57   0
   5  -6   7   -3.29   29.20   0
   5   4   5 1587.95   32.10   0
   5   5   4 2002.98   33.43   0
   5   7   1   62.59   20.33   0
   5   8  -9  171.19   26.68   0
   5   8  -8  -22.53   28.39   0
   5   8  -3  507.28   21.89   0
   5   8  -2  266.04   20.73   0
   6  -1   8    0.44   30.94   0
   6   4   6   84.45   20.85   0
   6   5   5   65.03   25.35   0
   6   6   4    8.05   19.86   0
   6   8   0  100.89   28.06   0
   6   9  -7  118.74   24.05   0
   6   9  -6   14.71   23.16   0
   6   9  -5   24.11   21.10   0
   6   9  -4  274.12   22.64   0
   6   9  -3    3.89   19.18   0
   7   5   6   29.84   20.59   0
   7   6   5  265.33   21.73   0
   7   7   4   80.52   19.17   0
   7   8   2  117.03   20.18   0
   7   9  -1  114.44   26.45   0
   7   9   0  236.17   22.18   0
   8   8   3   25.58   25.25   0
   8   9   1  325.50   30.54   0
   8  10  -3   49.30   32.10   0
   8  10  -2   76.46   23.38   0
   9   3   8    4.75   31.00   0
   9   5   7   95.17   30.92   0
   9   8   4  125.21   23.95   0
   9  10   0  205.06   25.34   0
  10   7   6   -1.36   26.11   0
  10   9   3   12.21   31.74   0
  -3 -11  -9   67.79   34.84   0
  -3 -11  -8   59.17   30.23   0
  -3 -10 -11   25.30   34.05   0
  -3 -10 -10   78.51   23.30   0
  -3 -10  -9   95.07   23.16   0
  -3 -10  -8  333.54   25.17   0
  -3 -10  -7   34.83   22.18   0
  -3 -10  -6  129.28   32.48   0
  -3  -9 -11   88.27   25.13   0
  -3  -9 -10   55.88   23.30   0
  -3  -9  -7  595.67   24.11   0
  -3  -9  -6   -4.81   20.82   0
  -3  -8 -11  -11.69   22.95   0
  -3  -8 -10  170.65   23.66   0
  -3  -8  -6  766.26   25.65   0
  -3  -8  -5   77.45   27.65   0
  -3  -7 -11  510.72   34.94   0
  -3  -7 -10    4.95   22.25   0
  -3  -7  -7  951.20   25.07   0
  -3  -7  -6  252.70   23.07   0
  -3  -6 -10  608.70   29.01   0
  -3  -6  -9   -8.00   19.29   0
  -3  -6  -8  607.10   22.81   0
  -3  -6  -7  647.96   23.54   0
  -2 -12  -5   55.94   24.35   0
  -2 -12  -4  174.38   29.54   0
  -2 -11  -3  314.24   24.69   0
  -2 -10  -2  317.42   28.74   0
  -2  -9  -2   96.34   20.57   0
  -2  -7  -1 2015.28   37.08   0
  -2  -5 -14  -17.69   30.46   0
  -2  -5  -2  171.78   20.84   0
  -2  -4 -13   29.61   26.45   0
  -2  -2  -8 1538.88   44.27   0
  -2  -2  -7  132.89   26.13   0
  -1 -12  -2   28.77   24.57   0
  -1 -11  -1   67.80   23.88   0
  -1 -10   0  112.05   20.77   0
  -1  -8   1   26.76   20.33   0
  -1  -7   1 1071.79   27.20   0
  -1  -6   1   87.83   22.40   0
  -1  -5   1  282.18   21.61   0
  -1  -3   0   64.49   22.31   0
  -1  -2 -14   93.40   34.75   0
  -1  -1  -2  281.17   35.26   0
   0 -12   0   11.19   25.43   0
   0 -11   1   16.74   28.43   0
   0  -9   2  324.97   24.24   0
   0  -6   3  387.97   29.56   0
   0   2  -5   96.56   26.19   0
   1 -11   2   33.76   26.00   0
   1  -7   4  647.71   27.15   0
   1  -3   4 2756.61   52.20   0
   1   2   0  217.84   24.66   0
   2  -7   5   24.37   21.34   0
   2   3 -14   51.19   36.85   0
   2   3   1 7203.50   66.56   0
   2   4  -1 1051.59   28.32   0
   2   5  -7  340.98   24.26   0
   2   5  -6  161.52   20.46   0
   3  -9   5   78.36   35.55   0
   3   2   4 2165.58   45.35   0
   3   3   3 4186.24   50.25   0
   3   5 -12  174.03   30.89   0
   3   5   0  184.59   20.15   0
   3   6  -8   34.86   19.24   0
   3   6  -7  835.74   32.70   0
   3   6  -6  129.53   25.30   0
   3   6  -5   91.86   23.40   0
   3   6  -4  112.92   18.80   0
   4  -8   6   77.97   32.68   0
   4  -5   7  322.91   32.10   0
   4   5   2 1427.48   29.64   0
   4   6 -12   25.94   25.28   0
   4   6   0  498.31   23.02   0
   4   7  -8  359.78   24.55   0
   4   7  -7   -2.27   21.25   0
   4   7  -6  411.84   28.74   0
   4   7  -5  455.31   26.15   0
   4   7  -4  145.45   20.11   0
   5   6   2  478.54   27.74   0
   5   7   0 1002.53   26.36   0
   5   8  -7  193.88   23.35   0
   5   8  -6   25.41   21.62   0
   5   8  -5  211.60   22.46   0
   5   8  -4   -1.58   18.60   0
   6  -4   8   23.08   36.94   0
   6   2   7   78.54   31.09   0
   6   7   2  608.59   23.74   0
   6   8  -1  513.17   28.66   0
   7   1   8    5.77   20.94   0
   7   7   3    8.55   23.19   0
   7   8   1  412.61   27.41   0
   7   9  -2   90.79   22.30   0
   8   2   8   49.13   22.33   0
   8   4   7   -2.04   22.25   0
   8   7   4   11.81   28.35   0
   8   9   0   29.86   25.64   0
   8  10  -5   21.49   25.51   0
   8  10  -4  145.40   25.82   0
   9   6   6   59.79   24.78   0
   9   7   5  173.90   24.64   0
   9   9   2  -13.48   23.09   0
   9  10  -2  126.24   24.82   0
   9  10  -1   13.66   22.91   0
  10   5   7  -14.40   26.16   0
  10   6   6   28.07   31.80   0
  10   7   5   62.49   32.01   0
  10   8   4   41.90   25.12   0
  10   9   2   29.47   31.22   0
  -3 -12  -8   67.65   27.79   0
  -3 -12  -7   46.42   36.18   0
  -3 -11 -10    3.36   25.28   0
  -3 -11  -7  255.40   24.98   0
  -3 -11  -6   80.41   20.42   0
  -3 -11  -5   58.50   27.83   0
  -3 -10  -5   15.69   21.53   0
  -3  -9 -12  -13.69   25.37   0
  -3  -9  -5  257.28   22.66   0
  -3  -9  -4  227.65   27.26   0
  -3  -8 -13   -4.52   30.66   0
  -3  -8 -12  109.40   26.46   0
  -3  -8  -4  446.06   23.47   0
  -3  -7 -12   22.24   24.11   0
  -3  -7  -5  698.46   25.58   0
  -3  -7  -4   15.53   28.00   0
  -3  -6 -11  167.03   23.47   0
  -3  -6  -6  583.84   22.55   0
  -3  -6  -5    3.98   19.38   0
  -3  -5  -9  364.40   30.60   0
  -3  -5  -8   56.55   20.51   0
  -3  -5  -7  221.53   27.43   0
  -2 -12  -3   43.74   24.76   0
  -2 -11  -2   31.54   22.49   0
  -2  -9  -1   89.76   21.28   0
  -2  -8  -1    2.67   20.28   0
  -2  -6  -1   19.17   18.77   0
  -2  -4  -2 2031.49   35.76   0
  -2  -3 -12    1.56   27.49   0
  -2  -3  -3 2579.00   46.59   0
  -2  -2  -9   -3.23   19.82   0
  -2  -2  -6 2429.41   46.18   0
  -1 -12  -1   27.43   24.58   0
  -1 -11   0    3.54   22.11   0
  -1  -9   1  160.78   19.40   0
  -1  -4   1    0.58   25.11   0
   0 -10   2   12.26   24.34   0
   0  -8   3  619.05   30.03   0
   0  -7   3  209.13   21.23   0
   0  -5   3  750.45   27.40   0
   0   1 -12    3.04   34.21   0
   0   2  -8 1032.68   44.37   0
   0   2  -7  476.76   32.91   0
   0   2  -6  897.79   40.45   0
   1 -10   3   39.39   25.22   0
   1  -8   4    0.76   21.47   0
   2 -10   4   42.36   25.03   0
   2  -8   5  509.95   29.02   0
   2   4 -11   46.71   25.46   0
   3  -7   6  291.59   24.46   0
   3   5  -1  504.40   28.55   0
   4   4   3 1299.72   33.37   0
   4   6 -11  137.10   30.81   0
   4   6  -1  491.27   27.76   0
   5   7  -1  110.70   19.89   0
   6   6   3  660.40   25.10   0
   6   7   1  102.82   27.67   0
   6   8  -9   66.87   29.89   0
   6   8  -2  524.32   23.60   0
   7   6   4   64.09   27.75   0
   7   9  -7   36.50   25.12   0
   7   9  -6    0.07   24.13   0
   7   9  -5  104.12   24.27   0
   7   9  -4  377.57   25.28   0
   7   9  -3  112.52   20.06   0
   8   5   6   -6.03   21.63   0
   8   6   5   47.69   23.26   0
   8   8   2  160.41   20.34   0
   8   9  -1   75.50   20.93   0
   9   2   8   -5.15   32.84   0
   9   4   7    9.00   29.85   0
   9   8   3   -7.62   21.79   0
   9   9   0   29.19   26.96   0
   9   9   1  307.47   24.01   0
   9  10  -3   28.18   23.95   0
  10   8   3  -11.38   31.03   0
  10   9   1  -11.40   31.65   0
  -3 -12  -6   71.44   23.07   0
  -3 -12  -5   45.05   24.06   0
  -3 -11  -4    3.65   23.15   0
  -3 -10  -4  232.04   22.81   0
  -3  -9  -3  867.91   26.18   0
  -3  -8  -3  757.19   25.27   0
  -3  -7 -13  104.02   26.20   0
  -3  -6 -12  416.52   26.59   0
  -3  -6  -4 1043.55   26.90   0
  -3  -5 -10   31.66   23.10   0
  -3  -5  -6  597.93   24.37   0
  -3  -5  -5   85.81   27.07   0
  -2 -13  -3   18.15   25.49   0
  -2 -12  -2  144.62   24.95   0
  -2 -11  -1   89.83   26.91   0
  -2 -10  -1   91.41   20.92   0
  -2  -8   0   29.12   26.64   0
  -2  -7   0    5.77   28.14   0
  -2  -5  -1 2681.01   37.82   0
  -2  -4 -14   38.64   28.97   0
  -2  -2 -10  775.09   40.87   0
  -2  -2  -5 4561.25   64.88   0
  -1 -12   0   39.66   26.60   0
  -1 -10   1  384.80   24.40   0
  -1  -8   2  493.55   27.33   0
  -1  -7   2   11.34   25.88   0
   0 -12   1   55.60   26.71   0
   0 -11   2  187.78   25.40   0
   0  -9   3   -1.92   22.66   0
   0  -4   3 1912.55   38.34   0
   0  -2   2  107.97   25.28   0
   1 -11   3   10.72   26.43   0
   1  -9   4  119.27   25.75   0
   1   2 -13   70.79   30.71   0
   1   3 -10  144.94   28.41   0
   1   3  -3  838.76   30.37   0
   2  -9   5   29.65   34.18   0
   2   0   4  519.39   44.27   0
   2   2   2 2357.07   47.66   0
   2   4  -2  927.43   27.92   0
   3  -8   6   35.44   32.48   0
   3   4   1 5920.47   53.07   0
   3   5 -11   12.20   22.40   0
   4  -6   7   54.97   24.63   0
   4   3   4 1245.09   35.56   0
   4   5   1   -9.13   26.11   0
   5   0   7  680.64   42.04   0
   5   5   3   50.86   19.98   0
   5   6   1 1532.49   29.54   0
   5   7 -10  126.64   26.74   0
   5   7  -9    2.58   28.67   0
   5   7  -2  704.41   24.86   0
   6  -2   8  105.70   48.17   0
   6   3   6   49.91   20.92   0
   6   5   4 2489.64   35.41   0
   6   8  -8   13.75   22.92   0
   6   8  -7    5.61   22.80   0
   6   8  -6  104.64   29.50   0
   6   8  -5  260.41   27.14   0
   6   8  -4  133.30   18.98   0
   6   8  -3  379.48   21.82   0
   7   0   8  152.74   35.98   0
   7   4   6  123.31   23.16   0
   7   5   5  447.66   23.28   0
   7   7   2  175.48   20.26   0
   7   8  -1  128.12   24.33   0
   7   8   0  182.18   20.46   0
   8   1   8   10.69   28.73   0
   8   3   7   70.54   31.74   0
   8   7   3   18.89   20.08   0
   8   8   1   33.72   20.63   0
   8   9  -4   62.12   28.19   0
   8   9  -3   55.41   21.98   0
   8   9  -2   49.81   22.34   0
   9   5   6   29.00   23.89   0
   9   6   5   48.02   23.52   0
   9   7   4    5.96   22.94   0
   9   8   2  136.24   23.66   0
   9   9  -1   19.27   23.60   0
  10   4   7   -8.70   27.49   0
  10   5   6   14.04   32.36   0
  10   7   4   25.31   30.33   0
  10   9   0   25.44   29.35   0
  -4 -10 -10   25.22   28.29   0
  -4 -10  -9   28.26   31.38   0
  -4 -10  -8   57.57   30.23   0
  -4  -9  -9   62.55   27.75   0
  -4  -9  -8   82.62   26.70   0
  -3 -13  -5   18.43   24.08   0
  -3 -12  -4  315.74   26.62   0
  -3 -11  -3  468.52   26.53   0
  -3 -10  -3   18.03   20.00   0
  -3  -9  -2  174.96   29.82   0
  -3  -8  -2  785.28   30.80   0
  -3  -7  -3 1041.08   27.38   0
  -3  -6 -13   19.09   31.68   0
  -3  -6  -3   31.22   27.28   0
  -3  -5 -11  228.26   24.22   0
  -3  -4  -8  188.77   29.91   0
  -2 -13  -2   18.02   27.43   0
  -2 -12  -1  -29.83   23.55   0
  -2 -10   0  144.09   21.48   0
  -2  -9   0   10.85   20.10   0
  -2  -6   0 1766.47   31.93   0
  -1 -11   1   97.30   22.52   0
  -1  -9   2  648.08   25.61   0
  -1  -6   2 1874.39   34.39   0
  -1  -5   2   49.89   27.07   0
   0 -10   3  227.02   23.52   0
   1 -10   4   -4.01   24.26   0
   1  -7   5    6.06   26.80   0
   1  -6   5  538.30   34.18   0
   1   3  -9 1325.09   41.54   0
   1   3  -4   46.35   25.68   0
   2   3 -13    4.14   29.00   0
   2   4 -10  140.52   27.95   0
   3   4 -13   54.38   34.21   0
   3   5 -10   13.25   27.26   0
   3   5  -2 2430.82   35.46   0
   4  -7   7   34.53   35.77   0
   4   6 -10   18.87   24.55   0
   4   6  -9  246.81   31.10   0
   4   6  -3  993.48   30.73   0
   4   6  -2    3.54   18.59   0
   5   3   5  244.82   20.34   0
   5   4   4    3.81   19.54   0
   5   7  -8  225.28   22.75   0
   5   7  -7   43.72   30.49   0
   5   7  -6  448.10   27.89   0
   5   7  -5   20.38   25.33   0
   5   7  -4 1012.61   26.37   0
   5   7  -3  112.35   21.03   0
   6   1   7  330.84   31.51   0
   6   4   5  646.68   26.62   0
   6   6   2  240.43   21.71   0
   6   7   0 1256.33   27.90   0
   7   2   7  116.46   30.95   0
   7   6   3  182.03   28.73   0
   7   7   1  162.34   26.32   0
   7   8  -2  107.25   19.78   0
   8   4   6  133.81   28.78   0
   8   5   5  133.14   29.73   0
   8   6   4  110.91   22.50   0
   8   8   0   45.46   21.00   0
   8   9  -6  -17.75   25.12   0
   8   9  -5   99.55   23.42   0
   9   1   8    4.98   26.64   0
   9   3   7   22.68   33.67   0
   9   7   3  142.42   22.38   0
   9   8   1   93.88   20.62   0
   9   9  -4    6.83   29.50   0
   9   9  -3   52.92   22.87   0
   9   9  -2   -2.62   21.79   0
  10   6   5   33.34   24.88   0
  10   8   2   98.21   24.59   0
  10   9  -1   58.45   24.27   0
  -4 -12  -8   59.89   28.56   0
  -4 -12  -7   -6.62   26.08   0
  -4 -12  -6   51.38   30.54   0
  -4 -11 -10   15.37   25.71   0
  -4 -11  -9   61.30   27.72   0
  -4 -11  -8   30.36   24.85   0
  -4 -11  -7  169.68   25.26   0
  -4 -11  -6   32.74   20.38   0
  -4 -10 -11   30.97   25.44   0
  -4 -10  -7   15.23   22.32   0
  -4 -10  -6   53.86   20.21   0
  -4 -10  -5   -6.44   25.92   0
  -4  -9 -11   37.58   25.16   0
  -4  -9 -10   28.04   22.59   0
  -4  -9  -7  295.38   22.82   0
  -4  -9  -6   78.15   21.15   0
  -4  -8 -10  262.79   23.68   0
  -4  -8  -9   17.07   22.45   0
  -4  -8  -8  367.83   23.38   0
  -4  -8  -7  487.16   24.38   0
  -4  -8  -6  982.63   33.12   0
  -3 -13  -4   -2.14   25.25   0
  -3 -13  -3   58.69   31.84   0
  -3 -12  -3   19.13   24.46   0
  -3 -11  -2   -9.18   21.66   0
  -3 -10  -2  389.46   24.59   0
  -3  -7  -2  528.32   24.09   0
  -3  -5 -12   95.32   21.19   0
  -3  -5  -4   61.48   20.45   0
  -3  -4 -10   59.14   30.38   0
  -3  -4  -9   33.05   21.59   0
  -3  -4  -7  619.77   24.78   0
  -3  -4  -6  139.55   20.06   0
  -2 -13  -1   40.61   26.92   0
  -2 -12   0  156.82   31.21   0
  -2 -11   0   -3.97   22.71   0
  -2  -9   1  280.43   29.28   0
  -2  -8   1    6.95   26.85   0
  -2  -5   0  173.38   20.43   0
  -2  -4  -1 4445.10   49.09   0
  -2  -3 -13   80.64   25.29   0
  -2  -3  -2 3730.49   51.47   0
  -2  -2 -11   33.45   26.47   0
  -2  -2  -4 4403.82   64.18   0
  -1 -12   1   -0.31   25.64   0
  -1 -11   2  234.59   33.76   0
  -1 -10   2   99.66   23.77   0
  -1  -3   1  202.94   24.10   0
  -1  -2   0  248.49   25.61   0
   0 -11   3    5.37   24.11   0
   0  -8   4    7.94   21.34   0
   0  -7   4  114.75   19.23   0
   0  -6   4  301.48   22.61   0
   0  -3   3 2081.34   48.27   0
   0   1  -2  534.78   39.98   0
   1  -8   5  294.68   26.26   0
   1  -5   5  421.46   26.96   0
   1   1   1 5571.11   92.56   0
   1   3  -8  283.95   29.60   0
   1   3  -5  317.88   26.65   0
   2  -7   6  410.77   32.69   0
   2  -6   6    5.11   22.75   0
   2  -5   6  451.64   28.69   0
   2   3   0 4121.27   52.26   0
   2   4  -9  292.63   31.36   0
   2   4  -3 1783.78   34.12   0
   3   3   2 5092.85   53.81   0
   3   4   0  760.24   31.76   0
   3   5  -9   52.26   19.29   0
   3   5  -3   91.19   20.82   0
   4   4   2    1.35   26.34   0
   4   5 -12   96.91   29.56   0
   4   5   0 1040.26   27.17   0
   4   6  -8   16.89   20.14   0
   4   6  -7 1031.50   33.17   0
   4   6  -5  686.60   30.92   0
   4   6  -4   70.98   19.72   0
   5   5   2  698.89   24.68   0
   5   6   0   -1.00   21.13   0
   6   7 -10   21.25   26.15   0
   6   7  -1  229.57   20.51   0
   7  -1   8   18.38   29.58   0
   7   5   4  233.99   27.82   0
   7   8  -8   24.25   23.99   0
   7   8  -7  -26.14   22.95   0
   7   8  -6   23.78   22.80   0
   7   8  -5  115.34   23.40   0
   7   8  -4  168.04   21.15   0
   7   8  -3  164.31   22.48   0
   8   0   8   54.26   31.31   0
   8   7   2   -4.02   18.70   0
   8   8  -1    6.13   21.24   0
   9   4   6   44.59   31.47   0
   9   5   5   66.20   30.45   0
   9   6   4  134.71   25.22   0
   9   8   0   46.78   21.82   0
  10   4   6    5.93   30.91   0
  10   6   4   15.85   31.42   0
  10   7   3  149.51   27.31   0
  10   8   1   59.35   26.20   0
  -4 -12  -5   30.57   22.78   0
  -4 -11  -5  135.64   22.23   0
  -4 -11  -4   41.17   27.01   0
  -4 -10  -4  212.91   21.73   0
  -4  -9 -12   57.15   26.36   0
  -4  -9  -5  367.85   23.32   0
  -4  -9  -4  407.13   29.77   0
  -4  -8 -12   -1.65   30.19   0
  -4  -8 -11   41.36   23.78   0
  -4  -8  -5  137.22   21.26   0
  -4  -7 -10   22.99   20.54   0
  -4  -7  -9  703.31   26.55   0
  -4  -7  -8  286.16   22.11   0
  -4  -7  -7  443.55   22.36   0
  -4  -7  -6  575.97   24.31   0
  -3 -13  -2   31.78   36.40   0
  -3 -12  -2  209.52   24.34   0
  -3 -11  -1   67.76   23.14   0
  -3 -10  -1   69.13   20.23   0
  -3  -9  -1  155.00   20.84   0
  -3  -8  -1   34.36   20.65   0
  -3  -6 -14  111.82   29.01   0
  -3  -6  -2 1125.94   27.67   0
  -3  -5 -13  181.01   28.45   0
  -3  -5  -3  340.60   21.98   0
  -3  -4 -11  444.90   32.10   0
  -3  -4  -5  214.31   21.65   0
  -2 -13   0   -8.83   30.70   0
  -2 -11   1  191.78   29.22   0
  -2 -10   1  215.15   22.35   0
  -2  -7   1 1178.86   28.43   0
  -2  -6   1   28.04   26.96   0
  -2  -4 -15    8.56   28.31   0
  -1 -12   2    1.14   34.93   0
  -1  -9   3  142.74   28.48   0
  -1  -8   3  232.97   21.44   0
  -1  -7   3 1419.39   30.64   0
  -1  -4   2  246.02   27.04   0
   0 -10   4  124.62   29.63   0
   0  -9   4  113.54   23.67   0
   0  -5   4 2248.67   39.14   0
   1  -9   5   46.41   26.40   0
   1  -4   5  829.80   36.09   0
   1  -2   4  790.06   43.16   0
   1   2  -1  604.07   31.66   0
   1   3  -7  551.60   25.75   0
   1   3  -6   17.65   19.36   0
   2  -8   6   12.49   24.52   0
   2  -4   6  914.36   41.10   0
   2   4  -8  722.50   32.90   0
   2   4  -5  407.57   29.39   0
   2   4  -4 1314.31   31.04   0
   3  -6   7  203.42   30.00   0
   3   4 -12   -6.98   29.27   0
   3   5  -8 1042.49   30.17   0
   3   5  -7   99.41   25.09   0
   3   5  -6  695.94   30.47   0
   3   5  -5   28.42   18.51   0
   3   5  -4 3001.62   39.53   0
   4   0   6   13.40   30.00   0
   4   6  -6   67.26   18.56   0
   5   6 -11   32.16   25.49   0
   5   6  -1 1010.26   28.07   0
   6   5   3   65.99   20.70   0
   6   6   1 1462.81   29.36   0
   6   7  -9    1.48   23.54   0
   6   7  -8   60.12   27.65   0
   6   7  -3  334.54   23.79   0
   6   7  -2  271.27   21.43   0
   7   3   6  105.18   22.01   0
   7   4   5   74.91   20.41   0
   7   6   2  136.68   20.43   0
   7   7   0  607.18   25.12   0
   8   6   3  -14.03   20.16   0
   8   7   1  162.94   21.00   0
   8   8  -7   18.39   29.38   0
   8   8  -6   58.76   28.19   0
   8   8  -5   29.98   28.48   0
   8   8  -4  200.06   26.47   0
   8   8  -3    4.29   21.37   0
   8   8  -2  -17.57   20.55   0
   9   2   7    2.90   33.19   0
   9   7   2  109.46   24.06   0
   9   8  -2   44.67   27.76   0
   9   8  -1  -14.84   22.67   0
  10   5   5   -9.75   24.45   0
  10   7   2  188.57   26.92   0
  10   8  -1   94.67   31.89   0
  10   8   0  126.06   26.03   0
  -4 -13  -5   43.50   25.39   0
  -4 -13  -4   -7.58   23.51   0
  -4 -12  -4  256.50   26.26   0
  -4 -12  -3  -14.10   29.60   0
  -4 -11  -3  197.61   23.92   0
  -4 -10  -3  337.29   22.33   0
  -4  -9  -3  529.51   23.13   0
  -4  -8 -13   27.90   30.76   0
  -4  -8  -4  528.23   24.28   0
  -4  -7 -12   66.70   29.96   0
  -4  -7 -11  202.29   24.98   0
  -4  -7  -5 1111.94   28.09   0
  -4  -6  -9  116.89   26.39   0
  -4  -6  -8  321.25   22.31   0
  -4  -6  -7  557.49   28.42   0
  -3 -13  -1   87.65   32.02   0
  -3 -12  -1    4.21   23.85   0
  -3 -10   0  212.81   27.58   0
  -3  -9   0   38.64   25.78   0
  -3  -7  -1 1272.93   28.15   0
  -3  -4  -4  918.17   27.93   0
  -2 -12   1   34.56   26.20   0
  -2  -9   2   91.58   27.92   0
  -2  -8   2 1235.91   33.45   0
  -2  -4   0 1425.99   35.91   0
  -1 -11   3  125.96   30.68   0
  -1 -10   3  221.05   25.26   0
  -1  -6   3  274.72   22.16   0
   0 -11   4  125.62   36.51   0
   1 -10   5   96.74   27.95   0
   1   2 -12   48.52   21.93   0
   2  -9   6   98.99   27.15   0
   2   3 -12  164.91   28.34   0
   2   4  -7  287.06   23.88   0
   2   4  -6  246.78   20.68   0
   3  -7   7   12.16   28.66   0
   3  -5   7   28.45   28.39   0
   3   0   5 1065.91   47.22   0
   3   2   3 1127.73   32.30   0
   4   3   3 1128.37   29.70   0
   4   5 -11  -14.07   23.30   0
   4   5  -1  691.52   24.51   0
   5   1   6  147.54   28.60   0
   5   4   3  520.02   25.43   0
   5   5   1    2.47   19.44   0
   5   6 -10    2.03   24.02   0
   5   6  -9  249.02   30.98   0
   5   6  -2  113.20   21.52   0
   6   3   5  459.88   23.58   0
   6   4   4  639.10   24.65   0
   6   6   0  134.09   20.43   0
   6   7  -7  101.85   23.20   0
   6   7  -6   74.67   20.44   0
   6   7  -5  171.09   20.77   0
   6   7  -4  414.40   23.22   0
   7   1   7  168.59   29.40   0
   7   5   3  491.12   26.92   0
   7   7  -9   86.85   34.98   0
   7   7  -2   46.73   25.55   0
   7   7  -1  190.27   22.28   0
   8  -1   8   18.33   31.65   0
   8   3   6   15.23   21.26   0
   8   4   5   -7.20   20.99   0
   8   5   4   46.79   21.81   0
   8   6   2   74.10   26.98   0
   8   7   0    3.57   20.27   0
   9   3   6  -12.25   29.38   0
   9   5   4   13.35   33.29   0
   9   6   3    9.03   22.03   0
   9   7   1  124.36   22.75   0
   9   8  -5   38.66   30.19   0
   9   8  -4  114.11   23.76   0
   9   8  -3   44.05   21.91   0
  10   3   6   54.00   32.49   0
  10   6   3  100.32   24.05   0
  10   7   1   60.83   24.50   0
  10   8  -3  147.62   30.44   0
  10   8  -2   65.62   23.63   0
  -5 -12  -8   77.13   26.59   0
  -5 -12  -7    6.72   23.88   0
  -5 -11 -10    7.65   26.09   0
  -5 -11  -9   70.80   24.40   0
  -5 -11  -8  146.72   28.20   0
  -5 -11  -7   30.59   24.89   0
  -5 -11  -6   -2.22   27.31   0
  -5 -10 -10   61.34   30.52   0
  -5 -10  -9  117.51   23.37   0
  -5 -10  -8   -4.59   22.66   0
  -5 -10  -7  174.35   31.28   0
  -4 -13  -3  132.07   25.47   0
  -4 -12  -2  124.26   30.48   0
  -4 -11  -2   -2.57   22.30   0
  -4 -10  -2  273.92   22.10   0
  -4  -9  -2  643.17   30.81   0
  -4  -8  -3 1026.94   27.41   0
  -4  -7 -13   56.70   30.45   0
  -4  -7  -4  460.19   23.92   0
  -4  -6 -11  134.74   30.10   0
  -4  -6 -10  524.27   25.31   0
  -4  -6  -6   39.10   19.01   0
  -4  -6  -5  411.89   26.48   0
  -3 -12   0  106.04   25.45   0
  -3 -11   0    3.22   21.99   0
  -3  -8   0  226.01   22.21   0
  -3  -7   0   86.49   28.41   0
  -3  -6  -1   35.11   19.31   0
  -3  -5 -14   -7.09   30.10   0
  -3  -5  -2  914.11   27.08   0
  -3  -4 -12   91.67   29.48   0
  -2 -11   2   86.08   24.84   0
  -2 -10   2  388.56   25.45   0
  -2  -7   2   17.75   19.37   0
  -2  -5   1  143.61   20.66   0
  -2  -3 -14   -5.01   35.59   0
  -2  -3  -1 7238.05   67.15   0
  -2  -2  -3 1241.97   37.02   0
  -1 -12   3    2.38   30.40   0
  -1  -5   3 2561.16   42.57   0
   0  -8   5   50.20   26.88   0
   0  -4   4 2707.25   48.68   0
   0   1 -11   93.86   31.96   0
   1   1 -14  124.48   35.49   0
   2   2 -14    5.54   34.19   0
   2   3  -1 1417.48   35.90   0
   3  -8   7   13.47   32.42   0
   3  -4   7  496.87   43.02   0
   3   4 -11   16.66   21.45   0
   3   4  -1 1838.24   33.14   0
   4   1   5    3.06   24.81   0
   4   2   4  444.38   32.73   0
   4   4 -13   87.01   35.25   0
   4   4   1 1004.12   27.76   0
   4   5 -10   77.59   22.41   0
   4   5  -2 1988.55   32.59   0
   5  -5   8    1.85   38.76   0
   5   2   5   77.65   19.05   0
   5   3   4  299.10   22.38   0
   5   5 -12    4.08   28.37   0
   5   6  -8   11.13   22.50   0
   5   6  -7  171.36   26.37   0
   5   6  -6    4.98   27.46   0
   5   6  -5  789.34   32.20   0
   5   6  -4   28.78   20.42   0
   5   6  -3  442.06   23.31   0
   6  -3   8   -3.57   40.82   0
   6   0   7    0.36   28.46   0
   6   5   2  530.10   22.95   0
   6   6  -1  779.23   24.49   0
   7  -2   8   29.65   38.57   0
   7   4   4  782.43   30.61   0
   7   6   1  409.41   22.90   0
   7   7  -8    2.19   22.04   0
   7   7  -7   37.37   22.85   0
   7   7  -6   -0.15   29.11   0
   7   7  -5  231.16   29.43   0
   7   7  -4  134.03   20.72   0
   7   7  -3  220.18   21.60   0
   8   1   7   69.50   27.82   0
   8   7  -2  -11.88   28.00   0
   8   7  -1   72.13   20.11   0
   9   1   7   -1.26   33.39   0
   9   4   5   32.86   23.60   0
   9   6   2  147.62   24.13   0
   9   7  -1   77.66   26.14   0
   9   7   0  160.59   20.80   0
  10   4   5   57.37   26.21   0
  10   5   4   54.94   24.78   0
  10   6   2   59.25   36.86   0
  10   7   0  120.62   25.81   0
  -5 -13  -5   67.91   32.35   0
  -5 -12  -6   71.27   24.44   0
  -5 -12  -5   39.82   23.51   0
  -5 -11  -5   41.76   20.48   0
  -5 -10 -11    3.89   26.59   0
  -5 -10  -6  115.41   21.16   0
  -5 -10  -5   86.16   21.16   0
  -5  -9 -11   32.88   36.04   0
  -5  -9 -10   41.43   26.58   0
  -5  -9  -9   35.46   23.64   0
  -5  -9  -8  173.56   23.13   0
  -5  -9  -7   22.55   21.21   0
  -5  -9  -6   48.20   21.08   0
  -4 -13  -2    7.93   25.37   0
  -4 -11  -1   19.87   32.05   0
  -4 -10  -1  192.14   30.20   0
  -4  -8  -2  195.10   22.04   0
  -4  -7  -3   64.34   21.70   0
  -4  -6 -12   73.10   29.69   0
  -4  -6  -4  172.35   21.25   0
  -4  -5  -8  546.15   31.53   0
  -3 -13   0    9.80   25.89   0
  -3 -11   1  195.14   24.29   0
  -3 -10   1   74.35   20.49   0
  -3  -9   1  370.52   22.82   0
  -3  -4  -3  485.37   24.05   0
  -3  -3  -9  390.28   33.62   0
  -3  -3  -8   41.60   21.30   0
  -3  -3  -7  408.52   23.74   0
  -3  -3  -6 1815.35   41.73   0
  -2 -12   2   45.39   24.57   0
  -2  -6   2 2028.47   34.73   0
  -2  -2 -12  147.99   35.88   0
  -1 -10   4  168.65   24.23   0
  -1  -9   4   81.22   23.21   0
  -1  -8   4  436.73   24.73   0
  -1  -7   4   61.88   27.01   0
  -1  -1  -1 5588.15   93.29   0
   0 -10   5  115.03   30.10   0
   0  -9   5  107.97   23.55   0
   0  -7   5  511.60   26.77   0
   0  -6   5   10.10   28.65   0
   1  -9   6  233.63   35.90   0
   1  -8   6   20.34   23.03   0
   1  -7   6  321.99   26.48   0
   1  -6   6  455.30   31.95   0
   1   2 -11   13.69   27.07   0
   2   2   1 4644.38   61.75   0
   2   3 -11   54.10   21.24   0
   3   3   1  924.39   27.10   0
   3   4 -10   63.87   27.54   0
   3   4  -2 1254.39   29.35   0
   4   5  -9   10.73   20.28   0
   4   5  -8  562.46   29.02   0
   4   5  -3   31.95   18.96   0
   5  -1   7  116.27   31.25   0
   5   4   2   77.39   21.53   0
   5   5 -11   31.63   29.12   0
   5   5   0 1595.11   29.78   0
   6   4   3  135.36   20.43   0
   6   5   1  439.38   29.85   0
   6   6 -10   21.95   23.36   0
   6   6  -9  118.66   28.84   0
   6   6  -2  127.57   20.29   0
   7   2   6  200.44   22.75   0
   7   3   5  484.56   25.80   0
   7   5   2  120.49   26.45   0
   7   6   0  839.57   25.64   0
   8   2   6   33.81   27.70   0
   8   4   4  315.49   29.37   0
   8   5   3  210.11   21.72   0
   8   6   1  -17.30   20.04   0
   8   7  -8   25.18   24.33   0
   8   7  -7   69.85   23.90   0
   8   7  -6   35.77   31.98   0
   8   7  -5  261.03   31.22   0
   8   7  -4   36.82   19.60   0
   8   7  -3  186.32   22.35   0
   9   5   3   67.37   22.48   0
   9   6   1   44.29   28.16   0
   9   7  -2   24.35   22.07   0
  10   5   3   30.26   29.04   0
  10   6   1   78.04   31.90   0
  10   7  -2   30.08   28.23   0
  10   7  -1  112.20   23.72   0
  -5 -13  -4   25.98   25.04   0
  -5 -12  -4   32.86   24.33   0
  -5 -12  -3   18.96   29.68   0
  -5 -11  -4  161.95   22.76   0
  -5 -11  -3   46.89   27.46   0
  -5 -10  -4  109.36   22.39   0
  -5  -9 -12  106.46   27.18   0
  -5  -9  -5  458.61   23.82   0
  -5  -9  -4  144.78   27.27   0
  -5  -8 -11   71.06   29.21   0
  -5  -8 -10   87.43   22.86   0
  -5  -8  -9   43.94   23.96   0
  -5  -8  -8   18.34   22.19   0
  -5  -8  -7  240.22   21.71   0
  -5  -8  -6  360.08   21.34   0
  -4 -13  -1   33.68   27.77   0
  -4 -12  -1   28.46   22.20   0
  -4  -9  -1  459.52   23.21   0
  -4  -8  -1  329.35   29.25   0
  -4  -7  -2 1076.80   28.94   0
  -4  -6  -3 1061.61   33.64   0
  -4  -5 -10  166.02   29.17   0
  -4  -5  -9  381.23   24.90   0
  -4  -5  -7   88.98   20.08   0
  -4  -5  -6  941.84   27.25   0
  -3 -13   1   71.08   26.87   0
  -3 -12   1   21.87   25.68   0
  -3  -8   1   23.10   21.22   0
  -3  -7   1  979.13   32.73   0
  -3  -6   0  824.52   25.08   0
  -3  -5  -1  194.71   21.26   0
  -3  -4 -13    1.59   28.65   0
  -3  -3 -10  671.99   36.47   0
  -3  -3  -5 1690.50   36.59   0
  -2 -11   3   49.29   24.35   0
  -2 -10   3   52.90   24.22   0
  -2  -9   3  433.66   24.62   0
  -2  -8   3   -7.33   18.49   0
  -1 -11   4   34.61   25.82   0
  -1  -6   4  758.42   32.16   0
  -1  -3   2    2.55   26.59   0
   0 -11   5   30.53   27.34   0
   1 -10   6  -11.35   26.91   0
   1  -3   5 1005.48   40.82   0
   1   2  -2  435.92   29.06   0
   2  -8   7  165.15   32.62   0
   2  -7   7  -10.83   26.06   0
   2  -3   6  727.51   47.95   0
   2   3  -2  559.34   23.94   0
   3   3 -13   16.84   23.03   0
   3   4  -9  273.64   30.46   0
   3   4  -3 5040.30   51.69   0
   4   4 -12   43.66   25.66   0
   4   4   0 1629.31   31.51   0
   4   5  -7   21.89   19.10   0
   4   5  -6  660.29   24.58   0
   4   5  -5  292.24   22.05   0
   4   5  -4  768.32   24.83   0
   5   5 -10  221.58   29.21   0
   5   5  -1   37.00   20.06   0
   6   1   6   65.44   29.77   0
   6   3   4   25.51   24.02   0
   6   6  -8   45.01   23.72   0
   6   6  -7    2.40   20.01   0
   6   6  -6   39.59   28.14   0
   6   6  -5  227.01   27.64   0
   6   6  -4   62.75   19.97   0
   6   6  -3  144.37   20.09   0
   7  -3   8   11.50   35.11   0
   7   0   7    5.23   25.79   0
   7   6  -1  207.72   20.36   0
   8   0   7   24.63   28.28   0
   8   3   5  157.15   22.79   0
   8   5   2   13.64   25.04   0
   8   6   0  676.34   24.28   0
   9   0   7   -4.28   31.72   0
   9   2   6   14.56   25.69   0
   9   3   5    4.37   23.00   0
   9   4   4   54.90   22.40   0
   9   6   0  138.33   26.68   0
   9   7  -6   -6.29   25.61   0
   9   7  -5  136.66   25.54   0
   9   7  -4   24.22   22.15   0
   9   7  -3  117.24   24.47   0
  10   3   5   -4.79   25.95   0
  10   4   4  -10.05   23.90   0
  10   6   0   14.85   32.90   0
  10   7  -3  -19.75   23.76   0
  -6 -12  -7   13.82   34.78   0
  -6 -11  -9   25.22   29.48   0
  -6 -11  -8  216.50   31.22   0
  -5 -13  -3   43.38   24.56   0
  -5 -12  -2   24.96   32.09   0
  -5 -11  -2   49.84   28.54   0
  -5 -10  -3  508.10   24.79   0
  -5  -9  -3  110.71   29.57   0
  -5  -8 -12   30.74   30.43   0
  -5  -8  -5  279.37   21.90   0
  -5  -8  -4  429.45   29.61   0
  -5  -7  -9  221.77   28.31   0
  -5  -7  -8  200.47   22.25   0
  -5  -7  -7   14.55   26.02   0
  -4 -13   0   31.34   26.62   0
  -4 -12   0  109.85   24.99   0
  -4 -11   0   37.19   21.66   0
  -4 -10   0  152.75   21.36   0
  -4  -9   0  195.99   22.39   0
  -4  -6 -13    9.88   24.71   0
  -4  -5 -11   63.58   29.67   0
  -4  -5  -5   14.95   20.76   0
  -3 -12   2  168.26   26.58   0
  -3 -11   2    9.17   23.30   0
  -3 -10   2  388.20   25.46   0
  -3  -9   2  182.56   20.98   0
  -3  -4  -2  499.89   24.15   0
  -3  -3  -4  828.13   32.58   0
  -2 -12   3   20.87   26.88   0
  -2  -7   3 2382.31   35.79   0
  -2  -5   2  470.36   24.23   0
  -2  -4   1 1021.79   28.97   0
  -2  -2  -2 2437.45   49.34   0
  -1  -4   3   -5.19   19.30   0
  -1  -2   1  643.45   39.91   0
   0  -5   5  394.84   29.16   0
   1  -5   6  185.29   29.78   0
   2  -9   7   16.81   32.58   0
   2  -6   7  243.97   32.66   0
   2   2 -13  340.27   34.92   0
   2   3 -10  168.74   22.96   0
   3   3   0 3972.60   50.40   0
   3   4  -8    4.93   19.55   0
   3   4  -4  279.59   22.88   0
   4   3   2 1116.95   29.58   0
   4   4 -11  160.73   34.78   0
   5   3   3  482.18   25.78   0
   5   4   1   92.63   20.76   0
   5   5  -9    6.60   27.10   0
   5   5  -2  213.28   21.87   0
   6   2   5  195.48   23.33   0
   6   4   2  355.55   27.94   0
   6   5 -11   63.00   26.09   0
   6   5   0  680.49   25.74   0
   7   4   3   81.18   18.77   0
   7   5   1 1019.46   27.66   0
   7   6  -9    8.80   23.98   0
   7   6  -8  156.91   24.17   0
   7   6  -7    2.03   29.38   0
   7   6  -4  679.20   30.65   0
   7   6  -3  -15.55   20.56   0
   7   6  -2  389.84   24.02   0
   8   4   3    4.11   25.82   0
   8   6  -2  322.58   29.91   0
   8   6  -1   20.82   20.30   0
   9   5   2   -5.39   22.18   0
   9   6  -1   17.21   20.59   0
  10   4   3   31.56   30.33   0
  10   5   2   37.25   24.84   0
  10   6  -1   32.79   25.07   0
  -6 -12  -6   30.25   25.02   0
  -6 -12  -5   37.88   25.98   0
  -6 -11  -7   28.87   25.48   0
  -6 -11  -6  353.30   26.58   0
  -6 -11  -5  -27.31   26.66   0
  -6 -10 -10    5.32   33.67   0
  -6 -10  -9  191.42   25.79   0
  -6 -10  -8   -0.84   23.84   0
  -6 -10  -7  286.03   29.16   0
  -5 -13  -2   17.00   22.72   0
  -5 -12  -1   22.65   28.44   0
  -5 -10  -2  192.67   21.23   0
  -5  -9  -2  422.98   29.61   0
  -5  -8  -3  407.39   29.07   0
  -5  -7 -11   20.68   29.32   0
  -5  -7 -10  122.96   23.06   0
  -5  -7  -6  670.24   23.66   0
  -5  -7  -5  257.09   22.17   0
  -4 -12   1   41.70   30.36   0
  -4 -11   1   63.71   24.02   0
  -4 -10   1  654.65   31.93   0
  -4  -8   0  363.21   23.09   0
  -4  -7  -1  116.51   22.86   0
  -4  -6  -2   18.37   20.63   0
  -4  -5  -4  590.64   25.66   0
  -3  -8   2 1046.86   28.38   0
  -3  -6   1    9.27   19.78   0
  -3  -5   0  177.44   21.00   0
  -3  -3 -11   22.49   30.38   0
  -2 -11   4   11.30   30.47   0
  -2 -10   4    6.89   23.85   0
  -2  -9   4  -15.99   22.16   0
  -2  -6   3  275.82   23.43   0
  -2  -3   0 4007.85   52.26   0
  -2  -1  -7 1822.55   61.41   0
  -2  -1  -6 2207.87   63.56   0
  -1 -11   5    4.71   33.70   0
  -1 -10   5   17.71   24.30   0
  -1  -9   5   79.62   22.76   0
  -1  -8   5   17.55   21.21   0
  -1  -5   4  445.71   31.26   0
   0 -10   6   15.15   36.09   0
   0  -9   6   79.77   24.58   0
   0  -8   6   42.97   28.74   0
   0  -2   3   92.51   33.76   0
   0   1 -10    4.83   29.25   0
   0   1  -3 9231.14  129.24   0
   1   1 -13   91.19   31.23   0
   1   2 -10  247.02   25.18   0
   2   3  -9  463.08   26.59   0
   2   3  -3 1701.14   33.85   0
   3   2   2 1203.89   32.64   0
   3   3 -12  212.36   26.38   0
   3   4  -7  684.55   27.03   0
   3   4  -6  180.78   19.97   0
   3   4  -5  749.36   26.08   0
   4  -7   8   -5.26   25.32   0
   4  -6   8    6.20   36.90   0
   4   4 -10    2.32   25.65   0
   4   4  -1 1356.19   29.27   0
   5   0   6   29.99   29.77   0
   5   2   4  381.59   30.65   0
   5   4 -12  134.97   31.45   0
   5   5  -8  116.22   24.44   0
   5   5  -7   88.90   26.40   0
   5   5  -6  482.58   27.41   0
   5   5  -5  270.91   27.19   0
   5   5  -4  537.97   24.90   0
   5   5  -3    1.07   21.05   0
   6  -1   7   83.63   30.07   0
   6   5 -10   62.84   24.70   0
   6   5  -1  329.68   22.29   0
   7   2   5    8.32   21.08   0
   7   3   4   87.43   21.85   0
   7   5   0   31.55   19.10   0
   7   6  -6  142.21   22.92   0
   7   6  -5    6.62   18.83   0
   8   1   6    3.04   27.70   0
   8   3   4    0.64   27.27   0
   8   5   1  588.14   25.27   0
   8   6  -8   84.33   26.42   0
   8   6  -7   21.95   24.62   0
   8   6  -6  126.10   29.94   0
   8   6  -5   -2.85   24.72   0
   8   6  -4  616.92   26.18   0
   8   6  -3   17.63   21.23   0
   9   1   6   13.82   25.53   0
   9   2   5   10.82   33.20   0
   9   3   4   19.00   27.81   0
   9   4   3  -21.14   24.29   0
   9   5   1  137.12   22.53   0
   9   6  -6   34.85   32.60   0
   9   6  -4  140.76   29.16   0
   9   6  -3   27.62   22.14   0
   9   6  -2  161.82   22.88   0
  10   2   5   23.39   26.12   0
  10   3   4   36.45   25.89   0
  10   5   1    4.17   25.26   0
  10   6  -4   11.90   28.31   0
  10   6  -3  -13.87   24.69   0
  10   6  -2   22.27   22.54   0
  -6 -13  -4   47.50   26.32   0
  -6 -12  -4   20.30   22.86   0
  -6 -11  -4  262.34   22.48   0
  -6 -10  -6   52.76   22.42   0
  -6 -10  -5  207.93   22.68   0
  -6  -9 -10  241.80   37.55   0
  -6  -9  -9  -27.06   24.63   0
  -6  -9  -8   85.01   23.39   0
  -6  -9  -7   14.29   21.01   0
  -6  -9  -6   96.77   26.01   0
  -5 -13  -1   12.55   25.99   0
  -5 -11  -1   49.10   22.32   0
  -5 -10  -1  139.51   21.44   0
  -5  -8  -2   15.37   25.74   0
  -5  -7 -12   68.74   29.22   0
  -5  -7  -4 1112.69   28.71   0
  -5  -6  -8    6.11   27.55   0
  -5  -6  -7  448.53   30.02   0
  -4 -13   1  247.85   29.04   0
  -4  -9   1  125.97   20.67   0
  -4  -7   0  107.49   23.29   0
  -4  -6 -14  104.47   28.54   0
  -4  -6  -1  599.23   31.73   0
  -4  -5 -12   38.59   21.60   0
  -4  -5  -3   16.67   20.27   0
  -4  -4  -8   70.01   30.12   0
  -4  -4  -7 1374.47   38.57   0
  -3 -12   3    1.55   25.38   0
  -3 -11   3   22.76   24.47   0
  -3 -10   3   47.19   22.00   0
  -3  -9   3  391.88   25.47   0
  -3  -7   2  176.60   21.74   0
  -3  -4  -1 5809.35   53.10   0
  -3  -3  -3 4337.18   51.35   0
  -2 -12   4   20.67   26.65   0
  -2  -8   4  577.29   24.96   0
  -2  -1  -8  183.80   36.32   0
  -1  -7   5  335.41   23.94   0
   0  -7   6   15.18   22.51   0
   0  -3   4  155.69   21.93   0
   0   0 -13   18.45   33.49   0
   1  -9   7    5.29   29.33   0
   1  -8   7  185.57   30.39   0
   1   2  -9  550.49   34.67   0
   1   2  -3  480.18   27.67   0
   2  -5   7   73.41   28.63   0
   2   1   2  351.82   37.93   0
   2   2   0 3934.41   56.29   0
   2   3  -8  787.29   29.18   0
   2   3  -7  663.36   30.65   0
   2   3  -6   38.16   24.30   0
   2   3  -5 1192.04   36.90   0
   2   3  -4  556.73   25.52   0
   3   2 -14    4.84   26.93   0
   3   3 -11   59.77   30.98   0
   4   2   3 2683.99   42.63   0
   4   3 -13   90.75   25.91   0
   4   3   1  -10.90   19.39   0
   4   4  -9  180.36   29.73   0
   4   4  -2  347.53   22.18   0
   5   4 -11   83.06   33.39   0
   5   4   0   72.89   19.96   0
   6  -4   8   -0.90   35.26   0
   6   3   3  703.89   25.39   0
   6   4   1  -13.50   19.58   0
   6   5  -9  230.44   24.75   0
   6   5  -8   37.17   29.41   0
   6   5  -3  156.66   28.09   0
   6   5  -2   24.30   20.01   0
   7  -1   7  107.22   31.88   0
   7   4   2  737.72   25.79   0
   7   5 -10   -4.25   24.98   0
   7   5  -1  904.85   26.34   0
   8  -1   7   48.12   25.48   0
   8   2   5   -1.69   21.03   0
   8   4   2  543.95   26.26   0
   8   5   0   -1.54   20.14   0
   9   4   2   38.40   21.98   0
   9   5   0   15.17   20.80   0
   9   6  -5   53.87   23.06   0
  10   4   2  -20.07   23.15   0
  10   5  -1  -11.65   29.24   0
  10   5   0   24.47   25.68   0
  -6 -13  -3    4.76   24.18   0
  -6 -13  -2   14.17   33.40   0
  -6 -12  -3  120.41   25.01   0
  -6 -12  -2  -17.55   28.43   0
  -6 -11  -3   14.47   21.60   0
  -6 -10  -4  -12.70   21.28   0
  -6 -10  -3  -24.00   26.68   0
  -6  -9 -11   28.35   25.16   0
  -6  -9  -5  118.24   19.71   0
  -6  -8  -8   50.59   29.00   0
  -5 -13   0   10.17   27.25   0
  -5 -12   0   40.12   24.22   0
  -5 -11   0  206.90   23.38   0
  -5 -10   0  156.72   27.74   0
  -5  -9  -1  531.65   25.26   0
  -5  -7  -3  107.82   21.97   0
  -5  -6 -10  138.44   28.38   0
  -5  -6  -9  336.98   23.29   0
  -5  -6  -6   11.12   18.93   0
  -5  -6  -5 1286.12   33.18   0
  -4 -12   2   61.67   28.54   0
  -4 -11   2  123.64   24.05   0
  -4 -10   2  173.84   22.03   0
  -4  -8   1  319.35   24.22   0
  -4  -5  -2 1531.55   30.15   0
  -4  -4  -9  629.04   29.39   0
  -4  -4  -6  148.69   20.49   0
  -4  -4  -5 1631.91   37.48   0
  -3  -8   3   86.24   20.56   0
  -3  -6   2  403.23   31.71   0
  -3  -5   1  587.82   31.87   0
  -3  -4 -14   63.25   38.72   0
  -2  -7   4   20.51   18.17   0
  -2  -5   3 1478.07   37.63   0
  -2  -4   2  898.23   27.78   0
  -2  -1  -5  850.54   42.92   0
  -1  -6   5   13.51   27.49   0
   0  -6   6  729.35   37.77   0
   0  -4   5  710.62   36.41   0
   0  -1 -15   66.81   40.12   0
   0   1  -9 1314.35   45.57   0
   1  -7   7   -6.11   28.50   0
   1  -4   6  690.76   37.68   0
   1   0   2 3650.62  120.18   0
   1   1   0 1496.85   52.59   0
   1   2  -8 1667.37   42.97   0
   1   2  -4 7220.53   76.74   0
   2   2 -12    3.70   20.19   0
   3  -7   8   15.12   33.54   0
   3   3  -1 1735.99   33.85   0
   4   3 -12   18.84   30.93   0
   4   4  -8  335.95   22.47   0
   4   4  -4    8.44   26.48   0
   4   4  -3 1844.55   33.20   0
   5   3   2   54.17   21.42   0
   5   4 -10   50.21   30.82   0
   5   4  -1  836.46   25.40   0
   6   0   6   10.72   27.24   0
   6   2   4  871.73   32.88   0
   6   5  -7   73.58   22.07   0
   6   5  -6  160.37   20.52   0
   6   5  -5  250.26   20.97   0
   6   5  -4  183.38   20.92   0
   7   3   3  708.60   25.79   0
   7   4   1   -3.85   21.43   0
   7   5  -9  224.54   24.43   0
   7   5  -8    6.82   21.37   0
   7   5  -3  467.55   30.70   0
   7   5  -2   35.79   19.30   0
   8   3   3  322.84   32.27   0
   8   5  -9   62.67   25.54   0
   8   5  -2  -28.57   24.95   0
   8   5  -1  837.78   26.59   0
   9   0   6   28.44   24.75   0
   9   3   3   18.28   24.47   0
   9   4   1   -9.87   28.47   0
   9   5  -2   29.39   25.93   0
   9   5  -1   95.74   22.14   0
  10   2   4    1.07   25.62   0
  10   3   3    3.76   25.22   0
  10   4   1  112.50   27.69   0
  10   5  -3  -20.67   31.01   0
  10   5  -2    1.60   24.24   0
  -7 -12  -6  -10.09   26.56   0
  -7 -12  -5  121.47   32.54   0
  -7 -11  -8  -30.79   31.68   0
  -7 -11  -7  -16.21   35.80   0
  -6 -13  -1  -39.18   34.72   0
  -6 -12  -1  112.57   29.58   0
  -6 -11  -2   21.68   23.50   0
  -6 -10  -2  -47.13   27.82   0
  -6  -9  -4   -8.51   20.64   0
  -6  -9  -3    2.91   27.16   0
  -6  -8 -10   -4.81   24.06   0
  -6  -8  -9   17.96   23.00   0
  -6  -8  -7   14.72   23.17   0
  -6  -8  -6    3.00   19.28   0
  -6  -8  -5  452.69   29.48   0
  -5 -13   1   26.82   26.73   0
  -5 -12   1   36.17   25.79   0
  -5 -11   1    1.96   27.70   0
  -5  -9   0  223.34   20.96   0
  -5  -8  -1  618.02   24.40   0
  -5  -7 -13    1.93   26.46   0
  -5  -7  -2  930.69   27.92   0
  -5  -6 -11   32.26   23.78   0
  -5  -6  -4   -9.83   18.71   0
  -4  -9   2  700.26   25.30   0
  -4  -7   1  227.88   23.40   0
  -4  -6   0  496.30   23.62   0
  -4  -5 -13   16.65   31.44   0
  -4  -4 -10   39.81   21.97   0
  -4  -4  -4 1129.04   29.08   0
  -3 -12   4   -8.99   25.67   0
  -3 -11   4   16.91   22.83   0
  -3 -10   4   33.57   23.51   0
  -3  -7   3 1088.38   29.58   0
  -3  -4   0  663.19   25.56   0
  -3  -3 -12  148.63   35.42   0
  -3  -3  -2 5113.90   53.95   0
  -2 -11   5   17.41   27.83   0
  -2 -10   5  -11.26   23.08   0
  -2  -9   5  173.07   26.13   0
  -2  -6   4  827.23   32.65   0
  -2  -3   1 1439.25   40.89   0
  -2  -2  -1 4893.68   64.94   0
  -1 -11   6   52.52   26.97   0
  -1 -10   6  112.15   26.11   0
  -1  -9   6   15.16   25.39   0
  -1   0  -9  950.91   59.80   0
   1  -6   7  475.40   34.40   0
   1   1 -12    8.88   26.24   0
   1   2  -7  251.34   28.46   0
   1   2  -6 1159.56   36.71   0
   1   2  -5  515.48   32.10   0
   2   1 -14  177.87   31.16   0
   2   2 -11   47.90   26.54   0
   3   1   3 1188.75   38.95   0
   3   2 -13   25.89   26.94   0
   3   3 -10   89.20   21.02   0
   3   3  -2 1197.97   35.59   0
   4  -1   6  570.47   37.96   0
   4   3   0 2062.63   39.70   0
   4   4  -7  370.94   22.01   0
   4   4  -6   76.48   21.31   0
   4   4  -5  742.79   24.51   0
   5  -2   7   74.82   30.95   0
   5   4  -9   69.09   29.20   0
   5   4  -2   32.47   26.63   0
   6   1   5  237.76   24.70   0
   6   3   2   14.88   18.80   0
   6   4 -11   -1.61   23.86   0
   6   4 -10  271.67   30.75   0
   6   4   0 1175.48   29.95   0
   7   1   5  169.56   30.21   0
   7   2   4  651.52   27.35   0
   7   4   0 1722.49   37.61   0
   7   5  -7  -15.39   23.21   0
   7   5  -6    4.63   19.09   0
   7   5  -5  825.73   25.59   0
   7   5  -4   13.70   20.61   0
   8  -2   7   -4.48   32.24   0
   8   1   5   51.82   27.70   0
   8   2   4   40.01   23.28   0
   8   4   1    7.84   18.72   0
   8   5  -8   -6.78   24.29   0
   8   5  -7   -3.40   24.57   0
   8   5  -6   18.75   21.70   0
   8   5  -5  409.63   23.92   0
   8   5  -4   10.14   22.27   0
   8   5  -3  458.93   24.42   0
   9   1   5   10.03   24.39   0
   9   2   4    5.62   22.62   0
   9   4   0   39.33   27.08   0
   9   5  -7   16.25   26.25   0
   9   5  -6   -3.39   25.37   0
   9   5  -5    4.53   21.74   0
   9   5  -4   26.21   24.54   0
   9   5  -3   23.65   22.52   0
  10   3   2    7.16   24.65   0
  10   4   0   19.51   24.99   0
  10   5  -4    8.29   24.23   0
  -7 -12  -4  -12.93   25.92   0
  -7 -11  -6  367.43   27.51   0
  -7 -11  -5   19.00   23.97   0
  -7 -10 -10  -15.79   32.99   0
  -7 -10  -9  168.63   30.85   0
  -7 -10  -8   -4.87   22.72   0
  -7 -10  -7  375.60   30.05   0
  -7 -10  -6   18.20   27.54   0
  -6 -13   0    5.24   31.40   0
  -6 -11  -1   45.17   22.27   0
  -6 -10  -1  149.12   27.39   0
  -6  -9  -2  165.07   30.04   0
  -6  -8 -12    4.20   30.93   0
  -6  -8 -11  120.48   25.66   0
  -6  -8  -4  -14.19   18.78   0
  -5 -10   1  387.71   23.72   0
  -5  -8   0   27.45   20.36   0
  -5  -7  -1   64.15   27.23   0
  -5  -6 -12   -9.31   30.97   0
  -5  -6  -3 1215.02   29.01   0
  -4 -12   3   -6.80   25.30   0
  -4 -11   3   35.16   23.96   0
  -4 -10   3  169.72   22.96   0
  -4  -8   2   88.66   22.24   0
  -4  -5  -1   11.69   19.86   0
  -4  -4 -11  307.89   31.97   0
  -4  -4  -3 1365.24   36.17   0
  -3  -9   4   32.98   22.50   0
  -3  -8   4  475.22   28.36   0
  -2  -8   5   50.13   21.62   0
  -1  -8   6  198.69   23.00   0
  -1  -4   4 1840.68   38.45   0
  -1  -3   3  750.32   30.86   0
   0 -10   7   34.00   26.33   0
   0  -9   7  -10.00   25.39   0
   0  -8   7  152.24   28.50   0
   0  -1   2  508.63   45.56   0
   0   1  -8    1.55   28.06   0
   0   1  -4   23.44   29.97   0
   2  -8   8    6.91   30.75   0
   2   2  -1   55.65   23.49   0
   3  -6   8    7.47   35.18   0
   3   2   1 5518.95   59.40   0
   3   3  -9    7.92   20.17   0
   3   3  -3   87.29   26.99   0
   4   0   5  568.54   29.15   0
   4   2   2    4.14   27.77   0
   4   3 -11    8.57   25.52   0
   5   2   3 1164.02   30.92   0
   5   3 -12  -10.92   25.70   0
   5   3   1  470.40   23.69   0
   5   4  -8  448.23   25.02   0
   5   4  -7  140.92   28.15   0
   5   4  -4  148.20   28.68   0
   5   4  -3  116.88   20.38   0
   6  -2   7    7.59   25.76   0
   6   4  -9   86.09   28.85   0
   6   4  -1   21.37   22.02   0
   7  -2   7   31.29   28.43   0
   7   3   2  195.94   21.41   0
   7   4 -10  107.65   26.22   0
   7   4  -1    5.54   28.73   0
   8   3   2    5.84   20.81   0
   8   4   0  883.57   27.26   0
   9   2   3  104.04   27.55   0
   9   3   2   28.41   22.89   0
   9   4  -1   24.26   21.41   0
  10   1   4   28.66   26.09   0
  10   2   3   27.06   25.09   0
  10   3   1    9.28   25.14   0
  10   4  -2   19.87   25.67   0
  10   4  -1   55.96   25.13   0
  -7 -12  -3  187.67   24.76   0
  -7 -11  -4  185.23   23.81   0
  -7 -11  -3  -11.67   26.77   0
  -7 -10  -5  163.17   23.99   0
  -7 -10  -4   70.64   27.09   0
  -7  -9  -8   57.18   28.50   0
  -6 -12   0   -9.19   23.52   0
  -6 -11   0  206.27   22.73   0
  -6  -9  -1   97.84   26.36   0
  -6  -8  -3  336.02   22.86   0
  -6  -7 -10  205.73   32.32   0
  -6  -7  -9    0.09   22.52   0
  -6  -7  -8   84.31   21.28   0
  -6  -7  -7   90.01   21.69   0
  -6  -7  -6  396.99   24.83   0
  -6  -7  -5   37.03   19.97   0
  -5 -12   2   40.05   25.41   0
  -5 -11   2  338.31   27.12   0
  -5 -10   2   16.94   27.89   0
  -5  -9   1    6.47   20.19   0
  -5  -6  -2  545.46   23.77   0
  -5  -5  -9  107.50   28.32   0
  -5  -5  -8  684.32   28.01   0
  -5  -5  -7   75.01   20.95   0
  -5  -5  -6 1153.07   29.65   0
  -5  -5  -5   53.80   27.18   0
  -4 -12   4    2.89   31.74   0
  -4  -9   3   77.49   22.09   0
  -4  -7   2  493.77   25.26   0
  -4  -6   1  482.80   23.73   0
  -3 -11   5   42.21   31.81   0
  -3 -10   5   24.35   27.85   0
  -3  -6   3 1309.11   30.41   0
  -3  -5   2 2245.56   35.82   0
  -3  -2  -8 1494.27   49.17   0
  -3  -2  -7  401.05   26.54   0
  -3  -2  -6  431.78   25.61   0
  -2 -11   6   38.33   37.44   0
  -2 -10   6  194.12   32.60   0
  -2  -7   5  121.82   21.05   0
  -2  -1  -4 1916.08   53.39   0
  -1  -7   6   58.15   22.75   0
  -1  -5   5  560.17   25.51   0
  -1  -1   0 1778.66   53.61   0
   0  -5   6  144.93   24.34   0
   1   0 -14   65.87   30.55   0
   2  -7   8   37.90   32.11   0
   2   1 -13   28.72   31.43   0
   2   2 -10  170.70   27.05   0
   3   2 -12  -18.06   22.09   0
   3   3  -8  707.16   25.93   0
   3   3  -7   76.88   19.00   0
   3   3  -6   98.77   26.76   0
   3   3  -4 2418.93   36.24   0
   4   2 -13    9.99   25.69   0
   4   3 -10  317.57   23.53   0
   4   3  -1 1569.04   31.95   0
   5   1   4 1428.16   38.73   0
   5   3 -11   94.24   25.04   0
   5   4  -6  166.46   21.16   0
   5   4  -5 1412.54   31.02   0
   6   2   3  201.69   21.75   0
   6   3   1  436.63   23.72   0
   6   4  -8  180.38   22.02   0
   6   4  -7   33.75   25.63   0
   6   4  -4  567.71   28.81   0
   6   4  -3   13.98   20.20   0
   6   4  -2  351.42   23.25   0
   7   2   3    9.56   26.84   0
   7   3   1  851.46   32.02   0
   7   4  -9  -37.03   24.54   0
   7   4  -8   44.41   27.22   0
   7   4  -2  472.15   23.12   0
   8   2   3   45.99   23.28   0
   8   3   1  486.44   32.31   0
   8   4  -9   10.38   24.97   0
   8   4  -8    9.63   24.40   0
   8   4  -2  503.20   24.18   0
   8   4  -1   35.22   20.57   0
   9   0   5   33.78   26.84   0
   9   1   4   34.77   25.10   0
   9   3   1   56.54   23.00   0
   9   4  -7   40.52   26.25   0
   9   4  -6   40.49   29.35   0
   9   4  -4   74.62   28.90   0
   9   4  -3   47.76   24.11   0
   9   4  -2  129.38   23.02   0
  10   1   3   31.95   32.26   0
  10   2   2   -7.53   25.70   0
  10   3   0  154.10   27.40   0
  10   4  -4   23.60   24.61   0
  10   4  -3  169.07   26.16   0
  -7 -12  -2  -28.99   24.99   0
  -7 -11  -2  180.36   25.13   0
  -7 -10  -3   19.72   20.62   0
  -7  -9 -10  183.08   28.62   0
  -7  -9  -9   20.41   25.44   0
  -7  -9  -7   90.70   24.38   0
  -7  -9  -6  177.88   23.53   0
  -7  -9  -5  124.27   23.57   0
  -6 -12   1  173.01   26.88   0
  -6 -11   1   14.37   28.39   0
  -6 -10   0  103.08   23.09   0
  -6  -8  -2   28.27   20.68   0
  -6  -7 -11   -5.48   29.77   0
  -6  -7  -4  632.78   25.94   0
  -5 -12   3   11.59   33.11   0
  -5  -9   2  360.27   23.90   0
  -5  -8   1  509.05   24.31   0
  -5  -7   0  869.47   27.24   0
  -5  -6 -13   17.65   35.03   0
  -5  -5 -10  426.88   27.70   0
  -5  -5  -4 2142.84   34.52   0
  -4 -11   4   52.58   23.85   0
  -4 -10   4   96.05   22.75   0
  -4  -8   3  253.58   22.56   0
  -4  -5 -14    5.19   35.57   0
  -4  -5   0 1061.29   28.73   0
  -4  -4  -2    0.02   19.45   0
  -3  -9   5  218.35   25.74   0
  -3  -7   4   -5.39   19.91   0
  -3  -4   1 1718.51   32.78   0
  -3  -3  -1  976.56   29.78   0
  -3  -2  -5 1934.66   41.51   0
  -2  -9   6    1.93   23.26   0
  -2  -5   4 1303.57   32.52   0
  -2  -4   3 1619.06   34.21   0
  -1 -10   7  110.17   31.05   0
  -1  -2   2  377.28   29.77   0
   0  -7   7  156.00   24.84   0
   0   0 -12   40.64   28.23   0
   0   1  -7  513.57   28.16   0
   0   1  -6  141.26   29.61   0
   0   1  -5 9674.24  109.74   0
   1  -9   8   54.61   38.55   0
   1  -5   7  320.46   32.83   0
   1   1 -11   -3.97   27.19   0
   2  -4   7  129.46   33.32   0
   2   2  -9  877.74   35.03   0
   2   2  -2  737.70   36.45   0
   3   0   4   22.84   27.56   0
   3   1 -14   61.32   25.63   0
   3   2 -11  211.24   28.63   0
   3   3  -5  507.17   25.38   0
   4   3  -9  191.68   21.98   0
   4   3  -2 2009.03   38.64   0
   5  -5   8    3.05   42.62   0
   5  -1   6  130.70   29.95   0
   5   2   2  747.65   34.72   0
   5   3 -10  202.14   28.15   0
   5   3   0 1114.97   28.48   0
   6  -1   6   -1.09   27.27   0
   6   1   4  125.78   29.18   0
   6   3 -11  135.17   26.50   0
   6   3   0  183.72   27.16   0
   6   4  -6  553.15   24.30   0
   6   4  -5  393.22   22.77   0
   7  -3   7    6.76   29.67   0
   7  -1   6  -10.75   21.89   0
   7   1   4  109.49   28.70   0
   7   4  -7   40.78   22.83   0
   7   4  -6  263.33   22.18   0
   7   4  -5   -2.66   19.92   0
   7   4  -4  432.97   24.72   0
   7   4  -3   25.97   20.18   0
   8   0   5   75.97   24.63   0
   8   1   4  153.37   22.42   0
   8   3   0  129.72   27.75   0
   8   4  -7  -14.25   24.31   0
   8   4  -6   26.78   20.67   0
   8   4  -5   60.25   22.34   0
   8   4  -4  251.69   24.31   0
   8   4  -3   -2.70   20.60   0
   9  -1   5   -2.84   31.73   0
   9   2   2  129.12   24.72   0
   9   3   0  309.41   25.74   0
   9   4  -5  276.66   25.92   0
  10   2   1   63.91   24.41   0
  10   3  -2   54.71   32.68   0
  10   3  -1   -8.40   24.59   0
  -8 -12  -4    5.21   32.06   0
  -8 -11  -7   10.03   26.79   0
  -8 -11  -6   76.78   31.37   0
  -7 -12  -1  120.56   25.85   0
  -7 -11  -1   23.65   22.63   0
  -7 -10  -2   26.37   20.62   0
  -7  -9  -4   49.75   20.32   0
  -7  -9  -3   90.46   29.20   0
  -7  -8  -8   84.84   30.51   0
  -7  -8  -7   25.06   28.57   0
  -7  -8  -6  232.11   28.88   0
  -6 -12   2    8.68   33.02   0
  -6 -10   1   41.15   23.69   0
  -6  -9   0  434.53   24.35   0
  -6  -8  -1  818.85   25.43   0
  -6  -7 -12   70.07   34.08   0
  -6  -7  -3  258.60   23.39   0
  -6  -6  -8   30.09   25.04   0
  -6  -6  -7  162.26   28.28   0
  -6  -6  -6    1.38   25.54   0
  -5 -11   3  132.72   24.60   0
  -5 -10   3  162.05   25.01   0
  -5  -7   1   75.67   26.78   0
  -5  -6  -1 1680.89   30.86   0
  -5  -5 -11   -2.09   27.71   0
  -5  -5  -3   51.65   21.59   0
  -4  -9   4   23.19   22.76   0
  -4  -7   3   84.09   31.28   0
  -4  -6   2   10.75   20.35   0
  -4  -4 -12   16.35   29.26   0
  -4  -3  -7  -14.25   27.76   0
  -4  -3  -6  460.79   30.48   0
  -3  -8   5   11.85   20.19   0
  -3  -2  -9  359.81   37.84   0
  -3  -2  -4 2186.39   43.04   0
  -2  -8   6  543.64   27.34   0
  -2  -6   5   -7.87   19.20   0
  -2  -3   2  565.09   27.04   0
  -2  -2   0 3886.46   56.77   0
  -1  -9   7  121.50   24.78   0
  -1  -8   7   42.00   29.28   0
  -1  -6   6  115.87   23.20   0
   0  -1 -14   74.67   31.81   0
   1  -8   8   20.87   29.00   0
   3   2   0  270.16   25.15   0
   4   1   3  135.31   30.63   0
   4   2 -12   10.05   23.08   0
   4   2   1 2342.24   37.65   0
   4   3  -8  307.48   22.04   0
   4   3  -7  349.84   28.36   0
   4   3  -3  728.88   25.83   0
   5   2 -12   33.07   30.41   0
   5   3  -9  286.69   25.54   0
   5   3  -1  367.30   23.30   0
   6   0   5    0.11   20.71   0
   6   2   2  246.93   21.98   0
   6   3 -10   59.17   22.51   0
   7   0   5    3.06   20.20   0
   7   2   2  253.57   27.12   0
   7   3 -10   37.29   24.99   0
   7   3   0   14.79   22.47   0
   8   2   2  247.70   24.19   0
   8   3  -9   20.88   31.56   0
   8   3  -1  263.50   27.83   0
   9   0   4   17.35   25.62   0
   9   1   3   82.30   25.49   0
   9   2   1  204.99   30.27   0
   9   3  -7   42.03   31.83   0
   9   3  -2  120.48   21.82   0
   9   3  -1  126.56   23.92   0
  10   1   2   54.43   26.12   0
  10   2   0  -24.98   27.38   0
  10   3  -4  172.01   27.56   0
  10   3  -3   29.08   25.61   0
  -8 -12  -3   82.84   26.11   0
  -8 -11  -5   38.96   24.42   0
  -8 -11  -4  124.17   24.27   0
  -8 -10  -8    9.19   29.97   0
  -8 -10  -7   79.14   30.49   0
  -8 -10  -6  144.28   35.87   0
  -7 -12   0   61.17   23.95   0
  -7 -11   0   31.41   23.48   0
  -7 -10  -1  105.39   23.39   0
  -7  -9  -2  109.26   23.16   0
  -7  -8 -10   94.25   25.38   0
  -7  -8  -9   91.83   24.01   0
  -7  -8  -5  237.41   22.50   0
  -7  -8  -4  178.91   29.35   0
  -6 -11   2  215.04   25.75   0
  -6  -9   1   50.19   21.14   0
  -6  -8   0   98.57   20.73   0
  -6  -7  -2  570.52   24.41   0
  -6  -6  -9  342.25   25.71   0
  -6  -6  -5 1342.91   29.53   0
  -6  -6  -4   23.62   27.76   0
  -5 -12   4   11.35   27.26   0
  -5 -11   4  124.79   29.26   0
  -5  -9   3   12.34   19.21   0
  -5  -8   2  272.14   22.08   0
  -5  -6   0   21.12   22.53   0
  -5  -5  -2  732.69   26.21   0
  -4 -11   5   22.61   25.94   0
  -4 -10   5   34.52   33.07   0
  -4  -8   4  307.47   23.49   0
  -4  -5   1  649.41   24.92   0
  -4  -4  -1  965.46   28.32   0
  -4  -3  -8  860.04   33.24   0
  -4  -3  -5   49.41   20.72   0
  -4  -3  -4 1425.88   37.90   0
  -3 -11   6   -3.47   26.40   0
  -3 -10   6  153.86   26.68   0
  -3  -6   4  103.97   20.38   0
  -3  -5   3   72.19   22.81   0
  -3  -3   0 3622.90   46.42   0
  -3  -2  -3 1212.44   38.80   0
  -2  -7   6   28.60   28.07   0
  -2  -1  -3 1228.84   43.32   0
  -1   0  -8  783.67   47.94   0
   0  -9   8  114.61   32.93   0
   0  -6   7  262.71   26.69   0
   1  -7   8  128.14   33.66   0
   1   0 -13   93.38   31.78   0
   1   1 -10  195.61   29.00   0
   1   1  -1 5998.67   87.03   0
   2  -6   8    8.67   27.88   0
   2   0 -14  -11.83   31.74   0
   2   0   3   10.40   24.97   0
   2   1 -12  150.06   22.70   0
   2   1   1    9.33   23.82   0
   2   2  -8  396.28   24.57   0
   2   2  -7  130.28   28.41   0
   2   2  -3  907.53   30.26   0
   3   1 -13  131.68   26.95   0
   3   1   2 1071.67   38.24   0
   3   2 -10   29.55   20.26   0
   4   2 -11  315.20   26.80   0
   4   3  -6 1088.82   26.86   0
   4   3  -5  170.02   21.48   0
   4   3  -4 1435.53   31.58   0
   5   3  -8  -18.24   21.09   0
   5   3  -7  874.28   32.74   0
   5   3  -3 1055.04   34.50   0
   5   3  -2 1287.94   28.95   0
   6  -3   7  158.92   35.23   0
   6   3  -9  172.52   23.96   0
   6   3  -8   -3.09   19.92   0
   6   3  -2  298.34   31.18   0
   6   3  -1 1528.56   32.10   0
   7   3  -9  121.00   26.17   0
   7   3  -8   10.27   22.46   0
   7   3  -2   27.86   28.96   0
   7   3  -1  781.88   25.90   0
   8  -1   5   58.51   29.41   0
   8   0   4  105.69   32.07   0
   8   1   3  138.57   24.05   0
   8   2   1  149.81   23.48   0
   8   3  -8   64.30   23.80   0
   8   3  -7   -2.79   23.58   0
   8   3  -6   51.04   26.72   0
   8   3  -3   16.22   27.47   0
   8   3  -2   28.44   22.09   0
   9   1   2  103.98   30.13   0
   9   2   0   51.44   23.08   0
   9   3  -6  228.69   26.01   0
   9   3  -5   44.83   25.11   0
   9   3  -4  359.54   27.53   0
   9   3  -3   56.80   24.84   0
  10   1   1   26.92   25.56   0
  10   2  -2   37.04   31.60   0
  10   2  -1   35.91   25.91   0
  -8 -12  -2    5.32   24.28   0
  -8 -11  -3  101.85   25.57   0
  -8 -11  -2   79.01   27.80   0
  -8 -10  -5   50.87   25.78   0
  -8 -10  -4  144.14   24.98   0
  -7 -12   1   35.62   26.71   0
  -7 -11   1   23.80   28.09   0
  -7 -10   0   22.09   21.87   0
  -7  -9  -1  182.38   21.48   0
  -7  -8 -11   90.79   26.83   0
  -7  -8  -3   74.72   20.44   0
  -6 -12   3   42.94   27.53   0
  -6 -11   3   89.06   30.88   0
  -6 -10   2  -23.65   21.26   0
  -6  -7  -1  122.23   20.86   0
  -6  -6 -10    4.74   22.56   0
  -6  -6  -3  715.40   27.20   0
  -5 -10   4   51.12   22.89   0
  -5  -8   3  432.17   30.25   0
  -5  -7   2  669.58   26.24   0
  -5  -5 -12   38.34   29.61   0
  -5  -5  -1  -27.94   28.33   0
  -5  -4  -7  759.96   35.54   0
  -5  -4  -6   71.73   28.67   0
  -5  -4  -5 1702.81   37.33   0
  -4  -9   5   29.71   23.92   0
  -4  -3  -9  154.86   30.28   0
  -3  -9   6  118.77   23.78   0
  -3  -7   5  232.31   22.35   0
  -3  -4   2 1075.45   29.28   0
  -2 -10   7   14.94   26.76   0
  -2  -9   7  421.62   36.01   0
  -1  -7   7  320.39   25.60   0
  -1  -4   5    0.09   20.60   0
  -1  -3   4   38.35   27.83   0
  -1  -1 -12   63.90   35.69   0
   0  -8   8   -2.70   31.00   0
   0  -4   6  453.04   32.35   0
   0  -3   5 1258.97   37.73   0
   0   0 -11    8.27   30.53   0
   2   2  -6 1123.79   30.59   0
   2   2  -5  445.62   25.29   0
   2   2  -4 1063.16   30.33   0
   3  -2   6   36.22   35.48   0
   3  -1   5  453.06   35.54   0
   3   2  -9  774.35   27.02   0
   3   2  -1 1779.02   36.33   0
   4  -3   7   90.38   32.71   0
   4   1 -13   41.75   26.74   0
   4   2 -10  -11.01   29.43   0
   4   2   0  741.92   26.71   0
   5  -3   7  180.27   33.82   0
   5   1   3  316.76   23.93   0
   5   2 -11  133.76   26.55   0
   5   2   1  468.06   25.68   0
   5   3  -6  809.63   26.84   0
   5   3  -5  989.50   28.01   0
   5   3  -4  338.36   24.67   0
   6   1   3  583.51   25.15   0
   6   2 -11  -14.16   24.42   0
   6   2   1  301.19   22.16   0
   6   3  -7  150.15   22.28   0
   6   3  -6  246.81   21.44   0
   6   3  -5  621.62   24.40   0
   6   3  -4  359.14   22.52   0
   6   3  -3  174.33   22.07   0
   7  -4   7   -2.29   26.79   0
   7  -2   6   94.24   21.91   0
   7   0   4  126.88   26.90   0
   7   1   3  166.56   21.37   0
   7   2 -10  244.56   32.11   0
   7   2   1   18.26   21.32   0
   7   3  -7   10.54   21.66   0
   7   3  -6   12.98   21.34   0
   7   3  -5  226.63   22.52   0
   7   3  -4   33.82   20.75   0
   7   3  -3   93.89   22.38   0
   8   1   2  187.01   28.41   0
   8   2   0  201.77   22.80   0
   8   3  -5   26.68   22.38   0
   8   3  -4   97.18   23.35   0
   9  -1   4   20.26   26.07   0
   9   0   3   37.03   25.91   0
   9   1   1  174.06   29.78   0
   9   2  -2  158.76   27.65   0
   9   2  -1  478.20   28.10   0
  10   1   0   41.09   26.16   0
  10   2  -3   67.41   27.81   0
  -8 -12  -1   11.42   24.31   0
  -8 -11  -1   56.44   30.82   0
  -8 -10  -3  -21.25   22.95   0
  -8  -9  -9   47.84   25.07   0
  -8  -9  -8   40.88   24.75   0
  -8  -9  -7  211.61   24.11   0
  -8  -9  -6   49.67   24.68   0
  -8  -9  -5  403.57   25.47   0
  -7 -12   2   12.76   26.63   0
  -7 -10   1   48.24   29.68   0
  -7  -9   0  210.63   29.88   0
  -7  -8  -2  101.98   21.74   0
  -7  -7  -9  127.87   31.23   0
  -7  -7  -8   64.50   23.61   0
  -7  -7  -7   73.66   24.63   0
  -7  -7  -6  173.82   22.64   0
  -7  -7  -5   81.29   20.32   0
  -7  -7  -4   82.00   25.49   0
  -6 -10   3  156.77   24.87   0
  -6  -9   2  115.27   22.10   0
  -6  -8   1  462.09   24.92   0
  -6  -7   0 1276.33   28.85   0
  -6  -6 -11   72.94   23.98   0
  -6  -6  -2  207.72   23.72   0
  -5 -11   5   16.19   30.76   0
  -5  -9   4   77.11   22.12   0
  -5  -6   1  959.02   29.09   0
  -5  -4  -9 1412.74   41.20   0
  -5  -4  -8   48.29   21.90   0
  -5  -4  -4   -5.17   20.86   0
  -4 -11   6   63.43   26.80   0
  -4  -8   5   -5.00   28.08   0
  -4  -7   4  120.01   21.66   0
  -4  -6   3  917.90   26.82   0
  -4  -5   2 1862.57   32.73   0
  -4  -4   0 1744.34   32.78   0
  -4  -3  -3 1099.27   30.48   0
  -3  -8   6  453.82   26.61   0
  -3  -2  -2 1189.27   37.77   0
  -2  -8   7   15.61   30.76   0
  -2  -5   5  204.24   22.70   0
  -2  -4   4 1161.33   31.34   0
  -2  -2   1   62.00   33.98   0
  -1 -10   8    5.11   26.01   0
  -1  -5   6   12.95   21.77   0
   0  -2   4 4646.56   79.16   0
   1   1  -9  543.71   27.97   0
   2   1 -11   18.81   21.85   0
   3   0 -14   23.03   26.28   0
   3   1 -12  230.84   25.18   0
   3   2  -8    4.26   18.84   0
   3   2  -2  411.15   23.87   0
   4   1 -12  151.81   31.10   0
   4   2  -9  317.83   28.80   0
   5   0   4  105.84   26.93   0
   5   2 -10  107.50   24.34   0
   5   2   0  542.84   24.71   0
   6  -2   6   99.34   30.67   0
   6   0   4  124.88   29.09   0
   6   2 -10  293.63   26.09   0
   6   2   0  486.67   30.24   0
   7  -1   5  108.81   21.93   0
   7   1   2   80.77   27.08   0
   7   2  -9   17.67   31.39   0
   7   2   0  328.76   24.54   0
   8  -2   5   38.01   31.14   0
   8   0   3  183.26   30.02   0
   8   2  -9   46.87   27.60   0
   8   2  -8   66.39   25.64   0
   8   2  -1  401.05   24.59   0
   9   0   2    9.24   30.65   0
   9   1   0  170.01   33.15   0
   9   2  -7   16.99   27.22   0
   9   2  -6   15.70   24.65   0
   9   2  -5  147.35   27.04   0
   9   2  -4   62.09   24.79   0
   9   2  -3  223.41   23.88   0
  10   0   1   36.40   25.94   0
  10   1  -2   29.58   26.84   0
  10   1  -1   -5.38   26.55   0
  -8 -12   0   21.04   24.10   0
  -8 -11   0  -43.50   32.79   0
  -8 -10  -2  301.73   23.33   0
  -8 -10  -1  -12.27   31.87   0
  -8  -9  -4   28.41   22.67   0
  -8  -9  -3  227.68   24.25   0
  -7 -11   2   22.22   23.72   0
  -7  -8  -1  393.71   23.47   0
  -7  -7 -10  245.16   27.63   0
  -7  -7  -3   -4.53   19.61   0
  -6 -12   4   10.72   26.05   0
  -6 -11   4  130.80   28.50   0
  -6  -9   3   14.55   26.95   0
  -6  -8   2  438.17   24.63   0
  -6  -7   1  179.71   27.65   0
  -6  -6 -12   14.99   29.29   0
  -6  -6  -1 1358.95   29.67   0
  -6  -5  -8  405.40   32.00   0
  -6  -5  -7    1.21   20.59   0
  -6  -5  -6  917.33   27.56   0
  -6  -5  -5   90.85   20.00   0
  -5 -10   5  108.26   26.05   0
  -5  -8   4   -2.03   27.66   0
  -5  -7   3  122.72   22.55   0
  -5  -5   0 1506.85   30.87   0
  -5  -4  -3  523.90   25.79   0
  -4 -10   6   57.78   27.85   0
  -4  -4 -13   27.79   39.86   0
  -4  -3 -10  643.72   39.30   0
  -4  -3  -2 1105.18   29.86   0
  -3 -10   7    1.63   25.59   0
  -3  -6   5   77.20   19.92   0
  -3  -5   4 2660.35   39.12   0
  -3  -3   1 1621.45   33.78   0
  -2  -6   6   11.68   21.36   0
  -2  -3   3 1629.44   35.39   0
  -2  -1  -2  309.07   30.22   0
  -1  -9   8   39.66   25.12   0
  -1  -6   7   41.30   31.07   0
  -1  -2 -14   96.81   38.35   0
  -1   0  -7   33.47   31.36   0
   0  -7   8  107.45   28.81   0
   0  -5   7  578.41   36.26   0
   0  -2 -15   79.57   33.68   0
   1  -6   8   27.34   31.20   0
   1  -3   6   10.90   26.02   0
   1   0 -12    1.00   21.52   0
   2   0 -13  215.51   27.22   0
   2   1 -10  589.00   34.08   0
   3   1 -11   20.35   29.10   0
   3   2  -7  431.57   22.72   0
   3   2  -6  417.13   32.59   0
   3   2  -3  966.23   28.36   0
   4  -1   5   56.28   26.73   0
   4   1   2 2476.09   40.83   0
   4   2  -8  218.61   22.34   0
   4   2  -1 3920.88   44.49   0
   5  -2   6   37.34   29.78   0
   5  -1   5   17.09   27.76   0
   5   1 -12   20.01   24.08   0
   5   1   2 2151.13   43.97   0
   5   2  -9   44.06   22.64   0
   5   2  -1 3057.50   43.68   0
   6  -4   7   -3.91   31.39   0
   6   1   2   63.45   20.23   0
   6   2  -9   11.25   22.55   0
   6   2  -8   55.11   28.68   0
   6   2  -1  658.03   32.92   0
   7  -3   6   13.81   27.61   0
   7   2  -8  114.25   25.79   0
   7   2  -7    7.10   28.85   0
   7   2  -2   13.66   29.60   0
   7   2  -1   52.99   21.73   0
   8  -1   4   78.48   27.13   0
   8   1   1  248.12   24.51   0
   8   2  -7   25.53   24.01   0
   8   2  -6   23.11   22.88   0
   8   2  -5  329.41   25.31   0
   8   2  -4   35.73   23.40   0
   8   2  -3  141.73   22.57   0
   8   2  -2  101.91   22.01   0
   9  -1   3  -13.23   26.70   0
   9   0   1  168.55   33.57   0
   9   1  -1   13.22   25.12   0
  -9 -11  -4   24.99   25.79   0
  -9 -11  -3   60.19   26.74   0
  -9 -10  -7    7.33   24.86   0
  -9 -10  -6   95.84   26.45   0
  -9 -10  -5   21.42   31.37   0
  -8 -11   1   43.76   28.70   0
  -8 -10   0  122.55   32.36   0
  -8  -9  -2   45.96   21.22   0
  -8  -8  -9   30.68   35.47   0
  -8  -8  -8   60.25   24.57   0
  -8  -8  -7   65.12   25.49   0
  -8  -8  -6  350.54   26.62   0
  -8  -8  -5  111.77   23.44   0
  -8  -8  -4  182.83   28.46   0
  -7 -11   3   12.43   30.21   0
  -7 -10   2   32.73   20.07   0
  -7  -9   1  135.95   22.94   0
  -7  -8   0  158.43   22.09   0
  -7  -7 -11   77.05   26.59   0
  -7  -7  -2  166.48   21.11   0
  -6 -10   4   34.72   22.80   0
  -6  -6   0  140.40   28.72   0
  -6  -5  -9    4.08   27.59   0
  -6  -5  -4 2543.76   36.39   0
  -6  -5  -3   45.64   28.62   0
  -5  -9   5   -2.03   21.41   0
  -5  -6   2  139.71   23.38   0
  -5  -5 -13   14.72   36.56   0
  -5  -4 -10   35.70   27.66   0
  -5  -4  -2   95.87   23.06   0
  -4  -9   6  185.42   24.88   0
  -4  -7   5  440.43   23.50   0
  -4  -6   4   80.73   23.23   0
  -4  -5   3   38.79   29.22   0
  -4  -4   1 1257.49   29.75   0
  -3  -9   7  268.09   28.00   0
  -3  -7   6   79.86   22.19   0
  -3  -4   3 5065.90   49.38   0
  -3  -2 -10   49.34   37.43   0
  -3  -2  -1 5944.96   63.75   0
  -2 -10   8   92.69   28.49   0
  -2  -7   7  619.57   26.99   0
  -1  -8   8  158.13   24.26   0
  -1  -2   3  442.21   28.32   0
  -1  -1   1 5332.67   82.65   0
   0  -1 -13   18.25   25.64   0
   0   0 -10 1294.93   45.19   0
   1  -2   5  413.01   41.21   0
   1  -1 -14  205.24   27.65   0
   1   1  -8  518.26   26.39   0
   1   1  -2   86.78   25.52   0
   2   1   0 1216.01   38.72   0
   3   0 -13   81.47   26.07   0
   3   1   1  826.71   32.07   0
   3   2  -5  788.18   27.82   0
   3   2  -4  318.60   23.35   0
   4  -2   6   20.89   21.34   0
   4   0 -13   16.19   37.58   0
   4   1 -11   -2.33   22.20   0
   4   2  -7  743.80   27.94   0
   4   2  -6  132.35   28.08   0
   4   2  -3 1043.02   34.89   0
   4   2  -2  504.07   24.89   0
   5   1 -11  137.87   24.74   0
   5   2  -8  277.68   25.92   0
   5   2  -7  246.11   22.74   0
   5   2  -2  967.20   27.53   0
   6   1 -11  202.66   26.97   0
   6   2  -7   -2.17   20.82   0
   6   2  -6  860.99   34.79   0
   6   2  -3  287.78   30.95   0
   6   2  -2  478.66   25.89   0
   7  -2   5   -0.46   27.88   0
   7  -1   4   55.61   26.62   0
   7   0   3  183.92   22.36   0
   7   1 -10   82.53   26.35   0
   7   1   1   21.45   19.98   0
   7   2  -6  306.93   24.69   0
   7   2  -5  108.48   22.41   0
   7   2  -4  143.48   23.61   0
   7   2  -3   -6.58   20.53   0
   8  -3   5   21.58   25.18   0
   8  -2   4    0.32   28.97   0
   8  -1   3   11.85   29.66   0
   8   0   2  216.00   26.03   0
   8   1  -8   37.25   36.35   0
   8   1  -1  104.35   24.63   0
   8   1   0  452.18   25.75   0
   9  -2   3   61.41   27.71   0
   9  -1   2  172.83   26.17   0
   9   0   0   15.13   29.86   0
   9   1  -6   27.85   24.16   0
   9   1  -5   -4.38   25.10   0
   9   1  -4  110.31   23.38   0
   9   1  -3   18.88   23.28   0
   9   1  -2  111.76   24.12   0
  -9 -11  -2   -1.00   24.85   0
  -9 -10  -4   56.09   25.10   0
  -9 -10  -3   22.25   29.65   0
  -8  -9  -1  317.08   23.65   0
  -8  -8 -10   60.66   27.13   0
  -8  -8  -3   16.53   20.61   0
  -7 -10   3  279.67   26.11   0
  -7  -9   2   85.19   23.57   0
  -7  -8   1   92.80   20.89   0
  -7  -7 -12   10.38   37.82   0
  -7  -7  -1  146.49   21.27   0
  -7  -6  -8   26.74   22.19   0
  -7  -6  -7    7.50   22.34   0
  -7  -6  -6   83.87   21.40   0
  -7  -6  -5  255.22   23.65   0
  -7  -6  -4  101.95   20.59   0
  -6 -11   5  -19.53   25.64   0
  -6  -9   4  255.03   23.71   0
  -6  -8   3  279.06   22.72   0
  -6  -7   2  271.64   22.13   0
  -6  -5 -10  262.30   32.97   0
  -6  -5  -2  529.82   24.57   0
  -5 -11   6  144.93   28.28   0
  -5 -10   6   44.95   32.27   0
  -5  -7   4  915.24   26.79   0
  -5  -6   3  494.74   29.82   0
  -5  -5   1   24.09   21.43   0
  -5  -4  -1   75.48   21.80   0
  -4 -10   7   47.13   37.70   0
  -4  -8   6   35.15   24.30   0
  -4  -3  -1   -1.36   20.01   0
  -3  -8   7  209.23   24.02   0
  -3  -3   2 1271.60   37.15   0
  -2  -9   8   -0.75   27.61   0
   1  -4   7   23.82   27.54   0
   1   0 -11   92.45   28.83   0
   1   1  -7  401.90   25.32   0
   2  -1 -14   82.40   32.22   0
   2   0 -12   26.66   24.03   0
   2   1  -9    9.24   21.98   0
   3   1 -10  531.24   26.65   0
   4   1 -10  238.52   29.98   0
   4   1   1  744.11   32.85   0
   4   2  -5  770.98   26.66   0
   4   2  -4 1923.11   34.07   0
   5   1 -10   36.95   23.69   0
   5   1   1  206.91   30.77   0
   5   2  -6  481.17   26.06   0
   5   2  -5  889.08   27.72   0
   5   2  -4  487.18   26.67   0
   5   2  -3  540.65   25.43   0
   6  -5   7    5.26   31.22   0
   6  -3   6    9.16   25.91   0
   6   0   3    8.53   19.56   0
   6   1 -10  -31.71   24.62   0
   6   1   1   69.42   20.46   0
   6   2  -5  323.54   23.67   0
   6   2  -4  263.03   23.42   0
   7  -4   6   -7.09   34.81   0
   7   0   2  183.73   30.28   0
   7   1  -9  162.08   26.42   0
   7   1  -8   21.12   31.21   0
   7   1   0  275.28   23.22   0
   8   0   1  101.11   23.63   0
   8   1  -7   67.49   24.88   0
   8   1  -6   80.54   26.02   0
   8   1  -5   39.76   29.48   0
   8   1  -4  108.83   30.93   0
   8   1  -3   40.00   23.02   0
   8   1  -2  235.87   23.46   0
   9  -2   2   -9.18   32.02   0
   9  -1   1    2.84   25.40   0
   9   0  -2   -3.53   33.27   0
   9   0  -1   14.68   25.71   0
  -9 -11  -1  164.40   26.87   0
  -9 -11   0    8.10   28.36   0
  -9 -10  -2  256.15   26.29   0
  -9  -9  -8   47.59   28.16   0
  -9  -9  -7  112.78   25.70   0
  -9  -9  -6   -7.88   24.66   0
  -9  -9  -5  218.76   25.78   0
  -9  -9  -4   18.58   35.50   0
  -8 -11   2   -4.09   25.78   0
  -8 -10   1   -1.24   24.07   0
  -8  -9   0   -4.72   21.95   0
  -8  -8  -2  100.62   21.18   0
  -8  -7  -7   85.74   31.19   0
  -8  -7  -6   26.44   31.52   0
  -8  -7  -5  182.85   28.93   0
  -7 -11   4   41.03   26.12   0
  -7  -9   3  100.86   26.34   0
  -7  -7   0  611.18   24.04   0
  -7  -6  -9  116.64   23.55   0
  -7  -6  -3  119.83   21.72   0
  -7  -6  -2  130.63   27.47   0
  -6 -10   5   72.70   25.68   0
  -6  -6 -13   15.02   33.14   0
  -6  -6   1  652.84   25.36   0
  -6  -5  -1  410.39   26.04   0
  -5  -9   6  130.90   35.23   0
  -5  -8   5  151.06   21.71   0
  -5  -5   2  194.72   31.64   0
  -5  -4 -11  125.17   30.58   0
  -4  -9   7   64.71   33.41   0
  -4  -6   5  605.70   30.67   0
  -4  -4   2  326.66   23.53   0
  -4  -3   0 1945.77   33.73   0
  -3 -10   8   74.29   27.84   0
  -3  -6   6   96.16   21.56   0
  -3  -5   5   44.41   20.80   0
  -3  -4   4  259.45   30.69   0
  -2  -8   8  240.65   31.30   0
  -2  -6   7   77.93   28.63   0
  -2  -5   6  129.36   22.08   0
  -2  -4   5  311.89   23.92   0
  -2  -2   2  663.48   29.55   0
  -2  -1  -1   10.21   24.73   0
  -1  -7   8   60.72   22.85   0
  -1  -4   6  215.42   22.23   0
  -1  -1 -11  422.21   38.16   0
   0  -9   9    6.65   26.98   0
   0  -6   8  189.19   25.83   0
   1  -8   9   40.38   33.40   0
   1  -1 -13   69.48   28.77   0
   1   1  -6  495.54   26.38   0
   1   1  -5 5385.14   66.16   0
   1   1  -4 4488.49   64.90   0
   1   1  -3 7378.77   83.03   0
   2  -5   8   45.04   42.51   0
   2   1  -8 1190.27   35.78   0
   3  -1 -14   44.57   25.78   0
   3   0 -12   10.18   25.71   0
   3   1  -9  217.07   22.57   0
   4   0 -12  113.06   25.41   0
   4   0   3 2442.06   44.11   0
   4   1  -9  101.48   30.25   0
   5  -4   7   13.58   28.43   0
   5   0 -12   84.78   27.08   0
   5   0   3 1643.85   35.24   0
   5   1  -9  104.39   23.85   0
   6  -1   4   13.61   21.92   0
   6   0 -11  -10.29   25.68   0
   6   1  -9   69.23   24.43   0
   6   1  -8   48.65   26.74   0
   6   1   0  172.18   23.06   0
   7  -3   5   47.45   32.03   0
   7  -1   3  257.98   31.28   0
   7   0 -10   13.81   27.02   0
   7   1  -7  303.62   24.52   0
   7   1  -6  212.50   31.50   0
   7   1  -2   52.24   22.74   0
   7   1  -1  316.56   23.89   0
   8  -3   4   19.81   32.24   0
   8  -2   3   21.35   33.84   0
   8  -1   2   82.76   23.08   0
   8   0  -8   66.16   32.82   0
   8   0   0  141.29   22.18   0
   9  -1   0  152.36   25.86   0
   9   0  -6  -26.30   25.14   0
   9   0  -5   29.98   25.04   0
   9   0  -4   -5.71   24.20   0
   9   0  -3   82.23   25.51   0
  -9 -11   1   58.82   28.97   0
  -9 -10  -1   -0.05   22.13   0
  -9  -9  -3  214.04   25.84   0
  -9  -9  -2   -0.82   29.50   0
  -8 -11   3   86.44   27.36   0
  -8 -10   2  141.42   23.89   0
  -8  -9   1   36.13   21.87   0
  -8  -8  -1   40.94   21.77   0
  -8  -8   0   23.47   26.71   0
  -8  -7  -9  171.24   31.32   0
  -8  -7  -8  103.54   25.67   0
  -8  -7  -4   30.42   22.13   0
  -8  -7  -3   -1.66   20.66   0
  -7 -10   4   44.18   25.14   0
  -7  -8   2   56.33   21.52   0
  -7  -7   1  144.88   23.18   0
  -7  -6 -10  171.23   27.22   0
  -7  -6  -1  345.36   28.76   0
  -6  -9   5   43.53   23.69   0
  -6  -8   4   90.36   20.50   0
  -6  -7   3  250.78   25.18   0
  -6  -6   2   97.71   27.76   0
  -6  -5 -11   -3.08   29.81   0
  -6  -5   0  484.24   33.78   0
  -6  -4  -6   69.98   27.44   0
  -6  -4  -5  740.16   33.52   0
  -5  -7   5    7.73   28.80   0
  -5  -6   4   49.06   28.32   0
  -5  -4   0   83.05   21.71   0
  -5  -3  -6   12.42   28.04   0
  -5  -3  -5  260.16   22.10   0
  -5  -3  -4  348.86   31.56   0
  -4  -7   6  283.01   24.27   0
  -4  -5   4  761.87   25.93   0
  -3  -9   8   30.37   25.17   0
  -3  -7   7  134.33   23.25   0
  -3  -2   0  243.59   25.85   0
  -2  -3   4  511.80   26.50   0
  -2  -2 -12  133.13   39.95   0
  -1  -9   9   18.99   39.42   0
  -1  -5   7  461.43   28.47   0
  -1  -3 -15  109.20   38.70   0
  -1  -3   5  271.74   23.44   0
  -1   0  -6 1132.85   57.83   0
   0  -8   9   16.99   32.98   0
   0  -2 -14  101.66   32.86   0
   0  -1 -12   32.54   32.10   0
   0   0  -9    1.22   30.64   0
   2  -1 -13   18.22   28.65   0
   2   0 -11  175.98   22.41   0
   2   1  -7  268.32   30.15   0
   2   1  -1 3450.37   54.73   0
   3   1  -8  617.86   30.49   0
   3   1   0 2337.13   42.79   0
   4  -1 -13  111.51   32.05   0
   4   0 -11  304.62   29.75   0
   4   1  -8  213.78   28.34   0
   4   1   0  826.36   28.43   0
   5  -1   4  276.37   30.67   0
   5   0 -11   40.24   23.48   0
   5   1  -8   -9.50   20.42   0
   5   1   0 1843.52   34.92   0
   6   0 -10   12.63   24.81   0
   6   0   2  172.37   21.01   0
   6   1  -7  695.71   26.41   0
   6   1  -6   13.47   28.58   0
   6   1  -2  145.49   31.28   0
   6   1  -1  932.51   29.77   0
   7  -2   4  148.14   23.12   0
   7   0  -9   31.47   25.41   0
   7   0   1   27.21   21.79   0
   7   1  -5  690.97   26.87   0
   7   1  -4   57.21   22.72   0
   7   1  -3  202.32   23.87   0
   8  -1   1   99.29   25.68   0
   8   0  -7   66.68   23.88   0
   8   0  -6   47.98   23.95   0
   8   0  -5   38.52   32.63   0
   8   0  -4  104.76   28.55   0
   8   0  -3  -15.52   31.48   0
   8   0  -2   85.00   21.66   0
   8   0  -1  103.22   23.83   0
   9  -2   0   16.42   35.75   0
   9  -2   1  107.25   26.61   0
   9  -1  -5  -11.79   33.38   0
   9  -1  -4   11.21   33.07   0
   9  -1  -3   16.55   32.28   0
   9  -1  -2   62.71   25.85   0
   9  -1  -1   31.03   28.31   0
  -9 -10   0   48.72   25.91   0
  -9  -9  -1  210.83   24.42   0
  -9  -8  -8   -3.01   35.62   0
  -9  -8  -7    3.96   25.05   0
  -9  -8  -6  203.99   25.86   0
  -9  -8  -5   15.31   23.51   0
  -9  -8  -4   47.10   32.67   0
  -8 -10   3   37.77   25.15   0
  -8  -9   2   -8.60   24.33   0
  -8  -7 -10   -8.45   30.12   0
  -8  -7  -2    5.08   19.39   0
  -7 -11   5   -1.26   25.40   0
  -7 -10   5   63.43   31.88   0
  -7  -9   4  319.11   26.24   0
  -7  -8   3  125.32   23.42   0
  -7  -7   2   83.33   27.12   0
  -7  -6 -11  -17.07   31.59   0
  -7  -6   0  864.32   33.68   0
  -7  -5  -6   47.48   27.67   0
  -7  -5  -5  548.25   29.29   0
  -7  -5  -4  300.30   27.22   0
  -6 -10   6   29.56   25.68   0
  -6  -8   5  330.38   29.18   0
  -6  -7   4  308.96   29.01   0
  -6  -4  -7  482.20   26.60   0
  -6  -4  -4  732.18   26.50   0
  -6  -4  -3  159.60   22.26   0
  -5 -10   7   53.05   25.54   0
  -5  -8   6   12.33   22.98   0
  -5  -5   3   -5.83   22.55   0
  -5  -4   1 1028.90   27.83   0
  -5  -3  -7  105.62   24.01   0
  -5  -3  -3  517.22   26.61   0
  -4 -10   8   21.99   26.78   0
  -4  -8   7  267.21   25.63   0
  -4  -4   3 1728.50   33.17   0
  -4  -3 -11   -1.61   31.06   0
  -4  -3   1 1502.77   31.85   0
  -4  -2  -6    8.93   19.29   0
  -4  -2  -5  362.63   26.05   0
  -4  -2  -4  474.95   27.55   0
  -3  -8   8  146.02   31.66   0
  -3  -3   3  111.12   21.88   0
  -2  -7   8    4.22   21.83   0
  -2  -3 -14   -1.03   36.15   0
  -1  -6   8  452.28   37.38   0
  -1  -2 -13   71.68   33.99   0
   1  -5   8  167.03   32.37   0
   1   0 -10  122.13   24.08   0
   2   1  -6  240.14   29.62   0
   2   1  -2  356.88   27.22   0
   3  -1 -13   26.65   24.84   0
   3   0 -11  326.51   24.26   0
   3   1  -7   59.79   20.58   0
   3   1  -1   48.97   22.75   0
   4  -6   8    4.31   35.66   0
   4   1  -7   10.07   22.57   0
   4   1  -1  604.62   31.96   0
   5  -3   6   13.28   23.03   0
   5  -2   5  109.19   28.82   0
   5  -1 -12   22.78   31.86   0
   5   0 -10  184.41   24.69   0
   5   0   2  257.35   24.68   0
   5   1  -7  377.47   23.58   0
   5   1  -6  304.71   24.84   0
   5   1  -2 2312.93   41.80   0
   5   1  -1  383.57   24.65   0
   6  -4   6   12.13   28.74   0
   6  -1 -11  130.39   31.60   0
   6  -1   3  347.83   22.18   0
   6   0  -9   23.48   22.90   0
   6   0   1   -2.17   21.57   0
   6   1  -5 1026.13   28.29   0
   6   1  -4   29.19   22.16   0
   6   1  -3  365.01   24.37   0
   7  -4   5   -8.16   31.36   0
   7  -1   2    7.85   23.00   0
   7   0  -8   56.00   25.48   0
   7   0  -7   16.83   22.14   0
   7   0  -1  301.34   30.43   0
   7   0   0  344.12   22.53   0
   8  -3   3  -15.68   25.92   0
   8  -2   2    8.08   24.58   0
   8  -1   0    4.23   23.19   0
   9  -2  -2   39.80   36.30   0
   9  -2  -1  -10.22   26.26   0
  -9 -10   1    1.81   23.02   0
  -9  -9   0   -2.47   22.48   0
  -9  -8  -3   -7.39   22.64   0
  -9  -8  -2  193.91   28.40   0
  -8  -9   3   55.36   31.36   0
  -8  -8   1   21.46   22.10   0
  -8  -7  -1  201.04   21.88   0
  -8  -7   0   13.62   27.31   0
  -8  -6  -6  147.66   32.66   0
  -8  -6  -5   29.29   29.40   0
  -8  -6  -4  138.92   28.43   0
  -7  -6   1  211.83   28.28   0
  -7  -5  -8   22.88   28.28   0
  -7  -5  -7   -2.44   20.84   0
  -7  -5  -3  529.82   23.90   0
  -7  -5  -2  139.81   27.99   0
  -6  -9   6   48.99   24.63   0
  -6  -6   3  162.91   21.24   0
  -6  -5   1  320.32   23.71   0
  -6  -4  -8   25.83   22.82   0
  -6  -4  -2  272.03   22.16   0
  -5  -9   7   23.33   24.86   0
  -5  -3  -8  999.99   35.07   0
  -5  -3  -2   24.76   22.07   0
  -4  -9   8   14.04   31.08   0
  -4  -6   6   48.43   20.28   0
  -4  -5   5  245.81   28.60   0
  -4  -2  -7  412.15   33.56   0
  -4  -2  -3 2942.27   43.38   0
  -4  -2  -2  -10.19   28.67   0
  -3  -6   7  721.37   34.49   0
  -3  -5   6  566.28   25.20   0
  -3  -2   1 1682.11   36.04   0
  -2  -9   9   20.85   27.27   0
  -2  -1   0 1117.23   37.87   0
  -1  -8   9   12.46   25.00   0
  -1  -2   4 7101.56   79.20   0
   0  -7   9   36.40   32.87   0
   0  -4   7   42.48   22.61   0
   0  -3   6  149.14   22.24   0
   1  -7   9    5.65   30.81   0
   1  -2 -14   -8.39   24.88   0
   1  -1 -12   -0.02   26.90   0
   2  -2 -14   12.31   31.49   0
   2  -1   4 1023.03   52.25   0
   2   0 -10   75.52   22.00   0
   2   1  -5  255.31   24.29   0
   2   1  -4 2045.79   37.55   0
   2   1  -3  914.74   30.32   0
   3  -1   4 1613.06   47.95   0
   3   0 -10   44.57   22.02   0
   3   0   2  535.03   34.76   0
   3   1  -6  699.90   27.65   0
   3   1  -5   32.08   29.43   0
   3   1  -2 1452.35   33.13   0
   4  -4   7   85.80   31.74   0
   4  -1 -12   53.87   27.00   0
   4   0 -10   48.65   24.15   0
   4   0   2  187.71   24.70   0
   4   1  -6 1182.77   30.53   0
   4   1  -5   42.56   21.48   0
   4   1  -4  504.32   30.87   0
   4   1  -3  783.63   34.94   0
   4   1  -2 2085.62   35.26   0
   5  -5   7   81.03   34.53   0
   5   0  -9   -1.37   21.37   0
   5   1  -5  438.25   25.66   0
   5   1  -4  356.06   25.83   0
   5   1  -3  570.89   26.48   0
   6  -2   4  363.65   24.98   0
   6  -1 -10   -9.99   32.24   0
   6   0  -8  159.95   22.60   0
   6   0   0  599.34   32.35   0
   7  -3   4    1.43   23.76   0
   7  -2   3   21.86   22.41   0
   7  -1  -9   27.96   27.53   0
   7  -1   1  511.51   25.03   0
   7   0  -6  592.18   27.74   0
   7   0  -5   33.58   21.45   0
   7   0  -4  644.02   26.18   0
   7   0  -3   18.22   22.22   0
   7   0  -2  734.88   27.64   0
   8  -4   3   35.33   26.90   0
   8  -3   2   33.57   31.29   0
   8  -2   1   18.18   24.24   0
   8  -1  -7   36.27   25.69   0
   8  -1  -6  168.45   26.91   0
   8  -1  -5   26.41   24.61   0
   8  -1  -4  -13.17   23.36   0
   8  -1  -3   38.66   21.52   0
   8  -1  -2   39.64   24.03   0
   8  -1  -1   36.23   23.20   0
   9  -2  -3   95.19   28.65   0
 -10  -9  -5    2.23   26.83   0
 -10  -9  -4   24.39   23.89   0
 -10  -9  -3   -1.77   32.00   0
  -9 -10   2   22.68   25.02   0
  -9  -9   1   19.58   24.25   0
  -9  -8  -1   21.21   21.15   0
  -9  -7  -6   26.98   30.58   0
  -9  -7  -5  236.25   30.69   0
  -8 -10   4   24.74   27.33   0
  -8  -8   2  -30.11   21.78   0
  -8  -7   1   86.08   27.14   0
  -8  -6  -8  126.60   26.28   0
  -8  -6  -7    0.86   23.28   0
  -8  -6  -3  -16.20   22.64   0
  -8  -6  -2   38.43   28.92   0
  -7 -10   6  -10.14   32.71   0
  -7  -9   5   12.11   25.16   0
  -7  -8   4   58.13   23.04   0
  -7  -7   3  276.02   23.26   0
  -7  -6 -12   10.27   37.01   0
  -7  -5  -9  138.69   27.93   0
  -7  -5  -1  942.00   27.63   0
  -6 -10   7   32.57   26.03   0
  -6  -8   6  108.27   29.27   0
  -6  -7   5  105.47   27.39   0
  -6  -5 -12   42.16   31.71   0
  -6  -5   2    6.81   21.68   0
  -6  -4  -9  622.90   32.04   0
  -6  -4  -1   -2.49   21.70   0
  -5 -10   8   22.47   34.15   0
  -5  -8   7  201.32   30.36   0
  -5  -7   6  374.99   25.02   0
  -5  -6   5  672.17   26.00   0
  -5  -5   4  520.54   26.27   0
  -5  -4   2   43.56   21.64   0
  -5  -3  -1  452.34   24.58   0
  -4  -7   7    1.65   23.33   0
  -4  -4   4   30.14   22.23   0
  -4  -3   2 2073.74   35.27   0
  -3  -9   9   38.72   31.38   0
  -3  -7   8  240.07   33.85   0
  -3  -4   5  650.22   27.51   0
  -2  -8   9   -7.72   33.76   0
  -2  -5   7  221.75   25.13   0
  -2  -4   6  185.54   22.30   0
  -2  -2   3  851.04   31.34   0
  -1  -1   2  108.13   35.96   0
  -1   0  -5  979.85   62.54   0
   0  -5   8  264.73   33.12   0
   0  -1 -11  383.47   32.59   0
   0  -1   3 8722.07  130.69   0
   0   0  -8  375.25   27.12   0
   1   0  -9 1522.94   36.53   0
   2  -1 -12   27.14   23.56   0
   3  -1 -12  200.44   25.10   0
   3   1  -4 1020.22   29.38   0
   3   1  -3   37.70   21.47   0
   4  -3   6  104.05   28.69   0
   4  -2 -13   -5.25   26.82   0
   4  -2   5  185.10   32.82   0
   4   0  -9   40.66   22.58   0
   5  -2 -12  121.55   34.11   0
   5  -1 -11  272.83   26.94   0
   5  -1   3  499.92   24.90   0
   5   0  -8  169.39   21.08   0
   5   0   1  847.82   29.43   0
   6  -5   6    1.90   25.65   0
   6  -1  -9   85.16   33.57   0
   6  -1   2   66.83   21.18   0
   6   0  -7    2.76   21.86   0
   6   0  -6  906.71   29.20   0
   6   0  -5  -16.56   28.39   0
   6   0  -2 1711.03   37.55   0
   6   0  -1  -20.44   23.14   0
   7  -4   4   36.37   35.03   0
   7  -2   2  141.38   24.73   0
   7  -1  -8    4.31   24.89   0
   7  -1  -7   18.24   25.42   0
   7  -1   0    6.60   21.14   0
   8  -4   2   -0.20   33.13   0
   8  -3   1  -10.84   29.41   0
   8  -2  -7   45.19   27.08   0
   8  -2  -6   31.00   33.89   0
   8  -2  -1  -20.26   22.97   0
   8  -2   0   24.35   25.32   0
 -10  -9  -2   63.78   27.14   0
 -10  -9  -1   57.70   36.02   0
  -9 -10   3   -7.31   24.95   0
  -9  -9   2   25.62   23.02   0
  -9  -8   0   57.01   22.92   0
  -9  -7  -8   24.51   30.77   0
  -9  -7  -7  152.00   28.20   0
  -9  -7  -4   42.03   24.07   0
  -9  -7  -3  124.60   23.63   0
  -9  -7  -2   -8.95   30.40   0
  -8 -10   5   17.12   26.56   0
  -8  -9   4   47.93   24.44   0
  -8  -8   3    2.92   21.02   0
  -8  -6  -9   14.46   24.83   0
  -8  -6  -1   -1.65   21.23   0
  -7  -8   5  143.80   25.04   0
  -7  -7   4   90.20   30.62   0
  -7  -6   2  378.75   23.46   0
  -7  -5   0   32.84   20.46   0
  -6  -9   7  115.80   26.64   0
  -6  -6   4   81.19   21.14   0
  -6  -4   0 1080.62   29.89   0
  -5  -9   8   19.76   36.48   0
  -5  -4 -12   -3.93   34.88   0
  -5  -3  -9   -4.67   28.17   0
  -5  -3   0 1129.49   28.94   0
  -4  -8   8   83.53   24.46   0
  -4  -2  -8  100.35   31.45   0
  -4  -2  -1 2272.66   37.50   0
  -3  -3   4 2224.23   36.85   0
  -3  -2   2  397.96   32.06   0
  -3  -1  -5  194.58   30.78   0
  -3  -1  -4 1159.86   37.57   0
  -3  -1  -3 1228.68   40.86   0
  -2  -6   8  315.43   26.27   0
  -2  -3   5 1013.57   31.53   0
  -1  -7   9   67.55   23.42   0
  -1  -4   7   17.25   31.11   0
  -1  -1 -10  139.36   31.34   0
   0  -2 -13   81.31   21.84   0
   1  -2 -13   16.53   29.45   0
   2  -2 -13   23.05   30.27   0
   2   0  -9 1926.90   36.51   0
   3  -2 -13   47.09   27.17   0
   3  -1 -11   -1.95   29.11   0
   3   0  -9  428.43   24.80   0
   4  -1 -11  211.06   25.91   0
   4   0  -8   36.55   20.27   0
   4   0   1 1292.72   33.11   0
   5  -6   7   -4.95   30.60   0
   5  -4   6  193.01   33.63   0
   5  -2   4  251.67   32.99   0
   5  -1 -10   27.90   23.78   0
   5   0  -7   11.21   20.21   0
   5   0  -6  577.75   31.82   0
   5   0   0  657.67   28.36   0
   6  -4   5    5.96   27.31   0
   6  -3   4   15.79   27.24   0
   6  -2 -10  -38.36   35.51   0
   6  -2   3   -2.65   20.88   0
   6  -1  -8   46.51   21.63   0
   6  -1   1  219.36   23.19   0
   6   0  -4  367.38   23.67   0
   6   0  -3   -0.05   21.64   0
   7  -3   3   38.37   25.35   0
   7  -2  -9   54.50   27.60   0
   7  -2  -8   19.08   30.48   0
   7  -2   1   11.31   29.57   0
   7  -1  -6  128.06   24.17   0
   7  -1  -5  313.44   25.95   0
   7  -1  -4   -8.65   21.32   0
   7  -1  -3  283.77   24.52   0
   7  -1  -2   87.13   22.39   0
   7  -1  -1  676.83   26.24   0
   8  -4   1  111.82   33.42   0
   8  -3   0  101.61   24.15   0
   8  -2  -5  151.65   24.57   0
   8  -2  -4   34.41   24.03   0
   8  -2  -3  114.10   25.91   0
   8  -2  -2   29.34   25.18   0
 -10  -9   0    6.18   25.63   0
 -10  -8  -6  -30.66   24.85   0
 -10  -8  -5   48.68   25.06   0
 -10  -8  -4   52.05   25.46   0
 -10  -8  -3   12.99   31.34   0
  -9  -9   3   10.86   24.14   0
  -9  -8   1   -1.21   23.36   0
  -9  -7  -9   70.53   27.49   0
  -9  -7  -1   32.99   23.86   0
  -8  -9   5   31.48   30.71   0
  -8  -8   4   61.53   30.33   0
  -8  -7   2  -10.09   22.79   0
  -8  -6 -10  166.13   33.09   0
  -8  -6   0  564.07   25.66   0
  -7  -9   6   -6.22   27.10   0
  -7  -6   3    5.60   21.88   0
  -7  -5 -10   14.74   22.74   0
  -7  -5   1  838.96   27.24   0
  -7  -4  -5   99.00   28.81   0
  -7  -4  -4  995.21   32.84   0
  -6  -7   6   39.55   28.17   0
  -6  -6   5  172.79   27.48   0
  -6  -5   3  106.12   22.03   0
  -6  -4 -10    2.40   26.73   0
  -6  -4   1   51.64   23.47   0
  -5  -7   7   38.37   24.99   0
  -5  -6   6   21.25   21.35   0
  -5  -5   5  269.69   29.94   0
  -5  -4   3  112.30   22.09   0
  -5  -3   1  412.76   30.10   0
  -4  -9   9   12.70   33.45   0
  -4  -7   8  257.93   30.82   0
  -4  -6   7  838.09   28.33   0
  -4  -5   6  565.16   25.50   0
  -4  -3   3  656.92   26.24   0
  -4  -2   0  736.21   27.30   0
  -3  -8   9   13.16   25.98   0
  -3  -5   7   62.60   27.76   0
  -3  -1  -2 1049.20   33.40   0
  -2  -7   9   -3.26   29.41   0
  -2  -4 -15   -3.57   31.58   0
  -2  -1   1 3335.95   53.52   0
  -1  -5   8   -1.92   29.17   0
  -1  -3 -14    5.39   24.41   0
  -1  -3   6   19.77   29.00   0
   0  -2   5   67.12   22.01   0
   0   0  -7   -6.83   25.65   0
   1  -1 -11   77.60   22.64   0
   1   0  -8   74.64   20.06   0
   2  -3 -14   92.52   32.65   0
   2  -1 -11   27.25   23.01   0
   2   0  -8    6.11   19.83   0
   3   0  -8   59.57   21.08   0
   3   0   1  535.88   26.89   0
   4  -7   8   -1.05   25.06   0
   4  -2 -12  148.89   26.83   0
   4  -1 -10   53.03   23.64   0
   4  -1   3  219.23   23.85   0
   4   0  -7  707.11   28.15   0
   4   0   0  417.69   33.18   0
   5  -2 -11   11.60   24.57   0
   5  -1  -9   67.08   24.53   0
   5  -1   2  662.69   26.87   0
   5   0  -5    2.88   22.57   0
   5   0  -4  360.03   26.64   0
   5   0  -3  137.83   32.49   0
   5   0  -2 1395.30   30.96   0
   5   0  -1 1789.09   33.72   0
   6  -2  -9  -27.27   33.46   0
   6  -1  -7  444.20   26.98   0
   6  -1  -6   32.76   27.90   0
   6  -1   0   86.50   22.55   0
   7  -5   4   83.42   27.71   0
   7  -4   3   43.29   26.28   0
   7  -3   2    4.18   22.43   0
   7  -2  -7  139.18   26.02   0
   7  -2  -6  -42.42   32.50   0
   7  -2   0  400.35   27.26   0
   8  -4   0   -7.10   25.67   0
   8  -3  -5   13.13   26.12   0
   8  -3  -4  164.47   29.53   0
   8  -3  -3   10.12   25.82   0
   8  -3  -2  172.77   28.00   0
   8  -3  -1  -12.07   26.79   0
 -10  -9   1    1.57   24.49   0
 -10  -8  -2   24.43   25.63   0
 -10  -8  -1   68.70   26.99   0
  -9  -9   4   35.59   30.18   0
  -9  -8   2   -1.47   24.58   0
  -9  -7   0  157.06   21.56   0
  -9  -6  -6  181.98   30.79   0
  -9  -6  -5  203.76   32.29   0
  -9  -6  -4  162.12   33.22   0
  -8  -7   3  184.52   23.75   0
  -8  -6   1    7.65   21.09   0
  -8  -5  -7   32.02   32.11   0
  -8  -5  -6   13.49   22.25   0
  -8  -5  -5  208.35   25.70   0
  -8  -5  -4   11.24   22.61   0
  -8  -5  -3  287.00   25.38   0
  -8  -5  -2   24.51   27.07   0
  -7  -9   7  118.04   31.49   0
  -7  -8   6   69.02   24.95   0
  -7  -7   5  252.83   23.29   0
  -7  -5   2    7.53   29.36   0
  -7  -4  -7  102.58   28.27   0
  -7  -4  -6  179.16   23.72   0
  -7  -4  -3   86.54   20.14   0
  -7  -4  -2  747.02   26.71   0
  -6  -9   8   66.28   36.93   0
  -6  -8   7   42.92   24.89   0
  -6  -5   4  203.08   27.77   0
  -6  -4   2  336.64   30.27   0
  -6  -3  -6   62.45   29.64   0
  -6  -3  -5  575.39   26.11   0
  -6  -3  -4   19.35   19.64   0
  -6  -3  -3  742.15   26.15   0
  -6  -3  -2   29.83   26.84   0
  -5  -8   8   19.80   25.70   0
  -5  -4   4  120.47   31.79   0
  -4  -4   5  664.77   25.58   0
  -3  -6   8   -3.19   21.57   0
  -3  -4   6  153.09   22.57   0
  -3  -1  -6  929.50   44.41   0
  -3  -1  -1  743.63   35.51   0
  -2  -2   4 1109.33   37.00   0
  -1  -2 -12   40.41   24.41   0
   0  -6   9   81.61   30.56   0
   0  -3 -14  120.49   25.98   0
   0  -1 -10  216.95   32.08   0
   1  -3 -14  145.89   26.91   0
   2   0   1  502.77   33.05   0
   3  -4   7  197.95   36.79   0
   3  -2 -12   53.65   24.97   0
   3  -2   5  490.61   29.83   0
   3  -1 -10  295.62   25.43   0
   3   0  -7 1380.34   29.96   0
   4  -5   7  115.89   30.02   0
   4  -2 -11   41.65   24.77   0
   4  -1  -9  250.14   22.92   0
   4   0  -6    3.06   23.42   0
   4   0  -5  591.01   34.83   0
   4   0  -1 3362.95   47.60   0
   5  -2 -10  117.27   23.76   0
   5  -1  -8    2.53   20.50   0
   5  -1   1  260.91   29.35   0
   6  -5   5   -6.48   25.78   0
   6  -4   4  149.81   30.92   0
   6  -3 -10   11.41   27.35   0
   6  -3   3  597.02   34.75   0
   6  -2  -8   27.36   21.64   0
   6  -2   2 1131.21   29.62   0
   6  -1  -5  344.75   25.91   0
   6  -1  -4  -12.55   21.40   0
   6  -1  -3  399.21   24.93   0
   6  -1  -2   19.16   21.80   0
   6  -1  -1 1330.95   31.50   0
   7  -5   3   13.40   31.84   0
   7  -4   2  -18.99   33.35   0
   7  -3  -8   39.77   27.09   0
   7  -3  -7   24.03   34.24   0
   7  -3   1   22.80   24.71   0
   7  -2  -5   25.97   23.55   0
   7  -2  -4   56.40   24.36   0
   7  -2  -3   59.02   24.00   0
   7  -2  -2  247.18   21.70   0
   7  -2  -1   30.69   21.99   0
   8  -4  -3   41.69   29.08   0
   8  -4  -2   34.23   27.01   0
   8  -4  -1   62.96   28.39   0
 -10  -8   0  123.15   25.99   0
 -10  -7  -6    8.70   35.09   0
 -10  -7  -5   94.58   31.23   0
 -10  -7  -4   66.82   30.90   0
 -10  -7  -3  131.53   32.44   0
  -9  -8   3   71.85   22.49   0
  -9  -7   1   87.72   22.21   0
  -9  -6  -7   17.88   24.62   0
  -9  -6  -3   10.28   21.88   0
  -9  -6  -2  194.59   24.05   0
  -9  -6  -1   63.07   28.45   0
  -8  -9   6   27.72   26.32   0
  -8  -8   5  -23.24   23.72   0
  -8  -7   4   -1.80   21.15   0
  -8  -6 -11   29.21   27.35   0
  -8  -6   2  280.63   23.15   0
  -8  -5  -8    0.80   28.56   0
  -8  -5  -1  615.53   26.31   0
  -7  -6   4  625.85   25.36   0
  -7  -5 -11   28.83   29.16   0
  -7  -4  -8  116.83   31.67   0
  -7  -4  -1    4.08   22.64   0
  -7  -4   0 1510.34   37.44   0
  -6  -7   7   52.48   33.57   0
  -6  -6   6   50.64   30.84   0
  -6  -3  -7  194.09   24.23   0
  -6  -3  -1  389.65   24.59   0
  -5  -9   9   28.67   27.08   0
  -5  -7   8  194.66   28.51   0
  -5  -6   7  152.57   23.90   0
  -5  -5   6  382.72   28.64   0
  -5  -3 -10  390.50   40.90   0
  -5  -3   2 1238.00   29.24   0
  -5  -2  -5   88.61   26.69   0
  -5  -2  -4  446.64   25.47   0
  -5  -2  -3 1289.64   31.79   0
  -5  -2  -2  688.69   35.42   0
  -4  -8   9    1.00   24.82   0
  -4  -3   4 1365.27   38.07   0
  -4  -2   1 3920.10   44.45   0
  -3  -7   9   15.81   25.30   0
  -3  -4 -14   26.13   39.62   0
  -3  -3   5  404.76   26.92   0
  -3  -2   3  937.13   29.18   0
  -2  -5   8  185.72   24.59   0
  -2  -4   7  181.96   25.55   0
  -2  -3 -13   -5.10   32.78   0
  -1  -8  10   11.97   35.00   0
  -1  -6   9   20.37   24.02   0
  -1   0  -2 3460.07  119.87   0
   0  -8  10    9.16   35.65   0
   0  -2 -12   27.38   22.72   0
   0   0  -6  855.81   38.89   0
   1  -6   9   38.60   40.67   0
   1  -2 -12   67.97   23.92   0
   1  -1 -10 1010.76   31.57   0
   1   0  -7   53.00   21.50   0
   2  -2 -12   40.34   24.97   0
   2  -1 -10  592.35   26.79   0
   2   0  -7 1130.74   30.83   0
   3  -3 -13   40.41   25.90   0
   3  -3   6  416.63   37.90   0
   3  -2 -11  207.92   33.66   0
   3  -1  -9  310.40   30.86   0
   3   0  -6   71.25   23.97   0
   3   0   0 1176.49   34.07   0
   4  -3 -12   68.37   26.42   0
   4  -2 -10  364.62   30.33   0
   4  -1  -8   23.55   20.45   0
   4  -1   2 2248.33   45.89   0
   4   0  -4  289.93   25.17   0
   4   0  -3 1513.50   32.43   0
   4   0  -2   45.53   22.90   0
   5  -5   6    2.86   23.12   0
   5  -3 -11  157.04   28.20   0
   5  -2  -9   55.44   24.39   0
   5  -2   3  113.05   24.23   0
   5  -1  -7  470.00   26.81   0
   5  -1  -6   -5.70   21.76   0
   5  -1   0   12.83   29.85   0
   6  -6   5   30.46   26.86   0
   6  -3  -9   14.93   26.29   0
   6  -2  -7   81.99   23.53   0
   6  -2  -6  242.75   29.16   0
   6  -2   1   30.79   21.00   0
   7  -5   2  217.53   37.97   0
   7  -4  -7   53.85   32.44   0
   7  -4   1   57.22   31.00   0
   7  -3  -6  158.83   26.84   0
   7  -3  -5   14.29   25.78   0
   7  -3  -4  154.53   30.13   0
   7  -3  -3   32.14   29.98   0
   7  -3  -2  199.73   34.68   0
   7  -3  -1   43.88   23.61   0
   7  -3   0   27.82   22.64   0
 -10  -8   1   46.48   24.92   0
 -10  -8   2   43.26   29.05   0
 -10  -7  -7   49.57   27.91   0
 -10  -7  -2  137.91   27.20   0
 -10  -7  -1   41.37   30.21   0
  -9  -8   4   50.95   24.07   0
  -9  -7   2   -8.57   23.41   0
  -9  -6  -8  160.01   28.70   0
  -9  -6   0  138.83   21.74   0
  -8  -8   6   32.03   34.40   0
  -8  -6   3   -4.46   22.35   0
  -8  -5  -9  156.79   32.08   0
  -8  -5   0  -12.01   21.27   0
  -8  -5   1  734.29   32.67   0
  -7  -8   7   -0.30   24.70   0
  -7  -7   6   22.94   23.21   0
  -7  -6   5   -1.23   20.85   0
  -7  -5   3  370.64   24.80   0
  -7  -4   1   -3.93   26.59   0
  -6  -8   8   34.20   26.12   0
  -6  -5 -13   -0.96   36.56   0
  -6  -5   5  284.08   22.86   0
  -6  -4 -11   48.18   31.94   0
  -6  -4   3   11.48   21.30   0
  -6  -3   0  211.26   22.19   0
  -5  -8   9  101.26   38.87   0
  -5  -4   5 1284.88   38.81   0
  -5  -3   3 1035.79   33.92   0
  -5  -2  -6  379.64   27.63   0
  -5  -2  -1  497.85   26.14   0
  -4  -7   9    0.69   33.32   0
  -4  -6   8   32.49   22.29   0
  -4  -5   7   56.37   21.90   0
  -4  -4   6   79.29   23.16   0
  -4  -2   2  473.36   25.34   0
  -3  -1   0 2103.82   40.04   0
  -2  -8  10   10.13   26.24   0
  -2  -6   9   19.41   22.89   0
  -2  -3   6   49.91   21.28   0
  -2  -2 -11   24.23   29.12   0
  -2  -1   2  360.56   28.00   0
  -1  -2   5  425.52   26.91   0
  -1  -1  -9 1549.85   48.55   0
  -1  -1   3 7616.63   88.56   0
   1  -3 -13   25.68   30.14   0
   1   0  -6  227.52   30.03   0
   2  -3 -13    1.72   24.62   0
   2  -1  -9    9.77   26.78   0
   2   0  -6  141.58   23.43   0
   3  -6   8   -0.06   35.70   0
   3  -3 -12   76.70   31.61   0
   3   0  -5 1495.98   32.59   0
   3   0  -4  121.38   23.61   0
   3   0  -2  249.45   32.91   0
   3   0  -1 1313.42   34.01   0
   4  -4   6  240.09   35.05   0
   4  -3 -11  106.40   35.06   0
   4  -3   5   81.77   33.42   0
   4  -1  -7   42.29   23.27   0
   5  -6   6   70.66   34.48   0
   5  -4 -11   45.66   26.85   0
   5  -3 -10    5.30   26.19   0
   5  -3   4   32.62   22.51   0
   5  -2  -8  344.24   23.99   0
   5  -2   2  993.04   35.85   0
   5  -1  -5  268.86   24.44   0
   5  -1  -4  186.21   24.49   0
   5  -1  -3  619.74   35.46   0
   5  -1  -2   18.81   31.16   0
   5  -1  -1 1215.80   30.75   0
   6  -5   4    4.45   24.82   0
   6  -4  -9   26.17   33.18   0
   6  -4   3    8.89   27.81   0
   6  -3  -8   19.47   24.13   0
   6  -3  -7   37.65   29.08   0
   6  -3   2   -3.17   21.43   0
   6  -2  -5   28.89   21.08   0
   6  -2  -4  112.05   23.83   0
   6  -2  -3  -10.20   30.92   0
   6  -2  -2  885.84   33.70   0
   6  -2  -1   15.58   21.11   0
   6  -2   0  764.74   26.85   0
   7  -5   1   24.44   30.49   0
   7  -4  -6   61.05   26.03   0
   7  -4  -5  136.98   33.08   0
   7  -4  -1  210.46   33.41   0
   7  -4   0   48.52   25.11   0
 -10  -8   3   48.89   30.34   0
 -10  -7   0  131.58   26.28   0
  -9  -8   5  -15.71   31.87   0
  -9  -7   3  116.06   25.59   0
  -9  -6  -9    2.62   25.47   0
  -9  -6   1   12.43   21.57   0
  -9  -5  -4   51.95   30.28   0
  -9  -5  -3  139.64   28.49   0
  -8  -7   5  213.32   24.38   0
  -8  -6   4  538.28   26.97   0
  -8  -5   2  -23.83   29.03   0
  -8  -4  -4  516.21   35.64   0
  -8  -4  -3   20.00   29.12   0
  -7  -5   4   21.35   22.30   0
  -7  -4  -9   16.72   22.40   0
  -7  -4   2  399.73   31.17   0
  -6  -7   8   53.16   30.71   0
  -6  -6   7   -1.78   30.29   0
  -6  -4   4  522.74   24.66   0
  -6  -3  -8  319.89   27.46   0
  -6  -3   1 1396.89   32.20   0
  -5  -2   0  507.96   25.44   0
  -4  -3   5  150.72   31.65   0
  -4  -2  -9  399.15   44.70   0
  -3  -8  10    8.63   25.77   0
  -3  -6   9  129.73   30.12   0
  -3  -5   8  623.24   28.28   0
  -3  -4   7  421.44   27.72   0
  -3  -2   4  320.59   32.29   0
  -3  -1   1   65.67   30.30   0
  -1  -3 -13   13.65   23.62   0
   0  -3 -13   32.79   24.75   0
   0  -1  -9  722.10   38.24   0
   1  -4 -14   16.65   26.07   0
   1  -2 -11  151.72   28.20   0
   1  -1  -9  261.39   30.69   0
   2  -2 -11  118.98   24.04   0
   2   0  -5 3195.03   44.08   0
   2   0   0  235.57   28.87   0
   3  -4 -13   89.98   26.54   0
   3  -2 -10  568.76   27.70   0
   3  -1  -8 1044.07   30.28   0
   3   0  -3 1833.13   35.24   0
   4  -6   7   15.62   32.85   0
   4  -4 -12  145.95   28.54   0
   4  -2  -9   -2.17   23.75   0
   4  -1  -6  528.22   27.84   0
   4  -1   1  643.66   28.13   0
   5  -7   6    2.65   39.50   0
   5  -4 -10   58.57   34.32   0
   5  -3  -9   47.22   25.71   0
   5  -2  -7   94.43   22.75   0
   6  -6   4  150.22   28.67   0
   6  -5   3   33.36   32.56   0
   6  -4  -8  100.47   24.38   0
   6  -4   2  187.49   33.83   0
   6  -3  -6   86.76   24.23   0
   6  -3   0  -16.63   28.99   0
   6  -3   1  396.19   26.49   0
   7  -5  -5   17.68   26.76   0
   7  -5  -4    4.71   33.87   0
   7  -5  -1   25.24   31.08   0
   7  -5   0  168.17   26.51   0
   7  -4  -4   55.55   25.17   0
   7  -4  -3  213.03   27.72   0
   7  -4  -2   42.85   24.51   0
 -10  -7   1   33.45   24.63   0
 -10  -7   2   39.76   32.37   0
 -10  -6  -6   45.71   35.57   0
 -10  -6  -5   56.20   25.21   0
 -10  -6  -4   -9.65   25.26   0
 -10  -6  -3   66.17   24.66   0
 -10  -6  -2   27.18   27.39   0
  -9  -7   4  -16.46   23.61   0
  -9  -6   2   66.73   23.36   0
  -9  -5  -6   52.34   25.15   0
  -9  -5  -5  108.25   23.16   0
  -9  -5  -2  -19.71   21.78   0
  -9  -5  -1  124.85   22.70   0
  -8  -8   7   -9.84   25.78   0
  -8  -7   6  -13.36   25.04   0
  -8  -5 -10   27.98   33.40   0
  -8  -5   3  409.58   33.71   0
  -8  -4  -6  236.87   24.19   0
  -8  -4  -5  -23.96   21.54   0
  -8  -4  -2  509.39   25.08   0
  -8  -4  -1   18.29   20.48   0
  -7  -8   8   39.46   26.36   0
  -7  -7   7   20.03   25.22   0
  -7  -6   6  146.25   24.69   0
  -7  -5   5  652.65   30.90   0
  -7  -4   3  -15.98   28.37   0
  -7  -3  -5  896.15   29.35   0
  -7  -3  -4  125.45   23.05   0
  -7  -3  -3  833.06   27.18   0
  -7  -3  -2  175.32   22.42   0
  -7  -3  -1  798.39   35.62   0
  -6  -8   9   52.33   27.65   0
  -6  -5   6   57.72   22.38   0
  -6  -3   2  300.98   25.17   0
  -5  -7   9   -7.39   25.39   0
  -5  -6   8   12.21   26.06   0
  -5  -5   7   39.24   23.43   0
  -5  -4   6  114.82   31.58   0
  -5  -3   4  336.54   26.24   0
  -5  -2  -7   50.26   23.62   0
  -5  -2   1 2670.49   36.93   0
  -4  -8  10   -0.90   27.49   0
  -4  -5   8  303.72   31.12   0
  -4  -2   3  886.41   28.48   0
  -4  -1  -4 2403.63   48.82   0
  -4  -1  -3  172.58   24.25   0
  -4  -1  -2 2491.24   40.98   0
  -3  -7  10   -8.05   31.58   0
  -3  -3   6   76.27   22.01   0
  -3  -2 -10   52.22   39.22   0
  -3  -1  -7 1163.70   70.18   0
  -2  -7  10    4.52   24.28   0
  -2  -4 -14   21.36   31.44   0
  -2  -2   5  412.75   26.68   0
  -2  -1  -8  191.36   40.95   0
  -1  -7  10    2.29   23.99   0
  -1  -4 -14   28.51   34.54   0
  -1  -4   8  475.64   31.60   0
  -1  -3   7  319.86   32.90   0
  -1  -2 -11   35.97   23.65   0
   0  -4 -14   14.99   25.71   0
   0  -4   8  334.78   30.29   0
   0  -3   7  177.63   33.09   0
   0  -2 -11  125.66   25.31   0
   0   0  -5   21.29   21.96   0
   1   0  -5 2316.46   43.26   0
   1   0   0 8660.69  115.97   0
   2  -4 -13   36.43   27.79   0
   2  -3 -12   51.79   26.12   0
   2  -2 -10   22.02   29.71   0
   2  -2   5 1682.35   66.66   0
   2  -1  -8 1505.30   32.09   0
   2   0  -4   12.85   21.69   0
   2   0  -3  973.21   32.56   0
   2   0  -2 1055.90   37.06   0
   2   0  -1  117.70   27.53   0
   3  -4 -12   -4.71   34.31   0
   3  -3 -11   64.07   25.41   0
   3  -2  -9  193.75   28.25   0
   3  -1  -7   18.50   21.04   0
   3  -1   2 4104.38   58.41   0
   4  -4 -11  -11.09   26.96   0
   4  -3 -10  -18.56   23.31   0
   4  -2  -8  616.46   26.77   0
   4  -2   3 1037.90   31.53   0
   4  -1  -5  196.57   26.97   0
   4  -1  -4   13.30   30.31   0
   4  -1   0  729.41   28.57   0
   5  -4  -9   20.76   33.94   0
   5  -4   4  315.19   23.77   0
   5  -3  -8    6.28   23.44   0
   5  -3   3 1014.88   30.65   0
   5  -2  -6  818.02   27.41   0
   5  -2  -5   32.38   21.72   0
   5  -2   0  243.46   31.02   0
   5  -2   1    1.62   21.18   0
   6  -6   3   39.61   35.68   0
   6  -5  -8    5.66   26.32   0
   6  -4  -7   48.98   26.63   0
   6  -4  -6   75.38   33.37   0
   6  -4   1   22.83   33.12   0
   6  -3  -5   53.14   23.64   0
   6  -3  -4   -6.15   23.09   0
   6  -3  -3  178.95   23.28   0
   6  -3  -2  104.21   21.67   0
   6  -3  -1  318.89   23.90   0
   7  -6   0  -21.70   26.04   0
   7  -5  -3  -21.86   25.44   0
   7  -5  -2    2.92   28.93   0
 -10  -7   3   24.60   29.92   0
 -10  -6  -7   -4.53   26.73   0
 -10  -6  -1   12.20   26.42   0
 -10  -6   0   13.59   25.20   0
  -9  -7   5    9.48   27.72   0
  -9  -6   3    6.46   23.32   0
  -9  -5  -7  163.50   25.47   0
  -9  -5   0    9.15   21.45   0
  -9  -5   1   85.70   27.19   0
  -8  -6   5    1.06   20.97   0
  -8  -4  -7    8.72   23.99   0
  -8  -4   0  803.17   26.70   0
  -8  -4   1   39.60   27.19   0
  -7  -7   8  -14.30   29.64   0
  -7  -6   7    1.61   28.98   0
  -7  -5 -12   24.81   31.62   0
  -7  -4 -10   69.25   31.46   0
  -7  -3  -6  167.42   23.40   0
  -7  -3   0   16.19   22.75   0
  -6  -6   8   41.70   30.91   0
  -6  -4   5  373.17   24.13   0
  -6  -3  -9  173.32   33.44   0
  -6  -3   3  185.93   23.57   0
  -6  -2  -4 1407.20   37.56   0
  -6  -2  -3  262.32   23.16   0
  -6  -2  -2  366.63   23.16   0
  -6  -2  -1  354.69   29.24   0
  -5  -8  10    2.45   27.65   0
  -5  -2   2  881.40   27.67   0
  -4  -6   9  135.16   25.77   0
  -4  -4   7  294.66   24.77   0
  -4  -1  -5   -0.80   30.13   0
  -4  -1  -1  770.17   28.06   0
  -4  -1   0  788.39   34.96   0
  -3  -3 -12  118.05   35.41   0
  -3  -1   2 1294.60   32.87   0
  -2  -5   9  106.89   26.06   0
  -2  -4   8  299.42   27.67   0
  -2  -3   7  360.77   32.15   0
  -2  -1   3  880.94   30.80   0
  -1  -5   9  213.52   26.68   0
  -1   0  -1 2795.03   81.60   0
   0  -7  10   -7.68   36.96   0
   0  -5   9  178.30   32.23   0
   1  -4 -13   62.29   30.16   0
   1  -3 -12   90.30   25.38   0
   1  -1  -8  272.01   31.13   0
   1   0  -4 1908.42   42.46   0
   2  -5   8   26.15   38.43   0
   2  -1   3  715.66   37.89   0
   3  -7   8    3.17   33.07   0
   3  -2   4   75.14   28.62   0
   3  -1  -6 1986.08   35.32   0
   4  -7   7   22.50   27.57   0
   4  -5 -11   -7.38   33.38   0
   4  -5   6   93.00   33.46   0
   4  -4 -10  101.27   32.87   0
   4  -3  -9  213.01   24.08   0
   4  -3   4   20.16   28.34   0
   4  -2  -7  595.77   27.21   0
   4  -1  -3  128.46   23.39   0
   4  -1  -2 1499.09   32.09   0
   4  -1  -1  485.95   25.98   0
   5  -6   5   -7.58   25.41   0
   5  -5 -10   28.60   28.17   0
   5  -4  -8  192.19   30.86   0
   5  -3  -7  531.38   28.23   0
   5  -3  -6   91.73   29.36   0
   5  -3   2   -1.68   21.14   0
   5  -2  -4  397.66   25.08   0
   5  -2  -3   -7.27   23.16   0
   5  -2  -2 1002.74   29.32   0
   5  -2  -1   86.81   23.52   0
   6  -6   2   29.17   34.65   0
   6  -5  -7   49.20   26.10   0
   6  -5  -6   31.17   33.36   0
   6  -5   1   46.33   30.96   0
   6  -5   2  151.58   24.72   0
   6  -4  -5   59.66   24.99   0
   6  -4  -4    3.46   24.09   0
   6  -4  -3  146.87   31.86   0
   6  -4  -2   54.44   26.91   0
   6  -4  -1  115.29   29.87   0
   6  -4   0   58.43   24.11   0
 -10  -6   1   45.88   25.09   0
 -10  -6   2   28.90   28.09   0
  -9  -7   6   36.04   37.43   0
  -9  -6   4  111.95   25.30   0
  -9  -5  -8   32.39   26.74   0
  -9  -5   2  -24.96   22.85   0
  -8  -7   7   65.72   26.92   0
  -8  -6   6  143.20   26.95   0
  -8  -5   4  103.44   23.81   0
  -8  -4  -8  133.18   24.64   0
  -8  -4   2  433.09   25.09   0
  -7  -5   6  -25.30   20.91   0
  -7  -4   4  373.87   23.59   0
  -7  -3  -7  232.45   26.10   0
  -7  -3   1  728.94   25.62   0
  -6  -7   9   26.74   25.96   0
  -6  -5   7  103.08   23.47   0
  -6  -4   6  470.41   30.49   0
  -6  -3   4  270.71   31.84   0
  -6  -2  -5  281.30   26.13   0
  -6  -2   0  455.06   25.81   0
  -5  -6   9  121.06   25.14   0
  -5  -5   8   99.72   25.97   0
  -5  -4   7   91.00   31.15   0
  -5  -3   5  883.60   29.69   0
  -5  -2  -8  293.15   34.20   0
  -5  -2   3  527.12   34.84   0
  -4  -7  10   44.61   27.15   0
  -4  -4 -13   17.61   38.17   0
  -4  -3   6  929.96   27.53   0
  -4  -2   4 1850.97   34.96   0
  -4  -1   1  520.43   34.27   0
  -3  -5   9   44.64   22.00   0
  -3  -4   8   30.02   22.07   0
  -3  -2   5  717.88   29.30   0
  -2  -6  10    3.07   28.91   0
  -1  -2   6  857.45   37.83   0
   0  -3 -12  150.58   24.17   0
   0  -1  -8   24.58   28.29   0
   0  -1   4   26.02   34.98   0
   0   0  -4 5738.25   86.16   0
   1  -5 -14   54.41   27.55   0
   1  -2 -10  219.38   24.17   0
   1   0  -3   42.01   26.50   0
   1   0  -2 3117.59   64.38   0
   1   0  -1 2715.43   60.55   0
   2  -5 -13   25.48   26.29   0
   2  -4 -12    8.23   24.73   0
   2  -3 -11   63.30   26.46   0
   2  -2  -9  135.43   21.70   0
   2  -1  -7  426.29   26.82   0
   3  -5 -12   41.71   27.15   0
   3  -5   7   13.19   29.50   0
   3  -4 -11  118.33   26.01   0
   3  -3 -10   -8.88   24.34   0
   3  -2  -8  283.58   24.32   0
   3  -1  -5   44.12   23.55   0
   3  -1   1  735.77   29.21   0
   4  -4   5   33.50   22.63   0
   4  -3  -8  307.25   24.48   0
   4  -2  -6  604.90   28.27   0
   4  -2   2  582.62   27.60   0
   5  -7   5   18.39   25.93   0
   5  -5  -9   64.22   28.64   0
   5  -5   4   21.69   24.06   0
   5  -4  -7    1.80   23.45   0
   5  -4   3   30.05   22.76   0
   5  -3  -5  282.44   23.92   0
   5  -3   1 1031.52   28.97   0
   6  -7   2   34.70   28.03   0
   6  -6  -6   58.15   27.69   0
   6  -6   1   39.52   31.84   0
   6  -5  -5  178.79   26.27   0
   6  -5  -4   -5.94   22.29   0
   6  -5  -3  122.50   30.09   0
   6  -5  -2  171.88   30.56   0
   6  -5  -1  149.71   33.22   0
   6  -5   0   57.75   25.81   0
 -10  -6   3    6.38   24.86   0
 -10  -5  -5  -15.58   25.75   0
 -10  -5  -4   50.52   25.33   0
 -10  -5  -3   39.67   22.99   0
 -10  -5  -2   60.40   25.70   0
 -10  -5  -1  -15.00   25.89   0
 -10  -5   0   36.64   30.78   0
  -9  -6   5   61.00   24.26   0
  -9  -5  -9  120.41   27.93   0
  -9  -5   3   70.64   23.08   0
  -9  -4  -5   49.16   25.04   0
  -9  -4  -4   70.57   22.59   0
  -9  -4  -3  -25.01   25.01   0
  -9  -4  -2   89.75   22.93   0
  -9  -4  -1  -16.21   23.38   0
  -9  -4   0   75.67   28.51   0
  -8  -7   8   28.60   37.20   0
  -8  -5 -11   58.12   33.76   0
  -8  -5   5  397.39   25.64   0
  -8  -4   3  -13.61   21.74   0
  -8  -3  -4   13.86   31.72   0
  -8  -3  -3  529.77   26.86   0
  -8  -3  -2   44.94   24.00   0
  -8  -3  -1  469.97   31.78   0
  -7  -7   9  100.48   33.50   0
  -7  -6   8  159.35   31.41   0
  -7  -4   5   30.32   21.56   0
  -7  -3   2   32.56   21.42   0
  -6  -2  -6  354.06   27.82   0
  -6  -2   1  650.85   28.61   0
  -5  -7  10   93.82   29.28   0
  -5  -1  -2 2042.31   42.38   0
  -4  -5   9  -13.11   22.60   0
  -4  -4   8  236.71   24.12   0
  -4  -1  -6  618.71   38.55   0
  -3  -6  10   23.53   23.84   0
  -3  -3   7   45.66   20.76   0
  -3  -1   3   66.41   21.66   0
  -2  -3 -12   14.07   24.02   0
  -2  -2   6 1010.22   31.80   0
  -1  -6  10   40.45   29.41   0
  -1  -3 -12  111.97   24.88   0
  -1  -1  -8   -1.73   21.03   0
  -1  -1   4 4473.93   65.54   0
  -1   0   0 8612.97  116.91   0
   0  -5 -14   58.16   28.54   0
   0  -4 -13   19.56   23.41   0
   0  -2 -10  733.41   31.43   0
   0  -2   6  570.96   38.01   0
   1  -3 -11   18.22   21.78   0
   1  -1  -7  194.19   32.94   0
   2  -3 -10  303.89   33.94   0
   2  -1  -6 2991.42   42.45   0
   3  -3  -9  473.05   28.27   0
   3  -3   5   50.52   31.05   0
   3  -2  -7 1251.44   31.78   0
   3  -1  -4 1269.65   32.14   0
   3  -1  -3   24.63   23.51   0
   3  -1   0 3095.01   44.67   0
   4  -6   6  119.84   29.02   0
   4  -5 -10   73.96   26.92   0
   4  -4  -9   37.23   23.96   0
   4  -3  -7  914.88   30.22   0
   4  -3   3  691.24   34.37   0
   4  -2  -5   48.26   24.50   0
   4  -2  -4  104.57   25.80   0
   4  -2   1    3.49   23.88   0
   5  -7   4  -13.22   33.02   0
   5  -6  -8  201.04   35.20   0
   5  -6   4   45.74   24.17   0
   5  -5  -8   55.62   25.91   0
   5  -5  -7  325.97   37.31   0
   5  -5   3  173.64   29.49   0
   5  -4  -6  137.54   23.47   0
   5  -4   2  852.63   28.65   0
   5  -3  -4  145.12   24.59   0
   5  -3  -3  998.74   29.56   0
   5  -3  -2   39.86   23.55   0
   5  -3  -1 1122.03   30.64   0
   5  -3   0   -8.13   22.45   0
   6  -7  -1   37.66   33.02   0
   6  -7   0    9.17   27.04   0
   6  -7   1   10.85   26.61   0
   6  -6  -5   25.63   27.72   0
   6  -6  -4  107.57   26.48   0
   6  -6  -3   51.98   26.25   0
   6  -6  -2   58.76   26.78   0
   6  -6  -1   24.66   25.68   0
   6  -6   0   65.13   25.39   0
 -10  -6   4   -5.55   24.55   0
 -10  -5  -7   53.66   36.72   0
 -10  -5  -6   53.44   28.31   0
 -10  -5   1   -4.27   24.12   0
  -9  -6   6   50.52   26.89   0
  -9  -5   4  122.76   25.48   0
  -9  -4  -6  115.27   27.32   0
  -9  -4   1   51.40   21.94   0
  -8  -6   7   18.35   25.10   0
  -8  -5   6   35.28   23.60   0
  -8  -4  -9   10.19   24.25   0
  -8  -4   4  250.08   24.90   0
  -8  -3  -5  373.47   25.59   0
  -8  -3   0  113.35   22.67   0
  -8  -3   1  243.48   30.63   0
  -7  -5   7   61.68   24.95   0
  -7  -4   6  191.93   28.50   0
  -7  -3  -8   49.02   24.26   0
  -7  -3   3   69.02   21.31   0
  -7  -2  -3   23.81   28.23   0
  -7  -2  -2  253.62   26.91   0
  -7  -2  -1   27.82   30.57   0
  -6  -7  10   34.44   28.73   0
  -6  -6   9  133.83   26.62   0
  -6  -5   8   54.38   24.06   0
  -6  -4   7   41.06   23.80   0
  -6  -3   5  588.10   25.30   0
  -6  -2   2  442.68   26.72   0
  -5  -5   9  -18.45   32.98   0
  -5  -3   6  768.61   28.92   0
  -5  -2   4  503.20   27.83   0
  -5  -1  -4 2151.50   42.16   0
  -5  -1  -3  331.87   25.13   0
  -5  -1  -1  214.00   25.17   0
  -5  -1   0 1802.46   35.23   0
  -4  -6  10    1.25   27.17   0
  -4  -3   7  270.22   25.11   0
  -4  -2   5  741.17   28.06   0
  -4  -1   2 2005.87   35.49   0
  -3  -7  11   -1.48   33.77   0
  -3  -4 -13   -4.45   31.24   0
  -3  -2   6  420.11   26.49   0
  -2  -4 -13    8.14   28.86   0
  -2  -2 -10  708.26   41.86   0
  -2  -1   4 2002.47   39.29   0
  -2   0  -2  995.06   43.10   0
  -2   0  -1  470.88   33.34   0
  -1  -5 -14   33.25   25.92   0
  -1  -4 -13   15.75   25.01   0
  -1  -2 -10  734.73   32.45   0
   0   0  -3  149.37   30.45   0
   1  -5 -13    9.44   29.17   0
   1  -4 -12   12.06   24.75   0
   1  -2  -9  336.79   24.53   0
   2  -5 -12  165.08   27.22   0
   2  -4 -11  126.87   26.45   0
   2  -2  -8  251.23   23.06   0
   2  -1  -5   75.98   32.11   0
   3  -5 -11   65.02   26.37   0
   3  -4 -10   49.79   24.06   0
   3  -4   6    2.63   23.05   0
   3  -3  -8  398.60   33.74   0
   3  -2  -6   50.46   31.06   0
   3  -2   3 3182.17   52.68   0
   3  -1  -2 2884.65   41.65   0
   3  -1  -1  338.96   25.65   0
   4  -8   6   30.28   35.10   0
   4  -7   6   36.46   31.08   0
   4  -6 -10   29.66   27.43   0
   4  -5  -9  168.62   26.90   0
   4  -4  -8  385.82   25.60   0
   4  -4   4  239.24   34.46   0
   4  -3  -6  537.92   26.91   0
   4  -2  -3   87.80   23.99   0
   4  -2  -2  619.15   27.79   0
   4  -2  -1   17.51   23.57   0
   4  -2   0  412.21   27.85   0
   5  -6  -7    3.07   26.26   0
   5  -6   3  -15.51   31.41   0
   5  -5  -6   48.23   24.74   0
   5  -5   2  -10.04   32.37   0
   5  -4  -5   16.65   22.80   0
   5  -4  -4  104.92   24.46   0
   5  -4  -3   -2.16   31.59   0
   5  -4   0  303.00   29.82   0
   5  -4   1   13.41   22.66   0
   6  -7  -3   22.92   27.28   0
   6  -7  -2    7.26   26.39   0
 -10  -5   2   29.70   24.70   0
 -10  -5   3   -0.77   32.45   0
  -9  -5   5   27.63   23.13   0
  -9  -4  -7   28.75   27.03   0
  -9  -4   2  118.70   23.53   0
  -9  -4   3  117.64   32.13   0
  -8  -6   8   88.57   27.75   0
  -8  -4   5   81.99   23.34   0
  -8  -3  -6    0.33   23.38   0
  -8  -3   2   31.82   22.76   0
  -7  -6   9  -24.12   26.07   0
  -7  -5   8   -3.18   32.85   0
  -7  -3   4   21.14   22.93   0
  -7  -2  -5   36.27   31.26   0
  -7  -2  -4 1087.58   31.00   0
  -7  -2   0  317.42   24.91   0
  -7  -2   1  101.09   27.78   0
  -6  -3 -10  195.05   37.29   0
  -6  -3   6  247.12   27.56   0
  -6  -2  -7   77.87   25.00   0
  -6  -2   3  248.21   24.42   0
  -5  -6  10   28.95   26.67   0
  -5  -4   8  346.14   26.36   0
  -5  -3   7  726.24   34.32   0
  -5  -2   5  900.73   34.82   0
  -5  -1  -5  245.15   32.26   0
  -5  -1   1  389.93   25.34   0
  -4  -7  11   -6.75   26.86   0
  -4  -5 -14    7.85   31.82   0
  -4  -2   6   85.34   27.92   0
  -4  -1   3  789.40   27.95   0
  -3  -5 -14   -2.91   32.85   0
  -3  -5  10   13.49   31.69   0
  -3  -4   9  120.37   23.74   0
  -3  -3   8  373.09   31.32   0
  -3  -1   4 1008.30   30.15   0
  -2  -7  11   -0.50   26.96   0
  -2  -5 -14  -11.83   27.30   0
  -2  -5  10   -3.43   28.64   0
  -2  -4   9   99.03   25.61   0
  -2  -3   8  405.71   28.32   0
  -2   0  -3   11.97   26.27   0
  -2   0   0  225.10   29.51   0
  -1  -4   9   19.38   30.14   0
  -1  -3   8  143.63   33.44   0
  -1   0   1 2677.74   65.41   0
   0  -5 -13   20.30   31.40   0
   0  -4 -12   31.61   33.49   0
   0  -3 -11  438.23   27.50   0
   0  -1  -7    3.53   32.22   0
   1  -6 -13   32.86   33.91   0
   1  -3 -10  870.16   37.38   0
   1  -1  -6 1819.83   45.14   0
   2  -6 -12   94.27   37.21   0
   2  -4   7  101.18   35.20   0
   2  -3  -9   98.48   22.09   0
   2  -3   6  590.15   44.88   0
   3  -6 -11    4.88   27.35   0
   3  -6   7  128.71   33.59   0
   3  -5 -10    5.25   24.04   0
   3  -4  -9  171.04   23.96   0
   3  -2  -5  660.87   36.34   0
   4  -6  -9    1.61   26.56   0
   4  -5  -8    4.79   22.51   0
   4  -4  -7  219.12   24.15   0
   4  -3  -5  382.25   26.53   0
   4  -3  -4  407.77   32.60   0
   4  -3   2  139.07   22.21   0
   5  -8   3   -3.02   27.40   0
   5  -7  -7  103.00   26.25   0
   5  -7  -6  -22.52   34.32   0
   5  -7   3   38.61   26.85   0
   5  -6  -6  237.79   27.66   0
   5  -6  -5  -22.07   30.75   0
   5  -6   2   21.93   29.12   0
   5  -5  -5  112.07   24.91   0
   5  -5  -4   -1.45   23.73   0
   5  -5  -3  144.83   29.17   0
   5  -5   0    5.36   29.39   0
   5  -5   1   55.02   23.32   0
   5  -4  -2  523.01   25.24   0
   5  -4  -1    3.73   21.33   0
 -10  -5   4  -37.16   25.56   0
 -10  -4  -5  141.60   33.77   0
 -10  -4  -4    3.33   24.78   0
 -10  -4  -3   46.21   25.95   0
 -10  -4  -2    7.09   23.96   0
 -10  -4  -1   54.69   27.55   0
 -10  -4   0  -20.78   25.32   0
  -9  -5   6  -35.27   28.32   0
  -9  -4  -8  130.40   33.22   0
  -9  -4   4   52.42   29.65   0
  -9  -3  -3   63.99   25.69   0
  -9  -3  -2    2.56   23.00   0
  -9  -3  -1   61.28   22.56   0
  -9  -3   0  241.06   33.38   0
  -8  -5   7   58.22   25.88   0
  -8  -4   6    9.41   29.56   0
  -8  -3  -7  126.50   25.19   0
  -8  -3   3   79.22   22.21   0
  -7  -4 -11   -2.72   34.19   0
  -7  -4   7   30.49   24.46   0
  -7  -3  -9  237.11   34.18   0
  -7  -3   5  170.52   23.78   0
  -7  -2   2   40.06   21.47   0
  -6  -6  10  -21.10   26.42   0
  -6  -5   9  183.35   26.46   0
  -6  -4   8  113.77   24.23   0
  -6  -2   4  243.15   23.88   0
  -6  -1  -2   72.38   27.82   0
  -6  -1  -1  133.73   28.16   0
  -6  -1   0  196.12   29.30   0
  -5  -1   2 2008.25   34.88   0
  -4  -5  10   38.90   26.49   0
  -4  -4   9   31.51   24.91   0
  -4  -3   8  228.23   29.14   0
  -4  -1   4  498.26   25.59   0
  -3   0  -2  501.47   26.96   0
  -3   0  -1  970.85   31.92   0
  -3   0   0 1267.76   33.68   0
  -2  -2   7  112.65   31.70   0
  -2  -1   5  272.98   25.50   0
  -2   0   1  130.23   27.79   0
  -1  -3 -11  629.73   35.50   0
  -1  -1   5 5375.11   69.98   0
   0  -6  10   11.99   42.16   0
   0  -2  -9  171.19   25.45   0
   0   0  -2 8868.56  144.45   0
   1  -5 -12  220.24   27.37   0
   1  -4 -11  583.06   30.37   0
   1  -2  -8  302.72   24.72   0
   2  -5 -11   70.74   27.47   0
   2  -4 -10  198.25   26.57   0
   2  -2  -7  602.77   26.64   0
   2  -1  -4 6324.99   59.24   0
   2  -1  -3  373.99   33.97   0
   3  -7   7    1.58   29.71   0
   3  -6 -10   29.93   27.43   0
   3  -5  -9   98.04   31.35   0
   3  -4  -8  149.41   27.95   0
   3  -3  -7  314.11   26.60   0
   3  -2  -4   76.62   24.47   0
   3  -2   2  379.21   28.17   0
   4  -8   5  -14.38   30.94   0
   4  -7  -9   41.55   28.51   0
   4  -7   5   32.95   34.00   0
   4  -6  -8   54.97   26.77   0
   4  -6   5   33.74   21.81   0
   4  -5  -7  327.69   27.59   0
   4  -5   4  152.04   29.79   0
   4  -4  -6  272.35   24.12   0
   4  -4  -5  206.59   29.35   0
   4  -4   3  218.51   25.55   0
   4  -3  -3  993.56   31.44   0
   4  -3  -2  843.41   36.99   0
   4  -3  -1  396.53   36.18   0
   4  -3   0   22.20   22.18   0
   4  -3   1  553.87   26.79   0
   5  -8   1    1.25   31.65   0
   5  -8   2   55.90   28.63   0
   5  -7  -5   55.27   26.98   0
   5  -7  -4   23.89   34.11   0
   5  -7   1  115.82   32.50   0
   5  -7   2   33.21   26.13   0
   5  -6  -4  327.62   24.39   0
   5  -6  -3   -9.80   24.37   0
   5  -6  -2  338.03   34.78   0
   5  -6  -1    2.38   28.59   0
   5  -6   0   37.60   29.48   0
   5  -6   1   20.72   24.72   0
   5  -5  -2   32.49   20.77   0
   5  -5  -1   19.77   21.23   0
 -10  -4  -6    5.74   33.50   0
 -10  -4   1  135.82   26.33   0
 -10  -4   2   -7.89   25.54   0
  -9  -5   7   -4.49   34.11   0
  -9  -4   5  205.44   26.07   0
  -9  -3  -5    0.92   23.35   0
  -9  -3  -4   69.99   23.08   0
  -9  -3   1  111.97   23.44   0
  -9  -3   2  171.20   30.49   0
  -8  -5   8    0.41   27.50   0
  -8  -4 -10  105.08   28.06   0
  -8  -3   4   86.59   22.57   0
  -8  -2  -3   63.48   29.96   0
  -8  -2  -2  307.72   24.75   0
  -8  -2  -1  140.87   22.58   0
  -8  -2   0  189.97   22.48   0
  -7  -5   9  130.51   26.70   0
  -7  -3   6   27.27   22.94   0
  -7  -2  -6  395.20   26.08   0
  -7  -2   3   -4.19   22.34   0
  -6  -3   7  165.59   23.94   0
  -6  -2  -8  468.94   36.29   0
  -6  -2   5  324.89   23.67   0
  -6  -1  -4  226.70   29.97   0
  -6  -1  -3  852.07   27.93   0
  -6  -1   1  925.55   29.83   0
  -5  -6  11   47.31   37.13   0
  -5  -5  10  125.11   26.32   0
  -5  -4   9   81.46   26.73   0
  -5  -3   8  -19.90   32.88   0
  -5  -2   6  494.86   27.01   0
  -5  -1  -6  143.00   35.31   0
  -5  -1   3  619.35   26.72   0
  -4  -6  11   52.04   27.96   0
  -4  -2   7  707.88   32.69   0
  -3  -6  11   29.56   27.51   0
  -3  -2   7  314.80   24.12   0
  -3  -1   5   20.26   24.34   0
  -3   0  -3 1676.66   43.02   0
  -3   0   1 1288.22   33.30   0
  -2  -6  11   21.85   32.37   0
  -2  -3 -11  379.79   34.23   0
  -2   0   2 1895.22   40.97   0
  -1  -7  11   12.53   33.76   0
  -1  -6 -14   -3.12   27.88   0
  -1  -5 -13    8.16   23.89   0
  -1  -5  10    0.71   23.49   0
  -1  -4 -12  122.03   24.99   0
  -1  -2   7  121.79   22.98   0
  -1  -1  -7  881.52   40.70   0
   0  -6 -13   44.98   36.03   0
   0  -3 -10  761.51   37.42   0
   1  -6 -12    5.63   32.14   0
   1  -1  -5  424.17   32.89   0
   2  -6 -11   71.41   26.44   0
   2  -5 -10  244.91   33.04   0
   2  -4  -9  218.12   32.65   0
   2  -3  -8  128.96   24.90   0
   2  -2  -6   87.35   25.74   0
   2  -1  -2 1986.78   40.45   0
   2  -1   0 3821.63   62.93   0
   2  -1   1  302.95   29.41   0
   3  -8   7   31.98   32.87   0
   3  -7 -10   14.46   25.87   0
   3  -6  -9   13.66   31.46   0
   3  -5   6  433.78   35.82   0
   3  -4   5   67.16   31.18   0
   3  -3  -6  408.51   28.02   0
   3  -2  -3 1904.55   36.28   0
   3  -2  -2  391.66   36.18   0
   3  -2   1 1350.56   34.33   0
   4  -7  -8  -32.38   25.28   0
   4  -7  -7  138.79   31.98   0
   4  -6  -7   22.04   24.21   0
   4  -6   4   29.83   34.16   0
   4  -5  -6   13.70   22.86   0
   4  -4  -4  467.60   26.31   0
   4  -4   2  868.52   30.32   0
   5  -8  -4   32.53   28.70   0
   5  -8  -3   18.89   27.21   0
   5  -8  -2   68.57   27.37   0
   5  -8  -1    2.05   26.69   0
   5  -8   0  104.92   26.52   0
   5  -7  -3  251.92   28.20   0
   5  -7  -2   14.07   24.57   0
   5  -7  -1  196.33   26.42   0
   5  -7   0   27.68   24.27   0
 -10  -4  -7   58.12   34.43   0
 -10  -4   3   87.72   26.10   0
 -10  -4   4  -34.95   29.90   0
  -9  -4  -9   34.92   34.30   0
  -9  -4   6   22.05   29.78   0
  -9  -3  -6   24.82   25.61   0
  -9  -3   3  166.07   23.41   0
  -8  -4   7   21.99   24.78   0
  -8  -3  -8   24.48   23.23   0
  -8  -3   5   23.46   23.38   0
  -8  -2  -5   22.68   27.95   0
  -8  -2  -4  125.82   23.99   0
  -8  -2   1  381.67   24.68   0
  -8  -2   2   56.82   22.50   0
  -7  -4   8   31.37   24.23   0
  -7  -3   7   21.61   31.81   0
  -7  -2  -7  208.30   35.60   0
  -7  -2   4  143.08   22.23   0
  -6  -5  10   18.75   27.03   0
  -6  -4   9   20.08   25.01   0
  -6  -2   6  855.44   32.97   0
  -6  -1  -5  537.91   36.99   0
  -6  -1   2  128.92   23.79   0
  -6  -1   3  272.67   30.86   0
  -5  -2  -9  245.87   43.12   0
  -5  -2   7  260.33   29.38   0
  -5  -1   4  336.42   27.05   0
  -4  -4  10    9.93   33.22   0
  -4  -3 -11    1.92   36.37   0
  -4  -1  -7   15.54   32.88   0
  -4  -1   5  140.68   23.31   0
  -4   0  -2  178.89   24.67   0
  -4   0  -1 1263.22   32.75   0
  -4   0   0  359.59   25.09   0
  -4   0   1 3321.19   42.38   0
  -3  -4  10   21.09   28.82   0
  -3  -3 -11   22.20   31.00   0
  -3  -3   9   -0.17   31.24   0
  -3   0   2  194.77   24.20   0
  -2  -6 -14    8.01   26.81   0
  -1  -2  -9  183.96   26.59   0
  -1   0   2 2767.82   58.17   0
   0  -5 -12   41.34   28.29   0
   0  -4 -11  624.82   28.75   0
   0  -3   8    2.02   30.20   0
   0  -1  -6   77.00   28.35   0
   0   0  -1   51.94   26.74   0
   1  -5 -11   31.01   26.55   0
   1  -4 -10   13.41   22.92   0
   1  -3  -9  111.79   21.06   0
   1  -2  -7  126.62   32.96   0
   2  -7 -11   88.49   29.82   0
   2  -6   8    8.08   28.99   0
   2  -3  -7   14.15   32.53   0
   2  -2  -5 3440.80   48.90   0
   2  -2   4    6.01   21.56   0
   2  -1  -1  159.54   30.46   0
   3  -7  -9    9.69   25.75   0
   3  -5  -8  351.29   25.24   0
   3  -4  -7  540.49   26.71   0
   3  -3  -5 1277.72   34.05   0
   3  -2  -1 1421.35   33.47   0
   3  -2   0   80.86   23.55   0
   4  -8  -7   10.29   25.60   0
   4  -8   4   48.90   28.59   0
   4  -7  -6  -26.43   31.81   0
   4  -7   4   37.05   24.61   0
   4  -6  -6   57.85   26.32   0
   4  -6  -5  -24.59   30.40   0
   4  -5  -5  193.59   24.65   0
   4  -5  -4  100.23   30.36   0
   4  -5   2  567.37   31.11   0
   4  -5   3  310.57   26.59   0
   4  -4  -3 1279.33   32.41   0
   4  -4  -2  793.93   29.59   0
   4  -4  -1  687.72   28.92   0
   4  -4   0  393.66   25.78   0
   4  -4   1  572.41   25.36   0
 -10  -3  -4   71.41   35.86   0
 -10  -3  -3   21.80   24.65   0
 -10  -3  -2  133.21   25.24   0
 -10  -3  -1  -15.55   26.09   0
 -10  -3   0  138.74   28.33   0
 -10  -3   1  -12.13   25.66   0
  -9  -4   7   64.67   33.55   0
  -9  -3  -7   63.32   35.86   0
  -9  -3   4  326.69   27.13   0
  -9  -2  -1  368.94   30.99   0
  -8  -5   9    2.68   27.82   0
  -8  -4   8   30.06   26.28   0
  -8  -3   6   86.68   23.12   0
  -8  -2   3  104.97   23.06   0
  -8  -2   4   62.38   29.84   0
  -7  -5  10  -17.52   27.80   0
  -7  -4   9   11.43   27.55   0
  -7  -2   5   83.30   23.56   0
  -7  -1  -3  235.76   23.47   0
  -7  -1  -2   72.85   21.15   0
  -7  -1  -1   45.50   21.57   0
  -7  -1   0  225.10   23.76   0
  -7  -1   1  302.48   24.80   0
  -7  -1   2  143.65   32.55   0
  -6  -3   8   -0.01   22.36   0
  -6  -1   4   40.24   23.09   0
  -5  -5  11   20.24   34.66   0
  -5  -4  10   56.12   24.84   0
  -5  -3   9  177.76   36.79   0
  -5  -1   5  435.52   27.43   0
  -5   0  -1  890.81   38.29   0
  -5   0   0  731.01   36.04   0
  -4  -5  11    0.07   25.71   0
  -4  -3   9  149.44   24.38   0
  -4  -2   8  255.78   29.36   0
  -4  -1   6 1211.97   37.60   0
  -4   0  -3 2689.75   46.16   0
  -4   0   2   26.75   23.22   0
  -3  -6 -14  136.20   36.20   0
  -3  -5  11    4.82   25.97   0
  -3  -2   8   -8.25   21.47   0
  -3  -1   6  702.62   30.03   0
  -3   0  -4   21.19   27.03   0
  -3   0   3 1691.15   34.92   0
  -2  -5 -13  125.80   27.67   0
  -2  -4 -12  212.48   27.48   0
  -2  -4  10   67.16   24.17   0
  -2  -3   9  192.17   25.95   0
  -2  -2   8  210.64   32.65   0
  -2  -1   6  274.09   25.94   0
  -2   0  -4  525.60   47.83   0
  -2   0   3  850.22   32.43   0
  -1  -6 -13  -18.92   36.69   0
   0  -7 -13   21.05   28.33   0
   0  -4   9   53.90   33.03   0
   0  -2  -8  128.07   22.81   0
   0  -1   5 9401.71  116.51   0
   1  -7 -12   66.18   27.62   0
   1  -6 -11  445.48   34.83   0
   1  -1  -4 3634.63   52.44   0
   2  -7 -10   20.45   34.49   0
   2  -7   8   15.50   32.82   0
   2  -6 -10  134.37   25.80   0
   2  -5  -9   -4.78   23.41   0
   2  -4  -8   10.91   23.27   0
   3  -8  -9   26.78   28.85   0
   3  -7  -8   28.82   31.95   0
   3  -7   6  220.24   29.48   0
   3  -6  -8   98.07   24.59   0
   3  -6   6   43.35   24.13   0
   3  -5  -7  132.24   24.72   0
   3  -4  -6  672.53   27.54   0
   3  -3  -4  760.78   29.24   0
   3  -3   3   35.73   22.18   0
   4  -9  -5   14.30   28.23   0
   4  -9   3  106.79   28.68   0
   4  -8  -6   73.56   27.13   0
   4  -8  -5   13.84   24.89   0
   4  -8   3   23.99   26.08   0
   4  -7  -5   98.97   24.55   0
   4  -7   3  -20.12   25.66   0
   4  -6  -4  260.04   26.80   0
   4  -6   2  175.86   33.98   0
   4  -6   3   12.42   22.97   0
   4  -5  -3  496.44   27.90   0
   4  -5  -2  122.14   24.04   0
   4  -5  -1   78.71   32.76   0
   4  -5   0  188.29   30.45   0
   4  -5   1  277.73   23.48   0
 -10  -3  -5   32.49   27.39   0
 -10  -3   2  177.50   28.19   0
 -10  -3   3   25.45   26.63   0
  -9  -3   5   37.57   26.03   0
  -9  -2  -4   28.63   32.34   0
  -9  -2  -3  183.84   24.06   0
  -9  -2  -2  170.79   26.46   0
  -9  -2   0  116.79   24.46   0
  -9  -2   1  463.41   28.47   0
  -9  -2   2  160.60   23.99   0
  -8  -3  -9  152.88   32.85   0
  -8  -3   7   38.78   25.41   0
  -8  -2  -6   93.41   26.41   0
  -8  -2   5  263.27   32.94   0
  -7  -3   8   12.98   24.15   0
  -7  -2   6  272.01   26.75   0
  -7  -1  -4  202.44   24.92   0
  -7  -1   3  181.93   23.80   0
  -6  -5  11   54.13   30.48   0
  -6  -4  10  152.99   26.96   0
  -6  -3   9  115.15   32.43   0
  -6  -2   7    7.36   21.83   0
  -6  -1  -6  110.14   32.80   0
  -6  -1   5 1066.78   28.84   0
  -5  -2   8  272.27   25.23   0
  -5  -1   6  857.88   29.04   0
  -5   0  -3 2041.08   43.86   0
  -5   0  -2  264.87   25.00   0
  -5   0   1 1784.87   34.21   0
  -5   0   2 1300.29   31.52   0
  -4  -6 -14   25.10   36.23   0
  -4  -6  12   30.48   33.88   0
  -4   0  -4   33.43   32.65   0
  -4   0   3 1460.96   32.25   0
  -3  -5 -13  139.09   31.72   0
  -3  -4 -12   79.45   29.67   0
  -3   0   4  150.10   23.78   0
  -2  -5  11   28.37   30.12   0
  -2  -2  -9   -9.36   29.65   0
  -2  -1  -7 1827.76   66.40   0
  -2   0   4    3.34   31.55   0
  -1  -6  11   -1.70   35.21   0
  -1  -5 -12    8.53   24.97   0
  -1  -4 -11  146.82   30.54   0
  -1  -3 -10  150.96   25.38   0
  -1  -3   9  603.58   40.38   0
  -1  -1   6  477.90   27.76   0
  -1   0   3   27.47   27.18   0
   0  -6 -12   14.32   26.44   0
   0  -5 -11   -0.63   35.63   0
   0  -3  -9  406.21   25.68   0
   0  -2   7  404.30   35.93   0
   1  -7 -11   53.72   32.77   0
   1  -5 -10  599.08   29.87   0
   1  -4  -9  413.40   25.62   0
   1  -3  -8   34.94   22.52   0
   1  -2  -6  271.72   34.79   0
   2  -8 -10   90.86   27.33   0
   2  -8   8    0.38   32.25   0
   2  -6  -9  127.41   24.16   0
   2  -3  -6  561.59   28.62   0
   2  -2  -4   86.82   25.58   0
   3  -8  -8  211.50   26.78   0
   3  -7  -7   82.58   33.84   0
   3  -6  -7   43.49   24.06   0
   3  -5  -6   91.07   23.57   0
   3  -4  -5  165.30   24.98   0
   3  -3  -3  103.48   25.48   0
   3  -3  -2 1897.55   35.11   0
   3  -3   1   43.25   33.34   0
   3  -3   2 1236.55   34.28   0
   4  -9  -4  -31.00   28.44   0
   4  -9  -3  104.26   27.58   0
   4  -9  -2  -25.82   32.74   0
   4  -9  -1   75.32   37.24   0
   4  -9   0  -19.52   32.04   0
   4  -9   1  140.30   28.82   0
   4  -9   2   34.32   28.45   0
   4  -8  -4  387.15   29.17   0
   4  -8  -3   32.39   26.11   0
   4  -8  -2  131.19   34.52   0
   4  -8   0  317.40   33.66   0
   4  -8   1   -7.12   31.15   0
   4  -8   2  223.85   29.93   0
   4  -7  -4   20.96   22.89   0
   4  -7  -3  447.79   26.98   0
   4  -7  -2    8.88   29.24   0
   4  -7  -1  181.37   30.44   0
   4  -7   0  -14.99   28.79   0
   4  -7   1   12.58   25.25   0
   4  -7   2   23.11   24.38   0
   4  -6  -3   35.77   23.16   0
   4  -6  -2  113.03   22.95   0
   4  -6  -1    7.40   25.18   0
   4  -6   0   51.26   22.33   0
   4  -6   1   57.43   25.25   0
 -10  -3  -6  123.69   29.55   0
 -10  -3   4  136.03   27.83   0
  -9  -3  -8    3.03   34.30   0
  -9  -3   6  225.47   26.44   0
  -9  -2  -5   48.42   32.45   0
  -9  -2   3  222.06   24.57   0
  -9  -2   4   -7.13   30.51   0
  -8  -4 -11    7.99   37.80   0
  -8  -4   9   40.15   27.20   0
  -8  -3   8   18.76   32.11   0
  -8  -2  -7   32.66   30.66   0
  -8  -2   6   48.85   29.75   0
  -8  -1  -3  237.34   34.01   0
  -8  -1  -2  181.37   25.36   0
  -8  -1  -1  247.01   24.91   0
  -8  -1   0  470.38   26.17   0
  -8  -1   1   78.23   21.01   0
  -8  -1   2  212.05   24.70   0
  -7  -4  10   33.04   28.55   0
  -7  -3 -10   13.43   34.93   0
  -7  -3   9   96.63   38.70   0
  -7  -2  -8  348.61   33.71   0
  -7  -2   7   21.47   23.07   0
  -7  -1  -5  341.06   27.14   0
  -7  -1   4    4.46   23.26   0
  -6  -5 -13    6.82   36.89   0
  -6  -2   8   54.87   24.15   0
  -6  -1   6   -9.86   28.97   0
  -6   0  -2  220.44   29.94   0
  -6   0  -1   -8.64   21.45   0
  -6   0   0  609.76   27.97   0
  -6   0   1   32.51   24.50   0
  -6   0   2 1742.96   37.88   0
  -5  -4 -12   -4.66   36.76   0
  -5  -4  11   31.43   38.24   0
  -5  -3  10  113.82   30.74   0
  -5  -1  -7  295.26   36.24   0
  -5   0   3  125.63   25.26   0
  -4  -5 -13   99.91   37.53   0
  -4  -4 -12    4.67   35.10   0
  -4  -4  11   37.26   33.55   0
  -4  -3  10  127.41   24.89   0
  -4  -1   7   36.22   23.56   0
  -4   0   4  258.42   25.12   0
  -3  -6  12   -2.89   28.72   0
  -3  -4  11   16.41   28.32   0
  -3  -3  10   31.15   27.24   0
  -3  -1   7   68.34   22.43   0
  -2  -6 -13   -1.36   38.12   0
  -2  -1   7  216.75   30.56   0
  -1  -7 -13   35.51   29.37   0
  -1  -4  10   69.49   30.79   0
  -1  -2   8 1093.47   40.73   0
   0  -7 -12  197.93   28.43   0
   0  -4 -10  365.02   26.13   0
   0  -1  -5 2178.04   52.52   0
   1  -8 -11    3.53   28.64   0
   1  -6 -10    3.18   29.98   0
   1  -6   9    0.53   41.40   0
   1  -1  -3  787.40   35.05   0
   2  -8  -9   93.22   36.78   0
   2  -7  -9   20.79   28.54   0
   2  -5  -8  716.38   27.53   0
   2  -5   7   70.51   29.88   0
   2  -4  -7  356.84   26.51   0
   2  -3  -5  422.67   35.76   0
   2  -3   5   88.71   30.82   0
   2  -2  -3 4828.22   52.11   0
   3  -9  -7  184.74   27.00   0
   3  -9   5   24.58   28.09   0
   3  -8  -7   30.84   26.05   0
   3  -8   5  150.37   33.48   0
   3  -7  -6   37.04   32.91   0
   3  -7   5    6.15   29.47   0
   3  -6  -6  182.91   24.58   0
   3  -5  -5  333.13   25.32   0
   3  -4  -4  762.33   30.71   0
   3  -4  -3 2158.83   46.15   0
   3  -4   3  224.60   30.08   0
   3  -3  -1   69.80   24.30   0
   3  -3   0   61.96   24.94   0
   4  -8  -1   33.68   25.25   0
 -10  -2  -3   30.28   34.26   0
 -10  -2  -2   28.57   25.71   0
 -10  -2  -1   74.97   25.70   0
 -10  -2   0   38.61   27.97   0
 -10  -2   1   43.68   26.77   0
 -10  -2   2   49.32   26.94   0
  -9  -3   7   42.42   26.92   0
  -9  -2  -6   -6.64   33.38   0
  -9  -2   5   73.79   26.89   0
  -8  -2   7   53.12   32.81   0
  -8  -1  -4  325.96   24.62   0
  -8  -1   3  181.13   24.30   0
  -8  -1   4   61.90   32.54   0
  -7  -2   8   85.82   32.55   0
  -7  -1   5  659.09   26.54   0
  -6  -4  11    3.15   26.88   0
  -6  -3  10   24.42   24.97   0
  -6  -2  -9   39.27   44.02   0
  -6   0  -3    9.63   20.98   0
  -6   0   3  -20.46   22.32   0
  -5  -5 -13   27.37   41.05   0
  -5  -5  12    5.64   26.74   0
  -5  -2   9  -11.70   25.03   0
  -5  -1   7  348.27   25.32   0
  -5   0  -4  182.06   23.36   0
  -5   0   4  539.60   27.48   0
  -4  -5  12   15.45   26.84   0
  -4  -2   9  152.71   23.50   0
  -4   0   5  571.07   26.75   0
  -3  -2   9  463.92   26.90   0
  -3   0   5 1498.34   33.93   0
  -2  -5 -12   19.31   30.77   0
  -2  -4 -11   54.83   31.12   0
  -2  -3 -10   25.52   30.54   0
  -2  -3  10   57.64   32.36   0
  -2   0   5 3486.45   47.25   0
  -1  -8 -13   65.28   32.19   0
  -1  -6 -12   46.60   26.10   0
  -1  -2  -8  199.77   24.35   0
  -1  -1  -6 1018.41   43.47   0
  -1   0   4 1928.92   45.15   0
   0  -8 -12   12.38   27.67   0
   0  -6 -11  493.97   30.41   0
   0  -2  -7  112.13   24.24   0
   0   0   1   35.93   28.21   0
   1  -7 -10   48.51   25.46   0
   1  -5  -9   76.04   23.96   0
   1  -4  -8  180.65   26.01   0
   1  -3  -7  226.05   24.83   0
   1  -2  -5 5393.02   61.56   0
   2  -9  -9   82.05   29.35   0
   2  -7  -8   39.58   31.51   0
   2  -6  -8   -7.48   22.88   0
   2  -5  -7   37.39   23.52   0
   2  -4  -6  718.14   30.04   0
   2  -4   6  801.46   42.69   0
   2  -2  -2 2430.85   41.80   0
   3  -9  -6   37.50   26.65   0
   3  -9  -5   21.66   31.15   0
   3  -9   4  -23.13   38.84   0
   3  -8  -6   96.79   26.09   0
   3  -8  -5  -32.33   32.41   0
   3  -7  -5   12.45   23.25   0
   3  -6  -5   27.55   25.31   0
   3  -6   4   23.57   28.72   0
   3  -5  -4  840.24   29.32   0
   3  -5   4  229.59   25.53   0
   3  -4  -2  225.90   25.23   0
   3  -4  -1  593.03   35.63   0
   3  -4   1 1313.91   37.99   0
   3  -4   2    8.29   22.78   0
 -10  -2  -4   27.47   26.85   0
 -10  -2   3   41.53   27.76   0
  -9  -2   6   17.37   25.89   0
  -9  -1  -2  135.89   26.40   0
  -9  -1  -1   41.60   26.74   0
  -9  -1   0   67.82   25.24   0
  -9  -1   1   26.73   25.45   0
  -9  -1   2   77.39   25.34   0
  -9  -1   3   25.50   29.24   0
  -8  -3   9   -2.30   28.65   0
  -8  -1  -5  193.29   34.00   0
  -8  -1   5   25.07   24.27   0
  -7  -3  10   -2.26   27.80   0
  -7  -1  -6    2.93   24.56   0
  -7  -1   6  266.88   24.58   0
  -7   0  -2  194.23   23.77   0
  -7   0  -1   21.45   23.51   0
  -7   0   0  324.97   23.22   0
  -7   0   1  284.20   23.10   0
  -7   0   2  720.72   27.83   0
  -7   0   3   -5.60   28.35   0
  -6  -2   9  -10.36   25.03   0
  -6  -1  -7  398.15   34.49   0
  -6  -1   7  652.97   26.90   0
  -6   0  -4  280.90   33.09   0
  -6   0   4  385.31   24.01   0
  -6   0   5   23.08   28.01   0
  -5  -1   8   16.81   24.32   0
  -5   0   5   34.95   22.11   0
  -4  -1   8  198.68   22.61   0
  -4   0  -5  817.48   39.26   0
  -4   0   6    8.88   23.62   0
  -3  -6 -13    4.48   31.72   0
  -3  -5  12   84.56   28.34   0
  -3  -2  -9  330.48   36.17   0
  -3  -1   8  488.24   25.40   0
  -3   0   6   72.33   24.11   0
  -2  -7 -13   25.39   29.74   0
  -2  -6  12   65.66   33.71   0
  -2  -4  11   24.20   28.29   0
  -2  -2   9  474.38   29.19   0
  -1  -7 -12   98.52   36.83   0
  -1  -5 -11  377.26   27.81   0
  -1  -5  11   19.65   36.74   0
  -1  -4 -10 1233.10   42.68   0
  -1  -3  -9  247.12   27.34   0
  -1  -1   7  370.24   32.56   0
   0  -7 -11    2.86   25.92   0
   0  -5 -10  489.60   27.96   0
   0  -4  -9  650.40   26.33   0
   0  -3  -8  158.19   24.10   0
   1  -9 -10   17.91   28.89   0
   1  -8 -10    8.42   28.81   0
   1  -6  -9  636.76   29.80   0
   1  -1  -2  320.31   31.68   0
   1  -1   3 1669.55   84.91   0
   2  -9  -8  -13.15   25.68   0
   2  -9   7   18.31   28.54   0
   2  -8  -8  -19.50   24.13   0
   2  -8   7  103.48   36.14   0
   2  -7   7    1.89   30.08   0
   2  -6  -7  464.24   26.90   0
   2  -6   7  112.36   24.70   0
   2  -5  -6  310.63   34.28   0
   2  -4  -5  416.54   36.37   0
   2  -3  -4 1857.83   36.24   0
   2  -2  -1 5505.15   57.67   0
   2  -2   0  148.81   25.34   0
   2  -2   1 3320.77   51.68   0
   2  -2   2 2430.02   49.23   0
   3 -10  -4   19.71   28.47   0
   3 -10  -3   36.09   28.15   0
   3 -10  -2   10.30   37.76   0
   3 -10   1    7.80   36.20   0
   3 -10   2  -25.93   29.12   0
   3  -9  -4  -34.97   26.11   0
   3  -9  -3  138.02   32.13   0
   3  -9   3  -14.45   28.02   0
   3  -8  -4   14.78   24.72   0
   3  -8   4    5.63   28.41   0
   3  -7  -4   22.73   23.57   0
   3  -7   4   -2.14   24.42   0
   3  -6  -4  394.55   25.38   0
   3  -6  -3  383.03   32.87   0
   3  -6   3  286.71   30.06   0
   3  -5  -3  460.50   27.10   0
   3  -5  -2  510.31   28.18   0
   3  -5   2 1230.96   39.32   0
   3  -5   3   22.13   23.02   0
   3  -4   0  169.87   25.08   0
 -10  -2  -5   82.03   27.57   0
  -9  -3  -9   40.17   29.18   0
  -9  -2  -7   32.65   32.44   0
  -9  -2   7   21.80   27.00   0
  -9  -1  -4   64.61   35.62   0
  -9  -1  -3  144.22   26.75   0
  -9  -1   4    4.78   23.49   0
  -8  -2  -8   85.86   24.66   0
  -8  -2   8   40.23   27.56   0
  -8  -1   6   72.55   26.08   0
  -8   0  -1   99.73   30.10   0
  -8   0   0  145.93   27.50   0
  -8   0   1  130.95   28.53   0
  -8   0   2   28.82   26.09   0
  -7  -2   9   35.64   27.67   0
  -7  -1   7  365.44   25.49   0
  -7   0  -3  244.89   24.04   0
  -7   0   4  545.23   26.49   0
  -6  -3  11   21.86   29.43   0
  -6  -2  10  127.92   37.52   0
  -6  -1   8   26.15   22.69   0
  -6   0   6  886.38   36.60   0
  -5  -4  12    5.91   28.64   0
  -5  -3  11   54.14   27.22   0
  -5  -2  10   36.07   26.32   0
  -5   0  -5  341.91   27.90   0
  -5   0   6  526.58   26.85   0
  -5   1   0  -42.95   31.03   0
  -5   1   1 1183.88   35.97   0
  -5   1   2   25.22   30.98   0
  -4  -4  12   19.82   27.46   0
  -4  -3  11    6.41   27.79   0
  -4  -2  10    4.79   24.01   0
  -4   0   7  749.78   35.19   0
  -4   1  -1  680.26   34.78   0
  -4   1   0  669.11   28.08   0
  -4   1   1  505.18   25.70   0
  -4   1   2 1500.66   31.99   0
  -4   1   3  131.57   31.52   0
  -3  -5 -12   74.49   31.70   0
  -3  -3  11   13.23   30.87   0
  -3  -2  10   16.16   26.88   0
  -3   0  -5 1119.44   45.55   0
  -3   1  -1  679.42   34.38   0
  -3   1   0 2908.58   44.08   0
  -3   1   1  329.09   25.32   0
  -3   1   2 2919.30   41.93   0
  -3   1   3  230.37   31.21   0
  -2  -8 -13  -12.92   29.76   0
  -2  -6 -12  288.25   38.29   0
  -2  -1   8  882.86   30.51   0
  -2   0   6  137.24   24.75   0
  -1  -8 -12   -7.24   28.95   0
  -1   0   5 2501.01   45.21   0
   0  -9 -11   15.01   26.81   0
   0  -8 -11  122.60   26.81   0
   0  -6 -10   16.17   24.98   0
   0  -2  -6 1648.39   44.71   0
   0  -1   6  135.72   30.62   0
   0   0   2 8776.04  148.69   0
   1 -10  -9   38.38   28.85   0
   1  -9  -9   20.37   32.83   0
   1  -8  -9   49.45   25.78   0
   1  -8   9   29.21   34.42   0
   1  -7  -9    0.80   23.48   0
   1  -7   9   16.48   31.51   0
   1  -5  -8  442.76   26.72   0
   1  -4  -7  345.59   24.92   0
   1  -3  -6  791.12   30.35   0
   1  -2  -4 1609.05   43.45   0
   1  -1  -1  391.23   31.77   0
   2 -10  -7   19.31   25.89   0
   2 -10  -6   89.32   35.44   0
   2  -9  -7  108.84   26.40   0
   2  -8  -7    4.21   24.14   0
   2  -7  -7   66.63   25.21   0
   2  -6  -6    1.67   22.85   0
   2  -3  -3 1142.32   31.50   0
   2  -3   4 1139.06   42.42   0
   3 -10  -1   34.39   26.00   0
   3 -10   0  103.85   27.57   0
   3  -9  -2   -9.09   26.07   0
   3  -9  -1   96.36   25.77   0
   3  -9   0    4.29   25.62   0
   3  -9   1  230.67   26.96   0
   3  -9   2    5.36   27.15   0
   3  -8  -3   -0.90   22.89   0
   3  -8  -2   78.90   22.91   0
   3  -8  -1  -29.24   32.23   0
   3  -8   0  179.56   29.81   0
   3  -8   1   53.05   33.48   0
   3  -8   2   73.18   23.75   0
   3  -8   3   53.58   25.34   0
   3  -7  -3  204.74   24.38   0
   3  -7  -2   -6.58   22.73   0
   3  -7  -1  194.06   30.75   0
   3  -7   2  133.97   30.95   0
   3  -7   3   48.32   23.56   0
   3  -6  -2  413.97   25.58   0
   3  -6  -1   20.42   22.64   0
   3  -6   0  296.54   31.34   0
   3  -6   1  726.69   33.77   0
   3  -6   2  113.90   22.65   0
   3  -5  -1  442.20   27.46   0
   3  -5   0  617.20   29.17   0
   3  -5   1  234.99   23.89   0
 -10  -1  -2   56.83   31.61   0
 -10  -1  -1    0.44   26.13   0
 -10  -1   0   30.65   26.15   0
 -10  -1   1   -2.53   27.06   0
 -10  -1   2   39.35   27.29   0
  -9  -1  -5  119.92   31.81   0
  -9  -1   5   22.71   25.67   0
  -9  -1   6  -40.83   29.97   0
  -8  -3 -10   -1.97   32.38   0
  -8  -2   9   68.36   29.71   0
  -8  -1  -6    1.64   24.44   0
  -8  -1   7   45.09   24.70   0
  -8   0  -2  257.43   27.43   0
  -8   0   3    3.70   22.13   0
  -8   0   4  149.55   24.10   0
  -7  -2  -9   24.95   32.51   0
  -7  -2  10  120.24   29.69   0
  -7  -1  -7  306.00   34.04   0
  -7  -1   8   43.48   25.34   0
  -7   0  -4  257.33   24.24   0
  -7   0   5   33.95   22.38   0
  -7   0   6  537.12   35.43   0
  -6  -1   9  157.57   25.58   0
  -6   0  -5    8.15   22.64   0
  -6   0   7    8.88   30.23   0
  -6   1   0  109.58   31.37   0
  -6   1   1 1404.63   32.01   0
  -6   1   2  -21.46   28.31   0
  -5  -1   9   98.95   26.07   0
  -5   0   7   19.24   21.71   0
  -5   1  -1  261.25   24.40   0
  -5   1   3  600.53   28.07   0
  -5   1   4  181.77   32.51   0
  -4  -6 -13   13.10   32.42   0
  -4  -1   9   35.42   24.16   0
  -4   1  -2 2276.64   39.57   0
  -4   1   4   13.77   22.18   0
  -3  -7 -13   14.09   28.02   0
  -3  -4 -11  348.30   35.16   0
  -3  -4  12   -2.00   25.85   0
  -3  -3 -10  550.38   37.94   0
  -3  -1   9  140.45   21.48   0
  -3   0   7 1292.73   31.52   0
  -3   1   4 1380.47   31.71   0
  -2  -5 -11  599.35   32.83   0
  -2  -5  12   27.72   33.80   0
  -2   1   0 4060.82   59.03   0
  -2   1   1  148.56   29.67   0
  -2   1   2 2079.95   41.69   0
  -1  -9 -12  159.89   29.60   0
  -1  -6 -11  148.41   27.50   0
  -1  -3  10   91.83   31.80   0
  -1  -2   9  319.48   33.54   0
   0  -8 -10   29.72   33.12   0
   0  -7 -10  321.17   26.84   0
   0  -5  -9   92.70   24.10   0
   0  -4  -8  565.58   35.90   0
   0  -3  -7  971.80   40.70   0
   0  -1  -4   57.11   23.95   0
   1 -10  -8   -4.28   37.69   0
   1  -7  -8  531.84   34.22   0
   1  -6  -8   21.61   22.70   0
   1  -5  -7   32.55   32.82   0
   2 -10  -5  -10.25   23.86   0
   2 -10   5   13.10   33.80   0
   2  -9  -6   61.41   25.22   0
   2  -9   6   79.00   27.97   0
   2  -8  -6   38.92   24.65   0
   2  -7  -6  123.74   23.94   0
   2  -6  -5  608.24   35.65   0
   2  -5  -5  284.68   26.01   0
   2  -5   6  401.65   29.24   0
   2  -4  -4   42.95   24.40   0
   2  -4   5  216.32   33.31   0
   2  -3  -2 2460.68   40.41   0
   3  -7   0  172.05   23.03   0
   3  -7   1  208.45   25.18   0
 -10  -1  -3   34.38   27.50   0
  -9   0  -1  122.55   30.33   0
  -9   0   0  -12.67   25.06   0
  -9   0   1   76.35   25.68   0
  -9   0   2  -24.70   24.34   0
  -9   0   3    8.11   30.38   0
  -8  -1   8    3.99   28.10   0
  -8   0  -3  273.08   27.28   0
  -8   0   5   61.76   24.28   0
  -8   0   6   16.29   29.85   0
  -7  -1   9   72.36   28.67   0
  -7   0  -5   31.55   26.40   0
  -7   0   7  104.96   23.42   0
  -7   1   0   47.46   29.24   0
  -7   1   1  707.24   31.58   0
  -7   1   2   24.17   30.84   0
  -6  -2  11  -14.82   27.91   0
  -6   1  -2   83.70   27.90   0
  -6   1  -1  476.89   25.72   0
  -6   1   3  887.07   28.00   0
  -6   1   4  -13.07   22.85   0
  -5  -3  12    6.68   27.65   0
  -5  -2  11   54.44   29.04   0
  -5  -1  10   38.50   35.49   0
  -5   0   8  121.66   23.32   0
  -5   1  -2  658.11   27.17   0
  -5   1   5  290.46   24.41   0
  -4  -5 -12   48.43   29.38   0
  -4  -3  12  -12.76   32.11   0
  -4  -2  11  148.62   27.83   0
  -4  -1  10  107.56   31.90   0
  -4   0   8   -5.31   21.65   0
  -4   1   5  192.29   25.88   0
  -3  -8 -13  -31.73   35.26   0
  -3   0   8   48.49   29.78   0
  -3   1  -2 3936.34   54.72   0
  -3   1   5    8.30   23.41   0
  -2  -7 -12   25.03   28.03   0
  -2  -4 -10  549.22   37.56   0
  -2  -3  11    8.60   23.38   0
  -2  -2  -8  936.41   36.22   0
  -2  -2  10   73.09   23.96   0
  -2  -1   9   -8.57   31.14   0
  -2   0   7 1125.53   32.71   0
  -2   1  -1  314.82   38.54   0
  -2   1   3  344.67   26.62   0
  -2   1   4 5718.02   61.51   0
  -1  -9 -11   -1.65   32.41   0
  -1  -8 -11   56.26   32.18   0
  -1  -7 -11  188.49   26.52   0
  -1  -5 -10   93.96   24.03   0
  -1  -4  -9  302.08   34.09   0
  -1  -2  -7    3.75   23.22   0
  -1  -1   8  533.44   34.24   0
  -1   0   6  249.16   33.63   0
   0 -10 -10    2.00   29.94   0
   0  -9 -10   42.50   28.02   0
   0  -6  -9   88.81   25.47   0
   0   0   3  173.05   40.95   0
   1  -9  -8   68.77   23.58   0
   1  -8  -8    8.35   23.13   0
   1  -6  -7  957.14   38.09   0
   1  -4  -6    6.12   23.82   0
   1  -3  -5  375.21   26.53   0
   1  -2  -3  152.50   26.95   0
   1  -1   0 2561.51   58.81   0
   1  -1   2 1816.39   69.84   0
   2 -11  -3   12.49   27.85   0
   2 -11  -2    5.20   26.82   0
   2 -11  -1    2.60   35.98   0
   2 -11   0    1.79   32.77   0
   2 -10  -4  144.44   26.69   0
   2 -10  -3   48.75   31.48   0
   2 -10   4  -20.35   32.96   0
   2  -9  -5   74.67   25.03   0
   2  -9  -4   49.83   32.28   0
   2  -9   5   -0.51   31.62   0
   2  -8  -5   94.92   24.18   0
   2  -7  -5   26.32   24.56   0
   2  -6  -4  -10.93   31.70   0
   2  -6   6    0.84   24.55   0
   2  -5  -4  634.19   29.32   0
   2  -4  -3  796.00   28.79   0
   2  -3  -1    8.92   22.91   0
   2  -3   0 2329.85   46.47   0
   2  -3   2  754.53   35.51   0
 -10  -1  -4    1.56   27.28   0
  -9  -2  -8   -0.06   28.75   0
  -9  -1  -6    4.41   27.59   0
  -9   0  -3   20.75   35.26   0
  -9   0  -2   11.79   25.25   0
  -9   0   4    0.39   24.21   0
  -9   0   5   20.28   25.48   0
  -8  -1  -7   27.76   31.32   0
  -8   0  -4   47.33   26.52   0
  -8   0   7   13.02   29.71   0
  -7  -1  10   68.03   34.25   0
  -7   0   8   76.59   25.70   0
  -7   1  -2   43.34   28.92   0
  -7   1  -1  562.70   27.38   0
  -7   1   3  458.47   24.54   0
  -7   1   4  -14.95   21.43   0
  -7   1   5  360.87   30.93   0
  -6  -1  10   11.14   25.93   0
  -6   0   8   30.64   23.26   0
  -6   1  -3  604.46   32.96   0
  -6   1   5  370.41   25.84   0
  -6   1   6   53.91   30.76   0
  -5  -6 -13    5.34   27.92   0
  -5   0  -6   77.03   31.68   0
  -5   0   9   26.62   31.43   0
  -5   1  -3  612.07   26.73   0
  -5   1   6   15.35   21.60   0
  -4  -7 -13   33.37   33.26   0
  -4  -4  13   29.63   28.55   0
  -4   0   9   83.96   29.40   0
  -4   1  -3  254.16   24.68   0
  -4   1   6  434.96   27.00   0
  -3  -6 -12  361.95   29.44   0
  -3  -3  12   92.36   34.54   0
  -3  -2  11   54.31   25.00   0
  -3  -1  10  295.96   30.60   0
  -3   1   6 2072.46   36.06   0
  -2  -9 -12   29.21   29.46   0
  -2  -8 -12  237.20   31.12   0
  -2  -6 -11   -3.90   32.10   0
  -2  -4  12   40.03   31.90   0
  -2  -3  -9  269.27   27.28   0
  -2   1   5   69.67   31.42   0
  -1  -6 -10   28.58   25.05   0
  -1  -4  11   18.76   32.04   0
  -1  -3  -8  113.93   22.18   0
   0 -10  -9    8.35   29.39   0
   0  -9  -9   13.27   26.82   0
   0  -8  -9  -14.59   23.79   0
   0  -7  -9  -13.44   25.30   0
   0  -5  -8   90.20   24.95   0
   0  -3   9  726.94   49.52   0
   0  -2   8  856.53   48.12   0
   1 -11  -6   20.37   26.35   0
   1 -10  -7   24.80   23.94   0
   1  -9  -7  106.92   25.13   0
   1  -9   8  -13.42   28.76   0
   1  -8  -7   55.06   25.44   0
   1  -7  -7    7.57   23.54   0
   1  -5  -6  932.23   31.35   0
   1  -3  -4  621.88   36.36   0
   2 -10  -2   28.59   26.58   0
   2 -10  -1    9.64   25.42   0
   2 -10   0  104.18   33.68   0
   2 -10   1   65.40   33.00   0
   2 -10   2   -0.52   32.25   0
   2 -10   3   -4.71   26.76   0
   2  -9  -3  -35.46   23.25   0
   2  -9   4    1.25   25.57   0
   2  -8  -4  -35.45   22.93   0
   2  -8  -3  193.60   31.06   0
   2  -8   5   53.40   30.90   0
   2  -7  -4  525.20   25.94   0
   2  -7  -3  -14.11   29.71   0
   2  -7   5   34.54   29.79   0
   2  -6  -3  971.51   37.11   0
   2  -5  -3   96.25   26.52   0
   2  -4  -2   21.41   23.49   0
   2  -4  -1  797.61   35.16   0
   2  -3   1 1218.74   34.33   0
 -10   0  -1   50.68   27.03   0
  -9   0  -4   46.44   35.52   0
  -9   0   6   23.04   23.99   0
  -8  -2  -9    1.80   29.89   0
  -8   0  -5  181.42   26.33   0
  -8   0   8   33.08   27.17   0
  -8   1  -1  104.12   25.85   0
  -8   1   0   39.79   23.06   0
  -8   1   1    7.35   23.18   0
  -8   1   2   31.56   25.15   0
  -8   1   3   52.05   21.65   0
  -8   1   4   35.33   22.83   0
  -8   1   5    4.65   30.59   0
  -7   0   9   -1.28   35.15   0
  -7   1  -3  361.30   30.41   0
  -7   1   6  141.30   23.63   0
  -6  -6 -13   49.43   35.90   0
  -6  -1  -8  237.20   38.10   0
  -6  -1  11   43.86   34.49   0
  -6   0  -6   45.23   24.25   0
  -6   0   9   11.57   24.40   0
  -6   1   7  410.73   26.64   0
  -5  -2  12   11.66   27.79   0
  -5  -1  -8  535.87   48.72   0
  -5  -1  11   41.54   26.88   0
  -5   1   7  457.81   25.80   0
  -4  -8 -13   21.59   33.62   0
  -4  -4 -11  132.99   28.14   0
  -4  -2  -9  398.13   47.25   0
  -4  -2  12   13.02   34.55   0
  -4  -1  11  -14.78   29.06   0
  -4   0  -6    4.30   33.56   0
  -4   1   7  213.02   25.30   0
  -3  -7 -12    6.88   33.29   0
  -3  -5 -11  232.90   35.74   0
  -3   0   9  362.17   24.83   0
  -3   1  -3   51.23   21.45   0
  -3   1   7    2.57   30.80   0
  -2  -7 -11  452.55   35.29   0
  -2   0   8   13.46   20.04   0
  -1 -10 -10   20.80   27.78   0
  -1  -9 -10  -46.34   35.61   0
  -1  -8 -10   20.14   32.14   0
  -1  -7 -10  163.91   26.87   0
  -1  -5  -9   61.77   30.09   0
  -1  -1  -5 3477.93   71.85   0
  -1   0   7   65.23   29.29   0
  -1   1   2  335.31   41.33   0
   0 -11  -8   83.99   28.57   0
   0 -10  -8  -21.97   31.88   0
   0  -8  10   20.46   37.52   0
   0  -6  -8   39.64   22.83   0
   0  -4  -7  562.30   27.22   0
   0  -3  -6  615.15   28.75   0
   0  -2  -5 1057.67   33.10   0
   0   0   4 5529.25   91.92   0
   1 -11  -5   47.14   25.20   0
   1 -10  -6  123.81   26.56   0
   1 -10  -5  225.51   31.48   0
   1  -9  -6   73.96   23.94   0
   1  -8  -6   -3.37   22.42   0
   1  -8   8    6.21   25.26   0
   1  -7  -6  138.72   23.79   0
   1  -7   8  -15.97   32.41   0
   1  -6  -6   70.40   24.13   0
   1  -5   8  296.09   40.06   0
   1  -4  -5  704.97   28.09   0
   1  -2  -2 2265.67   45.94   0
   2  -9  -2   -4.98   22.95   0
   2  -9  -1   48.22   22.88   0
   2  -9   0   22.42   23.09   0
   2  -9   1   -4.36   29.31   0
   2  -9   2   -4.73   23.09   0
   2  -9   3   12.74   23.69   0
   2  -8  -2    0.37   22.36   0
   2  -8  -1   56.81   26.78   0
   2  -8   3  156.88   30.03   0
   2  -8   4   11.81   22.83   0
   2  -7  -2   65.08   22.45   0
   2  -7   4  271.51   32.37   0
   2  -6  -2  336.04   25.53   0
   2  -5  -2  632.00   27.60   0
   2  -5  -1  980.21   36.54   0
   2  -5   4  337.24   34.21   0
   2  -4   0   18.64   23.84   0
   2  -4   1 1376.94   40.63   0
   2  -4   2  800.27   37.22   0
   2  -4   3  602.72   27.83   0
  -9  -1  -7  -27.00   34.84   0
  -9   1   0  181.73   25.74   0
  -9   1   1  -29.41   28.87   0
  -9   1   2   70.92   26.04   0
  -9   1   3  -12.33   27.07   0
  -9   1   4   16.37   33.28   0
  -8   1  -2   55.60   23.56   0
  -8   1   6  175.63   26.98   0
  -7  -1  -8   -9.14   28.15   0
  -7   0  -6  206.36   25.35   0
  -7   1   7   75.92   25.86   0
  -6   0  10  163.19   28.83   0
  -6   1  -4   -2.72   22.98   0
  -6   1   8   26.13   22.27   0
  -6   2   0  737.69   34.12   0
  -6   2   1  -21.00   21.63   0
  -6   2   2  957.95   28.00   0
  -6   2   3   12.85   22.99   0
  -6   2   4  340.16   30.57   0
  -5  -7 -13   -8.27   39.55   0
  -5  -5 -12   15.74   32.34   0
  -5   0  10  122.01   26.88   0
  -5   1  -4  452.17   26.82   0
  -5   1   8   20.72   21.79   0
  -5   2   0  235.76   22.71   0
  -5   2   1   89.50   23.52   0
  -5   2   2 1114.80   30.21   0
  -5   2   3  -24.90   22.74   0
  -5   2   4  340.22   24.98   0
  -5   2   5   49.56   30.31   0
  -4  -6 -12   98.93   35.12   0
  -4  -3 -10  581.57   40.58   0
  -4  -3  13   28.31   27.80   0
  -4   0  10   31.93   25.68   0
  -4   1  -4 1858.88   45.08   0
  -4   1   8   48.79   21.86   0
  -4   2   0  452.94   26.69   0
  -4   2   1   36.50   23.34   0
  -4   2   2  561.37   27.42   0
  -4   2   3   91.92   22.81   0
  -4   2   4  234.66   25.54   0
  -4   2   5   52.38   29.97   0
  -3  -9 -12    9.94   38.78   0
  -3  -8 -12   93.43   29.55   0
  -3  -4  13   28.79   31.97   0
  -3  -1  11    1.09   27.44   0
  -3   2   2  434.18   26.46   0
  -3   2   3 1819.06   40.34   0
  -2 -10 -11   26.11   30.15   0
  -2  -9 -11   36.36   27.73   0
  -2  -8 -11   59.14   29.20   0
  -2  -5 -10   10.92   23.92   0
  -2  -2  11   21.81   23.16   0
  -2  -1  10  352.76   26.11   0
  -2   1  -2 1419.06   46.07   0
  -2   1   6 2865.16   43.08   0
  -1 -11  -9   18.22   34.66   0
  -1  -6  -9    0.35   31.58   0
  -1  -4  -8  777.54   35.25   0
  -1  -2  10  196.02   32.61   0
  -1  -1   9  605.66   37.17   0
  -1   1   1  436.30   32.69   0
  -1   1   3  819.56   37.14   0
  -1   1   4 3666.19   55.69   0
   0 -11  -7   43.46   25.29   0
   0  -9  -8   15.61   22.70   0
   0  -8  -8   17.90   20.99   0
   0  -7  -8  498.34   25.91   0
   0  -5  -7   16.06   22.76   0
   0  -1  -3  317.76   32.31   0
   0  -1   7  506.47   36.19   0
   1 -11  -4   46.12   27.38   0
   1 -11  -3    2.37   25.94   0
   1 -10  -4   -3.35   28.90   0
   1 -10   6   25.94   27.24   0
   1  -9  -5   -6.85   24.22   0
   1  -9   7   -0.18   24.75   0
   1  -8  -5  394.47   32.78   0
   1  -7  -5   19.65   28.08   0
   1  -6  -5  707.57   34.78   0
   1  -6   8   24.12   30.25   0
   1  -5  -5   25.14   23.24   0
   1  -4  -4  -14.75   22.86   0
   1  -3  -3   25.83   24.05   0
   2  -8   0    6.64   23.44   0
   2  -8   1  400.59   26.42   0
   2  -8   2   17.47   24.24   0
   2  -7  -1   61.19   22.94   0
   2  -7   0  277.60   23.27   0
   2  -7   1   19.32   28.43   0
   2  -7   2  517.41   31.47   0
   2  -7   3  243.43   24.23   0
   2  -6  -1  552.67   26.74   0
   2  -6   0   23.54   22.55   0
   2  -6   1 1048.33   34.51   0
   2  -6   2   65.56   27.34   0
   2  -6   3  412.57   32.54   0
   2  -6   4  122.74   24.40   0
   2  -5   0 1116.69   31.11   0
   2  -5   1  -14.36   28.82   0
   2  -5   2 1075.32   37.56   0
   2  -5   3    6.22   20.22   0
  -9   0  -5   86.29   28.33   0
  -9   1  -2   45.46   33.60   0
  -9   1  -1   16.18   25.44   0
  -8  -1  -8   36.88   31.33   0
  -8   0  -6  300.91   29.08   0
  -8   1  -3   10.30   24.12   0
  -8   1   7  -17.68   24.63   0
  -7   0  10  -14.54   28.82   0
  -7   1  -4   30.60   23.50   0
  -7   1   8  -52.13   25.43   0
  -7   2   0  426.90   26.74   0
  -7   2   1    4.40   22.18   0
  -7   2   2  267.10   22.02   0
  -7   2   3   18.11   23.77   0
  -7   2   4   52.74   23.91   0
  -7   2   5   52.86   30.95   0
  -6   0  11   15.16   33.89   0
  -6   1   9   36.50   26.77   0
  -6   2  -1   20.80   21.33   0
  -6   2   5    7.25   20.88   0
  -6   2   6  295.07   29.61   0
  -5  -1  12   12.27   25.18   0
  -5   0  11    2.37   30.83   0
  -5   1   9  115.53   25.70   0
  -5   2  -1   -3.78   20.82   0
  -5   2   6  811.06   28.80   0
  -4   1   9  349.47   33.48   0
  -4   2  -1   -4.94   23.12   0
  -4   2   6  640.59   28.79   0
  -3  -6 -11  130.41   32.03   0
  -3  -4 -10   64.39   24.16   0
  -3  -3  13   15.14   31.16   0
  -3  -2  12   17.27   23.11   0
  -3   0  10   12.04   21.98   0
  -3   1   8 1015.80   30.92   0
  -3   2   0  110.81   22.54   0
  -3   2   1 1463.03   33.43   0
  -3   2   4  113.30   23.61   0
  -3   2   5  651.01   28.17   0
  -2  -6 -10   71.62   24.44   0
  -2  -4  -9   16.53   24.82   0
  -2  -3  12  -10.55   25.72   0
  -2   0   9 1746.29   37.38   0
  -2   1   7  520.77   27.30   0
  -1 -10  -9   50.62   28.00   0
  -1  -9  -9   38.64   25.28   0
  -1  -8  -9   12.95   23.07   0
  -1  -7  -9   14.27   23.94   0
  -1  -3  -7  479.11   27.25   0
  -1  -3  11   40.95   29.82   0
  -1  -2  -6 3494.49   57.69   0
  -1   1   0 2733.04   65.10   0
  -1   1   5  408.88   31.83   0
   0 -11  -6   29.50   26.46   0
   0 -10  -7   26.53   25.46   0
   0  -9  -7    0.23   24.66   0
   0  -8  -7  499.29   32.01   0
   0  -7  -7    6.91   31.05   0
   0  -7  10    1.01   37.53   0
   0  -6  -7  862.10   29.85   0
   0  -4  -6  343.78   28.01   0
   0   0   5   28.90   29.47   0
   1 -11  -2   21.14   25.51   0
   1 -11  -1  -23.86   28.05   0
   1 -11   0  136.30   32.39   0
   1 -11   1   51.64   35.67   0
   1 -11   2   18.99   31.62   0
   1 -11   3   -4.83   27.55   0
   1 -10  -3  113.64   22.03   0
   1 -10   5   40.94   33.99   0
   1  -9  -4  261.55   24.23   0
   1  -9   6  172.61   32.65   0
   1  -8  -4   96.53   30.78   0
   1  -8   7  113.92   30.74   0
   1  -5  -4   -0.63   23.19   0
   1  -2  -1 6936.06   73.82   0
  -9   1  -3   25.58   27.14   0
  -8   1  -4  184.64   27.99   0
  -8   2   0   15.10   25.35   0
  -8   2   1  156.00   23.47   0
  -8   2   2   -0.16   24.54   0
  -8   2   3  162.11   25.94   0
  -8   2   4    1.08   24.29   0
  -8   2   5  190.25   25.48   0
  -7   1   9    0.64   27.23   0
  -7   2  -1    6.12   23.11   0
  -7   2   6   43.34   23.04   0
  -7   2   7  123.18   31.36   0
  -6  -5 -12   16.05   37.12   0
  -6   0  -7    8.57   28.91   0
  -6   1  -5   14.47   29.07   0
  -6   1  10   12.39   38.97   0
  -6   2  -2 1149.77   29.96   0
  -6   2   7   30.16   23.32   0
  -5  -4 -11  115.15   35.37   0
  -5   1  -5   18.70   32.25   0
  -5   1  10   40.58   34.97   0
  -5   2  -2  988.40   29.03   0
  -5   2   7   76.88   22.52   0
  -4  -8 -12   39.78   34.17   0
  -4  -7 -12   39.28   28.19   0
  -4  -5 -11   64.68   29.24   0
  -4  -2  13   10.05   27.10   0
  -4  -1  12   82.11   27.20   0
  -4   0  11  180.41   24.58   0
  -4   2  -2  622.27   34.61   0
  -4   2   7  647.01   27.60   0
  -3  -7 -11  317.50   36.43   0
  -3  -3  -9  377.87   38.42   0
  -3  -1  -7  974.17   64.80   0
  -3   1   9  272.69   23.19   0
  -3   2  -1 1347.24   41.10   0
  -3   2   6   66.19   23.29   0
  -2 -10 -10  130.90   28.62   0
  -2  -9 -10   43.37   26.28   0
  -2  -8 -10    1.34   25.80   0
  -2  -7 -10   31.81   24.84   0
  -2  -5  13   -0.44   41.12   0
  -2  -3  -8  163.00   31.92   0
  -2  -1  -6 1842.66   63.38   0
  -2   1   8 1632.28   40.23   0
  -2   2   2 2583.79   41.64   0
  -2   2   3 4665.05   51.61   0
  -2   2   4  104.59   30.56   0
  -1 -11  -8  119.14   29.85   0
  -1 -10  -8    5.16   30.50   0
  -1  -5  -8  132.03   21.97   0
  -1   0   8   93.57   20.86   0
   0 -12  -4   16.18   26.75   0
   0 -12  -3   53.18   33.30   0
   0 -11  -5   -6.91   24.14   0
   0 -10  -6  -22.29   22.92   0
   0  -9  -6  101.72   32.36   0
   0  -9   9  -12.60   33.13   0
   0  -6  10   54.58   42.40   0
   0  -5  -6 1891.41   41.65   0
   0  -3  -5 1700.15   36.92   0
   0  -2  -4  430.21   29.27   0
   1 -10  -2  112.92   24.63   0
   1 -10  -1   61.65   23.97   0
   1 -10   0   50.28   32.10   0
   1 -10   3   18.70   34.58   0
   1 -10   4   -6.45   25.50   0
   1  -9  -3  -18.13   23.17   0
   1  -9  -2  185.23   26.85   0
   1  -9   5   61.17   31.72   0
   1  -8  -3  423.73   33.98   0
   1  -7  -4 1147.82   30.33   0
   1  -7   7    2.01   32.07   0
   1  -6  -4  129.85   25.71   0
   1  -4  -3   13.31   22.92   0
   1  -4   7   19.58   28.15   0
   1  -3  -2 2557.51   42.73   0
   1  -2   5  543.83   49.16   0
  -9  -1  -8   25.17   39.55   0
  -9   0  -6   69.08   26.21   0
  -9   1  -4  113.54   37.44   0
  -9   2   0   20.35   34.72   0
  -9   2   1   39.52   26.33   0
  -9   2   2    2.19   26.29   0
  -9   2   3   75.15   29.05   0
  -8   2  -2  -11.86   30.22   0
  -8   2  -1   34.94   24.21   0
  -8   2   6   22.47   24.65   0
  -8   2   7  129.93   27.23   0
  -7   0  -7   42.72   22.97   0
  -7   1  -5  232.95   24.95   0
  -7   2  -2  166.76   25.02   0
  -7   2   8   30.79   24.64   0
  -6   2  -3   -1.94   29.31   0
  -6   2   8   85.40   22.91   0
  -6   3   2   33.93   30.32   0
  -6   3   3  110.83   29.92   0
  -6   3   4  -42.57   27.96   0
  -5  -6 -12  -19.94   26.22   0
  -5   0  12   49.07   28.78   0
  -5   2  -3  119.00   30.05   0
  -5   2   8  319.23   24.53   0
  -5   3   2   51.64   28.76   0
  -5   3   3  993.33   28.48   0
  -5   3   4  169.02   29.43   0
  -4  -9 -12   36.18   29.86   0
  -4   1  10   76.91   23.41   0
  -4   2   8  576.18   26.23   0
  -3 -10 -11   49.84   28.40   0
  -3  -9 -11   87.08   27.22   0
  -3  -8 -11    6.88   25.00   0
  -3  -5 -10   24.34   36.49   0
  -3  -2  -8 1491.24   53.80   0
  -3  -2  13   15.65   33.37   0
  -3  -1  12  133.58   25.58   0
  -3   0  11  236.91   25.02   0
  -3   1  -4 2425.59   54.91   0
  -3   2   7 1328.68   32.40   0
  -2 -11  -9   49.13   26.81   0
  -2  -5  -9  227.11   24.59   0
  -2  -4  13   21.37   34.75   0
  -2  -2  -7  142.14   30.79   0
  -2  -2  12   -7.69   29.27   0
  -2  -1  11   19.44   22.59   0
  -2   0  10   66.12   22.32   0
  -2   2   1 5507.24   58.20   0
  -2   2   5 3282.56   43.97   0
  -1 -12  -6  -17.41   24.88   0
  -1 -11  -7   44.47   24.37   0
  -1  -9  -8  175.53   24.67   0
  -1  -8  -8  110.15   22.00   0
  -1  -7  -8  126.90   21.21   0
  -1  -6  -8   18.53   20.48   0
  -1  -4  -7  319.62   34.05   0
  -1   1   6 1701.22   37.50   0
   0 -12  -2    5.11   27.11   0
   0 -12  -1   85.03   33.07   0
   0 -11  -4   62.71   26.11   0
   0 -10  -5   61.69   24.14   0
   0  -8  -6    7.95   22.51   0
   0  -7  -6 1302.09   30.31   0
   0  -6  -6   71.48   24.69   0
   1 -10   1   96.35   25.74   0
   1 -10   2   -9.44   24.09   0
   1  -9  -1    4.80   20.93   0
   1  -9   0  265.01   30.20   0
   1  -9   4   47.64   32.20   0
   1  -8  -2   18.84   21.64   0
   1  -8   6   -4.27   23.67   0
   1  -7  -3   76.80   22.55   0
   1  -6  -3  961.34   30.97   0
   1  -6   7  387.16   34.51   0
   1  -5  -3  212.98   24.12   0
   1  -5   7  323.24   35.99   0
   1  -4  -2   28.41   32.52   0
   1  -2   0 4234.38   63.89   0
  -9   2  -1   14.76   27.31   0
  -8   0  -7   56.35   25.18   0
  -8   1  -5  147.10   25.04   0
  -7  -5 -12   14.79   32.93   0
  -7   2  -3   30.49   23.00   0
  -7   2   9   -0.67   28.16   0
  -7   3   1   25.26   24.11   0
  -7   3   2  209.64   25.79   0
  -7   3   3   17.57   23.66   0
  -7   3   4   23.30   21.87   0
  -7   3   5  -35.30   25.67   0
  -6   1  11   20.97   28.00   0
  -6   2   9  -10.69   25.44   0
  -6   3   0    0.98   28.98   0
  -6   3   1  357.98   23.53   0
  -6   3   5   42.87   23.05   0
  -6   3   6    8.96   24.13   0
  -5  -7 -12   29.38   33.16   0
  -5   0  -7  635.44   44.47   0
  -5   1  11   37.14   26.82   0
  -5   2   9   -4.51   24.93   0
  -5   3   0   20.44   21.92   0
  -5   3   1 1039.04   29.58   0
  -5   3   5  255.74   25.34   0
  -5   3   6   65.27   23.41   0
  -4  -6 -11   97.74   31.78   0
  -4  -1  13    6.53   28.32   0
  -4   0  12   21.62   26.30   0
  -4   1  -5  131.93   31.19   0
  -4   1  11   40.33   32.04   0
  -4   2  -3 1095.85   37.71   0
  -4   2   9    6.80   23.61   0
  -4   3   1  399.70   25.67   0
  -4   3   2  795.72   29.55   0
  -4   3   3  940.04   29.62   0
  -4   3   4  429.50   25.28   0
  -4   3   5  421.04   25.15   0
  -4   3   6  515.64   33.72   0
  -3 -11 -10  -24.42   27.49   0
  -3  -6 -10  535.64   33.73   0
  -3   1  10  201.01   25.47   0
  -3   2  -2  355.30   32.54   0
  -3   2   8  259.16   23.86   0
  -2 -10  -9   45.17   27.70   0
  -2  -9  -9   42.06   25.38   0
  -2  -8  -9   54.01   33.11   0
  -2  -7  -9   86.41   33.04   0
  -2  -6  -9   18.32   22.14   0
  -2   1  -3  716.02   42.78   0
  -2   1   9   -1.62   20.97   0
  -2   2   0  161.89   21.82   0
  -2   2   6   49.64   23.79   0
  -2   2   7  597.39   31.68   0
  -1 -12  -5  -36.82   25.01   0
  -1 -11  -6  -18.72   24.52   0
  -1 -10  -7  141.21   22.65   0
  -1  -9  -7   93.43   33.28   0
  -1  -2  11   22.88   29.37   0
  -1  -1  10  133.95   25.08   0
  -1   0   9 1454.50   38.10   0
  -1   1   7  180.16   23.71   0
   0 -12   0   -5.06   25.91   0
   0 -12   1   41.33   26.72   0
   0 -11  -3   -0.01   23.58   0
   0 -11  -2   62.94   30.69   0
   0 -11   5   10.88   32.59   0
   0 -10  -4   -0.18   22.46   0
   0 -10   7   19.28   37.26   0
   0  -9  -5   30.88   22.22   0
   0  -9   8   72.17   34.02   0
   0  -8  -5  268.96   25.10   0
   0  -8   9    8.88   30.15   0
   0  -5  -5 1006.49   37.96   0
   0  -4  -5 1039.43   30.89   0
   0  -2   9   19.90   27.46   0
   0  -1  -2   -0.36   34.02   0
   0  -1   8    7.55   30.28   0
   0   0   6  801.67   34.27   0
   1  -9   1  106.85   23.84   0
   1  -9   2   94.80   25.35   0
   1  -9   3   -3.03   23.53   0
   1  -8  -1  372.85   23.77   0
   1  -8   0  209.05   28.93   0
   1  -8   4   -9.97   26.86   0
   1  -8   5  241.38   26.47   0
   1  -7  -2  663.81   27.09   0
   1  -7  -1   43.36   28.34   0
   1  -6  -2   42.29   21.76   0
   1  -5  -2  537.74   25.75   0
   1  -3  -1 1079.04   33.20   0
   1  -3   6   19.94   28.57   0
   1  -2   1  934.00   38.36   0
  -9   0  -7   24.53   38.24   0
  -9   1  -5   17.68   26.67   0
  -9   2  -2   15.15   26.15   0
  -8   2  -3   40.44   24.94   0
  -8   3   0   64.78   28.81   0
  -8   3   1  -14.04   25.72   0
  -8   3   2  234.54   27.86   0
  -8   3   3  -33.93   25.33   0
  -8   3   4  157.14   28.48   0
  -8   3   5   20.56   26.49   0
  -7   1  -6   15.02   31.06   0
  -7   2  -4  202.69   33.29   0
  -7   3  -1   68.59   32.47   0
  -7   3   0   41.62   22.06   0
  -7   3   6  200.22   26.46   0
  -7   3   7    5.19   24.75   0
  -6  -6 -12    0.35   35.38   0
  -6  -4 -11    1.03   33.33   0
  -6   1  -6  -14.98   32.09   0
  -6   2  -4  537.03   28.96   0
  -6   2  10   10.85   27.77   0
  -6   3  -1  448.63   26.02   0
  -6   3   7   48.82   22.86   0
  -6   3   8   61.63   29.48   0
  -5  -9 -12   60.67   29.02   0
  -5  -8 -12   19.82   28.28   0
  -5  -3 -10  371.45   40.05   0
  -5   1  12   11.68   27.45   0
  -5   2  10  130.57   24.90   0
  -5   3  -1  983.92   28.34   0
  -5   3   7  601.94   27.57   0
  -5   3   8   37.95   28.39   0
  -4 -10 -11    7.44   28.11   0
  -4  -9 -11    2.02   33.68   0
  -4  -8 -11   44.09   35.40   0
  -4  -7 -11   82.19   26.58   0
  -4  -4 -10   26.93   24.82   0
  -4   2  10  336.40   25.89   0
  -4   3   0   -7.29   21.22   0
  -4   3   7  932.88   30.06   0
  -3 -10 -10   42.87   25.26   0
  -3  -9 -10   57.44   25.15   0
  -3  -8 -10   15.53   26.11   0
  -3  -7 -10  -17.71   26.03   0
  -3  -4  -9   39.25   30.93   0
  -3  -1  13   -8.74   36.57   0
  -3   0  12   -3.76   27.13   0
  -3   1  11   14.37   31.56   0
  -3   2   9  159.79   23.32   0
  -3   3   1   86.14   31.30   0
  -3   3   2 1794.65   33.92   0
  -3   3   3  144.22   23.75   0
  -3   3   4  741.65   27.90   0
  -3   3   5 1298.52   32.90   0
  -3   3   6  381.02   26.66   0
  -2 -12  -7   68.67   27.10   0
  -2 -11  -8  131.71   26.49   0
  -2 -10  -8  123.58   31.43   0
  -2  -4  -8  263.66   25.14   0
  -2  -3  13   15.94   30.58   0
  -2  -1  12   39.01   31.11   0
  -2   0  11  161.59   22.09   0
  -1 -12  -4   10.40   22.96   0
  -1 -11  -5   91.78   29.95   0
  -1 -10  -6   82.18   23.08   0
  -1  -8  -7  810.85   29.60   0
  -1  -7  -7   98.92   23.47   0
  -1  -6  -7  240.62   26.11   0
  -1  -5  -7 1545.39   33.20   0
  -1  -3  -6   30.05   23.56   0
  -1   1  -1 3347.80   74.91   0
  -1   1   8  207.85   28.60   0
   0 -11  -1   -3.63   25.73   0
   0 -11   0   17.49   23.46   0
   0 -11   1  -17.17   31.78   0
   0 -11   2  149.66   31.59   0
   0 -11   3   -1.03   34.18   0
   0 -11   4   29.25   27.54   0
   0 -10  -3  227.28   25.86   0
   0 -10  -2   51.58   26.96   0
   0 -10   6   -1.03   31.73   0
   0  -9  -4  180.03   24.16   0
   0  -8  -4  130.72   30.37   0
   0  -7  -5  196.28   23.69   0
   0  -6  -5  451.32   28.06   0
   0  -3  -4   43.11   23.50   0
   0  -2  -3    9.36   24.65   0
   1  -8   1  501.08   26.00   0
   1  -8   2   -3.07   21.65   0
   1  -8   3  289.71   24.06   0
   1  -7   0  142.17   24.52   0
   1  -7   5    9.46   23.97   0
   1  -6  -1  868.02   29.08   0
   1  -6   6  236.94   25.03   0
   1  -5  -1   21.27   21.24   0
   1  -4  -1 2424.68   39.78   0
   1  -3   0 9992.52   78.33   0
   1  -2   4  705.71   43.33   0
  -9   2  -3  101.03   28.10   0
  -8   1  -6   33.98   27.23   0
  -8   2  -4   45.38   24.60   0
  -8   3  -1   18.38   24.57   0
  -7   3  -2   20.96   30.89   0
  -7   3   8   95.52   26.85   0
  -6   3  -2  -10.50   21.24   0
  -6   3   9   36.76   26.71   0
  -6   4   3  167.09   28.01   0
  -6   4   4  -25.15   32.60   0
  -5  -5 -11    7.43   23.66   0
  -5   2  -4  326.32   26.82   0
  -5   2  11    2.31   25.09   0
  -5   3  -2    1.40   26.28   0
  -5   3   9   99.21   25.84   0
  -5   4   3   24.13   27.89   0
  -5   4   4  103.58   30.46   0
  -4 -11 -10   32.84   34.06   0
  -4   0  13   -3.75   28.01   0
  -4   1  12   58.16   27.22   0
  -4   2  11   61.13   30.68   0
  -4   3  -1  550.82   25.30   0
  -4   3   8  340.56   25.37   0
  -3 -12  -8   29.85   39.44   0
  -3 -11  -9   65.11   28.29   0
  -3 -10  -9   -6.10   29.85   0
  -3  -2  14  -12.56   34.38   0
  -3   2  10  493.36   33.43   0
  -3   3   0   66.74   30.21   0
  -3   3   7  362.63   26.59   0
  -2 -12  -6  -25.69   25.23   0
  -2 -11  -7   69.07   26.11   0
  -2  -9  -8  128.80   25.53   0
  -2  -8  -8  514.18   33.74   0
  -2  -5  -8   46.29   21.65   0
  -2   1  10  554.69   26.98   0
  -2   2  -1 3655.04   54.87   0
  -2   2   8  207.26   24.10   0
  -2   3   4 1883.06   41.50   0
  -1 -12  -3   47.14   26.58   0
  -1 -12  -2    3.91   30.49   0
  -1 -11  -4   22.91   30.10   0
  -1 -10  -5   25.11   28.56   0
  -1  -9  -6  269.88   24.43   0
  -1  -8  -6  161.60   29.48   0
  -1  -4  -6 3866.52   53.66   0
  -1  -4  12  -10.66   38.45   0
  -1  -2  -5  266.16   26.06   0
  -1   0  10  118.96   30.17   0
  -1   2   2 1080.69   36.73   0
  -1   2   3 2106.84   41.08   0
  -1   2   4 1463.15   34.89   0
  -1   2   5 5108.42   54.33   0
   0 -10  -1  139.55   22.25   0
   0 -10   5   47.55   33.75   0
   0  -9  -3   23.32   21.60   0
   0  -9   7   14.34   33.18   0
   0  -7  -4  415.90   25.03   0
   0  -7   9   13.49   36.92   0
   0  -6  -4  905.10   35.04   0
   0  -5  -4  158.09   31.39   0
   0  -4  -4  617.63   27.37   0
   0   0   7    2.98   19.23   0
   1  -7   1   16.53   22.05   0
   1  -7   2  590.20   25.98   0
   1  -7   3  112.58   21.97   0
   1  -7   4  563.80   26.58   0
   1  -6   0   13.11   20.87   0
   1  -6   1  365.16   31.13   0
   1  -6   5  186.60   25.14   0
   1  -5   0  343.41   25.35   0
   1  -5   6  181.83   25.58   0
   1  -4   0   13.97   22.21   0
   1  -4   6  422.11   29.60   0
   1  -3   1 1349.17   41.17   0
   1  -2   3  122.02   26.17   0
  -8  -1  -9   -3.73   33.30   0
  -8   3  -2   59.55   26.38   0
  -8   4   3   23.25   38.25   0
  -7  -6 -12   17.13   33.72   0
  -7  -1  -9  -30.65   43.81   0
  -7   2  -5   17.59   28.98   0
  -7   4   1  207.31   33.04   0
  -7   4   2    4.39   24.18   0
  -7   4   3  271.69   26.93   0
  -7   4   4   43.63   25.36   0
  -7   4   5  118.42   24.60   0
  -7   4   6   32.06   24.89   0
  -7   4   7   51.96   30.99   0
  -6  -8 -12  -17.24   34.04   0
  -6  -7 -12   26.89   27.80   0
  -6   3  10   35.92   28.04   0
  -6   4   1  106.51   23.62   0
  -6   4   2   23.50   20.84   0
  -6   4   5    5.92   23.56   0
  -6   4   6   64.03   23.86   0
  -6   4   7  156.82   25.65   0
  -5 -10 -11   43.84   38.34   0
  -5  -6 -11   71.43   31.53   0
  -5   1  -6  247.20   28.13   0
  -5   2  12   60.04   34.47   0
  -5   3  10  -18.10   27.45   0
  -5   4   1    0.13   20.67   0
  -5   4   2  534.73   24.56   0
  -5   4   5   26.40   22.35   0
  -5   4   6  197.24   23.11   0
  -5   4   7    7.83   23.42   0
  -4 -10 -10   -6.84   24.92   0
  -4  -5 -10  121.28   25.42   0
  -4   2  -4  293.57   31.79   0
  -4   3  -2  122.37   27.52   0
  -4   3   9  229.81   24.84   0
  -4   4   2  785.62   34.74   0
  -4   4   3 1344.20   31.58   0
  -4   4   4  433.73   24.96   0
  -4   4   5  211.00   23.02   0
  -4   4   6  265.05   30.09   0
  -3 -11  -8   68.23   36.88   0
  -3  -9  -9   29.05   23.93   0
  -3  -5  -9  274.80   25.18   0
  -3   0  13   75.30   32.62   0
  -3   1  12  121.38   25.42   0
  -3   2  -3 3089.43   48.86   0
  -3   3   8  430.15   25.00   0
  -2 -12  -5  -13.38   24.86   0
  -2 -11  -6   19.13   29.71   0
  -2 -10  -7  122.95   22.81   0
  -2  -7  -8   -8.95   21.67   0
  -2  -6  -8  207.90   23.78   0
  -2  -3  -7  495.01   27.42   0
  -2  -2  13  156.98   26.51   0
  -2   0  12    8.05   28.07   0
  -2   1  11   55.18   28.36   0
  -2   2   9  529.32   26.50   0
  -2   3   2 2435.92   39.89   0
  -2   3   3 1101.30   30.47   0
  -2   3   5  382.01   24.80   0
  -2   3   6  569.16   26.84   0
  -1 -12  -1    5.10   25.19   0
  -1 -12   0   61.21   32.53   0
  -1 -11  -3   -2.71   20.69   0
  -1 -10  -4   94.82   29.51   0
  -1  -9  -5   23.12   22.44   0
  -1  -7  -6  297.90   25.14   0
  -1  -6  -6   13.27   22.50   0
  -1  -5  -6  824.34   29.43   0
  -1  -3  12   42.91   36.39   0
  -1  -1  -4  399.25   34.89   0
  -1  -1  11   -4.81   22.95   0
  -1   1   9  258.45   31.05   0
  -1   2   6  232.05   24.43   0
  -1   2   7  141.23   29.41   0
   0 -10   0   85.18   23.11   0
   0 -10   1  257.63   23.80   0
   0 -10   2    4.96   23.31   0
   0 -10   3  108.37   22.98   0
   0 -10   4  116.72   24.76   0
   0  -9  -2  793.85   27.33   0
   0  -9  -1   60.48   26.20   0
   0  -9   6   51.25   32.72   0
   0  -8  -3  861.70   27.38   0
   0  -8   8  -15.12   23.22   0
   0  -7  -3  157.57   29.93   0
   0  -3  -3  133.83   30.78   0
   1  -6   2   23.50   19.54   0
   1  -6   3  527.05   24.93   0
   1  -6   4   20.90   22.60   0
   1  -5   1  695.54   28.25   0
   1  -5   2  620.41   34.41   0
   1  -5   4  891.05   34.53   0
   1  -4   1  920.78   30.58   0
   1  -4   5  686.94   36.27   0
   1  -3   2  835.27   37.86   0
   1  -3   5  985.45   41.82   0
  -8   0  -8   -9.87   38.55   0
  -8   2  -5   26.97   27.14   0
  -8   3  -3   10.99   35.31   0
  -8   4   1   26.79   27.98   0
  -8   4   2   25.79   25.97   0
  -7   0  -8   -2.67   38.26   0
  -7   3  -3   34.90   26.26   0
  -7   4   0   22.75   25.49   0
  -6   2  -5   24.68   24.49   0
  -6   3  -3  610.60   27.95   0
  -6   4   0   41.65   23.26   0
  -6   4   8   74.73   24.27   0
  -6   4   9  -19.31   37.95   0
  -5  -9 -11   53.14   30.38   0
  -5  -8 -11   30.79   25.96   0
  -5  -7 -11   18.32   24.80   0
  -5   3  -3 1046.73   36.00   0
  -5   3  11  151.16   29.55   0
  -5   4   0  335.41   25.08   0
  -5   4   8  219.89   23.82   0
  -5   4   9  -27.71   31.02   0
  -4 -11  -9   11.91   39.16   0
  -4  -9 -10   20.29   25.27   0
  -4  -8 -10   28.67   24.02   0
  -4  -7 -10   41.42   27.79   0
  -4  -6 -10  541.23   27.67   0
  -4  -3  -9  121.44   25.68   0
  -4   1  13   53.24   27.63   0
  -4   2  12  156.46   27.79   0
  -4   3  10   22.35   24.40   0
  -4   4   1 1067.74   30.24   0
  -4   4   7  249.81   24.04   0
  -4   4   8  531.46   31.15   0
  -3 -12  -7   34.18   27.28   0
  -3 -10  -8  185.94   32.11   0
  -3  -8  -9    2.52   24.18   0
  -3  -7  -9  513.59   27.47   0
  -3  -6  -9   -8.58   21.91   0
  -3  -3  -8   33.73   30.82   0
  -3  -1  14   39.04   27.40   0
  -3   2  11  135.57   25.36   0
  -3   3  -1   66.31   22.52   0
  -3   3   9  476.61   25.79   0
  -3   4   3 2256.36   37.91   0
  -3   4   4  700.17   28.62   0
  -3   4   5  103.76   23.18   0
  -3   4   6  667.99   31.76   0
  -2 -13  -3  -38.25   26.11   0
  -2 -13  -2   -3.47   27.81   0
  -2 -12  -4   14.27   23.27   0
  -2 -10  -6   54.42   32.71   0
  -2  -9  -7  635.93   26.25   0
  -2  -8  -7    8.57   29.12   0
  -2  -1  13   19.54   34.23   0
  -2   2  10    6.59   21.86   0
  -2   3   1    9.89   22.45   0
  -2   3   7   20.53   22.55   0
  -2   3   8  118.72   30.81   0
  -1 -12   1   -8.05   25.25   0
  -1 -12   2    0.37   25.48   0
  -1 -12   3   -3.44   26.30   0
  -1 -11  -2   23.65   20.91   0
  -1 -11   6   64.04   32.31   0
  -1 -10  -3  224.49   29.23   0
  -1  -8  -5  185.63   23.59   0
  -1   2   1 6805.64   72.96   0
   0  -9   0  288.20   22.19   0
   0  -9   1  151.05   30.39   0
   0  -9   5  -15.59   23.76   0
   0  -8  -2    3.44   20.34   0
   0  -6  -3  174.18   23.77   0
   0  -6   9  109.95   32.39   0
   0  -5  -3  232.34   24.24   0
   0  -4  -3  186.06   23.36   0
   0  -1   9 1256.87   47.21   0
   0   0   8  381.12   32.60   0
   0   1   3  279.31   31.09   0
   0   1   4   64.10   23.50   0
   0   1   5 1951.10   45.67   0
   1  -5   3   38.77   20.55   0
   1  -4   2 1410.85   35.15   0
   1  -4   3 1339.86   36.24   0
   1  -3   4 1968.84   46.46   0
  -8   1  -7  124.70   36.68   0
  -8   4  -1    0.34   36.27   0
  -8   4   0   -2.02   26.43   0
  -7  -7 -12   -3.03   30.73   0
  -7  -4 -11    5.03   38.39   0
  -7   1  -7  164.81   34.57   0
  -7   4  -1   45.97   25.27   0
  -7   5   4   -1.65   33.28   0
  -7   5   5   58.12   31.45   0
  -6  -5 -11    5.87   26.03   0
  -6   4  -1   27.16   22.60   0
  -6   5   3   27.50   34.20   0
  -6   5   4   25.64   27.18   0
  -6   5   5   52.00   31.25   0
  -6   5   6   12.31   32.35   0
  -5 -11 -10    4.35   27.94   0
  -5  -4 -10    7.82   33.56   0
  -5  -2  -9  171.11   37.00   0
  -5   2  -5  165.65   24.98   0
  -5   4  -1   11.83   21.98   0
  -5   4  10   -5.24   32.35   0
  -5   5   4    1.29   31.22   0
  -5   5   5   46.01   31.69   0
  -4 -12  -8   19.01   29.87   0
  -4 -10  -9    7.65   30.10   0
  -4   2  13    6.97   33.66   0
  -4   3  11   11.74   26.87   0
  -4   4   0  383.57   24.68   0
  -4   4   9   38.82   25.03   0
  -3 -13  -5  -11.20   25.26   0
  -3 -12  -6  -21.59   23.89   0
  -3 -11  -7   60.00   26.05   0
  -3  -9  -8    2.73   21.54   0
  -3   1  13  -13.40   26.49   0
  -3   2  12  -17.76   31.07   0
  -3   3  10  -26.88   24.33   0
  -3   4   1  554.74   34.31   0
  -3   4   2  258.12   24.07   0
  -3   4   7  537.15   25.98   0
  -3   4   8   72.50   28.93   0
  -2 -13  -1   -2.14   27.60   0
  -2 -12  -3   11.96   23.85   0
  -2 -11  -5   74.32   25.45   0
  -2  -9  -6   45.47   30.05   0
  -2  -7  -7  639.14   26.64   0
  -2  -6  -7    6.73   27.62   0
  -2  -5  -7 1560.57   39.63   0
  -2  -4  -7   18.13   21.24   0
  -2   1  12    4.87   29.07   0
  -2   2  -2 2304.86   48.15   0
  -2   3   0 2230.26   38.41   0
  -2   3   9  120.84   29.83   0
  -1 -11  -1   23.03   25.39   0
  -1 -11   0   -6.94   22.77   0
  -1 -11   1   35.72   30.26   0
  -1 -11   4   44.69   31.48   0
  -1 -11   5   -9.74   26.89   0
  -1 -10  -2   38.23   28.80   0
  -1  -9  -4  224.89   23.63   0
  -1  -9   9   42.67   34.06   0
  -1  -7  -5   20.54   22.50   0
  -1  -7  11   16.24   34.16   0
  -1  -6  -5  132.88   31.40   0
  -1  -4  -5  170.92   31.72   0
  -1  -3  -5 1717.50   37.69   0
  -1  -2  12   -2.80   28.72   0
  -1   0  11   25.31   30.55   0
  -1   1  10  954.23   32.85   0
  -1   2   8  484.32   25.24   0
   0  -9   2  310.81   24.46   0
   0  -9   3  -22.31   23.32   0
   0  -9   4   91.50   24.16   0
   0  -8  -1  800.52   28.01   0
   0  -8   0   -9.89   21.81   0
   0  -8   6   28.71   30.69   0
   0  -7  -2 1145.96   30.43   0
   0  -7   8   73.42   23.41   0
   0  -6  -2  964.49   36.40   0
   0  -2  -2   67.80   27.01   0
   0   1   6   60.25   21.92   0
  -8   3  -4    4.41   28.38   0
  -8   4  -2   -3.30   33.14   0
  -7   2  -6  164.88   29.16   0
  -7   3  -4    5.14   23.69   0
  -7   4  -2   24.27   25.01   0
  -7   5   1   39.54   31.19   0
  -7   5   2   48.90   28.52   0
  -7   5   3   27.75   24.77   0
  -6  -9 -11   -6.99   34.99   0
  -6  -6 -11   17.66   31.31   0
  -6  -3 -10   19.69   32.87   0
  -6   0  -8  506.66   48.54   0
  -6   1  -7  167.38   34.23   0
  -6   3  -4   13.29   21.67   0
  -6   4  -2  193.54   27.83   0
  -6   5   1   44.63   29.43   0
  -6   5   2  224.27   24.54   0
  -6   5   7    5.89   26.55   0
  -6   5   8   20.03   26.63   0
  -5 -10 -10   18.97   27.55   0
  -5  -9 -10   37.26   35.48   0
  -5   4  -2  847.79   32.66   0
  -5   4  11   30.79   28.63   0
  -5   5   2  -23.98   20.39   0
  -5   5   3  207.76   23.02   0
  -5   5   6   -2.86   23.19   0
  -5   5   7   37.37   28.73   0
  -5   5   8   -2.25   24.62   0
  -4 -12  -7  -30.77   32.56   0
  -4 -11  -8   -8.39   26.28   0
  -4  -9  -9   38.79   25.82   0
  -4  -4  -9  620.49   40.48   0
  -4   3  -3  706.22   28.50   0
  -4   3  12   -6.61   26.59   0
  -4   4  -1  590.83   24.73   0
  -4   4  10   12.19   25.50   0
  -4   5   3  468.51   26.09   0
  -4   5   4   15.64   23.60   0
  -4   5   5  181.55   23.27   0
  -4   5   6  -10.75   22.19   0
  -4   5   7  368.28   31.66   0
  -3 -13  -4    9.95   25.09   0
  -3 -12  -5  -14.43   24.02   0
  -3 -11  -6   42.03   28.60   0
  -3 -10  -7   -9.10   23.02   0
  -3  -8  -8  560.80   26.66   0
  -3  -7  -8  255.06   31.18   0
  -3  -4  -8  114.24   25.45   0
  -3   0  14    4.65   28.11   0
  -3   1  -5  720.31   41.64   0
  -3   3  -2 1276.62   33.11   0
  -3   3  11   45.03   26.24   0
  -3   4   0  185.65   30.13   0
  -3   4   9   57.86   23.84   0
  -2 -12  -2   53.54   25.90   0
  -2 -12  -1    6.65   30.43   0
  -2 -11  -4   17.26   23.01   0
  -2 -10  -5    9.50   20.76   0
  -2  -8  -6  371.62   32.03   0
  -2  -3  14   -3.97   39.55   0
  -2  -2  -6 2358.58   48.65   0
  -2   0  13   -7.84   28.22   0
  -2   2  11  130.11   24.04   0
  -2   3  10  199.43   30.52   0
  -2   4   3  858.58   27.71   0
  -2   4   4   70.97   22.11   0
  -2   4   5  329.59   24.68   0
  -2   4   6  716.70   28.60   0
  -2   4   7  376.23   31.43   0
  -1 -11   2  253.33   25.77   0
  -1 -11   3   97.75   24.94   0
  -1 -10  -1    4.18   20.32   0
  -1 -10   7   43.65   25.81   0
  -1  -9  -3   52.29   21.83   0
  -1  -8  -4   75.12   22.22   0
  -1  -8  10    8.26   31.60   0
  -1  -5  -5 4242.63   48.22   0
  -1  -1  12   21.46   30.50   0
  -1   2   0 4614.68   67.11   0
  -1   2   9  326.01   23.90   0
  -1   3   3 1201.83   32.43   0
  -1   3   4  569.67   26.24   0
  -1   3   5  361.34   24.60   0
  -1   3   6  774.87   29.09   0
  -1   3   7  178.07   29.78   0
   0  -8   1  266.59   21.41   0
   0  -8   2   -2.01   19.27   0
   0  -8   3  459.23   30.93   0
   0  -8   4   -2.95   30.20   0
   0  -8   5    7.01   21.02   0
   0  -7  -1   67.00   22.75   0
   0  -7   7  113.49   32.28   0
   0  -5  -2  502.95   25.93   0
   0  -4  -2  750.31   34.65   0
   0  -3  -2 1183.63   35.62   0
   0  -1  -1  355.80   33.50   0
   0   1   2   -0.25   24.07   0
   0   1   7   11.76   21.41   0
  -8   2  -6   31.43   27.47   0
  -7   4  -3   79.94   31.28   0
  -7   5   0  205.46   26.57   0
  -6  -8 -11   35.47   28.74   0
  -6  -7 -11   14.60   26.84   0
  -6   2  -6  214.15   34.16   0
  -6   5   0   52.97   25.40   0
  -5 -12  -8   34.79   33.33   0
  -5 -11  -9   -2.51   26.44   0
  -5  -8 -10   41.19   25.09   0
  -5  -7 -10  106.88   33.53   0
  -5  -6 -10  157.28   34.45   0
  -5  -5 -10  381.40   28.53   0
  -5   3  -4   67.92   22.74   0
  -5   5   0    3.77   29.73   0
  -5   5   1   31.18   22.95   0
  -5   5   9   35.66   29.34   0
  -5   5  10   23.28   34.49   0
  -4 -13  -5  -11.15   30.64   0
  -4 -10  -8    7.74   23.39   0
  -4  -8  -9   26.85   24.69   0
  -4  -7  -9  505.36   33.85   0
  -4  -6  -9   71.00   31.62   0
  -4  -5  -9  320.44   32.16   0
  -4   1  -6  879.46   46.24   0
  -4   4  11    7.55   27.47   0
  -4   5   1   25.60   30.71   0
  -4   5   2  242.74   23.92   0
  -4   5   8   -4.38   22.40   0
  -4   5   9   73.15   34.85   0
  -3 -13  -3  109.30   26.25   0
  -3 -13  -2  -15.48   33.08   0
  -3 -12  -4  100.72   31.45   0
  -3  -9  -7  272.58   22.62   0
  -3  -6  -8  527.94   25.83   0
  -3  -5  -8   26.30   23.17   0
  -3   1  14  -14.79   27.80   0
  -3   2  -4   97.67   28.72   0
  -3   2  13   31.55   26.15   0
  -3   3  12   19.63   27.95   0
  -3   4  10   53.44   23.07   0
  -3   5   3  417.71   33.54   0
  -3   5   4  856.17   27.97   0
  -3   5   5  365.30   23.52   0
  -3   5   6  137.45   24.26   0
  -3   5   7  155.74   29.47   0
  -2 -12   0   79.52   26.72   0
  -2 -12   1    4.61   35.84   0
  -2 -11  -3  258.33   24.73   0
  -2 -11  -2   26.21   27.70   0
  -2 -10  -4  205.85   22.00   0
  -2  -9  -5  243.10   22.00   0
  -2  -7  -6  -20.08   22.43   0
  -2  -2  14    1.98   27.12   0
  -2   1  13  -21.82   28.57   0
  -2   2  12   26.00   34.39   0
  -2   3  -1 1267.77   39.87   0
  -2   4   2   38.81   21.67   0
  -2   4   8   -6.63   21.66   0
  -1 -10   0  112.68   21.03   0
  -1 -10   1   -7.90   22.02   0
  -1 -10   5   20.59   33.80   0
  -1 -10   6  110.80   25.63   0
  -1  -9  -2  967.31   28.00   0
  -1  -8  -3  860.36   27.09   0
  -1  -7  -4   42.52   23.12   0
  -1  -6  -4  516.28   33.37   0
  -1  -2  -4 1376.69   45.29   0
  -1   1  11   68.86   23.15   0
  -1   2  10  235.34   30.34   0
  -1   3   2 2426.29   41.32   0
  -1   3   8   25.67   26.57   0
   0  -7   0  209.22   23.40   0
   0  -7   1  343.07   28.64   0
   0  -7   6   15.92   27.70   0
   0  -6  -1  436.51   24.57   0
   0  -6   8  182.41   31.61   0
   0  -5   9  210.06   33.00   0
   0  -2  10  376.94   44.32   0
   0   0   9  -10.52   28.34   0
   0   1   8   25.09   26.80   0
  -8  -4 -11    4.05   38.97   0
  -8   3  -5   16.61   31.52   0
  -8   4  -3   22.54   28.00   0
  -7  -5 -11   14.62   31.55   0
  -7   3  -5   54.38   24.54   0
  -7   5  -1   45.47   25.60   0
  -6 -10 -10   27.73   26.75   0
  -6   3  -5  353.05   33.39   0
  -6   4  -3   12.83   21.96   0
  -6   5  -1  149.96   24.89   0
  -6   6   3   54.65   27.07   0
  -6   6   4   86.12   26.74   0
  -6   6   5   11.30   26.64   0
  -6   6   6   41.76   26.87   0
  -5 -10  -9   52.96   25.24   0
  -5   4  -3   14.22   29.99   0
  -5   6   3  -10.36   31.94   0
  -5   6   4  343.11   24.53   0
  -5   6   5  -13.93   23.98   0
  -5   6   6  147.87   26.30   0
  -5   6   7   19.38   30.74   0
  -4 -12  -6  108.89   25.71   0
  -4 -11  -7   76.80   27.11   0
  -4  -9  -8   81.19   29.54   0
  -4  -2  -8  110.20   32.28   0
  -4   2  -5  322.77   28.28   0
  -4   4  -2  912.85   30.37   0
  -4   4  12   23.17   29.42   0
  -4   5   0  177.30   28.63   0
  -4   5  10  -19.70   27.22   0
  -3 -13  -1   72.36   27.85   0
  -3 -13   0   -4.91   35.87   0
  -3 -12  -3   49.12   29.25   0
  -3 -11  -5   66.69   24.74   0
  -3 -10  -6   91.07   23.37   0
  -3  -8  -7  123.99   20.68   0
  -3  -2  -7  406.78   33.99   0
  -3   4  -1 1257.56   31.96   0
  -3   4  11    4.27   25.84   0
  -3   5   2  740.22   28.38   0
  -3   5   8  376.62   24.54   0
  -3   5   9   57.89   30.77   0
  -2 -12   2   45.86   25.31   0
  -2 -12   3    7.99   25.70   0
  -2 -12   4   44.34   26.61   0
  -2 -11  -1   29.27   26.51   0
  -2 -10  -3    1.78   21.11   0
  -2  -9  -4    6.43   29.16   0
  -2  -8  -5    9.92   20.12   0
  -2  -6  -6 1622.31   31.72   0
  -2  -5  -6   22.57   29.41   0
  -2  -4  -6 1542.01   41.32   0
  -2  -3  -6  450.24   28.24   0
  -2  -1  14  -33.04   30.96   0
  -2   3  11   17.42   23.26   0
  -2   4   1  822.21   28.32   0
  -2   4   9  208.12   22.37   0
  -1 -10   2  138.05   23.56   0
  -1 -10   3  236.11   24.77   0
  -1 -10   4  136.08   23.95   0
  -1  -9  -1  140.70   21.62   0
  -1  -9   0  188.04   26.18   0
  -1  -9   7   86.72   30.61   0
  -1  -8  -2   -7.49   21.27   0
  -1  -8   9   31.93   29.62   0
  -1  -7  -3  106.17   23.35   0
  -1  -5  -4  390.03   24.50   0
  -1  -4  -4 1813.95   41.88   0
  -1  -3  -4  -11.26   30.64   0
  -1   0  12    4.93   22.39   0
  -1   3   1 1072.39   38.37   0
  -1   3   9   95.23   19.80   0
   0  -7   2  156.90   21.34   0
   0  -7   3    4.36   19.74   0
   0  -7   4   58.50   26.95   0
   0  -7   5  152.17   23.87   0
   0  -6   0  930.88   28.68   0
   0  -5  -1  893.05   28.45   0
   0  -4  -1 3663.71   51.52   0
   0  -1  10    0.80   27.46   0
   0   2   4  380.84   25.16   0
   0   2   5 1020.59   32.50   0
   0   2   6 1604.47   36.62   0
  -7  -8 -11   99.27   29.14   0
  -7  -7 -11   39.89   33.80   0
  -7  -6 -11    8.64   27.37   0
  -7   4  -4   56.22   35.44   0
  -7   5  -2  160.13   38.14   0
  -6 -11  -9   31.06   32.11   0
  -6  -9 -10  176.62   30.31   0
  -6  -4 -10   -1.31   27.79   0
  -6   5  -2  188.02   29.85   0
  -6   6   1   27.27   30.36   0
  -6   6   2   74.94   27.06   0
  -5 -12  -7   22.03   25.50   0
  -5 -11  -8   59.03   30.16   0
  -5  -9  -9   32.49   25.99   0
  -5   2  -6   91.76   30.92   0
  -5   5  -1   90.50   22.69   0
  -5   6   2  289.96   26.22   0
  -5   6   8   67.84   25.89   0
  -5   6   9   28.66   27.71   0
  -4 -13  -4  -19.60   23.84   0
  -4 -13  -3   61.16   31.31   0
  -4 -12  -5  -15.99   22.57   0
  -4 -11  -6   63.85   28.05   0
  -4 -10  -7   -7.00   24.10   0
  -4  -8  -8  344.95   32.11   0
  -4   3  -4    5.84   23.03   0
  -4   5  11   23.28   27.49   0
  -4   6   3   26.04   21.40   0
  -4   6   4  343.54   26.15   0
  -4   6   5   34.13   24.07   0
  -4   6   6  100.31   25.06   0
  -4   6   7   -2.75   22.52   0
  -4   6   8  197.11   25.58   0
  -3 -13   1  180.66   27.23   0
  -3 -12  -2  -18.73   22.88   0
  -3 -11  -4   59.87   23.19   0
  -3 -10  -5    3.83   21.99   0
  -3  -9  -6   40.64   21.44   0
  -3  -7  -7  899.29   26.36   0
  -3   3  -3   37.48   21.14   0
  -3   3  13   21.63   26.74   0
  -3   4  12    1.75   25.83   0
  -3   5   1  467.70   25.81   0
  -3   5  10    2.73   23.54   0
  -2 -11   0   17.32   22.66   0
  -2 -11   1  139.42   32.04   0
  -2 -11   6    8.12   32.17   0
  -2 -10  -2    3.33   21.50   0
  -2  -7  -5   -7.59   22.44   0
  -2   0  14   -3.40   26.87   0
  -2   2  -3 1034.26   40.72   0
  -2   2  13   48.69   26.63   0
  -2   3  12  121.54   25.79   0
  -2   4   0   47.81   31.13   0
  -2   4  10  183.53   24.59   0
  -2   5   3   62.26   31.24   0
  -2   5   4  613.94   28.01   0
  -2   5   5  234.39   24.50   0
  -2   5   6  226.02   24.35   0
  -2   5   7   17.54   21.68   0
  -2   5   8  690.05   32.84   0
  -1  -9   1   44.08   18.77   0
  -1  -9   6   21.55   29.95   0
  -1  -8  -1  194.23   28.59   0
  -1  -7  10   -2.54   32.83   0
  -1  -6  -3   -6.64   27.13   0
  -1  -6  11    1.19   34.53   0
  -1   1  -2 1625.15   64.29   0
  -1   1  12  -14.24   29.54   0
  -1   2  -1 1352.55   49.41   0
  -1   2  11  154.25   23.86   0
  -1   3  10  743.94   34.19   0
  -1   4   4  106.09   22.01   0
  -1   4   5  637.06   26.36   0
  -1   4   6   18.22   21.40   0
  -1   4   7  325.23   23.15   0
   0  -6   1   86.31   22.05   0
   0  -6   7  192.47   24.78   0
   0  -5   0   37.43   20.34   0
   0  -3  -1 4187.65   56.00   0
   0  -2  -1  117.75   26.62   0
   0   1   1 6324.33  102.37   0
   0   1   9  691.95   30.15   0
   0   2   3   10.39   24.03   0
   0   2   7   77.09   21.98   0
  -8  -5 -11    0.93   35.36   0
  -8   1  -8   23.72   33.75   0
  -8   2  -7   50.71   38.42   0
  -7 -10 -10   38.82   35.15   0
  -7   6   0   22.59   26.27   0
  -6 -10  -9  189.50   32.13   0
  -6  -8 -10   -7.81   26.55   0
  -6  -7 -10  132.70   36.33   0
  -6  -5 -10  235.87   33.41   0
  -6   4  -4  168.98   25.07   0
  -6   6   0  131.35   24.60   0
  -5 -13  -5   -0.19   27.72   0
  -5 -12  -6   70.19   32.15   0
  -5 -11  -7   29.87   31.84   0
  -5 -10  -8   15.94   23.62   0
  -5  -8  -9   77.75   25.69   0
  -5  -3  -9   -6.32   29.18   0
  -5   1  -7  141.26   33.17   0
  -5   3  -5  298.22   27.03   0
  -5   5  -2   -8.26   22.38   0
  -5   6   1    1.70   22.82   0
  -5   7   6  -42.31   29.07   0
  -4 -13  -2  -16.48   26.49   0
  -4 -12  -4  121.32   30.24   0
  -4  -9  -7  193.34   30.95   0
  -4  -7  -8   51.40   22.26   0
  -4   4  -3  227.42   24.92   0
  -4   5  -1  346.73   22.69   0
  -4   6   1   -6.64   30.49   0
  -4   6   2  153.55   23.43   0
  -4   6   9   -5.12   24.43   0
  -4   6  10   93.13   28.76   0
  -3 -12  -1   36.53   24.00   0
  -3 -12   0   81.00   29.84   0
  -3 -11  -3  373.85   25.92   0
  -3  -8  -6   70.00   22.86   0
  -3  -6  -7  674.18   26.24   0
  -3  -5  -7  241.05   27.79   0
  -3  -4  -7  619.63   33.66   0
  -3  -3  -7  181.10   22.40   0
  -3   4  -2   30.16   21.29   0
  -3   4  13   24.84   35.93   0
  -3   5   0  597.36   25.75   0
  -3   5  11   60.72   25.91   0
  -3   6   3  390.42   25.45   0
  -3   6   4  373.08   25.75   0
  -3   6   5   39.41   23.90   0
  -3   6   6  156.11   23.17   0
  -3   6   7   20.91   23.09   0
  -3   6   8   66.47   23.47   0
  -2 -11   2   65.81   24.08   0
  -2 -11   3   96.09   24.36   0
  -2 -11   4    7.38   25.24   0
  -2 -11   5   59.88   28.81   0
  -2 -10  -1   11.63   21.02   0
  -2 -10   8   42.83   36.35   0
  -2  -9  -3  654.67   26.03   0
  -2  -8  -4   97.94   21.81   0
  -2  -6  -5  101.84   28.52   0
  -2   1  14   18.81   27.12   0
  -2   3  -2  701.63   33.70   0
  -2   4  11  166.83   26.00   0
  -2   5   2  723.11   27.05   0
  -2   5   9   11.19   22.26   0
  -1  -9   2  547.83   24.79   0
  -1  -9   3  145.76   23.55   0
  -1  -9   4   65.58   23.34   0
  -1  -9   5   59.12   21.82   0
  -1  -8   0  196.58   28.43   0
  -1  -7  -2  494.24   24.89   0
  -1  -5  -3 3288.26   47.67   0
  -1  -2  13    3.47   35.04   0
  -1  -1  13   15.77   35.35   0
  -1   4   2   24.89   29.36   0
  -1   4   3   22.11   21.18   0
  -1   4   8  167.16   24.05   0
  -1   4   9  479.00   30.75   0
   0  -6   2  552.70   25.95   0
   0  -6   3   26.07   19.83   0
   0  -6   4  263.42   29.65   0
   0  -6   5    3.90   27.23   0
   0  -5   1  372.36   30.97   0
   0  -5   8  400.99   33.94   0
   0  -4   0  668.08   34.20   0
   0  -4   9   24.86   34.08   0
   0   0  10 1111.18   39.24   0
   0   2   8  127.66   20.57   0
  -8  -7 -11   20.19   34.52   0
  -8  -6 -11    6.10   39.38   0
  -7  -9 -10   34.03   34.19   0
  -7  -3 -10   13.14   36.47   0
  -7   1  -8    2.83   35.31   0
  -7   2  -7   24.50   25.72   0
  -7   3  -6   -1.07   28.79   0
  -7   5  -3   42.29   26.28   0
  -6 -12  -7  -38.10   37.33   0
  -6 -11  -8    9.49   26.60   0
  -6  -6 -10   18.09   24.49   0
  -6   5  -3  118.32   32.97   0
  -6   6  -1   85.08   31.35   0
  -6   7   2   -3.51   34.27   0
  -6   7   3   -8.49   26.16   0
  -5 -13  -4   26.01   23.87   0
  -5  -9  -8    3.72   28.89   0
  -5  -7  -9  169.63   24.75   0
  -5  -6  -9   22.53   22.34   0
  -5  -5  -9  109.15   33.47   0
  -5  -4  -9 1258.66   47.05   0
  -5   4  -4  403.53   25.35   0
  -5   6   0   92.30   23.96   0
  -5   7   3  257.95   27.43   0
  -5   7   4   43.10   23.85   0
  -5   7   5   79.51   25.67   0
  -5   7   7   48.08   26.62   0
  -4 -13  -1   74.73   27.50   0
  -4 -13   0   20.69   32.11   0
  -4 -12  -3    8.63   29.89   0
  -4 -11  -5   99.24   23.38   0
  -4 -10  -6  107.58   21.20   0
  -4  -6  -8  296.44   24.64   0
  -4  -5  -8  501.30   34.71   0
  -4  -4  -8   76.78   32.23   0
  -4  -3  -8  598.99   32.14   0
  -4   5  -2  536.00   31.28   0
  -4   6   0   -2.90   28.35   0
  -4   7   4   14.31   26.83   0
  -4   7   5  148.40   23.81   0
  -4   7   6    8.74   24.94   0
  -4   7   7  154.16   25.83   0
  -4   7   8   -3.50   31.71   0
  -3 -12   1   48.32   25.68   0
  -3 -12   2   20.83   31.17   0
  -3 -12   3  -11.53   34.07   0
  -3 -12   4   23.15   35.48   0
  -3 -11  -2  -20.29   21.72   0
  -3 -10  -4  259.08   22.89   0
  -3  -9  -5  271.65   24.08   0
  -3  -7  -6  266.59   32.05   0
  -3   5  12   54.98   26.89   0
  -3   6   2  364.18   24.90   0
  -3   6   9   47.74   24.26   0
  -3   6  10   72.32   26.43   0
  -2 -10   0   86.79   20.98   0
  -2 -10   1   66.39   27.87   0
  -2 -10   7   -9.96   30.86   0
  -2  -9  -2  101.40   20.80   0
  -2  -8  -3   55.63   29.75   0
  -2  -7  -4  -17.96   22.65   0
  -2  -5  -5 2036.36   41.94   0
  -2  -1  -5  657.75   37.04   0
  -2   1  -4 1159.46   56.26   0
  -2   2  14   -5.77   26.86   0
  -2   3  13    9.01   24.91   0
  -2   4  -1 1389.62   39.34   0
  -2   4  12   -3.17   24.59   0
  -2   5   1  987.95   29.04   0
  -2   5  10  251.83   24.42   0
  -2   6   5  587.12   25.14   0
  -2   6   6   64.79   23.23   0
  -2   6   7  374.11   30.14   0
  -1  -8   1    7.74   20.80   0
  -1  -8   7   15.80   27.56   0
  -1  -7  -1 1071.09   27.73   0
  -1  -6  -2 1801.24   34.04   0
  -1  -4  -3   20.08   29.39   0
  -1   0  13   25.00   26.46   0
  -1   2  12   63.95   25.09   0
  -1   3   0 9565.00   78.05   0
  -1   3  11   26.32   21.40   0
  -1   4  10   19.36   21.41   0
  -1   5   5    2.15   30.39   0
  -1   5   6  986.01   29.19   0
  -1   5   7   31.07   29.74   0
   0   1  10  198.89   25.12   0
   0   2   2   50.11   26.46   0
   0   2   9  118.84   23.34   0
   0   3   4   52.75   21.42   0
   0   3   5 1585.49   34.87   0
   0   3   6  789.31   28.16   0
   0   3   7  911.05   30.12   0
  -8   0  -9   -0.34   44.78   0
  -7  -8 -10   -7.49   25.54   0
  -7   4  -5   -9.76   26.26   0
  -6  -9  -9   -4.79   25.59   0
  -6   2  -7    7.38   27.78   0
  -6   3  -6  -10.49   26.91   0
  -6   4  -5    9.24   27.77   0
  -6   7   1  -17.51   26.11   0
  -5 -13  -3   15.58   24.35   0
  -5 -12  -5    9.68   23.76   0
  -5 -11  -6   18.17   22.18   0
  -5 -10  -7   45.09   25.02   0
  -5  -8  -8   40.61   30.15   0
  -5   5  -3   36.64   24.67   0
  -5   6  -1    7.28   24.54   0
  -5   7   1  205.67   33.61   0
  -5   7   2  -14.11   23.98   0
  -4 -13   1  -47.33   28.22   0
  -4 -12  -2   17.13   23.76   0
  -4 -11  -4  -11.74   22.01   0
  -4 -10  -5   -1.56   31.99   0
  -4  -9  -6   40.51   26.63   0
  -4  -8  -7  432.51   25.60   0
  -4   7   2   -0.36   31.66   0
  -4   7   3   34.30   26.96   0
  -4   7   9    9.44   27.81   0
  -3 -11  -1  -43.35   22.60   0
  -3 -10  -3   19.95   20.42   0
  -3  -9  -4   -2.33   21.73   0
  -3  -8  -5   27.22   21.19   0
  -3   5  -1  223.85   22.57   0
  -3   6   1   37.46   22.48   0
  -3   6  11   -2.71   27.27   0
  -3   7   4   -0.60   30.25   0
  -3   7   5  -13.53   22.45   0
  -3   7   6  -18.30   23.92   0
  -3   7   7   51.68   23.58   0
  -3   7   8  -22.71   27.45   0
  -2 -10   2  348.58   25.07   0
  -2 -10   3   -1.48   22.29   0
  -2 -10   4    2.15   27.59   0
  -2 -10   5   -2.45   23.55   0
  -2 -10   6  -25.55   26.14   0
  -2  -9  -1   17.86   21.16   0
  -2  -4  -5   33.70   20.94   0
  -2   3  14   76.80   36.64   0
  -2   4  13   92.71   33.26   0
  -2   5  11   20.86   25.60   0
  -2   6   3  945.62   29.58   0
  -2   6   4   -0.68   22.33   0
  -2   6   8   13.17   21.32   0
  -2   6   9   16.73   27.09   0
  -1  -8   2  445.16   22.39   0
  -1  -8   3   33.64   20.80   0
  -1  -8   4  312.77   28.33   0
  -1  -8   5   11.84   26.14   0
  -1  -8   6   31.91   22.44   0
  -1  -7   0   -6.93   21.00   0
  -1  -7   9  -15.63   23.51   0
  -1  -3  -3  182.18   32.56   0
  -1  -1  -3  297.80   42.29   0
  -1   1  13   37.08   24.33   0
  -1   3  12   23.51   23.53   0
  -1   4   1 2509.21   40.04   0
  -1   4  11  538.53   33.57   0
  -1   5   3  135.52   29.67   0
  -1   5   4  136.68   22.11   0
  -1   5   8  392.47   24.65   0
  -1   5   9   32.10   27.49   0
   0  -5   2  297.22   23.73   0
   0  -5   3  581.51   32.94   0
   0  -5   7  574.16   29.38   0
   0  -4   1  146.89   21.90   0
   0  -3   0 1975.74   42.09   0
   0   2  10  726.51   36.38   0
   0   3   3  142.98   23.39   0
   0   3   8  150.61   21.01   0
   0   3   9  696.78   33.62   0
  -7 -11  -8   24.28   36.60   0
  -7 -10  -9  187.33   29.03   0
  -7  -7 -10  185.32   29.46   0
  -7  -6 -10  139.08   33.45   0
  -7  -4 -10   52.70   35.46   0
  -7   5  -4   26.82   26.93   0
  -6 -12  -6   41.31   25.92   0
  -6 -11  -7   33.83   25.60   0
  -6 -10  -8   25.28   24.19   0
  -6  -8  -9   87.41   24.01   0
  -6   5  -4  -13.77   33.59   0
  -6   6  -2    9.77   27.82   0
  -6   7   0    4.67   26.08   0
  -5 -13  -2  -19.00   23.75   0
  -5 -12  -4  -18.41   23.56   0
  -5  -9  -7   10.15   29.19   0
  -5   6  -2   41.56   31.40   0
  -5   7   0    0.97   32.44   0
  -5   8   4   27.20   27.47   0
  -4 -12  -1   33.03   21.21   0
  -4 -11  -3  -14.23   22.03   0
  -4  -7  -7  448.15   23.62   0
  -4   3  -5  166.67   25.91   0
  -4   4  -4  279.00   25.37   0
  -4   6  -1   68.73   23.13   0
  -4   7   1  165.89   23.59   0
  -4   8   5   -7.17   29.37   0
  -4   8   6   22.95   33.52   0
  -4   8   7   19.08   33.34   0
  -3 -11   0   -8.54   21.26   0
  -3 -11   1    7.54   23.08   0
  -3 -11   6   11.02   30.81   0
  -3 -10  -2  406.22   24.35   0
  -3  -6  -6  542.32   24.39   0
  -3   3  -4  143.59   21.83   0
  -3   4  -3  260.50   23.55   0
  -3   6   0  338.12   22.80   0
  -3   7   3  203.23   23.50   0
  -3   7   9  110.16   25.38   0
  -3   7  10   -0.50   24.91   0
  -2  -9   0   -6.94   20.12   0
  -2  -9   8  -10.77   33.59   0
  -2  -8  -2  589.01   24.68   0
  -2  -7  -3  431.21   23.81   0
  -2  -6  -4  606.14   25.49   0
  -2  -3  -5 2846.51   45.87   0
  -2  -2  -5 4120.80   63.56   0
  -2   5   0 1145.48   31.11   0
  -2   5  12  197.33   26.71   0
  -2   6   2  476.18   26.22   0
  -2   6  10  124.38   24.75   0
  -2   6  11   74.41   34.05   0
  -2   7   6   38.95   27.68   0
  -2   7   7   45.49   28.33   0
  -1  -7   1    9.92   19.51   0
  -1  -7   8   15.70   30.39   0
  -1  -6  -1  285.71   22.23   0
  -1  -6  10  -30.79   31.99   0
  -1  -5  -2  232.66   23.00   0
  -1  -2  -3    6.39   23.98   0
  -1   2  13   67.76   23.90   0
  -1   4  12   21.99   27.92   0
  -1   5   2  518.94   30.87   0
  -1   5  10  525.28   27.34   0
  -1   6   6   57.22   27.97   0
  -1   6   7  886.97   32.22   0
   0  -5   4 2045.23   37.76   0
   0  -5   6  166.21   23.27   0
   0  -2   0  657.14   34.04   0
   0  -1  11   75.72   30.60   0
   0   0  11   14.99   22.22   0
   0   1  11  348.74   34.20   0
   0   4   5 1001.45   29.10   0
   0   4   6 1981.01   36.84   0
   0   4   7  472.70   24.70   0
   0   4   8  579.38   32.36   0
  -8  -8 -10   35.69   33.83   0
  -7  -9  -9   10.31   26.40   0
  -7  -5 -10   21.40   22.98   0
  -6 -13  -4   18.88   25.92   0
  -6 -12  -5   22.50   31.10   0
  -6  -9  -8   18.47   25.24   0
  -6  -7  -9   17.58   22.73   0
  -6  -6  -9  283.73   30.61   0
  -6  -2  -9  131.30   36.04   0
  -6   6  -3  -44.22   31.41   0
  -6   7  -1  -15.84   25.73   0
  -5 -13  -1    9.10   26.49   0
  -5 -13   0   15.29   31.93   0
  -5 -12  -3  -32.30   23.33   0
  -5 -11  -5   -4.94   20.54   0
  -5 -10  -6   54.42   22.63   0
  -5  -7  -8  193.92   23.17   0
  -5   3  -6   13.73   30.03   0
  -5   4  -5   22.55   28.19   0
  -5   5  -4   17.58   30.26   0
  -5   8   2  -21.88   31.58   0
  -5   8   3    7.58   26.18   0
  -4 -12   0    9.20   24.45   0
  -4 -12   1   -0.01   24.24   0
  -4 -11  -2  -20.00   26.69   0
  -4 -10  -4  178.54   21.86   0
  -4  -9  -5  -10.41   20.84   0
  -4  -8  -6  804.10   26.72   0
  -4  -6  -7  295.13   22.51   0
  -4   2  -6   52.32   29.10   0
  -4   5  -3  283.49   25.56   0
  -4   7   0   11.18   27.40   0
  -4   8   3  -11.89   29.70   0
  -4   8   4   -7.01   28.47   0
  -3 -11   2    0.99   22.07   0
  -3 -11   3   19.92   23.38   0
  -3 -11   4  -11.41   24.00   0
  -3 -11   5  -14.17   25.30   0
  -3 -10  -1   27.20   20.29   0
  -3  -9  -3  810.42   25.52   0
  -3  -8  -4  391.65   23.30   0
  -3  -7  -5  580.18   25.80   0
  -3  -5  -6  530.70   25.70   0
  -3   2  -5 1133.22   44.38   0
  -3   5  -2 1291.27   31.98   0
  -3   7   2  -12.20   21.95   0
  -3   8   5   26.01   30.65   0
  -3   8   6   13.27   24.62   0
  -3   8   7   20.19   24.57   0
  -3   8   8   28.20   33.22   0
  -2  -9   1  219.26   20.49   0
  -2  -9   2  105.98   27.21   0
  -2  -9   7  -12.06   31.71   0
  -2  -8  -1   26.77   20.65   0
  -2  -8  10  -15.15   32.02   0
  -2  -5  -4   35.30   20.17   0
  -2   3  -3 1200.11   38.50   0
  -2   4  -2  816.81   28.96   0
  -2   5  13  -15.99   26.22   0
  -2   6   1  568.07   26.34   0
  -2   6  12   10.92   31.31   0
  -2   7   4  623.98   26.86   0
  -2   7   5  -14.23   22.92   0
  -2   7   8  207.23   24.77   0
  -2   7   9   22.10   24.72   0
  -2   7  10    1.68   33.36   0
  -1  -7   2   25.17   18.15   0
  -1  -7   7  277.26   32.05   0
  -1  -6   0 1743.74   37.46   0
  -1  -4  -2 2935.95   47.43   0
  -1   0  14   78.41   34.75   0
  -1   1  14  177.73   36.14   0
  -1   3  -1 1388.24   36.28   0
  -1   3  13   10.37   24.67   0
  -1   4   0   25.96   21.08   0
  -1   5  11   39.89   24.43   0
  -1   6   4  145.18   23.80   0
  -1   6   5  812.61   27.35   0
  -1   6   8   39.63   20.59   0
  -1   6   9  561.13   26.07   0
   0  -4   2  956.20   30.09   0
   0  -4   8  676.66   41.10   0
   0  -3   1 1350.54   44.49   0
   0  -1   0  319.51   33.32   0
   0   2   1  105.68   26.28   0
   0   2  11  179.39   25.37   0
   0   3   2 1123.29   34.99   0
   0   3  10  664.36   28.21   0
   0   4   4  586.79   26.65   0
   0   4   9  539.33   23.49   0
  -8  -7 -10   14.61   25.48   0
  -7 -12  -6   17.04   27.61   0
  -7 -11  -7   -6.79   26.94   0
  -7 -10  -8   23.61   24.21   0
  -7  -8  -9    8.12   24.10   0
  -6 -13  -3  -28.47   23.76   0
  -6 -11  -6  316.81   27.12   0
  -6 -10  -7  206.15   24.99   0
  -5 -13   1   14.59   27.01   0
  -5 -12  -2   19.27   23.51   0
  -5 -11  -4  141.92   22.86   0
  -5  -8  -7  239.31   22.13   0
  -5  -6  -8   27.10   20.97   0
  -5   7  -1   39.58   27.20   0
  -5   8   1   -3.38   25.27   0
  -4 -12   2   36.41   28.10   0
  -4 -12   3   66.42   23.89   0
  -4 -12   4   11.55   24.74   0
  -4 -11  -1  -14.84   22.42   0
  -4 -10  -3   16.66   20.09   0
  -4  -5  -7  -12.20   20.42   0
  -4   6  -2   41.28   23.65   0
  -4   8   2   48.25   25.28   0
  -3 -10   0  216.98   21.71   0
  -3  -9  -2  169.96   20.70   0
  -3  -4  -6  129.97   21.64   0
  -3   6  -1  737.47   26.12   0
  -3   7   1  172.42   22.66   0
  -3   8   4  255.56   23.97   0
  -3   8   9   10.33   27.11   0
  -2  -9   3  395.26   24.17   0
  -2  -9   4   -4.27   21.63   0
  -2  -9   5  139.59   25.10   0
  -2  -9   6   -5.44   22.15   0
  -2  -8   0   -8.94   20.67   0
  -2  -7  -2   -0.87   20.89   0
  -2  -6  -3  174.70   21.06   0
  -2   5  -1   -3.04   21.04   0
  -2   7   3   -5.06   22.15   0
  -2   7  11   51.34   28.53   0
  -1  -7   3 1211.48   28.54   0
  -1  -7   4   25.15   18.42   0
  -1  -7   5   33.80   21.41   0
  -1  -7   6   29.55   21.66   0
  -1  -5  -1 4632.72   48.01   0
  -1   2  -2 1254.68   44.26   0
  -1   2  14   20.05   25.27   0
  -1   4  13   82.80   24.62   0
  -1   5   1    9.11   20.46   0
  -1   5  12  208.03   26.18   0
  -1   6   3  936.95   30.20   0
  -1   6  10   30.18   21.95   0
   0  -4   3 1132.62   31.63   0
   0   3  11  370.14   26.09   0
   0   4   3  176.68   22.02   0
   0   4  10  342.76   23.76   0
   0   5   5  900.72   28.50   0
   0   5   6 1671.40   32.52   0
   0   5   7  601.46   25.16   0
   0   5   8   72.28   22.28   0
  -9 -11   0    8.24   23.37   0
  -9 -10   2  -13.16   22.99   0
  -8 -12  -4   12.86   21.63   0
  -8 -11  -3  -18.54   21.28   0
  -8 -10  -2  -89.84   22.51   0
  -8  -9  -1  256.90   26.80   0
  -8  -8   1    0.01   25.95   0
  -8  -8   2   -2.00   17.94   0
  -7 -12  -6  -18.32   30.80   0
  -7 -11  -5  -27.90   19.69   0
  -7  -8  -2   14.75   19.11   0
  -7  -7   0   28.31   22.30   0
  -7  -6   2  438.80   26.43   0
  -7  -6   3    4.43   17.90   0
  -7  -6   9    4.96   28.60   0
  -6 -12  -7   -9.32   21.54   0
  -6 -10  -6  -13.72   20.52   0
  -6  -9  -5   12.15   17.05   0
  -6  -8  -4    2.13   18.07   0
  -6  -7  -3   27.64   19.47   0
  -6  -5   1  286.81   18.70   0
  -6  -5  11   46.18   34.59   0
  -5 -12  -8  -28.69   22.73   0
  -5 -10  -7   -2.97   20.86   0
  -5  -5  -2  719.73   21.38   0
  -5  -4   0   84.45   23.70   0
  -5  -3   4  324.60   24.88   0
  -5  -3   5  907.87   28.47   0
  -5  -3   8   -3.30   24.01   0
  -4 -10  -8   23.35   20.84   0
  -4  -8  -7  288.77   28.61   0
  -4  -7  -6  507.30   21.34   0
  -4  -6  -5  335.38   18.93   0
  -4  -4  -2  -10.19   15.98   0
  -4  -3   0 1834.46   29.79   0
  -4  -2   4 1886.91   36.36   0
  -4  -2   9  246.63   32.32   0
  -3  -7  -7  888.48   24.63   0
  -3  -6  -6  536.32   20.71   0
  -3  -5  -5   61.14   17.77   0
  -3  -3  -2 4693.44   45.98   0
  -2  -9  -9   75.24   26.91   0
  -2  -6  -7    7.10   23.05   0
  -2  -5  -6   -1.76   16.90   0
  -1  -2  -3   13.38   26.72   0
  -1  -1  -1 5123.86   76.70   0
   0  -6  -8   52.61   27.50   0
   1   0  15   -3.76   25.93   0
   2   1  14   16.71   22.77   0
   2   2   4 4004.80   47.13   0
   2   2  10  715.63   29.86   0
   3  -3  -6  282.75   40.16   0
   3  -2  -5  608.48   38.04   0
   3   2  12  201.88   22.12   0
   4  -2  -5   25.30   18.33   0
   4   2   2   -3.74   16.69   0
   4   2  13  276.69   26.67   0
   5   2   2  666.89   22.02   0
   5   2  13  284.25   25.98   0
   5   3   7   37.52   19.07   0
   5   3   8  958.01   25.54   0
   6  -4  -6   60.33   23.80   0
   6   0  -2 1620.54   31.09   0
   6   2   2  333.62   19.30   0
   6   2  13   33.02   25.79   0
   6   3   7  218.68   20.45   0
   6   3   8  371.33   21.39   0
   7   2   3    0.71   18.06   0
   7   2  12   70.39   24.16   0
   8  -2  -3  148.19   24.08   0
   8  -1  -2   29.96   23.27   0
   8   1   1  256.47   20.09   0
   8   2   4  201.35   20.59   0
   8   2   5    4.12   24.16   0
   8   2  10   45.59   33.73   0
   9   0   1  100.42   23.57   0
   9   1   3   46.58   23.77   0
   9   2   7    7.95   21.48   0
   9   2   8    7.25   22.12   0
  -9 -11  -1   80.06   23.61   0
  -9 -10   0  100.54   26.60   0
  -9 -10   1    8.94   21.87   0
  -9  -9   3   11.86   26.86   0
  -9  -9   4   13.79   22.73   0
  -8 -11  -4   -5.67   19.42   0
  -8 -10  -3   -9.25   19.53   0
  -8  -9  -2   -4.11   25.35   0
  -8  -8   0    5.24   21.93   0
  -8  -7   3  -23.30   26.85   0
  -8  -7   4   22.48   18.77   0
  -8  -7   5  266.63   22.59   0
  -8  -7   6   10.37   21.09   0
  -8  -7   7   -7.84   29.61   0
  -7 -11  -6  -15.30   30.84   0
  -7 -10  -5  180.72   18.67   0
  -7  -9  -4    9.73   18.03   0
  -7  -8  -3   61.27   21.60   0
  -7  -7  -1  157.04   19.59   0
  -7  -6   1   79.64   22.67   0
  -6 -11  -7    5.73   22.59   0
  -6  -8  -5  -46.37   24.44   0
  -6  -6  -2  187.54   18.69   0
  -6  -5   0  535.61   25.51   0
  -6  -4   4  519.65   26.68   0
  -6  -4   5  390.69   22.84   0
  -6  -4   6  523.77   25.25   0
  -6  -4   7   28.18   25.32   0
  -5 -11  -8   56.25   21.57   0
  -5  -9  -7   18.26   18.86   0
  -5  -8  -6  322.14   18.46   0
  -5  -7  -5  228.51   19.77   0
  -5  -6  -4   25.69   18.32   0
  -5  -3   3 1019.95   31.24   0
  -5  -3   9  -20.42   33.22   0
  -4 -11  -9   49.68   27.58   0
  -4  -9  -8  137.02   26.15   0
  -4  -5  -4  509.86   20.42   0
  -4  -2   3  993.19   33.41   0
  -3 -10  -9   27.80   21.82   0
  -3  -8  -8  570.77   23.61   0
  -3  -4  -4  838.32   23.73   0
  -3  -2   0  238.89   19.45   0
  -3  -1   4  981.24   32.63   0
  -2  -7  -8    4.98   22.78   0
  -2  -4  -5   16.51   17.35   0
  -1 -10 -10  -18.99   28.81   0
  -1  -8  -9   53.60   18.83   0
  -1  -1  14   61.32   37.89   0
   0 -10 -10    0.26   24.61   0
   0   1  10  246.37   23.44   0
   2   1  13  117.60   30.11   0
   2   2   5 4415.98   47.04   0
   2   2   9   -1.46   19.34   0
   3   0  -2  221.78   25.12   0
   3   1   0 2115.48   37.24   0
   3   1  14   13.52   27.13   0
   3   2   3 1350.65   28.44   0
   3   2  11  260.63   22.04   0
   4   1  14   62.79   30.48   0
   4   2   3 2905.13   39.32   0
   4   2  12   48.43   19.82   0
   5  -5  -7  115.63   38.73   0
   5   0  -2 1265.67   28.68   0
   5   1   0 1677.13   35.50   0
   5   2   3 1375.44   30.85   0
   5   2  12   11.94   21.71   0
   6  -3  -5   39.63   28.81   0
   6  -2  -4  327.74   28.95   0
   6  -1  -3  899.47   28.63   0
   6   1   0  207.05   18.04   0
   6   2   3  229.21   20.45   0
   6   2  11   16.97   28.60   0
   6   2  12   18.97   21.98   0
   7  -4  -5   76.31   29.61   0
   7   0  -1  308.30   20.60   0
   7   1   1   27.33   17.15   0
   7   2   4 1145.01   26.29   0
   7   2   5  -28.01   26.67   0
   7   2  10  183.23   28.57   0
   7   2  11   31.74   23.58   0
   8  -1  -1   10.27   25.73   0
   8   0   0  130.70   22.59   0
   8   1   2  221.36   20.91   0
   8   2   6   95.95   21.54   0
   8   2   7   -2.52   20.20   0
   8   2   8   27.11   22.44   0
   8   2   9    1.32   20.61   0
   9  -2  -1   21.23   25.34   0
   9  -1   0  185.30   24.69   0
   9   0   2  -10.54   21.54   0
   9   1   4  111.61   23.49   0
   9   1   5   45.08   23.06   0
   9   1   6   20.67   26.84   0
   9   1   7   18.86   27.54   0
   9   1   8    0.30   30.86   0
  -9 -11  -2   36.21   21.54   0
  -9 -10  -1   22.73   20.84   0
  -9  -9   1   -6.89   23.07   0
  -9  -9   2   22.97   20.88   0
  -8 -11  -5    3.82   27.82   0
  -8 -10  -4   23.79   24.29   0
  -8  -8  -1   -6.57   18.67   0
  -8  -7   2   18.99   18.26   0
  -8  -7   8   -1.70   24.11   0
  -7  -7  -2    1.08   17.76   0
  -7  -6   0  415.15   27.18   0
  -7  -5   5  805.19   32.48   0
  -7  -5   6    3.21   26.48   0
  -6 -10  -7  -49.50   20.34   0
  -6  -9  -6  -14.28   16.24   0
  -6  -7  -4  -55.68   22.18   0
  -6  -4   3   10.33   16.11   0
  -6  -4   8  -18.68   23.89   0
  -5 -10  -8   16.82   20.25   0
  -5  -5  -3   14.98   22.11   0
  -5  -4  -1   42.55   22.68   0
  -5  -3   2 1267.42   31.55   0
  -4 -10  -9   16.35   25.78   0
  -4  -4  -3 1118.84   29.55   0
  -4  -3  -1   -4.11   21.22   0
  -3  -9  -9   -7.29   25.70   0
  -2  -8  -9   16.76   23.81   0
  -2  -2  -2 2268.66   39.73   0
  -2  -1  12    8.94   35.44   0
  -1  -6  -8   14.07   23.81   0
  -1  -5  -7 1497.45   31.69   0
  -1  -4  -6 3712.02   47.44   0
  -1   0  11  121.54   26.96   0
   0  -2  -4  411.72   27.69   0
   0   0  13   22.22   26.75   0
   0   1   4   67.05   22.30   0
   0   1   9  765.94   35.43   0
   1  -7  -9   -4.84   24.33   0
   1   0  -1 2181.41   71.18   0
   1   1   2  251.97   29.92   0
   2  -7  -9    7.07   27.96   0
   2   2   6 2431.48   36.73   0
   2   2   7  146.56   18.41   0
   2   2   8 1399.72   29.93   0
   3   1  13  120.62   29.39   0
   3   2   4 2167.35   32.88   0
   3   2   9  368.58   25.02   0
   3   2  10   27.47   18.50   0
   4   0  -2   47.32   17.76   0
   4   1   0  799.48   24.47   0
   4   2  10   19.82   24.85   0
   4   2  11  204.29   22.19   0
   5   2   4  425.55   27.57   0
   5   2  10   45.92   27.66   0
   5   2  11   42.70   21.91   0
   6   0  -1    2.90   23.52   0
   6   1   1   88.69   18.05   0
   6   2   4 1356.51   27.03   0
   6   2   5  291.81   24.73   0
   6   2   9  168.73   25.80   0
   6   2  10   50.15   21.52   0
   7  -3  -4  107.28   22.80   0
   7  -2  -3   60.60   26.77   0
   7  -1  -2   68.74   20.04   0
   7   1   2   78.57   18.80   0
   7   2   6  398.47   21.87   0
   7   2   7    2.32   20.27   0
   7   2   8  317.92   23.66   0
   7   2   9   -5.36   19.58   0
   8  -3  -3  -15.40   24.28   0
   8  -2  -2  -11.35   24.20   0
   8   0   1   51.59   21.99   0
   8   1   3  205.39   19.75   0
   8   1   4  312.37   22.10   0
   8   1  10  -17.37   23.44   0
   9  -2   0   30.21   29.18   0
   9  -1   1   -1.37   22.98   0
   9   0   3   34.93   24.95   0
   9   0   4   19.42   29.22   0
  -9 -11  -3   55.69   21.46   0
  -9 -10  -2  232.66   22.78   0
  -9  -9   0   -6.31   21.07   0
  -9  -8   3   46.90   25.65   0
  -9  -8   4   83.95   22.30   0
  -9  -8   5   19.15   23.00   0
  -8  -9  -3  261.65   20.41   0
  -8  -8  -2  100.75   23.10   0
  -8  -7   0   -5.55   21.00   0
  -8  -7   1   59.04   18.68   0
  -7 -11  -7    3.66   20.97   0
  -7 -10  -6   30.37   18.51   0
  -7  -9  -5  144.18   19.90   0
  -7  -8  -4  187.56   18.56   0
  -7  -6  -1  391.74   24.07   0
  -7  -5   3  417.86   21.22   0
  -7  -5   4   12.72   18.54   0
  -7  -5   7  102.79   21.43   0
  -7  -5   8   -4.22   25.60   0
  -6 -11  -8  193.49   23.55   0
  -6  -8  -6   -6.20   21.65   0
  -6  -6  -3  694.33   21.95   0
  -6  -5  -1  383.70   21.05   0
  -6  -4   2  318.74   19.20   0
  -6  -4   9   80.52   27.66   0
  -5 -11  -9   32.30   22.49   0
  -5  -9  -8  159.79   24.40   0
  -5  -8  -7  233.98   20.45   0
  -5  -7  -6  605.58   21.91   0
  -5  -6  -5 1057.07   27.92   0
  -4  -8  -8  365.33   22.03   0
  -4  -7  -7  407.87   19.54   0
  -4  -6  -6   39.45   17.90   0
  -4  -2   2  462.15   22.65   0
  -3 -11 -10   12.81   23.35   0
  -3  -7  -8  242.51   24.68   0
  -3  -6  -7  572.41   20.98   0
  -3  -5  -6  499.86   27.44   0
  -3  -3  -3 4393.12   42.96   0
  -3  -1   3   62.73   18.21   0
  -2 -10 -10   41.15   23.00   0
  -2  -3  -4   22.63   16.37   0
  -1  -9 -10   22.14   26.20   0
  -1  -3  -5 1778.63   38.62   0
   0  -9 -10   24.34   21.86   0
   0  -7  -9   37.69   20.69   0
   0   1   8   38.04   23.28   0
   1  -9 -10   35.08   24.62   0
   2  -4  -7  314.07   52.36   0
   2   1   1   -2.57   19.72   0
   2   1  12    9.95   21.15   0
   3   2   5 1897.45   31.50   0
   3   2   6  479.52   22.38   0
   3   2   7  407.15   21.52   0
   3   2   8 1464.55   28.65   0
   4   1  13   13.56   24.54   0
   4   2   4  572.85   21.70   0
   4   2   5  391.20   19.91   0
   4   2   8  103.35   25.81   0
   4   2   9  400.63   20.47   0
   5  -4  -6  147.11   27.97   0
   5  -1  -3  599.36   25.38   0
   5   1   1  179.84   20.16   0
   5   1  13   10.60   25.13   0
   5   2   5  120.79   20.26   0
   5   2   6  396.55   21.51   0
   5   2   7   36.70   24.13   0
   5   2   8  309.42   20.77   0
   5   2   9  241.96   20.07   0
   6  -5  -6   74.12   31.15   0
   6   1  12   24.55   25.14   0
   6   2   6  353.78   21.02   0
   6   2   7   94.21   19.33   0
   6   2   8  480.80   22.73   0
   7  -5  -5   26.29   36.17   0
   7   0   0  377.42   21.05   0
   7   1   3  268.79   20.21   0
   7   1  10    7.80   28.91   0
   7   1  11   52.97   24.27   0
   8  -4  -3  107.11   33.06   0
   8  -1   0   12.78   22.15   0
   8   0   2  281.81   21.18   0
   8   1   5  203.93   22.78   0
   8   1   6    5.84   20.29   0
   8   1   7  135.99   21.96   0
   8   1   8    4.58   22.72   0
   8   1   9   10.73   21.70   0
   9  -1   2   55.07   23.92   0
   9   0   5   41.36   24.32   0
   9   0   6   30.65   25.48   0
   9   0   7    6.45   25.55   0
  -9 -11  -4   -6.69   19.68   0
  -9 -10  -3   -0.28   19.18   0
  -9  -9  -1  233.36   22.51   0
  -9  -8   1  -23.72   19.53   0
  -9  -8   2   56.75   20.55   0
  -8 -11  -6   47.11   23.34   0
  -8 -10  -5    7.65   20.29   0
  -8  -9  -4   49.66   18.94   0
  -8  -8  -3   71.58   23.70   0
  -8  -7  -1  232.16   22.95   0
  -8  -6   3   10.67   28.13   0
  -8  -6   4  620.64   25.32   0
  -8  -6   5   21.12   22.27   0
  -8  -6   6  184.99   24.24   0
  -8  -6   7   -7.73   28.26   0
  -7 -10  -7  213.61   29.10   0
  -7  -9  -6  179.46   19.31   0
  -7  -8  -5  224.14   26.09   0
  -7  -7  -3   -2.13   16.81   0
  -7  -5   2   -0.84   16.25   0
  -6 -10  -8   -9.99   20.55   0
  -6  -9  -7   -7.57   19.09   0
  -6  -7  -5   15.88   17.80   0
  -6  -5  -2  552.10   22.03   0
  -6  -4   1   33.90   15.87   0
  -5 -10  -9  101.16   25.89   0
  -5  -5  -4 1967.31   34.21   0
  -5  -4  -2   77.71   17.04   0
  -5  -3   1  352.01   20.81   0
  -5  -3  10  213.14   36.51   0
  -4 -11 -10   17.86   22.42   0
  -4  -9  -9   43.85   19.51   0
  -4  -5  -5   16.47   17.70   0
  -4  -2  10   13.25   40.44   0
  -3 -10 -10   41.94   23.20   0
  -3  -8  -9   29.58   22.34   0
  -3  -4  -5  199.64   25.40   0
  -3  -2  -1 5446.19   52.42   0
  -2  -9 -10   28.61   25.31   0
  -2  -6  -8  239.93   25.23   0
  -2  -5  -7 1616.43   34.24   0
  -2  -1   0 1124.54   34.66   0
  -1  -7  -9   33.46   19.81   0
   0   0  12   20.24   25.50   0
   0   1   5 2044.50   47.84   0
   0   1   6   75.53   24.44   0
   0   1   7    3.79   21.58   0
   1  -4  -7  359.84   33.44   0
   1   1  10  161.92   25.66   0
   2   0  14   56.33   25.51   0
   2   1  11  299.22   27.75   0
   3   0  14   11.80   24.60   0
   3   1   1  801.98   27.35   0
   3   1  12   31.23   22.16   0
   4   1   1  737.99   23.63   0
   4   1  12  198.20   22.24   0
   4   2   6    7.57   17.28   0
   4   2   7  457.17   21.17   0
   5  -3  -5  260.17   30.28   0
   5  -2  -4  353.52   24.69   0
   5   0  -1 1721.18   32.10   0
   5   1  11   38.10   26.81   0
   5   1  12  168.35   23.83   0
   6  -1  -2   11.96   18.19   0
   6   0   0  561.77   28.24   0
   6   1   2   53.55   18.84   0
   6   1   3  956.87   30.77   0
   6   1  10  119.50   27.14   0
   6   1  11   58.59   23.02   0
   7  -4  -4   28.78   28.44   0
   7  -2  -2  306.36   27.61   0
   7  -1  -1  696.69   25.79   0
   7   0   1   17.68   17.63   0
   7   1   4  165.88   19.55   0
   7   1   5  387.15   22.98   0
   7   1   6   53.54   23.06   0
   7   1   7  286.53   25.75   0
   7   1   8   -3.38   20.28   0
   7   1   9  212.06   20.67   0
   8  -3  -2  185.13   26.20   0
   8  -2  -1  145.47   23.12   0
   8  -1   1  132.68   21.34   0
   8   0   3  307.68   22.98   0
   8   0   4  208.02   26.38   0
   8   0   9   29.06   27.89   0
   9  -2   1  151.86   25.54   0
   9  -2   2   -2.09   35.42   0
   9  -1   3  -20.93   24.48   0
   9  -1   4   61.20   24.98   0
   9  -1   5   50.28   29.47   0
  -9 -10  -4   68.39   20.97   0
  -9  -9  -2   16.93   19.14   0
  -9  -8   0   86.19   20.06   0
  -8 -11  -7   23.38   31.14   0
  -8 -10  -6  165.39   21.38   0
  -8  -9  -5  421.26   26.73   0
  -8  -6   1    9.07   24.86   0
  -8  -6   2  295.22   22.32   0
  -8  -6   8   81.17   32.64   0
  -7 -11  -8  112.13   23.21   0
  -7  -7  -4  102.11   17.95   0
  -7  -6  -2   97.33   17.58   0
  -7  -5   1  852.11   23.13   0
  -7  -5   9  208.55   26.70   0
  -6 -11  -9   -5.50   21.93   0
  -6  -8  -7   41.66   20.96   0
  -6  -6  -4   13.46   17.43   0
  -6  -4   0 1122.59   24.11   0
  -6  -4  10  243.38   36.22   0
  -5 -11 -10   13.14   29.31   0
  -5  -8  -8   18.19   25.76   0
  -5  -7  -7   54.26   20.29   0
  -5  -3   0 1153.69   31.26   0
  -4 -10 -10   35.11   27.30   0
  -4  -4  -4  981.69   24.21   0
  -4  -3  -2 1135.29   25.76   0
  -4  -2   1 3629.50   43.34   0
  -3  -9 -10   75.94   27.00   0
  -3  -1   2 1360.30   37.41   0
  -2  -7  -9   93.31   22.45   0
  -2  -4  -6 1519.16   30.29   0
  -1  -1  13    7.09   30.60   0
  -1   0  10  167.31   26.76   0
   0  -8 -10   22.54   30.32   0
   0  -1  14   -4.96   23.17   0
   1  -5  -8  469.51   35.92   0
   1  -3  -6  753.24   43.13   0
   1   1   9 1739.92   38.37   0
   2   0  13   10.10   29.31   0
   3   1  11   61.83   20.36   0
   4  -1  -3  131.18   19.45   0
   4   0  -1 3193.66   44.74   0
   4   0  13  119.83   30.23   0
   4   1  11   15.34   21.34   0
   5   0  13   44.14   25.78   0
   5   1   2 1984.92   30.89   0
   5   1  10  106.24   25.52   0
   6  -4  -5   41.57   20.46   0
   6  -3  -4   14.90   25.31   0
   6  -2  -3   22.59   19.89   0
   6   0  12   78.72   24.81   0
   6   1   4  218.33   19.89   0
   6   1   5  520.85   27.26   0
   6   1   8  268.65   26.76   0
   6   1   9  463.94   22.89   0
   7  -3  -3   25.41   22.95   0
   7  -1   0   27.02   25.12   0
   7   0   2  196.62   19.60   0
   7   0  10   19.34   28.18   0
   7   0  11   -8.41   24.43   0
   8  -4  -2   16.85   30.63   0
   8  -3  -1    5.37   30.94   0
   8  -2   0   11.91   22.30   0
   8  -1   2   87.03   21.75   0
   8   0   5  165.97   19.90   0
   8   0   6  296.17   24.93   0
   8   0   7   60.96   22.33   0
   8   0   8   11.46   22.70   0
   9  -2   3   64.91   26.18   0
 -10  -9   0    6.39   31.72   0
 -10  -9   1   22.44   24.17   0
  -9 -10  -5   22.38   28.31   0
  -9  -9  -3  224.12   21.19   0
  -9  -8  -1   75.18   20.45   0
  -9  -7   2    1.46   20.22   0
  -9  -7   3  119.20   22.68   0
  -9  -7   4   37.82   23.70   0
  -9  -7   5  131.06   24.63   0
  -9  -7   6  -14.23   23.78   0
  -8  -8  -4  170.04   20.17   0
  -8  -7  -2    0.32   17.01   0
  -8  -6   0  612.39   22.59   0
  -7 -10  -8    5.17   21.77   0
  -7  -9  -7   83.96   20.76   0
  -7  -8  -6  190.46   20.44   0
  -7  -6  -3  148.64   17.85   0
  -7  -5   0   48.02   17.74   0
  -7  -5  10    5.00   30.03   0
  -6 -10  -9  182.62   21.45   0
  -6  -9  -8   56.22   20.24   0
  -6  -7  -6  403.62   20.98   0
  -6  -6  -5 1175.16   29.67   0
  -6  -5  -3   90.90   18.07   0
  -5  -9  -9   49.12   21.43   0
  -5  -6  -6   -7.49   18.35   0
  -5  -4  -3  506.80   20.46   0
  -4  -8  -9    7.52   21.07   0
  -4  -7  -8  310.60   20.40   0
  -4  -6  -7  541.63   22.59   0
  -4  -5  -6  963.86   23.43   0
  -3  -6  -8  632.38   25.59   0
  -2 -10 -11   67.72   29.27   0
  -2  -8 -10  136.52   26.25   0
  -2  -2  -3 1200.77   31.72   0
  -1  -8 -10   95.49   20.19   0
   0  -5  -8   88.60   20.62   0
   0  -4  -7  503.55   25.52   0
   1  -8 -10    6.99   31.77   0
   1  -1  14   34.02   29.43   0
   1   0  12  274.63   27.42   0
   1   1   3  318.31   25.05   0
   2   0  -1  136.77   29.94   0
   2   1   2  331.41   23.60   0
   2   1  10  592.96   24.51   0
   3  -1  -3  257.14   26.53   0
   3   0  -1 1249.13   35.90   0
   3   0  13   52.90   25.27   0
   3   1   2 1173.83   28.39   0
   3   1  10  214.15   20.12   0
   4  -5  -7  394.48   37.90   0
   4   1   2 2531.10   35.60   0
   4   1  10   84.90   19.12   0
   5  -6  -7   17.45   25.96   0
   5  -1  -2    9.76   16.92   0
   5   0   0  710.25   24.41   0
   5   0  12   18.00   22.51   0
   5   1   3  359.62   21.49   0
   5   1   4 2027.11   36.80   0
   5   1   8  583.75   29.41   0
   5   1   9  162.81   20.24   0
   6  -6  -6   90.44   27.82   0
   6  -1  -1 1389.49   28.52   0
   6   0   1    1.31   19.11   0
   6   0  11   31.08   22.96   0
   6   1   6  119.10   19.23   0
   6   1   7  416.14   21.76   0
   7  -5  -4   90.64   33.34   0
   7  -2  -1   20.30   26.52   0
   7  -1   1  620.51   29.21   0
   7   0   3  305.13   21.82   0
   7   0   4  247.40   21.16   0
   7   0   5   32.25   25.60   0
   7   0   7   63.02   27.94   0
   7   0   8  256.17   22.51   0
   7   0   9   25.86   20.86   0
   8  -2   1   26.70   23.60   0
   8  -1   3   34.82   22.06   0
   8  -1   4  181.47   23.27   0
   8  -1   5  131.16   29.84   0
   8  -1   6   38.10   26.97   0
   8  -1   7   60.10   30.37   0
   8  -1   8   27.49   22.58   0
 -10  -9  -1    5.57   22.61   0
 -10  -8   2   93.09   28.29   0
  -9  -9  -4   -6.47   19.78   0
  -9  -8  -2  165.59   19.62   0
  -9  -7   0  167.39   20.86   0
  -9  -7   1   83.86   21.18   0
  -8 -10  -7   62.38   22.50   0
  -8  -9  -6   62.71   19.30   0
  -8  -8  -5   83.78   19.73   0
  -8  -7  -3   12.09   17.66   0
  -8  -6  -1    7.68   16.95   0
  -7  -7  -5  107.26   19.08   0
  -7  -5  -1  963.77   24.76   0
  -7  -4   3   17.33   17.46   0
  -7  -4   4  373.13   23.29   0
  -7  -4   5    6.62   17.77   0
  -7  -4   6  293.10   26.84   0
  -6  -4  -1    6.77   17.38   0
  -6  -3   3  210.16   19.47   0
  -6  -3   4  328.53   22.22   0
  -6  -3   5  612.99   26.26   0
  -6  -3   6  223.75   22.96   0
  -5 -10 -10   18.16   22.71   0
  -5  -5  -5   30.13   18.85   0
  -5  -3  -1  462.34   20.58   0
  -5  -2   4  493.76   26.38   0
  -5  -2   5  861.35   33.83   0
  -4  -9 -10   -0.45   21.08   0
  -4  -3  -3 1123.31   25.47   0
  -4  -2   0  720.57   23.11   0
  -3 -10 -11   57.34   28.52   0
  -3  -7  -9  528.86   22.96   0
  -3  -5  -7  204.13   18.33   0
  -3  -3  -4  818.02   23.62   0
  -3  -2  -2 1266.93   29.13   0
  -3  -2  12    7.20   34.94   0
  -2  -3  -5 2870.19   39.40   0
  -2  -1  11   21.30   31.30   0
  -1  -5  -8  122.24   25.53   0
  -1  -4  -7  329.06   24.46   0
  -1  -2  -4 1299.58   34.68   0
   0  -6  -9  115.85   29.28   0
   0  -3  -6  837.49   34.16   0
   0   0  11   11.83   19.97   0
   1   1   4  578.99   26.36   0
   1   1   7  949.10   33.50   0
   1   1   8   -5.99   16.82   0
   2  -1  14   21.79   26.14   0
   2   0  12  428.31   25.19   0
   2   1   3 1214.19   37.35   0
   2   1   9  960.40   27.44   0
   3  -1  14   15.77   25.53   0
   3   0  12  198.86   22.54   0
   3   1   3 1103.77   32.45   0
   3   1   9  270.08   20.90   0
   4  -2  -4  245.03   22.17   0
   4   0  12    4.87   22.02   0
   4   1   3  180.98   19.60   0
   4   1   4 2199.82   36.68   0
   4   1   8  680.57   25.09   0
   4   1   9    1.80   17.91   0
   5   0  11  115.25   21.90   0
   5   1   5  217.51   22.10   0
   5   1   6  164.05   20.07   0
   5   1   7  328.51   21.40   0
   6  -5  -5  184.60   30.73   0
   6  -2  -2  978.96   32.65   0
   6   0   2  196.07   21.46   0
   6   0   9   33.42   19.82   0
   6   0  10   94.85   22.07   0
   7  -4  -3  293.27   27.24   0
   7  -3  -2  235.26   25.16   0
   7  -1   2   28.88   26.65   0
   7  -1   9  196.06   26.78   0
   7  -1  10   58.69   23.73   0
   7   0   6  236.73   21.02   0
   8  -4  -1   66.91   26.86   0
   8  -3   0   62.07   24.37   0
   8  -2   2   22.02   22.16   0
   8  -2   3   66.54   29.71   0
 -10  -9  -2   28.43   22.32   0
 -10  -8   0  108.38   31.99   0
 -10  -8   1   53.16   24.13   0
  -9 -10  -6  116.45   21.72   0
  -9  -9  -5  175.45   22.44   0
  -9  -8  -3    8.01   17.32   0
  -9  -7  -1  131.84   22.06   0
  -9  -6   4  146.60   29.40   0
  -8 -10  -8   11.37   27.16   0
  -8  -9  -7  122.11   28.60   0
  -8  -7  -4   11.09   17.33   0
  -8  -6  -2   63.30   17.90   0
  -8  -5   2  -23.58   18.45   0
  -8  -5   3  453.92   24.01   0
  -8  -5   4   84.53   20.16   0
  -8  -5   5  427.42   26.49   0
  -8  -5   6   30.07   20.88   0
  -7 -10  -9  161.68   24.02   0
  -7  -9  -8   55.68   20.92   0
  -7  -8  -7   30.75   18.32   0
  -7  -7  -6  175.61   22.96   0
  -7  -6  -4  112.32   17.24   0
  -7  -5  -2   99.95   17.96   0
  -7  -4   1   -5.82   21.87   0
  -7  -4   2  444.50   20.50   0
  -7  -4   7   35.70   19.96   0
  -6 -10 -10   81.13   27.06   0
  -6  -9  -9   -5.55   21.22   0
  -6  -8  -8   69.78   18.97   0
  -6  -7  -7   58.62   18.27   0
  -6  -6  -6   17.94   24.24   0
  -6  -5  -4 2498.15   31.69   0
  -6  -4  -2  283.19   20.75   0
  -6  -3   2  243.76   18.85   0
  -6  -3   7  148.11   22.44   0
  -5  -9 -10   53.93   27.90   0
  -5  -8  -9   49.83   20.44   0
  -5  -7  -8  205.78   21.42   0
  -5  -6  -7  412.20   20.63   0
  -5  -4  -4    8.43   17.01   0
  -5  -2   3  562.19   23.22   0
  -5  -2   6  520.37   27.07   0
  -4 -10 -11   -1.42   28.83   0
  -4  -7  -9  671.38   28.21   0
  -4  -6  -8  255.88   24.62   0
  -4  -4  -5 1575.87   28.57   0
  -3  -8 -10  149.67   21.84   0
  -3  -4  -6  147.03   19.18   0
  -3  -1   1   36.33   19.21   0
  -2  -9 -11   98.52   30.39   0
  -2  -2  13  258.87   35.01   0
  -2  -1  -1    2.32   20.02   0
  -1  -9 -11   53.68   32.22   0
  -1  -6  -9   -1.16   18.94   0
  -1  -2  14   34.09   28.23   0
  -1  -1  -2  265.60   24.29   0
  -1  -1  12   20.57   26.85   0
  -1   0   9 1651.07   46.82   0
   0  -1  13  311.21   26.26   0
   1  -6  -9  644.24   40.74   0
   1   0  11   73.76   27.91   0
   1   1   5 3456.69   49.91   0
   1   1   6 1051.62   29.76   0
   2  -1  -3  311.04   27.67   0
   2   1   4 1937.35   37.79   0
   2   1   7 2021.75   37.47   0
   2   1   8  224.23   19.77   0
   3  -1  13    4.72   34.11   0
   3   0  11  153.26   30.30   0
   3   1   4 1281.44   28.30   0
   3   1   5  221.74   25.06   0
   3   1   6 1136.93   32.59   0
   3   1   7 1253.55   28.26   0
   3   1   8  342.64   20.02   0
   4  -7  -8   10.94   35.19   0
   4  -4  -6  248.87   31.86   0
   4  -3  -5  433.64   32.60   0
   4  -1  -2 1542.02   36.98   0
   4  -1  13    0.95   23.52   0
   4   0   0  407.02   22.50   0
   4   0  11  124.76   23.56   0
   4   1   5   23.04   18.29   0
   4   1   6  649.87   23.62   0
   4   1   7   14.06   19.21   0
   5  -7  -7   54.63   32.20   0
   5  -5  -6   11.31   25.64   0
   5  -2  -3    3.62   19.61   0
   5  -1  -1 1311.13   33.87   0
   5  -1  12   76.11   24.91   0
   5   0   1  878.77   25.74   0
   5   0  10  106.46   21.52   0
   6  -4  -4   17.10   20.28   0
   6  -3  -3  204.15   21.65   0
   6  -1   0   88.89   19.35   0
   6  -1  10    9.35   27.50   0
   6  -1  11   84.49   23.32   0
   6   0   3   -3.10   20.42   0
   6   0   4  271.63   20.58   0
   6   0   5  -25.51   18.07   0
   6   0   6   38.52   20.18   0
   6   0   7    0.67   19.73   0
   6   0   8  598.70   24.96   0
   7  -5  -3   14.66   30.30   0
   7  -3  -1   88.21   29.27   0
   7  -2   0  421.75   25.88   0
   7  -1   3  334.18   22.51   0
   7  -1   4   69.88   24.33   0
   7  -1   5  282.63   26.31   0
   7  -1   6    2.57   27.55   0
   7  -1   7  210.47   21.30   0
   7  -1   8   44.72   22.16   0
   8  -4   0   25.39   25.48   0
   8  -3   1   17.67   22.99   0
   8  -3   2   57.31   28.08   0
   8  -2   4   32.79   22.52   0
   8  -2   5   50.37   22.69   0
   8  -2   6   60.99   25.07   0
   8  -2   7   81.63   24.57   0
 -10  -9  -3   15.52   22.99   0
 -10  -8  -1  132.27   23.02   0
  -9  -9  -6  -10.28   24.33   0
  -9  -8  -4  181.62   21.67   0
  -9  -7  -2   83.49   19.97   0
  -9  -6   1   16.69   24.45   0
  -9  -6   2  138.09   22.16   0
  -9  -6   3    4.51   20.28   0
  -9  -6   5   25.31   23.90   0
  -9  -6   6   42.60   25.01   0
  -8  -8  -6  362.78   21.11   0
  -8  -7  -5  226.07   26.95   0
  -8  -6  -3   -1.88   22.90   0
  -8  -5   0   11.79   23.53   0
  -8  -5   1  757.37   23.59   0
  -8  -5   7   64.28   23.15   0
  -7  -6  -5  246.32   20.48   0
  -7  -5  -3  526.33   21.11   0
  -7  -4   0 1650.89   28.97   0
  -7  -4   8  105.68   27.98   0
  -6  -5  -5   85.15   23.36   0
  -6  -4  -3  130.55   24.41   0
  -6  -4  11   -3.24   37.76   0
  -6  -3   1 1393.02   27.28   0
  -6  -3   8   21.03   28.69   0
  -5 -10 -11   33.85   28.57   0
  -5  -5  -6 1159.54   26.03   0
  -5  -3  -2   18.49   16.55   0
  -5  -2   2  896.05   26.19   0
  -5  -2   7  268.05   24.72   0
  -4  -8 -10  221.99   23.19   0
  -4  -5  -7   76.64   17.07   0
  -4  -2  -1 2275.40   33.67   0
  -3  -9 -11   80.65   24.23   0
  -2  -7 -10   11.68   23.96   0
  -2  -6  -9    3.55   18.19   0
  -2  -5  -8  159.66   20.61   0
  -2  -4  -7    3.28   23.86   0
  -2   0   4    7.62   29.03   0
  -1  -7 -10  138.08   23.18   0
  -1  -3  -6   20.62   23.20   0
   0  -9 -11    4.08   32.21   0
   0  -7 -10  326.11   31.39   0
   0   0  10 1313.10   35.74   0
   1  -1  13  162.75   23.42   0
   2  -1  13  107.31   24.31   0
   2   0  11  128.48   21.73   0
   2   1   5  866.01   26.21   0
   2   1   6 2386.54   36.59   0
   3   0   0 1339.41   35.59   0
   4  -1  12  175.91   24.30   0
   4   0  10   -6.75   20.37   0
   5  -4  -5   18.58   21.95   0
   5  -3  -4  160.34   22.43   0
   5  -1  11   22.42   20.61   0
   5   0   2  289.01   21.14   0
   5   0   3 2255.09   38.29   0
   5   0   8  272.82   21.61   0
   5   0   9  325.62   21.00   0
   6  -6  -5  -24.15   31.78   0
   6  -2  -1    2.83   19.13   0
   6  -2  11    5.34   24.97   0
   6  -1   1  529.94   23.44   0
   6  -1   9   53.69   19.05   0
   7  -4  -2   38.58   24.16   0
   7  -2   1   -4.50   21.38   0
   7  -2   2  251.35   28.84   0
   7  -2   8  109.41   30.79   0
   7  -2   9   19.82   22.19   0
   8  -4   1   45.76   26.77   0
   8  -4   2  -22.59   35.35   0
   8  -3   3  -11.22   24.92   0
   8  -3   4   19.00   23.51   0
   8  -3   5   -5.85   25.12   0
 -10  -9  -4   -4.33   21.28   0
 -10  -8  -2   80.09   21.55   0
 -10  -7   1   97.23   23.13   0
 -10  -7   2   44.81   23.77   0
 -10  -7   3    9.84   23.78   0
  -9  -8  -5    0.26   20.98   0
  -9  -7  -3  131.77   18.30   0
  -9  -6  -1   91.55   25.23   0
  -9  -6   0  123.01   20.13   0
  -8  -9  -8    7.71   20.66   0
  -8  -8  -7  109.90   23.01   0
  -8  -5  -1  572.79   21.12   0
  -8  -5   8    5.56   25.61   0
  -7 -10 -10    0.66   29.04   0
  -7  -9  -9   22.98   23.07   0
  -7  -8  -8  100.73   20.57   0
  -7  -7  -7  106.04   18.32   0
  -7  -4  -1    3.08   18.31   0
  -6  -9 -10  281.10   23.61   0
  -6  -8  -9   68.49   20.28   0
  -6  -7  -8   75.08   19.46   0
  -6  -6  -7  169.03   24.86   0
  -6  -3   0  210.56   18.34   0
  -5  -8 -10  104.89   24.23   0
  -5  -7  -9  200.02   25.61   0
  -5  -6  -8   14.90   23.77   0
  -5  -4  -5 1748.38   32.47   0
  -5  -2   1 2731.91   36.67   0
  -4  -9 -11   33.75   23.11   0
  -4  -4  -6  123.13   18.44   0
  -4  -3  -4 1304.19   26.98   0
  -4  -1   4  505.04   29.94   0
  -4  -1   5  130.17   26.41   0
  -3  -7 -10    8.48   24.94   0
  -3  -6  -9    2.19   18.43   0
  -3  -5  -8   21.53   17.68   0
  -3  -3  -5 1607.27   29.36   0
  -3  -2  -3 1202.51   27.49   0
  -3  -1   0 2239.97   39.46   0
  -2  -2  -4 4037.13   47.99   0
  -1   0   1 2613.83   80.48   0
   1  -2  14   52.32   26.43   0
   1   0  10 1049.20   30.10   0
   2  -2  14   42.65   25.18   0
   2  -1  12    3.09   27.60   0
   2   0  10  208.94   21.72   0
   3  -2  -4  134.33   24.42   0
   3  -1  12  101.54   21.86   0
   3   0  10   67.97   20.35   0
   4  -2  13   33.07   24.57   0
   4  -1  11    6.49   26.46   0
   4   0   1 1380.81   29.07   0
   4   0   8  109.22   27.45   0
   4   0   9  450.70   21.32   0
   5  -2  -2 1143.36   35.63   0
   5  -2  12   29.90   23.97   0
   5  -1   0   -3.14   18.18   0
   5  -1  10   17.81   21.78   0
   5   0   4  217.68   22.49   0
   5   0   5  368.00   22.06   0
   5   0   6   91.23   19.15   0
   5   0   7  705.32   23.77   0
   6  -5  -4   86.81   31.39   0
   6  -4  -3  199.98   28.52   0
   6  -3  -2  124.44   21.26   0
   6  -2   0  855.79   30.80   0
   6  -2  10   19.27   23.71   0
   6  -1   2   31.71   20.72   0
   6  -1   3  742.44   25.15   0
   6  -1   4   28.17   24.23   0
   6  -1   6   -0.14   25.69   0
   6  -1   7  146.26   20.36   0
   6  -1   8   -9.32   19.66   0
   7  -5  -2  197.82   27.78   0
   7  -4  -1  280.96   26.39   0
   7  -3   0   60.79   23.04   0
   7  -3   1   71.11   31.35   0
   7  -2   3   23.97   19.92   0
   7  -2   4  208.34   21.67   0
   7  -2   5    9.12   19.17   0
   7  -2   6  144.51   21.54   0
   7  -2   7   90.68   23.33   0
   8  -4   3   34.72   24.97   0
 -10  -9  -5   30.41   20.92   0
 -10  -8  -4   68.00   26.92   0
 -10  -8  -3    7.91   24.00   0
 -10  -7  -1   53.20   23.76   0
 -10  -7   0  142.60   23.45   0
  -9  -9  -7   43.72   23.12   0
  -9  -8  -6  167.76   21.48   0
  -9  -7  -4   35.67   18.38   0
  -9  -6  -2  160.41   25.01   0
  -8  -7  -6   50.40   18.99   0
  -8  -6  -4  138.12   19.27   0
  -8  -5  -2   18.54   17.14   0
  -8  -5   9   30.62   32.37   0
  -7  -6  -6   82.63   18.38   0
  -7  -5  -4  293.97   19.09   0
  -7  -4  -2  755.20   27.45   0
  -7  -4   9    8.36   31.37   0
  -6  -5  -6 1017.85   27.07   0
  -6  -4  -4  760.54   23.47   0
  -6  -3  -1  394.85   21.55   0
  -5  -9 -11   63.78   28.88   0
  -5  -5  -7   68.28   18.92   0
  -5  -3  -3  519.60   20.90   0
  -5  -2   0  549.06   23.01   0
  -5  -2   8  295.76   33.36   0
  -4  -7 -10   36.62   24.72   0
  -4  -6  -9   63.76   25.56   0
  -4  -2  -2    1.56   16.93   0
  -4  -1   3  777.85   27.75   0
  -4  -1   6 1317.68   47.58   0
  -3  -8 -11   26.56   27.47   0
  -3  -4  -7  664.68   23.44   0
  -2  -8 -11   80.04   22.34   0
  -2  -3  -6  473.62   23.10   0
  -2  -3  14   23.53   26.36   0
  -1  -8 -11  186.24   29.38   0
  -1  -2  13   79.32   27.46   0
  -1  -1  11   -0.83   25.75   0
  -1   0   8   99.70   25.40   0
   1  -1  12   -0.86   21.35   0
   2  -2  13   13.16   30.36   0
   2   0   0  236.99   24.68   0
   2   0   9  474.11   29.48   0
   3  -2  13   39.56   23.47   0
   3  -1  -2 3233.12   50.98   0
   3  -1  11   45.90   27.52   0
   3   0   1 1225.99   33.86   0
   3   0   9  211.91   19.66   0
   4  -2  -3   89.53   18.45   0
   4  -2  12    0.91   21.56   0
   4  -1  -1  591.82   24.62   0
   4  -1  10   62.59   25.41   0
   4   0   2  172.34   20.36   0
   4   0   3 2893.33   40.82   0
   4   0   6  -17.33   26.62   0
   4   0   7 1252.23   28.41   0
   5  -6  -6  210.59   26.74   0
   5  -2  11   19.73   23.44   0
   5  -1   1  258.91   27.57   0
   5  -1   8  245.55   25.07   0
   5  -1   9   71.10   18.74   0
   6  -3  10   17.81   28.36   0
   6  -2   1   40.16   27.28   0
   6  -2   8   72.23   28.08   0
   6  -2   9    5.91   21.08   0
   6  -1   5   46.06   19.90   0
   7  -5  -1   64.52   32.07   0
   7  -4   0   87.55   24.05   0
   7  -3   2    7.83   21.95   0
   7  -3   3   37.98   27.15   0
   7  -3   4    5.64   28.62   0
   7  -3   5   53.77   25.78   0
   7  -3   6    8.55   27.22   0
   7  -3   7   50.91   23.02   0
   7  -3   8   -4.50   22.28   0
 -10  -7  -2  189.07   22.47   0
 -10  -6   3   -1.30   27.48   0
  -9  -9  -8    8.08   23.60   0
  -9  -7  -5  251.61   22.74   0
  -9  -6  -3   55.48   18.56   0
  -9  -5   1  101.15   26.78   0
  -9  -5   2    7.88   19.23   0
  -9  -5   3  103.65   21.94   0
  -9  -5   4  120.26   23.97   0
  -9  -5   5   15.56   31.70   0
  -8  -9  -9   18.87   22.74   0
  -8  -8  -8   90.40   21.70   0
  -8  -7  -7  136.41   25.60   0
  -8  -6  -5   31.12   18.59   0
  -8  -5  -3  290.42   19.81   0
  -8  -4   1   38.60   19.44   0
  -8  -4   2  460.53   23.78   0
  -8  -4   3  -11.09   19.98   0
  -8  -4   4  272.97   22.10   0
  -8  -4   5   81.43   21.67   0
  -8  -4   6   75.63   27.48   0
  -7  -9 -10  189.70   24.14   0
  -7  -8  -9   99.92   21.07   0
  -7  -7  -8   63.98   19.38   0
  -7  -5  -5  478.47   21.80   0
  -7  -4  -3  104.81   22.34   0
  -7  -3   2   18.56   18.54   0
  -7  -3   3   83.95   19.07   0
  -7  -3   4   18.03   19.59   0
  -7  -3   5  247.82   26.99   0
  -6  -9 -11   13.13   27.67   0
  -6  -8 -10   -7.54   20.68   0
  -6  -7  -9   19.23   18.88   0
  -6  -6  -8   19.50   24.74   0
  -6  -3  -2   60.91   16.83   0
  -6  -3   9  177.34   32.41   0
  -5  -4  -6   25.52   25.51   0
  -5  -3  -4  291.69   26.12   0
  -5  -2  -1  470.41   27.10   0
  -4  -8 -11   26.73   23.26   0
  -4  -5  -8  457.46   21.19   0
  -4  -3  -5   58.61   17.61   0
  -4  -1   2 2075.73   36.59   0
  -3  -3  13   -1.53   32.05   0
  -3  -1  -1  854.41   27.82   0
  -2  -1  -2  308.42   23.74   0
  -2  -1  10  640.59   38.55   0
  -2   0   3  896.42   43.14   0
  -1  -3  14   23.35   38.03   0
   0  -2  -5 1050.43   37.72   0
   0  -2  13   13.30   23.39   0
   0  -1  -3  281.00   29.89   0
   1  -7 -10  206.20   41.01   0
   1  -3  14   24.46   33.83   0
   1  -2  13    3.26   23.78   0
   1   0   9 1029.61   29.78   0
   2  -1  11  297.11   23.34   0
   3  -8  -9   32.02   37.47   0
   3  -6  -8   77.81   33.77   0
   3  -3  13   55.39   29.31   0
   3  -2  12   50.05   22.30   0
   3   0   7  526.93   29.44   0
   3   0   8  852.67   27.19   0
   4  -6  -7    9.92   32.29   0
   4  -2  11  177.36   22.36   0
   4  -1   9    4.15   23.47   0
   4   0   4   29.43   19.47   0
   4   0   5  913.17   26.02   0
   5  -5  -5  137.03   24.40   0
   5  -4  -4  111.49   27.40   0
   5  -3  -3 1156.38   31.93   0
   5  -3  11   19.07   24.39   0
   5  -2  -1  107.52   19.09   0
   5  -2  10   10.69   22.24   0
   5  -1   2  729.60   25.08   0
   5  -1   6  297.53   27.91   0
   5  -1   7  155.88   21.60   0
   6  -6  -4  180.08   27.98   0
   6  -5  -3  118.22   33.23   0
   6  -4  -2   27.98   21.30   0
   6  -3  -1  413.95   24.88   0
   6  -3   9   81.84   21.65   0
   6  -2   2 1300.51   28.56   0
   6  -2   3   -8.86   26.30   0
   6  -2   4  672.01   28.88   0
   6  -2   5   73.48   27.40   0
   6  -2   6  208.69   20.61   0
   6  -2   7    9.88   20.70   0
   7  -6  -1   30.19   28.54   0
   7  -5   0  191.70   26.74   0
   7  -4   1  181.66   25.73   0
   7  -4   2   56.40   23.29   0
   7  -4   3  100.01   30.46   0
   7  -4   5   44.64   28.60   0
   7  -4   6    0.33   29.30   0
 -10  -8  -5   22.86   21.36   0
 -10  -7  -3  243.63   23.01   0
 -10  -6   0   17.32   21.07   0
 -10  -6   1   36.95   21.95   0
 -10  -6   2   42.12   22.70   0
 -10  -6   4   -6.39   24.85   0
  -9  -8  -7   43.20   19.65   0
  -9  -7  -6  -10.11   26.08   0
  -9  -6  -4  176.48   23.97   0
  -9  -5  -1  160.08   27.23   0
  -9  -5   0   31.48   19.86   0
  -9  -5   6   88.30   24.60   0
  -8  -6  -6  181.71   20.50   0
  -8  -5  -4    6.04   22.75   0
  -8  -4  -1   28.46   21.70   0
  -8  -4   0  797.72   27.16   0
  -7  -6  -7   29.76   18.14   0
  -7  -3   0   41.61   22.05   0
  -7  -3   1  797.32   24.52   0
  -7  -3   6    0.28   20.42   0
  -6  -5  -7   -0.16   17.01   0
  -6  -4  -5  681.30   22.53   0
  -6  -3  -3  738.31   29.59   0
  -6  -2   2  473.32   27.10   0
  -6  -2   3  251.31   20.34   0
  -6  -2   4  252.83   23.01   0
  -6  -2   5  352.58   29.40   0
  -5  -8 -11   78.33   23.97   0
  -5  -7 -10   99.74   21.69   0
  -5  -6  -9  343.31   21.71   0
  -5  -5  -8  706.14   26.57   0
  -4  -9 -12   76.23   29.23   0
  -4  -4  -7 1304.18   26.83   0
  -4  -3  12   60.89   44.19   0
  -4  -2  -3 2793.09   35.87   0
  -4  -1   1  624.26   24.55   0
  -3  -9 -12   -1.69   22.88   0
  -3  -6 -10  576.61   27.31   0
  -3  -3  -6 1718.84   31.12   0
  -3  -2  -4 2242.04   34.13   0
  -2  -9 -12   77.08   27.89   0
  -2  -6 -10  260.70   22.63   0
  -2  -5  -9  223.96   21.63   0
  -2  -4  -8  289.13   27.08   0
  -2  -2  12    1.85   26.75   0
  -1  -6 -10   48.56   25.20   0
  -1  -5  -9   88.74   21.22   0
  -1  -4  -8  820.11   28.72   0
  -1  -2  -5  348.39   23.04   0
  -1  -1  -3  317.09   32.76   0
   0  -8 -11   81.13   32.06   0
   0  -3  14   10.52   26.12   0
   1  -1  11  419.40   24.52   0
   1   0   0 8644.34  115.40   0
   1   0   8  865.89   27.27   0
   2  -4  -7  399.10   57.69   0
   2  -2  12  140.71   23.13   0
   2   0   8  781.56   25.23   0
   3  -1  10  247.85   20.78   0
   3   0   2  560.77   24.59   0
   3   0   3 1957.56   37.10   0
   3   0   5 1192.18   33.83   0
   3   0   6   32.10   20.06   0
   4  -5  -6    0.85   26.74   0
   4  -3  -4  460.93   27.14   0
   4  -3  12   65.48   24.78   0
   4  -2  10   -0.74   28.31   0
   4  -1   0  742.42   26.26   0
   4  -1   8 1064.67   27.24   0
   5  -7  -6    4.78   27.12   0
   5  -3  10   44.02   22.92   0
   5  -2   0  291.47   28.62   0
   5  -2   8    5.56   25.18   0
   5  -2   9   11.16   20.01   0
   5  -1   3  625.15   25.26   0
   5  -1   4  542.14   23.56   0
   5  -1   5   19.38   19.12   0
   6  -4  -1  144.73   31.62   0
   6  -4   9    4.76   24.31   0
   6  -3   0   -7.43   21.42   0
   6  -3   1  500.81   32.08   0
   6  -3   7  280.16   22.48   0
   6  -3   8    7.67   22.34   0
   7  -6   0   29.11   25.14   0
   7  -5   1   85.25   24.93   0
   7  -5   2  215.65   26.51   0
   7  -5   3   49.03   30.36   0
   7  -5   4  110.46   35.23   0
   7  -4   4   58.21   24.63   0
 -10  -8  -6   24.60   20.67   0
 -10  -7  -4   65.94   23.35   0
 -10  -6  -2   82.50   27.28   0
 -10  -6  -1  116.26   23.70   0
  -9  -8  -8   51.46   23.36   0
  -9  -6  -5  123.52   28.73   0
  -9  -5  -2   -1.64   19.55   0
  -9  -5   7   13.07   26.51   0
  -8  -8  -9  111.74   21.98   0
  -8  -7  -8   83.83   20.39   0
  -8  -4  -2  574.07   26.05   0
  -8  -4   7   10.59   22.49   0
  -7  -8 -10   64.11   22.79   0
  -7  -7  -9  117.98   21.04   0
  -7  -6  -8   44.91   21.91   0
  -7  -5  -6   46.92   18.54   0
  -7  -4  -4  960.01   24.18   0
  -7  -3  -1  870.61   25.08   0
  -7  -3   7    9.43   28.83   0
  -6  -8 -11   75.05   28.92   0
  -6  -7 -10  187.20   27.54   0
  -6  -6  -9  373.53   25.42   0
  -6  -2   1  675.01   23.09   0
  -6  -2   6  853.59   35.83   0
  -5  -9 -12  126.27   25.48   0
  -5  -3  -5  304.92   25.67   0
  -5  -2  -2  699.97   22.57   0
  -4  -6 -10  528.55   31.41   0
  -4  -3  -6  502.55   27.28   0
  -4  -2  10    4.83   41.45   0
  -4  -1   0  854.06   25.53   0
  -4  -1   7    2.11   30.68   0
  -3  -7 -11  502.57   27.00   0
  -3  -5  -9  330.32   21.25   0
  -3  -4  -8  186.68   23.66   0
  -3  -2  11  188.67   32.05   0
  -3  -1  -2 1290.61   33.60   0
  -2  -7 -11  469.88   25.90   0
  -2  -2  -5 4393.76   48.46   0
  -2   0   2 1763.34   51.54   0
  -1  -9 -12  147.30   35.48   0
  -1  -2  12   45.87   29.94   0
  -1   0   7   64.73   17.96   0
   0  -5  -9   90.43   22.04   0
   0  -4  -8  637.53   30.19   0
   0  -2  12   39.00   32.19   0
   1  -3  13    5.13   29.20   0
   1  -2  12  119.94   24.18   0
   1  -1  10  223.86   27.29   0
   1   0   7   64.22   25.39   0
   2  -3  13   -1.31   23.85   0
   2  -1  10  373.24   23.23   0
   2   0   1  514.77   28.92   0
   2   0   6  470.72   30.72   0
   2   0   7  159.41   21.74   0
   3  -3  -5 1381.06   42.34   0
   3  -3  12  147.05   23.37   0
   3  -2  11  167.40   22.73   0
   3  -1  -1  353.53   28.60   0
   3  -1   9   13.02   18.60   0
   3   0   4   53.63   19.39   0
   4  -4  -5  203.54   25.12   0
   4  -3  11   32.06   25.22   0
   4  -2  -2  661.19   25.97   0
   4  -2   9   92.49   25.66   0
   4  -1   1  698.93   25.38   0
   4  -1   6  969.48   31.70   0
   4  -1   7   19.06   20.65   0
   5  -6  -5    4.63   27.71   0
   5  -4  -3   19.76   29.10   0
   5  -4  10   59.87   26.30   0
   5  -3  -2   46.69   20.58   0
   5  -3   9   41.88   19.49   0
   5  -2   1  -15.97   24.68   0
   5  -2   6   77.32   25.90   0
   5  -2   7  204.19   21.83   0
   6  -7  -3   20.81   32.14   0
   6  -6  -3   93.64   25.61   0
   6  -5  -2  224.45   26.73   0
   6  -4   0   67.16   30.05   0
   6  -4   7   13.10   26.68   0
   6  -4   8   60.80   22.42   0
   6  -3   2    6.29   18.90   0
   6  -3   3  628.68   25.42   0
   6  -3   4   56.07   20.22   0
   6  -3   5  302.71   23.39   0
   6  -3   6   27.72   20.57   0
 -10  -7  -5   65.51   22.10   0
 -10  -6  -3   85.67   22.55   0
  -9  -7  -7   42.96   21.24   0
  -9  -5  -3   41.69   19.37   0
  -9  -4   2  141.93   24.79   0
  -9  -4   3  135.73   28.22   0
  -8  -8 -10  112.31   33.12   0
  -8  -6  -7   15.62   18.14   0
  -8  -5  -5  276.30   20.03   0
  -8  -4  -3   38.75   18.64   0
  -8  -4   8   23.53   28.85   0
  -7  -5  -7  -22.54   17.71   0
  -7  -4  -5  105.50   19.45   0
  -7  -4  10   83.94   40.08   0
  -7  -3  -2  171.16   20.65   0
  -6  -5  -8  384.07   19.72   0
  -6  -4  -6   50.34   17.99   0
  -6  -3  -4   37.32   18.73   0
  -6  -2  -1  318.70   26.01   0
  -6  -2   0  492.88   21.48   0
  -5  -7 -11   -5.16   26.15   0
  -5  -6 -10   64.30   29.86   0
  -5  -4  -7  763.18   24.41   0
  -5  -2  -3 1425.84   27.49   0
  -4  -8 -12   30.34   33.08   0
  -4  -7 -11  193.71   23.75   0
  -4  -5  -9  396.57   21.47   0
  -4  -4  -8   52.67   26.06   0
  -4  -2  -4  501.27   21.80   0
  -4  -1  -1  854.10   29.27   0
  -3  -8 -12  136.61   24.66   0
  -3  -2  -5 2141.03   37.89   0
  -2  -8 -12  279.33   31.24   0
  -2  -3  -7  661.35   24.54   0
  -2  -3  13   23.65   25.03   0
  -2  -1  -3 1387.22   34.89   0
  -1  -7 -11  158.13   24.83   0
  -1  -3  -7 1103.30   31.17   0
  -1  -1  10  174.53   24.46   0
   0  -6 -10   -6.96   25.87   0
   0  -3  13   46.24   25.68   0
   0  -1  10   -1.04   20.55   0
   1  -2  -5 5529.18  158.18   0
   2  -4  13   22.50   24.82   0
   2  -3  12  112.38   32.64   0
   2  -2  11   76.72   23.60   0
   2  -1   9  172.34   20.98   0
   2   0   2 1190.82   35.77   0
   2   0   3   20.87   29.06   0
   2   0   4  635.16   30.38   0
   2   0   5 1454.10   31.87   0
   3  -5  -7  183.10   31.58   0
   3  -4  -6  698.86   41.32   0
   3  -4  12   16.40   32.88   0
   3  -3  11    9.53   27.82   0
   3  -2  10   26.09   21.44   0
   3  -1   8  828.11   26.22   0
   4  -7  -7  133.01   32.43   0
   4  -4  11   30.42   25.03   0
   4  -3  10  116.29   22.69   0
   4  -2   8   28.42   25.18   0
   4  -1   2 2257.29   35.22   0
   4  -1   3  279.41   21.71   0
   4  -1   4 1941.73   32.74   0
   4  -1   5  168.53   22.07   0
   5  -7  -5  150.81   33.33   0
   5  -5  -4   28.65   22.39   0
   5  -4   9    2.69   22.45   0
   5  -3  -1 1152.33   28.51   0
   5  -3   8   63.15   21.31   0
   5  -2   2 1215.05   29.81   0
   5  -2   3  118.26   20.80   0
   5  -2   4  367.57   22.46   0
   5  -2   5  152.84   20.31   0
   6  -7  -2    4.26   33.11   0
   6  -6  -2  159.67   29.14   0
   6  -5  -1   50.10   22.70   0
   6  -5   0   62.57   30.58   0
   6  -5   7   46.81   23.11   0
   6  -4   1    6.73   22.30   0
   6  -4   2  211.86   22.36   0
   6  -4   3   44.08   27.07   0
   6  -4   4  111.90   26.39   0
   6  -4   5   -7.00   19.40   0
   6  -4   6  112.71   23.77   0
 -10  -7  -6   22.20   21.43   0
 -10  -6  -4   40.92   22.09   0
 -10  -5  -1  -12.16   30.59   0
 -10  -5   0   46.70   21.97   0
 -10  -5   1  -18.60   22.66   0
 -10  -5   2   37.62   23.06   0
 -10  -5   3    2.93   24.20   0
 -10  -5   4   71.39   26.52   0
  -9  -7  -8   16.36   22.06   0
  -9  -6  -6  179.60   21.75   0
  -9  -5  -4   56.92   18.89   0
  -9  -4  -1   51.31   24.46   0
  -9  -4   0   73.96   20.40   0
  -9  -4   1   42.59   21.91   0
  -9  -4   4   65.44   25.24   0
  -9  -4   5  218.70   36.52   0
  -8  -7  -9  175.37   23.21   0
  -8  -6  -8  127.47   18.64   0
  -8  -5  -6   15.34   19.87   0
  -8  -4  -4  477.67   26.50   0
  -8  -3   0  109.18   25.01   0
  -8  -3   1  282.57   22.93   0
  -8  -3   2   43.54   20.09   0
  -8  -3   3   94.29   20.87   0
  -8  -3   4  115.08   27.08   0
  -7  -8 -11  112.44   23.85   0
  -7  -7 -10  233.19   23.66   0
  -7  -6  -9  165.47   22.26   0
  -7  -3  -3  896.18   23.82   0
  -7  -3   8    3.68   28.95   0
  -6  -4  -7  483.96   25.95   0
  -6  -3  -5  623.12   29.34   0
  -6  -2  -2  372.00   27.57   0
  -6  -2   7   11.14   26.10   0
  -5  -8 -12    8.70   24.18   0
  -5  -5  -9  107.43   19.37   0
  -5  -3  -6   12.42   19.48   0
  -5  -1   1  472.58   28.59   0
  -5  -1   2 2109.28   35.74   0
  -5  -1   3  627.56   25.20   0
  -5  -1   4  318.37   22.53   0
  -4  -4  13   23.55   34.69   0
  -3  -3  -7  419.45   22.16   0
  -2   0   1  125.88   24.23   0
  -1   0   0 8716.15  118.65   0
   0  -3  -7  936.12   33.62   0
   1  -4  13   60.40   34.62   0
   1  -3  12   -8.38   26.39   0
   1  -2  11    9.61   21.33   0
   1  -1   9  643.64   31.54   0
   1   0   6 1292.61   32.75   0
   2  -2  10   14.09   25.53   0
   2  -1  -2 2154.57   51.74   0
   2  -1   8  234.86   25.65   0
   3  -2  -3 2136.99   42.41   0
   3  -2   9  504.15   21.74   0
   3  -1   0 2912.63   46.25   0
   3  -1   7   67.49   19.75   0
   4  -8  -7   16.84   33.06   0
   4  -6  -6  138.86   29.82   0
   4  -4  10   40.67   22.98   0
   4  -3  -3 1108.61   33.31   0
   4  -3   9    4.16   18.67   0
   4  -2  -1   18.29   20.65   0
   4  -2   7 1042.08   27.10   0
   5  -6  -4  377.31   37.18   0
   5  -5  -3  255.17   29.48   0
   5  -5   9   22.70   23.77   0
   5  -4  -2  633.61   26.81   0
   5  -4   8  244.85   25.60   0
   5  -3   0    4.64   20.59   0
   5  -3   6  136.42   19.66   0
   5  -3   7  417.13   23.25   0
   6  -7  -1   62.47   36.04   0
   6  -6  -1   21.97   27.45   0
   6  -6   0  118.96   32.50   0
   6  -6   5   22.80   30.90   0
   6  -5   1  147.13   24.10   0
   6  -5   2  117.22   23.81   0
   6  -5   3   57.54   28.55   0
   6  -5   4    1.89   23.20   0
   6  -5   5   95.45   23.45   0
   6  -5   6  -10.64   21.06   0
 -10  -6  -5  113.54   22.14   0
 -10  -5  -2   90.62   23.95   0
  -9  -7  -9   53.95   29.63   0
  -9  -6  -7    8.15   21.61   0
  -9  -5  -5  119.10   20.06   0
  -9  -4  -2   73.48   21.44   0
  -9  -4   6    3.82   33.99   0
  -8  -7 -10   19.30   33.16   0
  -8  -5  -7   52.29   19.64   0
  -8  -4  -5   32.89   26.16   0
  -8  -3  -1  489.08   22.40   0
  -8  -3   5   60.12   23.38   0
  -7  -5  -8   23.47   18.52   0
  -7  -4  -6  222.89   20.77   0
  -7  -3  -4  146.22   19.06   0
  -7  -2   1   36.24   19.84   0
  -7  -2   2   18.47   19.30   0
  -7  -2   3    2.50   19.01   0
  -7  -2   4   97.66   27.77   0
  -6  -8 -12   18.63   23.53   0
  -6  -7 -11   -0.63   20.75   0
  -6  -6 -10    2.99   21.03   0
  -6  -5  -9    9.18   20.14   0
  -5  -4  -8   67.50   18.98   0
  -5  -2  -4  453.21   22.18   0
  -5  -1   0 1884.36   33.27   0
  -5  -1   5  503.22   28.94   0
  -4  -6 -11  183.04   27.33   0
  -4  -5 -10  191.89   27.87   0
  -4  -3  -7   10.01   17.36   0
  -4  -2  -5  379.27   20.94   0
  -4  -1  -2 2505.59   35.72   0
  -3  -6 -11  124.16   22.61   0
  -3  -5 -10   50.26   20.34   0
  -3  -4  -9   16.33   25.14   0
  -3  -3  12  107.43   32.05   0
  -3  -1  -3 1241.09   28.90   0
  -2  -6 -11   20.15   28.92   0
  -2  -5 -10   26.00   20.18   0
  -2  -4  -9   46.57   27.79   0
  -2  -2  -6 2571.10   43.32   0
  -2  -2  11   44.93   28.71   0
  -2  -1   9    7.28   27.37   0
  -1  -8 -12   67.76   38.35   0
  -1  -2  -6 3530.60   51.49   0
  -1   0   6  264.18   25.85   0
   0  -4  13   24.14   34.58   0
   0  -3  12   19.87   27.87   0
   0  -2  11   22.70   21.08   0
   0  -1   9 1548.18   41.97   0
   1   0   1 3332.12   64.59   0
   1   0   5 1289.13   33.01   0
   2  -4  12    6.79   23.66   0
   2  -3  11   65.04   24.08   0
   2  -2  -4   93.98   26.05   0
   3  -7  -8   24.54   31.10   0
   3  -4  11  179.54   25.47   0
   3  -3  10  201.25   22.67   0
   3  -2   8   40.52   27.66   0
   3  -1   1  692.59   33.75   0
   3  -1   5  899.63   25.55   0
   3  -1   6 1103.11   28.06   0
   4  -5  -5  190.93   32.11   0
   4  -5  10   43.95   25.31   0
   4  -4  -4  614.23   30.07   0
   4  -4   9   53.45   25.59   0
   4  -3   8  302.49   21.75   0
   4  -2   0  473.95   25.28   0
   4  -2   5  344.93   27.60   0
   4  -2   6   82.29   19.46   0
   5  -7  -4   27.63   36.05   0
   5  -6   8   41.70   27.46   0
   5  -5   8   16.67   21.01   0
   5  -4  -1   18.16   20.74   0
   5  -4   6  485.20   28.70   0
   5  -4   7   21.52   21.06   0
   5  -3   1 1155.68   29.18   0
   5  -3   2  -21.82   21.03   0
   5  -3   3 1220.30   27.98   0
   5  -3   4   66.22   20.46   0
   5  -3   5  340.24   21.69   0
   6  -7   0   34.07   24.57   0
   6  -7   1   24.27   25.44   0
   6  -7   2   80.38   30.59   0
   6  -6   1   94.16   23.71   0
   6  -6   2   34.15   26.17   0
   6  -6   3   73.01   24.52   0
   6  -6   4  138.36   24.76   0
 -10  -6  -6   31.97   23.29   0
 -10  -5  -4   62.40   31.34   0
 -10  -5  -3   16.95   22.75   0
  -9  -6  -8  163.53   21.07   0
  -9  -5  -6   74.76   21.52   0
  -9  -4  -3    0.38   20.34   0
  -8  -6  -9   -0.17   21.79   0
  -8  -4   9   17.81   33.09   0
  -8  -3  -3  593.07   27.64   0
  -8  -3  -2   19.95   18.51   0
  -8  -3   6   23.42   21.71   0
  -7  -7 -11   51.14   23.20   0
  -7  -6 -10  174.90   22.51   0
  -7  -4  -7   82.23   20.38   0
  -7  -3  -5  886.74   32.13   0
  -7  -2  -1    1.90   18.78   0
  -7  -2   0  289.97   20.34   0
  -7  -2   5  114.72   31.37   0
  -6  -4  -8   31.09   18.99   0
  -6  -3  -6   91.05   19.00   0
  -6  -2  -3  285.18   21.67   0
  -5  -7 -12   77.60   25.10   0
  -5  -6 -11  142.39   21.25   0
  -5  -5 -10  453.38   24.90   0
  -5  -3  -7   71.09   19.67   0
  -5  -2  -5  100.26   27.45   0
  -5  -1  -1  205.26   22.16   0
  -4  -7 -12  113.36   24.94   0
  -4  -4  -9  659.58   24.25   0
  -4  -1  -3  174.86   27.22   0
  -3  -7 -12    1.59   23.00   0
  -3  -4  13   96.70   39.05   0
  -3  -2  -6  425.50   22.81   0
  -3   0   2  200.10   23.13   0
  -3   0   3 1811.78   45.17   0
  -2  -7 -12   27.71   26.86   0
  -2  -3  -8  166.27   25.04   0
  -2  -3  12   68.99   28.54   0
  -2  -1  -4 1987.88   35.88   0
  -2   0   0  233.72   26.18   0
  -1  -5 -10  127.22   27.67   0
  -1  -4  -9  291.78   33.00   0
  -1  -4  13    6.57   30.82   0
  -1  -3  12   27.74   27.69   0
  -1  -1  -4  571.54   27.30   0
  -1  -1   9  732.94   30.92   0
   0  -7 -11   -4.08   33.03   0
   1  -4  12   17.20   34.43   0
   1  -3  11  103.28   29.57   0
   1  -2  10  292.10   23.20   0
   1  -1   8   13.55   18.75   0
   1   0   2 3943.86   63.08   0
   1   0   3 1059.88   36.86   0
   1   0   4 2480.28   45.56   0
   2  -5  12   19.47   24.43   0
   2  -2   9  959.23   27.07   0
   2  -1   7  564.32   24.90   0
   3  -5  11  -15.07   24.56   0
   3  -4  10   -7.70   21.49   0
   3  -3   9    5.24   19.64   0
   3  -2   7 2216.91   38.43   0
   3  -1   2 4417.89   47.59   0
   3  -1   3   63.37   20.53   0
   3  -1   4 2542.65   36.97   0
   4  -7  -6   19.22   32.09   0
   4  -5   9   28.09   23.05   0
   4  -4   8   79.12   27.30   0
   4  -3  -2  964.25   28.60   0
   4  -3   7  191.25   22.27   0
   4  -2   1   27.48   21.33   0
   4  -2   2  618.15   25.15   0
   4  -2   3 1139.21   28.46   0
   4  -2   4  305.09   24.54   0
   5  -8  -4   29.41   28.65   0
   5  -6  -3    2.96   23.59   0
   5  -6   7   -8.03   22.01   0
   5  -5  -2   10.08   21.80   0
   5  -5   6   -1.29   22.55   0
   5  -5   7  221.11   24.33   0
   5  -4   0  354.72   23.76   0
   5  -4   1   16.74   24.84   0
   5  -4   2  916.69   33.20   0
   5  -4   3   24.81   28.26   0
   5  -4   4  511.69   23.73   0
   5  -4   5   36.11   20.00   0
 -10  -6  -7   -5.27   22.09   0
 -10  -5  -5   17.54   22.75   0
 -10  -4  -1  141.17   31.78   0
 -10  -4   0    6.26   22.17   0
 -10  -4   1  124.39   23.99   0
 -10  -4   2   -4.98   25.24   0
 -10  -4   3  202.75   32.75   0
  -9  -5  -7  184.85   22.79   0
  -9  -4  -4   87.38   19.48   0
  -9  -4   7   28.93   28.33   0
  -9  -3   0  279.96   30.78   0
  -9  -3   1   78.23   26.41   0
  -9  -3   2  331.79   29.06   0
  -9  -3   3  136.75   31.79   0
  -8  -6 -10  234.46   28.96   0
  -8  -5  -8   20.60   19.03   0
  -8  -4  -6  264.50   22.17   0
  -8  -3  -4   -7.02   25.41   0
  -7  -5  -9  121.27   22.22   0
  -7  -2  -2  252.95   21.34   0
  -6  -7 -12   33.83   23.92   0
  -6  -6 -11   80.59   22.73   0
  -6  -5 -10  226.71   26.54   0
  -6  -2  -4 1397.16   28.38   0
  -6  -1   1  992.70   31.21   0
  -6  -1   2  113.56   19.89   0
  -6  -1   3  382.49   31.49   0
  -5  -4  -9 1357.95   29.61   0
  -5  -1  -2 2027.83   32.26   0
  -5  -1   6  873.87   37.29   0
  -4  -8 -13   26.55   25.71   0
  -4  -3  -8  929.64   27.16   0
  -4  -2  -6   19.47   18.64   0
  -3  -8 -13   18.20   25.99   0
  -3  -3  -8   39.95   18.72   0
  -3  -1  -4 1279.98   29.24   0
  -3   0   0 1334.11   36.64   0
  -3   0   1 1391.13   36.02   0
  -3   0   4  159.70   28.29   0
  -1  -6 -11  134.03   24.24   0
  -1  -3  -8  121.64   25.37   0
   0  -5  13    3.08   26.19   0
   0  -2  10  315.66   28.69   0
   2  -4  11  153.82   23.69   0
   2  -3  10  298.40   23.96   0
   2  -2   8  141.73   29.50   0
   2  -1  -1  164.04   33.53   0
   2  -1   6  805.47   28.17   0
   3  -8  -8  220.62   38.42   0
   3  -5  10  100.65   24.24   0
   3  -4   9   81.11   25.85   0
   3  -3  -4  755.56   30.18   0
   3  -3   8  658.71   27.64   0
   3  -2  -2  429.00   25.72   0
   3  -2   6   49.09   29.17   0
   4  -8  -6  135.57   37.70   0
   4  -6  -5    2.96   30.96   0
   4  -6   9   14.90   24.65   0
   4  -5   8   18.36   21.40   0
   4  -4  -3 1607.65   36.59   0
   4  -4   7  188.30   21.91   0
   4  -3  -1  502.64   24.42   0
   4  -3   5  203.75   26.94   0
   4  -3   6  212.18   21.13   0
   5  -8  -3   31.21   27.31   0
   5  -7  -3  309.13   28.41   0
   5  -7  -2   13.06   30.56   0
   5  -7   6   16.30   26.05   0
   5  -6  -2  386.44   27.89   0
   5  -6   5   10.92   26.78   0
   5  -6   6  125.32   22.82   0
   5  -5  -1   32.40   22.14   0
   5  -5   0    5.12   22.26   0
   5  -5   1   99.74   31.01   0
   5  -5   2   32.11   25.76   0
   5  -5   3  240.53   28.43   0
   5  -5   4   16.43   22.31   0
   5  -5   5  159.31   21.53   0
 -10  -5  -6   82.69   22.12   0
 -10  -4  -3   96.24   32.40   0
 -10  -4  -2   -3.34   25.56   0
 -10  -4   4    8.67   25.87   0
  -9  -6  -9  -11.26   24.21   0
  -9  -5  -8   23.60   26.63   0
  -9  -4  -5   73.50   19.93   0
  -9  -3  -2   35.58   26.81   0
  -9  -3  -1  107.47   20.77   0
  -9  -3   4  356.24   29.06   0
  -8  -5  -9  191.98   23.88   0
  -8  -4  -7    8.73   19.75   0
  -8  -3  -5  334.32   28.23   0
  -8  -3   7   31.46   25.12   0
  -8  -2   0  199.42   28.19   0
  -8  -2   1  433.75   24.74   0
  -8  -2   2  130.51   26.32   0
  -8  -2   3  145.00   27.14   0
  -7  -7 -12   29.51   24.59   0
  -7  -6 -11   64.33   23.61   0
  -7  -5 -10   12.30   26.77   0
  -7  -4  -8  108.14   21.79   0
  -7  -3  -6  172.66   21.38   0
  -7  -2  -3    5.53   18.75   0
  -7  -2   6  301.72   27.94   0
  -6  -4  -9  629.86   24.58   0
  -6  -3  -7  241.46   21.60   0
  -6  -2  -5  265.33   21.07   0
  -6  -2   8  129.58   34.95   0
  -6  -1  -1   92.04   19.90   0
  -6  -1   0  215.30   19.63   0
  -6  -1   4    1.87   22.27   0
  -5  -6 -12   -3.93   28.93   0
  -5  -4  12   21.78   35.14   0
  -5  -4  12   19.12   21.07   0
  -5  -3  -8 1067.72   26.98   0
  -5  -2  -6  392.17   23.18   0
  -5  -1  -3  444.59   22.79   0
  -4  -6 -12  117.72   30.98   0
  -4  -5 -11   48.01   22.04   0
  -4  -1  -4 2374.67   34.22   0
  -3  -6 -12  435.21   32.11   0
  -3  -5 -11  263.76   27.35   0
  -3  -4 -10   82.43   25.42   0
  -3  -2  -7  465.76   29.51   0
  -3  -2  10   43.73   29.40   0
  -2  -8 -13   41.46   33.15   0
  -2   0  -1  511.78   29.23   0
  -1  -5  13  122.27   28.05   0
  -1   0  -1 3119.32   64.82   0
  -1   0   5 2830.86   71.03   0
   0  -4  12   81.44   25.08   0
   0  -3  11   41.11   21.48   0
   0  -2  -6 1746.11   46.73   0
   0  -1   8   13.42   18.50   0
   1  -5  12   30.09   25.73   0
   1  -4  -8  207.78   55.41   0
   1  -4  11   20.76   25.94   0
   1  -3  10  132.39   31.73   0
   1  -2   9  191.05   21.29   0
   1  -1   7  619.12   27.13   0
   2  -6  11   25.53   29.15   0
   2  -5  11   13.62   24.21   0
   2  -4  10   69.66   21.56   0
   2  -3   9   21.13   19.22   0
   2  -1   5   48.22   20.47   0
   3  -6  -7   62.03   24.78   0
   3  -6  10   -5.51   24.83   0
   3  -5  -6  140.28   28.92   0
   3  -5   9   41.34   28.60   0
   3  -4  -5  190.25   32.93   0
   3  -3   7   20.34   28.41   0
   3  -2  -1 1657.50   40.00   0
   3  -2   5 1268.33   28.83   0
   4  -7   8   20.64   24.66   0
   4  -6   8   39.14   21.43   0
   4  -5  -4   77.56   23.38   0
   4  -5   7  251.32   23.56   0
   4  -4  -2  974.18   36.17   0
   4  -4   6  504.83   24.03   0
   4  -3   0    3.76   20.30   0
   4  -3   1  651.18   24.75   0
   4  -3   2  117.59   27.79   0
   4  -3   3  779.30   27.46   0
   4  -3   4    3.20   20.41   0
   5  -8  -2   79.61   26.33   0
   5  -8  -1  -46.33   35.09   0
   5  -8   3   -5.95   31.18   0
   5  -7  -1  288.70   27.70   0
   5  -7   0   40.06   28.85   0
   5  -7   3  101.08   34.71   0
   5  -7   4   -2.62   23.81   0
   5  -7   5   78.19   25.26   0
   5  -6  -1   14.13   24.30   0
   5  -6   0  114.85   24.11   0
   5  -6   1   13.63   22.46   0
   5  -6   2  148.85   23.51   0
   5  -6   3  -28.21   22.49   0
   5  -6   4   28.53   21.38   0
 -10  -5  -7   77.32   22.98   0
 -10  -4  -4    9.51   22.81   0
  -9  -4  -6  153.27   23.28   0
  -9  -3  -3   62.80   22.81   0
  -9  -3   5   30.93   25.57   0
  -8  -6 -11   17.70   24.74   0
  -8  -4  -8  148.94   20.23   0
  -8  -3  -6   39.34   25.79   0
  -8  -2  -2  371.35   22.62   0
  -8  -2  -1  149.80   20.10   0
  -8  -2   4   55.51   28.63   0
  -7  -4  -9   50.60   25.32   0
  -7  -3  -7  266.12   21.67   0
  -7  -3   9  152.40   42.66   0
  -7  -2  -4 1150.85   27.49   0
  -6  -6 -12   23.79   23.90   0
  -6  -5 -11   17.43   30.67   0
  -6  -3  -8  333.98   22.79   0
  -6  -2  -6  406.11   27.66   0
  -6  -1  -2   59.29   20.61   0
  -6  -1   5 1160.40   43.19   0
  -5  -7 -13    5.35   25.15   0
  -5  -5 -11   26.26   21.94   0
  -5  -4 -10    8.63   21.22   0
  -5  -1  -4 2328.42   38.32   0
  -4  -7 -13  107.55   25.88   0
  -4  -4 -10    4.55   20.14   0
  -4  -3  11    1.16   30.58   0
  -4  -2  -7  437.58   22.40   0
  -4   0   0  411.64   23.72   0
  -4   0   1 3458.43   46.16   0
  -4   0   2   46.28   20.91   0
  -4   0   3 1540.09   38.49   0
  -3  -7 -13  135.13   31.30   0
  -3  -3  -9  422.49   28.90   0
  -3  -1  -5  193.46   21.26   0
  -3  -1   8  742.44   50.97   0
  -3   0  -1 1115.48   30.22   0
  -2  -5 -11  695.81   34.95   0
  -2  -5  13   71.73   28.16   0
  -2  -4 -10  655.76   32.55   0
  -2  -2  -7  155.49   21.20   0
  -2  -2  10  106.11   23.65   0
  -2  -1  -5  858.11   27.89   0
  -1  -7 -12  201.26   34.85   0
  -1  -4  12   45.57   25.99   0
  -1  -3  11   53.06   21.85   0
  -1  -1   8  615.21   29.88   0
   0  -5  12  -12.86   33.18   0
   0  -1  -4   70.57   26.28   0
   1  -1   6    8.83   28.94   0
   2  -7  -9   22.67   36.60   0
   2  -5  10   89.72   27.84   0
   2  -2   7  919.40   27.59   0
   2  -1   0 4165.28   59.76   0
   2  -1   3  839.30   35.30   0
   2  -1   4 1359.91   31.49   0
   3  -7   9   -3.44   31.54   0
   3  -6   9   29.24   23.11   0
   3  -4   8  -25.21   20.01   0
   3  -3  -3  169.70   31.41   0
   3  -3   6 1032.66   34.52   0
   3  -2   0  116.00   22.65   0
   3  -2   3 2938.38   43.78   0
   3  -2   4  127.27   20.24   0
   4  -9  -5   41.67   40.02   0
   4  -8  -5   11.66   33.43   0
   4  -7  -5  196.57   26.47   0
   4  -7   7   28.84   23.34   0
   4  -6  -4  438.36   30.80   0
   4  -6   6  155.27   27.22   0
   4  -6   7   77.72   23.56   0
   4  -5  -3  578.05   32.88   0
   4  -5   6  144.44   22.79   0
   4  -4  -1 1184.92   35.14   0
   4  -4   4  317.64   22.03   0
   4  -4   5   39.75   20.11   0
   5  -8   0  104.92   27.44   0
   5  -8   1   -1.27   26.34   0
   5  -8   2  106.65   25.71   0
   5  -7   1  250.35   26.25   0
   5  -7   2    6.14   24.26   0
 -10  -4  -5  173.47   25.80   0
 -10  -3  -1   -2.68   31.49   0
 -10  -3   0  161.95   30.32   0
 -10  -3   1    5.76   29.85   0
 -10  -3   2  231.29   33.74   0
  -9  -5  -9  129.60   24.70   0
  -9  -4  -7   16.34   22.34   0
  -9  -3  -5    0.81   26.49   0
  -9  -3  -4   79.68   19.69   0
  -9  -3   6  217.49   39.49   0
  -8  -5 -10    1.73   23.17   0
  -8  -2  -3   59.21   19.99   0
  -8  -2   5  381.29   33.52   0
  -7  -6 -12   28.09   24.62   0
  -7  -5 -11   49.87   28.92   0
  -7  -2  -5   32.43   21.56   0
  -7  -2   7   36.78   31.19   0
  -7  -1  -1    5.64   26.61   0
  -7  -1   0  268.93   21.36   0
  -7  -1   1  324.96   23.23   0
  -7  -1   2  172.23   22.20   0
  -7  -1   3  217.75   28.45   0
  -6  -4 -10   -4.18   21.57   0
  -6  -1  -3  905.76   26.84   0
  -5  -3  -9   19.59   18.73   0
  -5  -2  -7   70.25   20.76   0
  -4  -4  12   22.74   32.70   0
  -4  -3  -9  222.48   20.33   0
  -4  -1  -5   -7.79   20.13   0
  -4   0  -1 1330.47   30.26   0
  -4   0   4  310.56   30.57   0
  -3  -4  12    1.12   32.17   0
  -3  -3  11   33.77   29.81   0
  -3   0  -2  569.29   25.11   0
  -2  -6 -12  390.57   27.62   0
  -2  -4  12   43.02   25.12   0
  -2  -3  -9  297.38   25.14   0
  -2  -3  11   47.41   21.85   0
  -2  -1   8 1334.55   43.38   0
  -2   0  -2 1188.76   36.84   0
  -1  -2  -7    3.19   20.97   0
  -1  -1  -5 3658.33   53.44   0
   0  -6  12   32.20   31.49   0
   0  -5 -10  538.36   41.90   0
   0  -4  -9  682.37   41.82   0
   0  -4  11   28.71   23.30   0
   0  -3  10   10.00   21.32   0
   0  -2   9   16.37   21.02   0
   0  -1   7  633.41   27.40   0
   1  -6  11    3.17   33.26   0
   1  -5  11   96.33   23.74   0
   1  -4  10   86.09   23.62   0
   1  -3   9  109.47   20.18   0
   1  -2   8  543.00   24.80   0
   2  -7  10  123.74   35.08   0
   2  -6  10   21.14   25.09   0
   2  -4   9  118.97   22.98   0
   2  -3   8  659.04   25.47   0
   2  -2   6  102.91   21.62   0
   2  -1   1  388.80   29.75   0
   2  -1   2 1601.38   36.56   0
   3  -7  -7   79.74   30.77   0
   3  -6   8   87.15   25.93   0
   3  -5   8   27.32   21.84   0
   3  -4   7  470.89   23.86   0
   3  -3   5  100.94   28.86   0
   3  -2   1 1441.65   32.10   0
   3  -2   2  400.67   24.45   0
   4  -9  -4  -25.91   33.15   0
   4  -8  -4  422.10   34.65   0
   4  -8   6   65.04   25.60   0
   4  -7  -4   -2.07   26.17   0
   4  -7   6    6.97   22.97   0
   4  -6  -3   30.61   28.61   0
   4  -6   5   40.65   21.79   0
   4  -5  -2  362.60   30.33   0
   4  -5   4  152.58   22.43   0
   4  -5   5  264.29   22.49   0
   4  -4   0  423.80   24.82   0
   4  -4   1  687.99   27.98   0
   4  -4   2  943.52   28.05   0
   4  -4   3  237.50   22.73   0
 -10  -4  -6   -3.35   23.44   0
 -10  -3  -3   10.52   24.99   0
 -10  -3  -2  129.51   26.84   0
 -10  -3   3   22.56   26.90   0
  -9  -4  -8   74.81   23.61   0
  -9  -3  -6    2.19   28.20   0
  -9  -2  -2  193.32   29.57   0
  -9  -2  -1  308.48   25.54   0
  -9  -2   0  127.11   25.43   0
  -9  -2   1  472.77   26.60   0
  -9  -2   2  132.07   29.82   0
  -8  -5 -11   89.73   30.29   0
  -8  -4  -9   -9.87   22.05   0
  -8  -3  -7  110.05   21.60   0
  -8  -3   8    7.86   35.78   0
  -8  -2  -5   10.45   26.22   0
  -8  -2  -4  170.97   21.68   0
  -7  -4 -10   96.46   23.29   0
  -7  -3  -8   82.60   21.19   0
  -7  -2  -6  445.88   23.71   0
  -7  -1  -3  289.19   27.27   0
  -7  -1  -2   77.37   20.98   0
  -7  -1   4   29.54   30.49   0
  -6  -6 -13   45.21   32.36   0
  -6  -5 -12   42.35   29.58   0
  -6  -3  -9  198.68   19.92   0
  -6  -2  -7  111.83   22.06   0
  -6  -1  -4  251.50   21.71   0
  -6  -1   6   -6.15   27.79   0
  -5  -6 -13   26.62   32.37   0
  -5  -5 -12   39.63   23.12   0
  -5  -4 -11  216.08   31.96   0
  -5  -1  -5  246.72   23.66   0
  -5  -1   7  477.90   46.62   0
  -5   0  -1 1008.45   34.10   0
  -5   0   0  723.04   27.42   0
  -5   0   1 1899.85   36.22   0
  -5   0   2 1391.85   33.35   0
  -5   0   3  173.05   26.96   0
  -4  -6 -13   31.06   35.67   0
  -4  -5 -12   51.30   25.29   0
  -4  -4 -11  330.53   32.74   0
  -4  -2  -8  104.94   22.57   0
  -4  -1  -6  702.94   30.84   0
  -4   0  -2  207.48   21.67   0
  -3  -2  -8 1556.67   31.11   0
  -3  -1  -6 1133.79   29.69   0
  -3   0  -3 1957.92   34.31   0
  -3   0   5 1728.88   70.64   0
  -2  -7 -13   29.50   32.28   0
  -2  -1  -6 2607.23   45.04   0
  -2   0  -3   24.07   30.67   0
  -1  -5 -11  374.59   35.12   0
  -1  -5  12   -0.78   24.56   0
  -1  -4 -10 1479.08   47.58   0
  -1  -4  11   19.58   27.62   0
  -1  -2   9  393.45   34.53   0
  -1   0  -2 3918.30   64.54   0
   0  -5  11   47.33   33.43   0
   0  -3  -8  221.56   35.12   0
   1  -5  10  -16.19   32.23   0
   1  -2   7  147.84   30.52   0
   1  -1   5 1562.78   35.12   0
   2  -6   9   51.41   30.01   0
   2  -5   9   20.19   20.86   0
   2  -4   8   59.19   19.49   0
   2  -3  -5  438.24   35.46   0
   2  -3   7  639.91   27.01   0
   2  -2  -3 5393.62   81.00   0
   2  -2   5 2422.89   40.99   0
   3  -9  -7  106.24   43.06   0
   3  -8  -7   15.29   31.33   0
   3  -7   8   48.49   22.77   0
   3  -6  -6  166.44   36.57   0
   3  -6   7  197.59   30.70   0
   3  -5   7   27.19   21.98   0
   3  -4  -4  872.19   38.28   0
   3  -4   6  -23.43   20.21   0
   3  -3  -2 2145.15   40.49   0
   3  -3   4  157.79   22.53   0
   4  -9  -3  150.56   39.62   0
   4  -9   3   43.79   33.43   0
   4  -8  -3   41.62   36.09   0
   4  -8   4   90.57   26.30   0
   4  -8   5   17.22   25.24   0
   4  -7  -3  537.58   30.72   0
   4  -7   4   23.22   19.86   0
   4  -7   5   47.66   23.02   0
   4  -6  -2  190.92   29.13   0
   4  -6   3   83.92   28.30   0
   4  -6   4   -1.90   21.06   0
   4  -5  -1   70.67   20.86   0
   4  -5   0  218.83   21.73   0
   4  -5   1  331.29   23.93   0
   4  -5   2  570.21   25.31   0
   4  -5   3  344.42   25.08   0
 -10  -4  -7   73.54   24.44   0
 -10  -3  -5  -12.85   35.30   0
 -10  -3  -4  138.03   24.81   0
 -10  -3   4  148.37   29.79   0
  -9  -4  -9   41.33   25.15   0
  -9  -3  -7  110.14   28.34   0
  -9  -3   7   47.12   36.04   0
  -9  -2  -3  137.93   23.59   0
  -9  -2   3  243.16   29.37   0
  -9  -2   4   23.34   31.74   0
  -8  -4 -10  175.74   25.27   0
  -8  -3  -8   -7.16   22.51   0
  -8  -2  -6   80.03   27.98   0
  -8  -2   6   66.60   29.66   0
  -8  -1  -1  281.04   29.07   0
  -8  -1   0  471.95   33.04   0
  -8  -1   1  129.63   34.09   0
  -7  -5 -12   34.81   26.51   0
  -7  -3  -9  219.56   22.68   0
  -7  -2  -7  180.76   22.00   0
  -7  -1  -4  237.49   27.99   0
  -6  -4 -11   26.39   25.18   0
  -6  -2  -8  486.93   31.86   0
  -6  -1  -5  486.73   24.25   0
  -5  -3 -10  484.95   25.50   0
  -5  -2  -8  297.95   22.96   0
  -5  -1  -6  153.39   22.08   0
  -5   0  -2  293.87   22.64   0
  -4  -3 -10  681.43   26.04   0
  -4   0  -3 2983.80   38.69   0
  -3  -6 -13   -2.33   30.67   0
  -3  -5 -12  104.30   24.42   0
  -3  -4 -11  451.09   25.92   0
  -3  -3 -10  681.16   32.23   0
  -2  -5  12   78.83   26.68   0
  -2  -2  -8 1550.67   34.29   0
  -1  -6  12  101.51   27.56   0
  -1  -3  -9  699.99   31.78   0
  -1  -3  10   82.94   22.79   0
   0  -6 -11  571.77   54.74   0
   0  -6  11   -7.56   29.72   0
   0  -4  10   95.44   23.61   0
   0  -3   9  657.65   32.51   0
   0  -2   8  841.63   27.56   0
   0  -1   6  166.33   31.67   0
   1  -6  10  117.36   24.67   0
   1  -4   9  204.07   24.52   0
   1  -3   8  285.16   23.81   0
   2  -9  -9  114.20   38.99   0
   2  -8  -9  126.05   38.41   0
   2  -7   9   -3.09   24.31   0
   2  -6  -8   -4.47   32.24   0
   2  -5   8   81.16   20.78   0
   2  -3   6  759.17   33.02   0
   2  -2   4   34.79   31.16   0
   3  -8   7    5.94   24.11   0
   3  -7   7   58.73   24.35   0
   3  -6   6   60.74   29.33   0
   3  -5  -5  413.50   30.87   0
   3  -5   6  507.34   26.11   0
   3  -4   5   94.66   21.86   0
   3  -3  -1  112.89   23.72   0
   3  -3   0   72.81   32.89   0
   3  -3   1   73.51   31.52   0
   3  -3   2 1486.64   31.94   0
   3  -3   3   22.04   21.33   0
   4  -9  -2   14.94   25.47   0
   4  -9  -1  103.92   27.74   0
   4  -9   0   16.11   26.15   0
   4  -9   1  158.07   26.99   0
   4  -9   2    8.80   27.35   0
   4  -8  -2  183.47   28.78   0
   4  -8  -1   -5.61   30.34   0
   4  -8   0  371.17   36.59   0
   4  -8   1  -49.94   29.01   0
   4  -8   2  246.40   27.81   0
   4  -8   3   -6.30   23.70   0
   4  -7  -2    9.65   24.73   0
   4  -7  -1  210.60   26.14   0
   4  -7   0   10.70   28.13   0
   4  -7   1  301.37   30.82   0
   4  -7   2   29.50   23.31   0
   4  -7   3   38.30   22.74   0
   4  -6  -1   35.66   22.96   0
   4  -6   0   23.64   21.47   0
   4  -6   1  128.68   22.85   0
   4  -6   2  153.28   21.93   0
 -10  -3  -6  152.08   26.73   0
 -10  -2   0   22.20   32.02   0
  -9  -3  -8   21.85   31.95   0
  -9  -2  -5   75.20   26.88   0
  -9  -2  -4   20.55   22.27   0
  -8  -3  -9  142.42   23.97   0
  -8  -2  -7   51.37   27.15   0
  -8  -1  -3  209.77   25.87   0
  -8  -1  -2  225.14   23.33   0
  -8  -1   2  293.15   24.88   0
  -8  -1   3  261.09   34.03   0
  -7  -4 -11   -0.27   27.43   0
  -7  -2  -8  323.05   32.06   0
  -7  -1  -5  408.61   24.45   0
  -7  -1   5  772.20   34.62   0
  -6  -4  11    0.68   38.57   0
  -6  -3 -10  213.20   23.15   0
  -6  -1  -6  109.55   21.15   0
  -6   0  -2  277.10   29.33   0
  -6   0  -1    4.67   22.32   0
  -6   0   0  636.48   25.52   0
  -6   0   1   24.27   19.71   0
  -6   0   2 1829.88   36.28   0
  -5  -5  12   11.83   34.62   0
  -5  -2  -9  262.22   28.68   0
  -5  -1  -7  306.91   29.75   0
  -5   0  -3 2239.52   34.89   0
  -5   0   4  564.78   30.63   0
  -4  -5  12   -0.53   36.44   0
  -4  -2  -9  457.20   23.03   0
  -4  -1  -7    2.00   22.16   0
  -4   0  -4   34.78   21.10   0
  -4   0   5  687.90   41.45   0
  -3  -5  12  126.47   28.50   0
  -3  -2  -9  364.56   30.56   0
  -3  -1  -7 1343.72   31.53   0
  -3   0  -4   31.26   21.65   0
  -2  -6  12   61.90   33.23   0
  -2  -5 -12   39.04   32.34   0
  -2  -4 -11   80.91   24.03   0
  -2  -4  11   24.64   24.87   0
  -2  -3 -10   41.94   31.33   0
  -2  -2   9  558.39   31.08   0
  -2   0  -4  599.86   26.41   0
  -1  -8 -13   27.86   43.92   0
  -1  -6 -12  102.29   36.99   0
  -1  -5  11   52.40   23.04   0
  -1  -1  -6 1321.93   39.33   0
  -1   0  -3 1163.64   38.86   0
  -1   0   4 2373.27   79.00   0
   0  -7  11   98.93   25.88   0
   0  -5  10   21.02   28.97   0
   1  -7  10   42.91   27.04   0
   1  -5   9   75.52   22.98   0
   1  -2   6 1151.67   31.16   0
   1  -1   4  315.51   23.28   0
   2  -8   8   57.25   26.04   0
   2  -7   8   68.75   23.28   0
   2  -6   8   23.64   21.13   0
   2  -4   7  151.89   22.48   0
   2  -2   3 1027.78   36.57   0
   3  -9  -6   41.89   34.53   0
   3  -9   5   71.01   30.42   0
   3  -8  -6   73.76   32.72   0
   3  -8   6   40.11   24.87   0
   3  -7  -6   38.11   26.44   0
   3  -7   6  236.91   23.76   0
   3  -6  -5   39.23   32.46   0
   3  -6   5  295.15   26.86   0
   3  -5   5   57.37   20.99   0
   3  -4  -3 2431.85   42.77   0
   3  -4   3  235.43   31.11   0
   3  -4   4   62.17   22.36   0
 -10  -2  -4  -11.22   29.65   0
 -10  -2  -3   31.71   25.92   0
 -10  -2  -2   26.80   25.71   0
 -10  -2  -1  142.40   26.52   0
 -10  -2   1   22.86   27.12   0
 -10  -2   2    9.96   27.65   0
  -9  -2  -6   37.74   23.48   0
  -9  -2   5  136.31   27.81   0
  -8  -4 -11  -18.60   25.92   0
  -8  -1  -4  297.40   23.04   0
  -8  -1   4  111.26   34.66   0
  -7  -4 -12   -2.15   30.62   0
  -7  -3 -10  -20.29   24.57   0
  -7  -1  -6   10.95   20.15   0
  -7   0  -1   10.03   25.10   0
  -7   0   0  427.55   30.05   0
  -6  -5 -13   41.22   26.04   0
  -6  -4 -12   12.40   23.03   0
  -6  -2  -9  195.62   20.84   0
  -6  -1  -7  374.81   22.81   0
  -6   0  -3   -1.70   21.92   0
  -6   0   3   -6.27   23.09   0
  -5  -5 -13   43.57   27.88   0
  -5  -4 -12   -3.98   25.41   0
  -5  -3 -11    7.31   23.39   0
  -5   0  -4  204.77   24.59   0
  -4  -6 -14   77.16   35.22   0
  -4  -5 -13  175.61   26.55   0
  -4  -4 -12   27.92   24.77   0
  -4  -3 -11   23.76   27.50   0
  -4   0  -5  947.09   27.34   0
  -3  -6  12    6.14   32.06   0
  -3  -4  11   25.96   25.45   0
  -3  -2   9  533.24   38.59   0
  -3   0  -5 1334.83   30.31   0
  -2  -6 -13    6.23   30.95   0
  -2  -1  -7 2113.66   37.30   0
  -1  -6  11  -25.20   26.85   0
  -1  -4  10   38.42   22.68   0
  -1  -2  -8  227.48   22.82   0
  -1  -2   8 1205.92   39.48   0
   0  -6  10   93.31   29.89   0
   0  -4   9   53.80   27.83   0
   0  -2  -7  124.61   30.31   0
   0  -2   7  483.67   30.98   0
   0  -1  -5 2527.55   62.21   0
   1  -8   9   21.42   29.78   0
   1  -7   9   -2.35   25.20   0
   1  -6   9   40.47   24.41   0
   1  -4   8   64.61   20.75   0
   1  -3   7  541.33   24.50   0
   1  -1   3 1858.45   43.24   0
   2  -9   7   20.40   24.78   0
   2  -8   7  -16.75   33.01   0
   2  -7   7  -17.96   29.47   0
   2  -6   7  230.47   23.90   0
   2  -5  -7   24.48   34.93   0
   2  -5   7   55.34   21.15   0
   2  -4  -6  927.07   48.44   0
   2  -4   6  826.82   26.42   0
   2  -3   5  100.63   23.21   0
   2  -2  -2 2676.45   53.29   0
   2  -2   2 2830.98   42.11   0
   3  -9  -5   55.22   36.54   0
   3  -9   4  -14.25   25.77   0
   3  -8   4   52.44   26.82   0
   3  -8   5  191.27   25.41   0
   3  -7  -5   24.12   33.31   0
   3  -7   4   -4.85   30.25   0
   3  -7   5   16.22   22.16   0
   3  -6   4   55.55   22.82   0
   3  -5  -4  986.81   35.11   0
   3  -5   3   28.63   27.50   0
   3  -5   4  277.45   22.91   0
   3  -4  -2  291.32   25.48   0
   3  -4  -1  611.25   35.86   0
   3  -4   0  217.20   33.59   0
   3  -4   1 1494.50   37.44   0
   3  -4   2  -21.34   21.21   0
 -10  -2  -5    9.65   26.96   0
 -10  -2   3  -34.07   28.97   0
  -9  -3  -9  -15.44   26.22   0
  -9  -2  -7    0.52   22.64   0
  -9  -1  -3   47.35   24.73   0
  -9  -1  -2   49.80   23.75   0
  -9  -1  -1  140.04   25.59   0
  -9  -1   0   22.21   26.32   0
  -9  -1   1    8.60   24.22   0
  -9  -1   2   -3.09   33.14   0
  -8  -3 -10   -0.92   24.70   0
  -8  -2  -8   26.18   24.34   0
  -8  -2   7   -8.95   32.43   0
  -8  -1  -6   16.34   28.97   0
  -8  -1  -5  216.35   23.74   0
  -7  -3 -11    2.82   25.04   0
  -7  -2  -9   32.68   20.31   0
  -7  -2   8   21.66   40.96   0
  -7  -1  -7  315.97   22.66   0
  -7  -1   6   49.02   38.49   0
  -7   0  -3  321.29   22.93   0
  -7   0  -2  198.51   20.80   0
  -7   0   1  325.92   23.83   0
  -7   0   2  816.41   28.72   0
  -6  -3 -11    8.28   23.15   0
  -6  -2 -10   98.99   27.76   0
  -6  -1  -8  332.59   27.10   0
  -6   0  -5  -29.59   28.02   0
  -6   0  -4  314.89   21.80   0
  -6   0   4  453.57   29.11   0
  -5  -4  11   16.90   33.31   0
  -5  -2 -10   21.03   23.25   0
  -5  -1  -8  571.50   24.55   0
  -5   0  -5  383.92   24.18   0
  -5   0   5    9.65   31.73   0
  -4  -6  12    1.74   32.25   0
  -4  -4  11   43.32   26.05   0
  -4  -2 -10   32.54   22.89   0
  -4  -2   9  160.39   36.72   0
  -4  -1  -8  701.82   27.10   0
  -4   0  -6    7.62   26.73   0
  -3  -5 -13  186.04   28.45   0
  -3  -4 -12   40.04   25.37   0
  -3  -3 -11   34.40   21.66   0
  -3  -3  10   38.30   24.44   0
  -3  -1  -8  364.07   22.58   0
  -2  -5  11   -2.19   25.93   0
  -2  -2  -9  -17.20   20.90   0
  -2  -1   7  211.22   31.81   0
  -2   0  -5 1498.68   33.31   0
  -1  -7  11   14.21   26.60   0
  -1  -3   9  731.85   28.46   0
  -1   0  -4 2473.01   50.66   0
   0  -8  10   18.03   25.42   0
   0  -7  10   10.62   23.76   0
   0  -5   9  259.93   29.80   0
   0  -3   8   -1.19   18.86   0
   0  -1   5 9999.99   82.75   0
   1  -9   8   57.86   32.30   0
   1  -7 -10  245.25   54.88   0
   1  -6   8   11.29   27.87   0
   1  -5   8  314.72   22.40   0
   1  -4   7   43.09   28.17   0
   1  -2   5  630.68   26.59   0
   1  -1   2 1754.69   50.46   0
   2  -9   6   34.48   28.83   0
   2  -7  -8  244.71   35.79   0
   2  -6   6   40.48   29.07   0
   2  -5   6  377.13   23.54   0
   2  -4   5  245.22   24.96   0
   2  -3   4 1275.31   30.81   0
   2  -2  -1 6245.59   69.64   0
   2  -2   0  167.75   21.27   0
   2  -2   1 3955.51   49.90   0
   3 -10  -4   25.15   29.18   0
   3 -10  -3   32.41   33.47   0
   3 -10  -2   25.72   33.20   0
   3 -10  -1   -2.04   32.04   0
   3 -10   0   44.42   36.60   0
   3 -10   1    3.72   25.53   0
   3 -10   2    6.25   26.73   0
   3  -9  -4    7.36   32.15   0
   3  -9   2  -14.88   24.75   0
   3  -9   3   39.64   24.95   0
   3  -8  -5   -1.44   26.75   0
   3  -8   3  -10.86   20.27   0
   3  -7  -4   14.78   28.60   0
   3  -7   3   53.50   21.48   0
   3  -6  -4  440.68   28.22   0
   3  -6   2  193.99   27.92   0
   3  -6   3  290.24   23.89   0
   3  -5  -3  478.79   28.97   0
   3  -5  -2  793.94   34.97   0
   3  -5   1  252.64   31.95   0
   3  -5   2 1472.03   31.16   0
  -9  -2  -8   35.44   22.99   0
  -9  -2   6  -13.61   29.70   0
  -9  -1  -5   56.89   24.03   0
  -9  -1  -4   40.61   25.23   0
  -9  -1   3    8.58   26.33   0
  -8  -3 -11   53.78   26.87   0
  -8  -2  -9   12.77   21.47   0
  -8  -1  -7   46.18   28.04   0
  -8  -1   5    8.97   23.00   0
  -8   0  -2  208.27   30.77   0
  -8   0  -1  183.02   23.86   0
  -8   0   0  150.23   30.81   0
  -7  -2 -10   49.72   24.79   0
  -7  -1  -8   24.85   26.33   0
  -7   0  -5   23.42   25.70   0
  -7   0  -4  226.39   22.77   0
  -7   0   3   11.87   21.82   0
  -6  -4 -13   32.98   26.88   0
  -6  -3 -12   40.80   31.47   0
  -6  -1   7  635.71   47.96   0
  -6   0  -6   52.79   28.92   0
  -5  -4 -13  190.37   28.12   0
  -5  -3 -12  231.48   31.00   0
  -5  -3  10  117.29   35.10   0
  -5  -1  -9  199.03   26.66   0
  -5   0  -6   51.21   21.37   0
  -5   1  -1  302.83   31.30   0
  -5   1   0   -2.66   29.88   0
  -4  -4 -13   76.36   30.53   0
  -4  -3  10  118.70   26.88   0
  -4   1  -2 2334.51   36.83   0
  -4   1  -1  702.55   27.02   0
  -4   1   0  763.70   28.06   0
  -4   1   1  583.69   27.66   0
  -3  -6 -14  130.68   31.61   0
  -3  -5  11   38.13   31.37   0
  -3  -2 -10   54.40   21.57   0
  -3   0  -6   34.73   21.77   0
  -3   1  -2 4780.43   53.70   0
  -3   1  -1  718.43   28.32   0
  -3   1   0 3210.92   46.53   0
  -3   1   1  350.13   26.10   0
  -2  -6  11   15.63   25.59   0
  -2  -4  10   81.71   21.92   0
  -2  -1  -8  220.73   30.75   0
  -1  -7 -13   11.64   39.59   0
  -1  -6  10   30.74   30.17   0
  -1  -5  10   23.11   24.16   0
  -1  -4 -11  228.43   36.19   0
  -1  -3 -10  183.21   35.55   0
  -1  -1  -7 1020.71   39.68   0
   0  -9   9   11.91   34.60   0
   0  -6   9  118.16   22.49   0
   0  -4   8  670.22   29.52   0
   1  -8   8   -5.84   24.72   0
   1  -7   8   54.95   24.58   0
   1  -5   7  396.19   29.14   0
   1  -3   6   24.99   21.71   0
   1  -1  -2  368.04   47.73   0
   2  -9  -8   27.57   31.20   0
   2  -9   5    3.84   23.05   0
   2  -8  -8   22.65   30.39   0
   2  -8   6   -0.69   23.59   0
   2  -7   6  376.08   25.27   0
   2  -5   5   57.81   21.91   0
   2  -4   4   29.36   28.44   0
   2  -3  -4 2042.01   48.43   0
   2  -3   3 1259.84   31.34   0
   3  -9  -3  205.67   29.10   0
   3  -9  -2   17.14   24.88   0
   3  -9  -1  182.03   25.50   0
   3  -9   0  -19.52   23.73   0
   3  -9   1  292.08   26.41   0
   3  -8  -4  247.60   28.10   0
   3  -8  -3    5.28   24.63   0
   3  -8  -2  119.03   34.28   0
   3  -8  -1   14.04   29.74   0
   3  -8   0  225.95   29.39   0
   3  -8   1   54.56   24.28   0
   3  -8   2  111.47   24.31   0
   3  -7  -3  251.96   25.50   0
   3  -7  -2   64.12   28.64   0
   3  -7   0  227.67   31.94   0
   3  -7   1  270.52   23.20   0
   3  -7   2  230.30   22.36   0
   3  -6  -3  457.33   26.92   0
   3  -6  -2  407.35   25.61   0
   3  -6  -1  109.53   28.60   0
   3  -6   0  342.45   22.86   0
   3  -6   1  868.20   27.78   0
   3  -5  -1  502.35   26.01   0
   3  -5   0  650.20   27.02   0
 -10  -1  -4   37.56   31.84   0
 -10  -1  -3   43.80   25.28   0
 -10  -1  -2   42.50   26.84   0
 -10  -1  -1   34.58   26.50   0
 -10  -1   0   47.03   26.05   0
 -10  -1   1    5.95   26.29   0
  -9  -1  -6   28.66   23.54   0
  -9  -1   4   36.98   33.43   0
  -8  -3   9    7.83   58.87   0
  -8  -2 -10   57.75   26.81   0
  -8  -1  -8   42.34   28.70   0
  -8   0  -4  205.14   22.87   0
  -8   0  -3  299.54   25.38   0
  -8   0   1  162.71   27.27   0
  -8   0   2   68.97   23.96   0
  -7  -3 -12   17.85   24.54   0
  -7  -1  -9  216.33   28.05   0
  -7   0  -6  258.40   22.32   0
  -7   0   4  730.25   37.62   0
  -6  -2 -11   57.65   23.05   0
  -6  -1  -9  471.43   23.72   0
  -6   0  -7   27.98   29.35   0
  -6   0   5   40.93   34.81   0
  -6   1  -2   58.23   31.17   0
  -6   1  -1  559.93   31.45   0
  -6   1   0  103.10   28.73   0
  -5  -2 -11   77.92   23.38   0
  -5   0  -7  699.99   25.59   0
  -5   1  -3  628.37   27.56   0
  -5   1  -2  751.85   27.05   0
  -5   1   1 1285.75   32.29   0
  -5   1   2   -4.95   29.03   0
  -4  -5 -14    7.92   26.28   0
  -4  -3 -12  397.38   27.60   0
  -4  -2 -11  208.12   30.60   0
  -4  -1  -9    7.58   19.95   0
  -4   0  -7 1256.16   30.20   0
  -4   1  -4 2195.19   39.97   0
  -4   1  -3  266.74   23.38   0
  -4   1   2 1636.67   38.09   0
  -3  -1  -9  297.37   22.19   0
  -3   0  -7  645.12   32.27   0
  -3   1  -3   56.66   22.23   0
  -3   1   2 3241.61   52.27   0
  -2  -7  11   14.37   26.71   0
  -2  -5 -13  121.16   31.49   0
  -2  -4 -12  233.96   27.03   0
  -2  -3 -11  424.12   28.11   0
  -2  -3   9  218.73   25.39   0
  -2  -2 -10  770.57   35.57   0
  -2  -2   8  233.45   25.99   0
  -2   0  -6  499.91   26.14   0
  -2   1  -1  344.04   30.69   0
  -2   1   0 4507.45   64.19   0
  -1  -8  10   44.42   25.32   0
  -1  -7  10    9.26   22.56   0
  -1  -5 -12   35.22   34.10   0
  -1  -4   9   35.19   21.46   0
  -1  -3   8  164.86   28.58   0
  -1  -2  -9  207.48   33.32   0
   0  -8   9    9.41   26.15   0
   0  -7   9  153.57   23.68   0
   0  -5   8  535.17   30.22   0
   0  -3   7  309.31   23.25   0
   0  -2   6  883.66   29.65   0
   0   0  -1   50.67   27.20   0
   1 -10   6   -3.62   28.76   0
   1  -9   7   16.89   23.38   0
   1  -8   7  181.76   22.10   0
   1  -7   7   -7.80   21.64   0
   1  -6   7  476.16   24.47   0
   1  -4   6  706.29   25.67   0
   1  -3   5 1086.62   36.24   0
   1  -2   4  844.04   28.69   0
   1  -1   0 3097.26   67.90   0
   1  -1   1 3853.79   63.13   0
   2 -10  -7   18.85   27.90   0
   2 -10   3    9.70   35.57   0
   2 -10   4   64.77   25.94   0
   2  -9   4   95.32   24.28   0
   2  -8   5  460.21   25.92   0
   2  -7   5   54.42   20.43   0
   2  -6  -7  566.03   38.40   0
   2  -6   5  554.31   26.37   0
   2  -5   4  388.55   24.53   0
   2  -4   3  937.62   35.47   0
   2  -3  -3 1231.53   41.27   0
   2  -3   2  805.08   27.82   0
   3  -7  -1  211.93   24.62   0
 -10  -1   2   68.23   28.24   0
  -9  -1  -8   64.11   28.81   0
  -9  -1  -7   31.46   22.77   0
  -9   0  -3  103.76   26.69   0
  -9   0  -2   80.46   24.78   0
  -9   0  -1  126.98   25.20   0
  -9   0   0  -22.48   25.38   0
  -8  -1  -9  -25.46   31.27   0
  -8  -1   6  137.00   36.04   0
  -8   0  -6  335.88   30.21   0
  -8   0  -5  191.57   21.75   0
  -8   0   3    6.33   24.76   0
  -7  -2 -11   46.81   24.12   0
  -7   0  -7   36.01   22.10   0
  -7   1  -1  637.52   33.62   0
  -6  -3 -13  -22.85   31.72   0
  -6  -1 -10  130.93   30.08   0
  -6   1  -4  -37.96   27.80   0
  -6   1  -3  776.47   27.09   0
  -6   1   1 1497.93   32.10   0
  -6   1   2    9.05   29.27   0
  -5  -5  11   41.45   31.58   0
  -5  -4 -14    8.30   36.56   0
  -5  -3 -13    8.51   34.18   0
  -5  -1 -10   73.67   22.68   0
  -5   0  -8  348.49   23.97   0
  -5   1  -5   27.08   28.10   0
  -5   1  -4  538.50   25.56   0
  -4  -1 -10  101.57   30.93   0
  -4   0  -8   97.53   28.03   0
  -4   1  -5  154.40   31.82   0
  -4   1   3  176.65   33.00   0
  -3  -7  11    1.10   32.12   0
  -3  -6  11   77.74   25.17   0
  -3  -5 -14   18.56   32.80   0
  -3  -4 -13   18.03   24.80   0
  -3  -3 -12  204.24   25.37   0
  -3  -2 -11  379.52   30.69   0
  -3   1  -4 2516.00   37.74   0
  -2  -6  10   11.72   27.22   0
  -2  -5  10   -8.70   21.48   0
  -2   1  -3  898.36   37.62   0
  -2   1  -2 1699.32   38.13   0
  -2   1   1  165.43   27.13   0
  -1  -5   9  317.61   25.06   0
  -1  -2   7  163.85   22.00   0
  -1   0  -5 1457.25   36.52   0
   0  -9   8   97.05   24.50   0
   0  -8   8   17.02   23.70   0
   0  -7   8  117.16   27.35   0
   0  -6   8  286.41   23.04   0
   0  -4 -10  453.29   40.31   0
   0  -3  -9  882.06   44.89   0
   0  -1   4   12.38   21.68   0
   1  -9 -10   28.48   35.43   0
   1  -9   6  173.99   25.19   0
   1  -8 -10   22.32   34.45   0
   1  -8   6    1.30   29.64   0
   1  -6   6  405.42   29.97   0
   1  -5   6  162.48   23.48   0
   1  -2   3  209.09   31.73   0
   1  -1  -1  492.08   37.25   0
   2 -11  -1   67.42   33.10   0
   2 -11   0   59.94   26.28   0
   2 -10  -6  187.33   34.28   0
   2 -10   2   32.38   24.37   0
   2  -9  -7  145.83   29.65   0
   2  -9   3   23.22   19.62   0
   2  -8  -7   28.14   24.39   0
   2  -8   3  164.88   30.04   0
   2  -8   4   14.29   22.54   0
   2  -7  -7   59.24   26.26   0
   2  -7   4  303.92   23.41   0
   2  -6   4  150.72   21.13   0
   2  -5  -6  290.58   30.07   0
   2  -5   3   -4.86   22.86   0
   2  -4  -5  417.38   30.18   0
   2  -4   2  853.32   34.56   0
   2  -3  -2 2686.48   50.29   0
   2  -3  -1   17.57   30.98   0
   2  -3   0 2546.11   40.89   0
   2  -3   1 1375.09   32.29   0
  -9  -2   7   60.92   37.13   0
  -9  -1   5   -1.07   26.05   0
  -9   0  -5   51.71   25.19   0
  -9   0  -4   34.16   25.34   0
  -9   0   1   52.22   26.26   0
  -9   0   2   -1.83   32.16   0
  -8  -1 -10   23.55   30.79   0
  -8   0  -7   73.13   23.96   0
  -8   0   4  196.04   34.67   0
  -7  -2 -12   12.81   25.57   0
  -7  -1 -10    7.15   24.54   0
  -7  -1   7  343.07   42.50   0
  -7   0  -8  267.35   23.58   0
  -7   0   5   56.43   33.49   0
  -7   1  -4   39.74   21.49   0
  -7   1  -3  378.19   24.45   0
  -7   1  -2   47.27   21.80   0
  -7   1   0   -0.11   22.84   0
  -7   1   1  749.61   29.17   0
  -6  -5  11   47.27   33.74   0
  -6  -2 -12   26.87   23.72   0
  -6   0  -8  718.69   27.21   0
  -6   1  -5   20.50   21.75   0
  -5  -2 -12  -34.72   24.27   0
  -5   1  -6  317.70   28.45   0
  -5   1   3  726.73   30.84   0
  -4  -6  11   67.89   27.13   0
  -4  -4 -14  174.93   34.39   0
  -4  -3 -13  131.99   27.54   0
  -4  -2 -12   38.46   30.60   0
  -4   1  -6 1117.07   36.00   0
  -3  -3   9    0.31   30.90   0
  -3  -1 -10  200.16   28.14   0
  -3  -1   7   67.79   32.09   0
  -3   0  -8  903.02   28.97   0
  -3   1  -5  842.07   27.56   0
  -3   1   3  285.57   34.32   0
  -2  -8  10  -12.96   25.86   0
  -2  -7  10    9.58   26.32   0
  -2  -6 -14   34.61   35.13   0
  -2  -4   9  160.01   29.22   0
  -2  -1  -9 1143.63   31.87   0
  -2   0  -7  203.45   24.37   0
  -2   1  -4 1453.70   33.10   0
  -1  -9   9   42.79   25.48   0
  -1  -8   9   31.15   24.20   0
  -1  -7   9  119.08   24.92   0
  -1  -6   9   52.81   24.25   0
  -1  -4   8  754.05   33.47   0
  -1  -1  -8    2.02   27.42   0
   0 -10   7   40.78   25.53   0
   0  -9   7    1.54   28.47   0
   0  -5   7  661.67   31.76   0
   0  -4   7   53.84   21.25   0
   0  -3   6  222.79   33.49   0
   0  -2  -8  171.59   35.17   0
   0  -2   5   90.73   30.70   0
   0  -1  -6   91.48   23.57   0
   0   0  -2 9174.31  139.96   0
   1 -10   5   73.38   24.30   0
   1  -9   5   92.32   22.85   0
   1  -7   6  313.99   23.31   0
   1  -4  -8  216.39   58.73   0
   1  -4   5  747.50   27.30   0
   1  -3   4 2880.79   40.15   0
   2 -11  -3   50.62   27.02   0
   2 -11  -2   27.70   27.51   0
   2 -10  -5  120.91   29.20   0
   2 -10  -4  213.18   39.20   0
   2 -10  -1  141.22   33.23   0
   2 -10   0  101.91   26.58   0
   2 -10   1   35.84   25.66   0
   2  -9  -6   67.94   26.46   0
   2  -9   1    5.52   29.15   0
   2  -9   2   28.16   22.77   0
   2  -8  -6   86.21   31.62   0
   2  -8   2   48.05   21.51   0
   2  -7   2  767.13   32.00   0
   2  -7   3  352.53   24.93   0
   2  -6  -6   87.64   35.68   0
   2  -6   3  524.81   24.95   0
   2  -5   2 1160.94   29.51   0
   2  -4  -4  102.79   30.91   0
   2  -4   1 1574.31   32.03   0
  -9   0  -7    7.18   26.43   0
  -9   0  -6   52.84   26.75   0
  -9   0   3   60.69   33.34   0
  -8  -2   8   21.83   45.44   0
  -8   0  -8   57.27   24.38   0
  -8   1  -4  221.12   26.89   0
  -8   1  -3    9.17   23.36   0
  -8   1  -2   55.13   24.26   0
  -8   1  -1  138.82   24.48   0
  -8   1   0  117.08   25.36   0
  -8   1   1   31.23   28.96   0
  -7  -1 -11   18.31   25.31   0
  -7   0  -9    0.19   22.91   0
  -7   1  -6    2.45   27.61   0
  -7   1  -5  247.78   23.06   0
  -7   1   2   88.40   23.76   0
  -6  -1 -11   68.55   24.06   0
  -6   0  -9    2.79   21.51   0
  -6   1  -7  134.76   27.45   0
  -6   1  -6   -6.75   21.03   0
  -6   1   3 1044.45   33.26   0
  -5  -1 -11   72.42   23.41   0
  -5   0  -9  378.74   23.34   0
  -5   0   6  558.69   43.22   0
  -5   1  -7  183.73   21.48   0
  -4  -7  11   17.16   25.93   0
  -4  -4  10    2.66   22.72   0
  -4  -1 -11   28.91   24.79   0
  -4   0  -9  454.95   23.66   0
  -4   1  -7   20.97   30.32   0
  -3  -6  10   -0.15   31.16   0
  -3  -5  10   10.28   23.51   0
  -3  -3 -13  244.32   32.45   0
  -3  -2   8    6.05   30.43   0
  -3   1  -6 1186.01   30.24   0
  -2  -5   9  163.03   29.80   0
  -2  -4 -13   49.44   29.13   0
  -2  -3 -12    5.84   22.61   0
  -2  -2 -11   26.82   28.93   0
  -2   1  -5   93.60   31.62   0
  -2   1   2 2256.44   56.87   0
  -1 -10   8   32.86   26.04   0
  -1  -9   8   31.15   33.09   0
  -1  -6 -13    7.21   41.26   0
  -1  -5   8  -16.03   27.66   0
  -1  -3 -11  808.63   43.36   0
  -1  -3   7  506.16   32.66   0
  -1   0  -6 1345.66   35.67   0
   0 -10   6   -2.18   22.21   0
   0  -8   7  133.97   22.26   0
   0  -7   7  122.12   20.74   0
   0  -6   7  280.47   22.20   0
   0  -5 -11   17.25   43.17   0
   0   0  -3  194.19   40.50   0
   1 -11   2   58.18   31.29   0
   1 -11   3   23.17   25.38   0
   1 -10  -9   37.49   31.71   0
   1 -10   4  -10.61   22.23   0
   1  -9   4  102.30   27.39   0
   1  -8   5  255.86   22.35   0
   1  -7   5    3.79   21.25   0
   1  -6   5  457.55   23.97   0
   1  -5   5  401.62   25.48   0
   1  -4   4  421.54   32.63   0
   1  -2   2 1527.18   37.92   0
   2 -10  -3   69.61   26.92   0
   2 -10  -2   61.07   24.01   0
   2  -9  -5  164.38   28.83   0
   2  -9  -4  233.57   32.23   0
   2  -9  -3  110.68   31.91   0
   2  -9  -2    3.46   33.02   0
   2  -9  -1   36.24   22.19   0
   2  -9   0   40.06   22.17   0
   2  -8  -5   81.44   34.54   0
   2  -8   0   16.47   28.93   0
   2  -8   1  453.84   23.86   0
   2  -7  -6  130.92   26.21   0
   2  -7   1   57.25   22.07   0
   2  -6   1 1085.25   34.46   0
   2  -6   2   93.62   22.46   0
   2  -5  -5  294.64   27.86   0
   2  -5   1  -26.34   21.49   0
   2  -4  -3  904.52   36.84   0
   2  -4  -2   48.33   29.53   0
   2  -4  -1  869.29   36.18   0
   2  -4   0   17.52   22.67   0
  -9  -1   6   -8.88   41.25   0
  -9   1  -4  104.91   31.54   0
  -9   1  -3  -14.10   32.14   0
  -9   1  -2  157.09   30.90   0
  -9   1  -1   34.77   33.42   0
  -8   0  -9   18.90   23.85   0
  -8   0   5   65.14   32.74   0
  -8   1  -6   27.91   23.86   0
  -8   1  -5  181.95   23.51   0
  -8   1   2   34.74   34.91   0
  -7   0 -10   68.45   30.91   0
  -7   1  -7  239.94   23.13   0
  -7   1   3  472.70   27.14   0
  -6  -2 -13   36.25   26.66   0
  -6  -1 -12  121.50   31.17   0
  -6   0 -10  116.50   25.39   0
  -6   0   6  807.70   44.13   0
  -6   1  -8  -19.33   26.94   0
  -6   1   4   15.95   29.31   0
  -6   2  -3   24.18   26.54   0
  -6   2  -2 1347.35   34.18   0
  -6   2  -1   43.94   29.45   0
  -5  -7  11    8.94   32.88   0
  -5  -4  10   60.59   29.59   0
  -5  -3 -14  104.16   28.92   0
  -5  -2 -13  247.17   27.68   0
  -5  -1 -12  146.92   30.48   0
  -5   0 -10   77.86   22.64   0
  -5   1  -8  249.08   27.17   0
  -5   1   4  221.24   27.34   0
  -5   2  -4  353.72   30.53   0
  -5   2  -3  102.28   22.03   0
  -5   2  -2 1230.07   31.27   0
  -5   2  -1   15.22   21.11   0
  -5   2   0  299.08   28.80   0
  -4  -5  10   67.85   27.97   0
  -4  -3 -14  117.22   33.98   0
  -4   0 -10   47.27   30.76   0
  -4   0   6    3.09   37.91   0
  -4   1   4    5.03   31.25   0
  -4   2  -3 1245.02   30.12   0
  -4   2  -2  663.70   26.81   0
  -4   2  -1    2.55   22.91   0
  -4   2   0  543.37   36.24   0
  -3  -8  10   36.83   24.07   0
  -3  -7  10   23.76   25.24   0
  -3  -4 -14  144.74   29.45   0
  -3  -2 -12  221.46   25.36   0
  -3  -1 -11   84.23   32.33   0
  -3   0  -9  212.86   21.82   0
  -3   1  -7   69.93   22.43   0
  -2  -9   9   47.50   25.58   0
  -2  -8   9   21.47   22.81   0
  -2  -7   9   56.10   29.62   0
  -2  -6   9   18.66   24.88   0
  -2  -3   8  452.24   27.32   0
  -2  -1 -10  559.56   28.21   0
  -2  -1   6  190.73   29.01   0
  -2   0  -8  881.44   28.06   0
  -1 -10   7   76.52   33.60   0
  -1  -8   8  164.70   23.32   0
  -1  -7   8   56.96   21.65   0
  -1  -6   8  546.90   26.76   0
  -1  -4 -12  174.88   35.88   0
  -1  -2 -10  989.33   36.55   0
  -1  -2   6  991.32   32.72   0
  -1   1  -2 1967.40   46.60   0
  -1   1  -1 3969.59   63.94   0
   0 -11   5    5.97   23.72   0
   0 -10   5   33.85   28.51   0
   0  -9   6   85.56   20.61   0
   0  -8   6   14.83   29.92   0
   0  -5   6  170.76   29.57   0
   0  -4   6  478.42   24.48   0
   0  -1   3 8813.89   91.17   0
   1 -11   1   70.26   24.37   0
   1 -10   2   42.65   29.70   0
   1 -10   3   11.26   23.22   0
   1  -9  -9   17.95   33.30   0
   1  -9   3   -9.77   26.16   0
   1  -8   4    0.65   20.62   0
   1  -7   4  604.76   25.53   0
   1  -6  -9  613.14   46.75   0
   1  -6   4   15.96   26.64   0
   1  -5   4 1002.35   30.02   0
   1  -3   3 1620.31   33.84   0
   2  -8  -4    1.72   23.06   0
   2  -8  -3  157.44   24.82   0
   2  -8  -2    6.87   21.86   0
   2  -8  -1   71.62   22.43   0
   2  -7  -5   13.98   23.36   0
   2  -7  -4  678.62   36.42   0
   2  -7  -2  431.86   29.11   0
   2  -7  -1   80.59   25.67   0
   2  -7   0  733.02   26.85   0
   2  -6  -5  635.26   31.70   0
   2  -6  -4   36.25   31.71   0
   2  -6  -1  621.15   33.93   0
   2  -6   0  403.39   25.82   0
   2  -5  -4  686.99   28.80   0
   2  -5  -3   96.07   30.83   0
   2  -5  -2  726.08   35.60   0
   2  -5  -1 1045.26   30.30   0
   2  -5   0 1195.65   30.57   0
  -9   0   4    2.20   27.02   0
  -9   1  -5   -7.19   26.94   0
  -9   1   0  239.27   27.18   0
  -9   1   1   66.26   34.84   0
  -8  -1   7   55.41   35.85   0
  -8   1  -7  107.70   23.46   0
  -8   1   3   66.82   30.89   0
  -7  -4  10   15.56   39.76   0
  -7   0   6  473.22   36.90   0
  -7   1  -8   47.19   23.41   0
  -7   2  -4  244.34   30.96   0
  -7   2  -3   44.07   21.36   0
  -7   2  -2  213.43   23.93   0
  -7   2  -1   11.60   23.91   0
  -6  -4  10   34.82   34.29   0
  -6   0 -11   47.44   29.98   0
  -6   1  -9   51.60   24.92   0
  -6   2  -5   28.83   21.96   0
  -6   2  -4  612.75   26.20   0
  -6   2   0  858.07   27.45   0
  -6   2   1  -11.45   28.97   0
  -5   0 -11   57.88   32.36   0
  -5   1  -9   31.39   25.89   0
  -5   2  -5  203.70   21.87   0
  -5   2   1  112.24   21.20   0
  -4  -6  10    9.04   27.83   0
  -4  -3   9  154.17   25.23   0
  -4  -2 -13  285.66   28.97   0
  -4  -1 -12  266.72   24.41   0
  -4   1  -8 1092.91   28.83   0
  -4   2  -5  389.87   24.80   0
  -4   2  -4  362.47   25.76   0
  -4   2   1    7.96   23.42   0
  -3  -4   9  153.06   24.39   0
  -3   0 -10   77.77   30.09   0
  -3   1  -8  907.62   34.02   0
  -3   2  -4  139.75   31.27   0
  -3   2  -3 3345.95   41.94   0
  -3   2  -2  387.98   25.66   0
  -3   2  -1 1445.99   33.53   0
  -3   2   0   87.80   32.07   0
  -2 -10   8   38.78   26.32   0
  -2  -5 -14  -16.06   33.62   0
  -2  -4   8  363.24   29.73   0
  -2   0  -9  483.24   34.61   0
  -2   1  -6  880.13   29.89   0
  -1 -11   6   28.02   25.51   0
  -1  -9   7  107.28   23.38   0
  -1  -4   7   33.98   20.48   0
  -1  -1  -9 1821.06   40.48   0
  -1   0  -7   48.55   23.42   0
  -1   1  -4  311.05   35.03   0
  -1   1  -3 1836.89   44.06   0
  -1   1   0 2527.28   62.02   0
   0 -11   4   83.49   24.88   0
   0  -9   5   93.71   21.93   0
   0  -7   6   30.68   20.94   0
   0  -6   6  640.75   25.72   0
   0  -3   5 1404.62   31.78   0
   0  -2   4 4957.67   56.29   0
   0  -1  -7   11.27   29.27   0
   0   0  -4 6364.77   86.26   0
   1 -11  -6   23.79   33.53   0
   1 -11  -1   13.56   25.85   0
   1 -11   0  213.15   28.15   0
   1 -10  -8   66.16   28.65   0
   1 -10   1  109.44   23.87   0
   1  -9   2   74.38   28.21   0
   1  -8  -9  158.04   30.95   0
   1  -8   3  270.06   23.82   0
   1  -7  -9    3.24   35.22   0
   1  -7   3  149.92   30.04   0
   1  -4   3 2883.59   38.63   0
   1  -3   2 1044.64   35.26   0
   1  -2   1 1499.75   41.13   0
   2  -7  -3   -8.39   21.20   0
   2  -6  -3 1044.14   30.99   0
   2  -6  -2  505.88   25.04   0
  -9   1   2  110.21   29.68   0
  -8   1  -8   24.83   23.25   0
  -8   2  -4   11.84   29.61   0
  -8   2  -3  100.38   24.41   0
  -8   2  -2    1.25   24.85   0
  -8   2  -1   17.04   29.72   0
  -7   0 -11   21.03   25.97   0
  -7   1  -9  219.39   23.39   0
  -7   1   4    4.90   23.28   0
  -7   2  -6  188.76   23.06   0
  -7   2  -5    5.18   21.57   0
  -7   2   0  440.61   28.96   0
  -7   2   1   43.47   24.63   0
  -6   2  -7    0.97   27.85   0
  -6   2  -6  196.01   22.84   0
  -6   2   2 1173.35   38.33   0
  -5  -5  10  128.59   32.23   0
  -5  -1 -13   -5.58   25.80   0
  -5   2  -7  154.22   31.09   0
  -5   2  -6  100.45   22.07   0
  -5   2   2 1197.14   32.74   0
  -4  -8  10   30.44   25.76   0
  -4  -7  10   65.90   25.86   0
  -4   0 -11  122.35   25.36   0
  -4   1  -9   17.48   20.87   0
  -4   2  -6   33.25   21.83   0
  -4   2   2  692.40   35.93   0
  -3  -9   9   33.01   24.80   0
  -3  -8   9  -11.74   31.82   0
  -3  -6   9  171.87   28.44   0
  -3  -5   9   25.90   20.74   0
  -3  -3 -14   63.35   37.24   0
  -3  -2 -13   50.77   27.86   0
  -3  -1 -12   29.52   33.24   0
  -3   2  -5 1171.81   29.96   0
  -3   2   1 1660.26   43.33   0
  -2  -9   8    4.12   25.01   0
  -2  -8   8  216.50   29.43   0
  -2  -5   8  264.32   27.05   0
  -2  -3 -13   78.58   32.61   0
  -2  -2 -12  166.68   26.39   0
  -2  -1 -11  314.79   33.92   0
  -2   1  -7  577.16   27.12   0
  -1 -11   5   69.50   28.13   0
  -1 -10   6   61.98   24.03   0
  -1  -8   7   17.50   21.41   0
  -1  -7   7  298.34   23.35   0
  -1  -6   7   50.37   19.42   0
  -1  -5 -13   14.30   37.45   0
  -1  -5   7  605.78   25.54   0
  -1   0   3   22.24   45.11   0
  -1   1  -5 1583.02   42.21   0
   0 -12   1   88.57   32.65   0
   0 -11   3  -19.67   21.88   0
   0 -10   4  124.01   23.82   0
   0  -8   5   20.68   20.60   0
   0  -7   5  450.89   28.29   0
   0  -5   5  378.50   30.11   0
   0  -4   5  678.30   27.50   0
   1 -11  -5   71.49   28.26   0
   1 -11  -4  103.40   26.26   0
   1 -11  -3   52.41   26.67   0
   1 -11  -2   90.12   24.58   0
   1 -10  -7   23.19   27.23   0
   1 -10  -6  111.77   31.12   0
   1 -10  -1  171.26   32.70   0
   1 -10   0   -4.52   22.83   0
   1  -9  -8   67.45   26.83   0
   1  -9   1  114.66   20.92   0
   1  -8   2  -10.11   20.39   0
   1  -6   3  650.73   25.90   0
   1  -5   3   51.42   21.69   0
   1  -2   0 5123.38   70.68   0
  -9   0   5   40.63   31.34   0
  -9   1   3   -2.37   32.38   0
  -9   2  -3  130.64   30.95   0
  -9   2  -2   -1.88   36.77   0
  -8   0   6    8.88   32.77   0
  -8   1   4   37.17   32.32   0
  -8   2  -6   54.56   25.60   0
  -8   2  -5   74.42   23.86   0
  -8   2   0   -2.03   24.01   0
  -8   2   1  128.18   33.78   0
  -7   1 -10  -18.54   25.26   0
  -7   2  -7   57.42   24.41   0
  -7   2   2  319.20   25.79   0
  -6   0 -12   98.26   25.66   0
  -6   1 -10   33.90   24.16   0
  -6   1   5  358.13   37.45   0
  -6   2  -8  121.43   22.03   0
  -5  -8  10    6.75   31.41   0
  -5  -7  10   25.60   33.17   0
  -5  -6  10   -4.19   29.24   0
  -5  -3   9  173.77   32.29   0
  -5   0 -12   47.54   23.53   0
  -5   1 -10   19.49   23.07   0
  -5   1   5  264.93   35.88   0
  -5   2  -8   74.56   23.10   0
  -4  -4   9   95.73   28.02   0
  -4  -2 -14   28.02   26.77   0
  -4  -2   8  184.07   26.68   0
  -4  -1 -13   -1.31   26.87   0
  -4   1 -10   48.06   22.57   0
  -4   2  -7 1181.13   29.46   0
  -3 -10   8   36.22   30.03   0
  -3  -7   9   -9.37   21.64   0
  -3   0 -11  124.34   25.51   0
  -3   1  -9   30.98   21.11   0
  -3   1   4 1330.48   50.74   0
  -3   2  -6   77.71   24.81   0
  -2 -11   6   44.15   31.35   0
  -2 -10   7   -4.26   23.66   0
  -2  -7   8   -2.52   21.95   0
  -2  -6   8  361.60   24.62   0
  -2  -4 -14   58.63   37.36   0
  -2  -3   7  405.23   29.97   0
  -2   0 -10  233.52   31.76   0
  -2   1  -8  194.85   30.73   0
  -2   2  -4   -5.12   23.22   0
  -2   2  -3 1168.62   31.79   0
  -2   2  -2 2737.91   42.12   0
  -2   2  -1 3892.04   49.32   0
  -1 -12   3   27.57   28.68   0
  -1 -10   5   19.49   26.90   0
  -1  -9   6   16.85   20.03   0
  -1  -8   6  163.09   25.20   0
  -1  -3 -12  103.22   32.53   0
  -1  -3   6   13.10   21.02   0
  -1  -2 -11   57.65   29.23   0
  -1  -1 -10  187.74   32.58   0
  -1   0  -8  854.60   30.04   0
   0 -12  -1   55.57   31.84   0
   0 -12   0  -15.52   25.47   0
   0 -11   2  161.54   24.78   0
   0 -10   3  224.26   22.98   0
   0  -9 -11   14.04   34.47   0
   0  -9   4   86.15   22.58   0
   0  -8   4    7.81   21.02   0
   0  -6   5   37.17   21.02   0
   0  -3 -10  879.23   49.69   0
   0  -3   4  199.63   22.60   0
   0  -2  -9  164.33   35.33   0
   0   0  -5   12.08   22.98   0
   1 -10  -5  249.06   27.10   0
   1 -10  -4  115.79   25.31   0
   1 -10  -3  140.61   25.76   0
   1 -10  -2  114.68   24.71   0
   1  -9  -7  136.70   25.61   0
   1  -9  -1  -39.23   29.19   0
   1  -9   0  234.21   22.48   0
   1  -8  -8   -0.52   24.28   0
   1  -8   1  524.10   25.02   0
   1  -7   2  694.85   25.04   0
   1  -6   2   67.25   22.91   0
   1  -5   2  674.84   26.58   0
   1  -4   2 1549.67   32.23   0
   1  -3   1 1552.34   34.70   0
   1  -2  -5 5824.04  169.01   0
  -9   2  -1  191.34   28.09   0
  -9   2   0   36.90   26.29   0
  -8   2  -7   70.24   26.14   0
  -8   2   2   23.09   32.20   0
  -7  -5  10    5.38   32.01   0
  -7   1   5  290.72   36.98   0
  -7   2  -9   24.41   32.28   0
  -7   2  -8  167.32   24.63   0
  -7   2   3   28.53   31.60   0
  -7   3  -4   -8.25   30.06   0
  -7   3  -3  108.01   32.13   0
  -7   3  -2    4.31   29.82   0
  -6  -5  10   22.74   25.73   0
  -6   1 -11   79.65   24.49   0
  -6   2  -9   12.19   22.75   0
  -6   2   3   23.64   23.56   0
  -6   3  -5  361.33   29.73   0
  -6   3  -4    9.10   20.75   0
  -6   3  -3  663.67   26.50   0
  -6   3  -2    9.18   21.17   0
  -6   3  -1  563.86   28.58   0
  -5   1 -11   13.56   24.37   0
  -5   2  -9   36.77   21.41   0
  -5   2   3    1.00   24.04   0
  -5   3  -5  303.89   24.49   0
  -5   3  -4   44.95   23.77   0
  -5   3  -3 1169.06   29.48   0
  -5   3  -2   19.91   22.94   0
  -5   3  -1 1036.59   29.99   0
  -4  -9   9  -12.01   25.78   0
  -4  -8   9  -48.21   31.51   0
  -4  -5   9    2.45   28.30   0
  -4   0 -12    2.84   24.54   0
  -4   2  -8   15.59   22.36   0
  -4   3  -4   20.70   22.17   0
  -4   3  -3  780.17   29.08   0
  -4   3  -2  212.05   23.28   0
  -4   3  -1  601.13   33.99   0
  -3  -9   8   34.15   22.71   0
  -3  -4   8   -4.48   27.61   0
  -3   1 -10  250.51   31.95   0
  -3   2  -7 2077.86   34.59   0
  -3   2   2  410.62   27.07   0
  -2 -10   6  150.99   29.55   0
  -2  -9   7  382.14   25.35   0
  -2  -8   7    4.29   25.30   0
  -2   1   3  375.76   40.59   0
  -2   2  -6   84.09   31.71   0
  -2   2  -5 2580.96   38.96   0
  -2   2   0  147.88   21.37   0
  -1 -12   2   25.85   29.81   0
  -1 -11   4   36.07   23.95   0
  -1  -9   5   70.86   22.36   0
  -1  -7   6   58.34   19.95   0
  -1  -6   6  127.87   22.11   0
  -1  -5   6    3.68   18.74   0
  -1  -4   6  240.61   22.94   0
  -1  -2   5  447.54   26.04   0
  -1   1  -6   -2.99   23.42   0
   0 -12  -5   80.19   34.72   0
   0 -12  -4   28.96   31.30   0
   0 -12  -3   25.51   30.80   0
   0 -12  -2   13.26   25.85   0
   0 -11   0  148.84   30.63   0
   0 -11   1  -31.02   23.77   0
   0 -10 -10   15.20   40.15   0
   0 -10   2   13.33   20.59   0
   0  -9   3   -5.75   19.96   0
   0  -7   4  107.81   21.32   0
   0  -6   4  246.02   23.40   0
   0  -5   4 2318.05   42.11   0
   0  -4   4 2506.98   37.22   0
   0  -2   3   94.41   26.32   0
   0  -1  -8   38.25   31.50   0
   0  -1   2  497.66   33.33   0
   1  -9  -6   69.65   25.90   0
   1  -9  -5   15.72   28.36   0
   1  -9  -4  268.96   33.24   0
   1  -9  -3   19.41   24.36   0
   1  -9  -2  137.59   23.92   0
   1  -8  -7  250.70   32.99   0
   1  -8  -1  449.00   30.02   0
   1  -8   0  141.21   21.76   0
   1  -7  -8  644.30   34.43   0
   1  -7   0  595.22   30.76   0
   1  -7   1   17.77   21.63   0
   1  -6  -8   38.49   33.73   0
   1  -6   1  413.34   23.31   0
   1  -5  -8  522.28   43.71   0
   1  -5   1  688.52   25.77   0
   1  -4   1  909.76   28.16   0
   1  -2  -1 6807.55   81.66   0
  -9   1   4   36.98   29.69   0
  -9   2   1   56.11   27.99   0
  -8   1   5   13.68   31.21   0
  -8   3  -5  -15.95   35.64   0
  -8   3  -4    4.74   24.79   0
  -8   3  -3   10.67   26.63   0
  -8   3  -2   67.20   30.74   0
  -7   3  -6   -0.91   22.55   0
  -7   3  -5   37.07   22.55   0
  -7   3  -1   95.92   24.19   0
  -7   3   0   33.42   24.55   0
  -6  -7  10   21.99   27.08   0
  -6  -3   9   93.82   32.12   0
  -6   2 -10   22.92   25.60   0
  -6   3  -7  267.54   28.60   0
  -6   3  -6    7.15   21.88   0
  -6   3   0   16.05   23.23   0
  -6   3   1  435.18   31.43   0
  -5  -4   9   80.19   29.06   0
  -5   0 -13   42.43   27.59   0
  -5   1 -12   80.77   31.78   0
  -5   2 -10  -45.40   28.38   0
  -5   3  -7  419.04   29.21   0
  -5   3  -6  111.27   21.30   0
  -5   3   0   57.84   21.86   0
  -5   3   1 1172.81   36.72   0
  -4 -10   8   15.52   34.49   0
  -4  -7   9   -5.37   23.25   0
  -4  -6   9  154.85   23.10   0
  -4  -1 -14   87.40   27.88   0
  -4  -1   7    0.15   32.74   0
  -4   0 -13  190.63   35.78   0
  -4   1 -11    8.76   23.68   0
  -4   1   5  124.87   33.17   0
  -4   2  -9  127.71   21.03   0
  -4   2   3  107.03   22.09   0
  -4   3  -6  244.82   22.61   0
  -4   3  -5  132.93   23.80   0
  -4   3   0    0.82   21.61   0
  -3 -10   7  -19.54   26.38   0
  -3  -8   8  171.76   25.19   0
  -3  -7   8  296.70   26.45   0
  -3  -6   8   11.15   30.00   0
  -3  -5   8  702.75   31.72   0
  -3  -2 -14   42.99   28.40   0
  -3  -2   7  227.19   31.34   0
  -3  -1 -13  168.85   28.66   0
  -3   0 -12  189.35   25.12   0
  -3   2  -8   10.63   22.22   0
  -3   3  -4  134.21   24.01   0
  -3   3  -3   53.21   22.83   0
  -3   3  -2 1386.68   31.80   0
  -2 -12   4    9.68   23.03   0
  -2 -11   5   48.98   23.57   0
  -2  -9   6   -9.80   26.77   0
  -2  -7   7  622.29   27.17   0
  -2  -6   7   89.00   21.89   0
  -2  -5   7  230.26   22.01   0
  -2  -4   7  199.49   21.19   0
  -2  -2 -13    5.13   24.83   0
  -2  -1 -12   11.55   25.39   0
  -2   0 -11   88.90   30.62   0
  -2   1  -9  175.03   22.29   0
  -2   2  -7 1020.79   35.99   0
  -1 -12   1   86.47   35.35   0
  -1 -11   3   47.46   23.61   0
  -1 -10   4  133.99   22.72   0
  -1  -8   5   26.76   20.47   0
  -1  -4 -13    9.73   33.68   0
  -1   0  -9 1046.39   33.58   0
  -1   1  -7  666.72   29.99   0
  -1   1   1  476.03   36.37   0
   0 -11  -8   54.08   30.22   0
   0 -11  -2   89.94   29.04   0
   0 -11  -1   25.43   22.56   0
   0 -10   1  236.91   22.67   0
   0  -9   2  289.95   22.55   0
   0  -8 -11   76.12   41.41   0
   0  -8   3  542.03   24.40   0
   0  -7   3  217.08   28.37   0
   0   0  -6  935.01   33.54   0
   1  -8  -6   31.74   21.82   0
   1  -8  -5  450.01   32.86   0
   1  -8  -4  133.06   28.56   0
   1  -8  -3  523.73   32.00   0
   1  -8  -2   11.04   22.10   0
   1  -7  -7    8.56   32.08   0
   1  -7  -1   12.90   28.61   0
   1  -6   0   -4.04   20.77   0
   1  -5   0  372.98   29.95   0
   1  -4   0   55.16   30.14   0
   1  -3   0 8953.24   71.46   0
   1  -2  -2 2452.33   60.44   0
  -9   0   6  -12.70   29.14   0
  -9   2   2   12.21   27.88   0
  -8   2   3  144.81   27.83   0
  -8   3  -1  -20.55   24.75   0
  -8   3   0  100.45   25.91   0
  -7  -3   9   75.71   39.52   0
  -7   2   4  129.75   30.37   0
  -7   3  -8   39.18   23.18   0
  -7   3  -7   28.10   22.77   0
  -7   3   1   71.45   24.82   0
  -6   2 -11   13.77   26.29   0
  -6   2   4  353.47   27.90   0
  -6   3  -8   28.10   23.66   0
  -5  -9   9   12.60   26.92   0
  -5  -8   9  159.01   36.05   0
  -5   2 -11   29.34   30.08   0
  -5   2   4  366.41   38.29   0
  -5   3  -8   94.93   22.68   0
  -4  -9   8   18.82   27.77   0
  -4  -3   8  167.74   33.13   0
  -4   1 -12  250.53   26.54   0
  -4   2 -10    5.80   21.66   0
  -4   3  -7  190.47   23.81   0
  -4   3   1  472.94   26.32   0
  -3 -11   6   13.71   24.27   0
  -3  -9   7  304.80   24.39   0
  -3   1 -11   95.89   25.70   0
  -3   2  -9  447.11   24.02   0
  -3   3  -6  971.28   28.85   0
  -3   3  -5   45.68   25.17   0
  -3   3  -1   58.31   23.27   0
  -3   3   0   57.45   33.64   0
  -2 -12   3   -2.72   27.87   0
  -2 -11   4    0.28   29.72   0
  -2 -10   5    0.62   19.38   0
  -2  -8   6  495.95   28.18   0
  -2  -3 -14    1.00   27.01   0
  -2   1 -10  386.33   30.82   0
  -2   2  -8  129.29   31.92   0
  -2   2   1 5410.61   64.66   0
  -1 -12   0   33.06   24.08   0
  -1 -11   2  232.25   25.90   0
  -1 -10   3  217.46   23.76   0
  -1  -9   4   57.35   21.06   0
  -1  -7   5  297.67   21.74   0
  -1  -6   5   11.23   21.57   0
  -1  -4   5   13.64   30.31   0
  -1  -3   5  308.15   24.36   0
  -1  -2 -12   50.08   34.42   0
  -1  -1 -11  556.24   36.47   0
  -1   1  -8  -39.18   30.80   0
  -1   2  -4  818.03   36.68   0
  -1   2  -3  175.43   23.44   0
   0 -11  -7   37.93   28.08   0
   0 -11  -6   94.11   26.49   0
   0 -11  -5   -0.25   26.74   0
   0 -11  -4   61.97   24.72   0
   0 -11  -3   26.94   24.15   0
   0 -10  -9   88.65   28.78   0
   0 -10  -1  215.64   31.46   0
   0 -10   0   84.54   22.41   0
   0  -9 -10    9.18   31.83   0
   0  -9   1  188.27   21.85   0
   0  -8   2   51.75   19.93   0
   0  -7 -11    0.89   38.48   0
   0  -6   3  350.36   25.11   0
   0  -5   3  604.04   31.17   0
   0  -4 -11  657.96   62.63   0
   0  -4   3 1748.13   39.28   0
   0  -3   3 1893.51   36.10   0
   0   0  -7    2.24   31.15   0
   1  -7  -6 1052.45   37.56   0
   1  -7  -3   76.07   28.87   0
   1  -7  -2  715.85   26.43   0
   1  -6  -7 1023.93   44.69   0
   1  -6  -1  932.67   27.58   0
   1  -4  -7  310.23   38.03   0
   1  -3  -1 1129.24   33.22   0
   1  -2  -3 2210.32   64.22   0
  -9   2   3   35.20   30.65   0
  -8   2   4   34.47   32.62   0
  -8   3   1    5.86   28.18   0
  -7   3   2  277.00   27.73   0
  -7   4  -5    0.84   30.05   0
  -7   4  -4  -11.13   34.78   0
  -7   4  -3   94.60   36.22   0
  -6   3  -9   49.79   23.31   0
  -6   3   2   89.77   24.22   0
  -6   4  -5   37.80   20.59   0
  -6   4  -4  137.59   22.55   0
  -6   4  -3   46.21   21.17   0
  -6   4  -2  263.58   24.26   0
  -5 -10   8    3.06   29.27   0
  -5  -7   9   14.76   23.61   0
  -5  -6   9  149.29   24.84   0
  -5  -2   8  154.50   30.74   0
  -5   3  -9   31.86   21.31   0
  -5   3   2   58.02   21.12   0
  -5   4  -5   91.49   22.01   0
  -5   4  -4  495.89   24.54   0
  -5   4  -3   33.08   22.37   0
  -5   4  -2  901.09   27.82   0
  -4 -10   7  106.09   30.12   0
  -4  -8   8   79.46   22.70   0
  -4   0 -14   -0.08   33.83   0
  -4   2 -11  209.88   24.71   0
  -4   3  -9   12.48   28.03   0
  -4   3  -8  349.28   23.68   0
  -3 -11   5   18.01   28.14   0
  -3 -10   6  180.66   23.98   0
  -3  -8   7  257.79   23.44   0
  -3  -1 -14   62.45   28.86   0
  -3   0 -13   62.60   27.31   0
  -3   1 -12  123.34   29.61   0
  -3   2 -10    7.08   21.85   0
  -3   2   3 1944.72   46.85   0
  -3   3  -7   17.46   22.86   0
  -2 -12   2    6.86   30.88   0
  -2  -9   5  110.57   22.29   0
  -2  -7   6   36.71   18.57   0
  -2  -4 -15    3.81   35.98   0
  -2  -3   6   25.93   27.95   0
  -2  -1 -13  189.58   32.41   0
  -2   0 -12  428.43   35.80   0
  -2   3  -5   77.65   34.09   0
  -2   3  -4 1251.07   31.27   0
  -2   3  -3 1332.98   32.21   0
  -2   3  -2  844.50   28.69   0
  -1 -12  -1   -9.34   24.62   0
  -1 -11   1   70.61   20.30   0
  -1 -10   2   59.69   22.26   0
  -1  -9   3  126.47   20.31   0
  -1  -8   4  397.13   22.51   0
  -1  -5   5  603.23   25.00   0
  -1   0 -10 1104.04   33.73   0
  -1   2  -6 1220.94   38.85   0
  -1   2  -5  629.69   27.51   0
  -1   2  -2 1464.17   38.00   0
   0 -10  -8   -3.06   27.10   0
   0 -10  -7   60.97   33.20   0
   0 -10  -3  247.70   30.80   0
   0 -10  -2   10.64   21.63   0
   0  -9   0  299.52   23.57   0
   0  -8   1  272.97   21.66   0
   0  -7   2  187.30   22.27   0
   0  -2 -10  940.06   47.59   0
   0  -2   2  122.37   35.90   0
   0  -1  -9  839.56   43.71   0
   1  -7  -5   38.59   22.41   0
   1  -7  -4 1140.73   29.27   0
   1  -6  -6   49.85   32.47   0
   1  -6  -3 1064.70   35.84   0
   1  -6  -2   67.01   21.55   0
   1  -5  -7   15.92   24.54   0
   1  -5  -2  617.66   34.56   0
   1  -5  -1    8.63   22.39   0
   1  -4  -1 2569.03   40.68   0
   1  -3  -2 2295.18   49.17   0
   1  -2  -4 1573.98   63.05   0
  -8   3   2  207.65   28.30   0
  -8   4  -3   40.08   25.51   0
  -8   4  -2   -7.29   32.14   0
  -7   0   7   36.74   40.12   0
  -7   1   6   76.23   36.07   0
  -7   4  -6   17.08   25.19   0
  -7   4  -2   80.44   24.13   0
  -7   4  -1  170.72   25.92   0
  -6  -8   9   87.16   28.01   0
  -6  -4   9   44.63   25.17   0
  -6   1   6   15.54   33.06   0
  -6   3 -10    6.09   24.72   0
  -6   3   3  220.42   30.95   0
  -6   4  -7    4.32   23.27   0
  -6   4  -6  102.18   25.26   0
  -6   4  -1    2.83   23.79   0
  -6   4   0   95.27   25.72   0
  -5  -9   8   65.27   29.99   0
  -5   2 -12   72.53   25.44   0
  -5   3 -10   65.06   24.93   0
  -5   4  -7   55.98   22.70   0
  -5   4  -6  515.63   26.84   0
  -5   4  -1    2.66   20.32   0
  -5   4   0  420.03   30.99   0
  -4 -11   6   64.48   25.56   0
  -4  -9   7   48.42   29.21   0
  -4  -7   8  333.62   26.02   0
  -4  -6   8   21.04   22.02   0
  -4  -5   8  290.06   24.60   0
  -4   1 -13   32.91   26.13   0
  -4   2 -12   20.34   30.47   0
  -4   2   4  157.43   25.33   0
  -4   3 -10  167.73   32.96   0
  -4   3   2  853.46   28.94   0
  -4   4  -6  534.26   25.69   0
  -4   4  -5   44.45   21.78   0
  -4   4  -4  330.69   23.59   0
  -4   4  -3  254.80   24.73   0
  -4   4  -2  994.87   29.51   0
  -4   4  -1  639.07   29.14   0
  -3 -12   4    0.78   23.64   0
  -3  -9   6   86.72   22.09   0
  -3  -7   7  179.97   21.98   0
  -3  -6   7  611.48   25.00   0
  -3  -5   7   77.00   23.88   0
  -3  -4   7  431.34   32.28   0
  -3   2 -11  281.30   35.82   0
  -3   3  -8  737.79   26.22   0
  -3   3   1   92.36   23.69   0
  -2 -13  -1    1.28   31.17   0
  -2 -12   1  -22.27   26.92   0
  -2 -11   3   80.03   22.70   0
  -2 -10   4   48.35   20.97   0
  -2  -8   5   55.43   21.02   0
  -2  -6   6    8.61   19.97   0
  -2  -5   6  148.95   20.92   0
  -2  -4   6  214.97   21.86   0
  -2  -2 -14  124.56   29.19   0
  -2  -1   5  189.79   30.21   0
  -2   1 -11  345.29   26.95   0
  -2   2  -9 1163.04   30.26   0
  -2   3  -6  786.30   27.95   0
  -2   3  -1 1332.59   32.52   0
  -1 -12  -4   30.24   30.37   0
  -1 -12  -3   64.33   24.33   0
  -1 -12  -2   40.38   25.38   0
  -1 -11   0   36.44   21.35   0
  -1 -10   1  284.84   27.63   0
  -1  -8   3  197.64   26.18   0
  -1  -7   4   56.37   21.33   0
  -1  -6   4  746.51   33.50   0
  -1  -3 -13   45.66   27.39   0
  -1  -2   4 6500.32   66.58   0
  -1   1  -9  604.02   29.78   0
  -1   2  -7  209.83   34.23   0
  -1   2  -1 1603.99   42.54   0
   0 -10  -6    7.10   24.10   0
   0 -10  -5   81.83   23.41   0
   0 -10  -4   -1.78   23.58   0
   0  -9  -9   20.45   25.33   0
   0  -9  -2  858.81   31.38   0
   0  -9  -1   92.96   20.77   0
   0  -8 -10   21.12   33.14   0
   0  -8   0  318.93   23.39   0
   0  -7   1  479.01   24.90   0
   0  -6 -11  393.44   54.69   0
   0  -6   2  574.03   25.05   0
   0  -5   2  339.33   23.64   0
   0  -3   2  186.82   30.26   0
   0   0  -8  478.19   35.12   0
   0   1  -5 9530.20   83.00   0
   0   1  -4   29.39   22.31   0
   0   1  -3 8598.68   91.63   0
   1  -6  -5  842.13   31.44   0
   1  -6  -4  177.55   22.33   0
   1  -5  -6 1049.26   41.88   0
   1  -5  -3  163.13   23.23   0
   1  -4  -2   38.41   22.00   0
   1  -3  -6  813.62   48.20   0
  -8   0   7   13.05   40.06   0
  -8   1   6   75.28   36.09   0
  -8   3   3   12.91   33.16   0
  -8   4  -1  131.16   28.31   0
  -8   4   0   31.89   31.93   0
  -7  -4   9   -0.52   32.94   0
  -7   2   5   30.66   28.53   0
  -7   3   3   36.36   26.28   0
  -7   4   0  124.87   25.40   0
  -7   4   1  259.64   33.14   0
  -6  -7   9   -5.33   25.18   0
  -6  -6   9  120.01   27.05   0
  -6  -5   9  142.76   24.62   0
  -6   0   7   14.36   43.74   0
  -6   2   5    5.80   32.22   0
  -6   4  -9   16.24   25.44   0
  -6   4  -8   53.65   23.81   0
  -6   4   1  152.66   25.87   0
  -5 -10   7  107.02   30.74   0
  -5  -8   8    2.07   24.32   0
  -5   3 -11  131.86   27.52   0
  -5   3   3 1038.74   32.97   0
  -5   4  -9    4.12   33.12   0
  -5   4  -8  332.64   27.16   0
  -5   4   1   19.72   30.24   0
  -4 -10   6   53.24   27.73   0
  -4  -8   7  270.64   29.57   0
  -4   3 -11   22.73   32.64   0
  -4   4  -8  164.65   24.21   0
  -4   4  -7  225.54   23.57   0
  -4   4   0  448.76   25.70   0
  -3 -12   3   -2.37   23.14   0
  -3 -11   4   12.30   21.49   0
  -3 -10   5   31.09   21.75   0
  -3  -8   6  383.33   22.77   0
  -3  -1   6  388.12   34.62   0
  -3   0 -14    3.84   26.80   0
  -3   1 -13   52.47   27.58   0
  -3   3  -9    4.20   21.99   0
  -3   4  -6   -1.33   22.03   0
  -3   4  -5   94.41   23.49   0
  -3   4  -4   98.62   23.35   0
  -3   4  -3  323.58   26.44   0
  -3   4  -2   27.92   21.88   0
  -3   4  -1 1563.02   38.16   0
  -2 -13  -2   31.85   25.29   0
  -2 -12   0  153.13   30.12   0
  -2 -11   2   70.25   21.03   0
  -2 -10   3   73.64   22.10   0
  -2  -9   4   13.28   20.56   0
  -2  -7   5   93.53   21.62   0
  -2  -3 -15   89.39   38.94   0
  -2   0 -13    2.92   37.52   0
  -2   2 -10   15.32   24.10   0
  -2   2   2 2305.89   48.74   0
  -2   3  -8  696.42   36.34   0
  -2   3  -7  671.32   29.23   0
  -2   3   0 2351.35   39.82   0
  -1 -12  -6    4.28   27.54   0
  -1 -12  -5   65.93   26.08   0
  -1 -11  -2   -4.09   31.09   0
  -1 -11  -1  134.48   23.33   0
  -1 -10   0   96.63   28.99   0
  -1  -9   2  595.13   24.51   0
  -1  -8 -13   26.24   40.90   0
  -1  -7   3 1336.39   35.43   0
  -1  -5   4  420.40   24.55   0
  -1  -4   4 1773.58   38.82   0
  -1  -3   4   21.55   20.88   0
  -1  -1 -12  108.24   25.81   0
  -1   0 -11   81.57   23.67   0
  -1   1 -10  189.49   32.96   0
  -1   2  -8  619.42   35.53   0
  -1   2   0 4882.50   70.35   0
   0  -9  -8   39.73   24.72   0
   0  -9  -7   28.70   30.52   0
   0  -9  -4  191.94   30.00   0
   0  -9  -3   39.89   22.42   0
   0  -8  -1  932.44   27.24   0
   0  -7   0  220.79   31.04   0
   0  -6   1   71.57   21.79   0
   0  -4   2  993.68   28.44   0
   0  -3 -11  487.90   48.09   0
   0  -1   1 4789.26   81.34   0
   0   1  -6  127.01   25.31   0
   0   1  -2  557.26   42.28   0
   1  -5  -5   12.58   20.37   0
   1  -5  -4  118.17   22.04   0
   1  -4  -6    6.60   21.49   0
   1  -4  -5  687.78   37.90   0
   1  -4  -4  119.02   28.73   0
   1  -4  -3    5.92   21.11   0
   1  -3  -5  382.44   36.08   0
   1  -3  -4  608.57   37.45   0
   1  -3  -3 1185.31   37.88   0
  -8  -4   9   12.20   38.03   0
  -8   2   5   98.13   39.10   0
  -8   4   1  148.55   34.04   0
  -7  -7   9   45.68   26.47   0
  -7  -5   9  128.88   34.92   0
  -7   5  -4   43.62   27.56   0
  -7   5  -3   58.36   31.66   0
  -6  -9   8   58.76   25.80   0
  -6   4   2   20.44   29.58   0
  -6   5  -6    5.56   22.85   0
  -6   5  -5   90.78   25.53   0
  -6   5  -4   29.49   25.29   0
  -6   5  -3   63.38   26.04   0
  -6   5  -2  241.17   31.02   0
  -5 -11   6  107.01   29.95   0
  -5  -7   8  148.69   24.81   0
  -5  -6   8   31.18   26.19   0
  -5  -3   8   -8.96   21.91   0
  -5   1   6   -4.52   31.21   0
  -5   2   5   19.21   28.62   0
  -5   4 -10   78.48   26.84   0
  -5   5  -6  -19.18   28.65   0
  -5   5  -5  124.72   23.77   0
  -5   5  -4  -11.17   24.37   0
  -5   5  -3  204.77   22.26   0
  -5   5  -2  -29.75   29.84   0
  -4 -12   4   24.90   24.08   0
  -4 -11   5   55.73   24.12   0
  -4  -7   7   11.82   31.34   0
  -4   2 -13   40.67   27.02   0
  -4   3   3  879.60   32.59   0
  -4   4  -9   65.53   23.40   0
  -4   4   1 1097.03   29.12   0
  -3 -13   1  178.07   26.85   0
  -3 -12   2   87.47   24.16   0
  -3 -10   4   22.47   26.44   0
  -3  -9   5  161.22   19.89   0
  -3  -7   6   84.13   21.55   0
  -3   2 -12   95.01   24.92   0
  -3   3 -10  254.48   24.72   0
  -3   3   2 1883.36   38.73   0
  -3   4  -8  -23.14   21.90   0
  -3   4  -7  499.13   25.91   0
  -3   4   0  151.16   33.49   0
  -2 -13  -3   13.65   25.02   0
  -2 -12  -1   58.36   27.96   0
  -2 -11   1  163.76   21.57   0
  -2  -8   4  517.98   24.81   0
  -2  -6   5  -20.29   21.74   0
  -2  -1 -14    8.59   27.22   0
  -2   1 -12    5.69   25.61   0
  -2   2 -11  117.78   31.89   0
  -2   3  -9   29.38   28.92   0
  -2   4  -5  274.80   32.86   0
  -2   4  -4  -18.23   32.36   0
  -1 -11  -9    0.38   28.11   0
  -1 -11  -8  206.03   39.59   0
  -1 -11  -4   63.93   32.60   0
  -1 -11  -3   32.26   23.63   0
  -1 -10  -1  163.05   25.29   0
  -1  -9 -12   60.97   38.28   0
  -1  -9   1  150.07   21.76   0
  -1  -8   2  512.09   23.99   0
  -1  -6   3  273.57   30.58   0
  -1  -2 -13  100.53   26.18   0
  -1   3  -5 1216.07   31.51   0
  -1   3  -4 2895.82   41.41   0
  -1   3  -3 1991.41   41.90   0
   0  -9  -6  136.85   23.31   0
   0  -9  -5   41.66   22.41   0
   0  -8  -9   69.09   24.59   0
   0  -8  -2   18.35   20.15   0
   0  -7 -10  258.73   37.27   0
   0  -5   1  394.24   24.11   0
   0  -1 -10  295.40   40.24   0
   0   0  -9   -2.96   34.19   0
   0   1  -7  619.37   29.39   0
  -8   3   4   78.55   34.23   0
  -8   4   2    0.27   37.19   0
  -7   3   4   36.98   26.55   0
  -7   4   2    8.41   27.10   0
  -7   5  -2   85.79   27.82   0
  -7   5  -1   15.96   27.18   0
  -6 -10   7   15.45   33.70   0
  -6  -8   8   49.96   24.47   0
  -6  -2   8   34.56   31.57   0
  -6   3   4   18.49   24.28   0
  -6   5  -7   50.45   24.52   0
  -6   5  -1   31.44   25.86   0
  -6   5   0   60.26   29.71   0
  -5  -9   7   26.53   22.18   0
  -5  -5   8   70.94   22.47   0
  -5  -4   8  258.71   26.87   0
  -5   3   4   71.95   31.69   0
  -5   4   2  590.26   27.83   0
  -5   5  -8   20.60   22.64   0
  -5   5  -7  153.29   26.75   0
  -5   5  -1  113.97   23.08   0
  -4 -12   3   24.64   26.84   0
  -4 -10   5   56.91   31.77   0
  -4  -9   6  212.35   23.25   0
  -4  -6   7  586.54   26.11   0
  -4  -2   7  386.85   28.74   0
  -4   3 -12   70.61   26.95   0
  -4   4 -10   20.16   24.80   0
  -4   5  -7  299.64   24.99   0
  -4   5  -6  156.95   24.10   0
  -4   5  -5  248.49   23.58   0
  -4   5  -4  226.77   23.96   0
  -4   5  -3  414.28   25.05   0
  -4   5  -2  583.56   26.16   0
  -3 -13  -1  -12.04   30.60   0
  -3 -13   0   10.87   24.31   0
  -3 -12   1   42.33   31.03   0
  -3 -11   3   59.68   23.20   0
  -3  -8   5   37.59   27.14   0
  -3  -6   6  106.43   19.94   0
  -3   1 -14   57.06   27.87   0
  -3   2 -13   44.23   31.15   0
  -3   3 -11   -1.57   26.22   0
  -3   4  -9   85.16   22.61   0
  -2 -12  -2  135.81   25.89   0
  -2 -11   0  -12.32   20.29   0
  -2 -10   2  299.40   22.70   0
  -2  -9   3  391.59   24.00   0
  -2  -7   4   19.85   27.85   0
  -2  -5   5  235.41   22.11   0
  -2  -4   5  340.11   32.62   0
  -2  -3   5 1032.63   36.05   0
  -2  -2 -15   70.19   30.39   0
  -2   0 -14   12.50   34.34   0
  -2   1 -13  137.65   33.31   0
  -2   3 -10  420.21   34.72   0
  -2   3   1  -16.51   22.68   0
  -2   4  -7  216.93   29.43   0
  -2   4  -6  852.23   28.57   0
  -2   4  -3  896.20   28.72   0
  -2   4  -2  892.36   28.03   0
  -1 -11  -7    5.46   25.70   0
  -1 -11  -6   53.00   26.24   0
  -1 -11  -5  165.74   27.94   0
  -1 -10 -10   26.52   35.60   0
  -1 -10  -2   56.79   21.32   0
  -1  -9   0  202.31   22.11   0
  -1  -8   1   39.47   26.61   0
  -1  -7   2    4.54   21.73   0
  -1  -5   3 2284.02   40.25   0
  -1  -1 -13  105.80   29.08   0
  -1   0 -12  309.55   26.92   0
  -1   1 -11  413.60   27.15   0
  -1   2  -9  266.28   22.97   0
  -1   3  -7  651.19   26.28   0
  -1   3  -6   35.45   23.33   0
  -1   3  -2  968.01   30.31   0
   0  -8  -8   14.53   23.20   0
   0  -8  -7  639.73   33.69   0
   0  -8  -4  160.07   27.24   0
   0  -8  -3  911.29   26.78   0
   0  -7  -1   71.92   21.37   0
   0  -6   0  958.89   28.38   0
   0  -4   1  988.53   29.10   0
   0  -3   1 1263.10   40.81   0
   0  -2 -11  248.85   35.52   0
   0  -2   1  610.96   32.34   0
   0   1  -8   10.08   30.48   0
  -7   5   0  185.17   27.81   0
  -6  -7   8   -4.06   25.54   0
  -5 -12   4   27.59   24.94   0
  -5 -11   5   -3.84   23.29   0
  -5 -10   6    8.10   23.88   0
  -5  -8   7  200.66   23.44   0
  -5   5  -9   11.05   25.59   0
  -5   5   0  -15.33   23.78   0
  -4 -13   1   36.99   24.33   0
  -4 -11   4  -39.32   23.09   0
  -4  -8   6   -7.62   22.44   0
  -4  -5   7   26.77   20.78   0
  -4  -3   7  173.69   24.78   0
  -4   4 -11   51.77   26.71   0
  -4   4   2  754.68   28.72   0
  -4   5  -8   51.54   21.69   0
  -4   5  -1  339.39   25.53   0
  -3 -11   2   13.39   20.67   0
  -3 -10   3    6.13   21.64   0
  -3  -9   4   31.35   19.72   0
  -3  -5   6  652.32   24.55   0
  -3  -2   6  293.85   23.80   0
  -3   3 -12  262.01   27.10   0
  -3   4 -10    7.60   23.06   0
  -3   4   1  581.94   27.39   0
  -3   5  -7   19.65   23.33   0
  -3   5  -6  480.60   28.33   0
  -3   5  -5   87.54   23.62   0
  -3   5  -4  322.42   24.36   0
  -3   5  -3   45.70   22.42   0
  -3   5  -2 1491.05   32.16   0
  -2 -12  -3  116.78   26.28   0
  -2 -11  -1   22.06   20.75   0
  -2 -10   1  146.76   21.67   0
  -2  -9   2   71.25   21.76   0
  -2  -8   3   16.50   19.97   0
  -2   2 -12  220.00   26.07   0
  -2   4  -8   34.36   21.45   0
  -2   4  -1 1436.28   32.68   0
  -1 -10  -3  222.68   22.68   0
  -1  -9  -1  167.80   20.97   0
  -1  -4   3   13.27   19.82   0
  -1   2 -10  411.17   26.53   0
  -1   3  -8  298.59   26.36   0
  -1   3  -1 1492.17   34.41   0
   0  -8  -6    5.26   21.94   0
   0  -8  -5  728.34   27.99   0
   0  -7  -2 1139.66   27.84   0
   0  -6  -1  490.93   25.41   0
   0  -5   0   99.24   22.16   0
   0   1  -1 5065.17   83.96   0
   0   2  -5  107.94   23.63   0
   0   2  -4 4968.51   56.59   0
;
_shelx_hkl_checksum              16139
loop_
_space_group_symop_operation_xyz
'x, y, z'
'-x, -y, -z'
loop_
_atom_site_label
_atom_site_type_symbol
_atom_site_fract_x
_atom_site_fract_y
_atom_site_fract_z
_atom_site_U_iso_or_equiv
_atom_site_adp_type
_atom_site_occupancy
_atom_site_site_symmetry_order
_atom_site_calc_flag
_atom_site_refinement_flags_posn
_atom_site_refinement_flags_adp
_atom_site_refinement_flags_occupancy
_atom_site_disorder_assembly
_atom_site_disorder_group
Sn1 Sn 0.57872(5) 0.22847(5) 0.74392(4) 0.03569(16) Uani 1 1 d . . . . .
S1 S 0.3717(2) 0.1227(2) 0.67972(18) 0.0519(4) Uani 1 1 d . . . . .
S2 S 0.6367(3) 0.1521(2) 0.96024(16) 0.0513(4) Uani 1 1 d . . . . .
S3 S 0.7036(3) 0.2557(2) 0.53813(16) 0.0533(4) Uani 1 1 d . . . . .
S4 S 0.3092(2) 0.4562(2) 0.7843(2) 0.0543(5) Uani 1 1 d . . . . .
N1 N 0.7879(7) -0.0431(6) 0.7448(5) 0.0434(12) Uani 1 1 d . . . . .
N2 N 0.7308(7) 0.4061(6) 0.7615(5) 0.0417(12) Uani 1 1 d . . . . .
C1 C 0.5206(12) -0.0699(9) 0.6677(8) 0.061(2) Uani 1 1 d . . . . .
H1A H 0.5025 -0.1300 0.7405 0.073 Uiso 1 1 calc R U . . .
H1B H 0.4846 -0.1025 0.5993 0.073 Uiso 1 1 calc R U . . .
C2 C 0.7227(11) -0.1002(9) 0.6512(7) 0.0582(19) Uani 1 1 d . . . . .
H2A H 0.7922 -0.2071 0.6534 0.070 Uiso 1 1 calc R U . . .
H2B H 0.7451 -0.0543 0.5718 0.070 Uiso 1 1 calc R U . . .
C3 C 0.7937(10) -0.0424(9) 0.9671(7) 0.0541(18) Uani 1 1 d . . . . .
H3A H 0.9183 -0.0481 0.9626 0.065 Uiso 1 1 calc R U . . .
H3B H 0.7749 -0.0941 1.0447 0.065 Uiso 1 1 calc R U . . .
C4 C 0.7693(10) -0.1205(8) 0.8658(7) 0.0489(16) Uani 1 1 d . . . . .
H4A H 0.8602 -0.2222 0.8714 0.059 Uiso 1 1 calc R U . . .
H4B H 0.6492 -0.1245 0.8754 0.059 Uiso 1 1 calc R U . . .
C5 C 0.9799(9) -0.0633(9) 0.7166(8) 0.062(2) Uani 1 1 d . . . . .
H5A H 1.0225 -0.0282 0.7793 0.094 Uiso 1 1 calc R U . . .
H5B H 0.9884 -0.0075 0.6399 0.094 Uiso 1 1 calc R U . . .
H5C H 1.0539 -0.1673 0.7123 0.094 Uiso 1 1 calc R U . . .
C6 C 0.8439(10) 0.3602(10) 0.5507(7) 0.0588(19) Uani 1 1 d . . . . .
H6A H 0.9639 0.2919 0.5780 0.071 Uiso 1 1 calc R U . . .
H6B H 0.8600 0.4097 0.4714 0.071 Uiso 1 1 calc R U . . .
C7 C 0.7575(11) 0.4740(9) 0.6380(7) 0.0562(18) Uani 1 1 d . . . . .
H7A H 0.8342 0.5288 0.6417 0.067 Uiso 1 1 calc R U . . .
H7B H 0.6398 0.5445 0.6085 0.067 Uiso 1 1 calc R U . . .
C8 C 0.6052(9) 0.5191(7) 0.8377(7) 0.0455(15) Uani 1 1 d . . . . .
H8A H 0.6502 0.5974 0.8378 0.055 Uiso 1 1 calc R U . . .
H8B H 0.6051 0.4730 0.9207 0.055 Uiso 1 1 calc R U . . .
C9 C 0.4102(10) 0.5887(8) 0.7950(7) 0.0487(16) Uani 1 1 d . . . . .
H9A H 0.4089 0.6445 0.7158 0.058 Uiso 1 1 calc R U . . .
H9B H 0.3348 0.6590 0.8508 0.058 Uiso 1 1 calc R U . . .
C10 C 0.9074(9) 0.3323(9) 0.8218(8) 0.0585(19) Uani 1 1 d . . . . .
H10A H 0.8921 0.2751 0.8960 0.088 Uiso 1 1 calc R U . . .
H10B H 0.9485 0.4066 0.8395 0.088 Uiso 1 1 calc R U . . .
H10C H 0.9963 0.2672 0.7689 0.088 Uiso 1 1 calc R U . . .
loop_
_atom_site_aniso_label
_atom_site_aniso_U_11
_atom_site_aniso_U_22
_atom_site_aniso_U_33
_atom_site_aniso_U_23
_atom_site_aniso_U_13
_atom_site_aniso_U_12
Sn1 0.0342(2) 0.0372(2) 0.0358(2) -0.00634(15) -0.00066(14) -0.01360(16)
S1 0.0431(8) 0.0578(11) 0.0616(11) -0.0166(9) -0.0053(8) -0.0231(8)
S2 0.0735(11) 0.0510(10) 0.0340(8) -0.0045(7) -0.0007(8) -0.0295(9)
S3 0.0680(11) 0.0569(11) 0.0377(9) -0.0066(8) 0.0036(8) -0.0279(9)
S4 0.0342(7) 0.0466(9) 0.0804(14) -0.0147(9) 0.0029(8) -0.0126(7)
N1 0.038(3) 0.043(3) 0.046(3) -0.007(2) 0.002(2) -0.011(2)
N2 0.033(2) 0.043(3) 0.046(3) 0.000(2) 0.000(2) -0.015(2)
C1 0.078(5) 0.051(4) 0.067(5) -0.014(4) -0.018(4) -0.035(4)
C2 0.075(5) 0.050(4) 0.051(4) -0.015(3) -0.001(4) -0.024(4)
C3 0.051(4) 0.062(5) 0.050(4) 0.009(3) -0.017(3) -0.025(3)
C4 0.056(4) 0.038(3) 0.052(4) 0.002(3) -0.009(3) -0.018(3)
C5 0.038(3) 0.061(5) 0.074(6) -0.001(4) 0.003(3) -0.007(3)
C6 0.056(4) 0.073(5) 0.046(4) -0.002(4) 0.013(3) -0.029(4)
C7 0.071(5) 0.049(4) 0.056(4) -0.001(3) 0.002(4) -0.034(4)
C8 0.050(3) 0.039(3) 0.051(4) -0.011(3) -0.007(3) -0.018(3)
C9 0.053(4) 0.038(3) 0.057(4) -0.012(3) -0.003(3) -0.017(3)
C10 0.036(3) 0.059(5) 0.080(6) -0.006(4) -0.011(3) -0.017(3)
loop_
_atom_type_symbol
_atom_type_description
_atom_type_scat_dispersion_real
_atom_type_scat_dispersion_imag
_atom_type_scat_source
C C 0.0033 0.0016 'International Tables Vol C Tables 4.2.6.8 and 6.1.1.4'
H H 0.0000 0.0000 'International Tables Vol C Tables 4.2.6.8 and 6.1.1.4'
N N 0.0061 0.0033 'International Tables Vol C Tables 4.2.6.8 and 6.1.1.4'
S S 0.1246 0.1234 'International Tables Vol C Tables 4.2.6.8 and 6.1.1.4'
Sn Sn -0.6537 1.4246 'International Tables Vol C Tables 4.2.6.8 and 6.1.1.4'
loop_
_geom_angle_atom_site_label_1
_geom_angle_atom_site_label_2
_geom_angle_atom_site_label_3
_geom_angle
_geom_angle_site_symmetry_1
_geom_angle_site_symmetry_3
_geom_angle_publ_flag
S3 Sn1 S2 147.85(7) . . ?
S3 Sn1 S4 110.54(7) . . ?
S2 Sn1 S4 92.80(7) . . ?
S3 Sn1 S1 92.92(7) . . ?
S2 Sn1 S1 109.84(7) . . ?
S4 Sn1 S1 88.99(6) . . ?
S3 Sn1 N1 84.99(14) . . ?
S2 Sn1 N1 77.95(14) . . ?
S4 Sn1 N1 160.74(13) . . ?
S1 Sn1 N1 78.59(13) . . ?
S3 Sn1 N2 77.97(14) . . ?
S2 Sn1 N2 85.33(13) . . ?
S4 Sn1 N2 79.36(12) . . ?
S1 Sn1 N2 161.43(13) . . ?
N1 Sn1 N2 116.12(17) . . ?
C1 S1 Sn1 103.0(2) . . ?
C3 S2 Sn1 104.4(3) . . ?
C6 S3 Sn1 103.9(3) . . ?
C9 S4 Sn1 102.5(2) . . ?
C2 N1 C5 110.0(6) . . ?
C2 N1 C4 110.1(6) . . ?
C5 N1 C4 110.6(6) . . ?
C2 N1 Sn1 106.1(4) . . ?
C5 N1 Sn1 111.9(5) . . ?
C4 N1 Sn1 108.1(4) . . ?
C8 N2 C10 107.9(6) . . ?
C8 N2 C7 111.5(6) . . ?
C10 N2 C7 110.2(6) . . ?
C8 N2 Sn1 106.2(4) . . ?
C10 N2 Sn1 112.7(4) . . ?
C7 N2 Sn1 108.3(4) . . ?
C2 C1 S1 115.0(5) . . ?
C2 C1 H1A 108.5 . . ?
S1 C1 H1A 108.5 . . ?
C2 C1 H1B 108.5 . . ?
S1 C1 H1B 108.5 . . ?
H1A C1 H1B 107.5 . . ?
N1 C2 C1 112.9(6) . . ?
N1 C2 H2A 109.0 . . ?
C1 C2 H2A 109.0 . . ?
N1 C2 H2B 109.0 . . ?
C1 C2 H2B 109.0 . . ?
H2A C2 H2B 107.8 . . ?
C4 C3 S2 112.7(5) . . ?
C4 C3 H3A 109.1 . . ?
S2 C3 H3A 109.1 . . ?
C4 C3 H3B 109.1 . . ?
S2 C3 H3B 109.1 . . ?
H3A C3 H3B 107.8 . . ?
N1 C4 C3 111.8(6) . . ?
N1 C4 H4A 109.3 . . ?
C3 C4 H4A 109.3 . . ?
N1 C4 H4B 109.3 . . ?
C3 C4 H4B 109.3 . . ?
H4A C4 H4B 107.9 . . ?
N1 C5 H5A 109.5 . . ?
N1 C5 H5B 109.5 . . ?
H5A C5 H5B 109.5 . . ?
N1 C5 H5C 109.5 . . ?
H5A C5 H5C 109.5 . . ?
H5B C5 H5C 109.5 . . ?
C7 C6 S3 111.1(5) . . ?
C7 C6 H6A 109.4 . . ?
S3 C6 H6A 109.4 . . ?
C7 C6 H6B 109.4 . . ?
S3 C6 H6B 109.4 . . ?
H6A C6 H6B 108.0 . . ?
N2 C7 C6 112.4(6) . . ?
N2 C7 H7A 109.1 . . ?
C6 C7 H7A 109.1 . . ?
N2 C7 H7B 109.1 . . ?
C6 C7 H7B 109.1 . . ?
H7A C7 H7B 107.9 . . ?
N2 C8 C9 113.2(5) . . ?
N2 C8 H8A 108.9 . . ?
C9 C8 H8A 108.9 . . ?
N2 C8 H8B 108.9 . . ?
C9 C8 H8B 108.9 . . ?
H8A C8 H8B 107.7 . . ?
C8 C9 S4 114.4(5) . . ?
C8 C9 H9A 108.7 . . ?
S4 C9 H9A 108.7 . . ?
C8 C9 H9B 108.7 . . ?
S4 C9 H9B 108.7 . . ?
H9A C9 H9B 107.6 . . ?
N2 C10 H10A 109.5 . . ?
N2 C10 H10B 109.5 . . ?
H10A C10 H10B 109.5 . . ?
N2 C10 H10C 109.5 . . ?
H10A C10 H10C 109.5 . . ?
H10B C10 H10C 109.5 . . ?
loop_
_geom_bond_atom_site_label_1
_geom_bond_atom_site_label_2
_geom_bond_distance
_geom_bond_site_symmetry_2
_geom_bond_publ_flag
Sn1 S3 2.4342(19) . ?
Sn1 S2 2.4457(18) . ?
Sn1 S4 2.4668(18) . ?
Sn1 S1 2.4700(17) . ?
Sn1 N1 2.518(5) . ?
Sn1 N2 2.526(5) . ?
S1 C1 1.804(8) . ?
S2 C3 1.814(8) . ?
S3 C6 1.820(8) . ?
S4 C9 1.804(7) . ?
N1 C2 1.469(9) . ?
N1 C5 1.473(8) . ?
N1 C4 1.477(9) . ?
N2 C8 1.473(8) . ?
N2 C10 1.476(8) . ?
N2 C7 1.477(9) . ?
C1 C2 1.515(11) . ?
C1 H1A 0.9700 . ?
C1 H1B 0.9700 . ?
C2 H2A 0.9700 . ?
C2 H2B 0.9700 . ?
C3 C4 1.513(10) . ?
C3 H3A 0.9700 . ?
C3 H3B 0.9700 . ?
C4 H4A 0.9700 . ?
C4 H4B 0.9700 . ?
C5 H5A 0.9600 . ?
C5 H5B 0.9600 . ?
C5 H5C 0.9600 . ?
C6 C7 1.492(11) . ?
C6 H6A 0.9700 . ?
C6 H6B 0.9700 . ?
C7 H7A 0.9700 . ?
C7 H7B 0.9700 . ?
C8 C9 1.519(9) . ?
C8 H8A 0.9700 . ?
C8 H8B 0.9700 . ?
C9 H9A 0.9700 . ?
C9 H9B 0.9700 . ?
C10 H10A 0.9600 . ?
C10 H10B 0.9600 . ?
C10 H10C 0.9600 . ?
loop_
_geom_torsion_atom_site_label_1
_geom_torsion_atom_site_label_2
_geom_torsion_atom_site_label_3
_geom_torsion_atom_site_label_4
_geom_torsion
_geom_torsion_site_symmetry_1
_geom_torsion_site_symmetry_2
_geom_torsion_site_symmetry_3
_geom_torsion_site_symmetry_4
_geom_torsion_publ_flag
Sn1 S1 C1 C2 -21.7(7) . . . . ?
C5 N1 C2 C1 -174.5(6) . . . . ?
C4 N1 C2 C1 63.3(8) . . . . ?
Sn1 N1 C2 C1 -53.4(7) . . . . ?
S1 C1 C2 N1 53.3(9) . . . . ?
Sn1 S2 C3 C4 -29.2(6) . . . . ?
C2 N1 C4 C3 -167.1(6) . . . . ?
C5 N1 C4 C3 71.2(8) . . . . ?
Sn1 N1 C4 C3 -51.6(6) . . . . ?
S2 C3 C4 N1 56.2(7) . . . . ?
Sn1 S3 C6 C7 -36.8(6) . . . . ?
C8 N2 C7 C6 -165.5(6) . . . . ?
C10 N2 C7 C6 74.7(8) . . . . ?
Sn1 N2 C7 C6 -49.0(7) . . . . ?
S3 C6 C7 N2 59.7(8) . . . . ?
C10 N2 C8 C9 -172.0(6) . . . . ?
C7 N2 C8 C9 66.8(7) . . . . ?
Sn1 N2 C8 C9 -50.9(6) . . . . ?
N2 C8 C9 S4 56.4(8) . . . . ?
Sn1 S4 C9 C8 -27.9(6) . . . . ?
