#------------------------------------------------------------------------------
#$Date: 2021-11-10 02:10:48 +0200 (Wed, 10 Nov 2021) $
#$Revision: 270555 $
#$URL: file:///home/coder/svn-repositories/cod/cif/7/70/87/7708762.cif $
#------------------------------------------------------------------------------
#
# This file is available in the Crystallography Open Database (COD),
# http://www.crystallography.net/
#
# All data on this site have been placed in the public domain by the
# contributors.
#
data_7708762
loop_
_publ_author_name
'Zhang, Rui'
'Su, Xin'
'Zhang, Jie'
'Xiong, Mingyao'
'Huang, Yi-Neng'
_publ_section_title
;
 RbMo2P3O14 with Large Birefringence Mainly Induced by Highly Distorted
 [MoO6] in the Uncommon [Mo2P3O14]\\infty Layers
;
_journal_name_full               'Dalton Transactions'
_journal_paper_doi               10.1039/D1DT03285B
_journal_year                    2021
_chemical_formula_moiety         'Mo2 O14 P3 Rb'
_chemical_formula_sum            'Mo2 O14 P3 Rb'
_chemical_formula_weight         594.26
_chemical_name_systematic        RbMoPO
_space_group_crystal_system      monoclinic
_space_group_IT_number           4
_space_group_name_Hall           'P 2yb'
_space_group_name_H-M_alt        'P 1 21 1'
_atom_sites_solution_primary     iterative
_audit_creation_date             2021-07-15
_audit_creation_method
;
Olex2 1.3
(compiled 2020.11.12 svn.r5f609507 for OlexSys, GUI svn.r6272)
;
_audit_update_record
;
2021-08-25 deposited with the CCDC.	2021-11-08 downloaded from the CCDC.
;
_cell_angle_alpha                90
_cell_angle_beta                 96.1210(10)
_cell_angle_gamma                90
_cell_formula_units_Z            2
_cell_length_a                   8.0271(3)
_cell_length_b                   6.3124(2)
_cell_length_c                   11.9022(4)
_cell_measurement_reflns_used    9170
_cell_measurement_temperature    273.15
_cell_measurement_theta_max      27.51
_cell_measurement_theta_min      2.55
_cell_volume                     599.65(4)
_computing_cell_refinement       'SAINT V8.40A (Bruker, 2019)'
_computing_data_reduction        'SAINT V8.40A (Bruker, 2019)'
_computing_molecular_graphics    'Olex2 1.3 (Dolomanov et al., 2009)'
_computing_publication_material  'Olex2 1.3 (Dolomanov et al., 2009)'
_computing_structure_refinement  'SHELXL 2018/3 (Sheldrick, 2015)'
_computing_structure_solution    'olex2.solve 1.3 (Bourhis et al., 2015)'
_diffrn_ambient_temperature      273.15
_diffrn_detector_area_resol_mean 5.6
_diffrn_detector_type            'Bruker SMART CCD 6000 area detector'
_diffrn_measured_fraction_theta_full 1.000
_diffrn_measured_fraction_theta_max 0.998
_diffrn_measurement_device       'three-circle diffractometer'
_diffrn_measurement_device_type  'Bruker APEX-II CCD'
_diffrn_measurement_method       '\f and \w scans'
_diffrn_radiation_type           MoK\a
_diffrn_radiation_wavelength     0.71073
_diffrn_reflns_av_R_equivalents  0.0363
_diffrn_reflns_av_unetI/netI     0.0290
_diffrn_reflns_Laue_measured_fraction_full 1.000
_diffrn_reflns_Laue_measured_fraction_max 0.998
_diffrn_reflns_limit_h_max       10
_diffrn_reflns_limit_h_min       -10
_diffrn_reflns_limit_k_max       8
_diffrn_reflns_limit_k_min       -8
_diffrn_reflns_limit_l_max       15
_diffrn_reflns_limit_l_min       -15
_diffrn_reflns_number            12256
_diffrn_reflns_point_group_measured_fraction_full 0.998
_diffrn_reflns_point_group_measured_fraction_max 0.995
_diffrn_reflns_theta_full        25.242
_diffrn_reflns_theta_max         27.551
_diffrn_reflns_theta_min         1.721
_exptl_absorpt_coefficient_mu    6.599
_exptl_absorpt_correction_T_max  0.7456
_exptl_absorpt_correction_T_min  0.5189
_exptl_absorpt_correction_type   none
_exptl_absorpt_process_details
;
SADABS-2016/2 (Bruker,2016/2) was used for absorption correction.
wR2(int) was 0.0968 before and 0.0556 after correction.
The Ratio of minimum to maximum transmission is 0.6959.
The \l/2 correction factor is Not present.
;
_exptl_crystal_colour            colourless
_exptl_crystal_colour_primary    colourless
_exptl_crystal_density_diffrn    3.291
_exptl_crystal_description       block
_exptl_crystal_F_000             556
_refine_diff_density_max         0.631
_refine_diff_density_min         -0.610
_refine_diff_density_rms         0.106
_refine_ls_abs_structure_details
;
 Refined as an inversion twin.
;
_refine_ls_abs_structure_Flack   0.422(10)
_refine_ls_extinction_method     none
_refine_ls_goodness_of_fit_ref   1.059
_refine_ls_hydrogen_treatment    undef
_refine_ls_matrix_type           full
_refine_ls_number_parameters     182
_refine_ls_number_reflns         2781
_refine_ls_number_restraints     1
_refine_ls_restrained_S_all      1.059
_refine_ls_R_factor_all          0.0207
_refine_ls_R_factor_gt           0.0195
_refine_ls_shift/su_max          0.000
_refine_ls_shift/su_mean         0.000
_refine_ls_structure_factor_coef Fsqd
_refine_ls_weighting_details
'w=1/[\s^2^(Fo^2^)+(0.0233P)^2^+0.1725P] where P=(Fo^2^+2Fc^2^)/3'
_refine_ls_weighting_scheme      calc
_refine_ls_wR_factor_gt          0.0464
_refine_ls_wR_factor_ref         0.0471
_reflns_Friedel_coverage         0.828
_reflns_Friedel_fraction_full    0.995
_reflns_Friedel_fraction_max     0.992
_reflns_number_gt                2701
_reflns_number_total             2781
_reflns_threshold_expression     'I > 2\s(I)'
_iucr_refine_instructions_details
;
TITL 1_a.res in P2(1)
    1.res
    created by SHELXL-2018/3 at 22:55:18 on 15-Jul-2021
REM Old TITL 1_a.res in P2(1)
REM SHELXT solution in P2(1): R1 0.062, Rweak 0.026, Alpha 0.010
REM <I/s> 0.395 for 4 systematic absences, Orientation as input
REM Flack x = 0.424 ( 0.005 ) from 1052 Parsons' quotients
REM Formula found by SHELXT: O14 P3 Mo2 Rb
CELL 0.71073 8.0271 6.3124 11.9022 90 96.121 90
ZERR 2 0.0003 0.0002 0.0004 0 0.001 0
LATT -1
SYMM -X,0.5+Y,-Z
SFAC Mo O P Rb
UNIT 4 28 6 2

L.S. 10 0 0
PLAN  7
TEMP 0
CONF
list 4
MORE -1
fmap 2 53
acta
TWIN -1 0 0 0 -1 0 0 0 -1 2
REM <olex2.extras>
REM <HklSrc "%.\\1.hkl">
REM </olex2.extras>

WGHT    0.023300    0.172500
BASF   0.42243
FVAR       0.44625
MO1   1    0.719568    0.736078    0.520505    11.00000    0.01161    0.00748 =
         0.01748    0.00108    0.00014    0.00010
MO2   1    0.727580    0.969622    0.033116    11.00000    0.01884    0.00771 =
         0.01729    0.00031   -0.00326   -0.00055
RB1   4    0.316667    0.821394    0.237941    11.00000    0.04079    0.05351 =
         0.02244   -0.00645    0.00692    0.00902
P1    3    0.848785    0.227028    0.494505    11.00000    0.01340    0.00750 =
         0.01435    0.00015    0.00276   -0.00001
P2    3    0.943147    0.196627    0.265847    11.00000    0.01824    0.01208 =
         0.01044    0.00001    0.00015   -0.00038
P3    3    0.867546    0.459990    0.073582    11.00000    0.02355    0.00747 =
         0.01308    0.00091    0.00311   -0.00035
O9    2    0.904632    0.019884    0.185055    11.00000    0.03956    0.01188 =
         0.01728   -0.00164   -0.00839    0.00272
O12   2    0.758705    0.286628    0.017121    11.00000    0.04207    0.01242 =
         0.02273    0.00022   -0.01177    0.00076
O6    2    1.031160    0.241214    0.533050    11.00000    0.01453    0.02106 =
         0.01591   -0.00161    0.00257   -0.00384
O4    2    0.753051    0.422784    0.521000    11.00000    0.01983    0.00557 =
         0.04048   -0.00024    0.00673    0.00094
O5    2    0.763517    0.044641    0.548184    11.00000    0.02381    0.00940 =
         0.02243    0.00035    0.00908   -0.00213
O13   2    0.772918    0.665882    0.062710    11.00000    0.03098    0.00814 =
         0.02892    0.00062   -0.00242    0.00075
O7    2    0.821182    0.188652    0.361158    11.00000    0.01597    0.03402 =
         0.01469    0.00195   -0.00055   -0.00499
O3    2    0.558471    0.721892    0.598886    11.00000    0.01638    0.01577 =
         0.03628    0.00109    0.00568    0.00075
O1    2    0.626909    0.757124    0.387808    11.00000    0.02789    0.02805 =
         0.02412    0.00140   -0.00627    0.00095
O2    2    0.568861    0.986614    0.114451    11.00000    0.02969    0.03359 =
         0.05938    0.00277    0.01752    0.00449
O11   2    1.038439    0.466128    0.037641    11.00000    0.03962    0.03026 =
         0.05193   -0.00293    0.03144   -0.00504
O8    2    1.118808    0.207306    0.316050    11.00000    0.01695    0.03260 =
         0.01398   -0.00326    0.00148    0.00162
O14   2    0.625671    0.949088   -0.096708    11.00000    0.05832    0.01815 =
         0.03434    0.00157   -0.01954   -0.00959
O10   2    0.887414    0.413826    0.206092    11.00000    0.03950    0.00990 =
         0.01199   -0.00183    0.00162    0.00074
HKLF 4




REM  1_a.res in P2(1)
REM wR2 = 0.0471, GooF = S = 1.059, Restrained GooF = 1.059 for all data
REM R1 = 0.0195 for 2701 Fo > 4sig(Fo) and 0.0207 for all 2781 data
REM 182 parameters refined using 1 restraints

END  
     
WGHT      0.0233      0.1725 

REM Highest difference peak  0.631,  deepest hole -0.610,  1-sigma level  0.106
Q1    1   0.7226  0.9574 -0.1120  11.00000  0.05    0.63
Q2    1   0.9739  0.4684 -0.0172  11.00000  0.05    0.49
Q3    1   0.5502  0.9724  0.0466  11.00000  0.05    0.43
Q4    1   0.7294  0.4349  0.0401  11.00000  0.05    0.43
Q5    1   0.9762  0.2245  0.4855  11.00000  0.05    0.42
Q6    1   0.7135  0.7454  0.4008  11.00000  0.05    0.40
Q7    1   1.0544  0.5142  0.0568  11.00000  0.05    0.40

  REM The information below was added by Olex2.
  REM
  REM R1 = 0.0195 for 2701 Fo > 4sig(Fo) and 0.0207 for all 12278 data
  REM 182 parameters refined using n/a restraints
  REM Highest difference peak 0.63, deepest hole -0.61
  REM Mean Shift 0, Max Shift 0.000.

  REM +++ Tabular Listing of Refinement Information +++
  REM R1_all = 0.0207
  REM R1_gt = 0.0195
  REM wR_ref = 0.0471
  REM GOOF = 1.059
  REM Shift_max = 0.000
  REM Shift_mean = 0
  REM Reflections_all = 12278
  REM Reflections_gt = 2701
  REM Parameters = 182
  REM Hole = -0.61
  REM Peak = 0.63
  REM Flack = n/a

  
;
_cod_data_source_file            d1dt03285b2.cif
_cod_data_source_block           1
_cod_database_code               7708762
_shelx_shelxl_version_number     2018/3
_shelx_space_group_comment
;
The symmetry employed for this shelxl refinement is uniquely defined
by the following loop, which should always be used as a source of
symmetry information in preference to the above space-group names.
They are only intended as comments.
;
_olex2_refinement_description
;
1. Twinned data refinement
 Scales: 0.578(10)
 0.422(10)
;
_olex2_submission_special_instructions 'No special instructions were received'
loop_
_space_group_symop_operation_xyz
'x, y, z'
'-x, y+1/2, -z'
loop_
_atom_site_label
_atom_site_type_symbol
_atom_site_fract_x
_atom_site_fract_y
_atom_site_fract_z
_atom_site_U_iso_or_equiv
_atom_site_adp_type
_atom_site_occupancy
_atom_site_site_symmetry_order
_atom_site_calc_flag
_atom_site_refinement_flags_posn
_atom_site_refinement_flags_adp
_atom_site_refinement_flags_occupancy
_atom_site_disorder_assembly
_atom_site_disorder_group
Mo1 Mo 0.71957(5) 0.73608(5) 0.52050(3) 0.01229(10) Uani 1 1 d . . . . .
Mo2 Mo 0.72758(5) 0.96962(6) 0.03312(3) 0.01499(10) Uani 1 1 d . . . . .
Rb1 Rb 0.31667(9) 0.82139(13) 0.23794(5) 0.03866(17) Uani 1 1 d . . . . .
P1 P 0.84878(14) 0.2270(2) 0.49450(9) 0.0117(2) Uani 1 1 d . . . . .
P2 P 0.94315(16) 0.1966(2) 0.26585(10) 0.0137(3) Uani 1 1 d . . . . .
P3 P 0.86755(16) 0.4600(2) 0.07358(9) 0.0146(2) Uani 1 1 d . . . . .
O9 O 0.9046(6) 0.0199(6) 0.1851(3) 0.0237(10) Uani 1 1 d . . . . .
O12 O 0.7587(6) 0.2866(7) 0.0171(3) 0.0268(11) Uani 1 1 d . . . . .
O6 O 1.0312(4) 0.2412(7) 0.5330(3) 0.0171(7) Uani 1 1 d . . . . .
O4 O 0.7531(5) 0.4228(6) 0.5210(3) 0.0217(10) Uani 1 1 d . . . . .
O5 O 0.7635(5) 0.0446(6) 0.5482(3) 0.0181(8) Uani 1 1 d . . . . .
O13 O 0.7729(6) 0.6659(6) 0.0627(4) 0.0231(9) Uani 1 1 d . . . . .
O7 O 0.8212(4) 0.1887(7) 0.3612(3) 0.0217(8) Uani 1 1 d . . . . .
O3 O 0.5585(5) 0.7219(8) 0.5989(3) 0.0226(8) Uani 1 1 d . . . . .
O1 O 0.6269(5) 0.7571(8) 0.3878(3) 0.0273(9) Uani 1 1 d . . . . .
O2 O 0.5689(6) 0.9866(10) 0.1145(4) 0.0400(11) Uani 1 1 d . . . . .
O11 O 1.0384(6) 0.4661(9) 0.0376(4) 0.0387(11) Uani 1 1 d . . . . .
O8 O 1.1188(5) 0.2073(7) 0.3160(3) 0.0212(8) Uani 1 1 d . . . . .
O14 O 0.6257(6) 0.9491(8) -0.0967(4) 0.0387(12) Uani 1 1 d . . . . .
O10 O 0.8874(5) 0.4138(6) 0.2061(3) 0.0205(8) Uani 1 1 d . . . . .
loop_
_atom_site_aniso_label
_atom_site_aniso_U_11
_atom_site_aniso_U_22
_atom_site_aniso_U_33
_atom_site_aniso_U_23
_atom_site_aniso_U_13
_atom_site_aniso_U_12
Mo1 0.01161(19) 0.0075(2) 0.01748(19) 0.00108(16) 0.00014(14) 0.00010(17)
Mo2 0.0188(2) 0.0077(2) 0.01729(19) 0.00031(17) -0.00326(15) -0.00055(17)
Rb1 0.0408(4) 0.0535(4) 0.0224(3) -0.0064(3) 0.0069(2) 0.0090(3)
P1 0.0134(5) 0.0075(5) 0.0143(5) 0.0002(5) 0.0028(4) 0.0000(5)
P2 0.0182(6) 0.0121(6) 0.0104(5) 0.0000(4) 0.0001(4) -0.0004(5)
P3 0.0235(6) 0.0075(6) 0.0131(5) 0.0009(5) 0.0031(4) -0.0003(5)
O9 0.040(2) 0.012(2) 0.0173(17) -0.0016(14) -0.0084(16) 0.0027(17)
O12 0.042(3) 0.012(3) 0.0227(19) 0.0002(15) -0.0118(18) 0.0008(19)
O6 0.0145(16) 0.021(2) 0.0159(15) -0.0016(17) 0.0026(12) -0.0038(19)
O4 0.020(2) 0.006(2) 0.040(2) -0.0002(15) 0.0067(16) 0.0009(16)
O5 0.024(2) 0.009(2) 0.0224(19) 0.0003(14) 0.0091(16) -0.0021(15)
O13 0.031(2) 0.0081(19) 0.029(2) 0.0006(15) -0.0024(18) 0.0007(16)
O7 0.0160(17) 0.034(2) 0.0147(16) 0.0020(15) -0.0005(13) -0.0050(16)
O3 0.0164(17) 0.016(2) 0.036(2) 0.0011(18) 0.0057(15) 0.001(2)
O1 0.028(2) 0.028(3) 0.0241(18) 0.0014(18) -0.0063(15) 0.001(2)
O2 0.030(2) 0.034(3) 0.059(3) 0.003(3) 0.018(2) 0.004(3)
O11 0.040(3) 0.030(3) 0.052(3) -0.003(3) 0.031(2) -0.005(3)
O8 0.0170(17) 0.033(2) 0.0140(16) -0.0033(16) 0.0015(13) 0.0016(18)
O14 0.058(3) 0.018(2) 0.034(2) 0.002(2) -0.020(2) -0.010(3)
O10 0.039(2) 0.0099(18) 0.0120(17) -0.0018(13) 0.0016(15) 0.0007(16)
loop_
_atom_type_symbol
_atom_type_description
_atom_type_scat_dispersion_real
_atom_type_scat_dispersion_imag
_atom_type_scat_source
Mo Mo -1.6832 0.6857 'International Tables Vol C Tables 4.2.6.8 and 6.1.1.4'
O O 0.0106 0.0060 'International Tables Vol C Tables 4.2.6.8 and 6.1.1.4'
P P 0.1023 0.0942 'International Tables Vol C Tables 4.2.6.8 and 6.1.1.4'
Rb Rb -0.9393 2.9676 'International Tables Vol C Tables 4.2.6.8 and 6.1.1.4'
loop_
_diffrn_refln_index_h
_diffrn_refln_index_k
_diffrn_refln_index_l
_diffrn_refln_intensity_net
_diffrn_refln_intensity_u
1 0 0 272.57 9.6
1 0 0 262.87 10
-1 0 0 257.87 9.4
2 0 0 5719.73 201.48
-2 0 0 5589.94 201.98
3 0 0 1011.3 35.5
3 0 0 934.11 34.2
4 0 0 546.05 23.1
4 0 0 571.44 26.4
-4 0 0 606.94 22.9
5 0 0 1607.54 62.29
5 0 0 1648.83 59.99
5 0 0 1629.74 57.29
5 0 0 1726.43 59.89
-5 0 0 1757.02 58.49
6 0 0 253.57 13.4
-6 0 0 234.08 14
6 0 0 270.87 15.4
6 0 0 251.07 15.3
7 0 0 1189.18 48.5
-7 0 0 1224.18 46.7
7 0 0 1224.28 48.8
7 0 0 1213.38 48.5
7 0 0 1227.18 45.5
-8 0 0 7.6 3.9
8 0 0 7.2 4.9
8 0 0 15.1 5.3
8 0 0 9.9 4.5
8 0 0 10.6 3.7
8 0 0 14.5 5.9
9 0 0 464.45 24.1
9 0 0 436.46 26.5
-9 0 0 444.66 24.4
9 0 0 404.86 26.2
9 0 0 448.26 22.8
9 0 0 458.35 26
10 0 0 31.1 7.7
-10 0 0 31.7 7.8
10 0 0 30 9.2
0 -1 0 0.2 0.6
0 -1 0 0.7 0.7
0 1 0 -0.2 0.6
0 1 0 0.1 0.6
-1 -1 0 285.57 10.4
-1 -1 0 305.57 12.5
1 -1 0 310.07 11.4
-1 -1 0 284.27 11.8
1 1 0 288.87 10.5
1 1 0 271.47 11.8
1 1 0 295.17 12.5
-2 -1 0 669.43 24.6
2 -1 0 708.33 23.7
2 1 0 717.53 26.6
-2 1 0 719.03 24.8
2 1 0 680.33 26.2
2 1 0 710.73 23
2 1 0 735.03 24.6
-3 -1 0 227.48 11.7
3 -1 0 258.07 10.4
-3 -1 0 242.98 12.1
3 1 0 240.68 9.7
3 1 0 254.27 11.5
-3 1 0 243.48 11.1
3 1 0 251.67 12.8
3 1 0 270.47 13.3
4 -1 0 45.1 4.1
-4 -1 0 46.5 5
4 1 0 43.4 6.1
-4 1 0 39.5 4.2
4 1 0 37.9 5.2
4 1 0 36.1 3.3
-5 -1 0 1390.96 52.19
5 -1 0 1173.28 47.6
5 -1 0 1199.08 44.4
5 -1 0 1238.48 49.3
5 1 0 1253.97 47.7
5 1 0 1212.08 42.9
5 1 0 1196.58 47.5
5 1 0 1266.47 46.6
5 1 0 1267.17 46.1
-5 1 0 1319.57 45.7
6 -1 0 141.09 10.9
6 -1 0 127.99 9.7
6 -1 0 131.99 9.6
-6 -1 0 141.29 10.3
6 -1 0 145.29 11.7
6 1 0 151.08 11.5
6 1 0 133.39 11.2
6 1 0 133.89 8.4
-6 1 0 147.79 10.4
6 1 0 130.19 11.6
6 1 0 134.19 10.5
-7 -1 0 317.57 17.9
7 -1 0 302.37 17.1
7 -1 0 300.07 17.3
7 -1 0 332.97 19.3
7 1 0 324.87 20.3
7 1 0 309.87 15.3
7 1 0 318.77 18.9
7 1 0 311.47 19
7 1 0 294.77 17.8
-7 1 0 333.67 18.2
8 -1 0 299.97 18.3
8 -1 0 294.97 19.9
8 -1 0 328.67 18.2
-8 -1 0 284.57 17.9
-8 1 0 285.97 18.2
8 1 0 271.17 20.3
8 1 0 291.07 19.6
8 1 0 311.97 15.8
8 1 0 295.17 19.4
9 -1 0 1 6.3
9 -1 0 -3.7 5.1
9 -1 0 5.2 5.6
9 -1 0 2.6 3.6
-9 -1 0 6.4 3.7
9 1 0 -0.1 5.1
9 1 0 4.6 5.5
9 1 0 1.2 2.8
9 1 0 7.8 6.3
9 1 0 -2.4 6.7
-9 1 0 -1.9 3.7
-10 -1 0 301.07 20.6
10 -1 0 282.47 21.8
10 -1 0 240.28 22.8
10 -1 0 323.27 24.1
10 -1 0 307.27 19.8
10 1 0 284.87 23.1
10 1 0 306.97 17.5
10 1 0 305.37 20.8
10 1 0 228.98 23.8
-10 1 0 300.17 21.8
0 -2 0 1264.07 46.1
0 -2 0 1312.67 45.2
0 2 0 1287.47 45.1
0 2 0 1336.97 46
-1 -2 0 194.08 8.5
1 -2 0 202.08 10.7
1 -2 0 212.88 10.6
-1 -2 0 190.48 11.3
-1 -2 0 201.68 10.5
1 2 0 207.78 8.1
1 2 0 226.08 11.4
1 2 0 208.18 11.5
-1 2 0 214.58 10.5
1 2 0 214.28 8.9
-2 -2 0 383.26 18.6
-2 -2 0 376.36 17.4
-2 -2 0 357.66 14.7
2 -2 0 404.66 16.9
2 2 0 389.16 17.9
2 2 0 402.36 15.4
2 2 0 417.16 18.6
2 2 0 400.76 15.2
2 2 0 417.46 19
-3 -2 0 537.05 23.7
3 -2 0 566.24 22.4
-3 -2 0 563.44 21.7
3 -2 0 562.34 20.1
3 2 0 575.84 25.5
3 2 0 557.94 22.2
3 2 0 578.74 21.5
4 -2 0 2.7 1.3
-4 -2 0 1.5 1.7
4 -2 0 1.6 1.5
-4 -2 0 3.7 3.6
4 2 0 2 1.7
4 2 0 1.4 2.4
4 2 0 0.4 2.1
4 2 0 1.2 1.8
5 -2 0 225.38 12.9
-5 -2 0 218.48 13.6
-5 -2 0 221.88 13.8
5 -2 0 205.78 10.6
5 2 0 221.88 12.5
5 2 0 222.28 13.2
5 2 0 227.28 15.3
5 2 0 208.48 14.8
-6 -2 0 196.18 13.5
6 -2 0 206.98 15
6 -2 0 220.18 13.6
6 -2 0 188.88 11
6 -2 0 198.08 12.9
6 2 0 201.28 15.2
6 2 0 190.08 9.5
6 2 0 218.38 15.9
6 2 0 191.88 14.7
6 2 0 190.78 12.7
7 -2 0 59.69 9
7 -2 0 52.29 6.5
-7 -2 0 58.89 7.8
7 -2 0 50.69 9.4
7 -2 0 50.79 7.8
7 2 0 61.09 10.4
7 2 0 45.2 7.1
7 2 0 57.19 5.2
7 2 0 55.59 9.7
7 2 0 55.99 10.1
8 -2 0 201.08 16.6
8 -2 0 217.98 19.9
-8 -2 0 193.18 14.8
8 -2 0 198.98 14.7
8 -2 0 207.08 13.7
8 2 0 197.38 17.9
8 2 0 159.48 14.1
8 2 0 188.18 10.8
8 2 0 196.08 19.6
8 2 0 177.28 15.8
9 -2 0 73.99 12.7
9 -2 0 53.59 10.5
-9 -2 0 66.99 9.9
9 -2 0 41.4 8.6
9 -2 0 55.69 9.9
9 2 0 56.79 10.6
9 2 0 75.79 7.3
9 2 0 69.29 10.2
9 2 0 54.69 9.8
10 -2 0 4.9 10.3
-10 -2 0 -4.7 3.9
10 -2 0 0.3 4.3
10 -2 0 7.6 9.1
10 -2 0 -9.1 7.1
10 2 0 0.2 6.2
10 2 0 16.2 10.5
10 2 0 7.7 3.8
0 -3 0 0.7 1
0 -3 0 2.6 2.4
0 -3 0 0.5 1.4
0 -3 0 1.9 1.5
0 3 0 -1.4 1.1
0 3 0 -2.3 1.3
-1 -3 0 2642.94 91.69
-1 -3 0 2568.84 85.29
-1 -3 0 2655.53 88.99
1 -3 0 2533.55 89.99
1 -3 0 2720.33 89.79
-1 -3 0 2575.84 89.89
1 3 0 2744.03 91.59
-1 3 0 2670.03 89.59
1 3 0 2704.13 90.29
2 -3 0 1026.5 39.6
2 -3 0 1101.99 35.7
2 -3 0 1038.5 39.9
-2 -3 0 1046.2 35.8
-2 -3 0 988.9 41.9
-2 -3 0 994.9 39.5
2 3 0 1055.89 41.3
2 3 0 1053.49 36.5
2 3 0 993.6 35.4
2 3 0 1096.79 44.2
-3 -3 0 877.91 35.9
3 -3 0 880.41 35.1
3 -3 0 879.81 31.3
3 -3 0 872.21 32
-3 -3 0 937.51 32.1
3 3 0 901.11 32.5
3 3 0 900.71 37.6
3 3 0 898.81 38.2
3 3 0 842.22 32.1
-4 -3 0 523.45 21.8
4 -3 0 528.35 19.3
-4 -3 0 489.45 24.3
4 -3 0 532.65 23.5
4 -3 0 493.25 21
4 3 0 493.15 21.9
4 3 0 539.85 26.9
4 3 0 509.35 21.4
5 -3 0 373.66 17.7
5 -3 0 356.86 14.8
-5 -3 0 413.06 19.3
5 -3 0 319.67 18.2
-5 -3 0 388.16 20.6
5 3 0 345.67 21.7
5 3 0 355.66 17.7
5 3 0 365.26 18.6
6 -3 0 446.26 22.4
-6 -3 0 427.06 23.3
6 -3 0 428.36 24
6 -3 0 439.06 18.1
6 -3 0 401.46 21.2
6 3 0 429.56 21.5
6 3 0 424.76 22.4
6 3 0 449.26 25.7
7 -3 0 69.79 10.2
-7 -3 0 108.49 10.9
7 -3 0 86.59 9.6
7 -3 0 74.69 9.1
7 -3 0 78.79 10.3
7 -3 0 105.39 8
7 3 0 77.69 12.3
7 3 0 84.59 9.8
8 -3 0 19.1 6.2
8 -3 0 27.7 8.3
8 -3 0 37.1 8.5
-8 -3 0 25.9 8.3
8 -3 0 26.7 10.9
8 -3 0 31.4 6
8 3 0 30.4 6.8
8 3 0 41.9 8.4
8 3 0 25.8 7.9
9 -3 0 2.4 4.9
9 -3 0 7.5 9.1
9 -3 0 0.8 6.5
-9 -3 0 6.1 4.6
9 -3 0 8.8 5.7
9 3 0 1.6 6.6
9 3 0 -10.7 6.4
9 3 0 15.2 9.4
0 -4 0 5645.74 183.28
0 -4 0 5491.45 180.38
0 -4 0 5494.05 177.58
0 4 0 5641.14 182.98
0 4 0 5564.84 183.88
-1 -4 0 275.27 15.6
-1 -4 0 284.77 11.3
-1 -4 0 275.37 17
-1 -4 0 268.57 18.4
-1 -4 0 267.47 12.5
1 -4 0 272.87 17.4
1 -4 0 269.67 16.4
1 4 0 290.37 18
1 4 0 291.67 17.2
-1 4 0 286.57 16.7
2 -4 0 628.14 30.3
-2 -4 0 681.13 24.9
-2 -4 0 677.53 29.5
2 -4 0 643.84 29.7
-2 -4 0 630.74 32.3
2 4 0 660.53 25.8
2 4 0 696.53 31.3
-2 4 0 670.53 29.1
2 4 0 642.54 31.7
3 -4 0 174.18 13.6
3 -4 0 157.78 13.4
-3 -4 0 159.28 12.3
3 -4 0 162.88 8.1
-3 -4 0 160.68 9
3 4 0 158.88 9.8
3 4 0 146.49 8.7
3 4 0 146.19 13.6
3 4 0 158.08 8.9
4 -4 0 311.67 14.2
4 -4 0 293.07 18.8
-4 -4 0 319.57 18.9
4 -4 0 307.47 13.8
4 4 0 324.27 15.9
4 4 0 300.47 15.2
4 4 0 276.77 20.3
4 4 0 336.77 21.3
4 4 0 309.27 15.5
5 -4 0 309.37 20.6
5 -4 0 367.06 19.4
5 -4 0 326.07 16.5
-5 -4 0 355.06 18.1
-5 -4 0 353.56 21
5 4 0 352.76 23.5
5 4 0 330.97 17.6
5 4 0 374.96 18.5
5 4 0 337.57 23.3
6 -4 0 326.67 19.6
-6 -4 0 330.37 21
-6 -4 0 304.87 18.8
6 -4 0 334.67 17.7
6 -4 0 297.57 20.8
6 4 0 359.96 19.3
6 4 0 341.07 24.9
6 4 0 376.96 24.8
-7 -4 0 832.82 52.89
7 -4 0 882.11 36.4
7 -4 0 776.62 37.9
7 -4 0 959 43.9
7 4 0 859.81 43.3
7 4 0 823.42 45.5
7 4 0 809.22 37.5
7 4 0 822.82 37
8 -4 0 52.99 10.7
-8 -4 0 82.49 11.6
8 -4 0 67.69 10.3
8 -4 0 94.29 11.1
8 4 0 80.49 14.7
8 4 0 80.39 15.2
8 4 0 102.59 11.9
-9 -4 0 575.84 31.6
9 -4 0 506.65 29.7
9 -4 0 590.74 31
9 4 0 489.15 34.9
9 4 0 518.85 38.4
9 4 0 429.86 31.6
9 4 0 537.95 35.2
9 4 0 559.84 30.5
0 -5 0 0.4 1.5
0 -5 0 0.2 2.3
0 -5 0 0.7 1.7
0 -5 0 7 4.1
0 -5 0 2.6 7.2
0 5 0 -0.2 2.9
0 5 0 4.1 3.9
1 -5 0 679.63 29.2
1 -5 0 641.04 32.1
-1 -5 0 686.53 24.6
-1 -5 0 698.43 31
-1 -5 0 631.64 32.5
1 -5 0 668.33 34.9
-1 -5 0 697.33 26.5
1 -5 0 707.93 28.1
-1 5 0 678.73 32.4
1 5 0 731.33 33.3
1 5 0 632.84 33.4
2 -5 0 981.2 46
-2 -5 0 1037.2 37.7
2 -5 0 1023.9 39.9
-2 -5 0 1060.69 43.7
2 -5 0 1016.6 44.6
2 -5 0 1068.39 40.2
-2 5 0 1069.49 44.1
2 5 0 1087.69 46.3
2 5 0 1099.09 48
-3 -5 0 516.65 22.8
3 -5 0 488.75 26.9
-3 -5 0 486.95 25.9
3 -5 0 488.95 23.2
3 -5 0 505.25 29
3 5 0 491.55 22
3 5 0 478.95 27.9
3 5 0 506.55 19.7
3 5 0 486.65 29.3
4 -5 0 626.44 26.3
4 -5 0 661.53 25.1
4 -5 0 618.74 33.8
-4 -5 0 681.93 27.2
4 -5 0 642.54 33.4
4 -5 0 683.63 27
4 -5 0 667.43 30
-4 -5 0 675.33 32.7
4 5 0 645.74 28.1
4 5 0 686.43 27
4 5 0 705.93 36.9
4 5 0 663.03 35.3
4 5 0 640.74 26.3
5 -5 0 396.16 25.4
-5 -5 0 408.16 19.8
-5 -5 0 389.96 23.6
5 -5 0 383.66 17.5
5 -5 0 354.46 28.1
5 -5 0 424.46 22.3
5 5 0 369.66 19.9
5 5 0 363.26 18.8
5 5 0 355.06 25.9
5 5 0 379.06 26.7
6 -5 0 189.78 12.4
-6 -5 0 181.68 16.1
-6 -5 0 191.68 14.2
6 -5 0 181.48 18.6
6 -5 0 203.38 20.5
6 5 0 198.28 14.6
6 5 0 217.08 20.9
6 5 0 192.38 13.6
6 5 0 195.38 19.2
6 5 0 187.88 14.8
7 -5 0 4.6 4.3
-7 -5 0 5.2 4.9
7 -5 0 6.6 4.6
7 5 0 -0.9 8.1
7 5 0 9 7.2
7 5 0 -12.2 5.4
7 5 0 4.6 4.5
7 5 0 -0.2 5.9
-8 -5 0 218.38 19.3
8 -5 0 282.67 20.3
8 -5 0 289.87 18.1
8 -5 0 208.98 23.4
8 -5 0 248.88 17.9
8 5 0 272.87 19.1
8 5 0 241.28 22.7
8 5 0 230.58 22.1
8 5 0 249.78 23.8
8 5 0 249.08 26
0 -6 0 67.79 6.3
0 -6 0 67.69 8.5
0 -6 0 58.99 10.6
0 -6 0 61.29 6.7
0 6 0 83.09 13.9
1 -6 0 49.3 11
1 -6 0 42 6.6
-1 -6 0 43.7 5.3
-1 -6 0 40.2 7.5
1 -6 0 45.9 7.9
1 -6 0 42.5 6.4
-1 -6 0 45.8 4.5
1 6 0 38.2 8.5
-1 6 0 38 8.7
1 6 0 52.19 10.3
2 -6 0 151.68 16.7
-2 -6 0 154.18 9.7
-2 -6 0 166.18 14
2 -6 0 161.58 11.4
2 -6 0 149.09 11.5
2 6 0 162.38 15.6
2 6 0 133.89 15.5
-3 -6 0 29.4 4.7
-3 -6 0 28.6 6.8
3 -6 0 27.7 5.7
3 -6 0 22.6 5.1
3 -6 0 32 9.1
3 6 0 19.9 6.8
3 6 0 20.9 7.7
4 -6 0 13.8 9.3
4 -6 0 37.1 6
-4 -6 0 26.1 4.7
4 -6 0 34.2 6.8
-4 -6 0 27.8 6.7
4 -6 0 36.6 6.5
4 6 0 29.7 8.3
4 6 0 35.5 10.5
-5 -6 0 14.8 5.8
-5 -6 0 15.9 4.5
5 -6 0 34.4 15.6
5 -6 0 18.8 3.9
5 -6 0 17.2 6.1
5 -6 0 22.9 4
5 6 0 17.8 7.7
5 6 0 25.5 7.7
5 6 0 17.9 4.4
5 6 0 20.4 9
-6 -6 0 17.6 5.4
6 -6 0 12.7 6.3
-6 -6 0 14.6 6.2
6 -6 0 -10.5 13.9
6 -6 0 15.7 4.1
6 -6 0 17.7 4.6
6 6 0 8.2 4.6
6 6 0 16.1 13.9
6 6 0 13 7.5
6 6 0 16.8 8
7 -6 0 89.29 13
-7 -6 0 109.19 14
7 -6 0 87.99 9.9
7 -6 0 115.19 10.6
7 6 0 103.89 19.4
7 6 0 111.09 18.6
7 6 0 78.79 13.8
7 6 0 79.99 12.5
0 -7 0 -2.3 3.2
0 -7 0 3.6 2.4
0 -7 0 -2.7 8.7
0 -7 0 -2.9 2.3
0 7 0 0.4 9.2
1 -7 0 144.29 11.2
1 -7 0 137.79 12.5
1 -7 0 103.99 16.4
-1 -7 0 131.69 13
-1 -7 0 138.49 9.8
1 -7 0 143.79 10.8
-1 -7 0 132.09 8
1 7 0 147.99 15.7
1 7 0 154.18 17.1
-1 7 0 142.19 15.5
-2 -7 0 29.8 7.2
2 -7 0 24.2 11.5
2 -7 0 45.7 8
2 -7 0 41.5 7.3
-2 -7 0 44.8 5.7
2 -7 0 42.3 7.6
2 7 0 35.9 10.2
2 7 0 40.1 10.1
3 -7 0 146.99 12.8
-3 -7 0 156.48 14.9
3 -7 0 92.39 16.7
3 -7 0 131.59 11
-3 -7 0 152.28 10.2
3 7 0 168.08 18.8
3 7 0 157.98 17.5
-4 -7 0 92.39 8.6
-4 -7 0 83.09 11.9
4 -7 0 84.89 10.6
4 7 0 97.09 17.6
5 -7 0 122.99 12.9
-5 -7 0 98.59 13.3
-5 -7 0 99.29 10.1
5 7 0 80.49 16.6
5 7 0 141.09 18.3
0 -8 0 721.33 28.9
0 -8 0 709.33 30.4
0 -8 0 675.73 34.7
0 8 0 730.63 41.6
1 -8 0 10.2 5.5
1 -8 0 29.3 6.3
-1 -8 0 15.5 6.3
1 -8 0 19.7 5.3
-1 -8 0 13.4 4.2
1 8 0 22.6 9.1
2 -8 0 212.18 15.7
2 -8 0 223.28 15.7
-2 -8 0 199.58 17.9
-2 -8 0 219.18 13.1
2 -8 0 242.48 15.9
2 8 0 216.78 22.7
2 8 0 203.18 21.3
-10 0 1 36.4 8.6
10 0 -1 23 8.2
10 0 -1 21.8 9.4
10 0 -1 33.4 7.1
9 0 -1 9 4.7
9 0 -1 5.3 5.6
9 0 -1 6.7 6.7
-9 0 1 3 3.3
8 0 -1 8.9 4.5
8 0 -1 -2.8 3.4
8 0 -1 4.3 2.9
-8 0 1 1.9 2.7
8 0 -1 2.9 4.5
7 0 -1 9.9 4.5
7 0 -1 8.1 3.2
-7 0 1 10 3.4
7 0 -1 4.5 3.7
7 0 -1 10.7 4.6
6 0 -1 350.76 19
6 0 -1 376.56 19.5
6 0 -1 367.26 19.2
-6 0 1 378.36 17.7
5 0 -1 154.28 10.5
5 0 -1 165.88 10.6
5 0 -1 158.18 10.6
-5 0 1 150.58 9.3
4 0 -1 147.19 9
-4 0 1 136.99 8.1
4 0 -1 161.88 9.4
3 0 -1 316.17 13.7
-3 0 1 308.67 13.1
3 0 -1 318.77 13.9
3 0 -1 332.27 14.2
2 0 -1 1260.97 43
-2 0 1 1254.97 43
2 0 -1 1366.16 43.3
-2 0 1 1281.17 42.7
-2 0 1 1255.57 43.5
2 0 -1 1354.16 43.1
-1 0 1 58.99 3.2
0 0 -1 5.6 0.6
1 0 1 43.2 2.5
1 0 1 50.69 3
-1 0 -1 45.6 3
-1 0 -1 46.3 2.5
1 0 1 43.2 2.7
2 0 1 1591.54 53.49
-2 0 -1 1587.34 54.39
2 0 1 1785.42 54.59
3 0 1 447.66 18.1
3 0 1 440.26 17
-3 0 -1 452.05 18.1
4 0 1 171.18 11
4 0 1 160.28 8.7
4 0 1 174.78 10
-4 0 -1 160.88 9.6
5 0 1 99.59 8.2
5 0 1 111.29 9.1
-5 0 -1 111.99 8.3
5 0 1 94.19 7
6 0 1 8.1 3.4
6 0 1 5.6 2.9
6 0 1 5 2.2
6 0 1 2.5 2.7
-6 0 -1 3 2
7 0 1 196.28 16
7 0 1 196.68 14.4
-7 0 -1 192.08 13.4
7 0 1 188.48 12.1
7 0 1 195.28 12.1
8 0 1 83.29 8.5
8 0 1 89.69 9.3
-8 0 -1 102.09 10.6
8 0 1 100.19 11
8 0 1 110.29 11.8
8 0 1 101.29 12.5
-9 0 -1 126.19 12.8
9 0 1 100.19 13.6
9 0 1 122.89 10.8
9 0 1 140.99 15.2
9 0 1 106.69 14.1
-10 0 -1 38.6 11
10 0 1 32.7 11
10 0 1 34.3 10.8
10 0 1 40.9 7.9
10 0 1 29.3 10.4
10 -1 -1 253.47 17.6
10 -1 -1 187.18 21.1
10 -1 -1 210.88 19.8
-10 -1 1 202.98 16.5
-10 1 1 217.18 17.2
10 1 -1 220.18 19.3
10 1 -1 211.78 20.4
10 1 -1 175.28 22
10 1 -1 216.08 15.2
9 -1 -1 100.59 14.3
-9 -1 1 80.49 9.8
9 -1 -1 104.89 12.5
9 -1 -1 97.49 10.6
9 1 -1 94.49 9
9 1 -1 68.69 11.6
9 1 -1 84.49 12.4
-9 1 1 88.79 10
9 1 -1 77.69 11.7
8 -1 -1 160.58 14.2
-8 -1 1 131.39 11.4
8 -1 -1 132.19 11.5
8 -1 -1 143.79 12.2
8 1 -1 131.29 13.8
8 1 -1 148.39 12.6
-8 1 1 140.89 11.4
8 1 -1 134.99 13.3
8 1 -1 157.58 10.6
7 -1 -1 42.6 7.2
7 -1 -1 47.7 6.6
-7 -1 1 44.5 6.3
7 1 -1 30.6 6.7
7 1 -1 50.09 8.3
7 1 -1 46.3 7.5
7 1 -1 43.3 5.3
-7 1 1 62.49 6.9
-6 -1 1 764.52 32.6
6 -1 -1 771.22 31.7
6 -1 -1 814.02 34.4
6 -1 -1 803.32 33.6
6 1 -1 788.52 33.8
-6 1 1 811.92 31.4
6 1 -1 779.92 30
6 1 -1 855.61 35.6
6 1 -1 836.02 33.3
-5 -1 1 725.73 29
5 -1 -1 655.03 29.4
5 -1 -1 685.03 27
5 -1 -1 684.23 31.6
-5 1 1 712.73 26.7
5 1 -1 730.63 29.3
5 1 -1 728.03 28.5
5 1 -1 651.63 29.7
4 -1 -1 899.51 31.1
4 -1 -1 939.41 34.6
4 -1 -1 882.91 32.9
-4 -1 1 818.22 33.2
-4 -1 1 894.31 33.4
4 1 -1 865.71 33.1
4 1 -1 834.12 32.2
-4 1 1 857.61 30.7
4 1 -1 861.21 34.3
-3 -1 1 1110.59 38.8
-3 -1 1 1093.49 37.8
3 -1 -1 1034.4 38.8
3 -1 -1 1060.39 35.7
3 -1 -1 1098.49 37.6
-3 1 1 1067.09 35.6
3 1 -1 1022.8 38.9
3 1 -1 1101.19 37.9
3 1 -1 1057.19 37.2
-2 -1 1 818.72 30.5
-2 -1 1 831.62 30.1
-2 -1 1 810.02 31.6
2 -1 -1 904.81 30.3
2 1 -1 952.8 30.9
2 1 -1 1012.7 30.8
-1 -1 1 2390.96 80.19
-1 -1 1 2466.05 79.99
1 -1 -1 2578.04 79.69
-1 -1 1 2587.14 78.89
1 1 -1 2511.45 78.79
-1 1 1 2560.44 79.69
1 1 -1 2544.45 80.39
1 1 -1 2578.84 79.99
0 -1 1 379.56 13.7
0 -1 1 380.66 13.5
0 -1 -1 399.86 13.6
0 -1 1 406.76 15.6
0 -1 1 387.86 14.6
0 -1 -1 408.46 15.3
0 -1 -1 404.06 15.5
0 -1 -1 373.56 14.1
0 1 -1 395.36 13.4
0 1 1 419.06 14.4
0 1 -1 409.16 13.9
0 1 1 445.66 15.6
0 1 -1 410.56 14.7
0 1 -1 453.65 15.8
0 1 1 431.96 15.4
1 -1 1 1033.2 35
-1 -1 -1 1098.69 33.8
-1 -1 -1 1048.2 34.4
-1 -1 -1 1091.19 36.5
1 -1 1 1029.5 34.5
-1 -1 -1 1030 35.8
1 -1 1 1001.8 35.1
1 1 1 1044.1 36.1
1 1 1 1134.29 36.7
-1 1 -1 1080.09 35
1 1 1 1134.09 36.7
1 1 1 1051.99 34
1 1 1 1106.29 33.9
1 1 1 1008.2 34.8
-2 -1 -1 2321.77 75.79
-2 -1 -1 2318.07 75.89
2 -1 1 2289.37 74.69
-2 -1 -1 2343.67 73.09
2 1 1 2231.48 74.39
2 1 1 2435.16 76.09
2 1 1 2234.58 72.79
3 -1 1 1004.1 34.9
3 -1 1 954.6 35.5
-3 -1 -1 981.1 36.5
3 1 1 1058.09 37
3 1 1 1016.9 37.4
3 1 1 1065.09 36.1
3 1 1 1006.2 33.7
-4 -1 -1 789.22 30.1
4 -1 1 756.02 29
4 -1 1 748.53 28.2
4 1 1 733.93 26.9
-4 1 -1 811.42 30.7
4 1 1 777.12 31.1
4 1 1 765.02 30.1
4 1 1 739.33 29.8
5 -1 1 1057.49 40.3
5 -1 1 1031 39.8
-5 -1 -1 1108.39 41.7
5 1 1 1124.39 41.9
5 1 1 1080.69 38.3
5 1 1 1067.59 41.5
-5 1 -1 1141.99 42.5
5 1 1 1158.78 43.6
6 -1 1 75.99 7.3
-6 -1 -1 86.79 8.2
6 -1 1 77.89 7.4
6 -1 1 65.19 8.4
6 1 1 79.99 8.2
-6 1 -1 82.39 8.6
6 1 1 87.29 8.5
6 1 1 85.29 9.2
6 1 1 72.59 6.1
7 -1 1 75.49 7.8
-7 -1 -1 70.59 8.1
7 -1 1 62.09 7.7
7 -1 1 78.69 9.4
7 1 1 96.79 15.5
7 1 1 55.79 11.4
7 1 1 69.89 9
7 1 1 68.89 6.5
-7 1 -1 78.09 8.9
7 1 1 67.19 8.3
8 -1 1 399.96 23.6
-8 -1 -1 405.46 22.4
8 -1 1 388.16 24
8 -1 1 405.26 21.2
8 -1 1 355.46 21.4
-8 1 -1 403.96 23.6
8 1 1 388.06 23.3
8 1 1 407.56 19
8 1 1 387.36 21.3
8 1 1 384.16 24.5
9 -1 1 19.8 7.1
-9 -1 -1 11.5 5.8
9 -1 1 11.4 8
9 -1 1 15.3 6.6
9 -1 1 13.3 5
9 1 1 8.9 7.1
9 1 1 14.6 4.5
9 1 1 18.7 6
9 1 1 2.3 13.3
-9 1 -1 16.3 6.9
9 1 1 11.8 7.3
10 -1 1 124.89 13
10 -1 1 148.29 18.5
-10 -1 -1 131.29 13.9
10 -1 1 130.09 16.5
10 -1 1 86.69 16
10 1 1 130.09 15
10 1 1 149.39 11.8
10 1 1 168.88 20.1
10 1 1 165.88 17.5
-10 1 -1 123.39 15.9
10 -2 -1 18.4 6.4
10 -2 -1 29.4 10.1
10 -2 -1 33.1 11.3
-10 -2 1 25.6 6.9
10 2 -1 26.9 5.2
10 2 -1 24.1 8.9
10 2 -1 24.6 9.5
9 -2 -1 499.35 29.8
9 -2 -1 495.45 29.7
9 -2 -1 583.94 29.2
9 2 -1 628.34 33.8
9 2 -1 548.85 30.5
9 2 -1 528.65 31.1
9 2 -1 592.54 24
-8 -2 1 16.9 5.2
8 -2 -1 16.9 5.1
8 -2 -1 13.8 4.5
8 -2 -1 20.8 6.4
8 2 -1 8 5.5
-8 2 1 15.6 5.9
8 2 -1 21.7 4.1
8 2 -1 20.2 6.4
-7 -2 1 1925.61 71.59
7 -2 -1 1937.81 71.19
7 -2 -1 1926.71 67.89
7 -2 -1 1999.2 73.39
7 2 -1 1860.11 70.59
7 2 -1 2018.9 75.79
7 2 -1 1951.2 65.19
6 -2 -1 225.88 11.5
-6 -2 1 200.18 13.9
6 -2 -1 218.38 13.6
6 -2 -1 218.38 15.2
-6 -2 1 238.48 15.3
6 2 -1 195.48 9.9
6 2 -1 234.38 14.5
6 2 -1 208.68 16
-6 2 1 190.18 12.7
6 2 -1 201.88 13.1
-5 -2 1 579.44 25.9
-5 -2 1 592.44 26.7
5 -2 -1 591.94 25
5 -2 -1 597.74 27.4
5 -2 -1 585.64 22.1
5 2 -1 585.94 21.1
5 2 -1 588.84 28.9
5 2 -1 577.84 24.8
5 2 -1 576.24 25.4
4 -2 -1 254.27 10.5
-4 -2 1 247.98 13.1
-4 -2 1 258.87 15
4 -2 -1 262.07 12.9
4 2 -1 270.17 13.5
4 2 -1 268.77 13.1
3 -2 -1 413.16 16.4
-3 -2 1 391.16 16.5
-3 -2 1 380.26 18.7
3 2 -1 412.26 17.2
3 2 -1 419.76 20.6
3 2 -1 415.06 16.9
2 -2 -1 828.82 28.5
-2 -2 1 750.12 31.5
-2 -2 1 807.22 29.2
2 -2 -1 861.91 31.5
2 2 -1 841.62 29.2
2 2 -1 905.41 34.1
2 2 -1 866.61 29.8
-1 -2 1 649.24 23.3
1 -2 -1 612.04 27.1
-1 -2 1 658.93 26.8
1 -2 -1 651.13 22.6
-1 -2 1 609.44 22.2
1 -2 -1 707.53 28.2
1 2 -1 681.13 25.6
1 2 -1 674.53 26.8
1 2 -1 633.24 22
1 2 -1 666.43 23.7
0 -2 -1 9688.23 304.77
0 -2 1 9535.15 304.87
0 -2 -1 9999 305.67
0 -2 1 9274.87 303.47
0 2 1 9827.72 304.87
-1 -2 -1 733.33 27.7
1 -2 1 750.92 24.7
1 -2 1 774.22 28.3
-1 -2 -1 742.73 24.9
-1 -2 -1 777.62 29.6
-1 -2 -1 786.42 29.1
1 -2 1 759.12 27.7
1 -2 1 737.03 26.5
1 2 1 751.12 29.3
1 2 1 758.22 28.3
1 2 1 707.33 25.3
-1 2 -1 757.52 27.9
1 2 1 765.02 25.3
1 2 1 747.53 28.9
2 -2 1 923.31 33.2
2 -2 1 919.51 33
-2 -2 -1 956.4 31.6
-2 -2 -1 908.81 34.2
-2 -2 -1 931.31 35.7
2 2 1 952.5 31.4
2 2 1 925.51 35.5
-2 2 -1 977.2 32.8
2 2 1 885.31 32.1
2 2 1 873.81 34.7
2 2 1 934.21 35.6
3 -2 1 188.38 9.4
3 -2 1 175.58 9.3
-3 -2 -1 161.38 9.3
3 2 1 194.08 11.9
3 2 1 197.38 9.2
3 2 1 186.78 11.8
-4 -2 -1 509.95 23.1
4 -2 1 505.35 21.9
4 -2 1 510.65 20.2
4 -2 1 523.15 20
4 2 1 501.55 24.3
4 2 1 509.55 17.9
4 2 1 516.65 21.2
4 2 1 519.15 24
5 -2 1 919.71 36.2
5 -2 1 939.71 34
5 -2 1 931.61 33.5
-5 -2 -1 949.4 37.7
5 2 1 889.91 31.7
5 2 1 944.41 39.7
5 2 1 901.91 35.5
5 2 1 960.6 42.7
-6 -2 -1 876.61 37.8
6 -2 1 933.61 35.1
6 -2 1 973.5 37.5
6 2 1 934.81 41.1
6 2 1 895.21 36.6
6 2 1 909.31 39
6 2 1 899.41 32.3
7 -2 1 1127.09 45.4
7 -2 1 1185.18 43.2
7 -2 1 1127.09 44.6
-7 -2 -1 1054.79 45.3
7 2 1 1118.39 44.7
7 2 1 1117.99 49.3
7 2 1 1126.79 46.5
7 2 1 1062.29 39.3
7 2 1 1115.19 46
8 -2 1 54.49 8.1
-8 -2 -1 60.69 8.9
8 -2 1 59.29 11.7
8 -2 1 56.79 8.2
8 -2 1 66.29 9.3
8 2 1 72.89 10.9
8 2 1 64.89 6.1
8 2 1 59.39 9.8
8 2 1 67.99 11.6
9 -2 1 498.55 37.7
9 -2 1 660.83 31.6
-9 -2 -1 644.14 32.5
9 -2 1 636.44 33.4
9 2 1 638.74 26.1
9 2 1 648.14 32.7
9 2 1 598.54 36
9 2 1 653.43 32.4
9 -3 -1 15.1 6.1
-9 -3 1 18.3 6.5
9 -3 -1 -1.5 5.7
9 -3 -1 19.7 7.6
9 3 -1 16.6 8.3
9 3 -1 9.9 8.2
9 3 -1 9 8.4
8 -3 -1 350.86 21.3
-8 -3 1 332.67 24.3
8 -3 -1 341.87 22.7
8 -3 -1 320.97 20.7
8 3 -1 342.37 21.8
8 3 -1 314.37 21.2
8 3 -1 339.47 24.5
7 -3 -1 74.69 8.9
-7 -3 1 104.39 10.8
7 -3 -1 83.69 11.3
7 -3 -1 54.19 9.7
7 3 -1 80.09 13.3
6 -3 -1 324.67 20
-6 -3 1 385.96 20.5
6 -3 -1 372.16 21.7
6 -3 -1 368.06 21.4
-6 -3 1 380.46 21.4
6 3 -1 359.86 19.9
6 3 -1 373.16 19.6
6 3 -1 364.06 23.8
-5 -3 1 1443.66 56.09
5 -3 -1 1403.16 57.09
5 -3 -1 1537.45 52.69
-5 -3 1 1473.25 53.49
5 3 -1 1446.36 53.39
5 3 -1 1399.26 59.19
5 3 -1 1503.25 53.29
-4 -3 1 1095.09 44.5
4 -3 -1 1132.59 40.2
-4 -3 1 1169.68 41.4
4 -3 -1 1083.99 43.3
4 3 -1 1124.49 41.3
4 3 -1 1126.99 47.6
4 3 -1 1122.09 41.3
3 -3 -1 1948.8 68.49
-3 -3 1 1931.41 68.89
3 -3 -1 1946.11 63.39
-3 -3 1 1901.31 64.29
3 3 -1 1947.01 71.69
3 3 -1 1909.51 70.29
3 3 -1 1860.41 64.29
2 -3 -1 872.81 31.4
2 -3 -1 900.01 37
2 -3 -1 925.01 36.8
-2 -3 1 931.71 33.3
-2 -3 1 925.71 37
2 3 -1 967.5 34.2
2 3 -1 959.5 37.9
2 3 -1 1025.5 39.9
2 3 -1 950.1 32.4
-1 -3 1 2240.88 74.09
1 -3 -1 2285.87 80.19
-1 -3 1 2278.57 76.69
1 -3 -1 2424.36 81.59
-1 -3 1 2274.47 81.79
1 -3 -1 2344.77 76.79
-1 3 1 2380.86 80.19
1 3 -1 2422.66 80.69
1 3 -1 2410.66 82.29
0 -3 1 675.33 27.7
0 -3 -1 667.13 23.9
0 -3 1 665.33 29
0 -3 -1 689.43 29.3
0 -3 1 664.83 25.5
0 -3 -1 663.03 25.9
0 -3 -1 662.43 28.1
0 3 1 702.73 28.9
0 3 1 700.23 28.4
0 3 -1 661.23 27.4
0 3 -1 685.83 28.7
-1 -3 -1 2372.16 81.59
1 -3 1 2390.06 79.59
-1 -3 -1 2370.26 84.49
1 -3 1 2458.65 82.39
1 -3 1 2429.56 83.39
-1 -3 -1 2333.37 77.69
-1 -3 -1 2442.16 83.69
-1 3 -1 2517.25 82.99
1 3 1 2497.45 84.69
1 3 1 2496.35 83.89
2 -3 1 826.82 33
-2 -3 -1 857.31 36.3
2 -3 1 868.91 33.1
2 -3 1 821.02 31.1
-2 -3 -1 817.42 32.9
2 -3 1 856.91 28.4
2 3 1 833.32 34.6
-2 3 -1 812.32 32
2 3 1 812.32 29.3
2 3 1 843.62 29.4
2 3 1 817.92 33.7
2 3 1 849.32 36.3
3 -3 1 926.11 37.1
3 -3 1 931.41 36.4
-3 -3 -1 931.41 40.5
-3 -3 -1 933.31 38.3
3 -3 1 937.61 37
-3 -3 -1 1009.8 35
3 3 1 1005.7 34.8
3 3 1 1067.49 41.5
3 3 1 1048.9 41.1
3 3 1 1013.9 40.3
3 3 1 999.5 35.6
4 -3 1 193.48 11.7
4 -3 1 174.78 11.4
4 -3 1 185.58 9.9
-4 -3 -1 181.58 10.8
-4 -3 -1 168.78 12.3
4 3 1 176.48 10.9
4 3 1 180.58 13.8
4 3 1 188.18 10.6
4 3 1 193.18 14.1
4 3 1 177.28 14.1
-5 -3 -1 1036.3 42.6
5 -3 1 989.4 39.2
5 -3 1 1006.3 40.8
5 -3 1 1008.5 37.2
5 3 1 1074.99 39.6
5 3 1 1090.49 45.9
5 3 1 1063.99 40.7
5 3 1 1104.19 41.2
5 3 1 1052.39 44.7
6 -3 1 89.29 9.4
6 -3 1 110.99 11.4
-6 -3 -1 107.69 10.6
6 -3 1 121.89 10.3
6 3 1 110.99 11.9
6 3 1 100.79 12.5
6 3 1 107.79 9.5
7 -3 1 114.19 10.9
7 -3 1 110.99 8.7
-7 -3 -1 105.29 11
7 -3 1 125.09 11.5
7 3 1 126.79 13.5
7 3 1 112.79 14.2
7 3 1 114.39 11.1
7 3 1 131.99 11.5
8 -3 1 247.78 20.9
-8 -3 -1 261.77 18.8
8 -3 1 266.07 18.7
8 -3 1 275.17 15.8
8 -3 1 255.67 17.8
8 3 1 258.27 18.4
8 3 1 252.97 20
8 3 1 283.77 19.9
8 3 1 256.37 22.5
8 3 1 270.97 18.7
9 -3 1 12.7 6.2
9 -3 1 12.5 5.5
-9 -3 -1 16.1 6.1
9 -3 1 17.2 8.2
9 -3 1 7 7.1
9 -3 1 19.7 6.2
9 3 1 16.8 6.4
9 3 1 8.4 6.4
9 3 1 30.7 9.8
9 3 1 19.6 8
9 -4 -1 28.5 7.1
9 -4 -1 19.9 9
-9 -4 1 23.4 7.6
9 -4 -1 13.6 10.9
9 4 -1 42.5 12.1
9 4 -1 9.7 14.1
8 -4 -1 25.6 7.1
8 -4 -1 26.4 7.2
-8 -4 1 36.4 8.7
8 -4 -1 5.7 7.6
8 4 -1 31.6 11.3
8 4 -1 26.7 9.7
8 4 -1 10.5 6.7
-7 -4 1 91.29 10.8
7 -4 -1 101.89 10.3
7 -4 -1 73.69 15
-7 -4 1 77.29 18.8
7 -4 -1 100.49 14.6
7 4 -1 79.89 10.8
7 4 -1 91.69 11.7
7 4 -1 108.79 14.7
-6 -4 1 46.8 8.5
6 -4 -1 61.59 7.3
6 -4 -1 59.29 11.3
-6 -4 1 47.3 7.6
6 4 -1 29.3 6.7
6 4 -1 49.5 7.4
6 4 -1 47.1 11
6 4 -1 40.4 10.1
5 -4 -1 23 8.4
-5 -4 1 20.5 6.3
-5 -4 1 17.4 4.4
5 -4 -1 22.2 4.3
5 4 -1 34.3 6
5 4 -1 26.1 5.2
5 4 -1 26.8 8
5 4 -1 24.4 8.1
-4 -4 1 118.29 11
-4 -4 1 129.49 8.7
4 -4 -1 116.39 13.1
4 -4 -1 119.39 7.8
4 4 -1 120.59 9.2
4 4 -1 126.99 8.9
4 4 -1 125.19 12.8
4 4 -1 121.59 13.1
3 -4 -1 65.79 4.6
-3 -4 1 66.39 8
3 -4 -1 63.59 9.2
3 -4 -1 70.69 9
-3 -4 1 61.89 5.5
3 4 -1 54.39 6
3 4 -1 75.19 9.8
3 4 -1 68.79 5.6
3 4 -1 76.09 10.6
-2 -4 1 72.89 8
-2 -4 1 60.09 5.3
2 -4 -1 63.09 5.4
2 -4 -1 68.99 9.5
2 -4 -1 69.79 8.2
2 4 -1 78.09 9.6
2 4 -1 65.39 8.2
2 4 -1 64.99 6.2
2 4 -1 76.39 6.9
-1 -4 1 408.46 21.6
1 -4 -1 384.66 22.2
-1 -4 1 358.46 22.4
-1 -4 1 411.46 15.3
1 -4 -1 416.16 21.6
1 -4 -1 406.56 18.2
-1 -4 1 423.16 17.8
1 4 -1 421.06 21.6
1 4 -1 444.36 23.3
-1 4 1 417.36 21.3
0 -4 -1 163.38 12.7
0 -4 1 169.38 12.3
0 -4 -1 161.98 8.7
0 -4 -1 164.78 10.5
0 -4 1 189.28 14.6
0 -4 -1 141.69 13.7
0 -4 1 163.98 9.9
0 -4 1 169.68 8.7
0 4 -1 160.48 11.9
0 4 -1 174.98 13
0 4 1 177.68 12.6
0 4 1 166.28 12.8
1 -4 1 409.96 17.3
-1 -4 -1 397.66 22.9
-1 -4 -1 404.16 19.5
-1 -4 -1 413.26 21.7
1 -4 1 355.86 21.1
1 -4 1 401.86 20.6
-1 -4 -1 383.16 15.6
1 4 1 415.36 21.6
1 4 1 390.06 21.8
-1 4 -1 406.06 20.9
-2 -4 -1 30.5 3.3
-2 -4 -1 40.2 6.9
-2 -4 -1 25.7 7.8
2 -4 1 47.2 8.8
2 -4 1 44.8 7.5
2 -4 1 41.7 7.2
2 4 1 30.3 3.4
2 4 1 32 3.9
-2 4 -1 37.6 6.7
2 4 1 24.7 6.1
2 4 1 41 7.6
-3 -4 -1 2.3 1.6
3 -4 1 4 3.9
-3 -4 -1 2.4 6.1
3 -4 1 2 2.1
-3 -4 -1 3 2.7
3 -4 1 13.3 5.5
3 -4 1 0.7 1.3
3 4 1 1.4 1.6
3 4 1 4.5 3.4
3 4 1 2.2 3.3
3 4 1 1.7 2
3 4 1 1.6 1.7
4 -4 1 298.07 18.2
4 -4 1 283.37 16
-4 -4 -1 289.17 14.5
4 -4 1 239.68 24.5
4 -4 1 276.27 13.5
4 -4 1 278.07 13.6
-4 -4 -1 299.97 18
4 -4 1 298.37 14.8
4 4 1 267.27 19.2
4 4 1 284.37 14.6
4 4 1 256.17 14.5
4 4 1 324.37 20.8
4 4 1 300.07 15.3
5 -4 1 7.3 3.1
5 -4 1 3.8 2.4
-5 -4 -1 3.3 3.4
5 -4 1 7.7 2.7
-5 -4 -1 7.2 3.3
5 4 1 5.5 3.6
5 4 1 1.4 2.8
5 4 1 5.5 5.2
5 4 1 5.6 3.2
5 4 1 4.8 4.4
-6 -4 -1 78.39 9.9
6 -4 1 74.39 8.7
6 -4 1 67.19 7.9
6 -4 1 80.09 6.6
6 4 1 82.49 8.8
6 4 1 73.79 12.4
6 4 1 70.19 8.4
6 4 1 78.29 13.5
-7 -4 -1 96.79 11.2
7 -4 1 95.39 9.8
7 -4 1 97.19 10.3
7 -4 1 97.79 10.6
7 -4 1 86.69 7.5
7 -4 1 102.09 14.4
7 4 1 55.19 11.2
7 4 1 70.49 10.3
7 4 1 96.79 10.4
7 4 1 94.99 13.3
8 -4 1 50.49 9.4
-8 -4 -1 67.79 10
8 -4 1 67.99 10.9
8 -4 1 75.29 10.9
8 -4 1 83.69 8.4
8 4 1 46.8 10.1
8 4 1 45.5 11.5
8 4 1 73.29 13.2
8 4 1 50.09 12.7
8 4 1 64.49 10.7
8 -5 -1 -3.3 9.4
8 -5 -1 -3.5 5.3
-8 -5 1 9.4 5.3
8 -5 -1 7.7 6.1
8 5 -1 5.1 9.3
8 5 -1 0.1 4.8
8 5 -1 7.6 7.9
8 5 -1 15.3 9.7
8 5 -1 -5.8 6.7
7 -5 -1 14.1 5.4
7 -5 -1 13.6 5.9
-7 -5 1 7 4.6
-7 -5 1 11.9 6.2
7 -5 -1 18.1 7.4
7 5 -1 15.1 7.9
7 5 -1 8 7.4
7 5 -1 19.4 7.3
7 5 -1 9.6 6.6
7 5 -1 13.6 5.7
-6 -5 1 154.88 12.4
6 -5 -1 152.58 17.5
-6 -5 1 144.09 14.5
6 -5 -1 128.09 10.2
6 5 -1 137.59 11.6
6 5 -1 120.29 16.2
6 5 -1 175.08 18.8
6 5 -1 156.28 12.9
-5 -5 1 57.09 10.4
-5 -5 1 51.69 6.9
5 -5 -1 61.19 11.2
5 -5 -1 50.59 5.9
5 -5 -1 69.79 25.6
5 5 -1 74.09 14.6
5 5 -1 68.69 8.7
5 5 -1 80.99 14.4
5 5 -1 58.39 7.1
4 -5 -1 123.79 7.7
-4 -5 1 146.19 13.2
-4 -5 1 115.49 8.7
4 -5 -1 109.59 13.8
4 -5 -1 115.19 16.4
4 5 -1 143.09 15.5
4 5 -1 103.89 9.8
4 5 -1 112.29 8.7
4 5 -1 124.99 8.6
4 5 -1 146.89 14.9
3 -5 -1 26.1 4.3
-3 -5 1 28.9 4.9
3 -5 -1 24 6.7
-3 -5 1 23.1 5.6
3 -5 -1 11.8 9.3
3 5 -1 25.3 7
3 5 -1 28.3 5.3
3 5 -1 35.9 4.4
3 5 -1 40.6 8.9
2 -5 -1 146.49 17.9
2 -5 -1 177.98 10.8
2 -5 -1 189.88 15.3
-2 -5 1 190.68 14.2
-2 -5 1 168.58 10.5
2 5 -1 179.88 15
2 5 -1 180.58 16.1
1 -5 -1 149.49 14.1
1 -5 -1 175.68 11.2
1 -5 -1 162.38 10
1 -5 -1 156.68 17.9
-1 -5 1 169.58 8.2
-1 -5 1 173.68 12.1
-1 -5 1 164.18 12.9
1 5 -1 173.78 14.1
1 5 -1 153.38 14.3
-1 5 1 167.58 13.6
0 -5 1 618.34 34
0 -5 -1 702.53 25.6
0 -5 1 654.43 25
0 -5 1 649.93 29.6
0 -5 -1 652.63 32.2
0 -5 -1 615.84 35.3
0 -5 1 660.33 31.7
0 5 1 663.13 31.5
0 5 -1 659.93 32.5
0 5 -1 597.04 35.6
0 5 1 630.44 31.8
-1 -5 -1 13.9 10.1
1 -5 1 39 7.8
-1 -5 -1 35.8 3.9
-1 -5 -1 22.2 5.6
1 -5 1 44.2 11.1
-1 -5 -1 23 5.2
1 -5 1 27.7 5.6
1 -5 1 24.9 4.7
-1 5 -1 34.2 7.8
1 5 1 26.2 7.5
1 5 1 28.1 6.8
2 -5 1 106.79 14.4
2 -5 1 120.49 12.3
-2 -5 -1 100.19 10
-2 -5 -1 110.69 6.9
2 -5 1 110.69 8.8
2 5 1 119.29 12.9
-2 5 -1 111.89 10.7
2 5 1 128.59 12.6
3 -5 1 188.78 18.6
-3 -5 -1 253.67 11.9
3 -5 1 216.88 16.8
3 -5 1 240.48 14.2
-3 -5 -1 218.08 15.7
3 5 1 248.58 19.2
3 5 1 228.38 17.9
3 5 1 229.78 11.5
3 5 1 211.48 10.9
4 -5 1 295.97 13
4 -5 1 265.97 12.4
4 -5 1 240.58 19
-4 -5 -1 257.67 16.2
-4 -5 -1 283.17 18.5
4 -5 1 208.78 20.9
4 -5 1 297.17 16.9
4 5 1 274.67 14.6
4 5 1 278.17 21.2
4 5 1 253.27 13.6
4 5 1 251.57 20
4 5 1 285.57 14.9
-5 -5 -1 533.45 28.3
5 -5 1 548.35 25.2
5 -5 1 476.95 34.5
-5 -5 -1 527.75 24.1
5 -5 1 510.05 22.1
5 -5 1 532.15 26.1
5 -5 1 482.55 21.6
5 -5 1 468.65 33.5
5 5 1 496.95 23.2
5 5 1 478.75 23.4
5 5 1 516.85 31.8
5 5 1 532.15 31.6
-6 -5 -1 139.69 13.9
6 -5 1 144.69 9
6 -5 1 135.89 10.5
6 -5 1 154.68 10.9
6 -5 1 145.79 19.3
6 -5 1 140.59 12.9
6 5 1 109.79 15.9
6 5 1 139.09 11.8
6 5 1 145.39 12.7
6 5 1 180.28 17.9
7 -5 1 16 5.6
-7 -5 -1 20.8 7.3
7 -5 1 23 5.4
7 -5 1 35.4 7.9
7 5 1 23 11.3
7 5 1 14.7 5.3
7 5 1 16.5 8.9
7 5 1 31.9 9.1
8 -5 1 163.98 15.8
8 -5 1 166.28 14.3
8 -5 1 197.38 16
-8 -5 -1 203.38 18
8 5 1 183.68 21.8
8 5 1 196.48 16.3
8 5 1 162.28 19.7
8 5 1 205.88 20.5
8 5 1 154.48 19.2
-7 -6 1 782.32 41.2
7 -6 -1 812.92 33.8
7 -6 -1 845.52 39.7
7 -6 -1 745.03 33.1
7 6 -1 769.72 36.1
7 6 -1 797.62 46.9
7 6 -1 774.72 47.9
7 6 -1 789.12 39.7
7 6 -1 770.12 37.4
-6 -6 1 66.99 8.7
6 -6 -1 62.99 7.2
6 -6 -1 49 8.6
6 -6 -1 67.79 7.5
-6 -6 1 85.89 12.2
6 6 -1 53.49 13.2
6 6 -1 66.19 9
6 6 -1 58.19 9
6 6 -1 65.19 19.8
5 -6 -1 458.85 19.1
-5 -6 1 445.66 27.2
5 -6 -1 459.55 25.1
5 -6 -1 373.06 30.1
-5 -6 1 452.25 22.1
5 6 -1 392.26 23.1
5 6 -1 455.95 30.9
5 6 -1 409.46 19.9
5 6 -1 458.75 31.9
-4 -6 1 523.15 23.8
4 -6 -1 574.24 27.6
-4 -6 1 567.94 30.8
4 -6 -1 502.35 32.5
4 6 -1 545.25 33.2
3 -6 -1 94.79 13.8
3 -6 -1 99.39 8
-3 -6 1 98.49 11.6
-3 -6 1 88.49 7.7
3 6 -1 93.29 12.6
3 6 -1 104.19 14.5
-2 -6 1 1095.69 40.5
2 -6 -1 999 48.4
2 -6 -1 1086.89 41.4
-2 -6 1 1041.4 46.3
2 6 -1 1107.69 51.69
2 6 -1 1101.29 49.2
-1 -6 1 6 2.9
1 -6 -1 13.4 7.6
-1 -6 1 3.6 1.8
1 -6 -1 3.6 2.9
-1 -6 1 0.5 2.9
1 -6 -1 6.4 3.2
-1 6 1 5.1 4.2
1 6 -1 -1.5 3.4
1 6 -1 0.5 3.1
0 -6 -1 2396.56 95.59
0 -6 1 2331.67 102.69
0 -6 -1 2544.85 90.39
0 -6 1 2643.54 88.49
0 -6 -1 2655.03 86.09
0 -6 1 2590.84 92.39
0 -6 -1 2691.23 88.19
0 -6 1 2578.24 86.09
0 6 -1 2583.74 96.89
0 6 1 2627.24 96.89
0 6 -1 2552.04 94.29
-1 -6 -1 19.4 3.5
-1 -6 -1 14.1 4.6
-1 -6 -1 14.5 3.2
1 -6 1 23.4 5.4
-1 -6 -1 18.2 8
1 -6 1 14.5 3.8
1 -6 1 23 6
1 6 1 28.2 7.6
1 6 1 16.7 6.1
-1 6 -1 21.2 7.3
2 -6 1 805.52 33.4
-2 -6 -1 792.92 36.7
2 -6 1 762.42 44.4
2 -6 1 793.32 34.8
-2 -6 -1 787.92 30
-2 6 -1 837.52 38.6
2 6 1 828.42 40.4
2 6 1 867.21 42.6
3 -6 1 48.8 10.9
3 -6 1 65.19 9.2
-3 -6 -1 55.89 10.2
3 6 1 72.99 14.2
3 6 1 47.3 10.5
4 -6 1 148.09 12.7
-4 -6 -1 158.98 10.5
4 -6 1 140.29 18.1
-4 -6 -1 167.88 15
4 6 1 158.68 17.2
4 6 1 175.08 11.6
4 6 1 157.08 17.6
4 6 1 159.78 10.5
-5 -6 -1 218.38 13.8
5 -6 1 228.08 22.6
-5 -6 -1 205.28 17.3
5 -6 1 232.58 11.7
5 -6 1 198.68 12.1
5 -6 1 174.28 14.9
5 6 1 189.58 19.7
5 6 1 198.58 14.2
5 6 1 185.38 19.4
5 6 1 195.08 12.5
6 -6 1 204.08 12.9
6 -6 1 246.38 28.4
6 -6 1 234.68 13.8
6 -6 1 219.18 17.2
-6 -6 -1 212.98 18.6
6 6 1 215.98 14.8
6 6 1 234.18 17.6
6 6 1 220.48 16.7
6 6 1 235.28 22.6
6 6 1 277.07 38.6
5 -7 -1 305.37 20.7
-5 -7 1 325.87 18.5
-5 -7 1 301.17 23.2
5 7 -1 309.77 27.8
5 7 -1 318.37 27.7
4 -7 -1 412.46 23.4
-4 -7 1 410.96 26.5
4 -7 -1 325.77 35.5
-4 -7 1 399.26 19.9
4 7 -1 377.06 31
4 7 -1 420.26 31.6
-3 -7 1 319.97 22.9
-3 -7 1 327.27 17.3
3 -7 -1 295.37 29.8
3 -7 -1 343.07 20.3
3 -7 -1 361.56 18.1
3 7 -1 334.17 25.8
3 7 -1 368.46 28.4
-2 -7 1 550.94 31
-2 -7 1 579.04 25.2
2 -7 -1 587.44 27.2
2 -7 -1 590.54 26.6
2 -7 -1 498.35 35.6
2 -7 -1 563.04 26.3
2 7 -1 548.35 33.5
2 7 -1 607.14 36.6
1 -7 -1 263.07 15.5
-1 -7 1 250.27 18.7
-1 -7 1 260.37 15.2
1 -7 -1 269.17 15
1 -7 -1 272.77 17
-1 -7 1 252.97 12
1 -7 -1 256.37 25
1 7 -1 258.77 21.2
1 7 -1 275.07 23.1
0 -7 -1 16.2 4
0 -7 -1 16.7 3.9
0 -7 1 14.6 4.4
0 -7 1 10.3 3.1
0 -7 1 11.8 5.1
0 -7 -1 16.4 11.9
0 -7 -1 22.9 6.3
0 7 1 16.6 7.2
0 7 -1 10.3 10
-1 -7 -1 885.61 32.4
-1 -7 -1 884.01 40
1 -7 1 862.41 46.4
-1 -7 -1 888.91 33.5
1 -7 1 910.11 40
1 -7 1 901.81 37.6
1 -7 1 908.91 35.8
-1 7 -1 862.51 43.7
1 7 1 867.81 45.6
-2 -7 -1 86.79 7.1
2 -7 1 70.09 15.4
-2 -7 -1 87.19 10.9
2 -7 1 83.39 10.2
2 -7 1 101.39 10.7
2 -7 1 96.59 9.5
2 7 1 105.09 14.7
2 7 1 88.49 13.6
-3 -7 -1 802.62 38.1
3 -7 1 707.33 42
-3 -7 -1 737.73 29.4
3 -7 1 733.13 33.7
3 -7 1 751.32 33.5
3 7 1 732.83 41.1
3 7 1 778.72 43.8
4 -7 1 71.19 19.2
-4 -7 -1 58.99 10.2
4 -7 1 72.69 9.1
4 -7 1 91.19 10.7
-4 -7 -1 72.69 7.8
4 7 1 85.89 17
4 7 1 71.99 16.1
-5 -7 -1 612.44 28
-5 -7 -1 602.14 34
5 -7 1 650.63 32.1
5 7 1 553.74 25.1
5 7 1 602.24 39.1
5 7 1 591.44 25.9
5 7 1 656.33 40.2
-2 -8 1 160.18 16.6
-2 -8 1 158.68 11.7
2 -8 -1 165.58 13
2 -8 -1 163.98 13.7
2 -8 -1 175.08 13.1
2 8 -1 152.88 18.8
2 8 -1 160.88 20.4
1 -8 -1 4.7 3.9
-1 -8 1 0.3 3.2
1 -8 -1 -2.5 3.3
1 -8 -1 3.4 3.8
-1 -8 1 5.6 5.2
1 8 -1 -1.6 5.9
0 -8 1 158.28 10.4
0 -8 -1 163.08 10.8
0 -8 1 146.99 12
0 -8 -1 133.79 10.1
0 -8 -1 135.29 13.1
0 -8 1 122.39 13.8
0 8 1 141.49 17.6
0 8 -1 144.29 18
1 -8 1 4.2 3.9
1 -8 1 2.7 3.3
1 -8 1 -1.2 4
-1 -8 -1 1.2 2.6
-1 8 -1 3.2 5.8
1 8 1 3.8 5.5
-2 -8 -1 19.7 4.2
2 -8 1 11.2 4.9
2 -8 1 10.3 4.9
-2 -8 -1 12 5.5
2 -8 1 10 4.9
2 8 1 20.4 7.8
2 8 1 12.8 7.9
10 0 -2 18.1 6.1
10 0 -2 -12.6 16
-10 0 2 19.9 5.8
10 0 -2 24.1 9.9
-9 0 2 719.93 32.3
9 0 -2 680.23 34.6
9 0 -2 744.13 38.8
9 0 -2 792.42 33.5
8 0 -2 320.27 19.9
-8 0 2 266.07 15.9
7 0 -2 2315.37 81.09
-7 0 2 2159.88 76.89
6 0 -2 2.1 2.7
-6 0 2 2.5 2
6 0 -2 4.4 3
-5 0 2 358.16 16.4
5 0 -2 382.36 17.9
5 0 -2 351.66 17.8
-4 0 2 2320.37 82.79
-4 0 2 2505.35 80.59
4 0 -2 2494.15 81.99
3 0 -2 35.6 3.8
3 0 -2 31.7 3.3
-3 0 2 33.5 3.7
-3 0 2 31.4 3.3
-2 0 2 4335.07 141.79
2 0 -2 4620.74 141.99
1 0 -2 978 32.6
-1 0 2 967.1 32.1
-1 0 2 943.61 32.5
1 0 -2 1026.7 32.3
0 0 -2 4372.86 155.28
0 0 2 4323.07 155.48
-1 0 -2 785.22 26.5
-1 0 -2 740.63 27.8
1 0 2 776.92 25.9
1 0 2 792.62 26.6
-1 0 -2 793.92 26
1 0 2 782.02 27.3
-2 0 -2 1896.21 60.19
2 0 2 1815.82 60.09
2 0 2 1861.51 61.09
-2 0 -2 1838.42 62.19
3 0 2 197.98 9.4
3 0 2 194.08 10.3
-3 0 -2 194.18 9.4
-3 0 -2 202.98 10.9
3 0 2 204.78 10.3
4 0 2 1969 65.99
-4 0 -2 1984.8 68.49
5 0 2 137.89 8.6
5 0 2 127.19 10.5
5 0 2 138.79 9.9
6 0 2 2065.39 70.69
-6 0 -2 2058.29 74.09
6 0 2 2072.79 73.69
6 0 2 2041.2 74.79
7 0 2 444.56 24
-7 0 -2 452.35 23.8
7 0 2 415.26 23.1
7 0 2 436.06 20.6
8 0 2 666.53 28.4
8 0 2 639.64 31.5
8 0 2 609.74 31.4
-8 0 -2 628.74 31.8
8 0 2 629.24 31.9
9 0 2 424.86 21.7
-9 0 -2 412.26 25.6
9 0 2 431.16 26.5
9 0 2 404.06 24.8
9 0 2 402.46 25.6
9 0 2 359.66 24.2
10 0 2 21.5 10.2
10 0 2 18.1 10.4
10 0 2 17.8 5.6
10 0 2 20.3 7.4
10 0 2 24.2 10.8
-10 0 -2 12.2 6.8
10 -1 -2 76.39 12.1
10 -1 -2 75.09 13.6
-10 -1 2 103.99 19
10 -1 -2 105.09 12
10 1 -2 108.79 15.3
10 1 -2 58.99 12.2
10 1 -2 89.19 14.6
-10 1 2 74.29 10.3
10 1 -2 88.09 10.4
9 -1 -2 157.38 13.4
9 -1 -2 116.69 14.1
-9 -1 2 143.79 12.5
9 -1 -2 152.58 16.3
9 1 -2 133.09 15.8
-9 1 2 146.69 12.1
9 1 -2 169.68 17.5
9 1 -2 148.59 14.4
9 1 -2 137.49 11.1
-8 -1 2 73.99 8.6
8 -1 -2 76.79 10.7
-8 1 2 77.59 8
8 1 -2 79.79 11.2
8 1 -2 97.29 10.4
8 1 -2 76.89 7.8
-7 -1 2 236.28 14.7
7 -1 -2 239.08 16.2
-7 1 2 255.37 13.5
7 1 -2 227.48 16
7 1 -2 233.38 15.4
6 -1 -2 570.34 26
-6 -1 2 562.24 25.4
-6 1 2 571.54 22.9
6 1 -2 564.44 25.5
6 1 -2 569.74 26.3
-5 -1 2 230.38 14.1
5 -1 -2 239.88 13.6
-5 -1 2 233.68 13.5
5 1 -2 246.78 13.4
-5 1 2 253.67 11.4
5 1 -2 245.78 13.9
-4 -1 2 3673.83 124.49
-4 -1 2 3572.24 124.69
4 -1 -2 3987.7 124.49
4 -1 -2 3713.53 124.79
-4 1 2 3813.52 121.19
4 1 -2 3994.6 124.19
4 1 -2 3966.8 124.79
3 -1 -2 749.62 26.5
-3 -1 2 693.33 26.2
-3 -1 2 701.23 27.6
3 -1 -2 720.33 26.9
-3 -1 2 674.73 26.4
3 1 -2 724.73 26.7
-3 1 2 698.83 26.1
-2 -1 2 2521.65 85.29
2 -1 -2 2766.42 85.49
2 -1 -2 2713.13 85.19
-2 1 2 2569.34 84.89
2 1 -2 2706.43 85.39
2 1 -2 2603.54 85.29
1 -1 -2 2374.06 75.69
-1 -1 2 2329.57 75.89
1 -1 -2 2353.46 75.19
-1 -1 2 2451.35 75.09
1 1 -2 2389.06 76.59
-1 1 2 2323.47 75.59
1 1 -2 2368.86 74.89
-1 1 2 2463.35 74.59
1 1 -2 2326.57 75.89
0 -1 2 358.46 13.8
0 -1 -2 365.96 14.1
0 -1 2 367.56 12.7
0 -1 -2 367.76 13.2
0 -1 2 339.27 12.7
0 -1 -2 354.06 12.9
0 1 -2 354.66 12.7
0 1 -2 355.26 12.9
0 1 2 338.57 12.8
0 1 2 352.96 13.9
0 1 2 361.86 13.2
0 1 -2 338.47 12.7
-1 -1 -2 3845.62 121.69
1 -1 2 3863.11 122.39
-1 -1 -2 3790.92 122.69
-1 -1 -2 4045 124.09
-1 -1 -2 3952 123.99
1 1 2 3938.81 123.89
1 1 2 4001 123.89
1 1 2 3746.73 121.79
-1 1 -2 3960.7 122.49
-1 1 -2 3866.51 122.29
1 1 2 3819.22 122.69
-1 1 -2 3759.62 122.69
2 -1 2 575.94 21.6
-2 -1 -2 558.54 21.1
2 -1 2 541.25 20.3
-2 -1 -2 542.15 21.3
2 -1 2 533.45 20.4
-2 -1 -2 560.54 19.1
2 1 2 552.24 20.7
2 1 2 549.05 20.5
-2 1 -2 534.35 20.5
2 1 2 529.55 18.9
2 1 2 560.24 21
3 -1 2 912.51 31.4
3 -1 2 832.62 31.1
-3 -1 -2 811.72 32
3 -1 2 833.12 31.3
-3 -1 -2 871.61 29.7
3 1 2 867.81 31.8
3 1 2 875.41 31.4
3 1 2 869.61 32.9
3 1 2 858.91 31.8
-3 1 -2 869.91 34.1
-4 -1 -2 1374.06 49.5
4 -1 2 1385.46 47.9
4 -1 2 1358.46 48.1
4 1 2 1357.66 50.29
4 1 2 1395.56 48.3
4 1 2 1363.36 46
-4 1 -2 1396.56 51.59
4 1 2 1349.36 49.6
4 1 2 1348.86 49.1
-5 -1 -2 929.21 36.4
5 -1 2 867.01 34.5
5 -1 2 914.31 34.7
-5 1 -2 1005 39
5 1 2 847.42 32.4
5 1 2 904.41 36
5 1 2 915.71 34.6
5 1 2 896.51 37.3
6 -1 2 135.99 9.8
-6 -1 -2 148.49 11.2
6 -1 2 123.49 9.6
6 1 2 136.59 10.7
6 1 2 131.49 9.7
-6 1 -2 138.99 12.1
6 1 2 137.49 8.7
6 1 2 123.19 11.2
-7 -1 -2 23.3 5.7
7 -1 2 18.4 4.3
7 -1 2 37 6.6
7 1 2 16.8 4.7
7 1 2 18.3 4.1
7 1 2 18.3 5.7
7 1 2 18.1 5.5
-7 1 -2 31.1 7.9
7 1 2 24.2 5.3
8 -1 2 358.86 19.8
8 -1 2 374.76 22.1
-8 -1 -2 381.46 22.2
8 -1 2 390.76 22.4
8 1 2 321.17 22.7
8 1 2 378.16 22.7
8 1 2 361.46 19.3
8 1 2 344.77 21.7
8 1 2 376.36 18.2
8 1 2 347.97 21.2
-8 1 -2 369.16 23.8
9 -1 2 33.4 9.2
9 -1 2 42.8 9
9 -1 2 54.59 10.3
-9 1 -2 59.39 12.1
9 1 2 50.69 7.5
9 1 2 53.09 11.3
9 1 2 54.59 11.4
9 1 2 33.4 7.5
9 1 2 44.6 9.4
-10 -1 -2 131.49 15.2
10 -1 2 169.68 23.3
10 -1 2 125.39 14.7
10 -1 2 120.69 12.4
10 -1 2 126.09 16.9
10 1 2 100.29 14.3
10 1 2 180.88 29.3
10 1 2 116.99 14.6
10 1 2 111.69 10.9
-10 1 -2 114.09 20.2
10 1 2 136.29 18.3
10 -2 -2 8.7 9.1
10 -2 -2 13.5 5.3
-10 -2 2 2.3 4.3
10 -2 -2 4.9 15.8
10 2 -2 0 8.9
10 2 -2 11.8 8.7
10 2 -2 14.5 4.5
9 -2 -2 65.19 11.3
-9 -2 2 46.1 9.1
9 -2 -2 36.8 8.4
9 -2 -2 78.69 12.1
9 2 -2 66.39 7.2
9 2 -2 49.99 8.4
9 2 -2 50.89 10.8
9 2 -2 63.39 12.9
-9 2 2 45.4 10.1
8 -2 -2 27.8 8.9
-8 -2 2 19.5 5.4
8 2 -2 20 4.1
-8 2 2 20.8 5.6
8 2 -2 24.5 6.2
8 2 -2 24.1 7.6
7 -2 -2 40.2 7.5
7 -2 -2 30.4 5.8
-7 -2 2 36.7 6.5
7 2 -2 44.6 4.8
-7 2 2 31.3 5.9
7 2 -2 39.5 9.2
-6 -2 2 97.19 9.4
-6 -2 2 91.59 9.2
6 -2 -2 102.09 9
6 -2 -2 102.09 9.8
6 2 -2 89.39 8.7
-6 2 2 73.09 7
6 2 -2 96.29 9.9
6 2 -2 103.69 11.9
5 -2 -2 51.59 6.6
-5 -2 2 47.7 5.9
-5 -2 2 47.2 6.4
5 -2 -2 46 5.8
5 2 -2 50.09 5.9
5 2 -2 49.8 6.1
-4 -2 2 80.69 6.4
4 -2 -2 68.39 6.7
4 -2 -2 71.69 6.1
-4 -2 2 81.29 8.2
4 2 -2 78.39 6.7
4 2 -2 76.09 6.4
-3 -2 2 187.18 9.8
-3 -2 2 188.18 9.6
3 -2 -2 169.68 10.2
3 -2 -2 179.78 9.2
-3 -2 2 181.28 11.4
3 2 -2 171.38 11.6
3 2 -2 173.28 9.6
-2 -2 2 116.59 6.6
-2 -2 2 132.29 7.1
2 -2 -2 121.89 6.3
2 2 -2 121.49 7.2
2 2 -2 105.69 9.2
2 2 -2 126.79 6.7
-2 2 2 107.39 6
-1 -2 2 459.55 18
1 -2 -2 477.25 19.6
1 -2 -2 494.15 20.1
-1 -2 2 463.75 16.7
1 -2 -2 462.55 16.4
-1 -2 2 445.06 15.7
1 -2 -2 455.25 16
1 2 -2 452.25 16
1 2 -2 455.45 19.1
1 2 -2 447.46 16.5
1 2 -2 471.15 20.9
1 2 -2 472.65 18.4
-1 2 2 423.96 17.6
0 -2 2 163.48 7.5
0 -2 2 167.58 8.8
0 -2 2 178.28 9
0 -2 -2 176.38 8.2
0 -2 -2 195.18 10.3
0 -2 -2 193.88 10.6
0 -2 -2 168.28 7.3
0 -2 2 173.58 7.1
0 2 2 176.18 8.6
0 2 2 177.58 7.3
0 2 -2 166.28 10.1
0 2 -2 165.38 7.7
0 2 -2 167.48 6.8
0 2 -2 167.28 8.9
0 2 2 178.68 10
-1 -2 -2 375.86 17.4
-1 -2 -2 373.06 17
1 -2 2 393.76 15.6
1 -2 2 356.56 14.8
-1 -2 -2 334.87 15.4
-1 -2 -2 383.06 13.6
-1 -2 -2 384.06 14.5
1 -2 2 381.66 16.4
1 2 2 385.76 16.4
-1 2 -2 377.46 16.1
-1 2 -2 380.16 15.1
1 2 2 365.46 14.1
1 2 2 383.16 17.1
1 2 2 386.46 17.3
2 -2 2 364.56 15.7
-2 -2 -2 368.66 17.9
2 -2 2 389.56 16.1
-2 -2 -2 374.36 16.9
-2 -2 -2 374.76 13.4
2 -2 2 361.66 14.8
2 2 2 374.16 17.9
2 2 2 410.36 18.2
2 2 2 403.56 14
-2 2 -2 387.26 15.5
2 2 2 392.66 14
2 2 2 386.96 17.7
2 2 2 371.76 15.4
3 -2 2 258.37 13
-3 -2 -2 259.37 14.5
-3 -2 -2 272.77 10.4
-3 -2 -2 276.97 14.1
3 -2 2 272.47 13.3
3 -2 2 257.97 11.6
3 -2 2 266.17 12.3
3 2 2 253.47 10.2
3 2 2 267.97 15.2
3 2 2 256.87 12.8
3 2 2 269.57 11.7
3 2 2 275.57 14.7
4 -2 2 41.9 4.3
4 -2 2 38.8 4.6
4 -2 2 29 4.3
-4 -2 -2 41.6 5.4
4 2 2 27.8 4.8
4 2 2 28.8 2.8
4 2 2 46 4.6
4 2 2 42.5 5.1
4 2 2 33.2 5.7
5 -2 2 58.19 5.6
-5 -2 -2 56.99 6.8
5 -2 2 56.59 6.3
5 2 2 59.49 7.2
5 2 2 61.89 8
5 2 2 56.09 4.4
5 2 2 61.89 6.2
5 2 2 43.6 7.1
6 -2 2 242.68 13.6
-6 -2 -2 233.08 15.4
6 -2 2 239.48 14.7
6 2 2 246.68 11.5
6 2 2 252.87 15.8
6 2 2 258.97 14.9
6 2 2 250.17 15.5
6 2 2 267.77 27.2
-7 -2 -2 99.69 10.3
7 -2 2 92.99 9.4
7 -2 2 99.09 9
7 -2 2 99.59 10.1
7 2 2 107.89 10.6
7 2 2 105.09 10.1
7 2 2 96.89 7.2
7 2 2 101.29 10.3
7 2 2 98.89 12.5
8 -2 2 41 10.3
8 -2 2 62.99 10
8 -2 2 52.99 9.7
-8 -2 -2 74.19 12
8 -2 2 46.2 7.3
8 -2 2 61.59 8.7
8 2 2 77.39 9.8
8 2 2 47.7 16.6
8 2 2 52.29 8.6
8 2 2 61.79 9.9
8 2 2 75.59 6.7
9 -2 2 52.79 8.7
9 -2 2 82.39 12.2
9 -2 2 69.29 11.3
-9 -2 -2 70.99 10.4
9 -2 2 53.39 10.4
9 -2 2 64.69 11.1
9 2 2 66.09 10.7
9 2 2 77.39 11.8
9 2 2 67.09 7.2
9 2 2 93.09 15.4
9 2 2 68.59 12.7
9 2 2 69.49 10.4
9 -3 -2 4.8 8.1
9 -3 -2 6.6 4.5
9 -3 -2 0.9 6.8
-9 -3 2 4.9 4.5
9 3 -2 -3.7 9
9 3 -2 18.6 8.2
9 3 -2 22.9 9.5
8 -3 -2 150.98 13.7
-8 -3 2 126.69 13
8 3 -2 159.68 17.8
8 3 -2 155.08 15.3
8 3 -2 128.79 16.7
7 -3 -2 124.89 11.1
-7 -3 2 109.29 11.4
-7 -3 2 86.09 10.4
7 -3 -2 89.49 11
7 3 -2 95.19 13.1
-6 -3 2 55.49 7.3
-6 -3 2 60.29 8.3
6 -3 -2 73.59 9.5
6 3 -2 49.5 9.5
6 3 -2 43.2 9.5
6 3 -2 50.99 7.8
5 -3 -2 1076.19 43.7
5 -3 -2 1036 43.6
-5 -3 2 1082.29 44.6
5 -3 -2 1107.09 40.7
-5 -3 2 1030.2 41.2
5 3 -2 1082.59 50.99
5 3 -2 1131.89 41.9
5 3 -2 1113.69 42
-4 -3 2 295.37 17.7
-4 -3 2 307.67 14.9
4 -3 -2 300.97 14.3
4 -3 -2 321.27 18.1
4 3 -2 313.87 15.3
4 3 -2 299.27 20
4 3 -2 312.57 15.7
3 -3 -2 909.91 31.5
3 -3 -2 904.41 36.9
-3 -3 2 912.91 36.9
-3 -3 2 852.51 32.4
3 3 -2 835.52 33.2
3 3 -2 896.61 32.3
3 3 -2 836.82 38.7
2 -3 -2 323.67 17.6
-2 -3 2 326.27 13.6
-2 -3 2 320.87 14.3
2 -3 -2 317.47 12.6
2 3 -2 306.87 14.9
2 3 -2 303.97 13
2 3 -2 318.27 17.3
2 3 -2 320.67 18.9
1 -3 -2 502.65 22.1
-1 -3 2 473.55 16.4
1 -3 -2 463.55 17.8
-1 -3 2 455.05 19.1
1 -3 -2 473.75 22.5
-1 -3 2 476.85 17.1
1 -3 -2 392.66 17.1
1 3 -2 463.25 21.2
1 3 -2 484.05 23.3
1 3 -2 465.95 16.5
0 -3 -2 715.13 23.8
0 -3 2 661.13 23.2
0 -3 -2 673.63 26.1
0 -3 -2 720.53 29.4
0 -3 2 689.73 27.9
0 -3 2 681.03 24.7
0 -3 -2 684.43 23.6
0 -3 2 681.13 29.8
0 -3 2 700.13 26.9
0 3 -2 702.23 28
0 3 2 700.53 29.2
0 3 2 694.93 29
0 3 -2 722.43 29.8
1 -3 2 225.18 9
1 -3 2 224.08 12.4
1 -3 2 240.58 11.1
1 -3 2 217.78 13.3
-1 -3 -2 244.48 12.3
-1 -3 -2 241.78 8.8
-1 -3 -2 230.48 14.5
1 3 2 241.28 16.9
1 3 2 226.38 13.7
-1 3 -2 210.78 12.7
1 3 2 216.68 9.5
1 3 2 231.78 12.8
2 -3 2 201.88 9
2 -3 2 215.08 11.1
2 -3 2 204.58 11.7
-2 -3 -2 195.88 11.8
-2 -3 -2 209.98 8
2 -3 2 196.18 12.3
-2 -3 -2 189.88 8.8
2 3 2 206.68 13.3
-2 3 -2 213.98 11.8
2 3 2 213.78 13.7
2 3 2 221.88 13.3
2 3 2 207.68 9
2 3 2 194.48 9.7
3 -3 2 267.97 12.2
3 -3 2 277.17 14
-3 -3 -2 257.17 16.7
-3 -3 -2 264.37 12.5
3 -3 2 258.97 14
-3 -3 -2 267.77 15
3 3 2 244.48 16
3 3 2 262.27 11.6
3 3 2 273.27 16.5
3 3 2 265.37 16.2
4 -3 2 448.56 19
4 -3 2 446.16 20.4
-4 -3 -2 431.66 21.6
4 -3 2 427.56 19.4
4 -3 2 411.16 18.9
-4 -3 -2 421.76 23.7
4 3 2 426.56 23.3
4 3 2 420.06 19.6
4 3 2 434.66 23.7
4 3 2 427.76 18.1
4 3 2 433.26 23.1
-5 -3 -2 1387.76 53.69
5 -3 2 1407.26 50.59
5 -3 2 1389.66 49.3
5 -3 2 1348.67 51.79
5 3 2 1261.17 59.49
5 3 2 1452.75 50.29
5 3 2 1429.76 57.59
5 3 2 1389.46 51.59
5 3 2 1424.46 55.39
6 -3 2 130.59 9.1
6 -3 2 131.39 10.8
6 -3 2 121.49 10
-6 -3 -2 140.99 12
6 3 2 132.79 10.3
6 3 2 108.49 10.1
6 3 2 125.09 12.3
6 3 2 125.99 13.7
-7 -3 -2 145.29 13.1
7 -3 2 150.08 12.2
7 -3 2 140.69 10.4
7 3 2 111.39 15.4
7 3 2 143.59 12.3
7 3 2 155.78 12.8
7 3 2 151.68 14
8 -3 2 214.38 15.6
8 -3 2 186.78 14.8
8 -3 2 187.68 13.2
-8 -3 -2 173.28 15.3
8 -3 2 181.28 16.1
8 3 2 217.68 17.5
8 3 2 146.29 14
8 3 2 171.18 15.8
8 3 2 194.98 15.7
8 3 2 182.28 20.3
9 -3 2 24.8 10.8
9 -3 2 57.79 9.9
9 -3 2 61.79 9.8
9 -3 2 79.59 12
9 -3 2 58.79 10
-9 -3 -2 74.79 11
9 3 2 64.09 13.3
9 3 2 73.19 12.8
9 3 2 61.69 11.5
9 3 2 59.89 10.6
9 3 2 31.4 13.7
9 -4 -2 226.38 20.7
9 -4 -2 277.87 23.2
9 -4 -2 280.97 21
-9 -4 2 280.27 21.2
9 4 -2 296.97 26
9 4 -2 235.38 23.7
9 4 -2 240.48 30.9
8 -4 -2 -10 6.4
-8 -4 2 1.9 3.9
8 -4 -2 -1.9 4.8
8 4 -2 -0.3 7.1
8 4 -2 0 12.2
8 4 -2 1.6 6.3
-7 -4 2 1327.67 52.29
7 -4 -2 1251.27 49.2
-7 -4 2 1269.17 67.69
7 -4 -2 1186.98 52.39
7 4 -2 1213.38 50.59
7 4 -2 1300.47 59.69
6 -4 -2 283.97 23.3
6 -4 -2 273.57 15.8
-6 -4 2 293.37 17.4
-6 -4 2 279.17 19.5
6 -4 -2 268.57 18.9
6 4 -2 310.07 18.5
6 4 -2 318.97 23.9
5 -4 -2 898.51 34.2
-5 -4 2 848.82 39.6
-5 -4 2 893.61 35.6
5 -4 -2 853.01 40.6
5 4 -2 882.21 36.7
5 4 -2 878.11 35.5
5 4 -2 956.3 44.4
5 4 -2 910.21 44.5
-4 -4 2 275.97 13.8
-4 -4 2 242.78 16.8
4 -4 -2 241.18 18.6
4 -4 -2 236.98 12
4 4 -2 224.18 18.5
4 4 -2 238.38 13
4 4 -2 246.78 18.3
4 4 -2 237.98 14.2
-3 -4 2 578.04 28.9
3 -4 -2 643.94 30.1
-3 -4 2 588.34 24.5
3 -4 -2 624.14 22.6
3 -4 -2 578.24 30.1
3 4 -2 610.94 26.1
3 4 -2 617.94 23.6
3 4 -2 589.14 30.1
3 4 -2 630.64 32.3
-2 -4 2 1826.92 62.49
2 -4 -2 1809.12 60.29
-2 -4 2 1759.02 66.99
2 -4 -2 1919.11 59.19
2 -4 -2 1734.73 68.29
2 -4 -2 1897.51 69.79
2 4 -2 1686.73 63.09
2 4 -2 1821.42 70.19
2 4 -2 1807.32 59.69
2 4 -2 1939.21 68.49
1 -4 -2 704.13 26.8
-1 -4 2 665.63 24.3
-1 -4 2 700.93 27.8
1 -4 -2 719.33 31.9
-1 -4 2 688.93 24.5
1 -4 -2 697.73 32.9
1 4 -2 718.73 31.3
1 4 -2 723.13 33.4
0 -4 2 3563.74 119.89
0 -4 -2 3695.63 124.29
0 -4 -2 3734.53 119.69
0 -4 2 3620.74 122.49
0 -4 2 3328.07 124.49
0 -4 -2 3527.35 115.89
0 -4 2 3699.43 117.09
0 -4 -2 3556.74 125.59
0 4 2 3752.52 123.99
0 4 -2 3728.93 124.79
0 4 -2 3770.02 122.69
0 4 2 3732.33 124.39
1 -4 2 116.99 7.7
-1 -4 -2 124.39 12.9
-1 -4 -2 109.99 12.5
1 -4 2 126.89 10.2
-1 -4 -2 111.79 8.8
-1 -4 -2 122.29 5.9
1 -4 2 98.19 11.3
-1 4 -2 118.09 10.4
1 4 2 128.99 10.9
1 4 2 125.89 11.2
2 -4 2 1785.52 73.89
2 -4 2 1973.2 66.39
2 -4 2 1936.61 62.19
-2 -4 -2 1922.71 68.59
2 -4 2 1926.61 68.99
2 4 2 1928.81 71.49
-2 4 -2 2003.3 69.19
2 4 2 1856.41 63.19
2 4 2 1958.4 72.19
-3 -4 -2 112.39 14.3
3 -4 2 129.49 10.9
3 -4 2 121.19 11.6
3 -4 2 136.39 8
-3 -4 -2 129.39 7.8
3 -4 2 144.29 10
-3 -4 -2 144.49 11.2
3 4 2 131.99 12.4
3 4 2 127.19 8.2
3 4 2 128.39 12.3
3 4 2 137.19 7.9
3 4 2 156.18 12.9
4 -4 2 536.95 24.1
-4 -4 -2 548.45 26.2
4 -4 2 492.85 24.6
-4 -4 -2 442.06 29.4
4 -4 2 554.04 21.7
4 -4 2 497.95 25.6
-4 -4 -2 543.65 22.6
4 -4 2 509.85 24
4 4 2 518.15 28.1
4 4 2 511.65 28.5
4 4 2 498.85 22.3
4 4 2 508.45 24.4
5 -4 2 353.26 19.1
-5 -4 -2 325.47 20
5 -4 2 350.06 16.7
5 -4 2 338.27 18.7
5 -4 2 362.86 17.2
5 4 2 363.86 18.8
5 4 2 329.77 16.7
5 4 2 349.57 23.3
5 4 2 318.97 17.6
5 4 2 289.87 21
6 -4 2 414.16 20.5
6 -4 2 394.86 18.5
-6 -4 -2 412.86 23.7
6 -4 2 399.96 22.1
6 4 2 397.86 26.9
6 4 2 397.06 25
6 4 2 386.16 21.1
6 4 2 418.76 20.8
-7 -4 -2 626.74 31.8
7 -4 2 576.74 29.5
7 -4 2 615.74 28.6
7 -4 2 595.04 28.2
7 -4 2 600.64 25.5
7 4 2 586.94 32.7
7 4 2 604.04 36.5
7 4 2 564.34 28.5
7 4 2 604.94 29.5
7 4 2 580.04 30
7 4 2 598.74 36
8 -4 2 105.29 11.7
8 -4 2 106.89 12.1
-8 -4 -2 128.29 13.7
8 -4 2 124.79 10.7
8 -4 2 135.19 13.9
8 4 2 117.89 19.1
8 4 2 137.89 16.9
8 4 2 111.29 12.8
8 4 2 126.69 15
8 4 2 130.39 14.7
-8 -5 2 181.48 17
-8 -5 2 178.98 17.3
8 -5 -2 160.48 19.8
8 -5 -2 154.68 14.7
8 5 -2 175.48 22.8
8 5 -2 188.28 21.8
8 5 -2 148.49 19.4
8 5 -2 187.68 20.6
-7 -5 2 0.4 3.8
7 -5 -2 -8.7 6.1
7 -5 -2 4.1 4
-7 -5 2 4.7 4.3
7 5 -2 -0.2 5.6
7 5 -2 -3.1 6.3
7 5 -2 0.9 6.5
6 -5 -2 309.57 21.8
-6 -5 2 365.86 23.9
6 -5 -2 365.46 18.3
-6 -5 2 356.96 20.1
6 5 -2 356.26 27.6
6 5 -2 361.26 27.8
6 5 -2 374.86 20.6
5 -5 -2 355.66 16.9
5 -5 -2 351.86 25.5
-5 -5 2 378.46 23.7
-5 -5 2 373.56 19.1
5 5 -2 348.27 25.7
5 5 -2 372.76 27.2
5 5 -2 357.46 20.6
4 -5 -2 783.42 28.3
4 -5 -2 691.53 39.5
-4 -5 2 781.82 30.9
4 -5 -2 710.93 37.4
-4 -5 2 780.62 36.9
4 5 -2 747.33 40.3
4 5 -2 803.52 29.9
4 5 -2 735.33 38.6
4 5 -2 735.03 32.6
3 -5 -2 223.98 17.6
-3 -5 2 243.38 17.4
-3 -5 2 234.28 13
3 -5 -2 220.48 24.6
3 5 -2 256.67 18.6
3 5 -2 233.98 11.2
3 5 -2 225.38 14.3
3 5 -2 225.38 19.3
2 -5 -2 437.36 18.4
2 -5 -2 389.16 24.2
-2 -5 2 421.06 23.8
-2 -5 2 427.46 19.6
2 5 -2 445.36 24.9
-1 -5 2 80.69 9.2
-1 -5 2 80.59 7.4
-1 -5 2 83.89 5.3
1 -5 -2 89.49 6.5
1 -5 -2 90.19 7.4
1 -5 -2 75.29 10.6
1 5 -2 80.19 10.6
1 5 -2 78.39 9.6
0 -5 -2 39.5 10.5
0 -5 2 28.5 9.8
0 -5 2 11.7 4.9
0 -5 2 12 2.7
0 -5 -2 22.7 5.6
0 -5 2 15 3.8
0 -5 -2 13.7 5.3
0 -5 -2 12.4 2.6
0 5 -2 15.4 5.4
0 5 -2 15.4 5
0 5 2 14.2 6
1 -5 2 525.95 26.8
-1 -5 -2 541.45 29.6
-1 -5 -2 518.45 19.4
1 -5 2 518.25 22
1 -5 2 500.95 28.8
-1 -5 -2 530.95 24.7
1 -5 2 510.55 24
-1 -5 -2 485.15 31.4
1 5 2 504.85 27.9
-1 5 -2 540.85 27.4
1 5 2 518.75 27.7
-2 -5 -2 88.09 9
2 -5 2 59.69 12.5
-2 -5 -2 82.29 5.3
2 -5 2 78.69 10.5
2 -5 2 81.09 7.4
-2 5 -2 68.29 8.7
2 5 2 74.49 5.4
2 5 2 100.39 11.1
2 5 2 69.39 4.8
2 5 2 49.1 9.7
-3 -5 -2 695.93 31.7
-3 -5 -2 674.03 25.5
3 -5 2 664.93 28.9
3 -5 2 495.95 44.6
3 -5 2 693.83 32.5
3 5 2 646.74 25.3
3 5 2 706.23 26.3
3 5 2 655.63 34.5
3 5 2 691.03 34.9
-4 -5 -2 42.7 5.6
4 -5 2 44 5
4 -5 2 49.1 5.1
-4 -5 -2 55.49 9.8
4 -5 2 42.3 11.3
4 -5 2 44.8 7.6
4 -5 2 49.6 7.5
4 -5 2 44.6 8.9
4 5 2 49.9 5.8
4 5 2 49.6 9.9
4 5 2 41.9 9.2
4 5 2 48.4 5.8
4 5 2 44.9 6.9
5 -5 2 683.23 35.3
5 -5 2 686.53 28.6
5 -5 2 649.83 34.8
5 -5 2 727.73 30.1
5 -5 2 709.93 32.7
-5 -5 -2 751.02 35.4
5 -5 2 747.33 29.2
5 5 2 732.13 38.3
5 5 2 727.13 30.3
5 5 2 732.83 39.1
5 5 2 726.13 29.8
6 -5 2 89.79 8.9
6 -5 2 87.99 10.4
6 -5 2 92.39 8.9
-6 -5 -2 83.69 11
6 -5 2 85.19 7.7
6 -5 2 82.49 12.5
6 5 2 78.29 10.2
6 5 2 75.59 9.5
6 5 2 80.29 14.2
6 5 2 73.29 9.3
6 5 2 76.99 13.3
7 -5 2 202.18 14.2
7 -5 2 178.88 15.2
7 -5 2 168.28 15.4
-7 -5 -2 200.48 17.1
7 -5 2 183.28 11.7
7 -5 2 203.18 25.4
7 5 2 182.78 20.4
7 5 2 204.58 19.8
7 5 2 162.08 14.3
7 5 2 189.38 18.1
-7 -6 2 28.6 6.9
7 -6 -2 54.29 11
-7 -6 2 27 7.8
7 -6 -2 17.9 11.1
7 -6 -2 37.7 6.8
7 6 -2 9.2 9.2
7 6 -2 27.7 11.5
7 6 -2 47.8 8.6
7 6 -2 28.3 11.3
7 6 -2 48.2 13.1
-6 -6 2 40.3 7.8
6 -6 -2 2.4 16.6
6 -6 -2 40.9 6.1
-6 -6 2 44.2 10.3
6 -6 -2 37.4 15.5
6 6 -2 44.9 12.6
6 6 -2 57.39 10.6
6 6 -2 45.8 8.4
6 6 -2 49.7 12.8
6 6 -2 44.6 7.7
-5 -6 2 89.19 12
-5 -6 2 100.19 9.4
5 6 -2 72.29 13.7
5 6 -2 68.99 14.4
5 6 -2 80.39 8.1
-4 -6 2 15.5 5.8
-4 -6 2 15.3 4.2
4 -6 -2 27.1 14.4
4 6 -2 13.5 6.5
4 6 -2 15.5 7.7
3 -6 -2 109.19 15.3
-3 -6 2 132.39 9.9
-3 -6 2 150.18 14.3
3 6 -2 141.99 15.7
3 6 -2 167.68 17.9
2 -6 -2 117.19 8.8
-2 -6 2 122.49 12.7
-2 -6 2 127.89 9.6
2 -6 -2 95.89 14.4
2 6 -2 122.09 15.2
2 6 -2 123.49 13.7
1 -6 -2 3.5 7.6
-1 -6 2 3 1.7
1 -6 -2 2.4 2.6
-1 -6 2 4.9 3.7
1 -6 -2 2.4 2.2
-1 -6 2 3.8 2.7
1 6 -2 0.1 3.2
1 6 -2 6.8 4.7
0 -6 -2 495.95 20.1
0 -6 2 482.45 23
0 -6 2 483.55 29.6
0 -6 2 476.05 23.5
0 -6 -2 495.55 29.8
0 -6 2 494.65 26.6
0 -6 -2 512.55 24.4
0 6 2 516.55 29.4
0 6 -2 500.25 27.6
0 6 -2 539.75 30.3
1 -6 2 106.69 14.6
1 -6 2 127.19 10.9
-1 -6 -2 117.59 11
1 -6 2 136.39 9.6
-1 -6 -2 127.99 7.4
-1 6 -2 137.29 14
1 6 2 132.39 14.4
1 6 2 129.69 13.9
-2 -6 -2 104.49 6.7
-2 -6 -2 115.09 11.2
2 -6 2 107.09 10.5
2 -6 2 105.49 14.1
2 -6 2 134.59 10
2 6 2 91.89 12.3
2 6 2 108.19 13.7
-2 6 -2 97.99 11.7
-3 -6 -2 51.19 5.2
3 -6 2 44.1 12.3
3 -6 2 33 6.7
-3 -6 -2 57.99 8.6
3 6 2 49.99 10.7
3 6 2 45.2 10.2
-4 -6 -2 57.09 10.1
-4 -6 -2 55.19 6.5
4 -6 2 38.5 6.8
4 -6 2 42.7 11.3
4 6 2 38.9 5.4
4 6 2 60.19 13.2
4 6 2 48.2 10.6
4 6 2 51.29 7
5 -6 2 81.79 9.9
-5 -6 -2 70.89 10.6
5 -6 2 75.29 7
5 -6 2 67.09 14.1
5 -6 2 69.59 8.7
5 6 2 73.69 13.4
5 6 2 58.79 12.5
5 6 2 78.59 10.3
5 6 2 70.49 9
5 6 2 75.79 8.1
6 -6 2 155.68 11.2
6 -6 2 132.99 13.4
6 -6 2 150.78 10.7
6 -6 2 125.09 20.2
-6 -6 -2 151.58 15.4
6 -6 2 145.29 10.3
6 6 2 115.29 12.7
6 6 2 147.09 15.3
6 6 2 134.99 12
6 6 2 110.89 17.5
6 6 2 117.79 16.3
5 -7 -2 114.79 12.7
-5 -7 2 94.19 13.7
-5 -7 2 100.49 10.1
5 7 -2 105.49 18.4
5 7 -2 95.79 19.1
4 -7 -2 139.89 13.5
-4 -7 2 153.38 11.7
-4 -7 2 154.18 16.5
4 7 -2 151.78 18.5
4 7 -2 176.18 21.2
3 -7 -2 75.89 6.7
3 -7 -2 95.49 18.7
-3 -7 2 79.49 8.4
-3 -7 2 62.89 10.5
3 7 -2 87.99 17.3
3 7 -2 57.69 11.8
-2 -7 2 94.79 12.3
-2 -7 2 86.79 8.7
2 -7 -2 69.89 7.7
2 -7 -2 65.49 14.7
2 -7 -2 96.69 8.8
2 7 -2 100.79 16.7
2 7 -2 95.49 15.2
1 -7 -2 95.69 8.2
-1 -7 2 88.19 6.4
-1 -7 2 94.39 9.3
1 -7 -2 102.49 9.6
-1 -7 2 86.99 11.7
1 -7 -2 73.69 14.9
1 7 -2 109.39 15.2
1 7 -2 120.99 14.3
0 -7 -2 91.39 8.2
0 -7 2 89.19 9.4
0 -7 2 85.89 11.3
0 -7 -2 93.79 17.1
0 -7 -2 90.59 6.9
0 -7 2 81.49 7.2
0 -7 -2 84.09 9.5
0 7 2 96.89 13.5
0 7 -2 87.89 20.2
-1 -7 -2 176.68 9.9
1 -7 2 178.88 31.3
1 -7 2 169.28 11.4
1 -7 2 150.18 12.8
1 -7 2 167.18 14.9
-1 -7 -2 145.59 8.7
-1 -7 -2 144.49 13.1
-1 7 -2 162.98 16.5
1 7 2 169.18 17.7
2 -7 2 27.9 5.8
-2 -7 -2 29 4.1
2 -7 2 38.6 8.5
-2 -7 -2 29.5 7.3
2 -7 2 22.4 6.7
2 7 2 21.1 7.2
2 7 2 36.6 10.5
-2 7 -2 35.1 8.7
-3 -7 -2 102.79 7.9
3 -7 2 117.59 11.2
-3 -7 -2 107.59 12.3
3 -7 2 112.19 12.2
3 -7 2 112.59 11.6
3 -7 2 133.19 19.7
3 7 2 112.29 15.7
3 7 2 82.29 13.3
4 -7 2 129.49 12.3
4 -7 2 99.89 18.6
-4 -7 -2 120.89 13.8
-4 -7 -2 110.39 9.8
4 7 2 108.59 16.4
4 7 2 118.49 16.8
5 -7 2 232.38 16
-5 -7 -2 211.48 18.8
5 -7 2 220.38 17.2
5 7 2 216.78 23.1
5 7 2 240.48 23.4
2 -8 -2 167.48 14
-2 -8 2 156.98 16.8
2 -8 -2 175.88 12.4
2 -8 -2 154.08 11.9
2 8 -2 170.68 20.7
2 8 -2 171.98 19.1
-1 -8 2 16.8 5
-1 -8 2 16.6 6.6
1 -8 -2 30.1 6.3
1 -8 -2 27.5 5.2
1 -8 -2 17.1 5.6
1 8 -2 35.7 11
0 -8 -2 586.84 29.7
0 -8 2 578.24 24.8
0 -8 -2 553.94 25.9
0 -8 -2 622.14 26.4
0 -8 2 649.64 29.5
0 -8 2 598.84 33.4
0 8 -2 595.54 37.3
1 -8 2 47.8 7.5
-1 -8 -2 46.1 13.7
1 -8 2 71.09 10.4
1 -8 2 67.89 11.9
1 8 2 82.29 16.8
-1 8 -2 58.39 12.3
10 0 -3 44.2 16.7
-10 0 3 49.5 8.1
10 0 -3 61.69 14.2
10 0 -3 38.2 10.5
-9 0 3 5.3 3.5
9 0 -3 14.5 6.2
9 0 -3 6.4 7.5
8 0 -3 4.3 4.6
8 0 -3 1.9 3.8
-8 0 3 1.1 2.3
7 0 -3 179.88 16.5
-7 0 3 215.98 12.6
6 0 -3 90.69 9
-6 0 3 99.59 7.8
6 0 -3 100.69 8.7
5 0 -3 882.01 34.7
-5 0 3 882.51 36.1
5 0 -3 904.51 34.2
-5 0 3 831.42 32.6
-4 0 3 17.8 3.4
4 0 -3 18.1 3.2
-4 0 3 13.6 2.9
-4 0 3 20.4 4.2
3 0 -3 139.59 7.7
-3 0 3 142.39 8.2
-3 0 3 138.29 8
3 0 -3 134.39 8.1
-2 0 3 516.15 18.6
-2 0 3 475.65 19
2 0 -3 515.25 19.2
2 0 -3 492.45 18.6
-1 0 3 1107.49 38.1
1 0 -3 1196.28 39
1 0 -3 1163.78 38.5
1 0 -3 1202.28 38.7
-1 0 3 1117.29 38.8
0 0 -3 271.97 10.4
0 0 3 257.07 10.4
0 0 -3 266.17 10.8
1 0 3 1155.38 39.1
-1 0 -3 1203.18 39.1
1 0 3 1124.59 40.3
1 0 3 1130.59 38.3
-1 0 -3 1172.38 38.4
2 0 3 76.99 4.7
-2 0 -3 75.89 5.2
-2 0 -3 67.49 6.1
-2 0 -3 80.69 4.8
2 0 3 63.69 4.9
2 0 3 70.49 5.3
3 0 3 522.75 19.8
3 0 3 512.15 21.1
3 0 3 500.95 21.1
-3 0 -3 530.45 20.2
-4 0 -3 91.69 8.3
4 0 3 87.19 7.3
-4 0 -3 84.59 6.4
4 0 3 94.09 6.5
4 0 3 101.59 7.7
5 0 3 44.4 5.7
5 0 3 34.4 5.4
-5 0 -3 44.1 6.4
5 0 3 37.1 4.5
6 0 3 390.96 20
6 0 3 367.16 17.3
6 0 3 334.97 19
6 0 3 325.07 19.9
-6 0 -3 377.56 21.1
7 0 3 44.4 7.7
7 0 3 63.99 8.2
-7 0 -3 42.1 7.7
7 0 3 60.99 6.6
8 0 3 19.5 4.7
8 0 3 25.7 6.4
8 0 3 10.8 5
-8 0 -3 21.1 6.7
8 0 3 21.9 6.5
9 0 3 31.9 9.9
9 0 3 23.7 7.3
9 0 3 14.2 6.3
9 0 3 25.5 5.8
-9 0 -3 26.9 8.1
10 -1 -3 77.59 14.8
10 -1 -3 84.09 13
-10 -1 3 75.19 13.1
10 -1 -3 94.69 13.2
10 1 -3 44.4 11.5
-10 1 3 72.79 9.8
10 1 -3 76.49 14.7
10 1 -3 65.39 13.6
10 1 -3 85.79 10.5
-9 -1 3 28.1 6.2
9 -1 -3 24 8.9
9 -1 -3 19.3 6.3
9 1 -3 28.2 6.2
-9 1 3 33.5 6.3
9 1 -3 44 9.5
9 1 -3 24 6.8
-8 -1 3 161.38 12.4
8 -1 -3 143.29 14.2
8 -1 -3 168.58 13.6
-8 1 3 164.68 11
8 1 -3 167.68 14.6
8 1 -3 161.28 14.2
7 -1 -3 206.08 14.4
-7 -1 3 220.98 14.1
7 -1 -3 199.08 14.8
7 1 -3 199.98 14.9
-7 1 3 221.78 11.8
-6 -1 3 404.56 22
-6 -1 3 418.16 20.7
6 -1 -3 423.66 20.9
6 -1 -3 433.06 21.4
6 1 -3 444.56 21.8
6 1 -3 392.66 20.3
-6 1 3 422.76 17.7
-5 -1 3 180.88 11.8
-5 -1 3 188.98 12.1
5 -1 -3 177.78 11.3
5 -1 -3 178.98 11.6
5 1 -3 189.38 11.5
5 1 -3 213.08 12.5
-5 1 3 194.98 9.3
-4 -1 3 1135.69 41.9
4 -1 -3 1195.58 42
-4 -1 3 1094.49 41.5
-4 -1 3 1166.08 42.9
4 -1 -3 1156.78 41.6
-4 1 3 1098.59 38.4
4 1 -3 1153.88 41.5
-4 1 3 1116.99 41.4
4 1 -3 1234.98 42.5
3 -1 -3 733.03 28.4
3 -1 -3 755.42 28.2
-3 -1 3 782.82 28.4
-3 -1 3 713.23 28.5
3 1 -3 817.52 29.1
3 1 -3 796.02 28.8
-3 1 3 796.82 28.6
-3 1 3 765.72 29.7
2 -1 -3 1525.55 48
-2 -1 3 1458.45 48.7
-2 -1 3 1462.95 48.9
2 -1 -3 1488.95 48.7
-2 1 3 1451.55 48.8
2 1 -3 1390.36 48.7
2 1 -3 1490.15 49.2
2 1 -3 1414.86 47.4
-2 1 3 1369.66 48.4
-1 -1 3 378.16 15.6
1 -1 -3 409.16 14.1
-1 -1 3 403.56 14.7
-1 -1 3 419.46 15.5
1 -1 -3 414.36 15.4
1 1 -3 408.06 15.3
1 1 -3 397.46 14.4
-1 1 3 361.16 15
1 1 -3 385.06 15.8
-1 1 3 414.36 14.9
-1 1 3 403.76 14.3
0 -1 -3 461.35 17.4
0 -1 -3 454.65 17.5
0 -1 3 464.45 17.1
0 -1 -3 480.45 18.4
0 -1 -3 488.35 18.4
0 1 -3 507.95 17.6
0 1 3 512.05 18
0 1 3 474.75 17.6
0 1 -3 474.55 17.2
0 1 3 470.85 15.8
-1 -1 -3 2104.89 68.39
-1 -1 -3 2161.98 67.29
-1 -1 -3 2127.49 69.19
1 -1 3 2049.59 67.99
-1 -1 -3 2156.88 68.99
1 -1 3 2116.39 67.99
1 1 3 2056.09 68.99
-1 1 -3 2108.99 67.89
-1 1 -3 2045.4 67.99
1 1 3 2018.9 68.19
1 1 3 2107.79 68.79
1 1 3 2092.49 67.49
-2 -1 -3 148.09 8.9
-2 -1 -3 156.08 8.5
2 -1 3 162.38 8.2
-2 -1 -3 159.28 8.5
-2 -1 -3 161.78 7.2
2 -1 3 163.38 8.3
2 1 3 145.19 8.2
-2 1 -3 167.78 8.4
2 1 3 158.68 8.9
-2 1 -3 153.68 8.1
2 1 3 162.28 9.1
2 1 3 151.08 7.1
2 1 3 147.19 8.1
-3 -1 -3 1408.06 46.3
-3 -1 -3 1362.16 49.5
3 -1 3 1335.77 47.6
3 -1 3 1355.06 48
-3 -1 -3 1408.96 48
3 -1 3 1553.74 49.2
3 1 3 1337.57 45.9
3 1 3 1384.96 49.9
3 1 3 1336.47 47.2
3 1 3 1326.37 48.3
4 -1 3 222.68 13.8
-4 -1 -3 159.48 13
-4 -1 -3 183.58 9.5
4 -1 3 182.78 11
4 -1 3 198.88 11
4 1 3 203.08 12.4
-4 1 -3 188.18 13.6
4 1 3 193.68 11.5
4 1 3 193.58 9.4
4 1 3 186.58 10
-5 -1 -3 1355.36 50.79
5 -1 3 1372.06 48.7
5 -1 3 1328.27 49.4
5 -1 3 1332.27 48.3
-5 1 -3 1356.36 53.89
5 1 3 1268.77 49.6
5 1 3 1266.97 45.9
5 1 3 1339.47 49.8
5 1 3 1412.06 51.59
5 1 3 1294.87 46.8
6 -1 3 219.88 13.4
-6 -1 -3 204.98 14.3
6 -1 3 225.68 13
6 -1 3 193.58 13.3
-6 1 -3 182.58 15.4
6 1 3 193.28 13.5
6 1 3 191.68 11.3
6 1 3 198.88 14.6
6 1 3 203.48 13.8
6 1 3 199.98 11.1
7 -1 3 277.07 17.2
-7 -1 -3 300.07 19.1
7 -1 3 292.47 18
7 -1 3 313.17 17
7 1 3 297.57 18.2
7 1 3 296.27 18.5
7 1 3 285.77 14.8
-7 1 -3 294.97 21.1
7 1 3 289.17 19.5
8 -1 3 302.37 19.2
-8 -1 -3 281.77 19.7
8 -1 3 284.07 20.7
8 -1 3 294.27 17.3
8 -1 3 296.07 26.9
8 1 3 272.17 20.4
8 1 3 294.37 19.1
8 1 3 266.77 15.2
-8 1 -3 314.37 22.9
8 1 3 259.17 18.7
-9 -1 -3 122.89 14
9 -1 3 134.29 14.5
9 -1 3 115.69 11.4
9 -1 3 146.79 14.1
9 -1 3 113.79 14.8
9 1 3 118.79 16.5
9 1 3 129.29 10.4
9 1 3 114.29 13
9 1 3 111.79 13.7
9 1 3 128.79 16.5
-9 1 -3 114.89 15.6
10 -2 -3 73.09 11
-10 -2 3 53.29 9.6
10 -2 -3 41.4 13.2
10 -2 -3 58.59 12.2
10 2 -3 61.59 14.4
10 2 -3 89.49 9.5
10 2 -3 45.6 23.1
9 -2 -3 596.64 31.1
-9 -2 3 638.14 30.7
9 -2 -3 572.04 31.4
9 2 -3 539.35 32.5
9 2 -3 605.04 25.1
-9 2 3 493.05 26
9 2 -3 597.94 35.8
9 2 -3 549.95 30.7
8 -2 -3 81.99 14
-8 -2 3 80.49 9.7
8 2 -3 80.89 18.7
8 2 -3 86.39 12.2
8 2 -3 88.89 7.5
8 2 -3 70.99 13.7
7 -2 -3 1309.87 51.69
-7 -2 3 1332.07 52.19
7 -2 -3 1266.97 51.19
-7 -2 3 1319.07 53.49
-6 -2 3 201.58 14
6 -2 -3 237.68 14.3
-6 -2 3 202.48 14.2
5 -2 -3 1626.14 57.79
5 -2 -3 1623.14 58.49
-5 -2 3 1710.23 58.69
-5 -2 3 1587.04 59.99
5 2 -3 1576.84 57.99
5 2 -3 1577.94 58.09
-4 -2 3 712.93 28.8
4 -2 -3 791.82 29.4
4 -2 -3 727.43 28.2
-4 -2 3 641.64 33.3
-4 -2 3 763.12 28.6
4 2 -3 711.73 28.8
4 2 -3 701.63 25.3
4 2 -3 737.13 28.8
-3 -2 3 689.13 27.4
-3 -2 3 762.32 27.6
3 -2 -3 731.03 27.5
3 -2 -3 722.83 27.1
3 2 -3 708.73 27.4
3 2 -3 731.53 24.6
-3 2 3 697.73 26.7
3 2 -3 729.43 28
2 -2 -3 1423.46 46.7
-2 -2 3 1394.46 47.8
2 -2 -3 1450.45 47
-2 -2 3 1388.96 47.3
2 2 -3 1371.76 48.4
2 2 -3 1417.66 45.1
-2 2 3 1356.06 46.5
2 2 -3 1321.77 46.9
1 -2 -3 452.15 19.5
1 -2 -3 427.96 16.1
1 -2 -3 465.25 17
1 -2 -3 456.25 15.7
-1 -2 3 434.86 16
-1 -2 3 415.06 18
-1 -2 3 431.96 16.9
1 2 -3 441.56 16.1
1 2 -3 455.05 16.8
-1 2 3 444.06 16.6
1 2 -3 476.35 18.9
-1 2 3 465.45 16.4
0 -2 -3 1076.89 38.2
0 -2 3 960 34.4
0 -2 -3 1020.4 35.3
0 -2 -3 1072.99 38.5
0 -2 3 1027.3 36.7
0 -2 -3 1049.79 34.8
0 -2 3 973.6 34.4
0 2 -3 1020.6 34.9
0 2 -3 1024.2 34.3
0 2 -3 1046.3 35.9
0 2 3 987.3 35.6
0 2 3 990.3 34.6
0 2 -3 1079.09 38.7
-1 -2 -3 298.97 13.9
1 -2 3 301.27 13.2
-1 -2 -3 315.57 12.4
1 -2 3 306.27 13
1 -2 3 299.57 12.6
-1 -2 -3 310.37 15.3
-1 -2 -3 314.77 13.2
-1 -2 -3 331.37 16
1 2 3 317.67 15.3
-1 2 -3 302.87 13.4
-1 2 -3 341.87 14.9
1 2 3 360.46 14.6
1 2 3 350.26 15.8
1 2 3 309.57 14.6
-1 2 -3 315.87 12.4
-2 -2 -3 1105.39 38.1
-2 -2 -3 1058.89 35.6
2 -2 3 1047.8 37.9
2 -2 3 1087.59 37.2
-2 -2 -3 1026.7 40.1
2 -2 3 1020 37
-2 -2 -3 1032 39
-2 2 -3 1078.39 38.5
2 2 3 1155.78 35.6
2 2 3 1052.29 37.6
-2 2 -3 1091.69 37.2
2 2 3 1098.59 40.3
2 2 3 1068.99 40.2
2 2 3 1119.29 40.1
2 2 3 1031.4 36.1
-3 -2 -3 304.87 12
-3 -2 -3 302.57 16
3 -2 3 306.47 14.4
3 -2 3 299.77 13.8
3 -2 3 317.07 15.8
3 2 3 283.17 14.1
3 2 3 300.57 15.4
3 2 3 271.37 11.8
3 2 3 284.97 16
3 2 3 289.07 12.9
3 2 3 316.17 16.5
4 -2 3 1327.57 47.9
-4 -2 -3 1341.27 45
4 -2 3 1344.87 48.1
-4 -2 -3 1329.77 49.8
4 -2 3 1324.87 48.2
-4 -2 -3 1319.47 49.99
4 2 3 1271.57 46.9
4 2 3 1309.87 48.4
4 2 3 1361.46 44.8
4 2 3 1354.16 49.4
4 2 3 1383.06 51.79
-5 -2 -3 43.9 7.6
5 -2 3 38.9 4.9
5 -2 3 27.6 5
5 -2 3 23.9 4.7
5 2 3 33.6 3.7
5 2 3 40.5 5.4
5 2 3 33.5 5.6
5 2 3 36 6.2
5 2 3 46.7 8.4
6 -2 3 482.75 22.9
6 -2 3 466.55 23
6 -2 3 450.85 21.6
6 2 3 482.25 26.5
6 2 3 481.95 23.8
6 2 3 448.16 22.7
6 2 3 492.55 23
6 2 3 482.15 19.4
7 -2 3 626.14 29.3
7 -2 3 668.53 29.2
7 -2 3 638.04 30.2
-7 -2 -3 653.43 31.8
7 2 3 651.53 25.6
7 2 3 655.63 30
7 2 3 633.04 29
7 2 3 667.63 34.2
7 2 3 623.34 30.7
8 -2 3 257.37 20.9
8 -2 3 313.17 19.4
8 -2 3 305.17 18.3
8 2 3 269.77 17
8 2 3 283.97 14.5
8 2 3 294.07 22.5
8 2 3 278.37 19.4
8 2 3 211.08 16.6
9 -2 3 367.36 22.8
9 -2 3 378.46 22.3
-9 -2 -3 391.16 25.1
9 -2 3 308.07 26.2
9 -2 3 371.66 23.6
9 -2 3 355.36 24.2
9 2 3 393.96 20.7
9 2 3 384.16 23.5
9 2 3 289.77 36.2
9 2 3 373.66 18.3
9 2 3 399.86 24.7
9 2 3 347.57 25.8
-9 -3 3 30.8 7.3
9 -3 -3 14.7 8
9 -3 -3 23.3 8.3
9 3 -3 27 11.9
9 3 -3 39.6 13.5
9 3 -3 17.9 9
-8 -3 3 83.29 16.5
8 -3 -3 128.99 13.6
8 -3 -3 125.09 13.1
-8 -3 3 122.29 12.9
8 3 -3 155.88 18.3
8 3 -3 136.59 14.6
8 3 -3 137.09 14.5
7 -3 -3 35.4 6.7
-7 -3 3 51.49 9.3
7 -3 -3 46.9 9.1
-7 -3 3 44.5 8
7 3 -3 37.4 10.2
6 -3 -3 350.26 18.6
-6 -3 3 370.86 21.6
-6 -3 3 342.87 19.3
6 3 -3 338.17 19.5
6 3 -3 393.66 26
5 -3 -3 323.97 16.7
5 -3 -3 321.27 18.1
-5 -3 3 345.57 17.6
-5 -3 3 349.57 20.3
5 3 -3 369.06 24.2
5 3 -3 348.07 18.3
5 3 -3 338.57 17.7
-4 -3 3 1781.42 61.99
4 -3 -3 1752.32 63.09
-4 -3 3 1798.52 66.69
4 -3 -3 1806.32 61.39
4 3 -3 1827.02 62.29
4 3 -3 1745.03 63.09
4 3 -3 1770.12 70.49
-3 -3 3 943.31 38.2
3 -3 -3 925.81 32.8
3 -3 -3 913.51 34.5
3 -3 -3 862.41 37.8
-3 -3 3 879.71 33.7
3 3 -3 893.21 33.4
3 3 -3 940.81 35.3
3 3 -3 925.01 41
-2 -3 3 1299.07 44.8
2 -3 -3 1321.27 50.19
-2 -3 3 1294.77 42.5
-2 -3 3 1311.67 46.2
2 -3 -3 1336.87 49.4
2 -3 -3 1357.26 44.2
2 3 -3 1267.17 46.9
-2 3 3 1281.57 43.4
2 3 -3 1322.17 52.29
2 3 -3 1277.87 42.6
2 3 -3 1316.27 49.3
2 3 -3 1242.08 46.1
-1 -3 3 500.05 18.7
1 -3 -3 518.05 23.4
-1 -3 3 473.75 20.8
1 -3 -3 495.25 18.5
1 -3 -3 487.45 18.6
1 3 -3 494.45 18.5
1 3 -3 570.94 35.9
1 3 -3 493.55 18.3
0 -3 -3 752.32 26.4
0 -3 -3 744.73 31.3
0 -3 -3 757.32 27.9
0 -3 3 748.23 26.1
0 -3 3 751.62 29.5
0 -3 3 759.32 26.8
0 3 -3 725.93 27.2
0 3 3 773.22 31.1
0 3 -3 709.43 25.3
0 3 -3 765.22 29.7
0 3 3 744.93 28.7
0 3 3 763.52 26.1
0 3 -3 784.22 32.2
1 -3 3 2085.89 67.59
-1 -3 -3 2083.29 67.89
1 -3 3 2016.4 69.19
-1 -3 -3 2104.19 73.89
1 -3 3 2093.39 70.89
-1 -3 -3 2137.59 68.79
-1 -3 -3 2052.99 70.59
1 3 3 2097.89 72.09
1 3 3 2067.69 73.39
1 3 3 2127.79 68.19
-1 3 -3 2096.69 72.59
1 3 3 2067.49 73.59
-2 -3 -3 473.25 24
2 -3 3 490.15 18.8
-2 -3 -3 484.15 21.7
-2 -3 -3 490.35 17.6
2 -3 3 490.65 20.6
2 -3 3 503.55 21.1
2 3 3 455.35 19.2
2 3 3 481.25 23.4
2 3 3 511.35 23.3
-2 3 -3 514.55 21.4
2 3 3 488.45 17.3
2 3 3 485.35 23.5
3 -3 3 1900.91 72.69
3 -3 3 2085.99 70.59
3 -3 3 2049.89 70.49
-3 -3 -3 2006.4 71.89
3 -3 3 2078.89 70.19
-3 -3 -3 2002.9 74.49
-3 -3 -3 2048.1 65.79
3 3 3 1995.1 69.29
3 3 3 2036.4 74.39
-3 3 -3 2135.19 68.89
3 3 3 2090.69 74.49
3 3 3 2079.69 73.99
3 3 3 2107.29 66.99
4 -3 3 204.78 11.4
4 -3 3 200.18 12.3
-4 -3 -3 195.68 15
-4 -3 -3 198.48 8.8
-4 -3 -3 191.48 13.1
4 -3 3 208.38 12.7
4 3 3 185.88 9
4 3 3 181.98 11.7
4 3 3 195.68 14.9
4 3 3 210.98 15.2
4 3 3 191.28 13.7
4 3 3 202.18 10.4
5 -3 3 1576.84 57.69
-5 -3 -3 1579.74 61.09
5 -3 3 1729.93 58.79
5 -3 3 1529.95 58.99
5 3 3 1545.45 61.39
5 3 3 1654.43 53.99
5 3 3 1700.53 62.69
5 3 3 1646.74 64.69
5 3 3 1646.84 57.19
6 -3 3 40.1 6.5
6 -3 3 28 6.5
-6 -3 -3 41.1 7.8
6 -3 3 23.9 4.8
6 3 3 28 6.9
6 3 3 26.4 3.7
6 3 3 12.3 4.3
6 3 3 21.2 6.2
6 3 3 30.1 5.8
7 -3 3 383.76 19.5
7 -3 3 378.66 21.2
7 -3 3 376.66 21.2
-7 -3 -3 365.06 22.6
7 3 3 359.96 21.9
7 3 3 377.46 26.1
7 3 3 433.26 33
7 3 3 353.46 16
7 3 3 378.36 20.6
7 3 3 352.66 21.3
8 -3 3 334.67 19.9
8 -3 3 363.66 21.9
8 -3 3 307.87 19.7
-8 -3 -3 300.77 20.8
8 3 3 276.47 21.3
8 3 3 262.07 19.3
8 3 3 284.27 16.1
8 3 3 265.67 24.1
8 3 3 279.07 23.8
8 3 3 229.28 18.2
-9 -3 -3 45.9 9.2
9 -3 3 60.69 10.4
9 -3 3 66.19 11.8
9 -3 3 81.19 11.8
9 -3 3 77.89 11.8
9 3 3 84.89 14.1
9 3 3 65.59 15.8
9 3 3 65.69 23.3
9 3 3 57.69 7.1
9 3 3 66.49 15.2
9 3 3 60.49 10.5
9 3 3 70.99 10.8
-9 -4 3 49.4 9.8
9 -4 -3 16.1 8.6
9 -4 -3 44.1 12.4
9 4 -3 65.99 15.3
9 4 -3 60.49 14.2
9 4 -3 36.2 12.6
8 -4 -3 8.2 6.9
8 -4 -3 17.2 6.3
-8 -4 3 15.9 6.4
-8 -4 3 15.1 6.3
8 4 -3 14.3 9
8 4 -3 19.9 8.9
7 -4 -3 128.59 11.4
-7 -4 3 117.59 11.7
7 -4 -3 111.19 12.7
7 4 -3 106.49 12.9
7 4 -3 128.89 13
7 4 -3 109.39 19.2
6 -4 -3 2.8 4
-6 -4 3 6.3 4
-6 -4 3 2 3.4
6 -4 -3 27.7 13.4
6 -4 -3 0.3 2.7
6 4 -3 -4.2 3.6
6 4 -3 3.3 5.6
5 -4 -3 47.7 5.9
-5 -4 3 60.19 10.8
5 -4 -3 76.79 10.5
5 -4 -3 46.1 11.4
-5 -4 3 59.09 6.7
5 4 -3 71.89 11.8
5 4 -3 53.69 7.6
5 4 -3 33 8.6
4 -4 -3 395.06 17.4
-4 -4 3 408.36 23.2
4 -4 -3 383.76 20
-4 -4 3 389.26 18.8
4 -4 -3 397.56 24.9
4 4 -3 426.16 25.2
4 4 -3 394.46 18.5
4 4 -3 391.66 20.2
3 -4 -3 117.09 13.8
3 -4 -3 146.19 8.1
-3 -4 3 135.09 12.1
3 -4 -3 131.69 12.3
-3 -4 3 145.49 9.6
3 4 -3 134.19 10.2
3 4 -3 154.88 14.7
3 4 -3 140.19 8.6
3 4 -3 150.18 13.1
2 -4 -3 256.67 10.7
-2 -4 3 235.18 9.4
-2 -4 3 233.78 12.9
2 -4 -3 228.88 10
2 -4 -3 235.08 16
2 4 -3 230.78 17.5
2 4 -3 216.98 10.4
2 4 -3 231.18 15.8
1 -4 -3 62.19 9.4
1 -4 -3 49.99 3.8
-1 -4 3 51.49 5.7
1 -4 -3 53.89 9.6
-1 -4 3 46.4 3.7
-1 -4 3 56.29 4.3
1 -4 -3 50.39 4.6
1 4 -3 40.4 7
1 4 -3 48.9 8.8
0 -4 -3 155.78 7.6
0 -4 3 151.68 8.2
0 -4 3 140.79 10.9
0 -4 3 147.79 7.1
0 -4 3 135.09 10
0 -4 -3 177.28 17.9
0 -4 -3 150.28 9.4
0 4 -3 133.99 12
0 4 -3 162.18 11.2
-1 -4 -3 3.6 2.4
-1 -4 -3 2.3 3.5
1 -4 3 4.7 2
-1 -4 -3 -0.3 1.3
1 -4 3 1.4 2.5
1 4 3 4.6 2.5
-1 4 -3 8.9 4
1 4 3 2.5 3
1 4 3 6.2 3.7
2 -4 3 178.28 10.8
2 -4 3 168.68 12
-2 -4 -3 161.78 15.3
2 -4 3 179.38 8.6
-2 -4 -3 180.08 8
-2 -4 -3 186.28 12.1
-2 4 -3 196.88 12.7
2 4 3 184.48 13.4
2 4 3 179.08 14
2 4 3 181.28 14
2 4 3 167.08 9.1
3 -4 3 29.7 5.6
-3 -4 -3 11.2 7.7
3 -4 3 22 6.6
-3 -4 -3 27 6.1
3 -4 3 21.6 4.7
3 -4 3 26.8 3.8
3 4 3 23.3 3.3
3 4 3 28.8 4.5
3 4 3 21.2 5.8
-3 4 -3 20 4.6
3 4 3 20.3 5.5
3 4 3 20.2 5.5
4 -4 3 126.39 11.3
4 -4 3 115.19 10.9
4 -4 3 120.09 9.7
4 -4 3 118.09 8.4
-4 -4 -3 101.19 14.3
-4 -4 -3 111.59 10.3
4 -4 3 115.49 10.4
4 4 3 125.19 9.1
4 4 3 126.99 13.2
4 4 3 109.89 7.5
4 4 3 126.69 12.9
4 4 3 105.69 11.5
-5 -4 -3 25.1 6.6
5 -4 3 12.7 4.3
5 -4 3 12.4 3.8
5 -4 3 20.2 6.2
5 -4 3 19.9 4.9
5 4 3 23.1 9.1
5 4 3 24.3 7
5 4 3 22.3 4.3
5 4 3 24.4 5.2
5 4 3 12.6 5.9
6 -4 3 95.39 10
-6 -4 -3 103.49 11.2
6 -4 3 87.29 8.9
6 -4 3 98.49 8.6
6 4 3 95.19 9.1
6 4 3 84.49 11.2
6 4 3 90.89 9.8
6 4 3 67.09 11.4
7 -4 3 245.68 15.1
7 -4 3 276.27 20
-7 -4 -3 298.57 20.2
7 -4 3 287.47 18.5
7 4 3 268.67 22.7
7 4 3 209.58 22.6
7 4 3 255.37 17.2
7 4 3 303.27 18.7
7 4 3 258.97 19.8
7 4 3 254.17 19.4
-8 -4 -3 33.1 9.5
8 -4 3 17.9 5.6
8 -4 3 23 7.6
8 -4 3 20.2 6
8 -4 3 21.2 7.2
8 4 3 55.29 13.8
8 4 3 29.7 7.2
8 4 3 31 9.6
8 4 3 15.3 10
8 4 3 21.2 7.7
8 4 3 23.5 7.9
-8 -5 3 158.18 15.5
8 -5 -3 138.79 14.2
-8 -5 3 145.09 16
8 -5 -3 85.89 20.1
8 5 -3 114.69 15.1
8 5 -3 167.08 21
8 5 -3 113.29 20.9
-7 -5 3 102.49 13.1
7 -5 -3 76.89 10.7
7 -5 -3 101.59 11.8
7 5 -3 73.29 12.6
7 5 -3 95.79 18.1
7 5 -3 102.89 17.4
7 5 -3 84.39 11.9
-6 -5 3 66.19 12.6
6 -5 -3 79.09 11.5
6 -5 -3 70.29 7.9
-6 -5 3 67.69 9.9
6 5 -3 54.39 11.2
6 5 -3 70.39 15.4
6 5 -3 69.09 15.5
-5 -5 3 193.08 12.8
-5 -5 3 187.48 16.4
5 -5 -3 171.88 16.7
5 -5 -3 167.08 18.8
5 -5 -3 186.48 11.3
5 5 -3 210.88 20.2
5 5 -3 175.88 18.1
4 -5 -3 332.07 15.1
-4 -5 3 324.67 17.1
-4 -5 3 336.27 22
4 -5 -3 296.87 23.2
4 5 -3 335.87 16.5
4 5 -3 342.57 23.7
4 5 -3 333.67 25.2
-3 -5 3 487.35 22.1
-3 -5 3 461.05 26.6
3 5 -3 487.15 27.7
3 5 -3 473.35 19.4
3 5 -3 498.05 30.4
-2 -5 3 252.37 17.7
-2 -5 3 260.17 14.5
2 -5 -3 256.67 11.9
2 -5 -3 226.28 18.2
2 5 -3 268.07 20.4
2 5 -3 243.58 17.5
-1 -5 3 16.8 2.9
-1 -5 3 17 4
1 -5 -3 14.3 3.4
1 -5 -3 10.6 11.7
1 -5 -3 10 9
1 -5 -3 18.7 3.2
1 5 -3 19.6 6.2
1 5 -3 20.4 7.5
0 -5 -3 62.29 6.8
0 -5 3 61.69 7.1
0 -5 3 57.89 5.2
0 5 -3 59.99 8.1
0 5 -3 49.8 9.3
-1 -5 -3 360.56 18.8
1 -5 3 340.97 16.6
1 -5 3 362.26 19.4
1 -5 3 362.16 20.9
1 5 3 369.46 22.7
-1 5 -3 365.66 21.8
1 5 3 363.06 22.3
2 -5 3 211.98 16
2 -5 3 199.68 19.7
-2 -5 -3 221.88 14.7
2 -5 3 230.68 13.4
-2 -5 -3 225.58 9.9
2 5 3 222.68 17.1
2 5 3 256.77 18.5
-2 5 -3 228.18 15.9
3 -5 3 139.99 16.5
3 -5 3 109.99 12.3
3 -5 3 114.09 7.1
-3 -5 -3 123.39 11.3
3 -5 3 113.09 9.7
3 5 3 135.39 13.9
-3 5 -3 149.09 13.7
3 5 3 115.89 7.9
3 5 3 141.99 14.2
-4 -5 -3 204.98 15.3
4 -5 3 207.38 13.9
4 -5 3 201.48 11
4 -5 3 139.59 18.4
4 -5 3 188.38 16
4 -5 3 196.98 15.3
4 5 3 195.08 12.9
4 5 3 194.38 17.3
4 5 3 200.38 17.7
4 5 3 184.78 10.5
4 5 3 195.08 11.8
5 -5 3 62.69 7
5 -5 3 54.79 7.7
5 -5 3 68.79 11
5 -5 3 62.79 12.6
-5 -5 -3 46.3 8
5 -5 3 61.89 9.7
5 5 3 57.19 11.7
5 5 3 59.39 7.7
5 5 3 67.09 7.1
5 5 3 41.9 9.7
-6 -5 -3 2.9 3.4
6 -5 3 5 4
6 -5 3 7.3 4.6
6 -5 3 14.5 4.2
6 -5 3 11.8 4.2
6 -5 3 8.6 11.4
6 5 3 1.9 3.9
6 5 3 9.4 7
6 5 3 4.7 5.5
6 5 3 14.2 5
6 5 3 11 6.6
7 -5 3 40.3 7.4
-7 -5 -3 32.4 8.9
7 -5 3 32.3 6.2
7 -5 3 44.1 14.7
7 -5 3 48.5 9.8
7 -5 3 40.9 7.5
7 5 3 33.1 7.2
7 5 3 38.5 11
7 5 3 29.7 9.1
7 5 3 31 8.4
7 5 3 51.39 9.5
-7 -6 3 447.86 29.4
7 6 -3 443.26 35.6
7 6 -3 406.76 31.2
7 6 -3 492.85 36.2
-6 -6 3 45 10.9
6 -6 -3 43.6 6.6
-6 -6 3 37.1 8.1
6 -6 -3 37.1 8.5
6 6 -3 27.5 12.8
6 6 -3 21.8 10.1
6 6 -3 48.8 10.3
6 6 -3 48.5 8.7
5 -6 -3 466.25 36.1
-5 -6 3 532.25 30.8
5 -6 -3 506.85 21.4
5 -6 -3 485.35 26.6
-5 -6 3 494.75 24.2
5 6 -3 471.95 32.6
5 6 -3 478.05 34.4
-4 -6 3 49.7 6.7
4 -6 -3 44.9 11.5
-4 -6 3 40.4 11.2
4 6 -3 61.49 15.1
4 6 -3 54.19 12.3
4 6 -3 56.99 6.6
3 -6 -3 293.17 26.8
-3 -6 3 350.26 23.2
-3 -6 3 327.67 17.6
3 6 -3 319.77 23.4
3 6 -3 327.77 25.8
-2 -6 3 586.94 31.5
2 -6 -3 546.45 23.2
2 -6 -3 578.84 33.3
-2 -6 3 581.04 26.1
2 6 -3 568.74 31.7
2 6 -3 585.94 34.7
1 -6 -3 533.25 20.8
-1 -6 3 506.35 20
-1 -6 3 525.95 24.7
1 -6 -3 470.35 25.5
-1 -6 3 514.95 28.5
1 6 -3 514.35 31.6
1 6 -3 560.44 29.5
0 -6 3 1178.38 41.5
0 -6 -3 1109.69 44.5
0 -6 3 1137.09 45.6
0 6 -3 1189.98 52.49
0 6 -3 1134.19 48.8
1 -6 3 747.33 33.8
-1 -6 -3 748.33 28.7
1 -6 3 803.72 30.8
1 -6 3 704.13 36.1
-1 -6 -3 720.33 33
1 6 3 762.12 38.1
1 6 3 774.82 39.2
-1 6 -3 781.42 37.8
2 -6 3 849.91 42.1
2 -6 3 895.21 40.1
2 -6 3 991.7 37.9
-2 -6 -3 926.61 40.3
-2 6 -3 966.3 42.8
2 6 3 958.2 45.9
2 6 3 961.5 45.5
-3 -6 -3 59.39 10.4
3 -6 3 59.39 8.9
3 -6 3 31.8 9.1
-3 6 -3 38.2 8
3 6 3 53.69 6.4
3 6 3 39.8 8.9
3 6 3 56.09 11.5
3 6 3 39.6 4.8
4 -6 3 695.43 32
-4 -6 -3 679.93 35.8
4 -6 3 654.73 34
4 -6 3 660.63 35.8
4 6 3 670.33 27.5
4 6 3 789.42 47.7
4 6 3 713.83 39.3
5 -6 3 34.7 12.3
-5 -6 -3 46.6 10.1
5 -6 3 68.19 10.8
5 -6 3 46.2 6
5 -6 3 57.89 6.6
5 -6 3 60.49 9.4
5 6 3 67.79 11.5
5 6 3 49.2 7
5 6 3 56.29 12
5 6 3 50.39 11.1
5 6 3 57.69 7.5
6 -6 3 484.15 23.8
-6 -6 -3 480.35 28.1
6 -6 3 405.66 20.7
6 -6 3 341.57 36.7
6 -6 3 442.26 21.9
6 -6 3 427.56 25.3
6 6 3 430.16 22.5
6 6 3 423.96 22.6
6 6 3 437.26 24.9
6 6 3 454.95 32.6
6 6 3 468.35 31.1
5 -7 -3 206.08 17.5
-5 -7 3 201.58 19.1
-5 -7 3 179.78 14.2
5 7 -3 199.98 22.2
5 7 -3 183.98 22.9
-4 -7 3 856.21 44.2
-4 -7 3 877.71 36.9
4 7 -3 905.91 51.19
4 7 -3 855.61 47.1
-3 -7 3 255.97 20.9
-3 -7 3 259.67 16
3 7 -3 246.18 22.1
3 7 -3 256.47 24.8
2 -7 -3 326.87 30.6
-2 -7 3 313.57 18.4
2 -7 -3 315.67 20.1
-2 -7 3 361.46 25
2 7 -3 350.46 24.8
2 7 -3 329.27 26.9
1 -7 -3 300.47 14.1
1 -7 -3 310.07 17.2
-1 -7 3 291.57 21.9
-1 -7 3 324.17 18.5
1 -7 -3 275.77 39
-1 -7 3 288.17 13.5
1 7 -3 347.47 26.3
1 7 -3 299.87 22.7
0 -7 -3 35.1 6.8
0 -7 -3 45.1 26.3
0 -7 3 34.7 5.2
0 -7 3 44.4 9.2
0 -7 3 48 7.7
-1 -7 -3 416.06 23.3
-1 -7 -3 396.26 33.5
1 -7 3 421.16 23.4
-1 -7 -3 438.06 18.5
1 -7 3 434.86 20.4
1 -7 3 388.56 24.8
-1 7 -3 395.66 27.1
1 7 3 399.16 28
-2 -7 -3 4.6 4.5
2 -7 3 3.3 3.2
2 -7 3 2.5 4
-2 7 -3 8 5.7
2 7 3 -1.5 4.2
2 7 3 -1.1 4.6
-3 -7 -3 553.74 29.9
3 -7 3 543.45 26.9
3 -7 3 613.54 43.2
3 7 3 553.34 35
3 7 3 489.35 35.2
4 -7 3 63.29 17.4
-4 -7 -3 47.8 10.3
4 -7 3 37.3 7.1
4 7 3 39.9 10.1
4 7 3 37.5 12
1 -8 -3 46.3 7.9
1 -8 -3 52.59 8.5
-1 -8 3 45.5 10.2
1 8 -3 38.4 11.4
0 -8 -3 130.29 12.4
0 -8 3 110.59 14.1
0 -8 3 133.59 9.6
0 -8 3 142.69 15.8
0 -8 -3 132.89 10.9
0 8 -3 131.99 17.6
-1 8 -3 75.89 13.9
-10 0 4 42.1 7.6
10 0 -4 23.2 9.5
10 0 -4 -2.8 10.7
9 0 -4 356.66 25.3
9 0 -4 397.36 24
-9 0 4 432.66 21.1
-8 0 4 240.58 14.3
8 0 -4 238.38 17.7
7 0 -4 685.63 32.4
-7 0 4 705.23 29
-6 0 4 259.57 16.6
-6 0 4 239.88 13.4
6 0 -4 258.67 15.7
6 0 -4 236.68 14.4
5 0 -4 3326.67 109.29
-5 0 4 3350.36 107.49
-5 0 4 3201.98 109.89
-5 0 4 3132.59 108.69
5 0 -4 3252.77 108.19
-4 0 4 795.12 30.4
4 0 -4 744.43 29.4
4 0 -4 810.42 30.6
-4 0 4 731.93 29.8
-4 0 4 764.52 29.4
3 0 -4 7115.39 223.38
3 0 -4 7205.98 224.28
-3 0 4 6864.21 223.98
-2 0 4 1321.77 46.6
-2 0 4 1333.47 47.6
2 0 -4 1488.65 47.4
2 0 -4 1448.06 48
-1 0 4 1159.28 40.7
1 0 -4 1209.98 40.8
1 0 -4 1238.98 40.4
-1 0 4 1123.89 39.8
1 0 -4 1221.38 40.3
0 0 4 6248.47 190.48
0 0 -4 6013.6 190.18
0 0 4 5823.22 189.68
-1 0 -4 4011.7 126.29
-1 0 -4 3964.2 125.29
1 0 4 3837.82 125.29
1 0 4 3989.4 128.29
1 0 4 3925.51 126.29
2 0 4 4765.82 155.88
-2 0 -4 4842.52 159.88
2 0 4 4617.44 156.58
2 0 4 5538.45 155.48
-2 0 -4 4722.63 155.68
-2 0 -4 4994.8 154.88
2 0 4 4634.14 154.38
3 0 4 64.19 5.9
3 0 4 69.69 5.2
3 0 4 69.09 6.1
-3 0 -4 82.49 8
4 0 4 1784.62 61.19
4 0 4 1849.52 63.49
4 0 4 1708.93 63.09
-4 0 -4 1876.91 61.89
5 0 4 263.27 15.4
5 0 4 265.27 15.3
5 0 4 265.07 13.6
-5 0 -4 294.17 18.3
6 0 4 648.24 29.7
6 0 4 668.83 30
-6 0 -4 659.53 32.6
6 0 4 618.04 26.6
-7 0 -4 247.28 18.8
7 0 4 215.38 13.5
7 0 4 250.07 16.9
7 0 4 230.18 16.2
8 0 4 111.69 16.2
8 0 4 116.29 13.1
-8 0 -4 135.89 15.1
8 0 4 123.79 10.3
-9 0 -4 259.77 22.1
9 0 4 261.37 19.7
9 0 4 219.28 20.1
9 0 4 260.17 21.1
9 0 4 264.17 16.7
10 -1 -4 90.49 14.1
-10 -1 4 130.39 12.4
10 -1 -4 90.39 15
10 1 -4 79.89 15
-10 1 4 117.99 11
10 1 -4 116.89 21.3
-9 -1 4 53.59 7.9
9 -1 -4 39.2 9.9
9 -1 -4 61.69 10.4
9 1 -4 45.1 10.2
9 1 -4 52.89 10.5
-9 1 4 57.09 6.8
-8 -1 4 251.57 15.9
8 -1 -4 243.38 17.2
8 -1 -4 258.27 18.6
8 1 -4 235.88 17.9
8 1 -4 236.78 20.2
-8 1 4 226.38 13.3
-7 -1 4 8.3 4.1
-7 -1 4 7.3 3.5
7 -1 -4 5.7 3.3
7 -1 -4 6.2 4.3
-7 1 4 9.9 3.1
7 1 -4 7.9 4.8
6 -1 -4 411.16 20.4
6 -1 -4 413.86 21.1
-6 -1 4 413.76 20.9
-6 -1 4 383.76 21.4
-6 1 4 438.46 17.5
6 1 -4 430.26 21.7
5 -1 -4 157.78 10.8
-5 -1 4 140.19 10.5
5 -1 -4 162.98 10.4
-5 -1 4 150.28 10.7
-5 -1 4 153.58 10.7
5 1 -4 155.68 10.4
-5 1 4 159.38 8.2
5 1 -4 163.48 11
-5 1 4 152.08 10.4
4 -1 -4 618.34 24
4 -1 -4 637.34 25.1
-4 -1 4 622.44 25.8
-4 -1 4 544.75 26.1
4 1 -4 608.34 24.6
4 1 -4 598.74 24.9
-4 1 4 565.74 21.6
-4 1 4 604.44 24.5
-4 1 4 551.24 25.3
3 -1 -4 627.14 25.1
3 -1 -4 685.23 24.5
-3 -1 4 638.74 24.8
-3 -1 4 649.14 25.4
-3 1 4 668.03 25.6
-3 1 4 635.44 25
3 1 -4 648.34 24
3 1 -4 646.24 25.7
3 1 -4 623.64 25.2
-2 -1 4 128.49 7.5
2 -1 -4 129.69 7.6
2 -1 -4 135.89 6.8
-2 -1 4 143.39 7.9
2 1 -4 131.99 7.9
2 1 -4 133.49 7.7
-2 1 4 129.59 7.6
-2 1 4 131.19 7.1
2 1 -4 145.19 7
-1 -1 4 507.05 20.6
1 -1 -4 559.64 19.4
-1 -1 4 550.54 21.2
-1 -1 4 539.45 20.1
1 -1 -4 564.34 21
1 1 -4 553.94 21.5
1 1 -4 549.05 20.8
1 1 -4 559.54 19.9
-1 1 4 589.94 21.2
-1 1 4 527.85 20.7
-1 1 4 547.85 19.1
0 -1 -4 7.7 2
0 -1 4 7.8 2
0 -1 -4 4.1 1.3
0 -1 4 11.2 2
0 -1 -4 2.5 1.5
0 -1 -4 6.2 1.8
0 -1 4 9.7 2.4
0 1 -4 6.1 1.7
0 1 4 4.1 1.4
0 1 4 4.4 1.7
0 1 4 6 1.1
0 1 -4 5 1.2
-1 -1 -4 85.19 5.6
-1 -1 -4 80.79 5.6
1 -1 4 74.59 4.9
-1 -1 -4 85.99 4.9
-1 -1 -4 68.99 6
1 -1 4 78.09 5.3
-1 -1 -4 85.19 6.1
1 1 4 69.69 5.5
1 1 4 78.59 4.9
-1 1 -4 78.89 5.3
1 1 4 64.49 5.1
1 1 4 65.69 5
-2 -1 -4 930.21 32.1
2 -1 4 928.91 33.5
-2 -1 -4 962.5 33.8
-2 -1 -4 936.11 33.9
-2 -1 -4 924.01 35.7
2 -1 4 912.31 36
2 -1 4 918.51 33.1
2 1 4 921.71 33.7
2 1 4 919.11 32.3
-2 1 -4 916.21 33.2
2 1 4 913.31 33.6
-2 1 -4 970.2 33.6
-3 -1 -4 614.04 23.1
3 -1 4 630.44 24.2
-3 -1 -4 611.94 24.1
3 -1 4 652.53 25
-3 -1 -4 587.14 26.4
3 -1 4 611.64 25.7
-3 1 -4 625.04 24.5
3 1 4 609.74 25.1
3 1 4 580.94 24.8
3 1 4 627.84 23
3 1 4 646.14 26.1
4 -1 4 308.37 15.7
-4 -1 -4 297.07 14.5
4 -1 4 311.47 15.7
-4 -1 -4 312.07 14.1
4 -1 4 291.17 14.8
4 1 4 322.97 18.1
4 1 4 311.87 13.7
4 1 4 320.57 16.8
-4 1 -4 309.97 15.3
-5 -1 -4 673.13 29.9
-5 -1 -4 614.44 25
5 -1 4 625.04 27.4
5 -1 4 606.84 26
5 -1 4 625.64 26.8
5 1 4 628.84 28
5 1 4 622.74 27.7
-5 1 -4 626.54 32.1
5 1 4 610.84 28.5
5 1 4 608.14 24
6 -1 4 31.6 5.5
-6 -1 -4 35.6 7.9
6 -1 4 24.5 4.4
6 -1 4 23.6 5.5
6 1 4 30.1 6
6 1 4 37.8 5.5
-6 1 -4 33.2 7.5
6 1 4 42.8 8.2
6 1 4 25 5.6
7 -1 4 487.45 24.7
-7 -1 -4 458.35 26.5
7 -1 4 435.06 24.4
7 -1 4 485.45 23.2
7 1 4 496.55 27
-7 1 -4 466.65 29.4
7 1 4 485.25 25.4
7 1 4 458.55 21.1
7 1 4 522.65 26.2
8 -1 4 150.78 13.6
-8 -1 -4 135.59 14.3
8 -1 4 142.39 11.8
8 -1 4 155.18 13.7
-8 1 -4 144.59 16.6
8 1 4 148.29 14
8 1 4 144.09 10.6
8 1 4 133.79 13.3
8 1 4 146.09 17.8
9 -1 4 131.19 15.4
-9 -1 -4 150.98 16.5
9 -1 4 162.68 15.2
9 -1 4 150.38 12.8
9 -1 4 137.59 18.2
9 1 4 134.19 16.8
9 1 4 175.18 16.2
9 1 4 147.49 11.5
9 1 4 158.58 15.3
-9 1 -4 165.98 27.3
10 2 -4 14.4 9.5
9 -2 -4 23 7.5
-9 -2 4 14.4 5.5
9 -2 -4 9.3 7.1
9 2 -4 10.4 8.8
9 2 -4 4.1 7.9
9 2 -4 10.3 4.4
8 -2 -4 52.09 9
8 -2 -4 35.8 11.6
-8 -2 4 58.99 10.4
-8 -2 4 53.89 9.6
8 2 -4 35.9 7.2
8 2 -4 49.1 9.4
-7 -2 4 24.9 6.2
7 -2 -4 24.5 5.8
-7 -2 4 21.1 5.8
7 -2 -4 18.1 4.9
7 2 -4 22.1 6.5
6 -2 -4 176.78 12.3
-6 -2 4 173.78 12.8
6 -2 -4 187.38 12.7
-6 -2 4 172.68 13.4
6 2 -4 192.08 13.4
5 -2 -4 335.27 16.9
-5 -2 4 327.47 17.5
-5 -2 4 322.47 18.7
-5 -2 4 369.26 17.7
5 -2 -4 331.77 17.4
5 2 -4 345.47 17.9
5 2 -4 314.67 17.2
5 2 -4 330.67 14.6
-4 -2 4 72.69 6.3
4 -2 -4 71.09 6.4
4 -2 -4 65.99 5.9
-4 -2 4 68.79 6.6
-4 -2 4 60.29 7.2
4 2 -4 62.19 4.6
-4 2 4 57.89 5.8
4 2 -4 68.09 6.6
4 2 -4 68.29 6.6
-3 -2 4 196.68 11
3 -2 -4 222.48 11.2
-3 -2 4 223.38 11.5
3 -2 -4 220.18 10.5
3 2 -4 215.38 12
3 2 -4 211.48 11.2
-3 2 4 177.48 10.3
3 2 -4 218.18 9.2
2 -2 -4 242.78 10
-2 -2 4 236.18 11.8
2 -2 -4 243.28 11.2
-2 -2 4 219.78 10.1
-2 -2 4 222.28 11.2
-2 2 4 222.78 10.8
2 2 -4 244.18 12.6
2 2 -4 223.68 9.6
1 -2 -4 274.07 12.4
-1 -2 4 266.17 11.6
1 -2 -4 301.27 12.7
1 -2 -4 284.67 10.5
1 -2 -4 281.87 14.5
-1 -2 4 295.97 12.7
-1 -2 4 255.47 13.3
1 2 -4 302.07 12.6
-1 2 4 296.37 12.1
1 2 -4 299.57 14.2
1 2 -4 300.87 11.9
-1 2 4 308.77 12.6
0 -2 -4 1231.98 44.3
0 -2 4 1163.68 43.2
0 -2 -4 1264.97 45
0 -2 4 1185.98 41.3
0 -2 -4 1195.38 41.5
0 -2 -4 1274.97 41.9
0 -2 -4 1245.88 42.4
0 -2 4 1149.29 40.8
0 2 4 1224.28 41.5
0 2 -4 1239.08 41.1
0 2 -4 1173.78 41.3
0 2 -4 1205.78 41.2
0 2 4 1201.28 42.2
-1 -2 -4 5.9 2.5
1 -2 4 7.7 2
-1 -2 -4 9.6 2.8
-1 -2 -4 6.1 1.5
1 -2 4 6.6 1.7
1 -2 4 6.6 1.7
-1 -2 -4 6.9 2.9
-1 -2 -4 5.3 1.8
-1 2 -4 9 2.8
1 2 4 7.8 2.2
-1 2 -4 4.1 1.5
-1 2 -4 6.3 1.7
1 2 4 6.6 1.9
1 2 4 7.8 2.5
-2 -2 -4 590.94 25.5
-2 -2 -4 566.74 24.5
2 -2 4 583.64 22.9
2 -2 4 601.84 21.7
-2 -2 -4 627.04 21.7
-2 -2 -4 623.74 23.8
2 -2 4 578.54 23.2
2 2 4 589.04 21.1
2 2 4 599.54 23.4
-2 2 -4 570.24 22.5
2 2 4 626.14 25.6
2 2 4 585.04 22.1
-2 2 -4 600.24 22.6
-2 2 -4 560.64 23.4
-3 -2 -4 290.67 12
-3 -2 -4 276.97 15.4
3 -2 4 265.67 15
-3 -2 -4 298.97 15.6
3 -2 4 290.07 16.1
3 -2 4 289.07 14
3 2 4 274.47 15.6
3 2 4 274.57 15.7
3 2 4 280.87 12.2
3 2 4 259.77 12.5
3 2 4 261.07 13.8
-3 2 -4 279.17 14.2
3 2 4 276.27 14.6
4 -2 4 92.69 8.1
-4 -2 -4 91.19 8.7
4 -2 4 91.29 7.6
-4 -2 -4 75.39 9
-4 -2 -4 96.49 6.2
4 -2 4 91.39 7.5
4 2 4 93.69 7.2
4 2 4 95.99 9.3
4 2 4 90.19 7.9
4 2 4 88.09 8.9
4 2 4 101.09 6.4
4 2 4 94.89 8.1
5 -2 4 205.18 12.9
5 -2 4 211.78 13
-5 -2 -4 219.18 11.1
-5 -2 -4 218.48 14.7
5 -2 4 224.38 13.5
5 2 4 221.68 13.1
5 2 4 206.58 10.6
5 2 4 201.38 15.1
5 2 4 199.68 12.7
5 2 4 217.68 15.6
5 2 4 236.98 14.1
6 -2 4 140.09 10.6
6 -2 4 145.49 11.4
6 -2 4 117.89 10.1
6 2 4 121.19 11
6 2 4 148.29 11.3
6 2 4 128.49 9.2
6 2 4 134.59 13.1
7 -2 4 234.98 15.9
7 -2 4 255.37 16.7
-7 -2 -4 248.68 17.8
7 -2 4 254.27 15.9
7 2 4 242.58 13
7 2 4 232.08 16.7
7 2 4 235.68 14.7
7 2 4 243.98 19.2
7 2 4 230.28 15.8
8 -2 4 118.49 12.1
-8 -2 -4 113.89 12.9
8 -2 4 122.39 11.8
8 -2 4 119.09 11.2
8 2 4 107.59 11.8
8 2 4 102.79 12
8 2 4 95.89 9.8
8 2 4 88.69 13.4
8 2 4 95.79 8.4
9 -2 4 263.77 25.2
9 -2 4 243.68 18.7
9 -2 4 230.08 16.9
-9 -2 -4 221.88 19.8
9 2 4 180.28 22.5
9 2 4 224.78 13.9
9 2 4 284.17 19.8
9 2 4 249.48 19.3
9 -3 -4 57.89 10.8
9 -3 -4 54.29 11.9
-9 -3 4 48.2 9.8
9 3 -4 39.6 10.9
9 3 -4 56.69 14
9 3 -4 38.1 10.4
-8 -3 4 40.8 10
8 -3 -4 29.5 7.5
8 -3 -4 39.6 7.8
-8 -3 4 36.8 7.4
8 3 -4 36.9 8.5
8 3 -4 20.8 7.9
8 3 -4 30.6 10.4
7 -3 -4 59.99 9.9
7 -3 -4 44 7.8
-7 -3 4 43.4 7.4
-7 -3 4 50.79 9.3
7 3 -4 38.2 8.2
7 3 -4 38.5 10.1
7 3 -4 48.8 7.8
-6 -3 4 402.66 21.3
6 -3 -4 392.16 20.4
-6 -3 4 407.76 23.5
6 3 -4 374.86 24.3
6 3 -4 467.45 30.1
-5 -3 4 72.39 7.4
5 -3 -4 86.19 7.7
-5 -3 4 90.19 9.9
5 -3 -4 87.59 8
5 3 -4 73.49 8.4
5 3 -4 74.69 9.4
5 3 -4 72.09 13.8
-4 -3 4 1490.55 59.69
-4 -3 4 1550.14 55.89
-4 -3 4 1509.55 55.39
4 -3 -4 1594.24 54.99
4 -3 -4 1526.15 55.19
4 3 -4 1531.95 56.99
4 3 -4 1545.55 65.49
-4 3 4 1609.54 54.59
4 3 -4 1668.63 55.99
4 3 -4 1608.34 50.99
3 -3 -4 530.05 21.3
-3 -3 4 514.35 22.3
3 -3 -4 508.65 21
-3 -3 4 534.65 22
3 3 -4 541.75 18.8
3 3 -4 522.25 21.8
3 3 -4 514.45 29
3 3 -4 524.85 23.4
-3 3 4 502.45 20.6
-2 -3 4 1816.32 68.49
-2 -3 4 1826.12 61.99
2 -3 -4 1932.11 69.99
-2 -3 4 1874.41 64.09
2 -3 -4 1923.41 62.59
2 -3 -4 1942.01 68.79
2 -3 -4 1907.31 63.69
2 3 -4 1931.91 63.79
2 3 -4 1913.21 66.79
-2 3 4 1897.31 63.09
2 3 -4 1967.4 73.09
2 3 -4 1883.31 62.09
2 3 -4 1975.7 68.59
1 -3 -4 203.98 9.7
1 -3 -4 177.88 13.3
1 -3 -4 198.08 9.4
-1 -3 4 194.98 8.9
-1 -3 4 188.68 11.3
-1 -3 4 198.08 9.7
1 -3 -4 207.58 13.2
1 3 -4 200.98 14.3
-1 3 4 191.68 9.2
1 3 -4 204.08 12.1
1 3 -4 201.58 9.5
-1 3 4 198.78 9.9
0 -3 4 169.08 8.4
0 -3 -4 163.98 12.5
0 -3 -4 153.58 11.5
0 -3 -4 169.08 9.2
0 -3 4 163.88 8.4
0 -3 4 160.98 10.5
0 -3 -4 170.38 8.7
0 3 4 166.68 8.4
0 3 4 169.28 9.9
0 3 -4 158.28 8.8
0 3 -4 166.38 10
0 3 -4 157.88 12
0 3 -4 164.78 7.9
-1 -3 -4 2239.68 75.49
-1 -3 -4 2285.37 78.99
1 -3 4 2291.77 74.09
1 -3 4 2208.28 75.19
-1 -3 -4 2209.98 79.49
1 -3 4 2167.98 72.89
-1 -3 -4 2256.97 73.89
-1 -3 -4 2270.87 72.99
-1 3 -4 2220.28 74.59
1 3 4 2257.17 78.39
1 3 4 2103.89 80.19
-1 3 -4 2279.97 77.59
1 3 4 2199.88 73.39
-1 3 -4 2203.88 72.29
-2 -3 -4 150.18 9
-2 -3 -4 113.49 12.1
2 -3 4 134.19 8.7
2 -3 4 142.39 8.1
-2 -3 -4 146.39 7.2
-2 -3 -4 144.29 11.8
2 -3 4 146.29 9.1
2 3 4 157.28 11.6
-2 3 -4 130.99 9.2
2 3 4 158.58 11.5
2 3 4 137.29 10.8
-3 -3 -4 1527.85 50.19
3 -3 4 1509.55 53.99
-3 -3 -4 1417.16 57.49
3 -3 4 1399.46 57.39
-3 -3 -4 1457.15 55.49
3 -3 4 1502.05 53.19
3 -3 4 1566.34 52.89
3 3 4 1516.05 56.89
-3 3 -4 1548.45 52.29
3 3 4 1608.74 58.49
3 3 4 1540.65 57.89
3 3 4 1580.94 50.09
3 3 4 1500.35 53.39
4 -3 4 59.89 7.1
-4 -3 -4 65.19 7.6
-4 -3 -4 57.19 4.6
-4 -3 -4 73.09 10.9
4 -3 4 64.69 6.8
4 -3 4 62.89 6.3
4 3 4 61.29 5.3
4 3 4 67.39 9.1
4 3 4 55.59 6.5
4 3 4 63.79 8
4 3 4 60.99 8.6
4 3 4 65.49 5.2
5 -3 4 88.49 8.4
-5 -3 -4 100.69 6.6
5 -3 4 96.09 8.8
5 -3 4 98.69 9
-5 -3 -4 106.49 10.3
5 3 4 95.49 6.6
5 3 4 99.99 9.3
5 3 4 97.59 7.9
5 3 4 106.69 11.7
5 3 4 88.09 9.6
-6 -3 -4 102.09 10.7
6 -3 4 104.29 9.3
6 -3 4 97.69 9.5
6 -3 4 95.69 9.5
6 3 4 86.59 9.5
6 3 4 92.09 11.8
6 3 4 87.39 8.6
6 3 4 95.29 6.9
6 3 4 88.29 10.1
7 -3 4 140.59 13.1
7 -3 4 141.29 14
-7 -3 -4 127.19 14.8
7 -3 4 144.09 20.1
7 3 4 116.49 14.4
7 3 4 123.69 9.4
7 3 4 124.09 12.1
7 3 4 111.79 15.4
7 3 4 106.09 10.7
7 3 4 108.59 11.6
-8 -3 -4 26.1 7.4
8 -3 4 24.8 7
8 -3 4 30.3 7.1
8 -3 4 45.8 8.9
8 3 4 13.6 7.8
8 3 4 31.7 8.3
8 3 4 28.7 7.1
8 3 4 11.6 6.5
8 3 4 27.4 4.9
9 -3 4 17 7.3
9 3 4 42.1 22.2
9 3 4 16.1 8.1
8 -4 -4 26 7.4
8 -4 -4 30.3 8.3
-8 -4 4 33 7.9
-8 -4 4 51.69 10.1
8 4 -4 35.6 10.2
8 4 -4 45.7 13.1
8 4 -4 42.2 9.6
-7 -4 4 625.64 34.2
7 -4 -4 586.24 30.2
7 -4 -4 634.54 29.6
-7 -4 4 678.73 31.7
7 4 -4 644.74 36.6
7 4 -4 565.04 30.6
7 4 -4 716.73 42
6 -4 -4 92.39 10
-6 -4 4 101.39 11.8
6 -4 -4 87.79 9
-6 -4 4 117.09 10.4
6 4 -4 98.29 18.1
5 -4 -4 689.63 28.1
5 -4 -4 589.04 36.5
5 -4 -4 706.73 30
-5 -4 4 669.53 33.8
-5 -4 4 712.43 29.6
5 4 -4 671.23 38.6
5 4 -4 676.53 29.3
5 4 -4 663.33 31
4 -4 -4 267.47 21.8
4 -4 -4 251.37 14.3
-4 -4 4 267.17 14.7
-4 -4 4 255.37 18.1
4 -4 -4 252.37 13.4
4 4 -4 269.87 19.5
4 4 -4 260.87 21.4
4 4 -4 263.87 14.1
4 4 -4 243.68 15.8
-3 -4 4 634.94 24.9
3 -4 -4 610.74 30.3
-3 -4 4 579.94 25.5
3 -4 -4 588.34 24.6
3 -4 -4 604.94 23.6
3 -4 -4 559.14 31.4
3 4 -4 571.14 26.9
3 4 -4 611.64 30.6
3 4 -4 616.24 24.1
3 4 -4 590.24 33.2
-2 -4 4 357.96 15.8
2 -4 -4 352.66 23.1
2 -4 -4 378.36 15.3
-2 -4 4 352.26 17.6
2 -4 -4 351.06 20.9
2 -4 -4 349.47 15
-2 -4 4 338.17 13.8
2 4 -4 365.16 20.4
2 4 -4 353.56 15.1
2 4 -4 371.96 23.6
2 4 -4 333.17 14.2
-1 -4 4 107.99 8.8
-1 -4 4 120.09 7.2
-1 -4 4 108.19 6.4
1 -4 -4 111.19 7
1 -4 -4 93.69 12.1
1 -4 -4 129.89 11.7
1 -4 -4 118.09 6.8
1 4 -4 97.49 11.1
1 4 -4 108.79 9.7
1 4 -4 110.09 6.2
0 -4 -4 745.53 27
0 -4 4 717.03 30.7
0 -4 -4 738.83 28.7
0 -4 -4 749.03 33.8
0 -4 4 740.63 26.5
0 -4 4 728.03 27.2
0 -4 -4 716.23 35
0 4 -4 715.63 30.6
0 4 -4 745.83 34
-1 -4 -4 1226.08 43
1 -4 4 1235.78 41.8
-1 -4 -4 1261.57 50.09
-1 -4 -4 1161.38 50.69
1 -4 4 1182.38 46.7
-1 -4 -4 1230.48 42.4
1 -4 4 1205.48 43.6
1 -4 4 1148.49 45.5
-1 4 -4 1248.68 48.6
1 4 4 1279.77 49.7
1 4 4 1242.88 47.5
1 4 4 1245.08 42.2
-2 -4 -4 754.12 37.6
-2 -4 -4 872.21 33.9
2 -4 4 824.42 33.1
2 -4 4 845.12 29.5
2 -4 4 817.82 31.7
-2 -4 -4 825.92 28.5
-2 -4 -4 819.62 36.9
2 4 4 811.52 35.6
-2 4 -4 819.22 33.9
2 4 4 813.02 36.4
2 4 4 777.92 29.9
2 4 4 643.04 38.6
-3 -4 -4 88.49 13.3
3 -4 4 135.49 8.5
3 -4 4 144.79 10.1
-3 -4 -4 146.29 11.2
-3 -4 -4 132.89 6.7
3 -4 4 123.19 10.2
3 4 4 136.39 12.7
-3 4 -4 128.89 9.8
3 4 4 137.89 12.3
3 4 4 135.69 12.7
3 4 4 123.29 8.8
4 -4 4 817.82 36.8
-4 -4 -4 836.92 36.4
4 -4 4 793.52 34.1
-4 -4 -4 747.33 45.5
4 -4 4 836.42 34.7
-4 -4 -4 851.21 28.7
4 -4 4 819.02 32.3
4 4 4 826.22 30
4 4 4 776.72 32.9
4 4 4 886.41 39.9
4 4 4 847.52 39.8
4 4 4 830.72 38
5 -4 4 42.6 7.6
5 -4 4 42 6.7
-5 -4 -4 29.8 5.9
-5 -4 -4 31.8 15.5
5 -4 4 37.1 7.9
5 -4 4 20.4 4.8
5 4 4 34 8
5 4 4 43.3 5.9
5 4 4 34 7.1
5 4 4 24.2 6.8
-6 -4 -4 746.53 40.2
6 -4 4 761.82 35.9
6 -4 4 791.82 33.2
6 -4 4 825.92 33.8
6 4 4 749.53 36.9
6 4 4 782.82 40.6
6 4 4 788.42 41.5
6 4 4 734.83 33.9
6 4 4 736.63 31.6
-7 -4 -4 114.39 12.8
7 -4 4 126.69 11.6
7 -4 4 126.89 12
7 -4 4 132.59 11.1
7 4 4 121.69 16.1
7 4 4 124.19 12.3
7 4 4 110.79 13
7 4 4 108.19 13.4
7 4 4 85.39 16.1
8 -4 4 294.97 19.6
-8 -4 -4 317.37 22.6
8 -4 4 281.67 18.1
8 -4 4 289.27 19.7
8 4 4 269.07 29.9
8 4 4 287.77 24.6
8 4 4 273.87 20.5
8 4 4 250.67 19.4
8 4 4 294.77 26.4
-8 -5 4 68.49 12.7
-8 -5 4 53.69 9.7
8 -5 -4 41.2 8.4
8 5 -4 64.49 13.9
8 5 -4 47.8 13.2
8 5 -4 60.39 14.8
8 5 -4 63.79 17.1
-7 -5 4 73.29 13.1
7 -5 -4 73.79 9.5
-7 -5 4 67.19 9.6
7 -5 -4 56.79 9.3
7 5 -4 55.19 14.5
7 5 -4 65.29 12.1
7 5 -4 64.39 10.6
7 5 -4 72.09 16.8
-6 -5 4 386.56 20.9
6 -5 -4 340.67 25.4
-6 -5 4 400.66 25.5
6 -5 -4 339.07 18.6
6 5 -4 275.97 21.6
6 5 -4 382.16 21.2
6 5 -4 385.76 29
6 5 -4 406.76 31
-5 -5 4 17 5.8
5 -5 -4 1.6 10.9
5 -5 -4 15.9 5.2
-5 -5 4 18 4.3
5 -5 -4 22.4 4.7
5 5 -4 28.3 6.3
5 5 -4 22.4 10.2
5 5 -4 12.5 6.2
5 5 -4 19.7 6.6
-4 -5 4 1087.09 43.3
-4 -5 4 1117.99 49.9
4 -5 -4 1166.58 41
4 -5 -4 1124.89 43.3
4 -5 -4 1046.5 50.39
4 5 -4 1140.29 55.19
4 5 -4 1172.98 51.79
4 5 -4 1123.29 41.5
4 5 -4 1087.39 45.8
-3 -5 4 187.48 12.4
3 -5 -4 180.68 11.2
3 -5 -4 196.38 10.2
-3 -5 4 200.28 16.3
3 5 -4 187.78 18.5
3 5 -4 181.98 16.1
3 5 -4 180.08 10.2
-2 -5 4 667.53 26.4
2 -5 -4 715.33 25.6
2 -5 -4 721.63 26.8
2 -5 -4 692.13 25.5
-2 -5 4 663.83 24.5
-2 -5 4 666.93 29.4
2 5 -4 698.83 37.1
2 5 -4 691.23 33.5
-1 -5 4 117.29 8.2
-1 -5 4 143.19 7.8
1 -5 -4 139.09 8.8
-1 -5 4 131.39 10.4
1 -5 -4 141.29 7.6
1 5 -4 150.38 14.8
1 5 -4 154.78 16.4
0 -5 -4 102.19 12.9
0 -5 -4 97.69 6.5
0 -5 4 95.29 9.1
0 5 -4 92.89 11.2
0 5 -4 83.49 9.4
1 -5 4 607.24 26.1
-1 -5 -4 746.93 30.7
1 -5 4 741.63 36.9
1 -5 4 714.63 32
-1 -5 -4 723.53 35.8
-1 -5 -4 701.83 26.9
1 -5 4 722.83 28.4
1 5 4 735.53 35
-1 5 -4 754.32 34.8
1 5 4 676.63 25.4
2 -5 4 210.38 17.3
-2 -5 -4 200.88 13.9
2 -5 4 208.18 10
2 -5 4 206.18 12.6
-2 -5 -4 213.38 9.8
2 5 4 198.78 16.4
2 5 4 205.18 16.7
2 5 4 197.08 10.5
-2 5 -4 203.98 15
2 5 4 220.48 16.4
3 -5 4 888.01 32.1
3 -5 4 887.51 38.9
3 -5 4 866.41 35.7
-3 -5 -4 877.41 38
-3 5 -4 856.01 36.7
3 5 4 848.72 41.4
3 5 4 889.21 41.9
3 5 4 885.81 41.7
3 5 4 851.61 33
4 -5 4 151.58 9.5
-4 -5 -4 143.09 12.8
4 -5 4 134.99 13.7
4 -5 4 117.19 13
4 -5 4 124.39 10.8
4 5 4 123.29 9.7
4 5 4 132.89 14.6
4 5 4 128.69 13.9
-5 -5 -4 581.04 35.4
5 -5 4 627.44 30.9
5 -5 4 665.63 30.9
5 -5 4 622.24 31.9
5 -5 4 651.93 27.2
5 5 4 621.84 25.4
5 5 4 612.24 33.9
5 5 4 586.14 35.8
5 5 4 602.44 27.8
5 5 4 669.53 36.4
6 -5 4 106.69 11.1
6 -5 4 86.09 13.7
6 -5 4 97.69 9.9
-6 -5 -4 93.39 11.7
6 5 4 69.79 15.8
6 5 4 92.59 15.5
6 5 4 99.89 9.9
6 5 4 111.09 13.7
6 5 4 102.39 10.6
6 5 4 109.09 12.9
7 -5 4 147.79 13.8
7 -5 4 102.89 17.5
7 -5 4 148.99 12.4
7 -5 4 130.49 12.3
-7 -5 -4 134.09 14.6
7 5 4 141.49 13.5
7 5 4 96.99 20.8
7 5 4 142.59 18.7
7 5 4 142.69 16.8
7 5 4 121.39 19.6
6 -6 -4 38.2 6.5
6 -6 -4 44.2 8.9
-6 -6 4 45.4 10.1
-6 -6 4 37.2 7.1
6 6 -4 34.3 9
6 6 -4 43.7 12.4
6 6 -4 40.4 12.3
-5 -6 4 11.1 5.5
5 -6 -4 21 4.3
5 -6 -4 8.6 5.3
5 -6 -4 18.7 15.4
-5 -6 4 18 4.9
5 6 -4 28.2 5.6
5 6 -4 28.5 9.9
5 6 -4 12.6 9
-4 -6 4 61.79 7.8
-4 -6 4 55.99 11.1
4 -6 -4 58.39 8.4
4 -6 -4 47.1 12.3
4 6 -4 72.09 12.5
4 6 -4 53.59 6.7
4 6 -4 68.29 14.2
3 -6 -4 33.6 11.3
3 -6 -4 59.89 7.1
-3 -6 4 77.69 13.6
-3 -6 4 55.19 7.4
3 6 -4 50.79 12.9
3 6 -4 58.89 11.8
2 -6 -4 183.38 10.1
-2 -6 4 180.78 8.6
-2 -6 4 187.08 13.1
2 -6 -4 171.08 10.5
-2 -6 4 170.38 16
2 -6 -4 177.98 9.9
2 6 -4 153.68 15.5
2 6 -4 169.98 18.4
-1 -6 4 288.97 13.2
-1 -6 4 281.57 17.3
1 6 -4 291.17 22.8
1 6 -4 297.07 20.3
0 -6 4 48 8.4
0 -6 -4 52.39 6.7
0 -6 4 43.6 5.4
0 6 -4 51.39 9.1
0 6 -4 52.49 10.9
-1 -6 -4 9.1 2.8
1 -6 4 9.5 4.9
1 -6 4 14.3 3.6
-1 -6 -4 15.4 4.8
-1 -6 -4 22.2 9.1
-1 6 -4 14.4 6
2 -6 4 76.39 12.3
-2 -6 -4 77.89 5.8
2 -6 4 78.19 8.1
-2 -6 -4 71.59 8.8
2 -6 4 77.99 9.9
2 6 4 81.99 13.7
-2 6 -4 82.19 10.9
2 6 4 64.09 12.6
3 -6 4 43.9 7
3 -6 4 45.7 9.7
-3 -6 -4 55.99 9.8
3 6 4 41.9 9.8
-3 6 -4 43.4 8.8
3 6 4 55.29 7.2
3 6 4 52.59 6.7
3 6 4 68.39 12.8
4 -6 4 116.09 17.4
4 -6 4 117.09 15.7
-4 -6 -4 138.19 14
4 -6 4 118.39 14.8
4 6 4 136.69 16.6
4 6 4 119.79 16.3
4 6 4 122.59 9.4
5 -6 4 1 5.4
-5 -6 -4 2.1 3.6
5 -6 4 5 3.3
5 -6 4 10.5 10.4
5 -6 4 -2 3.2
5 6 4 -0.1 3.6
5 6 4 4.2 5.8
5 6 4 0.9 6
5 6 4 1.3 5.9
6 -6 4 143.29 12.1
6 -6 4 182.88 14.7
6 -6 4 136.89 20.9
6 -6 4 190.48 15.6
-6 -6 -4 194.18 17.6
6 -6 4 187.28 13.1
6 6 4 168.28 20.4
6 6 4 167.58 14.2
6 6 4 200.08 19.8
6 6 4 177.48 18.8
6 6 4 188.68 13.4
-5 -7 4 9.5 6.1
5 7 -4 19.9 9.8
5 7 -4 23.2 9.7
-4 -7 4 137.79 16.2
-4 -7 4 119.59 12.1
4 -7 -4 108.09 11.9
4 7 -4 91.39 17.3
4 7 -4 89.49 15.5
-3 -7 4 139.09 11.8
3 -7 -4 130.29 10.1
3 -7 -4 120.39 10.7
-3 -7 4 131.39 15.6
3 7 -4 144.89 19.7
3 7 -4 151.98 17.3
2 -7 -4 189.58 11.3
-2 -7 4 190.38 18.2
2 -7 -4 203.88 10.9
-2 -7 4 187.08 14.1
2 7 -4 178.18 20.8
2 7 -4 191.08 18.3
-1 -7 4 31 4.4
1 -7 -4 37.9 6.3
-1 -7 4 36.2 7
1 -7 -4 19.1 14.4
1 7 -4 39.9 10.2
1 7 -4 31.8 9.5
0 -7 4 22.9 6
0 -7 4 22.2 4.4
0 -7 -4 29.1 6.3
0 -7 -4 44.1 13.3
0 7 -4 37.2 11.2
1 -7 4 153.08 10.9
1 -7 4 152.28 13.9
-1 -7 -4 156.38 13.1
-1 -7 -4 145.59 9.8
-1 -7 -4 142.29 27
-1 7 -4 155.48 16.7
2 -7 4 85.09 9
2 -7 4 65.29 14.7
-2 -7 -4 77.49 10
2 -7 4 63.49 14.1
-2 7 -4 91.29 14.1
2 7 4 64.79 13.4
-3 -7 -4 236.88 17.9
3 -7 4 228.28 18.6
3 -7 4 220.08 26.7
3 -7 4 238.48 16.4
3 7 4 218.48 21.5
-3 7 -4 213.48 18.2
3 7 4 242.78 22.7
4 -7 4 170.88 21.2
-4 -7 -4 252.87 19.3
4 -7 4 225.18 16.5
4 7 4 236.58 22.7
4 7 4 249.28 22.7
10 0 -5 12.8 10.2
-10 0 5 28.4 6.3
9 0 -5 -3.4 6.8
9 0 -5 -8 5
-9 0 5 0.9 2.9
-8 0 5 72.39 7.6
8 0 -5 74.29 11.7
8 0 -5 72.59 15.2
7 0 -5 3 3.7
-7 0 5 2.3 2.5
7 0 -5 -0.5 3.3
-6 0 5 11.5 3.5
-6 0 5 12.2 4.3
6 0 -5 8.7 3.7
-6 0 5 8.9 3.5
6 0 -5 11.6 3.9
-5 0 5 79.19 7.6
5 0 -5 63.89 6.6
-5 0 5 64.09 7.1
5 0 -5 71.39 7.5
-5 0 5 68.39 6.5
-4 0 5 89.69 7.6
4 0 -5 96.09 7.8
4 0 -5 96.59 7.3
-4 0 5 91.69 8.6
3 0 -5 0 2.1
3 0 -5 1 1.4
-3 0 5 1.9 1.3
-3 0 5 3.8 1.8
-2 0 5 575.74 22
-2 0 5 580.44 23
2 0 -5 603.44 22.7
2 0 -5 590.04 23.3
2 0 -5 577.64 22.6
1 0 -5 0.1 0.9
-1 0 5 2 1.4
-1 0 5 4.1 1.6
1 0 -5 3.5 1.5
1 0 -5 1.5 1.2
0 0 -5 148.89 8.5
0 0 5 147.79 10.1
0 0 -5 169.08 8.1
0 0 5 158.98 8.2
1 0 5 393.16 16
1 0 5 384.86 16.7
-1 0 -5 393.56 16.8
1 0 5 388.46 18.4
-1 0 -5 407.36 16
-2 0 -5 831.02 36
2 0 5 869.41 32.7
2 0 5 797.12 29.8
2 0 5 847.22 31.4
-2 0 -5 790.82 35
3 0 5 202.78 11.9
3 0 5 186.78 10.2
-3 0 -5 200.88 10.7
-3 0 -5 210.78 11.6
3 0 5 199.98 11.8
4 0 5 10.9 3.2
4 0 5 14 3.8
-4 0 -5 17 3.7
-4 0 -5 6 4
4 0 5 12.7 3.2
5 0 5 206.38 13.6
5 0 5 224.78 12.3
5 0 5 213.68 13.8
-5 0 -5 209.38 16.6
-5 0 -5 224.58 12.8
-6 0 -5 1.3 4.2
6 0 5 4 2.7
6 0 5 0.9 2.6
6 0 5 0.7 3
7 0 5 320.57 22.6
7 0 5 423.66 20.2
-7 0 -5 437.76 27.5
7 0 5 421.86 23.1
7 0 5 372.76 22.5
-8 0 -5 4.7 5.3
8 0 5 -0.3 5.7
8 0 5 12.5 5.7
8 0 5 9.7 3.9
8 0 5 4.3 4.3
9 0 5 332.87 24.8
-9 0 -5 333.37 26.9
9 0 5 340.57 19.5
9 0 5 326.57 22.6
9 0 5 333.77 24.8
10 -1 -5 56.19 19
-10 -1 5 39.2 7.7
10 1 -5 40.4 12.3
-10 1 5 39.3 6.9
10 1 -5 25.7 12.7
9 -1 -5 344.17 22.1
-9 -1 5 352.56 19.9
-9 1 5 325.47 16.4
9 1 -5 275.57 24.6
9 1 -5 265.47 22.1
8 -1 -5 51.79 9.4
-8 -1 5 81.79 9
-8 1 5 70.49 6.6
8 1 -5 63.59 11.8
8 1 -5 64.99 9.4
-7 -1 5 -0.4 2.3
7 -1 -5 2.2 3.5
-7 -1 5 0 2.5
7 -1 -5 -1.3 2.9
7 1 -5 -4 3.7
-7 1 5 2 1.9
-6 -1 5 732.83 31.2
6 -1 -5 744.13 31.7
6 -1 -5 693.73 29.9
-6 -1 5 717.53 31.6
-6 1 5 684.43 26.5
6 1 -5 648.44 39.6
-5 -1 5 120.89 9.5
-5 -1 5 107.69 9.7
5 -1 -5 123.19 9.7
-5 -1 5 125.19 9.9
5 -1 -5 124.19 9
5 1 -5 127.19 9.8
-5 1 5 131.89 11.5
5 1 -5 128.69 10
-5 1 5 124.29 7.5
-5 1 5 139.29 10.9
-4 -1 5 1061.29 39.3
4 -1 -5 1022.3 37.7
4 -1 -5 1062.39 39.2
-4 1 5 1063.89 39.5
-4 1 5 1026.9 38.7
4 1 -5 1010.1 39
4 1 -5 963 38.5
-3 -1 5 798.12 29.9
3 -1 -5 811.92 30.6
-3 -1 5 781.42 30.5
3 -1 -5 791.32 29.1
-3 1 5 781.42 30.2
-3 1 5 803.32 29.9
3 1 -5 795.72 30.7
3 1 -5 765.62 28.8
3 1 -5 797.42 30.6
-2 -1 5 165.68 9.1
2 -1 -5 162.08 9.2
-2 -1 5 160.28 9.3
2 -1 -5 173.18 8.3
-2 1 5 158.58 8.1
-2 1 5 155.48 9
2 1 -5 154.98 10.3
2 1 -5 172.38 8.5
1 -1 -5 712.33 26.4
-1 -1 5 672.93 25.4
1 -1 -5 743.93 26.5
1 -1 -5 697.23 24.7
-1 -1 5 679.73 26.4
-1 -1 5 703.93 26.4
1 1 -5 705.13 25.2
-1 1 5 705.73 27
-1 1 5 659.13 26
1 1 -5 710.03 26.3
-1 1 5 676.93 24.1
0 -1 -5 224.38 11.1
0 -1 5 225.18 10.4
0 -1 -5 220.08 11
0 -1 5 219.18 11.4
0 -1 5 224.98 11.1
0 1 5 223.88 11.1
0 1 5 234.48 11.8
0 1 5 221.48 9.3
0 1 -5 237.08 10.5
0 1 -5 236.08 11.1
1 -1 5 840.42 32.3
-1 -1 -5 950.7 31.6
-1 -1 -5 888.91 32.7
-1 -1 -5 892.41 32.2
1 -1 5 894.21 31.7
-1 -1 -5 888.21 35.4
1 1 5 853.51 33.1
-1 1 -5 894.91 31.8
-1 1 -5 909.41 32.7
1 1 5 873.61 31.7
1 1 5 888.11 32.6
-2 -1 -5 1237.48 44.2
2 -1 5 1216.88 43.4
2 -1 5 1194.18 47.2
2 -1 5 1255.17 44.4
-2 -1 -5 1219.98 47.4
-2 -1 -5 1262.97 44.6
-2 -1 -5 1282.67 42.8
2 1 5 1259.27 44.6
-2 1 -5 1271.47 44.2
2 1 5 1254.07 43
-2 1 -5 1221.58 43.8
2 1 5 1246.08 43.7
2 1 5 1304.57 45.7
-3 -1 -5 1459.15 49.4
-3 -1 -5 1465.95 54.79
3 -1 5 1504.55 51.59
3 -1 5 1393.16 50.09
3 -1 5 1420.06 52.79
-3 -1 -5 1441.66 51.49
3 1 5 1479.15 51.79
-3 1 -5 1406.96 50.79
3 1 5 1426.86 50.99
3 1 5 1422.46 49.1
-3 1 -5 1463.25 50.69
3 1 5 1365.86 51.99
4 -1 5 344.47 17.5
4 -1 5 333.87 16.3
4 -1 5 369.56 18.1
-4 -1 -5 350.26 17.6
-4 -1 -5 346.57 19.9
-4 -1 -5 331.57 15.5
4 1 5 336.57 18.2
-4 1 -5 345.47 16.8
4 1 5 336.87 17.4
4 1 5 333.17 17.5
4 1 5 349.27 15.7
5 -1 5 553.74 23.8
5 -1 5 506.95 24.4
5 -1 5 536.75 25
-5 -1 -5 508.55 27.4
-5 -1 -5 521.35 22.6
5 1 5 594.24 26.9
5 1 5 563.44 25.6
5 1 5 524.25 22.2
6 -1 5 5.8 3.3
6 -1 5 16 5.8
-6 -1 -5 10.4 4.8
6 -1 5 11.8 4.3
6 1 5 9.7 4.8
6 1 5 14.5 3.8
6 1 5 5.9 3.4
6 1 5 8.2 4.2
7 -1 5 219.48 16.4
7 -1 5 259.97 17.3
7 -1 5 255.67 15.5
-7 1 -5 225.18 20.9
7 1 5 267.47 19
7 1 5 276.07 18.1
7 1 5 281.47 14.8
8 -1 5 47.1 8.7
-8 -1 -5 56.99 11.7
8 -1 5 32.3 8.2
8 -1 5 41.9 8.2
8 1 5 53.99 10.4
8 1 5 30.9 9.6
8 1 5 40.8 9.4
8 1 5 56.69 7.9
9 -1 5 182.28 16.5
9 -1 5 146.09 17
9 -1 5 167.18 20.9
9 -1 5 194.78 14.6
-9 -1 -5 210.18 20.4
9 1 5 176.28 16.8
9 1 5 181.58 13
9 1 5 166.68 17.7
9 1 5 148.79 19.4
-9 -2 5 226.48 19.5
9 -2 -5 184.08 23.1
9 -2 -5 293.97 25.2
9 2 -5 202.68 20.7
-8 -2 5 162.08 15.3
-8 -2 5 159.18 14
8 -2 -5 147.59 14.4
8 -2 -5 147.39 13.3
8 2 -5 178.48 15.7
8 2 -5 156.38 14.7
-7 -2 5 526.25 27.5
7 -2 -5 553.94 27.4
7 -2 -5 522.95 25.7
-7 -2 5 532.45 27.5
6 -2 -5 542.85 25.8
-6 -2 5 516.05 26.8
6 -2 -5 580.74 25.3
-6 -2 5 534.05 26
6 2 -5 553.64 26.6
6 2 -5 538.85 22.7
5 -2 -5 416.26 19.9
-5 -2 5 397.46 20.4
5 -2 -5 431.16 20.9
-5 -2 5 449.86 21.6
-5 -2 5 451.05 23.3
5 2 -5 494.85 18.9
-5 2 5 437.56 20.7
5 2 -5 438.36 21.8
5 2 -5 455.95 21.7
4 -2 -5 200.98 11.2
-4 -2 5 206.08 12.5
-4 -2 5 209.88 12.2
4 -2 -5 204.68 12.2
4 2 -5 228.68 10.5
-4 2 5 214.68 12.1
4 2 -5 217.88 12.7
4 2 -5 224.58 13.2
-3 -2 5 1756.12 58.19
3 -2 -5 1631.04 57.39
-3 -2 5 1611.64 57.49
3 -2 -5 1651.13 55.69
3 2 -5 1618.44 57.59
3 2 -5 1668.53 54.99
-3 2 5 1608.14 56.89
3 2 -5 1696.63 59.09
-2 -2 5 281.97 14.3
2 -2 -5 306.77 14
-2 -2 5 303.27 14.1
2 -2 -5 307.27 12.1
-2 -2 5 276.97 12.7
-2 2 5 300.17 12.1
-2 2 5 281.17 13.5
2 2 -5 301.87 12.4
2 2 -5 298.67 13.9
2 2 -5 278.27 14.9
-1 -2 5 280.27 12.5
1 -2 -5 282.97 15.1
-1 -2 5 278.07 14.3
1 -2 -5 295.87 13.5
-1 -2 5 306.27 13.7
1 -2 -5 298.37 11.2
-1 2 5 304.77 13.5
1 2 -5 290.37 12.6
-1 2 5 299.27 11.8
1 2 -5 301.97 13.5
-1 2 5 297.17 13
0 -2 5 856.01 33.9
0 -2 -5 935.11 32.4
0 -2 -5 897.61 32.5
0 -2 -5 898.91 34.6
0 -2 5 862.71 31.5
0 -2 -5 892.21 33.9
0 -2 -5 923.61 35.5
0 -2 5 888.61 32.3
0 2 5 906.61 33
0 2 -5 904.41 31.2
0 2 -5 903.71 31.9
0 2 -5 817.42 32.9
1 -2 5 2732.43 89.19
-1 -2 -5 2831.92 92.29
-1 -2 -5 2774.02 92.79
-1 -2 -5 2821.22 90.19
-1 -2 -5 2745.33 88.59
-1 -2 -5 2644.34 91.69
1 -2 5 2722.73 89.59
1 2 5 2685.33 91.49
-1 2 -5 2690.43 89.69
1 2 5 2757.92 91.99
1 2 5 2649.73 89.59
-1 2 -5 2680.43 89.09
-2 -2 -5 1515.85 55.69
-2 -2 -5 1564.14 51.49
-2 -2 -5 1494.05 55.49
2 -2 5 1588.94 55.99
-2 -2 -5 1580.94 53.89
2 -2 5 1563.24 56.29
2 2 5 1579.24 55.69
2 2 5 1446.76 53.09
2 2 5 1403.66 54.39
-2 2 -5 1525.65 52.69
-2 2 -5 1539.85 53.49
-2 2 -5 1581.54 52.79
2 2 5 1520.25 52.29
3 -2 5 549.25 25.9
-3 -2 -5 546.65 23.4
3 -2 5 511.65 22.3
3 -2 5 539.35 22.6
-3 -2 -5 511.85 24.1
-3 -2 -5 556.74 25.2
3 2 5 536.85 21.5
3 2 5 540.55 25
3 2 5 537.75 21.1
3 2 5 519.25 22.8
3 2 5 505.25 23.9
-3 2 -5 501.05 22.6
-4 -2 -5 1007.1 41.6
4 -2 5 997.3 38.9
-4 -2 -5 1013.6 36.3
4 -2 5 1062.89 40.9
-4 -2 -5 988.4 39.9
4 2 5 1060.09 38.4
4 2 5 1063.99 42.3
4 2 5 907.21 39.3
4 2 5 978.8 40.9
4 2 5 994 36.3
-4 2 -5 1020.5 39.2
-5 -2 -5 365.36 16.7
5 -2 5 369.56 18.7
5 -2 5 374.06 19.3
-5 -2 -5 367.86 21.3
5 -2 5 356.56 19.1
5 2 5 375.86 21.2
5 2 5 370.36 18.6
5 2 5 379.06 19.9
5 2 5 344.07 18
6 -2 5 1210.68 47.1
-6 -2 -5 1177.88 49.99
6 -2 5 1152.58 45.7
6 2 5 1142.29 42.5
6 2 5 1230.18 46.4
6 2 5 1145.79 50.09
6 2 5 1160.98 47.4
6 2 5 1185.18 50.49
7 -2 5 150.08 13.3
-7 -2 -5 124.79 13.5
7 -2 5 133.79 11.4
7 -2 5 135.19 12.3
7 2 5 150.18 16.3
7 2 5 127.39 9.3
7 2 5 147.99 12.6
7 2 5 135.09 12.8
7 2 5 129.69 14.2
8 -2 5 260.57 18.9
-8 -2 -5 288.27 21.8
8 -2 5 296.87 19
8 -2 5 271.47 17.8
8 2 5 301.17 19.3
8 2 5 284.37 22.9
8 2 5 259.27 15
8 2 5 278.87 22.1
8 2 5 275.17 23.4
9 -2 5 302.17 20.9
-9 -2 -5 291.97 23.6
9 -2 5 317.07 19.6
9 -2 5 242.18 20.2
9 2 5 219.88 27.1
9 2 5 297.87 21.4
9 2 5 271.77 21.3
9 2 5 256.47 15.5
9 2 5 274.57 23.2
9 -3 -5 128.19 15.6
9 -3 -5 115.79 15.1
-9 -3 5 168.88 17.3
-9 -3 5 136.89 14.4
9 3 -5 136.99 10.6
9 3 -5 152.68 20.9
9 3 -5 156.18 19.7
9 3 -5 129.49 19.3
8 -3 -5 301.57 18.8
-8 -3 5 281.17 20.4
-8 -3 5 286.27 30.6
8 -3 -5 301.67 24.4
8 3 -5 282.17 14.4
8 3 -5 374.36 34.2
8 3 -5 253.47 21.2
8 3 -5 280.27 21.4
-7 -3 5 20.8 6.2
7 -3 -5 24.6 6.2
-7 -3 5 26.1 6.3
7 -3 -5 15.7 5.1
7 3 -5 23.9 8.3
7 3 -5 26.2 9.4
7 3 -5 24.3 4.1
7 3 -5 17.1 5.7
6 -3 -5 867.31 36.6
-6 -3 5 899.11 40.7
-6 -3 5 861.31 37.2
6 3 -5 894.31 31.8
6 3 -5 924.21 39
-5 -3 5 94.19 8.8
-5 -3 5 88.09 10.2
5 -3 -5 82.29 7.7
-5 -3 5 91.99 8.4
5 -3 -5 92.89 10.2
5 3 -5 73.69 8.4
5 3 -5 96.49 5.9
5 3 -5 81.59 9.1
4 -3 -5 1485.15 54.59
4 -3 -5 1503.45 53.69
-4 -3 5 1639.64 55.89
-4 -3 5 1519.25 55.49
-4 3 5 1532.25 54.19
4 3 -5 1546.85 51.09
4 3 -5 1594.44 55.59
4 3 -5 1477.35 56.89
3 -3 -5 529.25 22
-3 -3 5 505.65 22.3
3 -3 -5 497.75 20.2
-3 -3 5 524.45 23
3 3 -5 528.25 22.2
3 3 -5 524.15 19.6
-3 3 5 526.65 21.5
3 3 -5 546.35 24.5
-2 -3 5 877.71 33.3
2 -3 -5 839.32 35.5
2 -3 -5 827.62 28.8
-2 -3 5 817.82 29.7
2 -3 -5 866.41 37.1
-2 -3 5 820.62 31.4
2 -3 -5 863.51 31.5
-2 3 5 830.32 29.1
2 3 -5 816.62 31.1
2 3 -5 832.52 33.9
-2 3 5 811.92 30.6
2 3 -5 849.52 29.8
1 -3 -5 260.27 12.6
-1 -3 5 314.17 14.7
1 -3 -5 259.87 12.7
1 -3 -5 254.77 16.9
1 -3 -5 267.47 16
-1 -3 5 263.67 11.8
-1 -3 5 260.67 14.4
1 3 -5 243.38 12.1
1 3 -5 271.07 18
1 3 -5 258.07 14.2
-1 3 5 273.27 12.5
-1 3 5 262.47 12.6
1 3 -5 266.77 12.2
0 -3 5 506.65 22.3
0 -3 -5 446.66 24.2
0 -3 5 441.66 19
0 -3 -5 458.85 20.2
0 -3 -5 477.05 19.9
0 -3 5 481.05 19
0 -3 -5 498.05 19.7
0 -3 -5 446.66 22.8
0 3 5 467.45 19.2
0 3 -5 473.75 19.6
0 3 -5 507.45 20.5
0 3 5 482.15 20.9
0 3 -5 475.85 26.4
0 3 -5 463.45 18.7
-1 -3 -5 866.41 31.7
-1 -3 -5 858.41 36.5
-1 -3 -5 844.12 33
1 -3 5 862.41 32.8
-1 -3 -5 851.71 35.6
1 3 5 814.42 31.1
-1 3 -5 837.02 34.7
1 3 5 857.11 34.1
-1 3 -5 850.01 32
-1 3 -5 782.32 30
1 3 5 828.92 34.8
-2 -3 -5 517.05 23.7
2 -3 5 501.95 20.8
-2 -3 -5 525.15 20.1
-2 -3 -5 540.35 25.6
-2 -3 -5 477.65 25.5
2 -3 5 502.25 21.9
-2 -3 -5 528.45 22.4
2 -3 5 508.35 21.3
2 3 5 545.15 25.3
-2 3 -5 541.15 23
-2 3 -5 540.65 22.9
2 3 5 533.45 25.2
-2 3 -5 528.25 20.9
2 3 5 521.45 21.9
-3 -3 -5 1367.66 46.9
3 -3 5 1352.76 50.19
3 -3 5 1359.26 55.29
-3 -3 -5 1316.87 54.09
3 -3 5 1398.26 49.6
3 -3 5 1284.57 51.39
3 3 5 1465.65 46
3 3 5 1476.85 54.99
-3 3 -5 1416.26 48.4
3 3 5 1387.16 50.09
3 3 5 1390.06 53.89
-4 -3 -5 34.7 7.1
4 -3 5 37.7 7.2
4 -3 5 37.5 5.7
-4 -3 -5 28.3 8
4 -3 5 36.5 5.7
4 -3 5 31.3 5.1
4 3 5 43.5 7.4
4 3 5 43.8 4.8
4 3 5 35.9 4.3
4 3 5 32.2 6.9
4 3 5 34.1 5.7
5 -3 5 605.24 28.3
-5 -3 -5 549.45 30.8
5 -3 5 629.74 27.5
-5 -3 -5 585.44 29.7
-5 -3 -5 633.04 23.9
5 -3 5 596.74 27.4
5 3 5 618.64 24.4
5 3 5 614.04 28.6
5 3 5 639.74 31.9
5 3 5 587.84 25
5 3 5 598.14 27.8
6 -3 5 18 5.4
6 -3 5 15.6 5.4
6 -3 5 9.3 4.2
-6 -3 -5 11.2 5.5
6 3 5 12 4.5
6 3 5 13.5 5.9
6 3 5 16.7 4.6
6 3 5 9.9 4.3
7 -3 5 195.58 14.9
7 -3 5 198.28 14.7
-7 -3 -5 209.78 17.2
7 -3 5 176.68 14.1
7 3 5 192.38 11.6
7 3 5 204.68 18.3
7 3 5 198.08 15.6
7 3 5 194.08 14.5
7 3 5 182.98 18.8
7 3 5 187.68 14.4
-8 -3 -5 90.09 12.6
8 -3 5 76.89 11.1
8 -3 5 86.79 10.6
8 -3 5 95.09 11.4
8 3 5 86.39 12.1
8 3 5 85.19 13.5
8 3 5 67.69 10.7
8 3 5 97.59 8.6
8 3 5 100.99 16.9
8 -4 -5 5.3 5.9
-8 -4 5 6.2 4.4
-8 -4 5 4.9 5.2
8 -4 -5 17.7 7.6
8 4 -5 -3.7 7.4
8 4 -5 27.8 14.1
8 4 -5 -13.8 7.8
7 -4 -5 136.09 12.6
-7 -4 5 156.88 14.2
7 -4 -5 153.08 13.2
-7 -4 5 149.29 15.4
7 4 -5 141.79 25.7
7 4 -5 170.88 16.3
7 4 -5 194.68 16
6 -4 -5 36.7 7
6 -4 -5 32.7 6.5
-6 -4 5 48.4 8.4
-6 -4 5 31.2 8.4
6 4 -5 38.9 7.2
6 4 -5 20.1 6.5
6 4 -5 43 12.4
-5 -4 5 118.49 9.9
5 -4 -5 112.19 9.4
-5 -4 5 114.49 12.6
5 -4 -5 106.89 9.3
5 4 -5 105.19 18.5
4 -4 -5 106.09 7.9
-4 -4 5 94.19 8.6
-4 -4 5 93.19 8.5
-4 -4 5 106.09 11.5
4 -4 -5 90.89 7.9
4 4 -5 101.59 10.5
4 4 -5 100.99 14
3 -4 -5 10.5 2.6
3 -4 -5 3.8 10.2
3 -4 -5 3.5 4.5
-3 -4 5 3.5 2.4
-3 -4 5 9.1 3
3 -4 -5 11.5 3.2
3 4 -5 14.2 4.9
3 4 -5 14 6
3 4 -5 13.2 3.4
3 4 -5 13.6 2.8
-3 4 5 8.6 2.7
3 4 -5 7 4.3
2 -4 -5 57.89 11
-2 -4 5 42.5 6.7
-2 -4 5 40.1 3.9
2 -4 -5 46 8.5
-2 -4 5 35.6 4.6
2 -4 -5 42.4 3.5
2 -4 -5 44.5 4.7
2 4 -5 51.99 7.4
2 4 -5 37.1 4.9
2 4 -5 38.4 4.2
-2 4 5 37.9 4.2
2 4 -5 39.7 8.4
-1 -4 5 875.31 30.4
1 -4 -5 764.72 38.8
-1 -4 5 853.21 31.3
-1 -4 5 823.92 34.4
1 -4 -5 862.31 31.5
1 -4 -5 842.42 31.1
1 -4 -5 838.82 37.8
1 4 -5 846.52 35.2
-1 4 5 839.32 30.3
1 4 -5 800.42 31.4
1 4 -5 861.01 40
-1 4 5 831.32 32.1
1 4 -5 875.71 30.4
0 -4 5 544.25 21
0 -4 5 525.45 21.4
0 -4 -5 503.75 28.9
0 -4 5 536.75 24.9
0 -4 -5 529.65 22.4
0 -4 -5 563.44 27.8
0 -4 -5 541.75 21.4
0 -4 -5 535.65 22.6
0 4 -5 529.95 23.8
0 4 -5 508.55 27.2
0 4 5 496.95 20.5
0 4 5 520.05 23.7
0 4 -5 500.95 21.9
0 4 -5 514.65 19.8
-1 -4 -5 338.27 17.1
-1 -4 -5 339.07 14.9
-1 -4 -5 313.27 21.9
1 -4 5 323.37 15.6
1 -4 5 345.67 14.9
-1 -4 -5 351.56 15.8
-1 -4 -5 317.17 20.1
1 -4 5 325.47 18.4
1 4 5 283.57 24.2
1 4 5 333.07 15
-1 4 -5 330.77 13.7
-1 4 -5 330.47 19.3
1 4 5 317.07 18.3
-2 -4 -5 101.29 11.5
-2 -4 -5 111.59 15.1
2 -4 5 106.19 8.1
2 -4 5 102.39 7.2
2 -4 5 95.69 8.5
-2 -4 -5 119.49 8.5
-2 -4 -5 105.89 9.2
-2 4 -5 101.99 9.5
2 4 5 109.09 10.8
2 4 5 84.29 7.2
2 4 5 98.59 10.5
3 -4 5 13.2 3.3
3 -4 5 11.5 3.4
-3 -4 -5 16.5 4.8
-3 -4 -5 13.6 10.7
-3 -4 -5 21.3 3.2
3 -4 5 22.3 5
-3 4 -5 11.2 3.9
3 4 5 12.7 3.6
3 4 5 34.8 8.6
3 4 5 15.5 5.3
-4 -4 -5 353.26 28.4
-4 -4 -5 442.36 23.7
4 -4 5 443.86 25
4 -4 5 436.66 20.3
-4 -4 -5 441.66 17.3
4 -4 5 427.06 21.2
4 -4 5 427.56 21.6
4 4 5 424.66 25.4
4 4 5 435.16 17.1
4 4 5 439.56 21.1
-5 -4 -5 106.89 6.8
5 -4 5 93.79 9
5 -4 5 89.99 10.4
5 -4 5 95.69 9.4
-5 -4 -5 89.39 10.4
5 -4 5 87.59 10.5
5 4 5 88.59 12.1
5 4 5 90.09 7.2
5 4 5 77.29 8.9
5 4 5 104.79 13.9
5 4 5 89.59 10.8
6 -4 5 113.89 10.9
6 -4 5 86.99 10.1
6 -4 5 109.59 10.5
6 -4 5 93.99 12.5
-6 -4 -5 103.09 11.9
6 4 5 98.79 9
6 4 5 95.79 15.3
6 4 5 96.29 11.4
6 4 5 98.89 13.5
6 4 5 95.79 10.3
7 -4 5 121.49 11.8
7 -4 5 108.49 11.4
-7 -4 -5 98.19 12.4
7 -4 5 110.49 11.4
7 4 5 99.39 16.4
7 4 5 97.89 12
7 4 5 105.29 14.7
7 4 5 84.29 11.5
8 -4 5 0.4 3.7
8 -4 5 1.1 4.6
-8 -4 -5 -2.6 3.6
8 -4 5 2.3 6.3
8 4 5 6.5 7.7
8 4 5 -8 7.1
8 4 5 -2 14.5
8 4 5 5.9 5.6
8 4 5 7.3 5.6
7 -5 -5 6.6 5
-7 -5 5 0.7 3.2
-7 -5 5 9.3 6
7 5 -5 6.2 8.5
7 5 -5 -2.7 7.1
7 5 -5 3.7 8.9
6 -5 -5 135.29 12.4
-6 -5 5 125.39 14.4
6 -5 -5 132.59 11.4
6 5 -5 114.99 15.2
6 5 -5 122.59 13.4
6 5 -5 158.48 20.7
6 5 -5 148.39 18.8
5 -5 -5 91.49 14.2
-5 -5 5 143.29 18.3
5 -5 -5 132.99 10.7
5 -5 -5 129.59 10.1
-5 -5 5 130.99 11
5 5 -5 119.09 12.9
5 5 -5 130.79 16.1
5 5 -5 140.29 18.6
-4 -5 5 242.98 19.1
4 -5 -5 218.38 12.9
4 -5 -5 232.98 12.9
-4 -5 5 222.18 14.5
4 5 -5 249.28 23
4 5 -5 240.28 19.7
4 5 -5 227.78 13.5
-3 -5 5 84.89 8.4
3 -5 -5 73.49 6.4
-3 -5 5 70.59 7
3 5 -5 61.69 14.5
3 5 -5 62.79 10.4
3 5 -5 55.89 6.6
-2 -5 5 158.88 11.8
-2 -5 5 148.79 8.1
2 -5 -5 155.58 9.1
-2 -5 5 146.39 9.4
2 5 -5 156.28 16.5
2 5 -5 162.78 14.1
2 5 -5 150.18 8.6
-1 -5 5 22.7 3.9
-1 -5 5 20.8 3.4
1 -5 -5 24.8 4.3
-1 -5 5 19.8 4.7
1 -5 -5 30.7 4
1 5 -5 17.9 6.8
1 5 -5 27.2 6.5
0 -5 5 304.87 17.8
0 -5 -5 297.37 15.5
0 -5 5 279.37 13.1
0 -5 -5 286.77 23.8
0 -5 -5 298.97 13.9
0 -5 5 284.57 13.8
0 5 -5 291.57 17.7
0 5 -5 230.38 18.7
-1 -5 -5 70.89 6.6
1 -5 5 66.89 6.6
-1 -5 -5 72.49 6.3
1 -5 5 82.59 9.2
-1 -5 -5 86.79 8.2
1 -5 5 89.29 6.2
-1 5 -5 83.69 10.4
1 5 5 76.19 5.9
1 5 5 67.99 9.2
-2 -5 -5 108.29 7
2 -5 5 114.39 11.7
-2 -5 -5 116.89 10.3
2 -5 5 113.29 9.1
2 -5 5 112.79 7.5
2 5 5 120.39 12.7
-2 5 -5 123.79 11.8
2 5 5 100.49 7.6
2 5 5 109.49 13.7
-3 -5 -5 434.66 23.1
3 -5 5 412.46 18.4
3 -5 5 393.86 22.3
-3 -5 -5 413.46 16.4
3 -5 5 416.96 20.9
3 5 5 392.66 25.1
3 5 5 392.66 18.9
-3 5 -5 435.16 22.3
4 -5 5 229.48 15.7
4 -5 5 256.97 19.9
-4 -5 -5 264.37 18.1
4 -5 5 263.37 21.4
4 -5 5 281.37 14.5
4 5 5 264.47 20.7
4 5 5 246.08 14.7
4 5 5 232.08 20.9
4 5 5 245.08 19.4
5 -5 5 322.57 20.8
-5 -5 -5 318.27 20.9
5 -5 5 295.87 16.6
5 -5 5 299.47 18.4
5 -5 5 268.07 19.9
5 5 5 252.37 24.1
5 5 5 302.57 23.2
5 5 5 284.77 17.3
5 5 5 278.97 13.8
5 5 5 278.17 20.9
6 -5 5 77.79 9.1
-6 -5 -5 45.6 8.2
6 -5 5 65.99 10.2
6 -5 5 45.3 7.8
6 -5 5 39.7 10.6
6 5 5 40.2 14.2
6 5 5 57.09 9.1
6 5 5 54.79 11.3
6 5 5 60.29 7.7
6 5 5 60.39 11.1
7 -5 5 159.88 13.6
-7 -5 -5 158.48 16.2
7 -5 5 138.39 13.7
7 -5 5 168.48 14.6
7 5 5 150.18 19.7
7 5 5 130.69 23.4
7 5 5 108.49 13.6
7 5 5 150.08 14.4
-6 -6 5 88.49 10.2
-6 -6 5 68.29 11.9
6 -6 -5 62.39 8.6
6 -6 -5 71.29 10.1
6 6 -5 63.69 10.6
6 6 -5 62.59 12.9
6 6 -5 82.89 17
6 6 -5 95.99 19.5
-5 -6 5 570.64 33.4
5 -6 -5 546.55 23.9
-5 -6 5 522.75 26.3
5 6 -5 521.65 35
5 6 -5 534.15 38.3
5 6 -5 541.45 30.3
5 6 -5 471.55 25.9
4 -6 -5 126.09 23.1
4 -6 -5 112.59 8.5
-4 -6 5 114.29 14.2
4 -6 -5 113.89 9.3
-4 -6 5 119.39 10.9
4 6 -5 109.89 15.1
4 6 -5 107.59 18.2
3 -6 -5 750.42 28.1
3 -6 -5 716.33 29.3
-3 -6 5 695.23 32.1
3 -6 -5 662.33 39.9
3 6 -5 778.82 38.8
2 -6 -5 306.17 24.8
2 -6 -5 293.77 18.2
-2 -6 5 304.37 18.3
-2 -6 5 320.87 13.7
2 -6 -5 304.77 14.5
2 6 -5 328.87 22.3
2 6 -5 301.67 25
-1 -6 5 259.87 17.2
-1 -6 5 279.17 13.2
1 -6 -5 257.97 17.9
-1 -6 5 270.47 12.9
1 6 -5 274.37 22.6
1 6 -5 303.57 20.1
0 -6 -5 439.36 22
0 -6 5 465.15 24.8
0 -6 -5 456.65 21.7
0 -6 5 450.95 20.1
0 6 -5 472.55 25.6
0 6 -5 494.85 29.6
1 -6 5 427.86 24.1
-1 -6 -5 377.16 35.7
-1 -6 -5 420.66 22.1
-1 -6 -5 412.26 18.6
1 -6 5 426.06 20
-1 6 -5 436.46 26.8
-2 -6 -5 483.15 19.3
2 -6 5 449.06 26.7
2 -6 5 486.85 23
2 -6 5 480.55 26.6
-2 -6 -5 493.95 25.4
-2 6 -5 466.65 27
2 6 5 484.05 29.5
-3 -6 -5 119.99 12
3 -6 5 106.29 14.3
3 -6 5 112.59 7.7
3 -6 5 115.89 10.6
3 6 5 117.29 14.9
3 6 5 109.29 8.5
-3 6 -5 126.59 12.6
4 -6 5 210.98 21.5
4 -6 5 313.87 18.6
4 -6 5 305.67 14.9
-4 -6 -5 309.07 20.7
4 -6 5 278.17 22.5
4 6 5 285.77 23.3
4 6 5 279.07 22.6
-5 -6 -5 2.7 4.1
5 -6 5 6.4 3.7
5 -6 5 3.7 3.7
5 -6 5 8.7 6.8
5 6 5 2.5 5.3
5 6 5 -7.1 3.6
5 6 5 11.2 7.5
5 6 5 3.2 6
-4 -7 5 616.24 36.4
-4 -7 5 557.04 28.2
4 -7 -5 557.44 25.1
4 7 -5 609.64 41.6
4 7 -5 533.85 36.5
-3 -7 5 27.9 8.7
-3 -7 5 25.4 6.1
3 7 -5 26 9.1
3 7 -5 9.4 10.2
2 -7 -5 587.64 24.2
-2 -7 5 625.34 35.2
-2 -7 5 597.74 36
2 7 -5 537.85 32.7
2 7 -5 539.45 37.3
1 -7 -5 12.3 4.2
-1 -7 5 6.4 2.9
1 7 -5 5.7 6.2
1 7 -5 19.2 7.1
0 -7 -5 324.97 18.4
0 -7 -5 277.57 19.1
0 -7 5 304.27 15.7
0 -7 5 295.87 25.3
0 7 -5 357.16 26.3
1 -7 5 409.76 20.1
-1 -7 -5 373.76 18.4
1 -7 5 452.05 25.4
-1 -7 -5 432.16 23.3
-1 7 -5 387.96 28.7
2 -7 5 517.95 24.9
2 -7 5 525.85 29.4
-2 -7 -5 481.15 27.1
-2 7 -5 528.05 30.9
3 -7 5 357.56 30.7
3 -7 5 440.96 22.9
3 -7 5 407.16 26
-3 -7 -5 418.36 25.2
-3 7 -5 398.56 25.2
3 7 5 416.96 30
-9 0 6 374.06 19.6
9 0 -6 360.66 25.6
-8 0 6 -1.1 2.5
8 0 -6 -0.4 3.7
8 0 -6 8.7 5.8
-7 0 6 1528.95 61.39
7 0 -6 1502.95 58.39
-7 0 6 1576.84 56.29
7 0 -6 1524.25 59.79
-6 0 6 124.49 11
6 0 -6 122.79 11.1
6 0 -6 124.19 10.1
-6 0 6 123.09 9.5
-6 0 6 119.39 10.5
-5 0 6 270.67 14.7
5 0 -6 271.27 15.1
-5 0 6 256.17 15.1
5 0 -6 262.07 15.5
-5 0 6 274.67 15.5
-4 0 6 143.29 10.2
4 0 -6 162.88 10.1
4 0 -6 140.29 10.3
-4 0 6 143.19 9.5
3 0 -6 750.82 29
3 0 -6 746.13 29.1
3 0 -6 776.92 30
-3 0 6 704.33 28
2 0 -6 439.36 19.4
-2 0 6 413.16 17.8
2 0 -6 470.55 18.8
-2 0 6 442.96 19.2
2 0 -6 454.15 19
1 0 -6 1386.36 47.8
1 0 -6 1472.55 51.49
-1 0 6 1362.26 48.3
-1 0 6 1318.87 46.9
-1 0 6 1339.37 48.3
1 0 -6 1376.66 47.3
0 0 6 13.5 4.3
0 0 6 9.9 2.2
0 0 -6 13.3 2.3
0 0 6 14.6 3
0 0 6 11.7 3
-1 0 -6 3521.75 111.79
-1 0 -6 3464.45 112.99
1 0 6 3486.05 115.79
1 0 6 3328.47 112.89
1 0 6 3461.65 111.89
-2 0 -6 350.06 15.4
-2 0 -6 343.17 16.4
2 0 6 340.77 16.4
2 0 6 343.57 15.3
2 0 6 352.86 17.8
3 0 6 2129.69 72.09
3 0 6 2089.59 69.99
-3 0 -6 2163.38 71.99
-3 0 -6 1900.11 77.09
-3 0 -6 2059.89 70.19
4 0 6 564.54 23.4
-4 0 -6 578.44 31.1
4 0 6 607.14 26.4
4 0 6 598.64 24.2
4 0 6 560.04 26
-4 0 -6 569.44 24.4
5 0 6 77.19 8.4
5 0 6 62.69 6.4
-5 0 -6 58.69 10.6
-5 0 -6 68.39 7.1
-6 0 -6 841.12 43.5
6 0 6 882.81 38
6 0 6 895.81 34.9
6 0 6 837.82 37.6
-7 0 -6 33.6 9.4
7 0 6 26.5 5.3
7 0 6 18.4 6.2
7 0 6 26.5 6.8
8 0 6 468.05 29
8 0 6 483.15 27.8
-8 0 -6 509.15 33.8
8 0 6 520.65 29
8 0 6 508.85 24.5
9 0 6 63.39 14.1
9 0 6 64.89 12.2
9 0 6 51.79 9.8
-9 0 -6 54.09 14.3
9 0 6 56.49 8.7
-9 -1 6 321.77 19.3
9 -1 -6 321.77 33.2
9 1 -6 315.17 23
9 1 -6 262.67 23.3
-9 1 6 293.27 15.2
-8 -1 6 54.89 7.9
8 -1 -6 38 9
8 -1 -6 55.89 9.5
-8 -1 6 44.2 9.4
-8 1 6 49.4 5.6
8 1 -6 31.6 7.2
8 1 -6 56.09 10.3
7 -1 -6 211.48 16.4
7 -1 -6 215.68 15
-7 -1 6 223.08 15.2
-7 -1 6 240.48 16.9
-7 1 6 234.88 12
7 1 -6 229.88 16.5
6 -1 -6 511.65 24.9
-6 -1 6 514.05 24.8
-6 -1 6 479.85 24.5
-6 -1 6 513.05 24.9
6 1 -6 484.45 24.8
6 1 -6 432.56 26.2
-6 1 6 525.55 24.6
-6 1 6 516.55 20.7
-5 -1 6 361.36 18.9
-5 -1 6 346.37 18.3
5 -1 -6 383.46 19.3
5 -1 -6 373.96 18.2
-5 1 6 343.27 19.3
5 1 -6 392.66 19.7
-5 1 6 404.56 19.3
5 1 -6 369.76 19.1
5 1 -6 379.16 18
-5 1 6 356.36 16.2
-4 -1 6 2031 73.79
4 -1 -6 2322.07 75.79
4 -1 -6 2156.18 73.59
-4 -1 6 2226.28 75.39
-4 1 6 2189.98 74.89
-4 1 6 2043.1 74.79
4 1 -6 2198.88 75.29
4 1 -6 2172.18 73.29
4 1 -6 2181.48 75.59
-3 -1 6 120.79 8.3
-3 -1 6 127.29 9
3 -1 -6 128.19 9.2
-3 1 6 133.19 8.2
3 1 -6 134.49 9.2
3 1 -6 119.89 8.7
3 1 -6 126.69 7.9
-3 1 6 124.69 8.8
-2 -1 6 1642.64 60.09
2 -1 -6 1769.72 60.69
2 -1 -6 1764.42 60.49
-2 -1 6 1890.91 60.39
2 -1 -6 1806.32 58.79
2 1 -6 1779.22 60.59
-2 1 6 1664.63 57.89
2 1 -6 1705.53 60.69
-2 1 6 1708.83 60.09
-1 -1 6 165.78 9.9
1 -1 -6 185.88 9
-1 -1 6 162.78 9.8
1 -1 -6 175.78 9.7
-1 -1 6 165.98 9.3
-1 1 6 197.98 11.2
-1 1 6 183.58 10.3
-1 1 6 185.38 8.3
1 1 -6 159.28 10.1
1 1 -6 178.38 10.5
1 1 -6 180.88 10.1
0 -1 6 850.91 31.2
0 -1 6 929.31 33
0 -1 6 830.42 32.1
0 -1 -6 836.52 32.1
0 -1 -6 884.81 33.7
0 -1 -6 869.41 31.3
0 1 6 822.22 32.1
0 1 6 896.01 33.4
0 1 6 805.52 29.6
0 1 -6 843.32 31.9
0 1 6 860.31 32.3
0 1 -6 865.81 31.1
-1 -1 -6 1371.76 46.1
1 -1 6 1232.28 47
-1 -1 -6 1352.96 46.6
-1 -1 -6 1293.07 51.19
1 -1 6 1358.36 46.4
1 -1 6 1311.07 51.79
-1 -1 -6 1320.07 47.9
1 1 6 1356.36 46.7
-1 1 -6 1348.27 47.3
1 1 6 1299.77 45
1 1 6 1373.06 47.6
-1 1 -6 1388.26 46.6
1 1 6 1365.26 48.5
-2 -1 -6 886.51 33.4
-2 -1 -6 860.71 32.7
2 -1 6 820.42 36
-2 -1 -6 781.12 39.7
2 -1 6 895.81 32.2
-2 -1 -6 910.11 31.6
2 -1 6 840.82 32.9
2 1 6 858.81 31.8
2 1 6 877.41 34.1
2 1 6 865.31 33.2
2 1 6 831.92 31.5
-2 1 -6 874.61 32.8
-3 -1 -6 966.3 36
-3 -1 -6 956.3 35.1
3 -1 6 970.3 39
3 -1 6 941.91 37
-3 -1 -6 925.71 37
3 -1 6 998.5 36.1
3 1 6 974.9 37.4
-3 1 -6 969.8 36.8
3 1 6 948.31 35.8
3 1 6 990.8 38.3
3 1 6 905.21 37.2
4 -1 6 814.22 33.1
4 -1 6 740.03 31.9
-4 -1 -6 814.42 30.2
4 -1 6 781.62 30.7
-4 -1 -6 773.72 36.3
-4 -1 -6 809.92 30
4 1 6 727.23 32
4 1 6 726.93 31
4 1 6 782.62 33.1
4 1 6 728.33 29.3
-4 1 -6 743.73 31
5 -1 6 618.24 29.3
-5 -1 -6 657.53 27
5 -1 6 668.63 27.8
5 -1 6 644.14 29.2
5 1 6 644.54 26.3
5 1 6 617.64 28.5
5 1 6 649.34 29.5
5 1 6 658.73 30.4
-5 1 -6 659.23 30
6 -1 6 83.39 9.3
6 -1 6 71.09 7.8
-6 -1 -6 71.29 7.9
-6 -1 -6 75.29 13.1
6 -1 6 71.99 8.9
6 1 6 73.19 7.2
6 1 6 71.19 9
6 1 6 70.99 9.8
6 1 6 79.99 9.4
6 1 6 73.99 10.4
7 -1 6 68.59 8.2
7 -1 6 96.29 12.6
-7 -1 -6 51.59 9.9
7 -1 6 83.79 10.4
7 1 6 71.49 7.5
7 1 6 75.09 14.3
7 1 6 80.19 10.1
-8 -1 -6 51.09 12.6
8 -1 6 55.09 9.1
8 -1 6 41.4 9
8 -1 6 47.2 8.9
8 1 6 45.6 9.6
8 1 6 51.89 12
8 1 6 45.3 7
8 1 6 43.8 8.8
9 -1 6 103.39 17.5
-9 -1 -6 113.29 16.5
9 -1 6 88.39 13.6
9 -1 6 97.49 10.8
9 -1 6 88.09 16.3
9 1 6 68.59 11
9 1 6 46.8 13.2
9 1 6 84.69 15.2
9 1 6 78.39 9.3
9 -2 -6 22.2 9.2
-9 -2 6 34 9.3
9 2 -6 36.6 10.1
9 2 -6 39.2 10.8
8 -2 -6 91.99 12
-8 -2 6 99.89 11.4
-8 -2 6 93.29 11.5
8 -2 -6 89.59 13
8 2 -6 95.89 13.7
8 2 -6 89.69 9.7
8 2 -6 114.39 13.9
7 -2 -6 167.88 12.9
7 -2 -6 167.48 13.9
-7 -2 6 186.38 14.7
-7 -2 6 169.58 14.1
7 2 -6 169.08 14.4
7 2 -6 170.98 11.5
-6 -2 6 96.99 9.5
6 -2 -6 83.79 9.5
-6 -2 6 101.49 9.9
-6 -2 6 92.49 10.2
6 2 -6 109.19 8.3
-6 2 6 108.79 9.7
-5 -2 6 32.3 5.7
-5 -2 6 23.8 4.4
5 -2 -6 28.6 5.3
-5 -2 6 21.6 5.1
5 -2 -6 28 4.6
-5 2 6 28.1 5.3
5 2 -6 33.1 5.1
-4 -2 6 116.79 9.5
4 -2 -6 126.59 8.4
4 -2 -6 131.99 9.7
4 2 -6 136.19 8.1
-4 2 6 134.29 9.6
4 2 -6 142.99 10.6
4 2 -6 124.09 9.8
-3 -2 6 386.46 18.2
3 -2 -6 372.36 17.8
-3 -2 6 378.36 18
3 -2 -6 384.66 16.2
-3 2 6 390.46 17.7
-3 2 6 360.86 15.2
3 2 -6 390.66 17.6
3 2 -6 379.76 19
3 2 -6 393.36 18.3
-3 2 6 376.76 17.9
2 -2 -6 21.5 4.1
-2 -2 6 29.8 4.4
2 -2 -6 25.8 3
-2 -2 6 26.5 4.8
-2 -2 6 27.7 4.8
-2 2 6 28.7 3.4
2 2 -6 18.1 3.5
-2 2 6 23.9 3.9
2 2 -6 24.3 4
2 2 -6 20 3.6
-2 2 6 27.5 3.5
-1 -2 6 339.17 14.6
-1 -2 6 321.47 17.6
1 -2 -6 330.07 17
1 -2 -6 333.47 15.5
1 -2 -6 345.07 15.9
1 -2 -6 332.17 12.8
-1 2 6 307.47 15
1 2 -6 323.07 15.1
-1 2 6 337.47 12.9
-1 2 6 325.97 15
1 2 -6 315.27 14.2
0 -2 -6 199.68 12.8
0 -2 6 174.58 14.4
0 -2 -6 219.48 11.6
0 -2 -6 206.18 12.5
0 -2 6 184.58 10.2
0 -2 -6 215.98 11.2
0 2 6 239.88 12.3
0 2 -6 220.38 11.3
0 2 -6 224.18 11
0 2 6 224.38 11.6
0 2 -6 230.98 9.9
1 -2 6 28.8 4.4
-1 -2 -6 39.2 4.8
-1 -2 -6 45.9 4.5
1 -2 6 42.5 4.8
-1 -2 -6 47.2 8.8
-1 -2 -6 44.2 5.9
-1 -2 -6 31.1 5.2
1 2 6 48.2 5.6
-1 2 -6 42 4.6
1 2 6 41.5 4.8
-1 2 -6 45.4 4.8
-2 -2 -6 330.87 16.3
2 -2 6 319.27 15.9
2 -2 6 325.97 15.5
-2 -2 -6 303.07 17.3
-2 -2 -6 324.87 14.5
-2 -2 -6 312.77 18.1
2 2 6 364.36 18
-2 2 -6 350.06 16
2 2 6 327.87 16.7
2 2 6 324.77 15.3
-2 2 -6 343.27 15.8
2 2 6 342.87 16.3
-2 2 -6 317.87 15.8
-3 -2 -6 161.08 10.9
3 -2 6 154.78 10.5
-3 -2 -6 162.28 12
-3 -2 -6 160.58 9
3 -2 6 156.48 10.1
-3 -2 -6 161.28 12.6
3 2 6 154.18 9.3
-3 2 -6 147.29 10.1
3 2 6 159.28 10.8
3 2 6 156.38 11.2
3 2 6 166.28 12.1
4 -2 6 264.77 15.3
4 -2 6 278.27 15.1
4 -2 6 276.87 17.1
-4 -2 -6 258.67 16.2
-4 -2 -6 268.57 17.9
-4 -2 -6 282.07 13.7
4 2 6 270.77 13.7
4 2 6 269.37 16.4
-4 2 -6 272.57 15.8
4 2 6 293.37 16.2
4 2 6 289.47 17.8
-5 -2 -6 210.48 16.5
-5 -2 -6 220.88 15.4
5 -2 6 217.88 14.4
5 -2 6 189.58 13.1
-5 -2 -6 203.68 12
5 2 6 247.98 12.7
5 2 6 247.98 15.4
5 2 6 235.08 14.3
5 2 6 241.08 16.3
6 -2 6 148.89 12.5
6 -2 6 135.79 11.2
-6 -2 -6 182.38 11.4
6 -2 6 144.89 12.3
-6 -2 -6 164.38 15.1
6 2 6 153.98 13
6 2 6 152.18 12.3
6 2 6 154.38 10.4
6 2 6 154.58 14
7 -2 6 339.17 21.7
-7 -2 -6 338.17 24
7 -2 6 320.27 20.1
7 -2 6 362.06 21.3
7 2 6 341.77 17.3
7 2 6 331.27 22.4
7 2 6 341.37 22.7
7 2 6 306.67 23
7 2 6 341.97 21.3
8 -2 6 39.5 6.9
8 -2 6 54.69 9.7
8 -2 6 41.1 8.2
-8 -2 -6 34.9 9.4
8 2 6 42.8 7
8 2 6 29.9 9.2
8 2 6 50.79 9.1
8 2 6 58.89 10
8 2 6 29.8 8.2
-9 -3 6 109.09 13.1
-9 -3 6 112.39 14.5
9 -3 -6 114.59 14.9
9 -3 -6 90.69 14
9 3 -6 76.99 14.2
9 3 -6 106.69 20.2
9 3 -6 96.49 10.2
8 -3 -6 159.78 14.5
8 -3 -6 151.38 15.3
-8 -3 6 182.38 16.2
8 3 -6 178.28 17.9
8 3 -6 156.88 19.7
8 3 -6 166.18 10.9
-7 -3 6 40.3 9.1
7 -3 -6 38.4 7.2
7 -3 -6 32.2 7.1
-7 -3 6 23.9 6.4
7 3 -6 39.4 9.6
7 3 -6 31.8 7.6
7 3 -6 36.9 5.2
6 -3 -6 269.37 17.1
-6 -3 6 251.47 18.5
-6 -3 6 259.37 16.5
-6 -3 6 262.57 16.8
6 -3 -6 254.07 16.1
-5 -3 6 27.8 5.9
5 -3 -6 22.3 5
-5 -3 6 30.8 5.9
-5 -3 6 29.4 6.9
5 -3 -6 29.6 5.4
5 3 -6 31.6 4.3
5 3 -6 33.7 7.7
5 3 -6 21.2 6.2
-5 3 6 32.9 5.9
-4 -3 6 578.44 25.7
4 -3 -6 573.64 23.4
4 -3 -6 577.54 25.3
-4 -3 6 571.24 25.7
4 3 -6 546.75 28.8
4 3 -6 606.94 25.9
4 3 -6 585.84 22.2
-4 3 6 577.84 24.6
3 -3 -6 122.79 8.9
-3 -3 6 125.89 9.3
-3 -3 6 125.89 9.5
3 -3 -6 129.89 7.5
3 3 -6 121.09 9
-3 3 6 121.29 8.6
3 3 -6 139.49 7.7
-2 -3 6 287.97 14.5
-2 -3 6 289.97 13.1
2 -3 -6 289.67 11.6
-2 -3 6 292.57 15.6
2 -3 -6 296.37 14.5
2 -3 -6 272.27 17.5
2 3 -6 275.57 16.2
-2 3 6 269.27 13.7
-2 3 6 277.17 12.4
2 3 -6 265.37 13.9
1 -3 -6 145.19 11.7
1 -3 -6 141.89 9.5
-1 -3 6 124.29 7.7
1 -3 -6 138.09 8.8
-1 -3 6 141.99 10.3
-1 -3 6 131.99 8.6
-1 3 6 134.39 8.7
1 3 -6 130.79 9.4
1 3 -6 127.19 8.1
1 3 -6 135.59 8.5
0 -3 -6 465.55 19.9
0 -3 6 499.35 22.6
0 -3 -6 442.96 21
0 -3 -6 456.85 19.6
0 -3 -6 452.55 24.2
0 -3 -6 483.95 23.4
0 -3 6 470.65 19.7
0 3 6 380.86 22.2
0 3 -6 445.46 19
0 3 -6 454.45 24.4
0 3 6 480.75 19.8
0 3 -6 459.05 19.6
0 3 -6 450.85 19.3
1 -3 6 25.5 4.4
-1 -3 -6 23.3 6.3
-1 -3 -6 34.1 7.1
-1 -3 -6 29.2 4.6
1 -3 6 23.9 3.8
-1 -3 -6 18.6 3.3
1 -3 6 25.8 4.7
1 3 6 42 7.1
1 3 6 24 4.1
-1 3 -6 21.2 3.8
-1 3 -6 31.4 4.5
-1 3 -6 31.5 6.1
-2 -3 -6 883.41 36.3
-2 -3 -6 878.91 39.9
2 -3 6 996.1 36
-2 -3 -6 939.41 38.5
2 -3 6 917.71 35.3
-2 -3 -6 972.5 39.6
-2 -3 -6 934.71 33.7
2 3 6 932.21 35.7
2 3 6 951.2 39.2
-2 3 -6 898.41 34.5
-2 3 -6 977.2 36.9
-2 3 -6 940.61 36.5
2 3 6 929.81 38.7
-3 -3 -6 77.39 11.2
3 -3 6 77.89 7.4
3 -3 6 85.39 7.5
-3 -3 -6 81.69 6.2
3 -3 6 80.29 10.3
-3 -3 -6 73.19 8.5
-3 -3 -6 95.29 8.4
3 3 6 83.39 7.7
3 3 6 70.99 9.3
-3 3 -6 74.79 6.5
3 3 6 73.59 8.8
-3 3 -6 86.49 8.4
4 -3 6 521.85 27.3
4 -3 6 540.75 24.4
-4 -3 -6 521.95 27
-4 -3 -6 546.45 21.5
4 -3 6 553.04 24.5
-4 -3 -6 487.35 27.6
4 3 6 517.35 24.5
4 3 6 554.24 28.7
4 3 6 484.05 20.7
5 -3 6 687.33 30.7
-5 -3 -6 694.73 34.2
-5 -3 -6 703.83 27.5
5 -3 6 662.73 30.5
5 -3 6 727.63 33
5 -3 6 741.93 28.7
5 3 6 626.24 27.6
5 3 6 740.53 31.9
5 3 6 707.43 28.4
5 3 6 690.43 34.1
6 -3 6 112.49 11.1
6 -3 6 128.69 11.3
-6 -3 -6 114.59 13.5
-6 -3 -6 122.99 9.3
6 -3 6 119.79 11.5
6 3 6 129.89 10.3
6 3 6 106.89 11.4
6 3 6 135.19 14.1
6 3 6 129.09 9.4
6 3 6 132.89 15.3
-7 -3 -6 187.58 17.5
7 -3 6 214.98 16.1
7 -3 6 204.98 15.5
7 -3 6 194.18 14.9
7 3 6 221.68 13.3
7 3 6 208.98 18.7
7 3 6 191.08 15.1
7 3 6 198.78 16.3
7 3 6 220.98 21.1
-8 -3 -6 7.2 6.1
8 -3 6 16.2 6.8
8 -3 6 9.8 5.3
8 -3 6 11.3 4.5
8 3 6 -0.8 11.6
8 3 6 14.1 4.5
8 3 6 10.8 7
8 3 6 -4.8 5.9
8 3 6 11.3 5.6
-8 -4 6 124.09 14.7
-8 -4 6 118.59 13.5
8 -4 -6 98.39 13.3
8 4 -6 106.99 16.4
8 4 -6 90.69 14.1
8 4 -6 108.59 19.2
-7 -4 6 501.85 26.9
-7 -4 6 526.45 30.2
7 -4 -6 464.35 25.8
7 -4 -6 507.65 25.3
7 4 -6 448.96 29.4
7 4 -6 455.75 26.8
7 4 -6 564.34 38.5
-6 -4 6 613.04 28.6
6 -4 -6 576.94 26.7
6 -4 -6 591.54 27.9
-6 -4 6 562.74 32.2
6 4 -6 544.65 33.7
6 4 -6 689.93 42.2
-5 -4 6 391.66 20.7
5 -4 -6 391.66 20.1
-5 -4 6 368.86 24.1
-5 -4 6 387.76 20.5
5 -4 -6 373.26 18.4
5 4 -6 383.26 30.4
-4 -4 6 20.5 4.7
4 -4 -6 21.9 4.6
-4 -4 6 22.1 4.7
4 -4 -6 24.1 4.2
-4 4 6 22.5 4.3
4 4 -6 35.8 11.4
4 4 -6 28.9 3.8
4 4 -6 31.3 5.6
-3 -4 6 1466.65 53.19
-3 -4 6 1509.25 54.89
3 -4 -6 1487.25 52.69
3 -4 -6 1393.26 59.09
3 -4 -6 1422.76 49.6
3 4 -6 1381.96 56.09
3 4 -6 1463.35 64.99
3 4 -6 1467.65 50.29
3 4 -6 1513.15 52.69
3 4 -6 1582.64 73.29
-3 4 6 1473.95 51.49
2 -4 -6 232.38 17.3
-2 -4 6 239.88 13
2 -4 -6 241.68 12.8
-2 -4 6 257.97 14.9
-2 -4 6 234.48 11.4
2 4 -6 236.98 12
2 4 -6 220.88 15.4
-2 4 6 231.68 11.4
-2 4 6 235.58 12
2 4 -6 179.48 17.6
2 4 -6 229.78 12.4
-1 -4 6 1407.56 49.1
-1 -4 6 1390.86 49.8
1 -4 -6 1428.26 56.99
1 -4 -6 1424.06 49.99
1 -4 -6 1447.76 50.79
1 -4 -6 1301.67 58.39
-1 -4 6 1444.36 53.69
1 4 -6 1420.46 53.09
1 4 -6 1461.05 59.69
1 4 -6 1403.06 49.9
1 4 -6 1374.46 48.8
-1 4 6 1436.86 50.69
-1 4 6 1397.46 49.1
0 -4 6 487.35 20.1
0 -4 6 472.65 23.6
0 -4 -6 432.76 31.7
0 -4 -6 455.65 20.7
0 -4 -6 467.25 25.8
0 -4 -6 488.05 22
0 -4 -6 478.15 20.6
0 -4 6 478.75 20.2
0 4 -6 471.55 19.2
0 4 -6 483.35 26.6
0 4 6 475.95 20
0 4 -6 439.36 20.7
0 4 -6 494.15 21.9
0 4 6 493.75 22.9
1 -4 6 872.81 32.4
-1 -4 -6 882.21 33.3
-1 -4 -6 873.61 35.3
1 -4 6 852.41 36.8
1 -4 6 849.91 32.8
-1 -4 -6 841.22 32
-1 -4 -6 891.01 39.1
1 4 6 883.01 37
-1 4 -6 836.62 31.2
-1 4 -6 890.91 38
-1 4 -6 855.41 34.1
1 4 6 738.83 31.9
2 -4 6 1419.16 49.2
-2 -4 -6 1078.89 59.39
2 -4 6 1323.87 47.5
-2 -4 -6 1292.77 54.09
-2 -4 -6 1304.67 46
-2 -4 -6 1386.16 51.69
-2 -4 -6 1371.16 49.2
-2 4 -6 1321.47 50.99
2 4 6 1366.06 54.19
2 4 6 1309.57 53.49
2 4 6 1367.16 48.3
-3 -4 -6 271.67 12.8
3 -4 6 267.37 14.7
-3 -4 -6 289.57 17.9
3 -4 6 292.47 15
3 -4 6 276.87 15.7
-3 -4 -6 279.77 23.5
-3 4 -6 279.97 15.5
3 4 6 262.67 15.1
3 4 6 270.07 18.6
3 4 6 292.87 20.1
4 -4 6 642.44 28.1
-4 -4 -6 659.43 32
4 -4 6 646.94 29.1
4 -4 6 621.44 27.3
4 -4 6 691.23 34.4
-4 -4 -6 631.94 24.9
4 4 6 661.73 33.8
4 4 6 668.63 29.3
-5 -4 -6 34.3 6.8
5 -4 6 43.6 7.1
5 -4 6 65.49 9.6
5 -4 6 63.89 11.1
-5 -4 -6 49.4 5.6
5 -4 6 61.39 7.9
5 4 6 64.29 18.5
5 4 6 38.4 6.9
5 4 6 52.59 10.1
5 4 6 55.69 9.3
6 -4 6 322.27 19.5
-6 -4 -6 344.57 22.8
6 -4 6 312.17 20.1
6 -4 6 322.47 19.5
6 -4 6 348.17 19.8
6 4 6 327.97 24
6 4 6 302.77 19.5
6 4 6 291.87 16.5
6 4 6 327.67 26.5
7 -4 6 6.7 3.7
-7 -4 -6 3.3 4.1
7 -4 6 17.7 6.1
7 -4 6 11.1 9
7 -4 6 11.8 6.5
7 4 6 19.8 7.4
7 4 6 -0.1 4.9
7 4 6 -3.5 10.7
7 4 6 17.7 6.5
7 -5 -6 39.6 8.3
-7 -5 6 56.19 10
-7 -5 6 44.6 11
7 5 -6 47.5 11.2
7 5 -6 46.5 15.2
7 5 -6 57.09 14
-6 -5 6 300.27 18.7
6 -5 -6 310.47 17.6
-6 -5 6 329.57 23.9
6 5 -6 245.68 18.5
6 5 -6 304.17 23.3
6 5 -6 268.97 25.5
5 -5 -6 134.39 10.3
5 -5 -6 130.99 19.2
5 -5 -6 138.69 10.7
-5 -5 6 140.19 11.8
-5 -5 6 128.19 14.6
5 5 -6 123.49 11.6
5 5 -6 127.49 22.4
5 5 -6 141.99 15.1
5 5 -6 124.09 15.9
-4 -5 6 276.97 16.8
4 -5 -6 310.07 15.8
-4 -5 6 273.87 16.1
4 -5 -6 274.57 13.7
-4 -5 6 285.67 21.3
4 5 -6 214.08 17.6
4 5 -6 292.17 21.7
4 5 -6 243.58 24.3
3 -5 -6 8.7 2.6
3 -5 -6 18.8 3.9
-3 -5 6 16.6 4.3
3 -5 -6 10.2 7.7
-3 -5 6 8 3.5
-3 5 6 8.3 3.1
3 5 -6 13 6.1
3 5 -6 22.5 8.2
3 5 -6 17.9 4.3
-2 -5 6 332.37 16.9
-2 -5 6 341.27 15.5
-2 -5 6 370.76 20.1
2 -5 -6 391.66 17.2
2 -5 -6 336.67 16.3
2 5 -6 362.36 26.5
2 5 -6 380.06 22.3
2 5 -6 358.86 16
-1 -5 6 18.5 3.7
-1 -5 6 19.6 3.7
1 -5 -6 17.3 4
-1 -5 6 20.4 5.5
1 -5 -6 12.5 3.3
1 5 -6 17.1 5.5
-1 5 6 15.8 5
1 5 -6 15.2 6
1 5 -6 17.4 3.3
0 -5 6 163.78 9.8
0 -5 -6 176.98 10.7
0 -5 -6 160.08 11.3
0 -5 6 160.98 10.1
0 -5 6 173.48 13.4
0 -5 -6 176.48 11.2
0 5 -6 163.98 15.6
0 5 6 177.88 9.7
0 5 6 155.68 12.4
0 5 -6 177.58 13.1
-1 -5 -6 347.17 16.4
1 -5 6 340.17 20.8
1 -5 6 327.27 15.8
-1 -5 -6 371.96 17.5
-1 -5 -6 359.46 19.3
1 -5 6 339.87 17.1
-1 5 -6 354.56 22.2
1 5 6 341.87 16
1 5 6 357.16 21.3
2 -5 6 441.56 19.3
-2 -5 -6 450.45 18.5
-2 -5 -6 433.16 23.2
2 -5 6 434.66 21.1
2 -5 6 457.35 25.1
-2 -5 -6 379.16 27.2
-2 5 -6 440.06 24.3
2 5 6 453.15 26.5
2 5 6 449.26 19.9
2 5 6 420.96 25.8
-3 -5 -6 428.26 23.6
3 -5 6 385.86 21.4
3 -5 6 433.26 19.4
3 -5 6 420.46 21.2
-3 -5 -6 404.06 17
3 5 6 354.06 26
3 5 6 429.56 26.3
3 5 6 394.36 19.6
-3 5 -6 434.36 22.3
4 -5 6 65.69 9.5
4 -5 6 68.19 7.7
-4 -5 -6 64.49 9.6
-4 -5 -6 67.99 5.8
4 -5 6 74.79 13
4 5 6 68.89 11.6
4 5 6 68.99 8.2
5 -5 6 399.36 22.4
-5 -5 -6 416.96 25.5
5 -5 6 402.46 25.5
5 -5 6 411.96 21.2
5 5 6 414.66 21.9
5 5 6 370.76 30
5 5 6 387.76 27.3
6 -5 6 34.4 9.5
-6 -5 -6 22.8 7.7
6 -5 6 17.7 5.6
6 -5 6 6.2 6.6
6 -5 6 17.3 5.4
6 5 6 11 6.7
6 5 6 19.5 6.2
6 5 6 3 11.9
6 -6 -6 37 6.9
6 -6 -6 43 7.6
-6 -6 6 57.39 13
-6 -6 6 34.4 6.8
6 6 -6 40.4 10.1
6 6 -6 30.7 11.8
6 6 -6 33.8 13.3
6 6 -6 38.1 11.8
-5 -6 6 59.59 8.7
5 -6 -6 61.79 8.2
-5 -6 6 61.99 12.5
5 -6 -6 76.59 8.6
5 6 -6 70.49 18.5
5 6 -6 76.09 15.3
5 6 -6 58.19 9.1
4 -6 -6 36.6 5.2
-4 -6 6 25.4 8
4 -6 -6 38.5 5.8
-4 -6 6 32.2 7
4 -6 -6 6.4 14.3
4 6 -6 33.2 8.8
4 6 -6 32.7 10.8
3 -6 -6 106.19 8
3 -6 -6 64.59 14.7
-3 -6 6 106.99 13.7
-3 -6 6 89.39 10.1
-3 -6 6 95.69 8.8
3 6 -6 109.79 8.3
3 6 -6 94.29 16.1
3 6 -6 99.59 13.4
-2 -6 6 75.29 7.3
2 -6 -6 65.49 13.1
2 -6 -6 60.69 6.2
-2 -6 6 71.99 9.1
-2 -6 6 73.49 6.2
2 6 -6 64.99 14.7
2 6 -6 61.69 11.1
1 -6 -6 126.39 9.7
-1 -6 6 127.39 8.8
1 -6 -6 132.49 18
-1 -6 6 120.89 8.3
1 -6 -6 120.79 8.7
-1 -6 6 127.99 12.1
1 6 -6 138.09 16.5
1 6 -6 127.69 13.3
0 -6 -6 354.86 17
0 -6 6 341.47 15.9
0 -6 -6 362.76 18.6
0 -6 -6 330.77 26.5
0 -6 6 371.56 21.9
0 -6 6 374.36 17.4
0 -6 -6 342.07 18.9
0 6 -6 370.46 25.4
-1 -6 -6 94.69 9.8
-1 -6 -6 67.39 12.6
1 -6 6 89.29 11.2
1 -6 6 89.39 8.3
1 -6 6 94.59 6.9
-1 -6 -6 86.79 7.8
1 6 6 80.39 6.5
-1 6 -6 95.89 12.9
2 -6 6 225.28 14.6
-2 -6 -6 236.08 16.7
2 -6 6 239.48 12.3
-2 -6 -6 253.77 12.3
2 6 6 219.68 12.3
-2 6 -6 234.08 18.4
3 -6 6 13.1 8.2
3 -6 6 23.2 4.3
-3 -6 -6 17.6 6.4
-3 -6 -6 9 3
3 -6 6 22.5 7
3 -6 6 10.4 3.8
3 6 6 10.7 6.2
3 6 6 22.8 11.1
3 6 6 12.5 4
-3 6 -6 10.1 5.3
4 -6 6 234.08 16.4
-4 -6 -6 263.27 19.4
4 -6 6 251.17 22.2
4 -6 6 249.38 14.2
4 -6 6 251.27 21.4
4 6 6 252.17 22.2
4 6 6 241.78 25.3
4 6 6 241.88 15.2
5 -6 6 135.69 11.2
5 -6 6 91.89 16.8
5 -6 6 136.49 12.9
-5 -6 -6 134.39 14.9
5 6 6 171.98 26.5
5 6 6 122.99 12.2
5 6 6 115.79 19.3
-4 -7 6 156.08 18.3
4 -7 -6 139.79 9.8
-4 -7 6 138.99 13.3
4 7 -6 175.28 26.3
4 7 -6 159.68 22.2
-3 -7 6 112.29 11.4
-3 -7 6 73.09 13
3 7 -6 83.29 14.4
3 7 -6 74.79 15.9
-2 -7 6 103.29 14.8
-2 -7 6 114.59 11.8
2 7 -6 129.49 18.4
2 7 -6 105.49 14.4
1 -7 -6 88.39 9
-1 -7 6 92.29 11.1
-1 -7 6 95.99 7.8
1 7 -6 94.49 13.2
1 7 -6 94.39 16.8
0 -7 -6 141.29 12
0 -7 6 144.99 10.3
0 -7 6 129.79 13.5
0 -7 -6 144.79 11.9
0 7 -6 124.79 16.7
-1 -7 -6 30.7 6.9
1 -7 6 36.1 8.5
-1 -7 -6 22.8 5.4
1 -7 6 37.7 6.5
-1 7 -6 46.3 17.4
2 -7 6 76.19 11.9
-2 -7 -6 77.59 7.2
-2 7 -6 85.19 14
3 -7 6 57.59 10.3
3 -7 6 60.59 8.6
-3 -7 -6 54.49 9.9
3 7 6 61.69 13.6
-3 7 -6 62.99 11.9
-9 0 7 31.7 6.6
9 0 -7 19.8 8
9 0 -7 17.7 7.3
-8 0 7 7 3.8
8 0 -7 2.7 5.1
8 0 -7 5.3 6.2
-7 0 7 477.85 25
7 0 -7 484.95 24.8
-7 0 7 464.05 26.1
-7 0 7 470.35 22.5
7 0 -7 421.66 24.7
-6 0 7 3.7 2.8
-6 0 7 2.9 2.9
6 0 -7 8 4
-6 0 7 3.2 3.1
6 0 -7 2.2 3.1
-5 0 7 390.06 20.5
5 0 -7 432.06 20.8
5 0 -7 415.66 21.4
-5 0 7 409.46 20.5
-4 0 7 5.1 2.5
4 0 -7 3.3 3
4 0 -7 4.5 2.8
-4 0 7 2.7 2.3
4 0 -7 3.3 2.3
3 0 -7 153.78 9.9
-3 0 7 138.39 13.3
3 0 -7 168.18 10.9
-3 0 7 148.09 10.3
3 0 -7 170.08 10.4
-2 0 7 1446.36 50.09
-2 0 7 1417.06 51.69
2 0 -7 1457.15 50.79
2 0 -7 1462.15 51.19
1 0 -7 386.36 17.2
1 0 -7 388.46 16.8
-1 0 7 361.16 17.6
1 0 -7 379.46 17.7
-1 0 7 386.16 16.6
0 0 -7 1497.65 51.89
0 0 7 1394.16 54.99
0 0 -7 1470.45 48.7
0 0 7 1403.06 50.39
0 0 -7 1508.05 50.59
0 0 7 1464.75 52.09
1 0 7 145.69 9.2
-1 0 -7 159.28 9.9
-1 0 -7 152.48 9
1 0 7 158.68 11.5
1 0 7 148.69 9.2
-2 0 -7 124.69 8.2
-2 0 -7 124.09 9
2 0 7 114.99 8.1
2 0 7 130.89 9.4
3 0 7 53.49 6.6
-3 0 -7 65.19 5.7
-3 0 -7 67.79 7.3
-3 0 -7 63.89 6.3
3 0 7 65.59 6.2
-4 0 -7 225.48 13
4 0 7 205.08 12.2
4 0 7 216.08 13.9
4 0 7 205.48 10.9
5 0 7 82.09 7.7
5 0 7 86.79 7.8
5 0 7 91.79 9.6
-5 0 -7 90.99 12.7
-5 0 -7 79.39 8.3
5 0 7 83.59 9.1
-6 0 -7 227.38 14.9
-6 0 -7 212.88 20.4
6 0 7 220.38 13.7
6 0 7 221.18 14.3
6 0 7 214.78 15.8
6 0 7 211.88 15.9
7 0 7 165.78 15.5
7 0 7 162.68 12.4
7 0 7 183.88 15.7
8 0 7 -17.8 8.8
8 0 7 8.8 3.8
8 0 7 12.9 8.8
-8 0 -7 3.8 6.6
8 0 7 11.4 6.5
9 -1 -7 36.6 9.4
-9 -1 7 69.79 9.4
9 -1 -7 51.39 9.8
-9 1 7 65.69 7
9 1 -7 47.5 10.5
9 1 -7 116.59 15.5
8 -1 -7 97.69 12.9
8 -1 -7 117.09 12.3
-8 -1 7 120.49 11.6
-8 -1 7 120.69 13.3
-8 1 7 106.99 8.1
8 1 -7 89.09 12.3
8 1 -7 122.99 14.3
-7 -1 7 76.99 9.7
7 -1 -7 90.89 11
7 -1 -7 74.89 9.2
-7 -1 7 94.29 9.9
-7 -1 7 88.59 10.4
-7 1 7 90.79 7.3
7 1 -7 72.59 10.4
7 1 -7 85.19 10.8
-7 1 7 92.69 10.1
6 -1 -7 406.56 20.7
-6 -1 7 388.76 21.6
-6 -1 7 384.46 21.4
6 -1 -7 427.66 22.5
-6 -1 7 385.86 21.6
6 1 -7 404.86 22.2
-6 1 7 414.96 22.9
-6 1 7 402.36 18.1
-6 1 7 415.76 21.7
6 1 -7 390.36 21.7
6 1 -7 418.36 20.4
-5 -1 7 98.89 8.7
5 -1 -7 105.79 8.6
-5 -1 7 102.29 9.2
5 -1 -7 87.79 9.1
-5 1 7 102.99 9.2
5 1 -7 87.49 10
5 1 -7 83.29 9.9
5 1 -7 88.29 8
-5 1 7 85.89 8.6
-4 -1 7 284.37 15.4
4 -1 -7 312.07 15.4
-4 -1 7 283.07 16.2
4 -1 -7 309.07 16.6
4 1 -7 296.57 16.5
-4 1 7 297.17 16.2
4 1 -7 309.97 16.8
-4 1 7 303.97 15.7
4 1 -7 322.87 15.3
-3 -1 7 16.1 3.8
3 -1 -7 13.3 3.5
-3 -1 7 16.9 3.7
3 -1 -7 13.2 3.8
3 -1 -7 16.8 3.3
3 1 -7 14.7 3.3
-3 1 7 15.6 3.1
-3 1 7 12.7 3.3
3 1 -7 19.6 4.7
3 1 -7 11.3 3.3
-2 -1 7 1372.56 50.39
-2 -1 7 1349.07 49.7
2 -1 -7 1385.36 48.7
2 -1 -7 1423.06 50.79
2 -1 -7 1465.95 50.49
2 1 -7 1403.56 48.9
-2 1 7 1421.36 47.9
-2 1 7 1419.66 50.49
2 1 -7 1419.36 50.79
2 1 -7 1431.86 51.29
-2 1 7 1348.17 51.59
-1 -1 7 343.27 16.3
-1 -1 7 342.77 16.4
1 -1 -7 339.27 16
1 -1 -7 342.37 16.6
-1 -1 7 350.36 16.8
1 -1 -7 337.27 15
-1 1 7 356.56 14.4
-1 1 7 344.27 16.7
1 1 -7 355.36 16.6
-1 1 7 347.67 17.7
1 1 -7 351.46 15.5
0 -1 -7 712.93 27.3
0 -1 7 652.83 26.9
0 -1 7 622.84 26.7
0 -1 -7 657.43 25.9
0 -1 7 644.74 26.2
0 -1 -7 688.03 26.2
0 1 7 668.93 28.1
0 1 7 665.83 27.1
0 1 7 651.63 24.3
0 1 -7 674.43 25.8
0 1 -7 657.63 26.6
1 -1 7 383.36 18.7
-1 -1 -7 368.86 16.5
1 -1 7 367.36 21.3
1 -1 7 360.96 17.7
-1 -1 -7 425.36 19.2
-1 -1 -7 379.46 18
1 -1 7 359.16 16.8
-1 1 -7 370.76 17.6
1 1 7 370.46 17.9
1 1 7 371.76 15.8
1 1 7 358.56 17.1
1 1 7 400.96 19.1
-1 1 -7 409.16 17.3
2 -1 7 832.32 31.3
-2 -1 -7 838.02 30.8
2 -1 7 861.61 32.7
-2 -1 -7 767.92 36.9
2 -1 7 794.22 35.6
-2 -1 -7 805.82 31.9
-2 -1 -7 852.31 32.8
-2 1 -7 802.52 32.1
2 1 7 792.02 31.1
2 1 7 821.82 33.4
2 1 7 753.42 32.4
-2 1 -7 805.92 31.4
3 -1 7 529.35 22.7
3 -1 7 519.35 23.9
-3 -1 -7 511.65 22
3 -1 7 573.74 26.5
-3 -1 -7 537.15 24.2
-3 -1 -7 526.65 22.9
-3 -1 -7 502.95 28.3
3 1 7 527.75 24.8
-3 1 -7 529.75 23.7
3 1 7 509.15 22.1
-3 1 -7 522.25 23.1
3 1 7 550.04 24.3
3 1 7 495.55 21.8
-4 -1 -7 134.59 10.3
4 -1 7 150.38 11.8
-4 -1 -7 153.98 14.5
4 -1 7 136.19 10
4 -1 7 175.88 12.1
-4 -1 -7 137.49 9.8
4 1 7 162.28 11.7
-4 1 -7 155.98 12.1
4 1 7 131.19 9.9
4 1 7 139.69 9.6
5 -1 7 1311.07 49.4
-5 -1 -7 1351.06 49.2
-5 -1 -7 1284.67 57.59
5 -1 7 1323.07 51.99
5 -1 7 1382.06 51.99
-5 1 -7 1330.37 50.39
5 1 7 1259.47 48
5 1 7 1304.57 50.09
5 1 7 1340.97 51.89
-6 -1 -7 34.4 6.5
6 -1 7 27.1 6.4
-6 -1 -7 34.8 10
6 -1 7 23.7 4.8
6 -1 7 19.8 5.3
6 1 7 35.3 6.2
6 1 7 19.9 5.6
6 1 7 24.3 6
6 1 7 27.5 6.7
-7 -1 -7 447.06 30.2
7 -1 7 381.96 23.6
7 -1 7 427.26 24.5
7 -1 7 458.55 32
7 1 7 437.86 24.2
7 1 7 364.96 25
7 1 7 396.66 24.9
7 1 7 446.66 21.3
-8 -1 -7 47.7 12.5
8 -1 7 50.59 9.6
8 -1 7 52.39 11.5
8 -1 7 59.99 9.5
8 1 7 57.39 10.9
8 1 7 74.99 14.6
8 1 7 40.2 10
8 1 7 46.9 9.1
8 1 7 57.49 8.3
-9 -2 7 91.89 15.3
-9 -2 7 78.19 11.2
9 -2 -7 58.79 9.8
9 -2 -7 55.99 12.2
9 2 -7 49.5 13.9
9 2 -7 76.39 14.4
9 2 -7 89.39 12.6
8 -2 -7 265.47 18.5
8 -2 -7 251.07 19.2
-8 -2 7 281.87 19.4
-8 -2 7 259.37 19.7
8 2 -7 285.37 21.6
8 2 -7 281.77 21.3
8 2 -7 268.87 16.7
-7 -2 7 645.54 31.9
7 -2 -7 628.34 31.9
-7 -2 7 677.03 33.1
-7 -2 7 707.93 33
7 -2 -7 680.03 30.9
7 2 -7 675.13 33.9
7 2 -7 656.43 28.3
-6 -2 7 343.57 19.4
6 -2 -7 368.56 18.9
6 -2 -7 341.77 20.1
-6 -2 7 321.07 19.4
-6 -2 7 340.37 21
6 2 -7 346.27 17
-6 2 7 332.37 19
5 -2 -7 389.86 18.8
-5 -2 7 354.06 20
5 -2 -7 417.06 20.9
-5 -2 7 391.96 19.9
5 2 -7 387.06 17.8
-5 2 7 391.86 20
4 -2 -7 135.69 10.5
4 -2 -7 137.79 9.2
-4 -2 7 150.78 10.5
-4 -2 7 125.39 10.2
4 2 -7 152.98 9.1
-4 2 7 141.89 10.4
4 2 -7 162.08 11.3
4 2 -7 144.29 11.4
-3 -2 7 588.14 25.2
3 -2 -7 571.34 25.1
-3 -2 7 551.24 25
3 2 -7 589.84 23
-3 2 7 582.74 24.8
3 2 -7 580.14 25.2
-3 2 7 573.84 22.9
-3 2 7 599.64 24.4
3 2 -7 560.04 26.3
2 -2 -7 427.86 17
-2 -2 7 416.06 19.6
-2 -2 7 420.86 19.4
2 -2 -7 416.26 19.8
-2 -2 7 411.26 18.4
-2 2 7 438.46 19.3
2 2 -7 408.16 19.2
2 2 -7 408.66 20.4
-2 2 7 410.66 18.2
-2 2 7 415.16 17.2
2 2 -7 390.96 17.4
-1 -2 7 1471.95 52.79
1 -2 -7 1429.96 52.29
1 -2 -7 1467.65 49.3
1 -2 -7 1452.75 54.39
-1 -2 7 1565.94 54.19
1 -2 -7 1433.36 52.59
-1 2 7 1535.25 52.69
1 2 -7 1485.65 52.39
-1 2 7 1522.05 52.79
-1 2 7 1504.05 48.9
1 2 -7 1402.76 50.89
0 -2 7 267.57 15.1
0 -2 7 268.87 13.4
0 -2 -7 292.07 14
0 -2 7 281.07 14.4
0 -2 -7 261.97 15.1
0 2 7 288.67 15
0 2 -7 288.77 13.7
0 2 -7 268.47 13.9
0 2 7 281.37 14.4
1 -2 7 617.94 25.8
-1 -2 -7 648.84 26.3
1 -2 7 655.83 27.7
-1 -2 -7 642.24 29.7
-1 -2 -7 607.84 24.4
-1 -2 -7 547.35 27.2
-1 -2 -7 567.74 26.3
1 -2 7 586.44 24.7
1 2 7 687.23 27.7
1 2 7 612.54 25.8
-1 2 -7 615.84 25.3
-1 2 -7 651.73 25.7
-2 -2 -7 618.64 30.9
-2 -2 -7 645.74 29.4
-2 -2 -7 670.13 25.8
2 -2 7 652.23 26.7
2 -2 7 705.13 28
2 -2 7 609.14 32
-2 -2 -7 627.44 27.5
2 2 7 696.03 28.1
-2 2 -7 662.03 27.3
2 2 7 674.53 29.3
-2 2 -7 672.33 27.2
2 2 7 678.03 27.1
2 2 7 629.04 27.4
-3 -2 -7 255.17 13.1
-3 -2 -7 234.38 15.9
-3 -2 -7 256.17 15.3
3 -2 7 275.47 15.2
3 -2 7 250.77 14.1
3 -2 7 266.87 18
-3 2 -7 290.57 15.2
3 2 7 278.87 14.1
3 2 7 251.37 14.9
-3 2 -7 266.97 15
3 2 7 266.67 16.5
3 2 7 251.87 15
-4 -2 -7 1068.09 48
4 -2 7 1045.8 42.1
-4 -2 -7 1115.69 40.9
4 -2 7 1198.78 52.09
4 -2 7 1099.59 43.6
4 2 7 1141.89 41.5
4 2 7 1093.09 43.9
4 2 7 1098.49 43.9
4 2 7 1094.39 45.9
5 -2 7 138.09 10.9
5 -2 7 143.49 11.9
-5 -2 -7 147.69 10.3
-5 -2 -7 145.09 17.2
-5 -2 -7 147.99 14.6
5 -2 7 151.98 12.7
5 2 7 149.09 12.2
-5 2 -7 144.29 12.1
5 2 7 159.78 11.7
5 2 7 150.68 12.5
5 2 7 127.09 9.7
6 -2 7 184.68 14.5
6 -2 7 160.28 12.7
-6 -2 -7 160.28 16.3
6 -2 7 173.48 14.1
6 2 7 194.48 15
6 2 7 186.18 13.5
6 2 7 185.18 15.2
6 2 7 171.78 11.7
6 2 7 162.78 15.5
7 -2 7 8.9 4.7
-7 -2 -7 7.2 4.7
7 -2 7 9.4 5.1
7 -2 7 2.5 3
7 2 7 9.7 5.8
7 2 7 12.1 7.7
7 2 7 12.5 5.5
7 2 7 10.1 3.9
-8 -2 -7 225.28 21.7
8 -2 7 184.68 18
8 -2 7 200.78 17
8 -2 7 192.38 15.3
8 2 7 202.18 22.5
8 2 7 219.98 21
8 2 7 221.08 18.2
8 2 7 210.68 14.2
8 2 7 216.98 19.1
8 -3 -7 119.49 14.3
-8 -3 7 120.59 13.9
8 -3 -7 124.99 12.9
8 3 -7 114.99 10.3
8 3 -7 118.99 14.7
8 3 -7 105.99 14.1
-7 -3 7 72.59 9.7
7 -3 -7 94.59 10
-7 -3 7 80.79 11.3
7 -3 -7 85.79 11
7 3 -7 70.29 11
7 3 -7 92.09 12.1
7 3 -7 94.29 7.9
6 -3 -7 238.08 16
6 -3 -7 223.88 14.3
-6 -3 7 218.28 15.8
-6 -3 7 237.18 15.7
-6 -3 7 225.48 17.9
6 3 -7 224.88 17.6
-6 3 7 239.38 15.3
6 3 -7 247.68 12.6
6 3 -7 232.48 16.7
-5 -3 7 401.66 21.1
-5 -3 7 374.36 20.1
5 -3 -7 380.86 18.6
5 -3 -7 385.46 20.4
-5 3 7 400.56 20
5 3 -7 391.36 17.1
-4 -3 7 708.53 30.9
4 -3 -7 743.53 28.2
4 -3 -7 719.83 30.6
-4 -3 7 739.73 31.1
-4 3 7 707.73 29.8
4 3 -7 691.13 30.7
4 3 -7 731.83 27.6
3 -3 -7 344.27 17.5
3 -3 -7 331.97 14.7
-3 -3 7 327.07 17.7
-3 -3 7 350.86 17.7
3 3 -7 326.47 21.5
3 3 -7 354.56 17.7
3 3 -7 338.67 15.3
-3 3 7 333.57 16.8
2 -3 -7 1409.96 50.29
-2 -3 7 1316.67 48.9
2 -3 -7 1447.16 46.4
-2 -3 7 1380.46 51.59
-2 -3 7 1422.26 50.59
2 -3 -7 1397.86 54.49
2 3 -7 1404.66 49.99
2 3 -7 1327.27 48.1
-2 3 7 1337.47 47.9
-2 3 7 1373.16 49.6
1 -3 -7 18.6 7.2
-1 -3 7 26.9 4.1
1 -3 -7 25.6 4.9
1 -3 -7 42 11.9
1 -3 -7 19.7 3.9
-1 -3 7 23.5 4.6
-1 -3 7 24.8 4.5
1 3 -7 30.8 5.1
1 3 -7 27.8 4.8
-1 3 7 32.8 4.7
-1 3 7 30.9 5
1 3 -7 40.6 5.8
0 -3 -7 1407.96 58.99
0 -3 7 1609.24 54.69
0 -3 -7 1510.45 57.19
0 -3 -7 1585.74 54.19
0 -3 -7 1521.25 54.49
0 -3 -7 1577.44 58.39
0 -3 7 1495.75 56.89
0 -3 7 1526.75 53.29
0 3 -7 1482.65 53.89
0 3 7 1483.95 54.09
0 3 -7 1632.44 52.79
0 3 7 1523.45 55.79
0 3 -7 1502.15 53.59
1 -3 7 482.75 21.3
-1 -3 -7 521.05 25
-1 -3 -7 515.65 21
-1 -3 -7 500.15 25
1 -3 7 481.05 21.7
-1 -3 -7 453.35 26
1 -3 7 520.25 24.6
1 3 7 492.95 21.9
1 3 7 484.55 23.9
-1 3 -7 476.55 24.5
-1 3 -7 493.65 21.2
-1 3 -7 492.45 22.1
-2 -3 -7 1633.74 62.29
-2 -3 -7 1662.83 58.99
-2 -3 -7 1671.03 56.29
2 -3 7 1610.14 57.79
-2 -3 -7 1674.13 62.59
-2 -3 -7 1554.24 63.29
2 -3 7 1641.54 58.19
2 3 7 1607.04 58.29
2 3 7 1603.44 61.79
-2 3 -7 1658.53 58.99
-2 3 -7 1641.04 57.39
2 3 7 1581.74 60.69
-2 3 -7 1616.04 59.19
3 -3 7 401.46 20
-3 -3 -7 380.86 24.1
-3 -3 -7 427.66 23.7
-3 -3 -7 388.36 20.5
3 -3 7 419.36 20
-3 -3 -7 416.66 18
-3 3 -7 415.36 18.4
3 3 7 373.46 22.7
3 3 7 414.16 23.9
3 3 7 423.06 22.3
-3 3 -7 420.36 21
4 -3 7 407.06 20.5
-4 -3 -7 385.36 23.4
-4 -3 -7 373.76 24.6
-4 -3 -7 380.96 17.6
4 -3 7 393.06 20.1
4 -3 7 397.66 23.6
4 3 7 323.77 16.1
4 3 7 386.06 20.4
4 3 7 390.46 22.4
4 3 7 408.66 19.2
5 -3 7 596.24 29.6
-5 -3 -7 572.44 23.9
5 -3 7 582.04 27.4
-5 -3 -7 511.65 33.2
5 -3 7 550.24 26.4
-5 -3 -7 590.04 31.3
5 3 7 542.65 24.6
5 3 7 552.74 27.4
5 3 7 539.15 30.6
5 3 7 498.15 23.4
5 3 7 549.45 29.4
6 -3 7 9.4 4.9
-6 -3 -7 -2.3 3.3
6 -3 7 2.1 3.3
6 -3 7 2.7 2.7
-6 -3 -7 -1.3 4.5
6 3 7 4.6 4.6
6 3 7 1.8 2.6
6 3 7 3.4 3.9
6 3 7 1.8 3.4
6 3 7 -0.6 6.9
7 -3 7 399.56 22.9
-7 -3 -7 354.86 26.5
7 -3 7 410.96 24.4
7 -3 7 420.36 24.2
7 3 7 391.86 20.4
7 3 7 404.26 28.7
7 3 7 397.36 22.1
7 3 7 434.26 27.2
7 3 7 421.66 24.9
8 -4 -7 98.59 13.3
8 -4 -7 92.59 12.6
-8 -4 7 110.19 13.4
-8 -4 7 118.09 14.8
8 4 -7 88.99 19.8
8 4 -7 98.59 18.6
8 4 -7 98.49 16.8
7 -4 -7 101.09 10.9
-7 -4 7 93.59 11.1
-7 -4 7 105.89 13.6
7 -4 -7 71.59 11.1
7 4 -7 69.09 14.1
7 4 -7 83.79 19.1
7 4 -7 132.39 17.7
6 -4 -7 10.2 4.1
-6 -4 7 10.9 4.9
-6 -4 7 9.9 4
6 -4 -7 4.6 4.6
-6 -4 7 18 7.8
6 4 -7 5.8 7.8
6 4 -7 9 3.2
6 4 -7 -2.1 5.5
6 4 -7 10.5 6.4
-5 -4 7 22 6.5
5 -4 -7 40.2 6.9
-5 -4 7 39.7 6.8
-5 -4 7 38.6 7
5 -4 -7 46.9 6.2
5 4 -7 29.7 6.3
-5 4 7 37.5 6.2
5 4 -7 38.8 12.2
5 4 -7 31.7 7.7
4 -4 -7 221.18 11.7
-4 -4 7 224.08 14.4
-4 -4 7 201.08 14.1
4 -4 -7 203.08 13.4
4 4 -7 240.68 11.8
4 4 -7 237.38 23.6
-4 4 7 237.58 13.3
-3 -4 7 373.16 19.5
3 -4 -7 415.36 19.7
3 -4 -7 411.46 16.4
-3 -4 7 403.96 21
3 4 -7 373.46 19.1
3 4 -7 407.06 17.8
-3 4 7 409.86 18.8
3 4 -7 392.16 29.1
-2 -4 7 94.09 7.2
-2 -4 7 95.19 8.1
2 -4 -7 86.19 7.8
2 -4 -7 100.09 12.4
-2 -4 7 91.29 9
-2 4 7 63.79 6.8
2 4 -7 104.29 7.8
2 4 -7 88.09 7.8
2 4 -7 96.69 9.9
-2 4 7 91.69 6.9
2 4 -7 90.19 15
-1 -4 7 5.2 3.1
1 -4 -7 7.8 3.3
-1 -4 7 11.7 3.3
1 -4 -7 4.4 2.7
1 -4 -7 1.5 5.2
-1 -4 7 6.8 2.6
1 -4 -7 7.9 3.3
-1 4 7 7.5 3.3
-1 4 7 6.8 2.7
1 4 -7 5.9 5.3
1 4 -7 5.6 3.4
1 4 -7 8.3 2.8
1 4 -7 7.4 3.5
0 -4 -7 179.08 11.4
0 -4 7 177.98 11.1
0 -4 -7 180.98 11.4
0 -4 7 203.88 14.2
0 -4 7 187.48 10.9
0 -4 -7 177.28 15.3
0 -4 -7 182.68 12.7
0 4 -7 182.48 10.7
0 4 -7 186.28 12
0 4 7 176.98 12.9
0 4 -7 195.18 11.8
0 4 7 194.58 11.4
0 4 -7 203.78 16.4
1 -4 7 64.49 6.4
1 -4 7 69.39 8.5
-1 -4 -7 58.39 7.5
-1 -4 -7 51.99 8.9
1 -4 7 57.29 6.2
-1 -4 -7 74.29 7.2
-1 -4 -7 67.59 6.2
-1 4 -7 58.29 6.1
1 4 7 60.39 6.6
-1 4 -7 61.69 7.2
-1 4 -7 64.49 10.5
1 4 7 64.69 8.7
-2 -4 -7 145.89 12.2
2 -4 7 144.79 10.4
-2 -4 -7 161.58 11.2
2 -4 7 156.18 10.5
-2 -4 -7 142.39 14.5
-2 -4 -7 141.39 9.1
-2 4 -7 158.58 11.8
2 4 7 161.58 10.8
2 4 7 159.38 14.1
-2 4 -7 131.69 9.5
-2 4 -7 151.38 12.3
2 4 7 140.89 13
3 -4 7 16.1 4.6
-3 -4 -7 26.3 6.6
3 -4 7 16.6 7.9
3 -4 7 27.2 5.8
-3 -4 -7 20.2 3.7
-3 4 -7 31.6 6.2
3 4 7 22.2 5.1
3 4 7 28.4 6.9
-4 -4 -7 22.6 5.9
4 -4 7 25.9 8.3
4 -4 7 22 5
-4 -4 -7 28.7 4.6
4 -4 7 32.1 6.1
4 4 7 35.7 6.7
4 4 7 20.8 6.1
4 4 7 34 8.8
-5 -4 -7 84.69 11.5
5 -4 7 84.39 9.4
5 -4 7 73.09 11.5
-5 -4 -7 92.49 7.9
5 -4 7 72.99 9.1
5 4 7 64.69 11.4
5 4 7 99.49 10.3
5 4 7 111.09 13.3
5 4 7 75.89 6.7
6 -4 7 0.8 3.5
-6 -4 -7 2.3 3.9
-6 -4 -7 5.5 4.9
6 -4 7 -3.3 5.7
6 -4 7 6 5.7
6 -4 7 0 3.6
6 4 7 0.4 3.9
6 4 7 11.1 5.9
6 4 7 8.5 3.9
7 -4 7 323.57 20.7
7 -4 7 289.17 20.8
7 -4 7 290.47 19.4
7 4 7 273.27 23.6
7 4 7 283.27 20.5
-7 -5 7 91.89 13.6
7 -5 -7 85.19 11.5
-7 -5 7 103.49 11.8
7 5 -7 98.19 19.7
7 5 -7 81.29 17.1
7 5 -7 64.79 15.3
7 5 -7 88.59 13.5
-6 -5 7 36.7 7.5
6 -5 -7 50.09 8.4
-6 -5 7 26.3 7.8
6 -5 -7 39.5 6.6
6 5 -7 19.5 11.4
6 5 -7 21.5 8.8
6 5 -7 46.7 12.2
6 5 -7 40.1 9.3
5 -5 -7 53.19 6.8
-5 -5 7 35.2 8.5
-5 -5 7 43.1 7.5
-5 -5 7 38.8 7.2
5 -5 -7 46.9 7.2
5 -5 -7 43.3 24.6
5 5 -7 36.8 10.1
5 5 -7 41.3 7.4
5 5 -7 48.7 15.3
5 5 -7 53.39 12.1
-4 -5 7 217.48 15.1
4 -5 -7 224.08 13.8
4 -5 -7 203.68 11.2
-4 -5 7 196.88 13.9
4 5 -7 187.98 23
4 5 -7 255.57 22.3
-4 5 7 195.48 12
4 5 -7 197.18 18.3
-3 -5 7 199.18 14.5
-3 -5 7 212.68 13.4
3 -5 -7 213.88 12.8
3 -5 -7 155.58 19.7
-3 5 7 199.48 11.4
3 5 -7 216.58 17.5
3 5 -7 193.18 11.4
3 5 -7 208.48 21.8
-2 -5 7 340.47 20
-2 -5 7 343.77 16
-2 -5 7 367.96 17.9
2 -5 -7 349.96 17.3
2 5 -7 311.67 16.5
-2 5 7 326.97 15.7
2 5 -7 353.86 27.3
2 5 -7 345.47 16.7
2 5 -7 371.16 21.9
-1 -5 7 37.4 5.9
1 -5 -7 49.7 6.1
-1 -5 7 42 8.3
-1 -5 7 40.8 5.6
1 -5 -7 45.4 7.7
1 -5 -7 43.7 6.4
-1 5 7 36.7 5.1
1 5 -7 42.6 5.4
1 5 -7 40 6.4
1 5 -7 45.5 10.9
1 5 -7 44.2 7.9
-1 5 7 37.9 6.9
0 -5 -7 33.5 6.3
0 -5 7 25 4.4
0 -5 7 33.6 5.3
0 -5 7 36.2 8
0 -5 -7 29.3 5.4
0 -5 -7 31 5.8
0 5 -7 26.4 6.1
0 5 7 32.1 6.6
0 5 -7 30.3 6.3
0 5 7 25.9 4.4
0 5 -7 33 4.7
0 5 -7 22.9 7.5
-1 -5 -7 10.6 4
-1 -5 -7 14 3.7
-1 -5 -7 9 7.1
-1 -5 -7 10.8 4.2
1 -5 7 13.8 3.6
1 -5 7 13.2 3.6
1 -5 7 15.1 5.6
-1 5 -7 12.8 6.1
1 5 7 12.3 5.4
1 5 7 5.4 2.9
2 -5 7 325.57 17.9
2 -5 7 344.07 17.1
2 -5 7 324.77 21.5
-2 -5 -7 358.06 21
-2 -5 -7 326.87 15.8
-2 5 -7 343.87 21.1
2 5 7 346.47 17.5
-3 -5 -7 34.4 4.9
3 -5 7 36 6.3
-3 -5 -7 33.2 7.8
3 -5 7 38 6.1
-3 5 -7 26.3 6.3
3 5 7 36.5 6.2
3 5 7 23 8.9
3 5 7 34.4 8.6
-4 -5 -7 171.18 10.2
4 -5 7 172.08 13.6
4 -5 7 182.28 12.7
4 -5 7 176.18 13.5
-4 -5 -7 151.38 18.5
4 -5 7 176.68 18.3
4 5 7 181.78 20
4 5 7 179.18 14.8
4 5 7 151.68 16.5
-5 -5 -7 219.48 18.5
5 -5 7 185.78 14.7
5 -5 7 204.68 14.5
-5 -5 -7 197.48 11.3
5 -5 7 201.38 15.9
5 5 7 174.38 25.7
5 5 7 189.88 18.7
5 5 7 190.78 14.7
6 -5 7 14.6 5.5
-6 -5 -7 13.3 7.2
6 -5 7 22.5 13.7
6 -5 7 19.9 8
6 -5 7 10 5.2
6 5 7 8.7 5.8
6 5 7 13.5 7
6 5 7 -1.4 13.8
5 -6 -7 220.68 13.1
-5 -6 7 207.28 20.4
5 -6 -7 201.98 14.3
-5 -6 7 212.28 15.9
5 6 -7 176.18 24.3
5 6 -7 203.28 21.2
5 6 -7 218.48 16.3
4 -6 -7 133.69 11
4 -6 -7 145.99 8.9
-4 -6 7 155.28 17.2
-4 -6 7 134.59 12.4
4 6 -7 158.18 17.7
4 6 -7 125.99 11.6
4 6 -7 163.58 22.2
3 -6 -7 514.35 37.5
3 -6 -7 553.14 24.6
-3 -6 7 576.14 28.8
-3 -6 7 580.04 25.9
3 6 -7 581.54 39.4
3 6 -7 599.34 32.7
-2 -6 7 25.9 4.7
2 -6 -7 26.5 13.3
2 -6 -7 34.5 5.6
-2 -6 7 33.9 5.6
-2 -6 7 29.8 7.3
2 6 -7 32.8 12
2 6 -7 29.4 4.9
2 6 -7 44.5 9.4
1 -6 -7 636.34 42.2
-1 -6 7 790.92 31.4
1 -6 -7 793.12 34.5
-1 -6 7 813.62 31.3
1 -6 -7 820.62 31.8
1 -6 -7 827.62 34
1 6 -7 806.32 37.5
1 6 -7 833.42 44.2
0 -6 7 57.39 6.8
0 -6 7 86.49 16.2
0 -6 -7 65.09 8.5
0 -6 -7 48.1 13
0 -6 7 81.49 7.4
0 -6 -7 82.79 9
0 -6 -7 71.89 7.7
0 6 -7 78.89 14.3
-1 -6 -7 528.25 38.6
1 -6 7 725.13 29.3
-1 -6 -7 703.53 32.3
1 -6 7 666.13 26.9
1 -6 7 659.93 33.9
-1 -6 -7 642.14 27.4
-1 6 -7 693.73 36.5
1 6 7 672.03 26.6
-2 -6 -7 330.57 15.9
2 -6 7 371.66 17
-2 -6 -7 326.97 20.9
2 -6 7 341.57 22.9
2 -6 7 329.47 18.5
2 6 7 312.27 16.4
2 6 7 320.07 24.2
-2 6 -7 326.37 22.4
-3 -6 -7 417.06 25.9
3 -6 7 458.25 23
-3 -6 -7 410.66 18.1
3 -6 7 424.06 27
3 -6 7 435.36 20.1
-3 6 -7 442.66 24.8
3 6 7 450.45 28.7
3 6 7 398.56 20.5
3 6 7 358.16 28.8
4 -6 7 480.65 24.9
-4 -6 -7 462.25 27.8
4 -6 7 422.66 25
4 -6 7 413.06 30.2
4 6 7 469.05 31
4 6 7 425.66 22.3
4 6 7 379.76 49
3 -7 -7 4.1 6.4
-3 -7 7 3.3 4.1
-3 -7 7 5.7 5.3
3 7 -7 0.9 8.3
3 7 -7 6.3 6.3
-2 -7 7 377.86 23.3
2 -7 -7 390.06 24.7
-2 -7 7 398.56 18
2 7 -7 429.96 33.1
2 7 -7 389.66 26.3
-1 -7 7 24.2 4.6
1 -7 -7 27.7 5.2
1 -7 -7 34.2 8.7
-1 -7 7 27.2 4.8
1 -7 -7 28.8 6.2
-1 -7 7 33.4 8.7
1 7 -7 38.5 9.1
1 7 -7 29.5 10.2
0 -7 -7 295.97 18
0 -7 7 286.27 16.4
0 -7 7 343.57 22.3
0 -7 -7 325.47 19.8
0 7 -7 356.06 27.3
-1 -7 -7 98.59 9.6
1 -7 7 104.19 9.8
-1 -7 -7 103.49 11.6
1 -7 7 103.49 12.7
-1 7 -7 82.39 14.5
-2 -7 -7 191.28 16.4
2 -7 7 197.78 18.3
-2 -7 -7 196.58 11.8
2 -7 7 205.88 14.4
-2 7 -7 186.18 18.5
-9 0 8 30.9 6.3
9 0 -8 13.2 10.3
9 0 -8 37.8 12.7
8 0 -8 584.94 32.9
-8 0 8 660.83 34.9
8 0 -8 637.14 32.6
-8 0 8 661.93 29.2
7 0 -8 253.57 18.2
7 0 -8 207.88 16.1
-7 0 8 207.38 16.5
-7 0 8 223.68 16.4
-7 0 8 232.08 14.6
6 0 -8 626.94 30.3
-6 0 8 599.84 29
6 0 -8 601.34 28.9
-6 0 8 648.74 29.6
-6 0 8 614.34 27.9
-5 0 8 758.92 32.9
-5 0 8 737.33 31.8
5 0 -8 744.83 43.1
5 0 -8 757.12 35.1
5 0 -8 759.92 32.3
4 0 -8 682.83 28.2
4 0 -8 670.63 28.5
-4 0 8 669.53 27.2
-4 0 8 636.14 28.6
4 0 -8 595.84 28.5
-3 0 8 3148.59 109.79
3 0 -8 3421.06 109.69
3 0 -8 3373.46 108.89
3 0 -8 3352.26 110.49
-3 0 8 3042.1 107.19
2 0 -8 111.49 8.2
2 0 -8 111.59 8.5
2 0 -8 101.99 8.7
-2 0 8 145.69 13.1
-2 0 8 111.69 8.9
1 0 -8 3428.46 111.19
-1 0 8 3268.97 108.99
-1 0 8 3296.37 111.19
0 0 8 569.64 24.4
0 0 8 578.94 25.2
0 0 8 555.74 23.6
0 0 -8 591.04 25.1
0 0 8 582.64 28.3
0 0 -8 599.54 22
1 0 8 1074.89 41.2
1 0 8 1083.09 44
1 0 8 1029 39.9
-1 0 -8 1140.29 39.9
1 0 8 1056.19 39.9
-1 0 -8 1070.49 41
2 0 8 1417.76 52.59
-2 0 -8 1511.35 51.19
2 0 8 1372.96 54.19
2 0 8 1407.86 50.99
-2 0 -8 1386.86 52.19
-3 0 -8 345.87 17.2
-3 0 -8 367.26 19
3 0 8 333.77 16.9
3 0 8 357.96 18.8
-3 0 -8 325.77 15.5
3 0 8 322.57 18.9
-4 0 -8 1247.78 46.6
-4 0 -8 1228.18 48.3
4 0 8 1175.88 45.6
4 0 8 1253.27 48.5
5 0 8 253.97 13.1
5 0 8 264.77 17.2
-5 0 -8 237.38 15.2
5 0 8 226.78 14.1
5 0 8 227.18 16.1
6 0 8 77.29 8.3
6 0 8 79.69 11.8
6 0 8 73.89 8.1
-6 0 -8 74.39 9.4
6 0 8 78.79 11.3
7 0 8 9.7 4.6
7 0 8 10.5 5.4
7 0 8 15.3 7.3
8 0 8 37.4 7.7
8 0 8 38.6 11.4
8 0 8 41.6 8.7
8 0 8 23.2 10.5
8 0 8 30.8 7.7
9 -1 -8 75.09 11.5
-9 -1 8 125.29 15.5
-9 -1 8 121.39 12.4
9 -1 -8 104.49 14.9
9 1 -8 112.19 15.9
-9 1 8 123.49 8.8
9 1 -8 89.89 15.2
8 -1 -8 142.59 15.3
-8 -1 8 184.38 16.3
-8 -1 8 208.48 15.4
8 -1 -8 168.78 20
8 1 -8 198.28 18.3
8 1 -8 211.88 18
-8 1 8 184.08 14.5
-7 -1 8 42.9 8.4
7 -1 -8 45.4 9
7 -1 -8 54.49 9.2
-7 -1 8 46.8 9
-7 -1 8 51.59 9.6
-7 1 8 45.8 8.7
7 1 -8 45 8.1
7 1 -8 46.1 7.9
-7 1 8 48.7 6
-6 -1 8 180.68 13.6
6 -1 -8 203.98 14
6 -1 -8 193.78 14.7
-6 -1 8 183.28 13.9
-6 -1 8 190.28 14.2
6 1 -8 185.98 13
-6 1 8 178.58 11.3
-6 1 8 196.38 14.2
6 1 -8 189.18 14.9
6 1 -8 211.38 15.1
-6 1 8 192.08 14.7
5 -1 -8 174.78 12
-5 -1 8 162.28 11.7
5 -1 -8 183.38 13.2
-5 -1 8 173.68 12.7
5 1 -8 171.48 12.9
-5 1 8 158.18 11.9
-5 1 8 157.88 12.1
5 1 -8 148.39 11
5 1 -8 168.88 13.1
-4 -1 8 7.4 2.8
4 -1 -8 10.4 3.5
4 -1 -8 8.4 3.3
-4 -1 8 3.5 2.6
4 -1 -8 9.3 3.5
-4 1 8 4.6 3.1
4 1 -8 11.1 3.2
4 1 -8 11.9 3.5
4 1 -8 5.3 3.2
-4 1 8 8.8 3
3 -1 -8 182.88 12
-3 -1 8 179.98 12.1
-3 -1 8 163.58 10.8
3 -1 -8 183.78 12
3 -1 -8 174.68 10.7
3 1 -8 162.58 11.6
-3 1 8 177.08 11.8
3 1 -8 167.28 11.9
3 1 -8 173.88 10.5
-2 -1 8 710.53 29.6
2 -1 -8 738.53 28.2
-2 -1 8 693.63 28.6
2 -1 -8 737.73 29.9
2 -1 -8 723.93 29.1
2 1 -8 731.93 28
-2 1 8 701.03 31
2 1 -8 690.13 29.4
-2 1 8 665.33 32.2
2 1 -8 707.03 30
-2 1 8 708.93 26.7
1 -1 -8 248.78 13.9
-1 -1 8 244.28 13.3
-1 -1 8 246.38 14
-1 -1 8 241.88 13.4
-1 1 8 205.98 18.5
-1 1 8 257.97 15.1
1 1 -8 232.38 12.4
1 1 -8 256.27 13.9
-1 1 8 239.28 11.4
0 -1 8 374.26 17.6
0 -1 8 376.46 18.5
0 -1 -8 395.76 17.4
0 -1 -8 381.16 18.5
0 -1 8 374.06 18.2
0 -1 -8 399.66 17.6
0 1 -8 366.36 18.1
0 1 -8 362.86 17.1
0 1 8 370.46 19.5
0 1 8 355.76 20.9
0 1 8 379.66 15.9
-1 -1 -8 74.09 7.5
-1 -1 -8 84.19 6.8
1 -1 8 83.09 7.7
1 -1 8 80.39 7.6
-1 -1 -8 88.29 6.8
1 -1 8 73.99 6.7
1 -1 8 74.79 9.4
1 1 8 79.79 8
1 1 8 72.69 7.2
1 1 8 83.19 6.2
-1 1 -8 66.69 7.3
1 1 8 80.49 7.2
-1 1 -8 75.59 6.8
-2 -1 -8 528.35 24.6
2 -1 8 581.84 25.5
2 -1 8 548.95 23.8
-2 -1 -8 566.14 25.4
-2 -1 -8 577.44 23.6
2 -1 8 548.45 28.3
-2 1 -8 553.94 24.3
2 1 8 543.45 24
2 1 8 565.64 26.2
2 1 8 592.14 25.7
-2 1 -8 590.84 25.3
3 -1 8 46.7 7.3
-3 -1 -8 32.9 6
-3 -1 -8 56.19 11.4
3 -1 8 47.8 5.8
-3 -1 -8 49.8 5.9
-3 -1 -8 32.8 6
3 1 8 43.2 7
3 1 8 61.99 5.9
3 1 8 49.1 8.4
-3 1 -8 46.4 6.6
3 1 8 33.1 5
4 -1 8 222.88 15
4 -1 8 231.68 14
-4 -1 -8 229.08 19.6
-4 -1 -8 266.47 14.5
-4 -1 -8 232.98 15.7
-4 -1 -8 244.78 14.5
4 -1 8 229.68 16
4 1 8 233.78 15.4
-4 1 -8 250.57 15
4 1 8 242.88 13.8
5 -1 8 252.27 15
-5 -1 -8 237.78 14.5
5 -1 8 235.58 16.4
5 -1 8 237.28 16.3
-5 -1 -8 205.78 19.7
5 1 8 249.78 16.8
-5 1 -8 236.08 15.3
5 1 8 230.58 14.2
5 1 8 230.38 14.1
-6 -1 -8 86.59 9.9
6 -1 8 99.19 9.7
-6 -1 -8 72.89 18.7
6 1 8 92.69 10.9
6 1 8 92.79 12.2
6 1 8 101.39 10.4
6 1 8 103.99 9.2
-7 -1 -8 532.95 36.1
7 -1 8 589.84 30.3
7 -1 8 571.54 30.3
7 -1 8 524.65 26.8
7 1 8 560.04 30
7 1 8 592.24 30.6
7 1 8 534.25 29.6
7 1 8 562.54 26.2
7 1 8 512.45 31
8 -1 8 13.6 9.3
-8 -1 -8 40.4 12.9
8 -1 8 34.1 6.8
8 -1 8 33.7 8.3
8 1 8 37.2 8.3
8 1 8 53.69 12.8
8 1 8 10.5 8.9
8 1 8 28.5 6.4
8 1 8 37.8 8.6
-9 -2 8 31.9 7.7
9 -2 -8 38 10.1
9 -2 -8 59.29 11.1
-9 -2 8 61.59 10.5
9 2 -8 25.9 13.6
9 2 -8 69.29 13.4
9 2 -8 8.5 7.5
-8 -2 8 15.1 5.4
8 -2 -8 26.6 8
8 -2 -8 13 7.3
-8 -2 8 22.8 6.7
8 2 -8 48.7 12.2
8 2 -8 12 7.2
8 2 -8 5.3 5.7
-7 -2 8 53.19 9
7 -2 -8 56.19 10.2
-7 -2 8 47.3 8.6
7 -2 -8 44.2 7.3
-7 -2 8 69.99 9.9
-7 2 8 53.29 8.9
7 2 -8 44.9 8.3
7 2 -8 67.99 8.7
7 2 -8 57.59 10.3
-6 -2 8 84.49 9.9
6 -2 -8 79.79 10.3
-6 -2 8 114.59 10.6
-6 -2 8 88.29 10.8
6 -2 -8 100.39 9.6
-6 2 8 82.99 9.5
6 2 -8 97.19 8.8
-5 -2 8 110.69 9.6
5 -2 -8 106.09 10.3
-5 -2 8 99.39 9.8
5 -2 -8 92.39 8.7
5 2 -8 102.19 12.4
-5 2 8 102.29 9.5
5 2 -8 100.69 8.2
4 -2 -8 151.58 10
-4 -2 8 154.78 11.1
-4 -2 8 153.68 11.6
4 -2 -8 157.68 11.6
-4 2 8 139.29 9.2
-4 2 8 153.58 11.3
4 2 -8 137.79 12
4 2 -8 162.48 10
-4 2 8 149.79 11.2
3 -2 -8 376.46 19.3
-3 -2 8 354.26 19
-3 -2 8 381.26 19.1
3 -2 -8 390.06 17.1
3 -2 -8 357.86 19.5
-3 2 8 396.76 18
-3 2 8 367.16 17.5
3 2 -8 387.66 20.6
3 2 -8 364.96 19.1
3 2 -8 385.76 17.3
-3 2 8 380.06 19
-2 -2 8 262.87 15.1
2 -2 -8 292.97 15.6
2 -2 -8 278.07 13
2 -2 -8 259.37 14.9
-2 -2 8 264.27 14.3
-2 -2 8 251.37 14.8
2 2 -8 289.77 13.9
-2 2 8 265.37 12.7
2 2 -8 287.17 16.6
-2 2 8 270.97 14.4
2 2 -8 282.27 15.3
-2 2 8 267.97 14.8
1 -2 -8 375.26 18.5
-1 -2 8 371.36 18.6
1 -2 -8 385.56 18.2
1 -2 -8 366.76 19.6
-1 -2 8 383.26 19.2
-1 -2 8 365.86 17.5
1 2 -8 379.46 17.3
-1 2 8 376.76 14.9
-1 2 8 395.76 18.7
1 2 -8 382.56 18.5
-1 2 8 383.06 18.6
0 -2 -8 1402.56 48.6
0 -2 -8 1345.97 49.6
0 -2 8 1326.07 50.39
0 -2 8 1348.97 49.5
0 -2 8 1385.26 48.4
0 -2 -8 1319.77 50.09
0 2 -8 1367.66 49.1
0 2 8 1219.78 44
0 2 -8 1360.86 48.3
0 2 8 1312.17 49.3
0 2 8 1377.76 50.19
-1 -2 -8 62.79 9
-1 -2 -8 92.29 8.2
-1 -2 -8 73.79 9.3
1 -2 8 91.29 8.7
-1 -2 -8 90.69 7.1
1 -2 8 79.09 6.9
1 -2 8 79.89 7.6
-1 -2 -8 87.99 8.5
-1 2 -8 94.89 8.2
1 2 8 104.89 10.1
-1 2 -8 69.79 6.9
1 2 8 85.99 8.3
-2 -2 -8 519.55 28.9
-2 -2 -8 573.44 23.1
2 -2 8 567.94 30.2
2 -2 8 522.75 23.4
-2 -2 -8 511.75 26.2
2 -2 8 533.55 24.6
-2 -2 -8 514.85 24.6
2 2 8 553.14 26.2
-2 2 -8 518.05 24.1
2 2 8 553.14 24.2
-2 2 -8 554.44 24.2
2 2 8 562.34 25
2 2 8 529.55 20.7
3 -2 8 79.29 8.3
3 -2 8 79.49 10.4
-3 -2 -8 79.89 7.2
-3 -2 -8 93.99 11.4
-3 -2 -8 96.89 9.4
-3 -2 -8 80.79 10.7
3 2 8 79.39 9.5
3 2 8 77.99 8
-3 2 -8 80.19 8.5
3 2 8 73.79 8.2
3 2 8 74.09 7.3
-4 -2 -8 69.89 10.7
4 -2 8 73.99 10.1
-4 -2 -8 78.39 7.7
-4 -2 -8 80.89 11.2
4 -2 8 74.99 8.5
4 2 8 78.29 7.5
4 2 8 87.69 9.2
4 2 8 69.89 8.3
5 -2 8 230.28 16.2
-5 -2 -8 231.68 20
5 -2 8 244.98 15.4
5 -2 8 235.48 17.2
-5 -2 -8 240.28 14.7
-5 -2 -8 235.88 19.3
5 2 8 242.78 15.5
5 2 8 266.47 15
-5 2 -8 238.78 16.1
5 2 8 238.98 16.2
5 2 8 259.07 17.3
6 -2 8 0.9 3.2
-6 -2 -8 7.1 5.9
-6 -2 -8 4.1 4.4
6 -2 8 5.7 3.9
6 -2 8 6.3 4.8
6 2 8 2.6 4.5
6 2 8 -2.3 5.9
6 2 8 6.8 4.5
6 2 8 -2 4.1
6 2 8 3.2 3.1
7 -2 8 159.68 14.3
-7 -2 -8 129.29 17.1
7 -2 8 150.88 12.6
7 -2 8 133.29 15
7 2 8 151.68 14.7
7 2 8 139.59 11.6
7 2 8 134.59 13.8
7 2 8 96.79 13.7
8 -3 -8 15.9 7.6
-8 -3 8 21.3 6.9
-8 -3 8 18.6 7.7
8 -3 -8 15.7 6.8
8 3 -8 18 9.9
8 3 -8 17.6 5.7
8 3 -8 33.1 9.6
-7 -3 8 236.48 17.6
7 -3 -8 224.08 17.8
-7 -3 8 235.48 29
-7 -3 8 247.98 17.7
7 -3 -8 238.38 15.8
7 3 -8 215.28 18.3
7 3 -8 248.08 14.1
7 3 -8 254.27 20.6
-6 -3 8 90.29 15.8
-6 -3 8 114.19 12.3
6 -3 -8 113.49 10
6 -3 -8 97.89 11.2
-6 -3 8 96.99 12.1
6 3 -8 103.69 12.2
-6 3 8 86.99 9.9
6 3 -8 104.89 8.5
6 3 -8 89.19 11.9
5 -3 -8 458.05 23.3
5 -3 -8 437.46 20.7
-5 -3 8 434.26 22.7
-5 -3 8 465.55 23.7
-5 3 8 438.86 22.3
5 3 -8 436.46 19.6
4 -3 -8 258.27 13.7
-4 -3 8 247.28 15.7
-4 -3 8 252.17 16
4 -3 -8 282.77 16.2
-4 3 8 278.57 15.9
4 3 -8 311.27 14.5
-3 -3 8 94.49 8.9
-3 -3 8 92.99 8.6
3 -3 -8 95.69 8.8
3 -3 -8 98.19 6.7
-3 3 8 78.09 6.1
3 3 -8 79.99 8.5
3 3 -8 89.89 7.2
-3 3 8 90.99 8.4
2 -3 -8 2315.37 85.99
2 -3 -8 2406.26 81.59
-2 -3 8 2324.07 79.69
2 -3 -8 2392.46 76.69
2 -3 -8 2329.17 85.59
-2 -3 8 2396.96 81.59
-2 -3 8 2292.97 82.39
2 3 -8 2472.45 79.59
-2 3 8 2382.26 80.69
-2 3 8 2112.49 78.69
2 3 -8 2414.06 82.09
1 -3 -8 77.29 13.2
1 -3 -8 90.19 8
1 -3 -8 96.69 10.7
-1 -3 8 87.09 8
1 -3 -8 92.59 8.2
-1 -3 8 88.39 8.8
-1 -3 8 91.69 7.3
1 3 -8 83.79 7.9
1 3 -8 75.89 7.2
1 3 -8 87.59 7.4
-1 3 8 80.59 7.6
-1 3 8 73.79 8
0 -3 -8 575.84 31.3
0 -3 8 584.54 28.1
0 -3 -8 612.04 25.9
0 -3 8 626.44 26.7
0 -3 8 603.04 25.4
0 -3 -8 634.24 30.1
0 -3 -8 600.94 29.5
0 -3 -8 642.34 27
0 3 -8 634.24 26.1
0 3 8 602.94 27.6
0 3 -8 657.13 26.5
0 3 8 598.04 26.2
1 -3 8 112.09 9.1
-1 -3 -8 104.19 9.1
-1 -3 -8 110.79 8.3
-1 -3 -8 105.49 10.9
1 -3 8 111.79 8.5
1 -3 8 112.29 10.4
-1 -3 -8 112.09 14.8
-1 3 -8 96.89 10.9
-1 3 -8 102.79 8.8
-1 3 -8 95.59 8.4
1 3 8 105.79 10.3
1 3 8 107.49 8.9
-2 -3 -8 260.57 13.2
-2 -3 -8 228.78 18.8
2 -3 8 246.38 14
-2 -3 -8 225.28 17.1
-2 -3 -8 242.48 14.8
2 -3 8 226.18 14
-2 3 -8 241.78 14.8
-2 3 -8 246.98 14
-2 3 -8 209.08 14.9
2 3 8 253.17 17
2 3 8 217.08 16.3
3 -3 8 305.27 16.6
-3 -3 -8 292.77 20.4
-3 -3 -8 252.97 21.8
3 -3 8 317.27 17.3
-3 -3 -8 298.77 17.6
-3 -3 -8 280.57 14.7
3 -3 8 267.37 20.8
3 3 8 291.07 16.9
3 3 8 284.07 18
4 -3 8 17 4.9
4 -3 8 17.2 6.3
4 -3 8 19.1 4.8
-4 -3 -8 22.4 4.5
-4 -3 -8 31.7 12.7
-4 -3 -8 15.4 5.4
4 3 8 19.9 4.9
4 3 8 18.7 3.9
-4 3 -8 23.8 6
4 3 8 20.7 5.5
4 3 8 15.2 5.1
-5 -3 -8 171.68 11.9
5 -3 8 185.58 15.8
5 -3 8 177.58 15.4
-5 -3 -8 149.49 29.2
-5 -3 -8 177.58 32.1
5 -3 8 191.38 16.3
5 3 8 165.58 12.2
5 3 8 157.98 10.9
5 3 8 174.78 15
5 3 8 161.48 16.7
5 3 8 211.68 15.1
6 -3 8 16.1 7.4
-6 -3 -8 13.5 5.9
6 -3 8 12.6 4.6
6 -3 8 23 6.6
-6 -3 -8 12.5 5.3
6 3 8 21.8 6.8
6 3 8 23.1 7.6
6 3 8 17.3 6.3
6 3 8 14.5 4.5
6 3 8 18.6 5.8
7 -3 8 129.19 12.5
7 -3 8 125.19 15.2
7 -3 8 133.89 13.7
-7 -3 -8 126.19 16.7
7 3 8 148.79 16.3
7 3 8 144.99 18.3
7 3 8 106.89 16.6
7 3 8 119.29 13.2
7 3 8 139.79 11.7
-7 -4 8 279.97 18.8
7 -4 -8 239.18 16.8
-7 -4 8 258.27 20.9
7 -4 -8 190.58 20.4
7 4 -8 314.17 32
7 4 -8 197.88 12.7
7 4 -8 210.08 19.8
7 4 -8 236.88 23.1
6 -4 -8 130.89 10.9
6 -4 -8 126.39 12.5
-6 -4 8 142.29 12.5
-6 -4 8 155.68 13.5
-6 -4 8 137.89 15.2
6 4 -8 119.09 14
6 4 -8 144.49 26.2
6 4 -8 108.39 14.8
6 4 -8 117.29 9.4
5 -4 -8 244.58 13.6
-5 -4 8 260.87 22.8
-5 -4 8 248.78 17.2
5 -4 -8 226.88 15.3
5 4 -8 224.88 12.7
5 4 -8 245.48 19
5 4 -8 208.58 18.1
-5 4 8 242.28 15.1
4 -4 -8 71.69 8.6
-4 -4 8 76.59 8.8
-4 -4 8 80.59 9
4 -4 -8 73.69 6.7
-4 4 8 84.69 8.5
4 4 -8 85.19 7.2
4 4 -8 83.59 11.2
-3 -4 8 460.85 24.2
-3 -4 8 511.95 23.9
3 -4 -8 504.55 19.4
3 -4 -8 502.35 23.7
3 -4 -8 450.35 33.5
3 4 -8 479.95 34.3
3 4 -8 463.55 27.1
-3 4 8 499.05 22.5
3 4 -8 516.75 21.8
2 -4 -8 89.29 9.6
-2 -4 8 82.79 8.3
-2 -4 8 91.29 7.4
2 -4 -8 97.19 9
-2 -4 8 70.19 8.6
2 -4 -8 86.19 19
2 4 -8 96.09 8.2
2 4 -8 96.49 10
-2 4 8 97.89 7.6
2 4 -8 86.09 16
2 4 -8 101.29 8.8
-2 4 8 86.79 8
1 -4 -8 549.35 24.9
1 -4 -8 547.25 25
-1 -4 8 530.85 26.6
-1 -4 8 569.74 23.4
1 -4 -8 546.45 29.6
-1 -4 8 527.45 24
1 4 -8 536.95 24
1 4 -8 532.85 24.7
1 4 -8 548.55 32.2
-1 4 8 543.55 23.7
-1 4 8 511.35 24.3
1 4 -8 525.35 23.5
0 -4 8 86.19 9.7
0 -4 -8 85.49 9.6
0 -4 -8 97.09 8.7
0 -4 -8 71.49 10.8
0 -4 8 104.49 8.6
0 -4 8 89.59 7.6
0 -4 -8 95.39 8.4
0 4 8 94.29 9.9
0 4 8 102.79 8.5
0 4 -8 85.79 8.9
0 4 -8 95.19 12.2
0 4 -8 93.39 7.9
1 -4 8 460.15 20.9
1 -4 8 479.75 21.5
-1 -4 -8 414.46 25.4
-1 -4 -8 435.16 21.6
-1 -4 -8 449.16 20.2
-1 -4 -8 455.45 24.6
1 -4 8 462.95 24.8
-1 4 -8 423.46 24.9
1 4 8 406.56 23.7
-1 4 -8 447.16 22
-1 4 -8 408.66 19.8
1 4 8 454.35 21.2
-2 -4 -8 217.08 12.1
2 -4 8 217.48 16.3
-2 -4 -8 228.88 17.9
-2 -4 -8 216.78 14.3
2 -4 8 219.18 13.5
-2 -4 -8 217.18 16.4
2 -4 8 226.48 13.7
-2 4 -8 181.48 12.2
2 4 8 185.78 16.3
-2 4 -8 192.08 14.7
2 4 8 196.48 13.1
-3 -4 -8 523.45 29
-3 -4 -8 529.55 25.8
3 -4 8 504.35 24.4
3 -4 8 493.65 31.3
3 -4 8 498.45 24.1
-3 -4 -8 509.15 21.9
3 4 8 496.15 24.5
-3 4 -8 526.05 28.5
3 4 8 499.45 27.6
-3 4 -8 501.55 25.8
-4 -4 -8 469.75 27.9
4 -4 8 425.26 27.9
-4 -4 -8 434.06 20
4 -4 8 415.96 22.7
4 4 8 442.96 23.1
4 4 8 495.95 32.9
4 4 8 425.86 25.9
5 -4 8 441.66 27.5
-5 -4 -8 454.65 28.6
-5 -4 -8 429.06 20.3
5 -4 8 480.95 24.6
5 -4 8 418.06 23.3
5 4 8 462.75 24.8
5 4 8 446.96 27.3
5 4 8 413.46 29.7
6 -4 8 219.08 18.3
6 -4 8 216.18 16.4
-6 -4 -8 217.08 20
6 -4 8 196.98 15.3
-6 -4 -8 173.88 15
6 4 8 153.58 11.6
6 4 8 215.38 24.8
6 4 8 218.68 19.2
6 4 8 194.68 16.3
6 -5 -8 94.69 10.3
-6 -5 8 84.79 15
-6 -5 8 92.09 10.8
6 -5 -8 94.49 11.5
6 5 -8 88.59 20
6 5 -8 82.29 15.6
6 5 -8 75.19 11.8
6 5 -8 113.99 18.4
-5 -5 8 232.18 16.3
-5 -5 8 220.38 16.1
-5 -5 8 218.88 20.1
5 -5 -8 234.78 16.2
5 -5 -8 226.18 13.2
5 5 -8 238.78 20.7
5 5 -8 229.48 13.5
5 5 -8 243.28 22
5 5 -8 204.58 25.5
5 5 -8 224.78 16.7
4 -5 -8 213.88 11.3
-4 -5 8 228.98 15.8
4 -5 -8 204.98 23.9
4 5 -8 196.38 12.2
4 5 -8 197.48 18.4
4 5 -8 218.58 24.7
3 -5 -8 124.89 10.6
-3 -5 8 126.39 10.8
-3 -5 8 134.19 13.7
3 -5 -8 138.39 18.6
-3 5 8 127.29 9.4
3 5 -8 141.09 19.4
3 5 -8 150.78 14.8
3 5 -8 114.99 9.6
-2 -5 8 788.82 32.2
2 -5 -8 815.02 36.7
-2 -5 8 872.51 34.7
2 -5 -8 837.12 34.1
-2 -5 8 872.41 37.8
2 -5 -8 748.23 42.2
2 5 -8 839.52 37.9
-2 5 8 842.72 32.7
2 5 -8 893.01 47.6
2 5 -8 838.42 33.9
1 -5 -8 53.09 6.8
-1 -5 8 45.2 5.7
1 -5 -8 35.8 6.3
-1 -5 8 45.2 6.9
1 -5 -8 41.6 7.3
-1 -5 8 28.8 6.6
1 -5 -8 44 11.6
-1 5 8 45.3 7.5
1 5 -8 56.79 6.8
1 5 -8 48.5 12.1
1 5 -8 38.4 7.4
-1 5 8 42.2 6
1 5 -8 50.29 8
0 -5 8 674.53 32.5
0 -5 -8 670.23 31.3
0 -5 -8 629.14 28.2
0 -5 8 617.24 27.3
0 -5 -8 645.44 28.2
0 -5 8 643.04 27.3
0 5 -8 649.64 29.4
0 5 -8 625.34 35.4
0 5 -8 636.14 26
0 5 8 678.63 27.5
0 5 8 678.03 31.4
-1 -5 -8 257.87 18
1 -5 8 253.47 14.7
1 -5 8 239.48 14.8
1 -5 8 278.47 19.3
-1 -5 -8 260.97 15.8
1 5 8 288.07 19.9
1 5 8 269.97 15.1
-1 5 -8 278.17 14.1
-1 5 -8 266.67 20
2 -5 8 360.86 19.2
2 -5 8 410.96 20.8
-2 -5 -8 413.76 21.4
-2 -5 -8 371.86 18.2
2 -5 8 453.95 27.4
-2 -5 -8 405.16 24.1
2 5 8 383.06 19.9
-2 5 -8 408.76 23.7
2 5 8 369.26 29.3
3 -5 8 201.78 23.1
3 -5 8 217.88 17.8
-3 -5 -8 199.48 17.4
-3 -5 -8 202.08 11.9
3 -5 8 218.78 14.1
-3 5 -8 202.88 14.8
3 5 8 214.58 14.1
3 5 8 213.08 18
3 5 8 149.29 28.3
-4 -5 -8 105.99 13.2
4 -5 8 103.39 10.7
4 -5 8 123.79 11
-4 -5 -8 110.79 9.4
4 -5 8 87.89 14.4
4 5 8 94.79 17.9
4 5 8 98.79 13.9
4 5 8 124.79 11.6
5 -5 8 305.07 19.3
5 -5 8 296.87 24.1
5 -5 8 293.67 18.4
-5 -5 -8 276.47 22.5
-5 -5 -8 288.97 15.3
5 5 8 242.78 27.7
5 5 8 311.07 19.4
5 5 8 284.07 23.1
-5 -6 8 19.2 7.4
5 -6 -8 14.4 4.6
-5 -6 8 13.1 5.7
5 -6 -8 19.8 6.3
5 6 -8 12.1 9
5 6 -8 19.5 8.9
5 6 -8 7.1 8
4 -6 -8 28.4 6.3
-4 -6 8 27.6 6.6
-4 -6 8 26.5 6.7
-4 -6 8 33.5 10.7
4 6 -8 33.6 14.3
4 6 -8 30.1 9.1
4 6 -8 20.6 6.9
3 -6 -8 154.98 11.4
-3 -6 8 151.48 11.9
-3 -6 8 154.98 13.7
3 6 -8 116.59 19.8
3 6 -8 130.49 11.4
3 6 -8 135.79 15.5
2 -6 -8 45.7 8.2
-2 -6 8 52.79 9.2
-2 -6 8 49.9 6.2
-2 -6 8 58.99 7.4
2 -6 -8 40.6 6.4
2 -6 -8 4.8 13.3
2 6 -8 44.8 9.4
2 6 -8 40.5 12.2
1 -6 -8 130.69 10.7
1 -6 -8 119.89 11.3
1 -6 -8 129.29 12.6
-1 -6 8 146.19 10.1
-1 -6 8 135.49 13.4
-1 -6 8 135.59 10.5
1 6 -8 141.99 25.1
1 6 -8 114.39 12.8
0 -6 -8 107.89 10.5
0 -6 -8 122.79 10.1
0 -6 -8 104.69 25.7
0 -6 8 102.99 8.9
0 -6 8 101.19 12.1
0 -6 8 101.29 8.9
0 -6 -8 108.19 11.3
0 6 -8 90.09 15.8
0 6 8 95.29 8.4
-1 -6 -8 10.2 4.1
1 -6 8 10.5 4
-1 -6 -8 3.4 4.1
1 -6 8 8.4 3.6
-1 -6 -8 10.7 5
1 -6 8 7.8 4.7
-1 6 -8 9 6.6
1 6 8 0.2 3.3
2 -6 8 138.39 14.5
2 -6 8 124.79 9.9
-2 -6 -8 114.69 13
-2 -6 -8 109.69 9.4
2 -6 8 104.69 10.6
2 6 8 104.29 24.5
-2 6 -8 122.59 14.1
3 -6 8 84.29 9.2
3 -6 8 80.79 9.5
3 -6 8 101.19 15.8
-3 -6 -8 84.09 8.2
-3 -6 -8 97.49 12.7
3 6 8 86.09 9.9
-3 6 -8 79.39 12.1
3 6 8 58.49 22.4
-4 -6 -8 14.7 4.5
4 -6 8 9.1 6
4 -6 8 9.6 5.2
4 -6 8 0.8 12.2
4 -6 8 7.6 4.7
-4 -6 -8 11.9 6.1
4 6 8 14 8.7
4 6 8 8 5.2
4 6 8 -2.5 13.8
1 -7 -8 33.7 6.6
-1 -7 8 41.7 8.6
-1 -7 8 30.3 5.7
1 -7 -8 22.4 6.3
1 -7 -8 25.8 7.9
1 7 -8 26.5 11.9
0 -7 -8 27.9 7.3
0 -7 8 27.4 8
0 -7 8 31.9 6.1
0 7 -8 33.7 11.1
9 0 -9 34.7 11.8
9 0 -9 45.1 14.2
8 0 -9 35.1 9.4
-8 0 9 16.5 7.1
8 0 -9 25.9 8
8 0 -9 15.3 7.5
-8 0 9 21.5 5.9
-8 0 9 15.7 6.5
-7 0 9 26 6.3
-7 0 9 19.5 6.1
-7 0 9 31.1 6.6
7 0 -9 26.4 6.3
7 0 -9 39.5 8.2
-6 0 9 30.4 6.4
6 0 -9 48.2 8.1
6 0 -9 40.7 7.7
-6 0 9 31.6 6.6
5 0 -9 52.79 8.1
-5 0 9 45.3 7.4
5 0 -9 56.59 8.8
-5 0 9 60.39 7.2
5 0 -9 45.6 7.2
4 0 -9 87.19 11.1
4 0 -9 94.49 9.1
-4 0 9 96.09 9.1
4 0 -9 93.79 10.3
-4 0 9 83.79 7.7
-3 0 9 3.9 2.1
3 0 -9 2.6 2.2
-3 0 9 0.6 2.5
3 0 -9 0.7 2.3
3 0 -9 3.5 2.9
-2 0 9 38.5 5.7
2 0 -9 25 5.2
2 0 -9 29.7 5.5
2 0 -9 31.5 5.8
-2 0 9 35 6.4
1 0 -9 -0.5 1.7
-1 0 9 2.1 2.3
-1 0 9 1.2 2.6
-1 0 9 1.9 1.6
1 0 -9 -0.5 2.4
0 0 -9 251.47 13.1
0 0 -9 227.48 10.9
0 0 9 219.88 13.9
0 0 -9 230.38 13.9
0 0 9 215.18 13.2
0 0 9 227.38 13
0 0 9 213.48 15.8
-1 0 -9 328.47 16.7
1 0 9 364.26 17.4
-1 0 -9 345.37 18.4
1 0 9 353.26 18.6
1 0 9 337.17 17.3
1 0 9 346.57 20.4
2 0 9 68.29 7
-2 0 -9 89.89 8.6
2 0 9 66.69 7.8
2 0 9 77.49 7.4
2 0 9 57.29 13.5
-2 0 -9 62.59 7
3 0 9 69.39 8.1
3 0 9 82.29 7.6
-3 0 -9 61.49 7.3
-3 0 -9 67.19 8.5
-4 0 -9 145.69 12.4
4 0 9 129.79 11.9
-4 0 -9 156.98 11.8
4 0 9 157.68 11.3
5 0 9 153.98 17.5
5 0 9 160.18 13.7
5 0 9 174.18 12.3
-5 0 -9 157.78 12.6
6 0 9 253.57 18.6
-6 0 -9 241.98 17.1
6 0 9 265.47 19.3
6 0 9 244.08 15.9
7 0 9 90.39 13.4
7 0 9 91.19 9.8
7 0 9 76.59 13.3
8 -1 -9 7.9 7.3
-8 -1 9 -0.6 3.3
-8 -1 9 4 4.3
-8 -1 9 7.4 5.2
8 -1 -9 21.3 7.9
-8 1 9 8.2 3.7
8 1 -9 5.9 8.4
8 1 -9 5.9 6.2
-8 1 9 8.9 5.2
-7 -1 9 74.99 10.2
7 -1 -9 77.89 12.1
7 -1 -9 68.49 15
-7 -1 9 89.39 10.6
-7 1 9 99.69 11
7 1 -9 79.39 11.2
-7 1 9 78.79 11.8
7 1 -9 60.39 9.9
-6 -1 9 231.08 16.4
-6 -1 9 214.88 15.2
6 -1 -9 237.58 15.5
6 -1 -9 222.88 16.8
6 1 -9 220.28 14.7
-6 1 9 215.68 13.1
-6 1 9 210.18 15.6
-6 1 9 213.68 15.6
6 1 -9 197.78 15.7
6 1 -9 230.68 16.7
5 -1 -9 194.98 15.4
-5 -1 9 179.58 13.8
-5 -1 9 203.28 13.4
-5 1 9 182.18 13.7
5 1 -9 215.38 15.2
-5 1 9 202.18 13.6
5 1 -9 189.78 14.6
-4 -1 9 399.66 19.6
4 -1 -9 384.66 20.5
4 -1 -9 399.56 19.7
4 -1 -9 366.46 20.7
-4 -1 9 364.06 20.3
-4 1 9 379.26 18.9
-4 1 9 403.86 20.7
4 1 -9 407.26 21.5
4 1 -9 401.76 19.2
3 -1 -9 316.87 25.4
-3 -1 9 368.76 18.3
-3 -1 9 391.16 20
3 -1 -9 370.76 18.1
-3 1 9 371.06 17
-3 1 9 367.76 19.3
3 1 -9 336.37 22.2
3 1 -9 409.16 20.6
-3 1 9 334.87 19.9
3 1 -9 372.86 17.9
2 -1 -9 1144.59 43.1
2 -1 -9 1189.88 45.4
-2 -1 9 1242.98 45.7
2 -1 -9 1191.28 44.4
-2 -1 9 1159.98 44
-2 1 9 1128.09 46.6
2 1 -9 1191.88 45.7
-2 1 9 1196.58 45.3
-2 1 9 1115.19 41.4
2 1 -9 1177.08 43.2
2 1 -9 1166.68 45.1
1 -1 -9 320.27 15.9
1 -1 -9 319.37 17
1 -1 -9 296.77 15.8
-1 -1 9 292.27 15.9
-1 -1 9 302.67 16.1
-1 -1 9 281.87 16.4
-1 1 9 269.97 16.1
1 1 -9 308.97 15.4
-1 1 9 331.77 18.3
-1 1 9 296.57 13.9
1 1 -9 318.17 16.7
0 -1 9 838.22 34
0 -1 9 825.42 33.4
0 -1 -9 863.61 33.1
0 -1 -9 818.62 32.6
0 -1 -9 804.92 34.2
0 -1 9 883.11 35
0 1 9 828.62 31.1
0 1 -9 850.11 34.3
0 1 9 836.22 35.9
0 1 -9 900.11 33.4
0 1 9 818.82 34.4
1 -1 9 85.39 10.5
1 -1 9 76.19 7.7
-1 -1 -9 80.69 7.1
1 -1 9 75.69 7.2
-1 -1 -9 83.99 8.5
1 -1 9 73.29 7.7
-1 -1 -9 83.09 7.1
1 1 9 76.29 6.4
1 1 9 76.59 7.9
-1 1 -9 88.79 7.7
1 1 9 84.19 8.8
-1 1 -9 78.89 8.1
1 1 9 79.49 7.7
-2 -1 -9 608.94 24.1
-2 -1 -9 525.95 25
2 -1 9 558.84 25.6
2 -1 9 510.05 23.6
2 1 9 550.24 25.5
2 1 9 553.94 22.8
2 1 9 541.35 24.2
2 1 9 431.86 26.5
-3 -1 -9 162.78 13
-3 -1 -9 177.58 11.5
3 -1 9 161.48 12.4
3 -1 9 173.58 11.6
-3 -1 -9 161.88 13.5
3 1 9 134.99 14.7
-3 1 -9 162.78 12
3 1 9 154.38 11.2
3 1 9 174.28 12.7
-4 -1 -9 259.97 15.5
-4 -1 -9 230.18 16.2
4 -1 9 271.17 15.7
-4 -1 -9 279.97 17.8
4 -1 9 262.27 17.2
4 1 9 280.77 15.8
4 1 9 271.07 17.5
4 1 9 276.27 14.2
-4 1 -9 272.57 16.5
5 -1 9 105.79 11
-5 -1 -9 110.79 10.5
5 -1 9 103.89 13.3
5 -1 9 88.59 9.3
-5 -1 -9 97.89 14.7
-5 1 -9 104.19 11.2
5 1 9 105.69 9.5
5 1 9 117.49 9.4
5 1 9 118.79 11.7
6 -1 9 47.6 9.1
6 -1 9 48.3 8.2
-6 -1 -9 37.6 11.4
-6 -1 -9 54.59 8.9
6 -1 9 57.79 10
6 1 9 41.3 6.8
6 1 9 48.7 9.1
-6 1 -9 50.59 9.1
6 1 9 30.3 6.1
7 -1 9 224.58 15.9
7 -1 9 215.98 19.5
-7 -1 -9 244.58 17.5
7 -1 9 210.68 17.7
-7 -1 -9 174.18 21.8
7 1 9 212.78 20.5
7 1 9 203.48 17.8
7 1 9 211.68 16.3
7 1 9 219.08 15.3
7 1 9 203.18 31.6
-8 -2 9 285.27 20.3
8 -2 -9 246.48 19.5
8 -2 -9 240.38 21.1
-8 -2 9 217.28 28.3
-8 -2 9 287.17 20.6
8 2 -9 282.87 23.3
8 2 -9 230.28 19.2
8 2 -9 278.67 23
-7 -2 9 78.69 10.4
-7 -2 9 55.99 9.6
7 -2 -9 63.09 9.8
-7 -2 9 87.29 11.3
7 -2 -9 52.69 9.7
7 2 -9 98.69 13.1
7 2 -9 72.09 12.4
-7 2 9 89.49 11
7 2 -9 81.19 9.8
-6 -2 9 318.77 19.6
6 -2 -9 291.27 19.5
-6 -2 9 291.67 18.3
6 -2 -9 296.37 17.7
-6 2 9 308.37 18.6
6 2 -9 267.77 19
6 2 -9 284.97 20.7
-5 -2 9 199.68 13.8
-5 -2 9 193.38 14.4
5 -2 -9 182.18 12.9
5 -2 -9 201.28 15
-5 2 9 172.98 11.1
5 2 -9 223.58 13
-5 2 9 218.88 15
-5 2 9 214.78 14.6
5 2 -9 196.48 15.5
4 -2 -9 407.86 21.8
-4 -2 9 394.26 20.7
4 -2 -9 426.36 19.8
-4 -2 9 427.96 22
-4 2 9 385.96 19.1
4 2 -9 411.56 19.2
-4 2 9 408.06 20.5
4 2 -9 408.46 22.9
-4 2 9 417.56 21.4
-3 -2 9 1085.39 43.7
3 -2 -9 1094.79 41.5
-3 -2 9 1150.18 44.9
3 -2 -9 1143.49 44.8
-3 2 9 1133.19 41.9
-3 2 9 1158.28 44.5
3 2 -9 1152.58 42
-2 -2 9 922.71 37
2 -2 -9 1006.1 39
2 -2 -9 893.11 37
2 -2 -9 908.11 33.8
-2 -2 9 897.61 36.1
-2 -2 9 862.51 36.5
-2 2 9 872.81 36.4
-2 2 9 914.51 36.4
2 2 -9 921.31 39
2 2 -9 888.01 34.7
-2 2 9 903.91 33.1
1 -2 -9 538.25 24.2
1 -2 -9 558.24 25.3
-1 -2 9 520.65 23.7
-1 -2 9 542.05 25.3
-1 -2 9 517.05 24.8
1 -2 -9 570.14 26.3
-1 2 9 560.04 25.2
1 2 -9 543.45 23.4
-1 2 9 548.35 24.9
-1 2 9 533.55 20.5
1 2 -9 581.24 28.1
0 -2 -9 162.78 12.3
0 -2 9 155.18 10.8
0 -2 -9 178.78 12.2
0 -2 -9 155.28 10.9
0 -2 9 167.18 12.2
0 -2 9 182.38 12.3
0 2 -9 170.48 11.2
0 2 9 179.68 12.1
0 2 9 185.88 8.5
0 2 -9 163.48 14.3
0 2 9 206.98 13.3
-1 -2 -9 522.35 24.1
-1 -2 -9 488.65 22.2
1 -2 9 488.45 24.7
1 -2 9 507.35 24.2
-1 -2 -9 496.95 26.4
-1 -2 -9 526.85 24.5
1 -2 9 529.05 23.1
1 2 9 494.65 19.2
1 2 9 523.15 25.2
1 2 9 486.15 23.8
-1 2 -9 542.55 28.2
-1 2 -9 512.05 23.8
-2 -2 -9 544.75 33.8
-2 -2 -9 658.73 27.4
2 -2 9 679.33 29.6
2 -2 9 671.43 30.8
-2 -2 -9 643.74 34.8
2 -2 9 675.03 28.4
-2 -2 -9 686.83 30.1
2 2 9 658.93 29.5
2 2 9 630.24 28.8
-2 2 -9 677.53 29.1
2 2 9 751.72 32.8
-2 2 -9 644.34 28.9
2 2 9 652.13 24.9
-3 -2 -9 1280.87 47.4
-3 -2 -9 1048.8 50.59
-3 -2 -9 1219.08 54.09
-3 -2 -9 1063.39 47
3 -2 9 1152.08 50.59
3 -2 9 1179.28 44.7
3 -2 9 1196.98 46.4
3 2 9 1141.79 44.7
3 2 9 1104.89 45.9
4 -2 9 286.57 20
4 -2 9 307.37 18.4
4 -2 9 281.87 16.6
-4 -2 -9 271.77 15.6
-4 -2 -9 275.97 18.4
-4 -2 -9 260.17 21.8
-4 -2 -9 266.47 20.5
4 2 9 271.07 17.7
4 2 9 262.67 16.2
4 2 9 284.27 19.4
4 2 9 271.37 16
5 -2 9 295.07 20.2
-5 -2 -9 268.27 23.6
5 -2 9 294.37 21.1
-5 -2 -9 311.37 17.2
-5 -2 -9 302.27 30.4
5 -2 9 292.57 20.1
5 2 9 259.87 20.2
5 2 9 265.97 16.5
5 2 9 311.37 18.2
-5 2 -9 292.17 19.1
5 2 9 279.27 17.6
5 2 9 282.17 19
-6 -2 -9 297.27 25.9
6 -2 9 292.77 21.2
6 -2 9 312.07 20.6
6 -2 9 326.77 19.4
-6 -2 -9 321.57 18.5
6 2 9 384.66 23.7
6 2 9 295.27 19.5
6 2 9 307.17 20.9
6 2 9 273.47 22.4
6 2 9 324.87 18.6
7 -2 9 45.4 9.8
-7 -2 -9 54.59 10.1
7 -2 9 83.89 10.3
-7 -2 -9 54.89 12.4
7 -2 9 78.89 12.2
7 2 9 81.99 11.9
7 2 9 55.49 13.3
7 2 9 59.39 9.9
7 2 9 69.89 10.8
8 -3 -9 90.49 16
-8 -3 9 79.29 12
-8 -3 9 108.69 14
8 -3 -9 66.99 11.7
8 3 -9 82.79 18.9
8 3 -9 82.19 20.4
8 3 -9 108.79 11.8
-7 -3 9 251.57 20.4
-7 -3 9 280.27 19
7 -3 -9 233.18 19
-7 -3 9 297.07 19.9
7 -3 -9 250.97 17.4
-7 3 9 257.67 18
7 3 -9 241.88 21.4
7 3 -9 237.38 19.9
7 3 -9 235.58 15.2
-6 -3 9 259.37 20.2
-6 -3 9 288.57 18.2
-6 -3 9 272.07 18.6
6 -3 -9 276.27 16.8
6 3 -9 236.18 20.3
6 3 -9 287.17 15.6
6 3 -9 254.07 19.1
-6 3 9 292.87 18
-5 -3 9 167.48 13.5
5 -3 -9 131.69 12.4
5 -3 -9 151.98 11.2
-5 -3 9 165.78 12.8
-5 3 9 152.38 12.4
5 3 -9 160.08 10.7
4 -3 -9 201.68 11.9
-4 -3 9 210.48 14.4
-4 -3 9 206.88 14.5
4 -3 -9 188.38 18.6
4 3 -9 209.18 12.4
-4 3 9 198.08 13.7
3 -3 -9 7.3 3.9
3 -3 -9 6.5 3.1
-3 -3 9 4.2 3.4
-3 -3 9 8.6 3.5
3 -3 -9 4.3 3.3
3 3 -9 4.2 3
-3 3 9 5.6 2.6
-3 3 9 6.1 4.1
2 -3 -9 1099.29 46.7
2 -3 -9 1106.89 43.3
2 -3 -9 1140.69 38.1
2 -3 -9 1113.29 43.1
-2 -3 9 1061.59 41.2
-2 -3 9 1076.29 43.6
-2 -3 9 1073.79 42.7
2 3 -9 1162.68 46.6
-2 3 9 1071.49 42.2
-2 3 9 911.91 40
2 3 -9 1112.09 41
1 -3 -9 30.3 5.7
1 -3 -9 35.5 7.5
1 -3 -9 30.5 5.2
-1 -3 9 26.5 4.6
-1 -3 9 46.8 7.4
-1 -3 9 36.4 7.1
1 3 -9 43.7 6.6
1 3 -9 31.3 5.8
1 3 -9 34.9 5.5
-1 3 9 43.7 7.3
-1 3 9 35 6.1
0 -3 -9 748.23 32.5
0 -3 9 733.03 31.1
0 -3 9 822.42 33.1
0 -3 -9 741.93 34.8
0 -3 9 741.23 34.1
0 -3 -9 823.32 35
0 3 -9 781.52 32
0 3 9 819.02 36.3
0 3 9 763.92 33.7
-1 -3 -9 51.99 10
-1 -3 -9 49 8.3
1 -3 9 43.6 7.7
-1 -3 -9 61.79 7.7
1 -3 9 54.69 7
-1 -3 -9 50.09 7.2
1 -3 9 60.69 6.6
-1 -3 -9 45.4 12
1 3 9 54.39 7.1
-1 3 -9 55.89 8
-1 3 -9 54.09 7.6
1 3 9 57.29 8.3
-2 -3 -9 186.28 16.4
2 -3 9 187.28 13
-2 -3 -9 143.19 15.3
-2 -3 -9 150.68 21
-2 -3 -9 179.88 13.3
2 -3 9 173.08 12
2 -3 9 176.08 14.3
2 -3 9 190.38 18.1
-2 3 -9 193.58 13.9
2 3 9 216.88 16.1
2 3 9 194.58 13.3
-3 -3 -9 233.38 15.8
3 -3 9 221.38 14.8
3 -3 9 193.28 13.4
-3 -3 -9 217.98 13.4
-3 -3 -9 227.58 19
-3 3 -9 175.68 14
3 3 9 181.38 13.9
-4 -3 -9 74.29 22.1
4 -3 9 69.49 8.6
-4 -3 -9 77.39 8.4
-4 -3 -9 90.49 12.7
4 -3 9 84.09 9.8
4 -3 9 65.29 10.6
-4 3 -9 77.99 10
4 3 9 84.99 9.8
4 3 9 91.19 10.7
4 3 9 81.09 7.1
5 -3 9 232.68 18.8
5 -3 9 235.88 16
-5 -3 -9 229.98 21.1
-5 -3 -9 228.08 14.7
5 -3 9 239.98 17
5 3 9 242.88 17.5
5 3 9 205.48 16.5
5 3 9 238.88 15.8
5 3 9 235.38 20.3
5 3 9 233.68 13.8
-6 -3 -9 125.09 11.9
6 -3 9 126.89 12
-6 -3 -9 132.19 17.1
6 -3 9 96.99 13.4
6 -3 9 115.99 12.8
6 3 9 120.29 13.5
6 3 9 108.39 11.5
6 3 9 117.69 13.6
6 3 9 142.49 12.2
6 3 9 138.09 18.7
-7 -4 9 135.19 13.8
7 -4 -9 147.99 15.6
-7 -4 9 127.59 15.9
7 -4 -9 140.69 14
-7 -4 9 128.89 14
7 4 -9 132.39 23.4
7 4 -9 126.49 11.4
7 4 -9 135.59 16.7
7 4 -9 121.19 18.7
6 -4 -9 42.2 7.3
-6 -4 9 36.6 7.8
-6 -4 9 43.3 10.2
-6 -4 9 30 7
6 -4 -9 37.7 8.1
-6 4 9 42.7 7.5
6 4 -9 50.79 7.2
6 4 -9 53.79 12.8
-5 -4 9 50.89 8.6
-5 -4 9 65.49 8.7
5 -4 -9 78.39 10
5 -4 -9 62.99 7.4
5 4 -9 46.1 8.9
5 4 -9 52.19 8.8
5 4 -9 64.49 7.8
4 -4 -9 167.78 13.5
-4 -4 9 177.78 13.9
4 -4 -9 195.88 11.1
4 4 -9 203.78 12.5
4 4 -9 195.98 17.6
-4 4 9 190.68 13.3
-3 -4 9 18.2 4.8
3 -4 -9 -5.8 8.7
3 -4 -9 35.7 6.9
-3 -4 9 21.4 5.4
3 -4 -9 13.7 3.1
3 -4 -9 17 5.8
3 4 -9 10.3 5.4
3 4 -9 19.7 4.9
-3 4 9 17.4 5
2 -4 -9 261.97 17.4
2 -4 -9 305.67 17.4
-2 -4 9 290.37 18.4
-2 -4 9 328.67 17.9
-2 -4 9 277.17 15.5
2 4 -9 304.77 18.2
-2 4 9 308.57 15.9
2 4 -9 301.57 16.5
2 4 -9 260.47 18.2
-2 4 9 317.87 16.8
2 4 -9 315.37 26.5
-1 -4 9 199.88 13
1 -4 -9 196.98 13.4
-1 -4 9 189.28 12
1 -4 -9 194.18 13.2
-1 -4 9 177.88 14.3
-1 4 9 206.28 12.9
-1 4 9 178.88 13.2
1 4 -9 190.18 19.1
1 4 -9 191.28 12.5
0 -4 -9 641.94 28.9
0 -4 9 634.24 27.6
0 -4 -9 639.64 32.2
0 -4 -9 667.23 28.3
0 -4 9 662.23 28.7
0 -4 9 624.94 31.2
0 -4 -9 649.34 33.6
0 4 9 670.23 28.6
0 4 -9 656.83 29
0 4 -9 672.63 35.2
0 4 9 597.34 30.1
1 -4 9 66.29 7.2
-1 -4 -9 60.99 7
-1 -4 -9 54.09 9.6
1 -4 9 49.1 8.3
1 -4 9 59.99 8.2
-1 -4 -9 54.29 10.5
-1 -4 -9 43.3 7.2
1 4 9 48.5 9.8
-1 4 -9 42.1 9.4
1 4 9 55.09 7.7
2 -4 9 47.3 8.2
2 -4 9 58.39 7.4
-2 -4 -9 51.69 10.9
-2 -4 -9 56.39 8.6
-2 -4 -9 67.19 7.3
2 -4 9 51.79 8
2 4 9 53.39 8.1
-2 4 -9 63.49 10
-2 4 -9 68.79 10.3
3 -4 9 20.5 15
3 -4 9 51.79 8.5
-3 -4 -9 53.99 11.3
-3 -4 -9 29.2 5.6
3 -4 9 34.3 6.1
-3 -4 -9 33.4 7.4
3 4 9 22.9 5.8
-3 4 -9 36.9 7
3 4 9 46.1 10.1
-3 4 -9 30.9 6.4
4 -4 9 13.5 5
-4 -4 -9 13 4.3
-4 -4 -9 6.5 5.1
4 -4 9 3.6 3
4 -4 9 -1.4 5.9
4 4 9 11.7 5.5
4 4 9 4.2 4
4 4 9 11.8 8.9
-5 -4 -9 155.18 17.2
-5 -4 -9 155.88 11.6
5 -4 9 148.79 13.8
5 -4 9 155.98 18.4
5 -4 9 153.48 13.1
5 4 9 149.79 15.9
5 4 9 155.38 14.2
5 4 9 128.19 19.9
-6 -4 -9 7.3 5.5
6 -4 9 16 6
-6 -4 -9 8.6 5.8
6 -4 9 11.6 5.9
6 -4 9 13.9 9.7
6 4 9 5.6 5.9
6 4 9 27 8.2
-6 -5 9 13.1 5.9
6 -5 -9 10 5.7
-6 -5 9 8.9 5.4
6 -5 -9 18.9 7.6
-6 -5 9 14.6 7
6 5 -9 4.2 9.1
6 5 -9 0.5 9.4
6 5 -9 18.1 11.6
6 5 -9 13.3 8.2
-5 -5 9 132.99 12.8
5 -5 -9 120.39 9.9
5 -5 -9 120.19 13.2
-5 -5 9 125.99 12.4
5 5 -9 111.59 10.5
5 5 -9 117.39 14.1
5 5 -9 92.99 19.7
5 5 -9 108.39 15.3
5 5 -9 117.99 17
-5 5 9 123.39 11.2
-4 -5 9 32 6.9
4 -5 -9 41.3 6.2
4 -5 -9 30.2 14.2
4 -5 -9 32.7 7.1
-4 -5 9 27.9 6.5
4 5 -9 34.1 7.6
-4 5 9 36.4 6.6
4 5 -9 29.6 12.9
4 5 -9 38.4 9.6
4 5 -9 33.1 6.9
3 -5 -9 40.9 13.8
-3 -5 9 42.3 8
3 -5 -9 50.69 8
-3 -5 9 45.5 10.3
3 -5 -9 37.4 8.1
-3 5 9 62.19 8
3 5 -9 52.89 8.5
3 5 -9 49.7 9.4
3 5 -9 48 14.5
-2 -5 9 335.87 18.4
2 -5 -9 301.77 20
-2 -5 9 338.77 17
-2 -5 9 333.57 20.5
2 -5 -9 306.17 26.5
2 -5 -9 330.07 18.2
2 5 -9 268.17 16.4
2 5 -9 338.57 28.2
2 5 -9 299.47 20.1
-2 5 9 316.17 17
2 5 -9 339.37 20.5
-2 5 9 328.97 16.8
1 -5 -9 78.29 10.2
1 -5 -9 66.29 22.3
1 -5 -9 78.89 8.9
-1 -5 9 69.69 8.2
-1 -5 9 55.89 9
-1 -5 9 77.09 7.7
1 5 -9 47 11.2
-1 5 9 73.99 7.9
-1 5 9 60.39 9.2
1 5 -9 71.39 9.1
1 5 -9 77.79 10.4
0 -5 -9 287.17 17.2
0 -5 9 311.87 16.8
0 -5 9 304.67 16.4
0 -5 9 290.07 19.8
0 -5 -9 278.27 24.5
0 -5 -9 284.07 16.6
0 -5 -9 269.07 19.2
0 5 9 274.87 15.8
0 5 9 289.17 19.4
0 5 -9 297.27 23.2
0 5 -9 242.68 14.9
1 -5 9 50.59 7.7
1 -5 9 56.69 7.3
-1 -5 -9 50.99 8.3
-1 -5 -9 42 8.8
1 -5 9 52.19 9.6
-1 -5 -9 54.09 7.8
-1 -5 -9 31.3 11.4
1 5 9 58.89 7.6
-1 5 -9 57.49 11.2
-1 5 -9 42.6 7.6
2 -5 9 93.19 10.3
2 -5 9 82.59 9.7
-2 -5 -9 103.89 11.3
-2 -5 -9 85.79 11.7
2 -5 9 93.39 12.1
-2 -5 -9 99.99 9
2 5 9 108.99 16.3
-2 5 -9 82.29 11.6
2 5 9 93.89 9.6
3 -5 9 201.28 22
3 -5 9 253.67 16.3
-3 -5 -9 257.77 14.3
3 -5 9 244.48 15.9
-3 -5 -9 243.08 20.2
3 -5 9 247.58 20.1
3 5 9 212.98 21.6
3 5 9 231.68 15.7
-3 5 -9 230.58 16.3
-4 -5 -9 127.49 10.8
-4 -5 -9 140.19 16.3
4 -5 9 154.08 20.9
4 -5 9 148.99 12.9
4 -5 9 147.09 12.8
4 5 9 96.69 28.9
4 5 9 156.58 16.1
4 5 9 138.59 12.9
-4 -6 9 94.89 11.5
-4 -6 9 90.29 10.5
4 6 -9 98.79 22
4 6 -9 89.19 14.5
4 6 -9 75.39 10.6
-4 6 9 74.29 9.3
3 -6 -9 449.86 22.8
-3 -6 9 415.76 22.7
-3 -6 9 453.75 25.7
3 -6 -9 460.85 38.9
3 6 -9 419.66 35.3
-3 6 9 450.55 20.5
3 6 -9 433.26 27.4
3 6 -9 429.56 21.9
-2 -6 9 115.59 12.8
2 -6 -9 140.39 11.9
-2 -6 9 139.59 10.4
2 -6 -9 119.09 14.2
-2 -6 9 144.39 11.6
2 6 -9 119.89 11.5
2 6 -9 150.28 20.3
-2 6 9 154.28 10.6
2 6 -9 128.99 14.3
-1 -6 9 271.47 15.6
-1 -6 9 293.77 20.3
-1 -6 9 258.17 16.3
1 -6 -9 297.37 17.4
1 -6 -9 253.97 17.5
1 6 -9 269.07 24.8
1 6 -9 266.47 18.6
-1 6 9 265.17 14.9
0 -6 -9 48.7 26.1
0 -6 -9 47.4 9.1
0 -6 9 38.6 6.7
0 -6 -9 44.9 7.1
0 -6 9 26.9 7.2
0 6 -9 20.9 6.2
0 6 -9 32.6 10.3
0 6 9 46.7 6.8
0 6 9 44 10.5
1 -6 9 142.39 15.3
-1 -6 -9 169.88 14.1
-1 -6 -9 172.08 16
1 -6 9 156.88 12.2
-1 -6 -9 157.38 12.1
-1 6 -9 186.48 18.2
1 6 9 156.88 12
-2 -6 -9 64.59 13.5
2 -6 9 100.49 9.7
-2 -6 -9 94.69 9.4
2 -6 9 105.69 15.6
2 -6 9 99.69 10.4
2 6 9 71.29 9.5
-2 6 -9 100.19 13.9
2 6 9 105.79 18.3
3 -6 9 262.87 30.1
3 -6 9 331.27 20
3 -6 9 361.16 19.3
-3 -6 -9 314.17 17.1
-3 -6 -9 304.97 23.9
3 -6 9 332.27 24.6
3 6 9 335.97 19.4
-3 6 -9 327.97 21.5
8 0 -10 56.79 10.8
-8 0 10 29.7 7.8
8 0 -10 38.5 14.1
-8 0 10 33.2 8.4
-8 0 10 47 8.1
8 0 -10 47.8 10.6
-7 0 10 372.86 23.4
7 0 -10 396.66 24.9
7 0 -10 383.76 23.5
-7 0 10 410.46 22
7 0 -10 373.56 23.9
-6 0 10 187.98 15
-6 0 10 172.68 13.9
6 0 -10 188.38 15.1
6 0 -10 183.18 14.2
6 0 -10 168.28 15.5
5 0 -10 265.47 18.3
5 0 -10 299.57 18.6
-5 0 10 297.67 17
-5 0 10 267.97 17.7
4 0 -10 274.17 18.9
-4 0 10 207.68 14.9
-4 0 10 212.08 13.3
4 0 -10 218.48 15.7
3 0 -10 281.07 16
3 0 -10 254.57 16.8
-3 0 10 289.57 17.2
3 0 -10 299.67 17.1
-3 0 10 290.27 15.2
-2 0 10 653.03 26.9
2 0 -10 662.43 28
-2 0 10 624.94 29.1
1 0 -10 102.69 9.4
-1 0 10 93.99 7.9
1 0 -10 99.19 8.5
-1 0 10 99.09 11.5
-1 0 10 106.19 9.7
0 0 -10 80.09 12.1
0 0 10 59.09 8.8
0 0 10 67.19 7.4
0 0 10 58.79 7.5
0 0 10 52.39 6.1
1 0 10 135.59 10.5
1 0 10 137.59 10.1
1 0 10 154.88 13.6
-1 0 -10 137.49 11.3
1 0 10 132.29 11.1
2 0 10 77.79 7.9
2 0 10 68.79 8.4
-2 0 -10 64.69 7.5
-2 0 -10 64.49 8.6
2 0 10 69.49 7.6
3 0 10 2004.5 71.29
-3 0 -10 2006.7 71.19
-3 0 -10 2045.8 73.49
-3 0 -10 1891.41 68.89
3 0 10 1977.3 73.19
-4 0 -10 44.8 7.9
-4 0 -10 25.7 6.5
4 0 10 39.6 8.1
4 0 10 29 5.2
-5 0 -10 593.64 28.9
5 0 10 606.04 28.8
5 0 10 576.44 30.8
6 0 10 212.78 17.3
-6 0 -10 183.38 15.8
6 0 10 203.58 14.6
7 0 10 100.49 10.8
-7 0 -10 70.79 11.1
7 0 10 78.09 14.4
7 0 10 85.29 12.7
8 -1 -10 63.59 13
-8 -1 10 65.49 11.2
-8 -1 10 67.09 11.8
8 -1 -10 67.49 12.3
-8 -1 10 57.19 10.1
-8 1 10 69.39 7.8
8 1 -10 67.09 12.2
8 1 -10 59.39 11.7
8 1 -10 73.99 13.2
-8 1 10 73.59 12.2
7 -1 -10 470.15 27.7
7 -1 -10 457.85 28.1
-7 -1 10 497.95 27.4
7 -1 -10 493.75 26.9
-7 -1 10 488.55 27
-7 -1 10 476.35 27.2
-7 1 10 516.45 23.1
-7 1 10 516.55 27.6
7 1 -10 492.05 25.3
7 1 -10 471.25 28.5
7 1 -10 478.95 28.5
6 -1 -10 12.6 6
-6 -1 10 12.7 5.2
-6 -1 10 9.7 4.5
6 -1 -10 2 6.9
6 -1 -10 11.1 5.5
-6 1 10 10.9 4.9
6 1 -10 7.4 4.5
6 1 -10 2.7 6
-6 1 10 16.4 5.6
6 1 -10 -1.7 6.1
-5 -1 10 547.75 26
5 -1 -10 573.24 26.8
-5 -1 10 530.95 27.4
-5 1 10 544.25 26.1
5 1 -10 563.04 28.3
-5 1 10 543.85 27.3
5 1 -10 502.35 27.1
-4 -1 10 392.36 21.6
4 -1 -10 410.76 20.7
-4 -1 10 418.76 20.4
4 -1 -10 345.17 21.2
-4 1 10 395.06 19.5
-4 1 10 391.66 21.3
4 1 -10 390.06 19.6
4 1 -10 396.66 22.3
-3 -1 10 235.08 15.4
3 -1 -10 225.18 14.1
-3 -1 10 226.58 13.9
3 1 -10 236.88 15.6
3 1 -10 235.78 13.8
-3 1 10 215.08 15.8
-3 1 10 245.88 15.5
3 1 -10 236.88 15.8
-3 1 10 238.68 12.9
2 -1 -10 1229.28 46.7
-2 -1 10 1250.27 49.1
-2 -1 10 1359.96 48.2
2 -1 -10 1199.48 48.8
-2 1 10 1274.87 45.2
2 1 -10 1181.88 48.6
-2 1 10 1289.67 49.2
-2 1 10 1276.97 51.09
2 1 -10 1324.57 50.59
-1 -1 10 139.79 10.8
-1 -1 10 169.18 12.1
1 -1 -10 141.19 11.4
-1 -1 10 151.18 10.8
1 -1 -10 152.18 11.1
1 1 -10 129.59 10.9
-1 1 10 146.39 12.6
-1 1 10 129.09 10.9
1 1 -10 142.79 10.5
-1 1 10 151.18 9.3
0 -1 -10 916.71 36.3
0 -1 10 889.11 38.6
0 -1 10 918.71 37.7
0 -1 -10 985.3 39.4
0 -1 10 959.3 38.4
0 -1 -10 976.8 37.4
0 -1 10 921.81 44.4
0 1 -10 954.2 39.1
0 1 10 1000.4 39.5
0 1 10 973.9 40.9
0 1 10 938.81 35.2
0 1 -10 996.4 37.6
1 -1 10 121.09 13.4
-1 -1 -10 128.59 11.1
1 -1 10 124.19 10.8
1 -1 10 122.59 9.8
-1 -1 -10 119.59 8.9
-1 -1 -10 131.99 9.9
1 -1 10 111.89 9.9
1 1 10 110.59 8.2
1 1 10 123.69 10.6
1 1 10 105.19 9.7
-2 -1 -10 171.68 13.1
2 -1 10 149.49 11.2
2 -1 10 171.28 12.8
-2 -1 -10 138.79 14.1
-2 -1 -10 156.48 11.2
2 -1 10 180.88 12.8
2 1 10 147.99 10.3
2 1 10 173.18 12.8
2 1 10 148.49 11.5
3 -1 10 170.38 12.4
-3 -1 -10 160.38 15.8
-3 -1 -10 210.38 14.9
-3 -1 -10 179.98 12.3
3 -1 10 171.78 13.6
3 1 10 173.58 12.5
3 1 10 180.08 13.9
4 -1 10 52.99 8.4
-4 -1 -10 47.5 7
-4 -1 -10 54.59 8.8
-4 -1 -10 46.4 9.8
4 -1 10 41.4 6.8
4 1 10 52.49 8.2
4 1 10 31.1 6.5
-4 1 -10 51.89 8.8
-5 -1 -10 308.77 19.1
5 -1 10 314.77 21.5
5 -1 10 341.57 19.1
5 -1 10 312.97 20.5
5 1 10 305.67 18.2
-5 1 -10 320.57 20.1
5 1 10 297.57 20.9
5 1 10 288.27 20.2
6 -1 10 28.4 7.4
6 -1 10 15.8 13.3
6 -1 10 24 6.2
-6 -1 -10 33.1 7.2
-6 1 -10 24.5 7.9
6 1 10 18.1 6.4
6 1 10 22.5 5.3
6 1 10 26.8 5.7
6 1 10 36 10.4
7 -1 10 106.99 13.3
-7 -1 -10 79.69 13.7
7 -1 10 85.59 10.6
7 -1 10 92.59 15.8
7 1 10 98.79 17.8
7 1 10 97.09 14.4
7 1 10 113.69 11.2
7 1 10 100.19 11
7 1 10 89.59 14
-8 -2 10 22.6 7.8
-8 -2 10 19.4 6.7
-8 -2 10 23 7.3
8 -2 -10 21.7 9.3
8 -2 -10 -11.3 8.8
8 2 -10 -12.3 19.5
8 2 -10 13.6 7.3
-8 2 10 14.4 6.7
7 -2 -10 171.08 15.3
-7 -2 10 165.58 15.5
7 -2 -10 168.58 17.2
-7 -2 10 186.08 16.8
-7 -2 10 178.68 15.3
7 2 -10 182.18 18.9
7 2 -10 179.48 22.6
-7 2 10 153.38 14.7
-6 -2 10 88.89 10.9
-6 -2 10 89.09 10.1
6 -2 -10 91.09 11.9
6 -2 -10 114.59 10.9
-6 2 10 80.69 10.6
6 2 -10 105.69 12.4
6 2 -10 67.29 11
-5 -2 10 9.1 4.6
-5 -2 10 5.3 3.2
5 -2 -10 3 4.2
5 -2 -10 -0.8 5.4
-5 2 10 7 3.3
-5 2 10 5.3 4.1
-5 2 10 5.4 3.9
5 2 -10 6.1 5.6
5 2 -10 0.8 4.9
5 2 -10 10.5 4.1
4 -2 -10 49.8 8.5
-4 -2 10 61.49 9.5
4 -2 -10 61.89 7.5
-4 -2 10 59.99 7.5
-4 2 10 61.19 7.5
-4 2 10 62.29 7.3
4 2 -10 67.29 7.4
-4 2 10 49.1 8.3
4 2 -10 60.29 9.8
3 -2 -10 60.19 9.3
-3 -2 10 44.4 7
3 -2 -10 53.29 6.4
-3 -2 10 58.99 9.1
-3 2 10 53.39 6
-3 2 10 54.99 7.4
3 2 -10 49.3 8.1
3 2 -10 40.4 7.8
-3 2 10 61.69 8.8
-2 -2 10 154.28 11.7
2 -2 -10 156.38 13.3
-2 -2 10 152.38 11.9
2 -2 -10 157.88 12.4
2 -2 -10 151.58 11.5
-2 -2 10 153.58 11.5
-2 2 10 140.99 11.5
2 2 -10 123.39 11.8
-2 2 10 164.78 12
-2 2 10 157.88 9.2
1 -2 -10 26.9 6.1
-1 -2 10 35.7 6.1
1 -2 -10 36.5 6.3
1 -2 -10 21.1 5.1
-1 -2 10 50.59 7.8
-1 -2 10 25.2 5.7
1 2 -10 28.1 4.9
-1 2 10 30.5 6
-1 2 10 38.1 4.1
-1 2 10 32.6 6.6
0 -2 10 79.39 7.9
0 -2 10 97.39 9.3
0 -2 -10 101.49 9.8
0 -2 -10 103.29 8.7
0 -2 10 96.49 9.5
0 -2 -10 67.39 9.2
0 2 10 97.69 9.5
0 2 10 92.69 6
0 2 10 94.19 9.7
0 2 -10 93.39 8.5
1 -2 10 50.79 6.4
1 -2 10 47.2 7.6
-1 -2 -10 32.6 10.6
-1 -2 -10 38.2 5.6
1 -2 10 46.5 7.9
-1 -2 -10 42.7 7.6
-1 -2 -10 55.79 8
1 2 10 55.99 8.4
1 2 10 50.39 4.5
1 2 10 36.9 7.7
-2 -2 -10 219.08 13.3
2 -2 10 205.18 14.4
2 -2 10 224.68 15.6
-2 -2 -10 167.28 19.1
-2 -2 -10 245.48 18.1
2 -2 10 197.28 13.3
2 2 10 205.88 14.3
2 2 10 192.68 14.2
2 2 10 208.08 10.8
3 -2 10 81.89 13.4
-3 -2 -10 33.5 12.2
3 -2 10 68.89 8.9
-3 -2 -10 64.29 9.7
3 -2 10 75.19 8.3
-3 -2 -10 78.39 8.2
3 2 10 83.79 9.6
3 2 10 72.49 8.4
-3 2 -10 82.29 9.7
3 2 10 59.59 6.3
-4 -2 -10 20.4 5.3
-4 -2 -10 13.9 7.6
-4 -2 -10 15.3 6.5
4 -2 10 10.9 5.8
-4 -2 -10 5.1 15.5
4 2 10 16.8 5.5
-4 2 -10 27.1 7.3
4 2 10 27.7 6.3
4 2 10 18.5 7.1
5 -2 10 230.68 17.2
5 -2 10 238.68 15.9
5 -2 10 204.68 18.6
-5 -2 -10 210.68 14.9
-5 -2 -10 216.88 21.9
5 2 10 199.48 18.7
-5 2 -10 241.08 17.7
5 2 10 237.98 15.5
5 2 10 224.88 15.3
5 2 10 214.68 16.8
6 -2 10 118.59 11.8
-6 -2 -10 94.39 13
-6 -2 -10 103.59 17.9
6 -2 10 123.39 13.2
6 -2 10 118.69 15.1
6 2 10 108.29 13
-6 2 -10 101.29 14.4
6 2 10 103.29 11.6
6 2 10 106.69 13.3
6 2 10 79.69 13.6
-7 -3 10 59.09 10.2
-7 -3 10 56.99 12.7
7 -3 -10 55.39 10.5
7 -3 -10 47.1 9.2
-7 -3 10 46.4 8.8
7 3 -10 44.8 12.2
-7 3 10 46.8 8.8
7 3 -10 47 11.2
-6 -3 10 71.99 11.1
-6 -3 10 61.89 9.8
6 -3 -10 51.29 8.6
6 -3 -10 51.49 9.7
6 3 -10 83.79 12.7
6 3 -10 70.49 12.8
6 3 -10 71.39 9
-6 3 10 75.29 9.7
-5 -3 10 7.6 4
5 -3 -10 -2.1 5.5
5 -3 -10 8.2 3.9
-5 -3 10 3.7 3.6
-5 3 10 6.9 4.1
5 3 -10 4.4 5.2
5 3 -10 10.1 4.3
5 3 -10 6 5.3
4 -3 -10 284.57 19.7
4 -3 -10 309.67 16.1
4 -3 -10 288.67 18.5
-4 -3 10 288.47 18
-4 -3 10 292.27 18.5
-4 3 10 313.17 18.2
4 3 -10 315.47 26.8
-3 -3 10 68.29 8.5
3 -3 -10 59.19 9.4
3 -3 -10 66.39 9.6
-3 -3 10 57.49 8.9
3 -3 -10 60.19 6.4
3 3 -10 72.89 9.2
-3 3 10 40.2 5.8
-3 3 10 70.29 8.6
3 3 -10 50.59 8
-2 -3 10 150.98 12.1
-2 -3 10 167.78 13
-2 -3 10 164.48 11.7
2 -3 -10 164.18 15.6
2 -3 -10 165.78 12.8
2 -3 -10 173.88 12.9
2 3 -10 149.88 11.6
-2 3 10 155.38 12
2 3 -10 155.58 11.3
-2 3 10 124.79 10.4
-1 -3 10 59.39 8.6
-1 -3 10 61.49 8.3
1 -3 -10 79.39 8.8
-1 -3 10 66.89 7.4
1 -3 -10 63.99 10.2
1 -3 -10 76.89 8.3
1 3 -10 70.29 8.5
-1 3 10 66.69 8.4
-1 3 10 73.79 8.3
1 3 -10 67.09 8.1
0 -3 10 209.08 13.4
0 -3 -10 219.78 13.7
0 -3 -10 232.38 17.3
0 -3 10 225.38 14.7
0 -3 10 228.78 15.9
0 -3 -10 217.08 14.8
0 3 10 217.38 15.6
0 3 -10 206.58 14.3
0 3 10 202.68 14.1
-1 -3 -10 251.87 18.3
1 -3 10 267.57 15.8
-1 -3 -10 276.17 15.5
-1 -3 -10 272.57 17.2
1 -3 10 263.77 16.5
1 -3 10 259.97 17.9
1 3 10 283.57 18.8
1 3 10 274.77 16.7
2 -3 10 166.58 12.3
2 -3 10 184.28 13.8
2 -3 10 179.68 14.9
-2 -3 -10 178.88 14.5
2 -3 10 160.18 17.8
-2 -3 -10 185.68 12.3
-2 -3 -10 142.69 15.9
-2 3 -10 164.18 12.8
-2 3 -10 192.28 14.5
2 3 10 239.38 21.9
2 3 10 171.98 13.2
-2 3 -10 182.38 13.7
3 -3 10 161.98 18.2
-3 -3 -10 167.68 17.6
3 -3 10 195.08 14.5
-3 -3 -10 192.48 12.8
3 -3 10 177.88 13.4
3 -3 10 186.18 15.6
-3 -3 -10 186.08 15.1
-3 3 -10 167.28 14.5
-3 3 -10 160.38 16.9
3 3 10 181.08 16.5
3 3 10 175.18 14
4 -3 10 161.18 17.6
-4 -3 -10 165.68 18.3
4 -3 10 190.88 14.8
4 -3 10 191.78 13.9
-4 -3 -10 149.69 12.1
-4 3 -10 147.29 14.7
4 3 10 163.68 17.2
4 3 10 162.08 14.3
5 -3 10 158.78 14.7
-5 -3 -10 160.48 13.2
-5 -3 -10 153.58 18.6
5 -3 10 167.58 17.8
5 -3 10 158.48 13.5
5 3 10 180.18 15.2
-5 3 -10 150.18 16.1
5 3 10 183.68 20
5 3 10 160.68 11.8
5 3 10 193.38 15.7
5 3 10 151.78 13.5
-6 -3 -10 172.58 17.1
6 -3 10 169.28 15.9
6 -3 10 176.28 18.5
6 -3 10 176.18 14.7
-6 -3 -10 180.18 20.8
6 3 10 171.08 15.9
6 3 10 171.68 14
6 3 10 182.98 16.8
6 3 10 164.48 14.3
-6 -4 10 450.95 25.2
-6 -4 10 466.55 26.3
6 -4 -10 398.36 25.4
-6 -4 10 447.86 29.7
6 -4 -10 419.16 22.4
6 4 -10 403.06 22
6 4 -10 441.36 27.1
-6 4 10 456.15 24.2
6 4 -10 431.96 30.1
-5 -4 10 199.28 15.4
5 -4 -10 188.48 15.9
-5 -4 10 205.98 16.1
5 -4 -10 196.78 17.8
5 4 -10 202.98 14.1
5 4 -10 193.18 17
-5 4 10 200.58 14.7
4 -4 -10 457.25 20.4
4 -4 -10 401.66 30.7
4 -4 -10 463.75 26.5
-4 -4 10 495.55 25.4
4 -4 -10 462.95 24.7
-4 -4 10 481.15 25.1
-4 4 10 460.45 23.6
4 4 -10 430.76 24.7
3 -4 -10 539.75 34.1
-3 -4 10 644.84 30.3
3 -4 -10 561.34 29.6
3 -4 -10 616.64 29.2
-3 4 10 616.64 24.7
3 4 -10 613.64 30.4
3 4 -10 591.74 28.7
3 4 -10 611.54 27.2
-2 -4 10 288.27 20.5
-2 -4 10 333.37 19.2
2 -4 -10 328.97 19.6
-2 -4 10 338.17 17.9
2 -4 -10 348.17 19.6
2 4 -10 316.77 18.6
2 4 -10 320.17 18.7
-2 4 10 331.07 18.9
-2 4 10 323.87 17.7
2 4 -10 342.17 18.4
1 -4 -10 529.95 26.3
-1 -4 10 538.95 24.8
1 -4 -10 531.85 25.8
-1 -4 10 564.84 28.4
-1 -4 10 535.45 25.8
1 4 -10 537.55 25.3
1 4 -10 561.04 35.4
-1 4 10 548.15 28.4
-1 4 10 468.05 25.5
1 4 -10 565.84 24.1
0 -4 10 35 6.1
0 -4 -10 15.5 4.4
0 -4 -10 25.9 6
0 -4 10 33.8 6.4
0 -4 10 34.4 7.9
0 4 10 30.9 7.4
0 4 -10 23.6 7.6
0 4 10 36.6 6.7
0 4 -10 19.4 6.6
0 4 -10 32.2 6.3
-1 -4 -10 270.97 15.6
1 -4 10 264.67 16.7
-1 -4 -10 280.37 17.6
-1 -4 -10 253.87 20.3
1 -4 10 262.77 16
-1 4 -10 286.47 18
-1 4 -10 258.27 20.1
-1 4 -10 267.07 16.5
1 4 10 281.17 17
-2 -4 -10 465.55 29.7
-2 -4 -10 480.75 22.4
-2 -4 -10 467.75 25.2
2 -4 10 436.66 23.5
2 -4 10 502.55 28
2 -4 10 396.56 30.6
-2 4 -10 504.75 26.4
2 4 10 434.86 27.7
2 4 10 547.15 25.6
-2 4 -10 455.25 25.2
3 -4 10 758.32 34.6
3 -4 10 784.02 39.3
-3 -4 -10 796.62 36.9
-3 -4 -10 802.12 32.9
3 -4 10 821.62 36
3 -4 10 785.22 44.3
-3 4 -10 768.12 36.7
3 4 10 789.22 41.6
3 4 10 790.22 35.7
-3 4 -10 833.32 34.2
-4 -4 -10 29.4 9.3
4 -4 10 24.3 6.5
4 -4 10 28.4 9.4
-4 -4 -10 17.9 5.7
4 -4 10 30.7 7.2
4 4 10 42.8 12.8
-4 4 -10 28 8.4
4 4 10 38.3 7.7
5 -4 10 175.88 14.5
-5 -4 -10 199.38 20.7
-5 -4 -10 154.48 13.8
5 -4 10 199.58 15.9
5 -4 10 118.99 17.4
5 4 10 171.98 17
5 4 10 153.68 21.3
5 4 10 172.88 15.6
-5 -5 10 207.98 16.1
-5 -5 10 205.58 16.1
5 -5 -10 177.88 16.3
5 -5 -10 162.88 12
-5 5 10 165.48 14
5 5 -10 190.78 18.9
5 5 -10 208.98 27
5 5 -10 178.78 19.6
5 5 -10 142.49 14.1
-4 -5 10 23.2 6.2
-4 -5 10 30.1 6.8
4 -5 -10 33.8 7.7
4 -5 -10 30.3 9.6
4 5 -10 15.3 7.4
4 5 -10 12.3 7.4
4 5 -10 22.2 10.4
4 5 -10 26 9
-4 5 10 26 6.4
-3 -5 10 8.1 4.6
3 -5 -10 5.6 26.1
3 -5 -10 4.1 5
3 -5 -10 5 6.7
-3 -5 10 10.3 5
3 5 -10 13 8.7
-3 5 10 8.5 4.6
3 5 -10 9.9 5.6
3 5 -10 -5.5 5.4
3 5 -10 -0.3 5.8
-2 -5 10 404.36 20.5
-2 -5 10 369.66 21.1
2 -5 -10 336.97 30.1
2 -5 -10 395.76 21.8
2 -5 -10 396.86 23.1
-2 -5 10 426.66 24.3
2 5 -10 380.46 20.8
2 5 -10 439.06 23.4
-2 5 10 408.36 20.9
2 5 -10 348.77 35.6
-2 5 10 412.86 20.4
-1 -5 10 27 6.1
1 -5 -10 -2.6 12.1
1 -5 -10 31.5 7
-1 -5 10 25.8 6.3
1 -5 -10 26.7 6.2
-1 -5 10 31.4 6.3
1 5 -10 28.2 10.5
1 5 -10 44.1 7.4
-1 5 10 33.9 6.3
-1 5 10 32.2 7.6
0 -5 10 327.07 18.9
0 -5 -10 326.17 27.4
0 -5 10 354.36 22.7
0 -5 10 346.77 18.7
0 -5 -10 330.37 19.8
0 -5 -10 323.77 18.6
0 5 -10 367.66 26.4
0 5 10 317.87 18.3
0 5 -10 330.27 20.3
0 5 10 316.87 22.3
0 5 -10 322.07 20.7
-1 -5 -10 27.9 12.7
-1 -5 -10 21.9 7.1
1 -5 10 31.5 6.5
-1 -5 -10 23.8 6.5
-1 -5 -10 31.4 6.4
1 -5 10 23.4 7.6
1 -5 10 23.4 7.5
1 5 10 22.4 5.8
-1 5 -10 36.1 7.8
-1 5 -10 35.5 9.5
-1 5 -10 31.1 7.5
-2 -5 -10 183.88 16.2
2 -5 10 222.68 15.1
-2 -5 -10 202.18 13.1
-2 -5 -10 206.58 19.4
2 -5 10 205.58 18
2 -5 10 205.28 14.6
2 5 10 218.38 25.1
-2 5 -10 203.08 17.6
2 5 10 191.68 14.7
-2 5 -10 210.78 17.9
3 -5 10 15.9 6.5
3 -5 10 13.8 5.2
3 -5 10 3.6 8.9
3 -5 10 12.9 4.6
-3 -5 -10 14.1 5.3
-3 -5 -10 14.2 6.3
3 5 10 12.8 10.9
3 5 10 10.5 5.3
-3 5 -10 16.9 6.4
-4 -5 -10 131.79 17
4 -5 10 116.19 12.2
4 -5 10 112.39 15
4 -5 10 131.99 13
4 -5 10 94.69 16.5
-4 -5 -10 97.29 11.4
4 5 10 114.09 18.3
4 5 10 132.19 13.6
3 6 -10 46.2 10.8
3 6 -10 48.1 15
-2 -6 10 70.59 9.8
-2 -6 10 60.09 10.9
-2 -6 10 72.09 8.6
2 -6 -10 53.69 9
-2 6 10 80.79 9.2
2 6 -10 60.89 15.9
2 6 -10 69.89 10.6
2 6 -10 74.09 9.7
1 -6 -10 80.89 10.8
-1 -6 10 90.29 12.1
-1 -6 10 92.59 9.9
-1 -6 10 79.59 9
1 -6 -10 101.49 12.3
1 6 -10 81.59 9.8
-1 6 10 75.09 9.2
1 6 -10 89.09 12.9
1 6 -10 95.99 11.7
1 6 -10 104.89 18.3
0 -6 -10 216.98 16.2
0 -6 10 204.68 17.7
0 -6 -10 194.98 17.7
0 -6 -10 198.08 15.4
0 -6 10 223.08 14.9
0 -6 10 218.38 18.3
0 6 -10 219.98 16
0 6 10 220.68 14.4
0 6 -10 222.68 22.1
1 -6 10 93.79 10.3
1 -6 10 107.19 10.5
1 -6 10 103.09 13.7
-1 -6 -10 95.89 14.1
-1 -6 -10 110.69 13.1
-1 -6 -10 91.39 11
-1 6 -10 110.79 17.3
1 6 10 109.49 11
8 0 -11 15.3 11.5
-8 0 11 15.4 6.6
-8 0 11 16.8 6.1
8 0 -11 22.7 11.7
8 0 -11 35.3 10.5
-8 0 11 17.7 6.9
7 0 -11 291.77 20.5
-7 0 11 322.37 19.6
-7 0 11 288.77 20.4
7 0 -11 273.77 22
7 0 -11 307.17 22
-7 0 11 291.67 20.6
-6 0 11 52.99 10.1
6 0 -11 28 7.6
6 0 -11 36 7.5
-6 0 11 40.1 7.2
6 0 -11 46.2 9
5 0 -11 303.57 20
5 0 -11 328.17 19.2
-5 0 11 294.07 17.8
-5 0 11 315.87 19.9
4 0 -11 32.8 7.5
4 0 -11 19.7 6
-4 0 11 20.8 4.6
-4 0 11 18.1 5.8
-3 0 11 50.99 8.8
-3 0 11 49 6.2
3 0 -11 61.99 9
3 0 -11 42.1 8
-2 0 11 721.43 28.5
-2 0 11 654.93 30.7
-2 0 11 563.94 39.3
2 0 -11 675.23 31
1 0 -11 63.29 8.3
-1 0 11 61.29 8.1
-1 0 11 49.1 10.5
1 0 -11 44.2 6.3
-1 0 11 63.29 6.7
0 0 11 270.37 16.7
0 0 11 246.68 14.2
0 0 -11 245.18 16.1
0 0 11 217.28 17.4
0 0 11 235.28 15.5
1 0 11 120.59 9.8
-1 0 -11 124.89 11.8
1 0 11 127.19 10.8
1 0 11 158.58 12.7
2 0 11 144.19 11.6
2 0 11 139.09 12.4
-2 0 -11 150.38 12.7
2 0 11 135.99 11
-2 0 -11 135.99 11.3
3 0 11 42.3 7.6
3 0 11 36.7 5.9
3 0 11 29.2 11.6
-3 0 -11 52.19 8.9
-3 0 -11 61.99 9.6
3 0 11 43.1 7
-3 0 -11 49.5 7.8
4 0 11 20.2 6
-4 0 -11 6.5 4.5
-4 0 -11 4.9 5.9
5 0 11 80.49 17
5 0 11 77.59 9.3
-5 0 -11 53.69 9.8
5 0 11 63.39 10.2
-6 0 -11 -0.7 6.5
6 0 11 -2.3 9
6 0 11 8.4 5.7
6 0 11 2.2 3.6
-7 -1 11 190.28 16.6
7 -1 -11 175.28 18.1
-7 -1 11 181.98 16.1
7 -1 -11 206.68 28.1
-7 -1 11 213.78 16.9
7 -1 -11 193.58 17.2
7 1 -11 218.38 24.6
-7 1 11 219.38 19.7
-7 1 11 198.68 13.7
7 1 -11 195.08 16.9
7 1 -11 169.68 19.3
-7 1 11 219.78 17.8
-6 -1 11 17.7 5.4
-6 -1 11 25 7.1
6 -1 -11 20.2 6.7
6 -1 -11 17.7 9.8
6 -1 -11 19.9 6.8
6 1 -11 13.3 7.2
6 1 -11 23.1 6.9
-6 1 11 24.2 6.9
-6 1 11 28.6 7.4
6 1 -11 28.7 6.4
5 -1 -11 62.59 10.7
-5 -1 11 71.29 11.2
-5 -1 11 71.59 8.7
5 -1 -11 62.39 9.2
5 -1 -11 88.19 12.4
-5 1 11 78.99 9.1
5 1 -11 72.79 11.1
5 1 -11 69.09 10.8
-5 1 11 82.89 10.1
-4 -1 11 71.29 8.1
4 -1 -11 76.39 12.9
-4 -1 11 67.49 9.9
4 -1 -11 77.09 9.6
4 -1 -11 89.79 10.7
4 1 -11 60.89 8.3
-4 1 11 77.09 9.5
4 1 -11 67.39 10.4
-4 1 11 62.89 10
-4 1 11 75.29 7.7
4 1 -11 79.49 10.3
-3 -1 11 121.69 10.1
3 -1 -11 114.29 11.5
3 -1 -11 121.09 10.4
-3 -1 11 110.99 10.8
3 1 -11 109.39 11.4
-3 1 11 87.99 10.8
-3 1 11 115.09 8.7
3 1 -11 122.29 12.1
-3 1 11 107.89 10.7
-2 -1 11 332.77 19.5
-2 -1 11 311.87 17.6
2 -1 -11 322.37 19.6
-2 1 11 329.67 20.5
-2 1 11 317.97 18.9
2 1 -11 350.96 19.9
-2 1 11 335.27 16
-1 -1 11 71.29 7.8
1 -1 -11 73.29 8.7
-1 -1 11 89.89 9.5
-1 -1 11 84.09 8.9
1 -1 -11 78.29 9.2
1 1 -11 70.29 8.7
-1 1 11 71.59 6.5
-1 1 11 55.49 8.5
-1 1 11 77.59 10
0 -1 11 490.05 23.9
0 -1 -11 519.95 25.5
0 -1 -11 502.45 22.2
0 -1 -11 524.55 23.7
0 -1 11 484.85 24
0 -1 11 450.75 24.4
0 1 11 506.95 25.2
0 1 11 494.45 21.3
0 1 11 515.45 26.6
0 1 -11 436.26 23.8
-1 -1 -11 43.5 7.2
-1 -1 -11 48 8
1 -1 11 47.1 8
1 -1 11 34.9 6.6
1 -1 11 37.9 6.5
1 1 11 42.7 7.7
1 1 11 45.4 5.5
1 1 11 23.8 5.8
2 -1 11 619.04 29.8
2 -1 11 694.33 31.6
-2 -1 -11 719.33 32.5
-2 -1 -11 685.03 29.8
-2 -1 -11 669.83 32.8
2 -1 11 684.43 31.9
2 1 11 662.83 28.1
2 1 11 649.64 30.6
2 1 11 696.13 32.1
3 -1 11 104.89 10.1
-3 -1 -11 101.19 13.7
3 -1 11 111.49 13.7
3 -1 11 117.99 11.4
-3 -1 -11 127.59 12.4
3 -1 11 108.59 11.6
-3 -1 -11 104.39 10.4
3 1 11 103.79 10.4
3 1 11 122.29 9.9
-3 1 -11 136.49 12.2
3 1 11 98.89 11.2
-3 1 -11 114.39 12.5
-4 -1 -11 96.19 11
4 -1 11 120.39 10.8
4 -1 11 101.29 11.6
4 -1 11 101.79 12.7
-4 -1 -11 78.99 11
-4 1 -11 76.39 10.8
4 1 11 82.29 12.2
-4 1 -11 90.39 12.8
4 1 11 91.69 11.2
4 1 11 108.09 10.4
-5 -1 -11 443.36 24.6
5 -1 11 442.56 24.1
5 -1 11 454.95 26.3
5 1 11 474.65 26.8
-5 1 -11 380.66 25.7
5 1 11 453.85 24.2
5 1 11 475.65 40.4
6 -1 11 165.18 15.9
-6 -1 -11 147.29 19.9
6 -1 11 135.99 17.3
6 -1 11 156.08 13.6
6 1 11 136.29 18.7
-6 1 -11 159.98 18.1
6 1 11 163.48 13.8
6 1 11 174.98 16.4
-7 -2 11 111.79 13.8
7 -2 -11 105.49 14.4
7 -2 -11 112.19 14.2
7 -2 -11 106.99 14
-7 -2 11 117.69 12.9
-7 -2 11 116.79 13.5
7 2 -11 104.89 15.8
-7 2 11 111.59 13.2
7 2 -11 85.89 13.4
6 -2 -11 317.47 19.4
-6 -2 11 277.57 18.6
-6 -2 11 307.37 20.4
6 -2 -11 270.47 21.2
6 -2 -11 290.47 20.7
6 2 -11 250.87 24.5
6 2 -11 251.17 16.9
6 2 -11 322.67 23.8
-6 2 11 311.07 20.1
5 -2 -11 441.96 26
-5 -2 11 495.95 24.8
-5 -2 11 485.35 26.1
5 -2 -11 459.75 23.6
5 -2 -11 458.15 25.9
-5 2 11 445.56 24.8
5 2 -11 468.45 26.4
-5 2 11 442.86 24.3
5 2 -11 420.36 26.4
-4 -2 11 573.64 27.4
4 -2 -11 586.24 26.3
-4 -2 11 618.04 29.1
4 -2 -11 569.24 28.9
4 -2 -11 563.94 28.4
-4 2 11 529.15 26
4 2 -11 546.95 28.2
4 2 -11 471.25 29.3
-4 2 11 570.74 26.2
-4 2 11 572.54 28
-3 -2 11 119.69 11.3
-3 -2 11 108.29 10.2
3 -2 -11 92.69 9
3 -2 -11 123.19 12
-3 2 11 101.69 10.2
-3 2 11 102.89 10.5
-3 2 11 114.79 8.9
2 -2 -11 115.49 13.4
2 -2 -11 113.39 13
2 -2 -11 118.99 10.5
-2 -2 11 123.49 11.3
-2 -2 11 115.69 10.5
-2 2 11 132.99 11.4
-2 2 11 123.79 11.3
-1 -2 11 329.37 19
1 -2 -11 326.97 28
-1 -2 11 310.17 18.1
-1 -2 11 326.17 19.2
1 -2 -11 320.47 18
1 -2 -11 314.47 19.4
-1 2 11 331.37 14.6
-1 2 11 335.37 19.2
-1 2 11 327.87 19.5
0 -2 -11 100.39 10.8
0 -2 11 119.39 11
0 -2 -11 115.19 9.9
0 -2 11 104.29 10.5
0 -2 11 107.89 9.8
0 -2 -11 106.19 11.3
0 2 11 116.09 7.1
0 2 11 131.39 12.1
0 2 11 114.89 10.7
1 -2 11 229.98 16.1
-1 -2 -11 227.38 14.2
1 -2 11 245.08 16.3
-1 -2 -11 227.68 15.4
-1 -2 -11 241.68 16.6
1 -2 11 230.58 14.9
1 2 11 233.18 15.9
1 2 11 232.98 11.4
2 -2 11 55.69 9.2
2 -2 11 41.7 7.8
-2 -2 -11 50.79 8.9
-2 -2 -11 55.89 7.2
2 -2 11 45.3 7.1
2 2 11 50.79 5.4
2 2 11 52.09 8.5
-2 2 -11 28.6 9.9
3 -2 11 719.73 38.1
-3 -2 -11 676.23 33.9
3 -2 11 712.03 34.4
3 -2 11 704.93 32.4
3 -2 11 687.63 33.4
-3 -2 -11 680.83 30.7
-3 2 -11 675.63 33.1
3 2 11 734.53 33.1
3 2 11 709.33 33.6
3 2 11 731.93 35.5
4 -2 11 17 6.9
4 -2 11 11.8 4.1
4 -2 11 11.1 5
-4 -2 -11 3.8 6.6
-4 2 -11 14 7.3
4 2 11 16.1 5.4
-4 2 -11 9 5
4 2 11 11.2 5
4 2 11 18.6 4.7
4 2 11 19.1 7.3
-5 -2 -11 340.37 20.7
5 -2 11 353.56 21
5 -2 11 330.07 22.4
5 -2 11 329.87 24.9
-5 2 -11 359.76 23.2
5 2 11 372.86 21.4
5 2 11 353.56 23
5 2 11 338.67 25.4
6 -2 11 2.3 10.3
6 -2 11 30.7 7.2
6 -2 11 15.8 6.2
-6 -2 -11 25.4 7.8
6 2 11 44 10.1
6 2 11 43.5 13.9
6 2 11 39.6 8.9
-6 2 -11 37.5 12.6
-7 -3 11 248.68 21.4
7 -3 -11 225.38 18.4
-7 -3 11 261.57 20
-7 -3 11 236.58 18.6
7 3 -11 303.07 28
-7 3 11 279.97 19.9
6 -3 -11 25.7 7.8
6 -3 -11 22.4 7.2
6 -3 -11 35.7 9.9
-6 -3 11 25.1 7.1
-6 -3 11 28 6.8
6 3 -11 34.3 8.9
6 3 -11 18.1 8.3
-6 3 11 26.3 7.6
5 -3 -11 262.87 19.3
5 -3 -11 245.88 19.3
-5 -3 11 283.27 18.3
-5 -3 11 275.67 18.9
5 3 -11 249.08 19.5
5 3 -11 274.57 22.2
-5 3 11 265.37 18
-4 -3 11 253.77 17
-4 -3 11 235.78 16.9
4 -3 -11 243.98 17.9
4 -3 -11 252.37 14.7
4 -3 -11 228.88 17.1
4 3 -11 250.27 18.6
-4 3 11 231.88 16.3
4 3 -11 233.98 19.8
-3 -3 11 139.09 14.7
3 -3 -11 156.68 10.3
3 -3 -11 149.19 13.7
3 3 -11 137.39 13.7
-3 3 11 161.48 13
2 -3 -11 589.34 28.6
2 -3 -11 561.34 31.9
2 -3 -11 456.95 32.7
-2 -3 11 599.54 28.6
-2 -3 11 586.84 28.1
-2 -3 11 577.54 27.1
-2 3 11 468.45 25.4
2 3 -11 633.74 26.2
-2 3 11 591.34 27.7
-1 -3 11 287.27 17.9
1 -3 -11 297.67 17.3
-1 -3 11 277.07 18.1
1 -3 -11 285.27 18.4
-1 -3 11 281.17 16.7
1 -3 -11 308.27 20.8
1 3 -11 266.57 17.4
-1 3 11 271.67 17.3
-1 3 11 246.68 17.2
0 -3 11 617.84 28.9
0 -3 -11 637.54 28.7
0 -3 11 626.14 30.3
0 -3 -11 662.73 32.4
0 -3 11 654.53 31.8
0 3 -11 634.54 30.1
0 3 11 670.93 30.6
0 3 11 665.53 32
-1 -3 -11 231.08 14.5
1 -3 11 222.38 14.8
1 -3 11 246.58 17.4
-1 -3 -11 224.08 16.6
-1 -3 -11 211.18 17.8
1 -3 11 208.18 15.2
1 3 11 227.38 15.8
-1 3 -11 207.18 15.8
2 -3 11 420.66 29.7
-2 -3 -11 414.46 23.9
-2 -3 -11 425.76 21.4
2 -3 11 433.96 23.9
2 -3 11 451.15 31.8
2 3 11 421.46 23.4
-2 3 -11 397.36 22.7
2 3 11 436.16 25.9
-2 3 -11 417.96 23.9
-3 -3 -11 -2.2 4.2
3 -3 11 -6.4 7.2
-3 -3 -11 -9.4 5.2
3 -3 11 0.7 2.6
3 -3 11 3.5 3.5
3 -3 11 4 4
-3 3 -11 -5.3 5.3
-3 3 -11 11.1 5.8
3 3 11 -2.7 3.1
3 3 11 5.1 6.5
4 -3 11 270.87 18.9
-4 -3 -11 233.98 23.4
-4 -3 -11 259.47 22.4
4 -3 11 252.97 17.2
4 3 11 264.87 18.7
-4 3 -11 237.68 18.7
4 3 11 231.38 24.5
5 -3 11 168.38 21.1
5 -3 11 187.98 16.5
-5 -3 -11 171.48 15.6
5 -3 11 203.18 15.5
-5 -3 -11 168.08 21.3
5 3 11 195.58 22.1
5 3 11 202.18 13.4
-5 3 -11 170.88 20.6
5 3 11 174.18 19.3
6 -4 -11 33.9 8.2
-6 -4 11 41.9 9.6
-6 -4 11 36.4 8.2
6 -4 -11 28.8 9.5
6 -4 -11 15.7 12.1
6 4 -11 36.6 14.1
6 4 -11 42.3 13.7
-6 4 11 35 8.2
-5 -4 11 16.7 5.5
5 -4 -11 17.8 9.4
5 -4 -11 10.5 5.4
-5 -4 11 5.8 4.8
5 -4 -11 4.2 6.7
5 4 -11 16.8 10.9
-5 4 11 11.1 5.7
5 4 -11 -7.9 8
4 -4 -11 -11.4 13
-4 -4 11 9.2 3.9
4 -4 -11 3.5 3.5
4 -4 -11 -13 11.6
-4 -4 11 3.3 4.1
4 4 -11 3.8 6.5
-4 4 11 6.8 4.6
4 4 -11 11.5 6.3
-3 -4 11 33.8 7.3
3 -4 -11 44.3 8.2
3 -4 -11 49.9 12.4
-3 -4 11 32.7 7.3
3 -4 -11 30.1 8.6
3 4 -11 17.1 6.4
-3 4 11 41.9 6.8
3 4 -11 38.3 7.9
-3 4 11 46 8.1
-2 -4 11 78.19 8.5
-2 -4 11 58.79 9
-2 -4 11 53.99 9.1
2 -4 -11 38.6 11.6
2 -4 -11 51.99 9.1
2 -4 -11 58.49 9
-2 4 11 62.89 9
2 4 -11 63.39 9
-2 4 11 52.69 8.3
2 4 -11 64.29 9.3
-1 -4 11 88.09 9
1 -4 -11 77.89 10.2
1 -4 -11 88.39 10.4
-1 -4 11 87.29 10.5
-1 -4 11 91.09 10.1
-1 4 11 86.09 9.8
1 4 -11 135.49 18.3
-1 4 11 59.59 10
1 4 -11 87.39 11
1 4 -11 88.59 11
0 -4 -11 5.9 10.1
0 -4 11 28.1 6.5
0 -4 11 29.4 6
0 -4 -11 13.3 5.9
0 -4 11 17.4 5.9
0 4 -11 31.8 10.3
0 4 11 25.6 7.5
0 4 11 37 7.2
0 4 -11 21.3 6.9
0 4 -11 26.1 7.4
-1 -4 -11 33.7 6.3
1 -4 11 34.6 7.5
1 -4 11 31.4 8.4
-1 -4 -11 41.8 8.4
1 -4 11 38.7 8.7
-1 -4 -11 21.7 13.2
-1 4 -11 39.5 8.5
-1 4 -11 41.5 8.2
-1 4 -11 37.6 9.7
1 4 11 36.9 7.2
-2 -4 -11 83.69 14.2
-2 -4 -11 105.79 12.3
2 -4 11 97.79 10.2
2 -4 11 99.39 10.9
-2 -4 -11 84.19 9.7
2 -4 11 73.29 14
2 -4 11 97.89 12.4
2 4 11 111.99 11.4
-2 4 -11 101.89 12.5
-2 4 -11 121.59 16.4
2 4 11 88.39 14
-2 4 -11 85.09 11.3
3 -4 11 14 5.5
3 -4 11 12.5 5.7
-3 -4 -11 3.1 5.6
3 -4 11 14.9 6.1
-3 -4 -11 4.7 6.7
3 -4 11 8.5 9.4
-3 -4 -11 -4.3 9.5
3 4 11 13.3 10
-3 4 -11 10.5 7.2
3 4 11 11.4 5.4
4 -4 11 117.09 13
-4 -4 -11 113.79 16.9
4 -4 11 120.89 20.3
4 -4 11 119.39 12.2
4 -4 11 159.08 16.6
-4 -4 -11 110.79 11.8
-4 4 -11 108.99 17.4
4 4 11 118.99 13.3
4 4 11 142.29 20.5
4 -5 -11 165.98 18.7
-4 -5 11 153.08 13.9
4 -5 -11 127.49 15.2
-4 -5 11 126.29 13.2
4 5 -11 136.09 16.2
4 5 -11 134.29 25.7
4 5 -11 120.29 14.5
3 -5 -11 20.2 7.8
3 -5 -11 37.1 8
-3 -5 11 26.2 6.9
-3 -5 11 32.9 7.4
3 5 -11 33.1 8.2
3 5 -11 24 11.7
-3 5 11 35.5 7.5
-2 -5 11 84.39 9.3
2 -5 -11 50.89 18.4
2 -5 -11 60.19 9.7
-2 -5 11 88.39 11.3
2 -5 -11 66.19 9.7
-2 -5 11 84.99 10.1
2 5 -11 72.29 11.2
-2 5 11 90.39 10.6
-2 5 11 66.79 9.8
2 5 -11 65.29 9.6
2 5 -11 61.59 14.8
-1 -5 11 56.79 8.6
-1 -5 11 64.49 10.9
1 -5 -11 82.59 17.9
-1 -5 11 47.2 7.4
1 -5 -11 41 7.4
1 -5 -11 47.1 8.6
1 5 -11 56.29 18.6
1 5 -11 48.2 8.9
-1 5 11 52.39 10.6
0 -5 11 56.69 8.7
0 -5 -11 16.4 16.4
0 -5 11 37.9 8.5
0 -5 -11 54.59 9.2
0 -5 -11 57.69 9.1
0 -5 11 56.19 8.3
0 5 11 53.89 8.4
0 5 -11 49.99 8.6
0 5 -11 57.09 11.1
0 5 -11 58.59 13.1
1 -5 11 92.89 10.6
-1 -5 -11 99.39 15.2
-1 -5 -11 67.19 17.6
1 -5 11 104.89 10.7
-1 -5 -11 113.29 11.3
1 -5 11 116.09 13.6
-1 5 -11 112.29 13.2
-1 5 -11 92.19 12.6
1 5 11 79.89 17.5
-1 5 -11 90.99 14.5
1 5 11 98.59 11.5
-2 -5 -11 55.79 10.1
2 -5 11 76.69 10
2 -5 11 63.19 9.9
2 -5 11 59.29 10.7
-2 -5 -11 58.49 12.1
-2 -5 -11 46.2 7.8
2 -5 11 31.5 12.3
2 5 11 46.2 8.3
-2 5 -11 37.4 9.8
2 5 11 51.79 14
-2 5 -11 56.29 10.9
7 0 -12 9.7 9
7 0 -12 7.2 9.7
7 0 -12 19.8 9.6
-7 0 12 2.4 4.3
-7 0 12 1.9 4.9
-7 0 12 3.1 5
6 0 -12 615.04 33.3
-6 0 12 652.13 31.8
6 0 -12 619.44 31.4
-6 0 12 649.24 33
5 0 -12 294.47 21.1
5 0 -12 284.27 18.9
5 0 -12 293.17 20.9
-5 0 12 316.57 25.1
-5 0 12 306.07 18.4
4 0 -12 1278.07 53.19
4 0 -12 1143.79 67.29
4 0 -12 1329.17 51.79
-4 0 12 1336.07 49.9
-4 0 12 1333.87 53.49
3 0 -12 152.98 13.9
-3 0 12 142.99 15.8
3 0 -12 125.79 11.4
-3 0 12 158.58 11.2
-3 0 12 156.58 13.5
2 0 -12 219.88 14.6
-2 0 12 216.78 15.9
2 0 -12 226.18 16.2
-2 0 12 209.98 13.3
-1 0 12 657.13 27.7
1 0 -12 644.54 26.3
1 0 -12 581.44 28
1 0 -12 632.34 30.4
-1 0 12 636.94 30.7
0 0 12 -4.2 4.5
0 0 12 3.5 2.7
0 0 12 5.9 3.4
0 0 -12 1 4.1
0 0 12 3.7 3
0 0 -12 -4.6 2.8
1 0 12 880.01 36.7
1 0 12 911.01 39.8
1 0 12 905.71 42.5
1 0 12 898.01 38.8
-1 0 -12 882.31 39.5
2 0 12 29.5 6.5
2 0 12 30.1 8
2 0 12 24.1 6.8
-2 0 -12 11.3 5
2 0 12 20.2 5.9
-2 0 -12 24.3 7.4
3 0 12 412.36 22
-3 0 -12 379.36 23.7
-3 0 -12 379.56 22.2
3 0 12 351.26 24
3 0 12 426.96 24.6
-4 0 -12 52.09 8.6
-4 0 -12 46.9 9.7
4 0 12 48.9 7.9
4 0 12 33.2 7.6
4 0 12 60.89 9.6
5 0 12 234.08 17.1
5 0 12 235.38 19.1
-5 0 -12 206.48 18.6
5 0 12 252.77 20.8
7 -1 -12 96.69 14.3
-7 -1 12 144.79 14.7
-7 -1 12 112.49 13.8
7 -1 -12 89.09 14.2
7 -1 -12 94.89 13.4
-7 -1 12 115.49 13.3
7 1 -12 94.09 14.7
-7 1 12 121.19 11.3
7 1 -12 90.49 15.5
-7 1 12 110.99 13.5
-7 1 12 112.09 13.9
7 1 -12 83.09 12.2
-6 -1 12 19.1 5.6
6 -1 -12 22.7 8
6 -1 -12 19.7 7.3
-6 -1 12 5.9 4.4
6 1 -12 26.4 6.5
-6 1 12 22.2 8.3
-6 1 12 11.3 7.6
-6 1 12 17.5 10
6 1 -12 15.3 9.1
6 1 -12 2.7 8.8
5 -1 -12 48.5 9.5
-5 -1 12 52.19 8.2
-5 -1 12 67.19 11.1
5 -1 -12 77.39 12.1
5 -1 -12 66.59 11.3
5 1 -12 55.89 10.9
-5 1 12 61.29 11.3
-5 1 12 69.69 8.9
-5 1 12 49.8 9.2
5 1 -12 57.19 10.5
5 1 -12 52.79 8.1
4 -1 -12 12.7 5.4
-4 -1 12 12.8 4.8
4 -1 -12 4.4 5.4
4 -1 -12 12.5 5
-4 1 12 15 5.3
4 1 -12 10.5 6.3
4 1 -12 8.2 5.5
-4 1 12 17.9 4.7
4 1 -12 8.8 4.8
-4 1 12 17.3 6.5
-3 -1 12 39.8 7.4
3 -1 -12 49.99 8.4
3 -1 -12 53.89 9.9
-3 -1 12 47.3 7.1
3 -1 -12 48.6 8.2
-3 1 12 52.19 6.3
3 1 -12 46.8 10.6
3 1 -12 52.19 8.6
-3 1 12 46 8
-2 -1 12 77.19 8.3
2 -1 -12 58.39 9.4
-2 -1 12 74.19 9.5
2 -1 -12 70.99 9.4
-2 1 12 73.19 9.5
-2 1 12 67.89 6.8
2 1 -12 67.29 8.3
-2 1 12 79.39 10.9
2 1 -12 53.49 8.6
1 -1 -12 226.38 17
1 -1 -12 266.17 16
-1 -1 12 246.08 17
-1 -1 12 241.38 15.6
-1 1 12 268.07 24.8
1 1 -12 234.78 15.5
-1 1 12 275.37 17.8
-1 1 12 267.57 13.9
1 1 -12 256.87 17.3
0 -1 -12 32.5 5.8
0 -1 12 32.6 6.7
0 -1 12 44.8 7.3
0 -1 12 31 8.9
0 -1 12 29.7 5.8
0 -1 -12 34.8 6.9
0 -1 -12 33.1 6.8
0 1 12 49.6 8.9
0 1 -12 27.1 5.3
0 1 12 56.69 14.3
0 1 12 40.7 5.4
0 1 -12 27.1 6.4
1 -1 12 404.86 23.4
-1 -1 -12 407.66 23.8
1 -1 12 428.66 22.6
1 -1 12 399.96 22.1
-1 -1 -12 397.26 29.1
1 1 12 454.65 25.1
1 1 12 428.16 23.7
-1 1 -12 414.56 25.5
1 1 12 402.46 19.5
2 -1 12 116.49 11.4
2 -1 12 106.09 10.9
-2 -1 -12 102.69 12.8
-2 -1 -12 99.99 10.3
2 -1 12 96.79 13.5
2 1 12 116.59 12
2 1 12 102.59 10.8
-2 1 -12 95.69 11.3
-2 1 -12 94.29 11.2
2 1 12 103.89 12.7
2 1 12 110.39 9.1
3 -1 12 137.99 15.6
-3 -1 -12 147.29 15.2
-3 -1 -12 145.49 13
3 -1 12 145.09 12.7
3 -1 12 169.88 14.6
3 -1 12 153.28 13.5
-3 1 -12 134.29 13.7
3 1 12 153.28 13.1
-3 1 -12 159.28 15.7
3 1 12 159.18 11.7
3 1 12 159.38 14.1
3 1 12 167.18 15.9
4 -1 12 158.18 17.7
4 -1 12 190.88 19.1
4 -1 12 162.78 15.2
4 -1 12 187.28 14.5
-4 -1 -12 146.39 14.5
-4 -1 -12 171.88 17
4 1 12 170.08 13.1
4 1 12 151.78 13.6
4 1 12 177.88 15.7
-4 1 -12 174.18 20.7
5 -1 12 63.29 12.9
5 -1 12 108.29 11.5
-5 -1 -12 70.49 12.1
5 -1 12 75.49 12.1
-5 1 -12 72.29 13.6
5 1 12 106.99 11.5
5 1 12 78.49 12.8
5 1 12 109.59 13.7
6 -2 -12 52.09 10.9
6 -2 -12 66.59 11
-6 -2 12 90.39 13.1
-6 -2 12 55.29 8.8
6 -2 -12 74.29 12.3
-6 2 12 54.49 8.2
6 2 -12 49 12.6
6 2 -12 50.29 8.8
6 2 -12 60.69 12.1
-6 2 12 54.69 9.6
5 -2 -12 82.39 12
-5 -2 12 107.09 10.9
-5 -2 12 87.19 11.4
5 -2 -12 89.99 11.4
5 -2 -12 101.99 17.5
5 2 -12 72.39 11.8
-5 2 12 103.89 11.9
-5 2 12 94.99 11
5 2 -12 102.49 21.1
-5 2 12 105.49 11.2
-4 -2 12 30.7 6.9
-4 -2 12 41.3 8.1
4 -2 -12 20.5 6.8
4 -2 -12 32.5 8
4 2 -12 29.7 9.3
-4 2 12 31 7.5
-4 2 12 41 7.1
-4 2 12 41.2 8
4 2 -12 29.3 6.7
4 2 -12 18.9 7.6
3 -2 -12 157.98 13.8
-3 -2 12 168.18 14.2
-3 -2 12 163.08 12.9
3 -2 -12 147.89 14.1
-3 2 12 154.08 10.9
3 2 -12 131.39 14
-3 2 12 158.38 13.2
-3 2 12 162.88 13.6
3 2 -12 150.18 12.3
-2 -2 12 128.49 11.5
-2 -2 12 147.49 15
2 -2 -12 104.19 14.5
2 -2 -12 134.79 11.8
2 -2 -12 130.39 13.5
-2 2 12 133.39 12.3
-2 2 12 157.38 13.4
-2 2 12 140.69 9.3
2 2 -12 126.09 12.8
2 2 -12 144.59 11.6
-1 -2 12 251.97 16.6
-1 -2 12 242.48 16.4
-1 -2 12 247.58 17.1
1 -2 -12 248.38 17.7
1 -2 -12 231.18 17.7
1 -2 -12 264.57 16.8
-1 2 12 232.08 16.5
1 2 -12 274.97 17.4
-1 2 12 234.68 17.1
1 2 -12 243.98 16.1
0 -2 12 272.37 17.8
0 -2 -12 271.07 18.3
0 -2 12 263.47 18.6
0 -2 12 280.77 17.1
0 -2 -12 258.17 22.5
0 2 -12 255.27 17.7
0 2 12 229.78 16.9
0 2 12 266.07 12.7
-1 -2 -12 96.69 12.4
1 -2 12 111.49 13.5
1 -2 12 97.49 10.9
-1 -2 -12 111.39 12.5
1 -2 12 94.49 15.8
1 -2 12 101.59 17.3
-1 -2 -12 95.09 10.2
1 2 12 103.19 11.2
-1 2 -12 88.89 11.7
1 2 12 116.09 12.4
1 2 12 101.69 7.2
-1 2 -12 93.89 11.9
-2 -2 -12 243.38 16.2
2 -2 12 247.98 21.9
2 -2 12 279.87 18.6
-2 -2 -12 250.47 18.6
2 -2 12 255.27 16.7
2 -2 12 239.28 17.7
2 2 12 228.38 17.3
2 2 12 240.38 19
-2 2 -12 239.48 17.9
-2 2 -12 230.78 17.2
3 -2 12 41.6 7.9
-3 -2 -12 56.89 9.4
-3 -2 -12 43.1 10.3
3 -2 12 40.6 8.8
3 -2 12 47.3 11.9
3 -2 12 45.6 8.9
3 2 12 47.6 6.5
-3 2 -12 63.79 10.4
3 2 12 34.1 8.1
3 2 12 34.6 7.2
3 2 12 43.1 9.3
-3 2 -12 47 10.2
4 -2 12 231.68 18
4 -2 12 222.88 22
-4 -2 -12 226.88 17
4 -2 12 235.38 16.8
4 -2 12 235.78 18.6
-4 -2 -12 191.08 19.2
4 2 12 241.48 14.2
-4 2 -12 192.88 18.2
-4 2 -12 202.48 19.3
4 2 12 235.68 17.3
4 2 12 221.68 17.8
4 2 12 229.48 20.4
5 -2 12 32.3 8.5
5 -2 12 15.6 16.2
5 -2 12 35.3 8
-5 2 -12 24.3 13.2
5 2 12 28.5 7.8
5 2 12 16.1 19.7
5 2 12 27.2 6.1
5 2 12 27.1 7
6 -3 -12 34.2 9.2
-6 -3 12 32.6 8.1
6 -3 -12 29.8 10.1
-6 -3 12 38.9 8.6
6 -3 -12 38.5 9.6
-6 3 12 29.9 7.9
6 3 -12 35.9 10.1
6 3 -12 30.1 13.7
6 3 -12 21.1 13
-5 -3 12 300.27 20.8
-5 -3 12 304.67 20
5 -3 -12 311.97 22.6
5 -3 -12 272.17 21.4
5 -3 -12 343.97 19.5
5 3 -12 335.37 20.3
-5 3 12 307.17 20.4
5 3 -12 288.57 25.4
5 3 -12 322.17 23.3
4 -3 -12 9.7 6.5
-4 -3 12 24.9 6.6
4 -3 -12 14.2 5.2
-4 -3 12 10.9 5.1
4 -3 -12 23.6 12.8
4 3 -12 12.2 5.8
-4 3 12 21.4 5.4
-4 3 12 23.1 6.4
-3 -3 12 63.29 9.7
3 -3 -12 53.69 9.4
3 -3 -12 52.09 9.3
-3 -3 12 66.89 10.4
3 -3 -12 46.4 11.9
3 3 -12 46.3 8.9
-3 3 12 35.9 7.3
3 3 -12 63.29 8.9
-3 3 12 55.69 8.8
2 -3 -12 431.56 24.3
-2 -3 12 442.66 24.1
-2 -3 12 430.86 23.8
-2 3 12 426.76 23.4
2 3 -12 444.66 22.7
-2 3 12 351.66 21.9
2 3 -12 420.66 24.1
-1 -3 12 122.49 12.4
1 -3 -12 128.39 13.7
-1 -3 12 145.79 13.4
1 -3 -12 164.58 17.7
-1 -3 12 159.48 12.8
1 -3 -12 143.29 12.9
1 3 -12 151.58 14.3
-1 3 12 153.78 13
-1 3 12 137.39 13.3
0 -3 -12 234.08 19.8
0 -3 12 226.78 17.1
0 -3 12 201.68 22
0 -3 12 225.28 16.3
0 -3 -12 216.68 15.1
0 -3 -12 239.58 17.5
0 3 12 241.88 16.7
0 3 -12 201.08 16.5
0 3 -12 221.38 16.3
1 -3 12 21.3 7
1 -3 12 21.5 6
-1 -3 -12 10 5.1
1 -3 12 17.6 5.2
-1 -3 -12 14.5 8.1
1 -3 12 12.8 11.3
-1 -3 -12 3.9 6.5
-1 3 -12 15.5 6.3
1 3 12 26.1 7.4
1 3 12 20.2 6
-1 3 -12 31.1 6.9
2 -3 12 68.19 10.4
-2 -3 -12 72.49 11.2
2 -3 12 87.79 9.8
2 -3 12 58.39 10.5
-2 -3 -12 64.69 8.6
2 -3 12 34.9 11.7
-2 3 -12 52.19 10.2
2 3 12 95.09 13.5
-2 3 -12 92.59 11.7
-2 3 -12 56.19 11
2 3 12 88.99 10.7
3 -3 12 31 8
-3 -3 -12 19.5 6.2
-3 -3 -12 43.1 9.8
3 -3 12 62.09 10.8
3 -3 12 40.2 7.9
3 -3 12 73.39 18.8
3 3 12 35.7 7.7
-3 3 -12 55.19 10.1
-3 3 -12 35.1 9
3 3 12 59.59 12.6
-4 -3 -12 21.4 7.4
-4 -3 -12 22.7 8.7
4 -3 12 25.7 13.7
4 -3 12 6.8 4.4
4 -3 12 11.4 5.8
4 -3 12 12.9 6
4 3 12 -1.2 8.6
-4 3 -12 20.2 9.4
-5 -4 12 153.08 14.2
5 -4 -12 181.28 13.4
5 -4 -12 135.09 17
5 4 -12 123.99 18.3
5 4 -12 168.58 16.3
4 -4 -12 331.97 24.2
-4 -4 12 356.46 22.3
4 -4 -12 370.46 17.7
-4 -4 12 336.67 22
4 -4 -12 348.27 23.7
4 4 -12 341.57 23.7
-4 4 12 384.86 22.3
4 4 -12 350.86 24.3
4 4 -12 337.17 21.4
3 -4 -12 45.6 9.1
3 -4 -12 36.1 9.8
-3 -4 12 39.3 8
-3 -4 12 36.5 8.2
3 -4 -12 49.7 16.5
3 4 -12 27.3 7.2
3 4 -12 39.8 10.1
-3 4 12 35.7 7.3
3 4 -12 42.7 10.5
-3 4 12 32.8 7.4
-2 -4 12 102.39 10.6
2 -4 -12 113.09 13.2
-2 -4 12 87.09 12.1
-2 -4 12 103.89 11.8
2 -4 -12 101.99 12.7
2 -4 -12 103.69 17.2
2 4 -12 73.59 11.3
2 4 -12 123.49 15.4
-2 4 12 92.69 11.2
-2 4 12 94.89 11.8
1 -4 -12 72.69 10.5
-1 -4 12 60.39 9.7
-1 -4 12 61.49 9.9
1 -4 -12 21.3 13.6
1 -4 -12 65.99 10.7
-1 4 12 33.2 9.5
1 4 -12 35.2 12.5
1 4 -12 50.09 9
-1 4 12 87.29 10.4
1 4 -12 67.59 9.8
0 -4 -12 18.1 6.8
0 -4 -12 25.1 6.8
0 -4 -12 19.7 12.4
0 -4 12 21.2 6.4
0 -4 12 26.3 6.7
0 -4 12 33.2 7.2
0 4 12 29.3 6.5
0 4 -12 17.9 9.1
0 4 -12 25 8.2
0 4 12 4.3 7.2
0 4 -12 32.2 8.2
-1 -4 -12 303.37 18.5
1 -4 12 337.57 20.7
1 -4 12 315.07 22
1 -4 12 325.47 19.4
-1 -4 -12 311.87 21
-1 4 -12 283.97 21.1
-1 4 -12 299.37 21.3
1 4 12 313.07 19.8
-1 4 -12 283.57 22.8
1 4 12 329.87 30.6
2 -4 12 73.09 10.9
-2 -4 -12 62.79 9.5
-2 -4 -12 61.39 10
2 -4 12 62.19 9.3
2 -4 12 63.99 11.7
2 -4 12 28.7 12.4
2 4 12 68.39 10.2
-2 4 -12 63.39 10.5
2 4 12 75.99 17.8
-2 4 -12 54.99 10
-2 4 -12 71.29 13.7
-3 -4 -12 445.46 27.3
-3 -4 -12 434.86 23.8
3 -4 12 477.45 29.6
3 -4 12 474.25 25.6
3 -4 12 476.85 26.7
-3 4 -12 364.86 28.5
3 4 12 426.06 32.1
3 4 12 449.26 26.2
2 -5 -12 378.46 24.9
-2 -5 12 449.46 24.4
-2 -5 12 484.45 25.9
-2 -5 12 435.66 26.5
2 -5 -12 410.06 26
2 5 -12 531.65 38.8
2 5 -12 418.76 25.7
-2 5 12 486.55 25.2
-2 5 12 434.66 24.2
2 5 -12 415.66 26.6
2 5 -12 470.95 23.6
-1 -5 12 108.49 11.8
-1 -5 12 118.99 13.4
1 -5 -12 78.59 12.3
1 -5 -12 118.49 14.5
1 -5 -12 67.49 24.5
-1 -5 12 98.89 10.6
1 5 -12 91.89 17.2
1 5 -12 59.79 12
-1 5 12 113.69 12
1 5 -12 91.39 12
0 -5 12 322.87 22.8
0 -5 -12 246.08 33
0 -5 12 341.37 20.2
0 -5 -12 348.27 22.9
0 -5 12 351.86 21
0 5 -12 268.87 25.8
0 5 -12 317.57 21.6
0 5 12 361.26 21.2
0 5 12 320.37 26.5
-6 0 13 5.8 4.7
6 0 -13 4.4 8
-6 0 13 4.8 4.9
6 0 -13 20.6 9.1
6 0 -13 3 6.5
5 0 -13 15.6 7.2
-5 0 13 0.5 4.3
-5 0 13 5 3.7
5 0 -13 3.7 8
5 0 -13 6.7 6.3
4 0 -13 -3.7 4.3
-4 0 13 -1.1 4
-4 0 13 -3.9 2.6
4 0 -13 9.8 6.2
4 0 -13 3.3 5.8
-4 0 13 -10.1 6.5
-3 0 13 -9.2 6.5
3 0 -13 5.6 6.4
3 0 -13 5.5 5
-3 0 13 9 7.4
-3 0 13 5.9 3
2 0 -13 48.1 9.5
-2 0 13 44.3 9.2
-2 0 13 54.19 7.1
2 0 -13 63.79 9.7
-2 0 13 47.3 8.7
-1 0 13 46.7 8.8
1 0 -13 35.1 6.1
-1 0 13 43.6 9.3
1 0 -13 30.5 7.5
1 0 -13 56.69 9.2
-1 0 13 46.6 7.3
0 0 -13 17.2 6.9
0 0 13 8.5 4.6
0 0 13 5.7 7.7
0 0 13 17.9 4.9
0 0 -13 12.3 4.7
-1 0 -13 310.97 18.9
1 0 13 291.47 23.9
1 0 13 320.27 19.9
1 0 13 301.77 17.6
-1 0 -13 312.07 20.8
1 0 13 279.67 21.9
2 0 13 58.09 9.8
-2 0 -13 44.4 7.6
2 0 13 51.69 11
2 0 13 69.59 11.2
-2 0 -13 61.19 9.8
2 0 13 60.89 8.8
-3 0 -13 40.1 11.3
3 0 13 40.3 7.9
3 0 13 33.1 9.1
3 0 13 39.5 8.5
3 0 13 35.8 7.6
4 0 13 167.28 14.6
-4 0 -13 154.18 19.9
4 0 13 148.69 18.7
4 0 13 168.08 14.5
-4 0 -13 207.98 17.9
4 0 13 196.88 16.9
6 -1 -13 161.28 19.9
6 -1 -13 173.68 18.6
-6 -1 13 183.98 15.4
6 -1 -13 164.08 17.5
-6 -1 13 165.18 15.9
6 1 -13 140.09 17.8
-6 1 13 154.28 14.5
-6 1 13 159.58 15.6
6 1 -13 190.48 20.1
-6 1 13 173.38 18
-5 -1 13 132.39 13.7
5 -1 -13 92.39 13.1
5 -1 -13 146.89 14.9
5 -1 -13 115.29 17
-5 -1 13 119.69 11.7
-5 1 13 132.29 12.1
-5 1 13 104.49 14.9
5 1 -13 113.89 13.2
5 1 -13 86.59 12.6
-5 1 13 116.69 13
5 1 -13 88.69 12.8
4 -1 -13 118.39 15.2
4 -1 -13 140.09 14.3
4 -1 -13 126.19 13.7
-4 -1 13 142.29 12.2
-4 -1 13 178.78 15.1
-4 1 13 144.69 13.9
-4 1 13 150.68 11.7
4 1 -13 140.59 16.3
-4 1 13 155.78 16.2
4 1 -13 122.79 13.4
4 1 -13 150.98 16.3
-3 -1 13 105.29 10.4
-3 -1 13 120.09 12.6
3 -1 -13 121.89 14.2
-3 1 13 96.39 11.5
3 1 -13 106.69 11.1
3 1 -13 126.79 13.9
-3 1 13 100.79 8.9
-2 -1 13 247.98 34.4
2 -1 -13 356.46 20.8
2 -1 -13 333.47 21.6
-2 -1 13 387.56 20.4
-2 -1 13 356.46 21.9
2 1 -13 367.46 20.3
2 1 -13 372.76 22.7
-2 1 13 268.97 24.9
-2 1 13 358.26 21.9
-2 1 13 380.46 18
1 -1 -13 224.28 15.8
1 -1 -13 248.98 16.6
-1 -1 13 242.18 17.7
-1 -1 13 244.18 15.9
-1 -1 13 213.28 21.2
-1 1 13 253.47 13.9
1 1 -13 245.48 18.1
-1 1 13 258.47 17.9
1 1 -13 220.88 15.9
0 -1 13 214.68 15
0 -1 -13 197.68 15
0 -1 -13 200.38 19.1
0 -1 -13 225.18 14.5
0 -1 13 207.18 15.7
0 -1 13 222.18 16.9
0 -1 13 205.78 20.3
0 1 -13 186.48 16.2
0 1 -13 225.18 15.9
0 1 13 216.08 17.7
0 1 13 201.38 12.4
0 1 13 209.18 16.4
1 -1 13 393.36 23
1 -1 13 317.37 20.5
1 -1 13 365.56 26.1
1 -1 13 328.47 20.1
-1 -1 -13 334.47 22.1
-1 -1 -13 336.87 20.2
-1 1 -13 374.86 21.4
1 1 13 387.06 22.8
1 1 13 331.37 22.8
-1 1 -13 374.86 23.1
1 1 13 344.87 17.8
2 -1 13 38.1 7.6
-2 -1 -13 37.5 8.2
-2 -1 -13 26 6.4
2 -1 13 52.59 9.4
2 -1 13 65.69 12.3
2 -1 13 42.4 8.1
-2 1 -13 20.1 7.5
2 1 13 48.6 7.1
-2 1 -13 40.3 9.7
2 1 13 41.9 10.7
2 1 13 52.59 10.1
2 1 13 47.8 9.9
-3 -1 -13 100.69 24.1
3 -1 13 82.59 10.5
3 -1 13 59.99 10.9
3 -1 13 90.19 13
-3 -1 -13 73.39 11.9
-3 1 -13 84.89 14.5
3 1 13 107.79 12.8
3 1 13 115.49 10.3
-3 1 -13 62.49 10.6
3 1 13 89.39 10.9
3 1 13 110.49 15.3
-4 -1 -13 131.19 15.7
-4 -1 -13 144.79 18.6
4 -1 13 161.18 14.3
4 -1 13 127.69 17.1
4 -1 13 160.38 15.1
4 -1 13 155.18 15.5
4 1 13 147.09 14.1
-4 1 -13 122.29 15.6
4 1 13 156.68 13.1
4 1 13 147.79 15.3
-4 1 -13 127.39 16.7
4 1 13 153.98 18.6
-5 -2 13 36.8 8.3
5 -2 -13 27.6 10
5 -2 -13 40.1 8.2
5 -2 -13 50.29 12.5
-5 -2 13 35.8 7.4
5 2 -13 29.6 8.1
5 2 -13 52.99 11.4
-5 2 13 33.5 8.4
-5 2 13 52.29 8.8
-5 2 13 40.1 8.6
5 2 -13 28.4 10.1
-4 -2 13 434.06 24.4
-4 -2 13 479.35 27
4 -2 -13 471.35 24.2
4 -2 -13 477.25 28
4 2 -13 439.36 27.3
-4 2 13 399.96 24
4 2 -13 449.16 24
-4 2 13 496.55 23.9
-4 2 13 450.95 26.1
-3 -2 13 37.5 7.3
-3 -2 13 41.7 8.8
3 -2 -13 45.6 9.7
3 -2 -13 27.2 9.5
-3 2 13 40.8 8.4
3 2 -13 62.59 10.7
-3 2 13 46.9 7.1
3 2 -13 28.5 7.7
-3 2 13 40 8
-2 -2 13 402.06 23.3
-2 -2 13 386.76 21.8
2 -2 -13 358.56 21.7
2 -2 -13 359.16 24.5
2 -2 -13 359.76 23.2
-2 2 13 386.96 18.1
-2 2 13 383.76 22.7
2 2 -13 341.17 22.6
2 2 -13 373.56 21.2
1 -2 -13 66.99 12.7
1 -2 -13 68.79 11.3
-1 -2 13 42.3 7.6
-1 -2 13 49.7 8.5
1 -2 -13 63.59 10.4
-1 2 13 66.69 10.8
1 2 -13 59.29 9.7
1 2 -13 48 8.3
-1 2 13 57.09 5.9
0 -2 -13 124.79 11.9
0 -2 -13 130.29 15
0 -2 -13 110.99 13.9
0 -2 13 98.99 17.2
0 -2 13 121.89 12.6
0 -2 13 122.89 11.7
0 2 13 111.09 7.9
0 2 13 103.09 12.1
0 2 -13 99.09 11.8
0 2 13 118.09 13.5
0 2 -13 106.39 13.8
1 -2 13 583.64 29.8
1 -2 13 597.54 29
-1 -2 -13 569.84 28
1 -2 13 581.94 30.2
-1 -2 -13 586.04 30.8
1 -2 13 533.95 35.7
1 2 13 559.34 29.6
1 2 13 538.35 22.8
-1 2 -13 589.74 29.3
-1 2 -13 535.45 30.2
1 2 13 586.44 31.4
2 -2 13 8.8 5.2
2 -2 13 9.8 5.4
2 -2 13 0.4 8.1
-2 -2 -13 -1.3 6.5
-2 -2 -13 10.7 6.3
2 -2 13 10.2 4.3
2 2 13 15.6 3.7
-2 2 -13 8.7 6.9
2 2 13 15 6.5
-2 2 -13 7.5 6.8
2 2 13 11.2 5.4
3 -2 13 704.53 34.9
3 -2 13 703.73 34.8
3 -2 13 630.74 38.5
-3 -2 -13 622.64 34.9
3 -2 13 662.33 32.4
3 2 13 634.94 26.9
3 2 13 652.53 35.9
-3 2 -13 595.14 33
-3 2 -13 599.34 33.7
3 2 13 687.23 34.5
4 -2 13 55.59 10.2
-4 -2 -13 49.7 10.5
4 -2 13 32.1 8.4
4 -2 13 15.1 10.8
-4 -2 -13 46.6 11.3
4 -2 13 35.2 8.3
4 2 13 51.49 7.4
4 2 13 66.89 11.7
-4 2 -13 56.79 13.7
-4 2 -13 27.4 9.6
4 2 13 47.4 10.6
5 -3 -13 84.99 16.1
-5 -3 13 113.19 12.3
5 -3 -13 96.39 13.7
-5 -3 13 119.39 13.5
5 -3 -13 75.09 11.2
-5 3 13 108.19 13.6
5 3 -13 94.29 15.2
5 3 -13 97.99 12.6
-4 -3 13 37.7 7.6
-4 -3 13 36.9 8.4
4 -3 -13 28.6 16
4 -3 -13 37.4 10.5
-4 3 13 36.6 7.7
4 3 -13 30.3 7.8
4 3 -13 38.4 10.6
-4 3 13 37.3 8.2
-3 -3 13 4.6 4.3
3 -3 -13 -6.6 4.9
3 -3 -13 0.3 6.5
-3 -3 13 4.6 4.5
-3 3 13 -6.1 4.2
3 3 -13 16.5 8.1
-3 3 13 -4.7 5.3
3 3 -13 -3.6 6.2
2 -3 -13 226.48 19.1
2 -3 -13 221.48 18.1
-2 -3 13 259.87 17.7
-2 -3 13 240.28 17.9
2 3 -13 212.08 16.4
-2 3 13 174.68 16.6
2 3 -13 213.18 19.1
-2 3 13 250.37 17.6
1 -3 -13 101.19 14.6
-1 -3 13 129.09 13
-1 -3 13 128.99 12.2
-1 -3 13 122.59 12.9
1 -3 -13 128.59 13.1
1 3 -13 132.09 13.7
-1 3 13 141.79 13.5
0 -3 -13 244.18 22
0 -3 13 221.58 15.9
0 -3 13 158.68 21.8
0 -3 -13 200.88 17.3
0 -3 -13 184.68 15.4
0 -3 13 222.28 17.3
0 -3 13 200.08 16.4
0 3 -13 181.58 22.3
0 3 -13 236.78 17.7
0 3 13 220.88 16.8
0 3 13 222.18 18.6
1 -3 13 176.78 14.2
1 -3 13 162.18 15.2
1 -3 13 174.18 15.3
1 -3 13 148.39 21.3
-1 -3 -13 153.68 20.4
-1 -3 -13 132.59 13.8
1 3 13 178.58 15.2
-1 3 -13 210.28 18.7
1 3 13 164.68 17.3
-1 3 -13 123.89 15.8
2 -3 13 45.4 10.4
-2 -3 -13 33.7 8.9
2 -3 13 22.5 12
2 -3 13 49.99 9.4
-2 -3 -13 35.7 9.6
2 -3 13 39.8 8.2
-2 3 -13 30 9.5
-2 3 -13 45.9 10
2 3 13 35.9 8.3
2 3 13 34.9 10
-2 3 -13 44.8 10.6
3 -3 13 100.59 15.6
3 -3 13 64.09 10.1
3 -3 13 99.09 14.2
-3 -3 -13 44.2 12.9
-3 -3 -13 55.69 11.3
3 -3 13 68.89 16.9
3 3 13 54.79 12.5
3 3 13 77.79 12.2
-3 3 -13 107.89 22.4
3 -4 -13 102.59 18.5
3 -4 -13 72.49 23.1
-3 -4 13 110.39 12.7
-3 -4 13 107.59 12.7
3 -4 -13 119.19 15.7
3 4 -13 99.69 13
-3 4 13 116.49 13.1
3 4 -13 95.29 16.4
-3 4 13 153.78 14.8
3 4 -13 133.89 17.6
-2 -4 13 116.39 12.9
2 -4 -13 67.29 19.8
2 -4 -13 78.19 12.1
2 -4 -13 72.19 11.1
-2 -4 13 101.39 12.1
2 4 -13 83.09 13.1
-2 4 13 77.49 12.2
2 4 -13 91.79 12.6
-2 4 13 93.89 12.2
-1 -4 13 20.8 5.9
1 -4 -13 30.5 16.9
-1 -4 13 25.8 6.8
-1 -4 13 21.8 6.5
1 -4 -13 16.8 7.5
1 -4 -13 23.3 7.8
1 4 -13 24.4 8
-1 4 13 -0.3 7.8
-1 4 13 27.1 7.4
1 4 -13 18.1 9.4
0 -4 13 217.98 16
0 -4 -13 224.28 19.1
0 -4 13 231.28 17.7
0 -4 13 191.18 17.3
0 -4 -13 220.28 16.9
0 4 13 226.08 17.2
0 4 -13 194.88 19.5
0 4 -13 209.28 18.8
0 4 -13 213.98 22.7
1 -4 13 30.5 14.6
-1 -4 -13 16.1 6.8
1 -4 13 20 6.3
1 -4 13 4.3 3.9
1 -4 13 14.3 6
1 4 13 -2.9 9.4
1 4 13 7.7 5.5
-1 4 -13 11.9 8.3
-1 4 -13 21 9.1
-1 4 -13 3.8 7.6
5 0 -14 12.2 7
-5 0 14 1.2 3.8
5 0 -14 5.2 9.3
5 0 -14 6.4 8.3
-5 0 14 3.8 12.5
-5 0 14 0 4.9
4 0 -14 135.29 15.1
-4 0 14 129.89 11.7
-4 0 14 133.19 14.2
-4 0 14 79.09 16.9
4 0 -14 149.09 17.9
3 0 -14 13.3 7.7
-3 0 14 26.1 7.1
-3 0 14 22.9 9.9
-3 0 14 15.4 4.4
3 0 -14 17.5 7.9
-2 0 14 155.78 14.6
2 0 -14 166.78 14.8
-2 0 14 104.69 15.9
2 0 -14 159.28 16.7
-2 0 14 157.78 11.9
-1 0 14 28.3 7.8
1 0 -14 26.1 8.8
1 0 -14 25.2 7.9
-1 0 14 20.4 8.5
-1 0 14 20.5 5.4
0 0 -14 145.49 21.1
0 0 14 171.38 15.6
0 0 14 135.29 17.7
0 0 14 183.68 13.1
0 0 -14 199.38 17.5
-1 0 -14 85.09 11.3
1 0 14 91.89 9.9
1 0 14 97.49 13.8
1 0 14 66.79 14.1
1 0 14 104.89 12.2
2 0 14 24.4 6.1
2 0 14 26.8 7.6
2 0 14 15.7 8.8
-2 0 -14 25.1 7.8
2 0 14 23.6 7.7
-2 0 -14 37.9 10.5
3 0 14 673.43 44.2
3 0 14 836.42 36.2
-3 0 -14 701.73 38.1
3 0 14 842.72 40
3 0 14 843.82 38.5
-3 0 -14 695.23 41.1
-5 -1 14 187.48 17.3
-5 -1 14 217.28 15.9
5 -1 -14 178.58 18.2
5 -1 -14 225.38 22.6
-5 1 14 211.38 18.2
5 1 -14 162.48 17.2
5 1 -14 186.68 21.9
-5 1 14 205.58 15.6
-4 -1 14 92.59 10.3
4 -1 -14 76.39 14.4
-4 -1 14 96.39 12.6
-4 1 14 95.79 13.6
-4 1 14 85.49 9.5
4 1 -14 63.29 12
4 1 -14 85.19 12.8
3 -1 -14 142.69 15
-3 -1 14 105.99 17.2
-3 -1 14 153.58 12.6
-3 -1 14 151.88 14.7
3 -1 -14 134.79 18.4
3 -1 -14 123.29 15.5
-3 1 14 151.48 14.5
3 1 -14 137.49 17.5
-3 1 14 122.89 15.5
-3 1 14 177.08 12
2 -1 -14 272.77 20.8
2 -1 -14 278.07 20.7
2 -1 -14 279.97 19.1
-2 -1 14 303.57 22.6
-2 -1 14 309.47 20.5
-2 -1 14 214.58 22.9
-2 1 14 289.87 20.2
-2 1 14 278.87 21.9
2 1 -14 246.28 20.5
-2 1 14 291.47 16
2 1 -14 275.87 25.8
1 -1 -14 260.77 17.5
-1 -1 14 208.08 21.7
-1 -1 14 214.68 16.3
1 -1 -14 222.28 18.4
1 -1 -14 251.17 20.2
-1 -1 14 262.77 19
-1 1 14 248.98 18.5
-1 1 14 241.98 14
-1 1 14 215.38 18.8
1 1 -14 210.08 24.6
0 -1 14 404.66 24.5
0 -1 14 427.56 25.5
0 -1 14 412.16 23.2
0 -1 -14 448.56 25.4
0 -1 -14 406.66 25.8
0 -1 14 369.16 28.8
0 1 14 413.36 26.5
0 1 14 415.06 20.1
0 1 -14 407.46 26
0 1 14 429.66 25.3
0 1 -14 376.76 28
1 -1 14 107.49 12.9
1 -1 14 139.69 18.2
1 -1 14 140.29 13.4
-1 -1 -14 92.29 12.2
-1 -1 -14 103.39 13.3
1 1 14 132.19 10.2
-1 1 -14 129.69 13.8
-1 1 -14 102.39 13.9
1 1 14 118.89 13.2
1 1 14 127.99 15.4
2 -1 14 6.7 3.8
2 -1 14 12.7 10.2
2 -1 14 15.3 5.8
-2 -1 -14 -0.1 7.1
2 -1 14 4.6 5.2
-2 -1 -14 7.8 8.1
-2 1 -14 28.2 10
2 1 14 14.1 5.8
-2 1 -14 7.3 7
2 1 14 8.4 10.2
2 1 14 20.5 5.4
-3 -1 -14 137.99 19.8
3 -1 14 137.99 20.5
3 -1 14 128.89 13.2
-3 -1 -14 126.59 17
3 -1 14 124.99 14.8
3 -1 14 136.79 13.9
3 1 14 126.29 11.6
3 1 14 129.29 14.8
3 1 14 112.59 17.4
3 1 14 130.89 14.2
-3 1 -14 139.69 18.5
-3 1 -14 153.48 18
-4 -2 14 58.69 10
-4 -2 14 78.29 9.9
4 -2 -14 85.29 13.1
4 2 -14 38.5 10
-4 2 14 48.4 9.3
-4 2 14 40.8 7.6
-3 -2 14 59.79 9
-3 -2 14 66.69 11.8
3 -2 -14 48.8 8.9
3 -2 -14 61.69 11.3
-3 2 14 65.19 8.2
3 2 -14 61.19 11.5
-2 -2 14 3.5 3.7
2 -2 -14 4.5 7.8
2 -2 -14 -3.9 6.8
-2 -2 14 5.1 4.6
2 -2 -14 14.9 12.4
-2 2 14 13.1 5.4
2 2 -14 1.6 7.4
-2 2 14 -3.5 6.6
-2 2 14 5.3 3.3
-1 -2 14 55.49 9.3
1 -2 -14 40.8 11.4
-1 -2 14 57.39 13.4
1 -2 -14 19.9 8.9
-1 -2 14 41.1 9.1
1 -2 -14 43.4 9.3
-1 2 14 51.29 9.9
-1 2 14 53.99 6.1
-1 2 14 52.39 12
1 2 -14 50.09 12.3
1 2 -14 57.99 11.3
0 -2 14 23.9 6.5
0 -2 14 19.9 7
0 -2 14 25.5 7.2
0 -2 -14 17.5 8
0 -2 -14 28.2 8.1
0 2 14 30.1 4.6
0 2 -14 20.9 8.3
0 2 -14 27.3 8.3
0 2 14 33.6 10.2
1 -2 14 15.6 6.6
-1 -2 -14 -2.1 6.8
1 -2 14 13 6.4
1 -2 14 16.2 8.8
1 -2 14 7.8 4.8
-1 -2 -14 -9.8 8.4
1 2 14 8.7 5.3
1 2 14 1.7 2.9
-1 2 -14 10.2 9.2
-1 2 -14 14 8.6
1 2 14 5.1 7.3
2 -2 14 328.07 46.9
2 -2 14 292.77 20.6
2 -2 14 309.57 21.4
-2 -2 -14 287.17 20.7
2 -2 14 297.87 20.1
-2 -2 -14 317.17 26.5
2 2 14 275.77 20.8
2 2 14 281.17 24.4
-2 2 -14 239.68 25.7
2 2 14 293.77 14.9
3 -3 -14 0.1 19.3
3 -3 -14 2.3 7.4
-3 -3 14 18.4 5.9
-3 -3 14 12.4 6.7
3 -3 -14 16.2 8.8
-3 3 14 11.8 7.2
3 3 -14 17.4 10.9
3 3 -14 10.6 5.8
3 3 -14 27 8.7
-2 -3 14 67.09 10.2
2 -3 -14 52.19 10.7
2 -3 -14 51.29 16.8
2 -3 -14 70.19 12.1
-2 -3 14 51.89 9.3
-2 3 14 75.09 12
2 3 -14 57.19 10.2
2 3 -14 77.49 16.7
-1 -3 14 128.69 13.2
-1 -3 14 113.69 12.5
1 -3 -14 89.09 13.5
1 -3 -14 121.89 15.2
-1 -3 14 125.19 13.6
1 3 -14 103.09 13
-1 3 14 124.79 14.1
1 3 -14 104.49 15.1
0 -3 14 112.99 12.9
0 -3 -14 119.89 14.5
0 -3 -14 77.49 13.3
0 -3 14 116.49 13.3
0 -3 14 99.69 11.9
0 3 -14 102.69 15.5
0 3 -14 80.59 11
0 3 14 126.19 13.8
0 3 14 90.49 15.3
-1 -3 -14 267.87 20.7
1 -3 14 314.87 21.7
1 -3 14 324.77 20.7
1 -3 14 360.06 23.2
1 -3 14 264.47 31.4
-1 -3 -14 296.47 22.8
-1 3 -14 253.67 27.7
-1 3 -14 243.28 28.4
1 3 14 355.16 28.8
1 3 14 299.57 29.2
-3 0 15 142.79 12
-3 0 15 128.79 14.5
3 0 -15 132.69 21.1
-3 0 15 81.99 14.5
3 0 -15 106.09 16
-2 0 15 41.7 8.6
-2 0 15 43.8 11.1
2 0 -15 56.49 11.1
2 0 -15 34.5 9.4
-1 0 15 89.89 9.5
-1 0 15 83.69 13.3
-1 0 15 91.09 21.4
1 0 -15 58.89 13.2
1 0 -15 91.79 13
0 0 -15 26.2 10.7
0 0 15 47 7.5
0 0 15 42.1 10.7
0 0 -15 16.1 9.7
0 0 15 48 10.1
1 0 15 38.9 7.5
1 0 15 29.8 8.2
-1 0 -15 32.9 13.1
-1 0 -15 30.9 10.7
1 0 15 51.29 13.6
3 -1 -15 118.69 15.8
-3 -1 15 176.28 16.3
-3 -1 15 139.19 12.7
3 -1 -15 139.69 17.1
-3 -1 15 124.09 20.8
-3 1 15 113.79 16.4
3 1 -15 97.89 18.3
-3 1 15 165.78 15.9
-3 1 15 133.39 11.3
3 1 -15 117.29 16.2
-2 -1 15 39.3 12.1
2 -1 -15 51.29 18.7
2 -1 -15 53.09 11.6
-2 -1 15 57.99 11.4
-2 -1 15 53.79 8.9
2 1 -15 45.6 13.7
-2 1 15 62.69 11.2
-2 1 15 31.3 11.4
2 1 -15 41.2 10.3
-2 1 15 63.19 7.9
1 -1 -15 196.38 20.9
-1 -1 15 218.48 24.2
-1 -1 15 261.27 17.2
-1 -1 15 234.28 19.1
1 -1 -15 252.17 22.7
1 -1 -15 264.47 19.7
-1 1 15 264.27 19.7
-1 1 15 241.38 21.4
-1 1 15 244.58 14.7
1 1 -15 236.68 23.4
1 1 -15 197.78 19
0 -1 15 236.18 18.5
0 -1 -15 251.47 21.5
0 -1 15 209.58 15.5
0 -1 15 158.38 23.6
0 1 15 178.58 12.6
0 1 15 180.18 16.6
0 1 15 160.18 19.2
0 1 -15 203.78 26.4
1 -1 15 52.69 23.8
1 -1 15 97.39 14.1
1 -1 15 92.89 11.3
1 -1 15 100.29 12.5
-1 -1 -15 92.19 14.1
-1 -1 -15 81.89 11.8
1 1 15 103.39 13.5
-1 1 -15 77.99 15.3
-1 1 -15 97.39 14.1
1 1 15 100.69 9.5
1 1 15 62.39 12
loop_
_geom_angle_atom_site_label_1
_geom_angle_atom_site_label_2
_geom_angle_atom_site_label_3
_geom_angle
_geom_angle_site_symmetry_1
_geom_angle_site_symmetry_3
_geom_angle_publ_flag
O6 Mo1 Rb1 111.66(10) 2_756 2_646 ?
O6 Mo1 O8 77.75(13) 2_756 2_756 ?
O4 Mo1 Rb1 49.98(12) . 2_646 ?
O4 Mo1 O6 83.53(17) . 2_756 ?
O4 Mo1 O5 160.56(15) . 1_565 ?
O4 Mo1 O8 81.43(17) . 2_756 ?
O5 Mo1 Rb1 123.69(11) 1_565 2_646 ?
O5 Mo1 O6 83.20(17) 1_565 2_756 ?
O5 Mo1 O8 81.92(17) 1_565 2_756 ?
O3 Mo1 Rb1 55.54(15) . 2_646 ?
O3 Mo1 O6 163.23(15) . 2_756 ?
O3 Mo1 O4 93.3(2) . . ?
O3 Mo1 O5 95.4(2) . 1_565 ?
O3 Mo1 O1 103.73(19) . . ?
O3 Mo1 O8 85.50(16) . 2_756 ?
O1 Mo1 Rb1 133.07(16) . 2_646 ?
O1 Mo1 O6 93.01(17) . 2_756 ?
O1 Mo1 O4 97.3(2) . . ?
O1 Mo1 O5 97.5(2) . 1_565 ?
O1 Mo1 O8 170.75(17) . 2_756 ?
O8 Mo1 Rb1 52.21(11) 2_756 2_646 ?
O9 Mo2 Rb1 126.25(11) 1_565 2_655 ?
O12 Mo2 Rb1 50.36(11) 1_565 2_655 ?
O12 Mo2 O9 81.93(15) 1_565 1_565 ?
O12 Mo2 O11 81.4(2) 1_565 2_755 ?
O13 Mo2 Rb1 134.30(12) . 2_655 ?
O13 Mo2 O9 84.43(16) . 1_565 ?
O13 Mo2 O12 162.15(17) . 1_565 ?
O13 Mo2 O11 84.7(2) . 2_755 ?
O2 Mo2 Rb1 115.56(18) . 2_655 ?
O2 Mo2 O9 88.9(2) . 1_565 ?
O2 Mo2 O12 95.7(3) . 1_565 ?
O2 Mo2 O13 95.5(2) . . ?
O2 Mo2 O11 167.7(2) . 2_755 ?
O11 Mo2 Rb1 71.74(14) 2_755 2_655 ?
O11 Mo2 O9 78.92(18) 2_755 1_565 ?
O14 Mo2 Rb1 44.65(17) . 2_655 ?
O14 Mo2 O9 168.1(2) . 1_565 ?
O14 Mo2 O12 92.45(19) . 1_565 ?
O14 Mo2 O13 98.7(2) . . ?
O14 Mo2 O2 102.1(3) . . ?
O14 Mo2 O11 89.9(2) . 2_755 ?
P1 Rb1 Mo2 128.52(3) 2_656 2_645 ?
P1 Rb1 P2 70.43(3) 2_656 1_465 ?
P2 Rb1 Mo2 114.65(2) 1_465 2_645 ?
O9 Rb1 Mo2 93.07(6) 1_465 2_645 ?
O9 Rb1 P1 77.94(7) 1_465 2_656 ?
O9 Rb1 P2 22.58(7) 1_465 1_465 ?
O12 Rb1 Mo2 30.92(8) 2_655 2_645 ?
O12 Rb1 P1 144.33(10) 2_655 2_656 ?
O12 Rb1 P2 93.24(9) 2_655 1_465 ?
O12 Rb1 O9 76.38(11) 2_655 1_465 ?
O12 Rb1 O4 156.64(11) 2_655 2_656 ?
O12 Rb1 O5 135.86(13) 2_655 2_656 ?
O12 Rb1 O3 131.52(11) 2_655 2_656 ?
O12 Rb1 O8 107.58(11) 2_655 1_465 ?
O4 Rb1 Mo2 152.61(8) 2_656 2_645 ?
O4 Rb1 P1 24.13(8) 2_656 2_656 ?
O4 Rb1 P2 64.43(8) 2_656 1_465 ?
O4 Rb1 O9 80.26(10) 2_656 1_465 ?
O4 Rb1 O5 45.19(10) 2_656 2_656 ?
O4 Rb1 O3 49.91(10) 2_656 2_656 ?
O4 Rb1 O8 53.30(10) 2_656 1_465 ?
O5 Rb1 Mo2 109.75(7) 2_656 2_645 ?
O5 Rb1 P1 24.64(7) 2_656 2_656 ?
O5 Rb1 P2 92.43(8) 2_656 1_465 ?
O5 Rb1 O9 94.09(10) 2_656 1_465 ?
O5 Rb1 O3 91.40(10) 2_656 2_656 ?
O3 Rb1 Mo2 157.47(7) 2_656 2_645 ?
O3 Rb1 P1 73.98(7) 2_656 2_656 ?
O3 Rb1 P2 70.57(7) 2_656 1_465 ?
O3 Rb1 O9 93.06(9) 2_656 1_465 ?
O1 Rb1 Mo2 114.88(9) . 2_645 ?
O1 Rb1 P1 79.05(8) . 2_656 ?
O1 Rb1 P2 130.47(9) . 1_465 ?
O1 Rb1 O9 151.19(11) . 1_465 ?
O1 Rb1 O12 131.54(13) . 2_655 ?
O1 Rb1 O4 71.69(11) . 2_656 ?
O1 Rb1 O5 70.81(12) . 2_656 ?
O1 Rb1 O3 63.92(12) . 2_656 ?
O1 Rb1 O8 110.78(11) . 1_465 ?
O1 Rb1 O14 93.53(13) . 2_645 ?
O2 Rb1 Mo2 77.70(11) . 2_645 ?
O2 Rb1 P1 150.11(11) . 2_656 ?
O2 Rb1 P2 115.10(12) . 1_465 ?
O2 Rb1 O9 119.07(13) . 1_465 ?
O2 Rb1 O12 65.44(14) . 2_655 ?
O2 Rb1 O4 128.73(14) . 2_656 ?
O2 Rb1 O5 146.02(13) . 2_656 ?
O2 Rb1 O3 80.37(14) . 2_656 ?
O2 Rb1 O1 76.02(13) . . ?
O2 Rb1 O8 106.50(14) . 1_465 ?
O2 Rb1 O14 80.40(16) . 2_645 ?
O8 Rb1 Mo2 133.63(7) 1_465 2_645 ?
O8 Rb1 P1 67.61(8) 1_465 2_656 ?
O8 Rb1 P2 21.01(7) 1_465 1_465 ?
O8 Rb1 O9 43.56(9) 1_465 1_465 ?
O8 Rb1 O5 92.14(10) 1_465 2_656 ?
O8 Rb1 O3 49.57(10) 1_465 2_656 ?
O14 Rb1 Mo2 23.47(8) 2_645 2_645 ?
O14 Rb1 P1 117.58(11) 2_645 2_656 ?
O14 Rb1 P2 134.97(9) 2_645 1_465 ?
O14 Rb1 O9 112.43(11) 2_645 1_465 ?
O14 Rb1 O12 53.19(12) 2_645 2_655 ?
O14 Rb1 O4 139.28(12) 2_645 2_656 ?
O14 Rb1 O5 94.31(12) 2_645 2_656 ?
O14 Rb1 O3 153.34(12) 2_645 2_656 ?
O14 Rb1 O8 155.62(11) 2_645 1_465 ?
O6 P1 Rb1 99.18(14) . 2_646 ?
O6 P1 O4 113.1(2) . . ?
O6 P1 O5 112.9(2) . . ?
O6 P1 O7 110.0(2) . . ?
O4 P1 Rb1 55.86(16) . 2_646 ?
O4 P1 O5 105.8(2) . . ?
O4 P1 O7 108.2(2) . . ?
O5 P1 Rb1 62.00(15) . 2_646 ?
O5 P1 O7 106.4(2) . . ?
O7 P1 Rb1 150.70(14) . 2_646 ?
O9 P2 Rb1 66.00(17) . 1_645 ?
O9 P2 O7 109.9(2) . . ?
O9 P2 O10 109.26(19) . . ?
O7 P2 Rb1 126.13(16) . 1_645 ?
O7 P2 O10 100.5(2) . . ?
O8 P2 Rb1 49.07(17) . 1_645 ?
O8 P2 O9 114.9(3) . . ?
O8 P2 O7 110.5(2) . . ?
O8 P2 O10 110.7(2) . . ?
O10 P2 Rb1 132.50(16) . 1_645 ?
O12 P3 Rb1 43.97(16) . 2_645 ?
O12 P3 O10 107.4(2) . . ?
O13 P3 Rb1 88.60(16) . 2_645 ?
O13 P3 O12 108.9(2) . . ?
O13 P3 O10 103.8(2) . . ?
O11 P3 Rb1 90.01(19) . 2_645 ?
O11 P3 O12 113.6(3) . . ?
O11 P3 O13 115.3(3) . . ?
O11 P3 O10 107.0(2) . . ?
O10 P3 Rb1 151.36(15) . 2_645 ?
Mo2 O9 Rb1 127.31(16) 1_545 1_645 ?
P2 O9 Mo2 135.5(2) . 1_545 ?
P2 O9 Rb1 91.42(19) . 1_645 ?
Mo2 O12 Rb1 98.72(14) 1_545 2_645 ?
P3 O12 Mo2 138.0(2) . 1_545 ?
P3 O12 Rb1 115.8(2) . 2_645 ?
P1 O6 Mo1 144.9(2) . 2_746 ?
Mo1 O4 Rb1 99.94(15) . 2_646 ?
P1 O4 Mo1 152.1(3) . . ?
P1 O4 Rb1 100.01(19) . 2_646 ?
Mo1 O5 Rb1 127.88(16) 1_545 2_646 ?
P1 O5 Mo1 138.6(2) . 1_545 ?
P1 O5 Rb1 93.36(18) . 2_646 ?
P3 O13 Mo2 159.3(3) . . ?
P2 O7 P1 132.8(2) . . ?
Mo1 O3 Rb1 99.54(17) . 2_646 ?
Mo1 O1 Rb1 147.8(2) . . ?
Mo2 O2 Rb1 154.7(3) . . ?
P3 O11 Mo2 173.6(3) . 2_745 ?
Mo1 O8 Rb1 93.25(13) 2_746 1_645 ?
P2 O8 Mo1 143.2(2) . 2_746 ?
P2 O8 Rb1 109.9(2) . 1_645 ?
Mo2 O14 Rb1 111.9(2) . 2_655 ?
P2 O10 P3 126.5(2) . . ?
loop_
_geom_bond_atom_site_label_1
_geom_bond_atom_site_label_2
_geom_bond_distance
_geom_bond_site_symmetry_2
_geom_bond_publ_flag
Mo1 Rb1 3.9219(8) 2_646 ?
Mo1 O6 2.164(4) 2_756 ?
Mo1 O4 1.996(4) . ?
Mo1 O5 2.001(4) 1_565 ?
Mo1 O3 1.676(4) . ?
Mo1 O1 1.678(4) . ?
Mo1 O8 2.228(3) 2_756 ?
Mo2 Rb1 3.9013(8) 2_655 ?
Mo2 O9 2.201(4) 1_565 ?
Mo2 O12 2.028(4) 1_565 ?
Mo2 O13 1.976(4) . ?
Mo2 O2 1.684(4) . ?
Mo2 O11 2.139(4) 2_755 ?
Mo2 O14 1.675(4) . ?
Rb1 P1 3.6279(13) 2_656 ?
Rb1 P2 3.8630(15) 1_465 ?
Rb1 O9 3.530(4) 1_465 ?
Rb1 O12 3.040(4) 2_655 ?
Rb1 O4 3.049(4) 2_656 ?
Rb1 O5 3.209(4) 2_656 ?
Rb1 O3 3.279(4) 2_656 ?
Rb1 O1 2.933(4) . ?
Rb1 O2 2.825(5) . ?
Rb1 O8 3.104(4) 1_465 ?
Rb1 O14 2.954(5) 2_645 ?
P1 O6 1.489(3) . ?
P1 O4 1.506(4) . ?
P1 O5 1.515(4) . ?
P1 O7 1.597(4) . ?
P2 O9 1.484(4) . ?
P2 O7 1.576(4) . ?
P2 O8 1.473(4) . ?
P2 O10 1.587(4) . ?
P3 O12 1.512(4) . ?
P3 O13 1.504(4) . ?
P3 O11 1.480(5) . ?
P3 O10 1.595(4) . ?
loop_
_geom_torsion_atom_site_label_1
_geom_torsion_atom_site_label_2
_geom_torsion_atom_site_label_3
_geom_torsion_atom_site_label_4
_geom_torsion
_geom_torsion_site_symmetry_1
_geom_torsion_site_symmetry_2
_geom_torsion_site_symmetry_3
_geom_torsion_site_symmetry_4
_geom_torsion_publ_flag
Rb1 Mo1 O1 Rb1 65.1(5) 2_646 . . . ?
Rb1 Mo2 O2 Rb1 129.1(5) 2_655 . . . ?
Rb1 P1 O6 Mo1 -176.3(4) 2_646 . . 2_746 ?
Rb1 P1 O4 Mo1 135.1(6) 2_646 . . . ?
Rb1 P1 O5 Mo1 -175.3(5) 2_646 . . 1_545 ?
Rb1 P1 O7 P2 165.49(15) 2_646 . . . ?
Rb1 P2 O9 Mo2 -152.8(4) 1_645 . . 1_545 ?
Rb1 P2 O7 P1 65.2(4) 1_645 . . . ?
Rb1 P2 O8 Mo1 -125.9(6) 1_645 . . 2_746 ?
Rb1 P2 O10 P3 50.4(4) 1_645 . . . ?
Rb1 P3 O12 Mo2 142.1(6) 2_645 . . 1_545 ?
Rb1 P3 O13 Mo2 -94.4(8) 2_645 . . . ?
Rb1 P3 O10 P2 52.9(6) 2_645 . . . ?
O9 Mo2 O2 Rb1 -100.7(6) 1_565 . . . ?
O9 Mo2 O14 Rb1 -43.5(11) 1_565 . . 2_655 ?
O9 P2 O7 P1 139.4(4) . . . . ?
O9 P2 O8 Mo1 -130.3(4) . . . 2_746 ?
O9 P2 O8 Rb1 -4.5(3) . . . 1_645 ?
O9 P2 O10 P3 -24.3(4) . . . . ?
O12 Mo2 O2 Rb1 177.5(6) 1_565 . . . ?
O12 Mo2 O14 Rb1 17.8(2) 1_565 . . 2_655 ?
O12 P3 O13 Mo2 -134.1(7) . . . . ?
O12 P3 O10 P2 51.1(4) . . . . ?
O6 Mo1 O3 Rb1 -43.5(8) 2_756 . . 2_646 ?
O6 Mo1 O1 Rb1 -171.2(4) 2_756 . . . ?
O6 P1 O4 Mo1 49.7(6) . . . . ?
O6 P1 O4 Rb1 -85.4(2) . . . 2_646 ?
O6 P1 O5 Mo1 -87.0(4) . . . 1_545 ?
O6 P1 O5 Rb1 88.4(2) . . . 2_646 ?
O6 P1 O7 P2 -10.2(5) . . . . ?
O4 Mo1 O3 Rb1 34.88(16) . . . 2_646 ?
O4 Mo1 O1 Rb1 105.0(5) . . . . ?
O4 P1 O6 Mo1 -119.6(4) . . . 2_746 ?
O4 P1 O5 Mo1 148.8(4) . . . 1_545 ?
O4 P1 O5 Rb1 -35.85(19) . . . 2_646 ?
O4 P1 O7 P2 113.9(4) . . . . ?
O5 Mo1 O3 Rb1 -127.69(15) 1_565 . . 2_646 ?
O5 Mo1 O1 Rb1 -87.7(5) 1_565 . . . ?
O5 P1 O6 Mo1 120.4(4) . . . 2_746 ?
O5 P1 O4 Mo1 173.8(6) . . . . ?
O5 P1 O4 Rb1 38.7(2) . . . 2_646 ?
O5 P1 O7 P2 -132.9(4) . . . . ?
O13 Mo2 O2 Rb1 -16.4(6) . . . . ?
O13 Mo2 O14 Rb1 -148.2(2) . . . 2_655 ?
O13 P3 O12 Mo2 -151.0(4) . . . 1_545 ?
O13 P3 O12 Rb1 66.9(3) . . . 2_645 ?
O13 P3 O10 P2 166.4(3) . . . . ?
O7 P1 O6 Mo1 1.6(5) . . . 2_746 ?
O7 P1 O4 Mo1 -72.5(6) . . . . ?
O7 P1 O4 Rb1 152.38(17) . . . 2_646 ?
O7 P1 O5 Mo1 33.9(5) . . . 1_545 ?
O7 P1 O5 Rb1 -150.80(16) . . . 2_646 ?
O7 P2 O9 Mo2 85.5(4) . . . 1_545 ?
O7 P2 O9 Rb1 -121.69(18) . . . 1_645 ?
O7 P2 O8 Mo1 -5.3(6) . . . 2_746 ?
O7 P2 O8 Rb1 120.6(2) . . . 1_645 ?
O7 P2 O10 P3 -139.9(3) . . . . ?
O3 Mo1 O1 Rb1 9.8(5) . . . . ?
O1 Mo1 O3 Rb1 133.23(19) . . . 2_646 ?
O2 Mo2 O14 Rb1 114.2(3) . . . 2_655 ?
O11 Mo2 O2 Rb1 -106.6(13) 2_755 . . . ?
O11 Mo2 O14 Rb1 -63.6(2) 2_755 . . 2_655 ?
O11 P3 O12 Mo2 79.0(5) . . . 1_545 ?
O11 P3 O12 Rb1 -63.1(3) . . . 2_645 ?
O11 P3 O13 Mo2 -5.1(9) . . . . ?
O11 P3 O10 P2 -71.2(4) . . . . ?
O8 Mo1 O3 Rb1 -46.25(15) 2_756 . . 2_646 ?
O8 P2 O9 Mo2 -149.1(3) . . . 1_545 ?
O8 P2 O9 Rb1 3.7(3) . . . 1_645 ?
O8 P2 O7 P1 11.6(5) . . . . ?
O8 P2 O10 P3 103.3(3) . . . . ?
O14 Mo2 O2 Rb1 83.8(6) . . . . ?
O10 P2 O9 Mo2 -23.9(4) . . . 1_545 ?
O10 P2 O9 Rb1 128.89(18) . . . 1_645 ?
O10 P2 O7 P1 -105.5(4) . . . . ?
O10 P2 O8 Mo1 105.3(5) . . . 2_746 ?
O10 P2 O8 Rb1 -128.9(2) . . . 1_645 ?
O10 P3 O12 Mo2 -39.1(5) . . . 1_545 ?
O10 P3 O12 Rb1 178.7(2) . . . 2_645 ?
O10 P3 O13 Mo2 111.7(8) . . . . ?
loop_
_twin_individual_id
_twin_individual_mass_fraction_refined
1 0.578(10)
2 0.422(10)
