#------------------------------------------------------------------------------
#$Date: 2021-09-03 02:03:11 +0300 (Fri, 03 Sep 2021) $
#$Revision: 268372 $
#$URL: file:///home/coder/svn-repositories/cod/cif/7/70/81/7708165.cif $
#------------------------------------------------------------------------------
#
# This file is available in the Crystallography Open Database (COD),
# http://www.crystallography.net/
#
# All data on this site have been placed in the public domain by the
# contributors.
#
data_7708165
loop_
_publ_author_name
'Matos, Cati\'ucia R. M. O.'
'Sarmiento, Charlie V.'
'C. Silva, Henrique'
'Ferreira, Glaucio B.'
'Guedes, Guilherme P.'
'Nunes, Wallace C.'
'Ronconi, C\'elia M.'
_publ_section_title
;
 Field-induced single-ion magnets exhibiting tri-axial anisotropy in a 1D
 Co(ii) coordination polymer with a rigid ligand
 4,4&#x2032;-(buta-1,3-diyne-1,4-diyl)dibenzoate
;
_journal_name_full               'Dalton Transactions'
_journal_paper_doi               10.1039/D1DT01961A
_journal_year                    2021
_chemical_formula_moiety         'C20 H14 O4'
_chemical_formula_sum            'C20 H14 O4'
_chemical_formula_weight         318.31
_space_group_crystal_system      triclinic
_space_group_IT_number           2
_space_group_name_Hall           '-P 1'
_space_group_name_H-M_alt        'P -1'
_atom_sites_solution_hydrogens   geom
_atom_sites_solution_primary     difmap
_audit_creation_date             2021-04-11
_audit_creation_method
;
Olex2 1.3
(compiled 2020.11.12 svn.r5f609507 for OlexSys, GUI svn.r6272)
;
_audit_update_record
;
2021-04-13 deposited with the CCDC.	2021-08-16 downloaded from the CCDC.
;
_cell_angle_alpha                75.773(3)
_cell_angle_beta                 73.159(2)
_cell_angle_gamma                74.351(3)
_cell_formula_units_Z            2
_cell_length_a                   7.0604(4)
_cell_length_b                   10.6647(7)
_cell_length_c                   11.8334(7)
_cell_measurement_reflns_used    9273
_cell_measurement_temperature    298(2)
_cell_measurement_theta_max      25.62
_cell_measurement_theta_min      2.46
_cell_volume                     807.50(9)
_computing_cell_refinement       'SAINT V8.38A (Bruker AXS Inc., 2017)'
_computing_data_collection       'Bruker Instrument Service vV6.2.6'
_computing_data_reduction        'SAINT V8.38A (Bruker AXS Inc., 2017)'
_computing_molecular_graphics    'Olex2 1.3 (Dolomanov et al., 2009)'
_computing_publication_material  'Olex2 1.3 (Dolomanov et al., 2009)'
_computing_structure_refinement  'SHELXL 2014/7 (Sheldrick, 2015)'
_diffrn_ambient_temperature      298(2)
_diffrn_measured_fraction_theta_full 0.995
_diffrn_measured_fraction_theta_max 0.995
_diffrn_measurement_device_type  'Bruker D8-Venture'
_diffrn_measurement_method       '\f and \w scans'
_diffrn_radiation_type           MoK\a
_diffrn_radiation_wavelength     0.71073
_diffrn_reflns_av_R_equivalents  0.0438
_diffrn_reflns_av_unetI/netI     0.0227
_diffrn_reflns_Laue_measured_fraction_full 0.995
_diffrn_reflns_Laue_measured_fraction_max 0.995
_diffrn_reflns_limit_h_max       8
_diffrn_reflns_limit_h_min       -8
_diffrn_reflns_limit_k_max       12
_diffrn_reflns_limit_k_min       -12
_diffrn_reflns_limit_l_max       14
_diffrn_reflns_limit_l_min       -14
_diffrn_reflns_number            23446
_diffrn_reflns_point_group_measured_fraction_full 0.995
_diffrn_reflns_point_group_measured_fraction_max 0.995
_diffrn_reflns_theta_full        25.024
_diffrn_reflns_theta_max         25.024
_diffrn_reflns_theta_min         2.464
_diffrn_source_current           1.0
_diffrn_source_power             0.05
_diffrn_source_voltage           50.0
_diffrn_standards_number         0
_exptl_absorpt_coefficient_mu    0.091
_exptl_absorpt_correction_T_max  0.7453
_exptl_absorpt_correction_T_min  0.6919
_exptl_absorpt_correction_type   multi-scan
_exptl_absorpt_process_details
'SADABS-2016/2 - Bruker AXS area detector scaling and absorption correction.'
_exptl_crystal_colour            colourless
_exptl_crystal_colour_primary    colourless
_exptl_crystal_density_diffrn    1.309
_exptl_crystal_description       neddle
_exptl_crystal_F_000             332
_exptl_crystal_size_max          0.28
_exptl_crystal_size_mid          0.254
_exptl_crystal_size_min          0.164
_refine_diff_density_max         0.189
_refine_diff_density_min         -0.199
_refine_diff_density_rms         0.041
_refine_ls_extinction_coef       0.127(18)
_refine_ls_extinction_expression Fc^*^=kFc[1+0.001xFc^2^\l^3^/sin(2\q)]^-1/4^
_refine_ls_extinction_method     'SHELXL-2014/7 (Sheldrick 2014'
_refine_ls_goodness_of_fit_ref   1.112
_refine_ls_hydrogen_treatment    constr
_refine_ls_matrix_type           full
_refine_ls_number_parameters     220
_refine_ls_number_reflns         2839
_refine_ls_number_restraints     0
_refine_ls_restrained_S_all      1.112
_refine_ls_R_factor_all          0.0735
_refine_ls_R_factor_gt           0.0553
_refine_ls_shift/su_max          0.000
_refine_ls_shift/su_mean         0.000
_refine_ls_structure_factor_coef Fsqd
_refine_ls_weighting_details
'w=1/[\s^2^(Fo^2^)+(0.0565P)^2^+0.5678P] where P=(Fo^2^+2Fc^2^)/3'
_refine_ls_weighting_scheme      calc
_refine_ls_wR_factor_gt          0.1416
_refine_ls_wR_factor_ref         0.1583
_reflns_Friedel_coverage         0.000
_reflns_number_gt                2208
_reflns_number_total             2853
_reflns_threshold_expression     'I > 2\s(I)'
_cod_data_source_file            d1dt01961a2.cif
_cod_data_source_block           4
_cod_database_code               7708165
_shelx_shelxl_version_number     2014/7
_publcif_funding_html
;
;
_shelx_space_group_comment
;
The symmetry employed for this shelxl refinement is uniquely defined
by the following loop, which should always be used as a source of
symmetry information in preference to the above space-group names.
They are only intended as comments.
;
_shelx_estimated_absorpt_t_max   0.985
_shelx_estimated_absorpt_t_min   0.975
_olex2_refinement_description
;
1.a Aromatic/amide H refined with riding coordinates:
 C4(H4), C5(H5), C12(H12), C13(H13), C17(H17), C18(H18), C19(H19), C20(H20)
1.b Idealised Me refined as rotating group:
 C1(H1A,H1B,H1C), C16(H16A,H16B,H16C)
;
_shelx_res_file
;
    mo_l1es_celia_0m.res created by SHELXL-2014/7

TITL mo_L1Es_Celia_0m_a.res in P-1
CELL 0.71073 7.0604 10.6647 11.8334 75.773 73.159 74.351
ZERR 2 0.0004 0.0007 0.0007 0.003 0.002 0.003
LATT 1
SFAC C H O
UNIT 40 28 8

L.S. 50
PLAN  5
SIZE 0.164 0.254 0.28
TEMP 25(2)
CONF
BOND $H
fmap 2
acta
MORE -1
MERG 2
OMIT 3 8 3
REM <olex2.extras>
REM <HklSrc "%.\\mo_L1Es_Celia_0m.hkl">
REM </olex2.extras>

WGHT    0.056500    0.567800
EXTI    0.127453
FVAR       1.84405
O1    3    1.598479    0.102124    0.310458    11.00000    0.03774    0.06176 =
         0.06181   -0.03081   -0.01171    0.00011
O2    3   -0.465901    0.839095    1.167800    11.00000    0.04157    0.05857 =
         0.05141   -0.01948   -0.00457    0.00106
O3    3   -0.591202    0.853796    1.011701    11.00000    0.04390    0.09793 =
         0.07788   -0.03147   -0.02331    0.00469
O4    3    1.773378    0.153463    0.414055    11.00000    0.03468    0.11069 =
         0.09295   -0.05487   -0.01925   -0.00213
C1    1    1.784909    0.033939    0.240865    11.00000    0.04343    0.05547 =
         0.06211   -0.02623   -0.00580    0.00166
AFIX 137
H1A   2    1.884284    0.087539    0.217393    11.00000   -1.50000
H1B   2    1.760413    0.017946    0.170494    11.00000   -1.50000
H1C   2    1.833845   -0.048952    0.288487    11.00000   -1.50000
AFIX   0
C2    1    1.614473    0.157477    0.395349    11.00000    0.03933    0.04155 =
         0.04439   -0.01006   -0.01371   -0.00657
C3    1    1.414438    0.223323    0.462398    11.00000    0.03572    0.03944 =
         0.03787   -0.00759   -0.01236   -0.00446
C4    1    1.234160    0.206776    0.450521    11.00000    0.03791    0.05163 =
         0.04534   -0.01874   -0.01163   -0.00808
AFIX  43
H4    2    1.235751    0.154530    0.397706    11.00000   -1.20000
AFIX   0
C5    1    1.052104    0.267238    0.516476    11.00000    0.03173    0.05797 =
         0.04888   -0.01573   -0.01042   -0.01058
AFIX  43
H5    2    0.931485    0.255510    0.507908    11.00000   -1.20000
AFIX   0
C6    1    1.047165    0.345977    0.596078    11.00000    0.03508    0.04248 =
         0.03563   -0.00511   -0.00720   -0.00349
C7    1    0.856306    0.406899    0.664150    11.00000    0.04300    0.04162 =
         0.04050   -0.00643   -0.00860   -0.00739
C8    1    0.690985    0.455424    0.718188    11.00000    0.04442    0.04256 =
         0.04204   -0.00729   -0.00559   -0.00819
C9    1    0.502470    0.512587    0.777929    11.00000    0.04596    0.04146 =
         0.04335   -0.00844   -0.00491   -0.00942
C10   1    0.335172    0.563096    0.828567    11.00000    0.04673    0.03852 =
         0.04470   -0.00664   -0.00398   -0.01070
C11   1    0.137606    0.625541    0.887385    11.00000    0.03844    0.03598 =
         0.04258   -0.00769   -0.00118   -0.00830
C12   1   -0.027078    0.647851    0.837734    11.00000    0.05262    0.05028 =
         0.04452   -0.01966   -0.01007   -0.00711
AFIX  43
H12   2   -0.009272    0.620772    0.765711    11.00000   -1.20000
AFIX   0
C13   1   -0.216485    0.709805    0.894505    11.00000    0.04398    0.04937 =
         0.05163   -0.01234   -0.01845   -0.00687
AFIX  43
H13   2   -0.325755    0.724410    0.860552    11.00000   -1.20000
AFIX   0
C14   1   -0.245141    0.750532    1.002043    11.00000    0.03850    0.03591 =
         0.04105   -0.00528   -0.00882   -0.00760
C15   1   -0.451652    0.819094    1.058509    11.00000    0.03955    0.04032 =
         0.05100   -0.00617   -0.00929   -0.00982
C16   1   -0.660100    0.908984    1.226621    11.00000    0.04789    0.06224 =
         0.06495   -0.01934    0.00226    0.00177
AFIX 137
H16A  2   -0.690335    0.996812    1.181354    11.00000   -1.50000
H16B  2   -0.656995    0.914014    1.305937    11.00000   -1.50000
H16C  2   -0.762529    0.862752    1.231813    11.00000   -1.50000
AFIX   0
C17   1    0.108598    0.666330    0.995337    11.00000    0.03644    0.05399 =
         0.04810   -0.01176   -0.01131   -0.00720
AFIX  43
H17   2    0.217515    0.651578    1.029626    11.00000   -1.20000
AFIX   0
C18   1   -0.081862    0.728756    1.051723    11.00000    0.04323    0.05146 =
         0.04001   -0.01515   -0.00739   -0.00918
AFIX  43
H18   2   -0.100205    0.756285    1.123604    11.00000   -1.20000
AFIX   0
C19   1    1.410128    0.302742    0.540705    11.00000    0.03583    0.05445 =
         0.05256   -0.01637   -0.01703   -0.00833
AFIX  43
H19   2    1.530911    0.314874    0.548664    11.00000   -1.20000
AFIX   0
C20   1    1.228429    0.363525    0.606515    11.00000    0.04640    0.05047 =
         0.04550   -0.01959   -0.01294   -0.00539
AFIX  43
H20   2    1.227253    0.416770    0.658375    11.00000   -1.20000
AFIX   0
HKLF 4

REM  mo_L1Es_Celia_0m_a.res in P-1
REM R1 =  0.0553 for    2210 Fo > 4sig(Fo)  and  0.0735 for all    2839 data
REM    220 parameters refined using      0 restraints

END

WGHT      0.0563      0.5705

REM Highest difference peak  0.189,  deepest hole -0.199,  1-sigma level  0.041
Q1    1   0.8123  0.4835  0.7046  11.00000  0.05    0.19
Q2    1  -0.7385  0.8332  1.3060  11.00000  0.05    0.19
Q3    1  -0.7435  0.9467  1.1602  11.00000  0.05    0.17
Q4    1   1.9616  0.0835  0.3544  11.00000  0.05    0.17
Q5    1  -0.1860  0.6983  1.0429  11.00000  0.05    0.17
;
_shelx_res_checksum              59382
_shelx_hkl_file
;
  -1   0   0 1919.21   61.69
  -1   0   0 2034.50   61.69
  -1   0   0 1732.83   62.19
  -1   0   0 1894.11   61.69
   1   0   0 1955.40   61.09
   1   0   0 1909.91   61.69
   1   0   0 1964.90   61.69
  -2   0   0   12.50    2.90
  -2   0   0   12.00    2.90
  -2   0   0    9.20    3.10
  -2   0   0   11.70    3.10
  -2   0   0   13.30    2.20
   2   0   0   13.70    3.30
   2   0   0   11.80    2.90
   2   0   0   19.60    2.90
   2   0   0   14.40    3.00
  -3   0   0  247.58   12.70
  -3   0   0  225.98   12.60
  -3   0   0  252.27   12.20
  -3   0   0  256.47   10.60
  -3   0   0  253.27   13.00
  -3   0   0  255.07   12.60
   3   0   0  249.68   12.00
   3   0   0  247.98   12.50
   3   0   0  243.28   10.70
   3   0   0  233.18   12.50
  -4   0   0   27.30    5.00
  -4   0   0   23.60    5.60
  -4   0   0   30.30    5.50
  -4   0   0   39.60    5.30
  -4   0   0   30.40    6.10
  -4   0   0   30.70    6.00
   4   0   0   21.70    5.70
   4   0   0   27.00    5.80
   4   0   0   24.00    5.20
   4   0   0   35.10    4.70
  -5   0   0  525.25   20.20
  -5   0   0  482.75   24.30
  -5   0   0  511.65   23.60
  -5   0   0  508.05   24.60
  -5   0   0  496.55   24.20
  -5   0   0  491.05   23.70
   5   0   0  501.25   23.50
   5   0   0  492.05   24.20
   5   0   0  515.45   23.80
   5   0   0  490.35   20.40
  -6   0   0  503.15   26.30
  -6   0   0  484.55   26.50
  -6   0   0  534.75   29.60
  -6   0   0  470.55   26.00
  -6   0   0  501.55   27.80
   6   0   0  509.65   25.80
   6   0   0  489.45   25.40
   6   0   0  501.15   21.10
   6   0   0  515.35   25.70
   6   0   0  511.95   32.60
  -7   0   0   75.39   12.60
  -7   0   0   52.99   10.40
  -7   0   0   51.49   10.80
  -7   0   0   37.30    9.60
  -7   0   0   50.79   10.20
   7   0   0   57.59    8.30
   7   0   0   55.89    9.60
   7   0   0  102.49   21.10
   7   0   0   59.59   11.90
   7   0   0   44.30   10.00
   7  -1   0   35.40    6.00
   7  -1   0   25.50    8.20
   7  -1   0   20.40    9.60
   7  -1   0   27.90    9.00
  -7   1   0   21.80    8.70
  -7   1   0   32.60   10.00
  -7   1   0   23.50    7.80
  -7   1   0   27.90    9.00
  -7   1   0   30.90   10.10
   6  -1   0   51.59    9.00
   6  -1   0   55.89    9.10
   6  -1   0   69.09    8.00
   6  -1   0   61.29    9.80
  -6   1   0   57.19   10.20
  -6   1   0   60.89    9.90
  -6   1   0   62.19    9.60
  -6   1   0   45.10    9.00
  -6   1   0   49.60    9.90
   5  -1   0 4618.54  152.48
   5  -1   0 4575.34  151.68
   5  -1   0 4698.03  152.58
   5  -1   0 4479.15  149.29
   5  -1   0 4618.24  151.68
  -5   1   0 4579.14  152.38
  -5   1   0 4357.56  152.68
  -5   1   0 4552.44  151.68
  -5   1   0 4740.23  152.08
  -5   1   0 4640.84  151.98
   4  -1   0    2.10    3.80
   4  -1   0    9.10    4.80
   4  -1   0    4.80    3.80
   4  -1   0    9.20    3.00
   4  -1   0   10.00    4.80
  -4   1   0   13.00    4.50
  -4   1   0    6.70    4.50
  -4   1   0    9.60    3.40
  -4   1   0    5.80    5.00
  -4   1   0    5.60    3.80
  -4   1   0   14.70    4.90
   3  -1   0    1.70    2.90
   3  -1   0   -1.90    2.90
   3  -1   0    1.60    2.20
   3  -1   0   -3.60    3.50
   3  -1   0   -5.60    2.70
  -3   1   0   -1.70    3.00
  -3   1   0    4.10    2.90
  -3   1   0   -0.70    3.10
  -3   1   0   -2.80    3.40
  -3   1   0    0.20    0.50
  -3   1   0   -6.00    3.30
   2  -1   0   49.60    5.20
   2  -1   0   50.89    5.00
   2  -1   0   53.49    4.30
   2  -1   0   55.29    5.00
   2  -1   0   51.99    5.20
  -2   1   0   57.69    4.30
  -2   1   0   47.20    5.10
  -2   1   0   50.29    4.80
  -2   1   0   47.10    5.50
  -2   1   0   54.59    5.30
   1  -1   0 3248.58  106.99
  -1   1   0 3262.57  106.99
  -1   1   0 3559.64  107.39
  -2  -1   0 1124.29   36.90
  -2  -1   0 1096.59   37.20
  -2  -1   0 1120.29   37.50
  -2  -1   0 1105.69   37.50
  -2  -1   0  959.50   36.20
   2   1   0 1087.19   37.30
   2   1   0 1059.49   35.60
   2   1   0 1090.89   37.20
   2   1   0 1071.69   36.80
   2   1   0 1112.59   39.50
  -3  -1   0    8.20    2.70
  -3  -1   0   14.00    3.50
  -3  -1   0    7.60    4.20
  -3  -1   0   12.70    4.00
   3   1   0   10.10    4.10
   3   1   0    9.80    3.30
   3   1   0    5.00    4.70
   3   1   0    9.80    3.70
  -4  -1   0    4.90    3.70
  -4  -1   0    5.70    4.90
  -4  -1   0    1.10    4.60
  -4  -1   0    9.20    2.80
  -4  -1   0   -1.10    3.30
   4   1   0    0.20    5.10
   4   1   0   14.40    5.30
   4   1   0    6.20    2.20
   4   1   0    4.00    3.70
   4   1   0    6.90    4.70
  -5  -1   0  442.36   17.50
  -5  -1   0  435.96   23.60
  -5  -1   0  452.15   22.60
  -5  -1   0  404.16   21.70
  -5  -1   0  432.66   22.60
  -5  -1   0  432.96   21.40
   5   1   0  394.96   21.00
   5   1   0  440.56   21.60
   5   1   0  453.35   17.70
  -6  -1   0  561.14   28.30
  -6  -1   0  568.04   28.40
  -6  -1   0  538.15   27.70
  -6  -1   0  513.05   21.60
   6   1   0  569.64   27.90
   6   1   0  539.75   27.40
   6   1   0  546.55   21.50
   6   1   0  504.55   26.40
   6   1   0  533.75   32.90
  -7  -1   0  120.29   17.00
  -7  -1   0  118.19   13.90
  -7  -1   0  149.19   19.30
  -7  -1   0  136.09   14.90
   7   1   0  126.69   15.90
   7   1   0  134.79    9.00
   7   1   0  140.39   27.90
   7   1   0  121.79   16.10
   7   1   0  151.48   15.40
   7  -2   0   97.09   11.40
   7  -2   0  100.79   16.10
   7  -2   0  104.79   15.10
   7  -2   0  118.09   16.10
  -7   2   0  101.99   15.90
  -7   2   0  114.89   17.80
  -7   2   0  103.19   14.10
  -7   2   0   75.49   12.10
   6  -2   0   50.89    7.30
   6  -2   0   61.79   10.20
   6  -2   0   52.89    8.70
   6  -2   0   60.79   10.30
   6  -2   0   79.49   13.50
  -6   2   0   57.49    9.80
  -6   2   0   62.09   10.20
  -6   2   0   69.59   10.50
   5  -2   0  829.62   33.50
   5  -2   0  824.62   35.50
   5  -2   0  909.71   35.70
   5  -2   0  908.41   35.70
  -5   2   0  873.51   35.50
  -5   2   0  860.91   36.60
  -5   2   0  838.22   36.10
  -5   2   0  917.61   36.10
  -5   2   0  866.11   35.50
   4  -2   0   25.20    4.40
   4  -2   0   25.00    5.60
   4  -2   0   25.50    5.70
   4  -2   0   22.70    5.50
   4  -2   0   21.90    5.30
  -4   2   0   30.90    5.20
  -4   2   0   23.80    2.30
  -4   2   0   26.20    6.00
  -4   2   0   31.30    6.00
  -4   2   0   22.50    5.30
  -4   2   0   32.60    6.10
   3  -2   0   14.90    4.00
   3  -2   0   16.40    3.40
   3  -2   0   16.50    3.80
   3  -2   0   10.30    4.00
   3  -2   0   19.30    4.20
  -3   2   0   17.50    4.90
  -3   2   0   14.90    4.60
  -3   2   0   20.30    3.90
  -3   2   0   20.90    4.40
   2  -2   0  218.58    9.90
   2  -2   0  216.18   10.40
   2  -2   0  237.38   10.40
   2  -2   0  216.18   10.30
   2  -2   0  206.98   10.40
  -2   2   0  211.88   10.50
  -2   2   0  220.88   10.70
  -2   2   0  218.78   10.60
  -2   2   0  232.38   10.30
   1  -2   0 4361.46  140.19
  -1   2   0 4436.16  140.29
  -1  -2   0  286.97   13.40
  -1  -2   0  307.57   11.80
  -1  -2   0  260.37   11.60
  -1  -2   0  315.57   12.40
   1   2   0  286.17   13.00
   1   2   0  311.07   12.10
   1   2   0  302.17   11.00
   1   2   0  293.47   11.30
   1   2   0  307.97   12.00
  -2  -2   0 4737.43  152.58
  -2  -2   0 4835.72  150.28
  -2  -2   0 4608.04  150.48
  -2  -2   0 4743.53  149.69
   2   2   0 4529.05  150.08
   2   2   0 4773.32  152.48
   2   2   0 4589.24  149.79
   2   2   0 4625.24  150.38
  -3  -2   0  161.38    7.80
  -3  -2   0  141.09   10.40
  -3  -2   0  149.09    9.00
  -3  -2   0  156.78    9.50
   3   2   0  144.09   11.20
   3   2   0  144.99   10.30
   3   2   0  153.28    8.40
   3   2   0  158.18    9.70
   3   2   0  150.48    9.50
  -4  -2   0  130.99    9.50
  -4  -2   0  116.19   11.40
  -4  -2   0  126.19    7.40
  -4  -2   0  119.59    9.60
  -4  -2   0  121.69    9.70
   4   2   0  128.89    9.20
   4   2   0  123.29    8.60
   4   2   0  103.49    9.60
   4   2   0  116.09    6.10
   4   2   0  111.99   11.20
   4   2   0  106.49   12.30
  -5  -2   0    3.90    5.30
  -5  -2   0   15.90    6.90
  -5  -2   0   17.30    5.70
  -5  -2   0   12.80    6.70
   5   2   0   17.40    6.90
   5   2   0   10.50    5.20
   5   2   0    8.90    4.30
  -6  -2   0 4390.16  158.88
  -6  -2   0 4939.11  159.78
  -6  -2   0 4547.25  152.18
  -6  -2   0 4900.01  159.58
   6   2   0 4816.02  173.98
   6   2   0 4841.42  158.68
   6   2   0 4675.63  157.98
   6   2   0 4777.12  157.38
  -7  -2   0   41.80    5.90
  -7  -2   0   62.09   12.10
  -7  -2   0   40.50    9.70
  -7  -2   0   50.09   10.40
   7   2   0   74.49   17.20
   7   2   0   58.99   10.30
   7   2   0   56.29   10.30
   7   2   0   46.40   10.20
   7   2   0   52.89   11.00
  -8  -2   0   34.80   12.30
  -8  -2   0   39.80   11.90
  -8  -2   0   36.60   13.30
   8   2   0   46.70   10.80
   8   2   0   59.09   12.00
   8   2   0   61.49   11.30
   8   2   0   25.70    9.20
   7  -3   0   36.90    9.40
   7  -3   0   12.30    8.40
   7  -3   0   23.00    7.60
   7  -3   0   50.79   10.90
   7  -3   0   24.60    9.30
  -7   3   0   34.80   10.80
  -7   3   0   40.00   10.30
   6  -3   0   22.20    8.00
   6  -3   0   12.90    7.60
   6  -3   0   16.90    5.90
   6  -3   0   21.60    8.20
  -6   3   0   16.40    6.90
  -6   3   0   22.10    8.40
  -6   3   0   13.00    8.40
   5  -3   0   -6.60    6.00
   5  -3   0    7.60    6.10
   5  -3   0    6.40    6.00
   5  -3   0    0.00    5.20
  -5   3   0   -6.80    6.10
  -5   3   0   -6.40    5.90
  -5   3   0   -3.00    5.20
  -5   3   0    2.70    5.70
   4  -3   0   -2.00    3.80
   4  -3   0    3.10    3.70
   4  -3   0   -1.80    4.30
   4  -3   0    1.30    4.70
   4  -3   0   -4.90    3.70
  -4   3   0    0.20    2.30
  -4   3   0   -7.10    4.30
  -4   3   0    4.30    4.60
  -4   3   0    3.10    4.50
   3  -3   0  264.87   13.80
   3  -3   0  273.27   14.20
   3  -3   0  297.67   13.60
   3  -3   0  274.37   13.30
   3  -3   0  280.67   14.00
  -3   3   0  280.77   13.40
  -3   3   0  276.57   13.90
  -3   3   0  264.77   14.20
  -3   3   0  254.47   13.80
   2  -3   0  143.19    9.10
   2  -3   0  141.79    8.40
   2  -3   0  155.78    8.70
   2  -3   0  153.48    8.90
   2  -3   0  150.18    8.70
  -2   3   0  135.39    8.30
  -2   3   0  152.18    9.10
  -2   3   0  157.48    8.90
  -2   3   0  146.09    8.80
   1  -3   0   44.70    1.90
   1  -3   0   41.50    4.40
   1  -3   0   44.30    4.80
  -1   3   0   43.60    3.60
  -1   3   0   42.00    4.40
  -1   3   0   46.30    4.80
  -1   3   0   45.10    4.10
   0  -3   0  603.44   21.90
   0  -3   0  633.64   21.80
   0  -3   0  617.74   23.00
   0   3   0  583.54   21.70
   0   3   0  597.04   21.70
   0   3   0  662.93   21.40
  -2  -3   0 1240.48   42.30
  -2  -3   0 1248.68   42.10
  -2  -3   0 1257.77   43.10
  -2  -3   0 1271.17   43.70
  -2  -3   0 1225.68   45.60
   2   3   0 1291.17   45.40
   2   3   0 1284.67   43.40
   2   3   0 1236.08   41.90
   2   3   0 1233.18   42.60
   2   3   0 1283.17   43.70
  -3  -3   0 1436.06   48.40
  -3  -3   0 1445.56   49.10
  -3  -3   0 1415.26   52.79
  -3  -3   0 1403.66   46.90
  -3  -3   0 1395.26   49.80
   3   3   0 1366.86   51.99
   3   3   0 1400.36   47.60
   3   3   0 1384.76   49.10
   3   3   0 1411.46   48.70
   3   3   0 1396.16   49.70
  -4  -3   0  192.18   13.50
  -4  -3   0  178.68   11.60
  -4  -3   0  178.28   11.10
  -4  -3   0  196.88   12.40
  -4  -3   0  182.78    9.40
   4   3   0  187.88   13.20
   4   3   0  182.98   12.10
   4   3   0  183.58    8.50
   4   3   0  180.88   10.30
   4   3   0  180.48   11.80
   4   3   0  166.58   14.80
  -5  -3   0   -2.40    4.50
  -5  -3   0  -10.00    5.90
  -5  -3   0   -3.50    2.90
  -5  -3   0   -3.60    4.40
  -5  -3   0   -3.50    4.90
   5   3   0   -0.40    5.70
   5   3   0   -4.30    5.20
   5   3   0    3.20    3.90
   5   3   0   -3.30    2.10
   5   3   0   -8.20    4.10
  -6  -3   0  113.79   16.40
   6   3   0   84.59   13.90
  -7  -3   0   43.10   11.80
  -7  -3   0   36.00    9.40
  -7  -3   0   33.00    8.70
  -7  -3   0   24.90    4.80
  -7  -3   0   29.10   11.00
   7   3   0   58.79   16.30
   7   3   0   46.40    9.50
   7   3   0   46.60   11.70
   7   3   0   23.90    8.30
  -8  -3   0   16.10   11.50
  -8  -3   0    6.30   12.10
  -8  -3   0    0.00    7.60
   8   3   0    8.40    8.90
   8   3   0    6.90    9.90
   8   3   0    5.20    9.90
   8   3   0   -4.30    9.00
   6  -4   0   50.99    9.60
   6  -4   0   52.69    9.90
   6  -4   0   51.69    9.60
   6  -4   0   34.80    7.80
  -6   4   0   67.89   11.00
  -6   4   0   58.79   10.40
  -6   4   0   53.19   10.30
   5  -4   0  206.48   15.50
   5  -4   0  177.48   13.70
   5  -4   0  196.98   14.40
   5  -4   0  195.48   15.20
   5  -4   0  198.38   15.10
  -5   4   0  192.18    9.50
  -5   4   0  195.68   16.00
  -5   4   0  188.18   14.40
  -5   4   0  178.88   15.10
   4  -4   0 1031.10   38.50
   4  -4   0  991.30   39.40
   4  -4   0  983.90   39.40
   4  -4   0 1067.69   39.10
   4  -4   0 1013.00   38.50
  -4   4   0 1001.60   39.40
  -4   4   0  986.10   35.00
  -4   4   0  983.30   39.60
  -4   4   0 1041.90   39.00
  -4   4   0 1053.19   38.90
   3  -4   0    3.60    4.20
   3  -4   0    8.20    3.60
   3  -4   0    6.10    4.10
   3  -4   0    3.70    3.80
   3  -4   0    8.60    3.90
  -3   4   0    5.90    4.00
  -3   4   0    7.80    4.30
  -3   4   0    6.50    3.90
  -3   4   0    1.60    4.00
   2  -4   0   37.60    6.10
   2  -4   0   21.60    4.30
   2  -4   0   23.40    4.50
   2  -4   0   24.00    4.20
  -2   4   0   26.10    4.50
  -2   4   0   31.10    4.90
  -2   4   0   32.20    5.40
  -2   4   0   25.50    4.40
   1  -4   0  530.65   20.50
   1  -4   0  532.75   20.60
  -1   4   0  552.64   20.60
  -1   4   0  534.25   19.50
  -1   4   0  560.84   20.30
  -1   4   0  518.15   20.40
   0  -4   0 1745.63   57.99
   0  -4   0 1684.93   56.39
   0  -4   0 1687.63   56.09
   0   4   0 1703.23   56.29
   0   4   0 1648.14   56.19
   0   4   0 1676.13   56.09
  -1  -4   0  297.97   13.40
  -1  -4   0  303.77   12.70
  -1  -4   0  280.17   14.90
   1   4   0  294.97   13.30
   1   4   0  289.67   14.00
   1   4   0  300.37   12.90
  -2  -4   0  238.78   13.00
  -2  -4   0  257.47   12.10
  -2  -4   0  249.48   11.10
  -2  -4   0  241.38   14.90
   2   4   0  249.18   11.40
   2   4   0  240.28   14.00
   2   4   0  252.67   12.30
   2   4   0  242.88   12.80
  -3  -4   0    0.60    6.80
  -3  -4   0    2.90    3.10
  -3  -4   0    6.10    4.70
  -3  -4   0    6.30    3.60
  -3  -4   0   10.10    3.70
   3   4   0    2.20    4.90
   3   4   0    5.40    2.50
   3   4   0    4.10    3.70
   3   4   0    4.30    3.90
   3   4   0    6.90    4.50
  -4  -4   0    0.00    7.70
  -4  -4   0   11.30    4.20
  -4  -4   0    6.70    6.10
  -4  -4   0    9.50    3.20
  -4  -4   0    6.90    5.70
   4   4   0    2.40    3.60
   4   4   0   10.10    5.20
   4   4   0    9.70    5.10
   4   4   0    4.40    6.40
   4   4   0   10.70    3.60
  -5  -4   0   34.40    9.00
  -5  -4   0   33.70    7.10
  -5  -4   0   49.20    8.40
  -5  -4   0   53.79    6.70
   5   4   0   36.10    8.60
   5   4   0   46.20   17.50
   5   4   0   35.10    7.50
   5   4   0   45.40    7.40
   5   4   0   36.80    7.30
   5   4   0   44.20    5.70
  -6  -4   0  321.07   15.10
  -6  -4   0  316.37   23.10
  -6  -4   0  320.37   22.50
   6   4   0  337.37   20.80
   6   4   0  298.77   13.60
   6   4   0  361.26   23.00
   6   4   0  298.57   25.20
   6   4   0  330.77   18.60
  -7  -4   0  119.09   20.10
  -7  -4   0   83.79    8.90
  -7  -4   0  100.49   18.30
   7   4   0  121.99   16.40
   7   4   0  113.29   18.60
   7   4   0  112.19   15.10
   7   4   0  122.09   13.40
   7   4   0  133.89   21.30
   6  -5   0   40.20    8.80
   6  -5   0   23.70   10.60
   6  -5   0   24.60    8.50
   6  -5   0   17.50    7.10
   6  -5   0   22.00    9.60
  -6   5   0   17.40    9.80
  -6   5   0   28.10    8.80
  -6   5   0   31.60    9.70
  -6   5   0   27.30    4.20
  -6   5   0   26.90    9.10
   5  -5   0    0.80    5.50
   5  -5   0   -0.50    6.20
   5  -5   0   -6.20    5.20
   5  -5   0   -9.20    6.10
  -5   5   0    2.40    6.40
  -5   5   0   -1.20    3.80
  -5   5   0   -1.20    4.10
  -5   5   0   -1.80    6.70
   4  -5   0    0.50    5.60
   4  -5   0    5.40    4.70
   4  -5   0    8.60    5.70
  -4   5   0    2.80    5.50
  -4   5   0   -6.00    5.00
  -4   5   0    0.90    5.30
   3  -5   0   18.40    4.90
   3  -5   0   25.80    5.70
   3  -5   0   23.90    5.60
   3  -5   0   17.00    5.30
  -3   5   0   25.50    5.30
  -3   5   0   22.90    5.60
   1  -5   0  525.05   20.70
   1  -5   0  498.55   20.30
  -1   5   0  511.25   19.00
  -1   5   0  509.65   19.80
  -1   5   0  511.45   20.60
  -1   5   0  496.95   20.20
   0  -5   0   43.70    6.70
   0  -5   0   48.30    5.90
   0  -5   0   46.30    8.20
   0   5   0   47.70    4.90
   0   5   0   54.69    6.50
   0   5   0   50.59    6.10
  -1  -5   0   21.00    6.60
  -1  -5   0   21.90    4.00
  -1  -5   0   21.30    4.60
   1   5   0   22.00    4.50
   1   5   0   21.80    5.50
   1   5   0   21.30    4.00
  -2  -5   0 1106.89   37.90
  -2  -5   0 1099.29   40.10
  -2  -5   0 1076.59   38.90
  -2  -5   0 1072.19   42.40
   2   5   0 1154.28   39.50
   2   5   0 1096.09   44.10
   2   5   0 1055.79   39.70
   2   5   0 1089.09   38.00
  -3  -5   0  836.32   31.20
  -3  -5   0  821.62   36.80
  -3  -5   0  882.91   34.20
  -3  -5   0  868.41   32.70
   3   5   0  868.41   32.10
   3   5   0  903.31   36.10
   3   5   0  833.12   33.70
   3   5   0  866.91   30.70
   3   5   0  886.21   33.20
  -4  -5   0  351.96   17.60
  -4  -5   0  338.67   19.40
  -4  -5   0  350.26   16.40
  -4  -5   0  312.07   22.00
   4   5   0  336.17   17.40
   4   5   0  330.17   15.20
   4   5   0  365.16   19.70
   4   5   0  348.57   21.00
   4   5   0  337.27   17.80
  -5  -5   0    5.20    5.50
  -5  -5   0    2.90    3.90
  -5  -5   0   -5.40    7.20
  -5  -5   0    6.70    4.90
   5   5   0    9.40    4.00
   5   5   0   -1.40    5.10
   5   5   0    7.80    6.60
   5   5   0   13.40    8.40
   5   5   0    0.10    3.60
   5   5   0    5.00    7.10
  -6  -5   0   13.60    6.20
  -6  -5   0   -5.00    6.20
  -6  -5   0   -9.20    8.90
  -6  -5   0    2.40    4.40
   6   5   0   11.50    8.70
   6   5   0   21.10   11.60
   6   5   0    8.80    4.10
   6   5   0    0.50    4.50
   6   5   0    3.40    7.70
   6   5   0    5.40    7.00
  -7  -5   0  753.32   46.80
  -7  -5   0  718.73   28.20
  -7  -5   0  718.43   34.20
  -7  -5   0  784.62   38.80
  -7  -5   0  812.72   38.60
   7   5   0  774.62   38.40
   7   5   0  807.62   36.00
   7   5   0  755.92   32.60
   7   5   0  765.82   34.90
   7   5   0  699.43   41.60
   7   5   0  705.93   27.30
   6  -6   0   -6.80    7.50
   6  -6   0    8.90    9.90
   6  -6   0    3.30    8.30
   6  -6   0   24.30    9.60
  -6   6   0   19.80    8.80
  -6   6   0    8.40    5.20
  -6   6   0  -10.90    8.90
  -6   6   0   -0.40   11.80
   5  -6   0   34.00    8.20
   5  -6   0   18.50    8.20
   5  -6   0   31.70    9.00
   5  -6   0   35.70    7.80
  -5   6   0   39.30    6.30
  -5   6   0   29.70    8.80
  -5   6   0   26.10    7.20
  -5   6   0   39.10    8.20
   4  -6   0  198.28   15.40
   4  -6   0  175.48   15.00
   4  -6   0  191.48   14.60
   4  -6   0  199.78   15.20
   4  -6   0  180.68    8.90
  -4   6   0  209.38   14.20
  -4   6   0  190.48   14.20
  -4   6   0  179.78   14.70
  -4   6   0  205.78   15.40
   3  -6   0  173.28   13.30
   3  -6   0  232.98   14.80
   3  -6   0  162.48   13.00
   3  -6   0  189.28   13.40
  -3   6   0  205.88   12.30
  -3   6   0  186.68   13.00
  -3   6   0  216.88   14.50
  -3   6   0  189.38   13.60
   2  -6   0   98.09    9.90
   2  -6   0   85.19    8.50
  -2   6   0   87.19    7.90
  -2   6   0   93.19    9.70
   1  -6   0    0.40    5.80
   1  -6   0    0.60    4.00
   1  -6   0   -3.70    3.00
  -1   6   0    1.20    2.40
  -1   6   0   -7.10    3.50
  -1   6   0   -2.30    2.70
  -1   6   0   -0.50    3.10
   0  -6   0  378.26   16.70
   0  -6   0  401.26   17.90
   0  -6   0  368.46   19.30
   0   6   0  373.46   16.70
   0   6   0  368.46   13.00
   0   6   0  372.26   15.80
   0   6   0  395.26   17.80
  -1  -6   0 1020.50   42.70
  -1  -6   0 1115.69   39.80
  -1  -6   0 1101.59   40.80
   1   6   0 1156.98   41.90
   1   6   0 1142.29   40.70
   1   6   0 1160.58   40.20
  -2  -6   0 3726.53  128.19
  -2  -6   0 3663.03  121.99
  -2  -6   0 3625.14  119.59
  -2  -6   0 3628.14  124.89
   2   6   0 3824.82  123.49
   2   6   0 3603.44  121.69
   2   6   0 3562.34  119.39
   2   6   0 3835.12  121.39
  -3  -6   0  288.97   15.10
  -3  -6   0  283.67   19.80
  -3  -6   0  272.47   13.80
  -3  -6   0  302.47   17.40
   3   6   0  289.47   17.00
   3   6   0  279.47   14.50
   3   6   0  271.67   17.50
   3   6   0  300.57   15.80
  -4  -6   0  201.88   16.10
  -4  -6   0  152.98   19.20
  -4  -6   0  187.48   11.80
  -4  -6   0  195.68   18.80
   4   6   0  207.88   14.10
   4   6   0  208.98   16.20
   4   6   0  204.68   11.10
   4   6   0  197.48   13.50
   4   6   0  196.78   16.60
  -5  -6   0   -4.60    8.00
  -5  -6   0   -3.60    5.70
  -5  -6   0    6.00    5.00
  -5  -6   0    7.40   11.10
  -5  -6   0    4.10    4.40
   5   6   0   13.80    9.30
   5   6   0    7.40    6.70
   5   6   0    3.60    4.00
   5   6   0    8.40    6.30
   5   6   0    7.80    8.00
  -6  -6   0   12.90    9.80
  -6  -6   0   26.30    7.40
  -6  -6   0   23.00    8.40
  -6  -6   0   20.00    5.70
   6   6   0   25.10   12.30
   6   6   0   21.80    9.80
   6   6   0   28.40    8.80
   6   6   0   19.80    5.70
   6   6   0   15.70    7.80
   6   6   0   13.20    5.80
  -7  -6   0    7.60    8.00
  -7  -6   0    3.70    7.70
  -7  -6   0   23.50   11.60
  -7  -6   0    8.90    5.40
  -7  -6   0   10.20   10.20
   7   6   0   23.50   10.90
   7   6   0   13.50    5.50
   7   6   0    6.40    7.70
   7   6   0    7.70    8.70
   7   6   0   23.80   14.30
   7   6   0    9.00    7.10
   5  -7   0    6.40    8.40
   5  -7   0    2.70    7.70
   5  -7   0    1.50    7.10
   5  -7   0    1.10    2.30
  -5   7   0    4.60    8.20
  -5   7   0    1.20    5.70
  -5   7   0   -7.80    7.70
  -5   7   0    0.10    6.00
   4  -7   0  224.68   21.80
   4  -7   0  210.88   17.00
   4  -7   0  238.98   16.90
  -4   7   0  230.78   15.20
  -4   7   0  246.28   18.90
  -4   7   0  223.18   14.30
  -4   7   0  223.98   15.70
  -4   7   0  231.78   17.50
   3  -7   0  231.88   15.50
   3  -7   0  221.38   16.30
   3  -7   0  231.98   14.90
   3  -7   0  232.58   16.40
  -3   7   0  191.68   14.30
  -3   7   0  248.08   13.80
  -3   7   0  243.38   16.30
   2  -7   0  145.79   12.90
   2  -7   0  139.59   11.30
   2  -7   0  131.19   12.00
  -2   7   0  123.69    9.60
  -2   7   0  137.19   12.10
  -2   7   0  123.59   10.00
  -2   7   0  141.19   11.20
   1  -7   0  337.27   19.80
   1  -7   0  326.67   16.90
   1  -7   0  318.17   16.10
   1  -7   0  333.57   17.70
  -1   7   0  319.17   15.20
  -1   7   0  334.97   17.30
  -1   7   0  318.37   14.20
  -1   7   0  317.77   18.00
   0  -7   0   39.40    6.60
   0  -7   0   37.20    8.80
   0  -7   0   33.20    5.40
   0   7   0   46.20    5.90
   0   7   0   33.50    5.70
   0   7   0   59.39    9.30
   0   7   0   49.70    2.60
  -1  -7   0   82.89   11.80
  -1  -7   0   81.79   10.40
  -1  -7   0   88.69    8.50
  -2  -7   0    0.30    4.10
  -2  -7   0    0.70    7.50
  -2  -7   0    9.30    5.70
  -2  -7   0    3.10    3.90
   2   7   0   11.90    5.70
   2   7   0    5.90    4.00
   2   7   0   -1.50    4.90
   2   7   0    7.80    4.00
  -3  -7   0  203.88   13.40
  -3  -7   0  205.78   18.40
  -3  -7   0  242.28   16.30
  -3  -7   0  186.88   12.20
   3   7   0  216.58   15.90
   3   7   0  220.08   16.10
   3   7   0  197.98   13.80
   3   7   0  194.88   12.40
  -4  -7   0   32.50    6.90
  -4  -7   0   45.20    9.40
  -4  -7   0   40.20   12.60
  -4  -7   0   30.20    5.90
   4   7   0   40.50   19.60
   4   7   0   25.10    6.90
   4   7   0   32.00    8.40
   4   7   0   30.10    7.20
  -5  -7   0   12.20    9.00
  -5  -7   0   25.00   13.90
  -5  -7   0   14.00    7.00
   5   7   0   23.20    7.50
   5   7   0   13.80    8.70
   5   7   0   23.30   10.30
   5   7   0   18.60    7.40
  -6  -7   0   14.80    7.80
  -6  -7   0   20.00   10.70
  -6  -7   0   19.20    6.60
   6   7   0   13.10    6.60
   6   7   0   27.60   11.80
   6   7   0   17.70    5.80
   6   7   0    4.60    8.00
   6   7   0   29.10    9.60
  -7  -7   0   75.19   14.90
  -7  -7   0   43.60   12.50
  -7  -7   0   46.50    7.30
  -7  -7   0   22.90   10.50
   7   7   0   70.39   14.10
   7   7   0   66.09   10.70
   7   7   0   51.69    8.60
   7   7   0   71.29   12.80
   7   7   0   35.40   10.30
   7   7   0   54.09   16.30
   4  -8   0   82.39   14.10
   4  -8   0   98.99   15.20
   4  -8   0   60.19   11.10
  -4   8   0   78.29    9.80
  -4   8   0   76.09   12.20
  -4   8   0   70.79   11.60
  -4   8   0  107.29   14.30
  -4   8   0   64.49    9.30
   3  -8   0    0.70    7.10
   3  -8   0   11.70    6.40
   3  -8   0   -9.20    7.10
   3  -8   0   -2.30    7.70
  -3   8   0    7.90    7.20
  -3   8   0   -6.10    4.80
   2  -8   0    7.40   10.00
   2  -8   0   -7.60    5.70
   2  -8   0   -1.40    6.30
   2  -8   0   12.30    5.30
  -2   8   0   -1.10    4.70
  -2   8   0    6.30    4.30
  -2   8   0    0.80    6.10
   1  -8   0   77.99   13.60
   1  -8   0   59.99    9.20
   1  -8   0   64.49   10.30
   1  -8   0   66.89   11.40
  -1   8   0   48.40    8.20
  -1   8   0   62.79    7.70
  -1   8   0   52.89    7.50
  -1   8   0   57.59    6.50
   0  -8   0   29.40    7.20
   0  -8   0   45.60   10.80
   0  -8   0   36.90    6.10
   0   8   0   37.90    2.50
   0   8   0   38.80    6.60
   0   8   0   31.30    6.20
   0   8   0   48.60    7.90
  -1  -8   0  279.17   17.50
  -1  -8   0  279.57   15.20
  -1  -8   0  238.88   18.90
   1   8   0  286.47   15.70
   1   8   0  278.57   17.20
  -2  -8   0   85.19   11.50
  -2  -8   0   53.09   12.60
  -2  -8   0   81.79   10.00
   2   8   0   61.69    8.50
   2   8   0   66.99   11.00
   2   8   0   95.49   12.80
   2   8   0   81.89   10.20
  -3  -8   0  148.49   15.50
  -3  -8   0  172.18   12.00
  -3  -8   0  146.69   12.40
  -3  -8   0  160.28   18.10
   3   8   0  171.38   13.80
   3   8   0  139.29   12.30
   3   8   0  150.58   15.80
  -4  -8   0    0.30    7.30
  -4  -8   0    7.20    5.70
  -4  -8   0    7.90    5.80
  -4  -8   0    4.40   11.10
   4   8   0   -2.00    7.60
   4   8   0    7.20    6.30
   4   8   0    6.90    7.40
   4   8   0   13.60    6.80
  -5  -8   0   -2.80    9.00
  -5  -8   0    6.70   13.30
  -5  -8   0    7.50    6.90
   5   8   0  -10.40    8.00
   5   8   0   -5.90    9.90
   5   8   0    9.20    7.50
   5   8   0   -6.80    6.90
  -6  -8   0   23.90    7.30
  -6  -8   0   25.60   10.00
  -6  -8   0   26.70   11.60
  -6  -8   0   35.40   17.30
   6   8   0   16.00    9.50
   6   8   0   14.20   12.50
   6   8   0   26.70    9.60
   6   8   0   20.90   10.70
   6   8   0   27.40    8.00
  -7  -8   0   29.10   12.40
  -7  -8   0   33.90   16.40
  -7  -8   0   19.20    7.50
   7   8   0   22.30    8.20
   7   8   0   26.80   14.90
   7   8   0   14.30   10.40
   7   8   0   31.10   12.20
   7   8   0   10.10    7.60
   7   8   0   33.90   10.80
   4  -9   0   15.00    9.60
   4  -9   0   11.70    8.80
   4  -9   0   -2.10    7.30
   4  -9   0    6.70    8.70
  -4   9   0   20.60    7.60
  -4   9   0   24.40    8.90
  -4   9   0    9.00    8.00
  -4   9   0   20.00    9.60
   3  -9   0  185.38   16.50
   3  -9   0  235.58   18.50
   3  -9   0  256.17   18.90
  -3   9   0  202.78   14.70
  -3   9   0  237.08   17.50
  -3   9   0  231.88   15.20
  -3   9   0  237.08   20.00
   2  -9   0    6.70    5.80
   2  -9   0   -8.20    6.40
   2  -9   0   -3.20    7.90
   2  -9   0    0.30   10.80
  -2   9   0   -1.60    4.70
  -2   9   0   -4.80    7.40
  -2   9   0    5.20    4.50
   1  -9   0   -4.40    5.10
   1  -9   0   -6.80    6.40
   1  -9   0    4.40    9.40
  -1   9   0   -1.50    4.10
  -1   9   0   -5.50    3.30
  -1   9   0    8.20    7.00
   0  -9   0   21.10    7.40
   0  -9   0   23.40    7.30
   0  -9   0   26.50   10.80
   0   9   0   16.60    7.50
   0   9   0   16.60    5.30
  -1  -9   0   -2.90    9.20
  -1  -9   0    0.50    5.10
  -1  -9   0    2.60    7.10
   1   9   0    2.70    5.40
   1   9   0    8.00    7.10
  -2  -9   0  147.09   12.30
  -2  -9   0  152.08   13.30
  -2  -9   0  139.39   18.80
  -2  -9   0  154.18   16.50
   2   9   0  151.58   15.90
   2   9   0  135.39   11.10
   2   9   0  140.89   14.30
   2   9   0  147.69   13.40
  -3  -9   0  445.06   20.60
  -3  -9   0  430.66   29.10
  -3  -9   0  491.55   25.60
  -3  -9   0  407.46   21.50
   3   9   0  379.56   23.80
   3   9   0  368.36   21.60
   3   9   0  432.06   20.70
  -4  -9   0  270.57   18.00
  -4  -9   0  243.08   24.20
  -4  -9   0  281.17   22.00
  -4  -9   0  270.17   15.90
   4   9   0  256.37   18.80
   4   9   0  288.77   22.40
   4   9   0  269.87   20.50
   4   9   0  241.78   16.40
  -5  -9   0    3.20    9.90
  -5  -9   0   -5.80   12.70
   5   9   0   -6.80   15.30
   5   9   0   -3.60    6.90
   5   9   0   -5.70    9.20
   5   9   0  -13.10    7.00
  -6  -9   0   -6.00    8.10
  -6  -9   0   11.00    7.70
  -6  -9   0   -2.10   16.10
   6   9   0   11.50   13.90
   6   9   0   12.50    9.40
   6   9   0   17.10   10.30
   6   9   0    5.50    7.90
   6   9   0   30.00   10.30
   3 -10   0   43.00   10.60
   3 -10   0   33.40    9.70
   3 -10   0   49.40   10.20
   3 -10   0   50.19   17.10
  -3  10   0   38.50   11.10
  -3  10   0   41.30    7.90
  -3  10   0   41.20    8.10
   2 -10   0    9.50   13.20
   2 -10   0   24.70    7.10
   2 -10   0    3.70    8.20
   2 -10   0    6.10    8.10
  -2  10   0   19.20    5.80
  -2  10   0   19.90    7.10
  -2  10   0    8.40    6.40
  -2  10   0   14.50    9.00
   1 -10   0  132.59   13.70
   1 -10   0  115.49   18.10
   1 -10   0  101.79   15.90
  -1  10   0  127.99    9.70
  -1  10   0  106.09   10.50
  -1  10   0  104.19   16.60
   0 -10   0   77.79   15.60
   0 -10   0   59.99   10.80
   0 -10   0   76.79   11.00
   0  10   0   51.19    8.50
   0  10   0   63.89    7.30
   0  10   0   62.79   10.90
  -1 -10   0   -7.20    5.50
  -1 -10   0    2.50   10.50
  -1 -10   0    7.20    8.20
   1  10   0    7.50    2.10
   1  10   0   21.60    9.00
   1  10   0   -1.80    6.20
  -2 -10   0   17.10    6.90
  -2 -10   0   18.30    7.20
  -2 -10   0   21.80    9.50
  -2 -10   0   22.80   12.70
   2  10   0   23.00    6.70
   2  10   0   29.40    9.70
   2  10   0   23.70    8.30
  -3 -10   0   81.99   11.80
  -3 -10   0  100.79   17.10
  -3 -10   0   57.59    9.40
  -3 -10   0   69.39   16.10
   3  10   0   63.99   12.30
   3  10   0   40.00    9.50
   3  10   0  102.09   17.10
   3  10   0   58.79    9.00
  -4 -10   0   12.70    6.90
  -4 -10   0   22.10   11.00
  -4 -10   0   18.20   14.20
  -4 -10   0   10.20    7.80
   4  10   0    5.70    7.30
   4  10   0    0.50    7.90
   4  10   0    8.90   10.70
   4  10   0   -0.80    9.50
  -5 -10   0   53.79   10.40
  -5 -10   0   86.79   20.50
  -5 -10   0   61.29    9.10
  -5 -10   0   53.79   14.00
   5  10   0   49.20   12.70
   5  10   0   51.29   11.10
   5  10   0   61.39   11.80
   5  10   0   72.69   15.10
   1 -11   0   12.30    9.20
   1 -11   0   28.80   14.40
   1 -11   0   26.70    9.90
   1 -11   0   22.20    8.00
  -1  11   0   14.00    5.70
  -1  11   0   25.90    6.00
  -1  11   0   -0.50    9.30
  -1  11   0   21.40    8.50
   0 -11   0   44.90    8.80
   0 -11   0   38.90    9.80
   0 -11   0   36.80   15.30
   0 -11   0   44.90   11.10
   0  11   0   39.10    8.80
   0  11   0   60.79   12.10
   0  11   0   60.69    7.90
  -1 -11   0   -3.10   11.90
  -1 -11   0   -7.00    6.40
  -1 -11   0    5.40    9.50
   1  11   0   -7.70    6.90
   1  11   0    1.60    1.70
   1  11   0    1.30    9.50
  -2 -11   0   40.80    9.30
  -2 -11   0   41.30    8.90
  -2 -11   0   26.50   13.90
  -2 -11   0   25.60   10.60
   2  11   0   39.30    7.60
   2  11   0   38.50   11.20
   2  11   0   25.60   11.30
  -3 -11   0   57.29   12.60
  -3 -11   0   38.80   10.00
  -3 -11   0   52.29    9.20
  -3 -11   0   65.29   17.30
   3  11   0   61.39   13.60
   3  11   0   54.69   14.60
   3  11   0   40.20   10.00
   3  11   0   39.80    8.80
  -4 -11   0   15.90    9.00
  -4 -11   0   15.00   18.10
  -4 -11   0   19.50    7.80
  -4 -11   0   29.50   11.20
   4  11   0   -7.50    8.60
   4  11   0    7.90   11.90
   4  11   0    2.10   10.70
   4  11   0   29.30    9.10
  -5 -11   0   23.80   18.70
  -5 -11   0   -2.30   11.20
  -5 -11   0    4.90    7.30
   5  11   0   -5.50   11.00
   5  11   0   -4.30   10.20
   5  11   0  -12.90   12.60
   5  11   0   -5.10    9.20
   0 -12   0    4.80    8.50
   0 -12   0    7.80    9.60
   0 -12   0   -8.10   11.90
   0  12   0    6.50    5.30
   0  12   0   -2.50   11.90
  -1 -12   0   -5.50    7.60
  -1 -12   0  -11.90    9.20
  -1 -12   0  -13.20   13.00
  -1 -12   0  -14.50   10.10
   1  12   0   -8.20    6.50
  -2 -12   0   -8.10    7.60
  -2 -12   0    1.60   13.80
  -2 -12   0   -8.70    9.40
   2  12   0  -14.90   10.50
   2  12   0   -7.10    6.40
  -3 -12   0   -3.20    9.90
  -3 -12   0   13.50    8.30
  -3 -12   0   35.10   16.10
   3  12   0    4.80    7.70
   3  12   0    6.70   10.10
   2  12  -1    6.60    8.10
   2  12  -1   19.70   11.30
   2  12  -1   14.70    4.40
  -2 -12   1   -8.80    8.20
  -2 -12   1   -3.70    9.00
  -2 -12   1   27.50   23.30
  -2 -12   1    1.40   10.50
  -2 -12   1  -19.20    9.50
   1  12  -1    2.40    1.80
   1  12  -1   -0.30   11.40
  -1 -12   1  -18.80    9.30
  -1 -12   1    8.10   14.60
   4  11  -1  -12.40   10.00
   4  11  -1  -12.30    8.60
   4  11  -1   -3.40   10.70
  -4 -11   1  -13.20    9.80
  -4 -11   1   11.30    7.90
  -4 -11   1   10.70   17.30
   3  11  -1  312.77   25.80
   3  11  -1  262.37   18.70
   3  11  -1  276.17   21.00
  -3 -11   1  317.77   25.60
  -3 -11   1  302.07   29.10
  -3 -11   1  242.28   20.00
  -3 -11   1  282.37   19.70
   2  11  -1    0.80    8.30
   2  11  -1   -5.40    7.40
   2  11  -1    8.70   18.90
  -2 -11   1   -0.60    8.40
  -2 -11   1   -5.90    7.30
  -2 -11   1   19.50   13.50
  -2 -11   1   12.90    9.70
  -2 -11   1   14.50    8.10
   1  11  -1   -1.40    2.30
   1  11  -1   -1.90    9.30
  -1 -11   1  -11.50    6.90
  -1 -11   1  -14.80    7.90
  -1 -11   1   -3.10    9.10
  -1 -11   1  -15.50   10.40
   0  11  -1   63.29   10.20
   0  11  -1   85.59   13.70
   0 -11   1   67.79   12.50
   0 -11   1   63.89   11.40
   0 -11   1   78.79   11.20
   0 -11   1   88.19   18.30
  -1  11  -1   32.50    7.20
  -1  11  -1   27.10   11.70
  -1  11  -1   26.40    6.80
   1 -11   1   59.09   11.80
   1 -11   1   40.20    9.20
   1 -11   1   37.50   15.50
   1 -11   1   28.60   14.70
   5  10  -1  -12.20    8.80
   5  10  -1    3.70   10.90
   5  10  -1   -1.90   10.50
   5  10  -1   20.00    9.70
  -5 -10   1  -12.50    8.40
  -5 -10   1    4.60   11.20
  -5 -10   1   10.90   16.20
  -5 -10   1   13.50    8.00
   4  10  -1   -2.40    7.40
   4  10  -1   22.30   10.30
   4  10  -1    3.60    8.10
   4  10  -1   22.90   10.40
  -4 -10   1    9.10   13.20
  -4 -10   1    8.20   10.70
  -4 -10   1   -3.50    7.60
  -4 -10   1    6.20    7.30
   3  10  -1  148.89   19.90
   3  10  -1  146.59   15.60
   3  10  -1  131.19   14.30
   3  10  -1   90.09   14.60
  -3 -10   1  127.09   21.30
  -3 -10   1  150.08   19.90
  -3 -10   1  146.49   14.70
   2  10  -1   24.50    9.00
   2  10  -1   12.40    7.50
   2  10  -1    7.20    6.60
  -2 -10   1   11.00    6.90
  -2 -10   1   16.40    7.30
  -2 -10   1    8.80    8.90
  -2 -10   1   11.30   11.50
   1  10  -1   81.69   12.10
   1  10  -1   73.39    5.70
   1  10  -1   71.99   10.50
  -1 -10   1   80.79   15.70
  -1 -10   1   63.99    9.60
  -1 -10   1   75.89   12.00
   0  10  -1   -3.40    7.60
   0  10  -1   -7.60    6.00
   0 -10   1    2.40   10.70
   0 -10   1  -14.80    7.80
  -1  10  -1  121.89   10.50
  -1  10  -1  134.09   14.80
  -1  10  -1  120.39   16.60
  -1  10  -1  154.38   11.40
   1 -10   1  108.39   14.20
   1 -10   1  104.79   16.40
   1 -10   1  119.09   18.00
  -2  10  -1    5.00    7.90
  -2  10  -1    4.60    6.40
  -2  10  -1   -5.70    8.90
  -2  10  -1    9.40    5.30
   2 -10   1   -0.20    8.00
   2 -10   1    4.00    7.20
   2 -10   1   -4.20    8.50
  -3  10  -1   -1.30    9.60
  -3  10  -1    0.60    5.00
  -3  10  -1   14.30    8.10
   3 -10   1   -0.50    8.70
   3 -10   1   19.60    9.50
   3 -10   1    2.80   13.80
   3 -10   1   -3.60    8.00
   6   9  -1    5.80   13.20
   6   9  -1   22.50   10.40
   6   9  -1    3.20   10.20
  -6  -9   1    1.30    7.00
   5   9  -1    5.90    8.20
   5   9  -1   -4.50    9.50
   5   9  -1  -14.40    7.30
  -5  -9   1  -13.20    7.70
  -5  -9   1   -9.50    9.70
  -5  -9   1    2.40    7.00
  -5  -9   1   -5.00   13.70
   4   9  -1   66.09   12.20
   4   9  -1   65.29   10.50
   4   9  -1   49.30    9.70
   4   9  -1   86.59   14.00
  -4  -9   1   77.79   12.30
  -4  -9   1   78.49   12.90
  -4  -9   1   60.49   12.90
  -4  -9   1   76.79   16.60
   3   9  -1   49.50    8.90
   3   9  -1   55.39   11.10
   3   9  -1   54.19   10.80
   3   9  -1   62.09    9.20
  -3  -9   1   48.70    8.30
  -3  -9   1   66.29   14.70
  -3  -9   1   44.10    8.40
  -3  -9   1   50.09   10.50
   2   9  -1   22.50    8.10
   2   9  -1    8.60    6.00
   2   9  -1   23.00    6.80
  -2  -9   1   21.10   10.90
  -2  -9   1   22.90    8.60
  -2  -9   1   22.20    6.40
  -2  -9   1    8.80    6.60
   1   9  -1   60.89   10.10
   1   9  -1   58.79   15.10
  -1  -9   1   71.29   10.80
  -1  -9   1   70.69   13.80
  -1  -9   1   57.59    8.50
   0   9  -1    5.90    4.40
   0   9  -1   -2.10    6.90
   0   9  -1    4.20    6.00
   0  -9   1    3.40    8.90
   0  -9   1    1.10    7.10
   0  -9   1   -2.30    5.10
   0  -9   1    1.40    6.10
  -1   9  -1   16.50    4.70
  -1   9  -1   26.50    8.40
  -1   9  -1   16.10    5.10
   1  -9   1   14.70    7.80
   1  -9   1   16.10    6.80
   1  -9   1   40.90   11.90
  -2   9  -1    7.80    5.20
  -2   9  -1   13.00    8.20
   2  -9   1   25.80    7.30
   2  -9   1   20.00   11.80
   2  -9   1    8.60   11.70
  -3   9  -1    9.80    5.20
  -3   9  -1   26.20    7.50
  -3   9  -1   16.90    7.90
  -3   9  -1   19.60    9.20
   3  -9   1   22.40   10.20
   3  -9   1   16.40    8.40
   3  -9   1   26.30    7.90
   3  -9   1   16.50    7.60
  -4   9  -1    2.50    9.40
  -4   9  -1   -3.10    5.70
   4  -9   1   16.10    9.90
   4  -9   1   -2.00    8.10
   4  -9   1   -0.30    8.40
   6   8  -1    5.80   10.50
   6   8  -1   24.40   12.60
   6   8  -1   -3.70    8.70
  -6  -8   1   -3.30   10.90
  -6  -8   1   -8.60    7.40
  -6  -8   1    8.80    6.20
   5   8  -1  -10.40    9.00
   5   8  -1    0.00    7.80
   5   8  -1  -12.10    6.60
   5   8  -1  -10.40    8.70
  -5  -8   1   -3.00    6.60
  -5  -8   1   -3.70    9.20
  -5  -8   1   -4.10   13.40
   4   8  -1   32.00    8.30
   4   8  -1   32.30   10.40
   4   8  -1   24.70    9.00
   4   8  -1   26.10    7.50
  -4  -8   1   22.40    9.50
  -4  -8   1   19.50    6.90
  -4  -8   1   23.50    6.70
  -4  -8   1   28.00   12.80
   3   8  -1   60.59    8.60
   3   8  -1   60.59    9.00
   3   8  -1   64.19   10.50
   3   8  -1   64.19   11.60
  -3  -8   1   61.19   10.60
  -3  -8   1   65.59   10.60
  -3  -8   1   65.89   10.60
  -3  -8   1   59.69   13.80
   2   8  -1 1391.96   50.99
   2   8  -1 1282.17   47.30
   2   8  -1 1330.67   50.49
   2   8  -1 1305.67   48.90
  -2  -8   1 1329.77   48.60
  -2  -8   1 1337.07   48.90
  -2  -8   1 1332.37   53.89
  -2  -8   1 1286.87   50.59
   1   8  -1  180.68   14.80
   1   8  -1  191.58   13.80
  -1  -8   1  196.38   15.50
  -1  -8   1  167.48   17.00
   0   8  -1   -0.50    1.20
   0   8  -1   -4.50    4.30
   0   8  -1   -1.10    3.30
   0   8  -1   -9.00    5.60
   0  -8   1   -2.70    5.30
   0  -8   1   -3.90    5.60
   0  -8   1   -6.50    7.20
   0  -8   1   -0.10    4.90
  -1   8  -1  563.04   25.60
  -1   8  -1  528.45   24.30
  -1   8  -1  540.15   22.10
  -1   8  -1  530.75   22.30
   1  -8   1  512.65   24.30
   1  -8   1  562.44   27.90
   1  -8   1  523.65   25.40
  -2   8  -1   76.29   10.10
  -2   8  -1   77.59    8.70
  -2   8  -1   50.49    8.50
   2  -8   1   72.99   10.20
   2  -8   1   70.29    9.70
   2  -8   1   86.69   14.40
  -3   8  -1   26.10    6.90
  -3   8  -1   34.10    8.90
  -3   8  -1   35.50    7.20
   3  -8   1   36.80    8.20
   3  -8   1   34.10    9.10
   3  -8   1   36.50   10.50
   3  -8   1   31.40    7.40
  -4   8  -1    8.10    7.50
  -4   8  -1    4.50    5.20
  -4   8  -1   11.20    7.20
  -4   8  -1   14.50    8.60
   4  -8   1    6.20    7.60
   4  -8   1    3.00    8.40
   4  -8   1   11.30    7.50
   4  -8   1    9.70    7.80
   7   7  -1  414.66   31.70
   7   7  -1  393.66   25.50
   7   7  -1  337.27   22.20
   7   7  -1  357.96   19.10
   7   7  -1  338.37   24.80
   7   7  -1  411.06   29.10
  -7  -7   1  356.56   25.20
  -7  -7   1  344.87   16.60
  -7  -7   1  408.66   31.10
   6   7  -1   -3.10    7.60
   6   7  -1   15.50    9.40
   6   7  -1   14.80   10.40
   6   7  -1    0.50    6.10
   6   7  -1   16.70   11.50
  -6  -7   1   -0.90    5.20
  -6  -7   1    1.90   11.30
  -6  -7   1    9.20   10.40
   5   7  -1    6.60    4.80
   5   7  -1   -2.60    6.00
   5   7  -1   11.10    8.50
   5   7  -1    5.10    7.00
   5   7  -1    2.40    9.70
  -5  -7   1   11.20    6.40
  -5  -7   1    2.20   11.80
  -5  -7   1   -3.00    8.70
   4   7  -1  135.29   15.40
   4   7  -1  111.69   12.10
   4   7  -1  124.89   12.90
  -4  -7   1  123.09   11.90
  -4  -7   1  122.39   11.60
  -4  -7   1  117.09   15.40
  -4  -7   1  114.89   17.40
   3   7  -1  144.29   11.40
   3   7  -1  162.28   12.70
   3   7  -1  135.19   12.80
   3   7  -1  150.68   14.20
  -3  -7   1  133.29   11.50
  -3  -7   1  153.48   14.60
  -3  -7   1  127.69   15.90
  -3  -7   1  124.09   10.80
   2   7  -1   70.59   11.00
   2   7  -1   64.39    8.90
   2   7  -1   65.29    8.60
   2   7  -1   67.59    9.90
  -2  -7   1   80.39   11.40
  -2  -7   1   72.69    9.50
  -2  -7   1   73.79   13.30
   1   7  -1   65.99   10.20
   1   7  -1   66.99    8.90
  -1  -7   1   57.69   11.60
  -1  -7   1   86.29   10.90
  -1  -7   1   63.99    8.30
   0   7  -1   78.29    6.50
   0   7  -1   72.29    8.60
   0   7  -1   75.69    9.90
   0   7  -1   72.39    4.30
   0  -7   1   60.89    7.90
   0  -7   1   72.79   10.40
   0  -7   1   74.79   10.80
  -1   7  -1    8.70    5.70
  -1   7  -1   11.50    3.60
  -1   7  -1    9.50    4.60
   1  -7   1    5.30    4.90
   1  -7   1   11.70    5.80
   1  -7   1    7.30    7.40
   1  -7   1    7.80    4.70
  -2   7  -1  835.12   34.00
  -2   7  -1  901.41   34.50
  -2   7  -1  809.22   32.00
  -2   7  -1  802.32   32.10
   2  -7   1  854.71   34.80
   2  -7   1  849.81   34.30
   2  -7   1  864.51   34.40
  -3   7  -1   25.90    7.60
  -3   7  -1   17.70    7.00
  -3   7  -1   15.60    5.60
   3  -7   1   33.70    6.80
   3  -7   1   20.70    7.40
   3  -7   1   25.20    8.40
  -4   7  -1   13.90    6.40
  -4   7  -1   16.90    6.50
  -4   7  -1   10.10    7.80
   4  -7   1    4.10    7.40
   4  -7   1   14.90    6.60
   4  -7   1   15.90    7.50
  -5   7  -1   37.90   10.40
  -5   7  -1   42.80    9.40
  -5   7  -1   20.60    6.90
   5  -7   1   32.80    4.70
   5  -7   1   16.40    9.00
   5  -7   1   34.10    8.80
   5  -7   1   26.50   13.50
   5  -7   1   36.00    9.00
   7   6  -1   27.50   10.70
   7   6  -1   23.80    9.30
   7   6  -1   17.40    5.60
   7   6  -1   10.60    8.50
   7   6  -1   26.90   10.80
  -7  -6   1   13.10    3.70
  -7  -6   1   17.80    8.70
  -7  -6   1   17.70   10.50
  -7  -6   1   41.70   13.10
   6   6  -1   99.69    9.30
   6   6  -1   55.99    9.30
   6   6  -1   56.09   10.50
   6   6  -1   88.89   16.70
   6   6  -1   82.09   12.90
   6   6  -1   76.49   15.60
  -6  -6   1   81.09    8.90
  -6  -6   1   66.59   14.50
  -6  -6   1   87.59   14.00
   5   6  -1   20.10    8.60
   5   6  -1   27.20   10.50
   5   6  -1   23.20    6.20
   5   6  -1   27.00    7.10
   5   6  -1   16.70    8.20
  -5  -6   1   13.30    9.80
  -5  -6   1   22.30    5.00
   4   6  -1   15.10    4.00
   4   6  -1   20.10    9.20
   4   6  -1   18.30    6.20
   4   6  -1   18.90    7.30
   4   6  -1   17.30    6.00
  -4  -6   1   16.50   10.80
  -4  -6   1   11.50    5.80
  -4  -6   1   23.00    5.80
  -4  -6   1    3.30    7.10
   3   6  -1  354.86   19.50
   3   6  -1  352.66   19.80
   3   6  -1  376.86   17.70
   3   6  -1  392.16   18.40
  -3  -6   1  370.96   17.80
  -3  -6   1  356.36   17.30
  -3  -6   1  369.96   19.90
  -3  -6   1  342.87   21.70
   2   6  -1 1367.66   49.20
   2   6  -1 1376.26   49.80
   2   6  -1 1382.06   48.50
   2   6  -1 1309.87   47.10
  -2  -6   1 1384.46   48.10
  -2  -6   1 1319.87   51.49
  -2  -6   1 1366.26   49.50
  -2  -6   1 1323.77   47.50
   1   6  -1  393.96   17.50
   1   6  -1  370.46   18.20
   1   6  -1  401.46   18.40
  -1  -6   1  317.27   19.40
  -1  -6   1  357.06   18.50
  -1  -6   1  427.86   18.00
   0   6  -1   63.89    5.50
   0   6  -1   42.10    7.00
   0   6  -1   54.79    8.40
   0   6  -1   58.29    3.80
   0  -6   1   52.19    8.80
   0  -6   1   47.30    6.90
   0  -6   1   59.49    7.00
  -1   6  -1   71.19    8.80
  -1   6  -1   56.49    7.90
  -1   6  -1   67.69    5.90
   1  -6   1   67.39    9.10
   1  -6   1   64.89    8.10
   1  -6   1   64.69   10.20
   1  -6   1   55.79    7.20
  -2   6  -1   86.89    8.30
  -2   6  -1   99.99    8.00
  -2   6  -1  108.89   10.60
   2  -6   1  127.49   10.30
   2  -6   1  110.99   10.90
  -3   6  -1   17.00    6.60
  -3   6  -1   21.30    5.90
  -3   6  -1   22.50    5.80
  -3   6  -1   21.70    6.20
   3  -6   1    9.90    5.40
   3  -6   1   23.60    6.10
   3  -6   1   22.80    6.60
   3  -6   1   30.30    8.40
  -4   6  -1   42.20    7.90
  -4   6  -1   32.10    7.80
   4  -6   1   29.40    5.00
   4  -6   1   52.59    8.60
   4  -6   1   24.90    7.80
   4  -6   1   49.20    8.50
  -5   6  -1   48.20   10.20
  -5   6  -1   40.20    8.50
  -5   6  -1   34.60    7.30
   5  -6   1   33.90    8.90
   5  -6   1   40.50    6.40
   5  -6   1   30.10    9.20
   5  -6   1   45.70    8.90
   5  -6   1   41.60    9.30
  -6   6  -1    6.80    7.70
  -6   6  -1   -8.00    8.90
  -6   6  -1    2.80    5.20
  -6   6  -1    0.50    8.40
   6  -6   1   -5.60    8.50
   6  -6   1    2.90    9.80
   6  -6   1    1.20    4.40
   6  -6   1   12.90    9.40
   7   5  -1   34.10   10.50
   7   5  -1   28.00   13.80
   7   5  -1   11.10    7.70
   7   5  -1   10.60    7.70
   7   5  -1   18.20   10.30
  -7  -5   1   18.50   11.50
  -7  -5   1   -1.30    7.10
  -7  -5   1   19.00   10.30
  -7  -5   1    0.60    8.30
   6   5  -1   87.89   17.00
   6   5  -1   58.19    7.70
   6   5  -1   61.09    9.80
   6   5  -1   51.09   11.00
   6   5  -1   50.19    8.50
   6   5  -1   49.60   11.10
  -6  -5   1   51.59    6.90
  -6  -5   1   34.80   11.50
  -6  -5   1   59.49   11.80
  -6  -5   1   47.60    9.20
   5   5  -1   -4.90    6.60
   5   5  -1   -6.20    5.50
   5   5  -1    2.30    4.50
   5   5  -1    7.30    8.40
  -5  -5   1   -3.40    5.10
  -5  -5   1   -0.90    3.40
  -5  -5   1    3.40    4.90
   4   5  -1    4.10    5.30
   4   5  -1   -0.90    5.50
   4   5  -1    0.90    3.60
   4   5  -1   -3.30    6.10
   4   5  -1   -1.10    4.50
  -4  -5   1   -4.60    8.30
  -4  -5   1    1.70    5.90
   3   5  -1   83.69    8.80
   3   5  -1   97.49   10.50
   3   5  -1   90.09    8.70
   3   5  -1   92.39    7.00
  -3  -5   1   95.79    8.40
  -3  -5   1   70.89   12.70
  -3  -5   1   85.19   10.50
  -3  -5   1   82.39    8.60
   2   5  -1   30.60    5.00
   2   5  -1   49.50    8.10
   2   5  -1   33.00    5.30
   2   5  -1   32.30    7.20
  -2  -5   1   40.10    6.50
  -2  -5   1   35.60    6.10
  -2  -5   1   52.79    6.60
  -2  -5   1   30.80    8.50
   1   5  -1 3074.49  103.19
   1   5  -1 3215.78  103.99
   1   5  -1 3108.39  102.89
  -1  -5   1 3099.79  102.79
  -1  -5   1 3178.88  103.69
  -1  -5   1 3163.38  105.29
   0   5  -1    9.40    3.80
   0   5  -1    7.50    2.60
   0   5  -1    7.50    3.40
   0   5  -1    6.80    1.80
   0  -5   1    5.10    4.00
   0  -5   1    5.00    3.10
   0  -5   1    2.70    4.80
  -1   5  -1   91.99    6.20
  -1   5  -1  102.59    8.60
  -1   5  -1   88.89    7.80
   1  -5   1   94.19    8.60
   1  -5   1   90.59    8.00
   1  -5   1   89.39    7.60
  -2   5  -1 1968.80   66.99
  -2   5  -1 1890.31   65.59
  -2   5  -1 1913.01   65.79
  -2   5  -1 2036.30   66.69
   2  -5   1 1930.91   66.49
   2  -5   1 1971.50   67.09
  -3   5  -1  376.66   17.40
  -3   5  -1  371.06   18.30
  -3   5  -1  366.66   17.50
  -3   5  -1  383.96   19.00
   3  -5   1  350.16   17.20
   3  -5   1  381.26   19.30
   3  -5   1  371.96   13.80
   3  -5   1  365.36   18.80
   3  -5   1  366.76   18.40
  -4   5  -1  198.88   15.20
  -4   5  -1  196.18   16.70
  -4   5  -1  225.58   14.00
  -4   5  -1  170.58   13.60
   4  -5   1  206.18   15.40
   4  -5   1  188.68   14.20
   4  -5   1  148.29   13.30
   4  -5   1  205.88   15.20
  -5   5  -1   -3.10    5.10
  -5   5  -1   -4.40    6.60
  -5   5  -1   -4.70    5.70
   5  -5   1    6.90    6.40
   5  -5   1    6.30    6.20
   5  -5   1   -2.00    5.70
   5  -5   1    8.40    7.00
  -6   5  -1   -9.40    9.00
  -6   5  -1   -7.00    8.40
  -6   5  -1    1.60    4.00
  -6   5  -1    0.40    6.20
  -6   5  -1    7.50    8.50
   6  -5   1    5.20    8.50
   6  -5   1   23.00    8.30
   6  -5   1   -8.20    6.40
   7   4  -1   12.00    7.40
   7   4  -1    1.90   10.20
   7   4  -1   13.80    9.90
   7   4  -1   25.40   13.90
   7   4  -1   10.80    7.70
  -7  -4   1    5.80   10.60
  -7  -4   1   17.90    7.10
  -7  -4   1   -1.80    7.50
  -7  -4   1    3.00   10.10
  -7  -4   1   -0.30    8.10
   6   4  -1   93.29   12.90
   6   4  -1  107.29   16.70
   6   4  -1  124.49   19.40
   6   4  -1  117.29   15.10
   6   4  -1   84.89    7.30
  -6  -4   1   91.89    6.90
  -6  -4   1   83.89   13.00
  -6  -4   1  103.59   16.50
  -6  -4   1   83.09   12.90
   5   4  -1  108.09   10.40
   5   4  -1   97.99   13.50
   5   4  -1   93.49   11.20
   5   4  -1  103.39   12.50
   5   4  -1   87.79   17.30
  -5  -4   1   74.29   10.50
  -5  -4   1   81.09   11.50
  -5  -4   1  106.29   11.00
  -5  -4   1   94.39   14.30
  -5  -4   1  100.89    7.00
   4   4  -1   52.39    7.80
   4   4  -1   52.59    6.90
   4   4  -1   68.09   10.40
   4   4  -1   63.99    9.30
   4   4  -1   54.99   10.80
  -4  -4   1   58.49    8.80
  -4  -4   1   61.79    5.70
  -4  -4   1   66.89    7.80
  -4  -4   1   60.79    7.80
   3   4  -1   15.90    4.90
   3   4  -1   16.60    3.60
   3   4  -1   12.90    4.80
   3   4  -1   23.10    4.50
   3   4  -1   16.30    6.50
  -3  -4   1   12.80    7.40
  -3  -4   1   19.00    4.50
  -3  -4   1   19.70    5.50
  -3  -4   1   11.70    4.20
   2   4  -1 1518.55   51.59
   2   4  -1 1504.85   53.69
   2   4  -1 1487.25   52.39
  -2  -4   1 1492.85   51.49
  -2  -4   1 1558.74   52.79
  -2  -4   1 1550.34   51.89
  -2  -4   1 1505.45   54.49
   1   4  -1 1189.58   41.60
   1   4  -1 1200.08   40.90
   1   4  -1 1141.29   40.90
  -1  -4   1 1186.88   40.50
  -1  -4   1 1179.38   40.60
  -1  -4   1 1193.78   41.30
  -1  -4   1 1172.28   42.50
   0   4  -1  214.88   10.40
   0   4  -1  205.08   10.50
   0   4  -1  204.78    9.70
   0  -4   1  212.58   10.10
   0  -4   1  204.58   11.40
   0  -4   1  209.48   10.80
  -1   4  -1   96.49    7.30
  -1   4  -1  111.89    7.90
  -1   4  -1  116.59    6.50
   1  -4   1   87.29   11.30
   1  -4   1  119.79    8.30
   1  -4   1  107.39    7.90
  -2   4  -1  291.37   13.60
  -2   4  -1  328.77   14.90
  -2   4  -1  307.77   14.60
  -2   4  -1  316.07   14.00
   2  -4   1  319.07   14.70
   2  -4   1  297.57   14.70
   2  -4   1  317.77   14.90
   2  -4   1  307.87   11.30
  -3   4  -1 1237.18   42.90
  -3   4  -1 1229.38   43.30
  -3   4  -1 1153.98   43.60
  -3   4  -1 1174.48   43.00
   3  -4   1 1192.88   43.00
   3  -4   1 1190.78   43.60
   3  -4   1 1170.78   43.80
   3  -4   1 1173.28   42.60
  -4   4  -1  767.92   33.10
  -4   4  -1  811.22   32.40
  -4   4  -1  819.72   32.90
  -4   4  -1  799.42   32.90
   4  -4   1  837.82   32.70
   4  -4   1  817.42   32.60
   4  -4   1  790.02   32.20
   4  -4   1  822.62   33.60
  -5   4  -1   36.10    8.00
  -5   4  -1   40.90   10.00
  -5   4  -1   46.90    9.00
   5  -4   1   44.10    8.40
   5  -4   1   34.70    8.00
   5  -4   1   43.40    7.90
   5  -4   1   47.70    8.70
   5  -4   1   19.00    7.20
  -6   4  -1    6.90    4.60
  -6   4  -1    0.30    8.20
  -6   4  -1  -16.50    8.40
   6  -4   1    7.00    7.70
   6  -4   1   -0.40    6.80
   6  -4   1   17.50    7.10
   6  -4   1    4.90    7.60
   6  -4   1   -1.10    6.40
   7   3  -1    6.80    7.60
   7   3  -1   21.60    7.00
   7   3  -1   19.10   13.80
   7   3  -1    2.00    8.70
  -7  -3   1   18.60    8.10
  -7  -3   1    3.50    7.50
  -7  -3   1    9.40    8.20
  -7  -3   1   13.80   10.50
  -7  -3   1    8.70    7.80
   6   3  -1  190.58   14.80
   6   3  -1  137.79   15.30
   6   3  -1  128.59   13.80
   6   3  -1  171.28   18.00
   6   3  -1  164.28   19.20
  -6  -3   1  174.38   14.60
  -6  -3   1  127.89    7.70
  -6  -3   1  202.28   19.90
  -6  -3   1  103.19   13.60
   5   3  -1   67.49    9.30
   5   3  -1   74.89    5.30
   5   3  -1   61.29   10.10
   5   3  -1   83.49    9.50
   5   3  -1   64.19    8.90
  -5  -3   1   76.89    9.80
  -5  -3   1   64.79   10.60
  -5  -3   1   73.09   11.30
  -5  -3   1   62.29    9.70
  -5  -3   1   72.19    5.60
   4   3  -1  192.98   12.90
   4   3  -1  173.88   11.60
   4   3  -1  182.08   13.80
   4   3  -1  186.38   15.10
   4   3  -1  190.08   11.50
  -4  -3   1  188.28    8.70
  -4  -3   1  196.28   14.20
  -4  -3   1  193.98   11.30
  -4  -3   1  189.18   11.70
  -4  -3   1  196.78   13.80
   3   3  -1   11.20    3.70
   3   3  -1    3.80    3.00
   3   3  -1    5.80    5.60
   3   3  -1    7.50    4.20
   3   3  -1   11.60    3.60
  -3  -3   1    9.40    3.50
  -3  -3   1    9.20    3.60
  -3  -3   1   11.80    4.80
   2   3  -1  601.34   26.80
   2   3  -1  617.14   27.70
   2   3  -1  614.74   22.50
   2   3  -1  617.74   23.00
   2   3  -1  612.64   23.50
  -2  -3   1  554.34   24.90
  -2  -3   1  620.14   22.80
  -2  -3   1  650.43   23.80
  -2  -3   1  616.24   22.90
   1   3  -1 2452.85   78.79
   1   3  -1 2384.76   78.69
   1   3  -1 2477.35   79.49
  -1  -3   1 2333.27   79.89
  -1  -3   1 2396.36   78.99
  -1  -3   1 2438.36   78.49
  -1  -3   1 2399.96   78.49
   0   3  -1  174.78    8.80
   0   3  -1  182.58    7.40
   0   3  -1  179.38    8.60
   0  -3   1  180.88    8.50
   0  -3   1  163.78    9.30
   0  -3   1  174.38    8.90
  -1   3  -1  909.21   32.10
  -1   3  -1  972.50   31.70
  -1   3  -1  930.81   32.20
   1  -3   1  875.21   30.00
   1  -3   1  940.31   32.20
   1  -3   1  932.81   32.50
   1  -3   1  921.51   32.30
  -2   3  -1  237.08   11.30
  -2   3  -1  229.78   11.90
  -2   3  -1  256.37   12.20
   2  -3   1  246.48   10.90
   2  -3   1  237.88   11.90
   2  -3   1  252.07   11.70
   2  -3   1  237.78   12.20
  -3   3  -1    2.80    4.10
  -3   3  -1   -4.40    3.20
  -3   3  -1    3.50    2.90
  -3   3  -1    6.20    3.40
   3  -3   1   -0.20    2.40
   3  -3   1    6.50    3.70
   3  -3   1   -1.90    2.50
   3  -3   1    0.20    3.90
   3  -3   1   -1.10    3.40
  -4   3  -1   21.60    5.80
  -4   3  -1   16.40    5.00
  -4   3  -1   17.70    5.70
   4  -3   1   19.20    4.70
   4  -3   1   15.20    4.90
   4  -3   1    3.30    4.90
   4  -3   1    7.10    4.40
   4  -3   1   14.00    5.30
  -5   3  -1   -3.10    7.00
  -5   3  -1    9.00    6.70
  -5   3  -1   15.60    7.20
  -5   3  -1   22.80    6.30
   5  -3   1   15.70    6.00
   5  -3   1    8.70    6.20
   5  -3   1   24.30    7.20
   5  -3   1   17.20    6.50
   5  -3   1    1.90    5.20
  -6   3  -1    2.60    7.50
  -6   3  -1   10.70    6.20
   6  -3   1   11.70    7.50
   6  -3   1    5.40    5.60
   6  -3   1    6.20    6.40
   6  -3   1    9.40    6.60
   6  -3   1   -8.80    7.00
  -7   3  -1   34.70   10.00
  -7   3  -1   13.00   15.20
  -7   3  -1   18.60    9.70
  -7   3  -1   15.50   10.10
   7  -3   1   29.90    7.20
   7  -3   1   26.50    9.50
   7  -3   1   15.70    8.60
   7  -3   1   21.60    8.80
   7   2  -1   22.00   14.00
   7   2  -1    4.80    8.00
   7   2  -1    8.90    7.00
  -7  -2   1   10.90    9.80
  -7  -2   1    1.80    9.00
  -7  -2   1    2.90    6.50
  -7  -2   1    3.90    7.00
   6   2  -1  527.65   26.70
   6   2  -1  565.34   33.50
   6   2  -1  550.54   26.60
   6   2  -1  568.04   28.40
  -6  -2   1  533.25   27.80
  -6  -2   1  544.95   27.20
  -6  -2   1  593.14   29.50
  -6  -2   1  560.74   28.70
   5   2  -1  399.46   20.20
   5   2  -1  408.16   20.10
   5   2  -1  402.46   19.80
   5   2  -1  393.86   21.60
   5   2  -1  381.96   13.10
  -5  -2   1  409.66   22.70
  -5  -2   1  399.76   19.50
  -5  -2   1  389.36   22.30
  -5  -2   1  371.96   20.70
  -5  -2   1  371.16   19.80
  -5  -2   1  406.36   14.80
   4   2  -1   54.89    7.70
   4   2  -1   65.89    7.80
   4   2  -1   66.89    8.90
  -4  -2   1   78.89   10.40
  -4  -2   1   81.49    8.30
   3   2  -1  289.87   14.60
   3   2  -1  262.77   16.00
   3   2  -1  280.57   13.60
   3   2  -1  268.57   13.10
   3   2  -1  283.37   14.00
  -3  -2   1  273.17   15.10
  -3  -2   1  286.87   13.40
  -3  -2   1  284.47   13.30
  -3  -2   1  275.07   14.40
   2   2  -1 1217.58   42.10
   2   2  -1 1278.87   41.80
   2   2  -1 1151.78   45.20
   2   2  -1 1248.08   42.00
   2   2  -1 1202.88   43.90
  -2  -2   1 1232.18   42.20
  -2  -2   1 1247.18   41.80
  -2  -2   1 1149.78   43.80
  -2  -2   1 1270.47   41.80
  -2  -2   1 1245.48   41.70
   1   2  -1 2179.38   69.49
   1   2  -1 2111.99   69.59
   1   2  -1 2136.69   69.59
   1   2  -1 2116.69   70.29
  -1  -2   1 2133.49   69.79
  -1  -2   1 2131.69   70.59
  -1  -2   1 2174.58   69.69
  -1  -2   1 2165.68   69.49
   0   2  -1  264.07   10.80
   0   2  -1  281.07    9.80
   0   2  -1  263.97   10.80
   0  -2   1  286.97    9.70
   0  -2   1  257.67   10.70
   0  -2   1  268.17   10.80
   0  -2   1  280.07   11.10
  -1   2  -1 1281.07   42.30
  -1   2  -1 1251.97   42.10
  -1   2  -1 1227.78   42.10
  -1   2  -1 1365.16   41.80
   1  -2   1 1287.57   42.30
   1  -2   1 1263.57   42.10
   1  -2   1 1253.97   42.30
   1  -2   1 1184.48   40.60
  -2   2  -1   38.70    5.20
  -2   2  -1   33.00    5.50
  -2   2  -1   46.80    4.90
  -2   2  -1   40.30    4.00
  -2   2  -1   47.50    4.40
   2  -2   1   39.50    4.70
   2  -2   1   37.50    4.10
   2  -2   1   35.40    5.50
   2  -2   1   34.50    5.20
   2  -2   1   50.69    4.30
  -3   2  -1   37.60    6.30
  -3   2  -1   42.50    5.10
  -3   2  -1   54.59    6.00
  -3   2  -1   37.70    5.60
  -3   2  -1   43.50    5.90
  -3   2  -1   49.80    5.90
   3  -2   1   45.30    5.90
   3  -2   1   47.10    6.60
   3  -2   1   42.00    6.80
   3  -2   1   38.80    5.70
   3  -2   1   38.50    5.50
  -4   2  -1  382.56   16.90
  -4   2  -1  362.56   18.10
  -4   2  -1  375.66   17.20
  -4   2  -1  347.47   17.40
  -4   2  -1  384.96   17.10
   4  -2   1  368.96   17.60
   4  -2   1  350.46   17.20
   4  -2   1  335.37   17.70
   4  -2   1  366.46   18.40
   4  -2   1  361.96   16.70
  -5   2  -1 1030.20   41.90
  -5   2  -1 1024.20   41.60
  -5   2  -1 1069.79   41.40
  -5   2  -1 1095.79   41.00
  -5   2  -1  915.11   33.30
  -5   2  -1 1047.30   40.00
   5  -2   1 1064.79   42.00
   5  -2   1 1018.60   40.30
   5  -2   1 1045.90   39.50
   5  -2   1 1067.29   40.50
   5  -2   1 1039.70   40.90
  -6   2  -1   39.40    8.50
  -6   2  -1   27.80    6.40
  -6   2  -1   34.30    7.80
  -6   2  -1   36.30    9.30
   6  -2   1   28.70    7.40
   6  -2   1   25.20    8.30
   6  -2   1   31.50    8.70
   6  -2   1   45.30    8.40
  -7   2  -1   23.90    9.20
  -7   2  -1   14.50    7.50
  -7   2  -1   11.80    8.90
  -7   2  -1   18.50    8.70
  -7   2  -1   23.60   10.20
   7  -2   1   24.30    9.50
   7  -2   1   23.00    7.00
   7  -2   1   22.50    8.50
   7  -2   1   14.20    8.20
   7   1  -1   -4.20    8.30
   7   1  -1   -3.80    6.70
   7   1  -1   -3.90    7.10
   7   1  -1    8.20   13.00
  -7  -1   1   -8.70    7.60
  -7  -1   1   -9.80   10.20
  -7  -1   1    6.30    9.20
  -7  -1   1   11.00    7.60
  -7  -1   1    9.40    5.50
   6   1  -1   -3.40    5.20
   6   1  -1   -3.90    6.00
   6   1  -1    4.00   11.20
   6   1  -1   -1.40    6.20
   6   1  -1   -3.40    7.00
  -6  -1   1   -4.90    6.80
  -6  -1   1    1.70    6.60
  -6  -1   1   -3.20    5.70
  -6  -1   1   -5.60    7.40
  -5  -1   1   18.60    7.50
  -5  -1   1   26.30    6.70
  -5  -1   1    8.30    6.10
  -5  -1   1   33.90    7.30
   4   1  -1  584.34   21.70
   4   1  -1  628.64   25.70
   4   1  -1  645.04   26.50
   4   1  -1  605.84   29.70
   4   1  -1  632.04   26.10
  -4  -1   1  667.83   26.10
  -4  -1   1  640.84   27.10
  -4  -1   1  637.24   25.70
  -4  -1   1  609.44   26.20
  -4  -1   1  624.54   21.70
  -4  -1   1  602.14   26.20
   3   1  -1 1012.50   37.20
   3   1  -1 1081.79   37.60
   3   1  -1  979.50   34.10
   3   1  -1 1034.60   37.30
   3   1  -1 1136.19   38.10
  -3  -1   1 1041.10   37.20
  -3  -1   1 1058.39   37.30
  -3  -1   1 1080.49   38.00
  -3  -1   1  951.70   37.80
   2   1  -1  131.09    7.60
   2   1  -1   99.89    8.70
   2   1  -1  115.19    7.60
   2   1  -1  113.99    7.00
  -2  -1   1  120.09    8.20
  -2  -1   1  118.09    7.00
  -2  -1   1  116.79    6.70
  -2  -1   1  113.99    7.70
  -2  -1   1  122.49    4.60
   1   1  -1  731.13   25.60
   1   1  -1  759.52   26.50
   1   1  -1  727.63   25.40
   1   1  -1  753.72   25.60
   1   1  -1  784.02   25.50
  -1  -1   1  721.83   25.20
  -1  -1   1  776.02   25.60
  -1  -1   1  723.93   25.70
  -1  -1   1  747.63   25.50
   0   1  -1    2.10    1.20
   0   1  -1    0.60    1.20
   0   1  -1    0.50    0.90
   0   1  -1    1.00    0.60
   0  -1   1    2.00    1.10
   0  -1   1   -0.20    1.10
   0  -1   1    1.10    0.50
   0  -1   1    0.30    1.20
   0  -1   1    1.70    1.10
  -1   1  -1  152.68    7.60
  -1   1  -1  177.48    6.90
  -1   1  -1  160.48    7.00
  -1   1  -1  141.69    7.50
  -1   1  -1  150.68    7.70
   1  -1   1  157.78    7.10
   1  -1   1  143.79    7.60
   1  -1   1  158.28    6.40
   1  -1   1  151.28    7.60
  -2   1  -1   37.20    4.20
  -2   1  -1   32.10    4.90
  -2   1  -1   37.70    4.00
  -2   1  -1   34.30    4.40
  -2   1  -1   31.70    4.20
   2  -1   1   28.70    4.70
   2  -1   1   31.10    4.10
   2  -1   1   34.40    3.80
   2  -1   1   30.20    4.80
   2  -1   1   34.60    4.60
  -3   1  -1  277.87   12.60
  -3   1  -1  263.27   13.50
  -3   1  -1  278.07   12.30
  -3   1  -1  273.37   13.50
  -3   1  -1  267.87   12.50
   3  -1   1  260.47   13.40
   3  -1   1  245.18   12.30
   3  -1   1  272.97   12.40
   3  -1   1  266.77   12.50
   3  -1   1  258.17   13.50
  -4   1  -1  505.75   22.50
  -4   1  -1  522.55   22.70
  -4   1  -1  479.75   22.10
  -4   1  -1  513.25   21.40
  -4   1  -1  514.35   20.50
  -4   1  -1  509.55   21.70
   4  -1   1  468.85   21.90
   4  -1   1  512.55   22.50
   4  -1   1  521.65   21.80
   4  -1   1  492.65   20.50
   4  -1   1  481.35   21.20
  -5   1  -1  801.42   34.40
  -5   1  -1  831.22   33.20
  -5   1  -1  825.42   34.30
  -5   1  -1  806.52   34.20
  -5   1  -1  812.72   33.60
  -5   1  -1  845.42   31.30
   5  -1   1  818.12   31.80
   5  -1   1  815.02   34.10
   5  -1   1  820.12   34.40
   5  -1   1  829.82   33.60
   5  -1   1  825.72   33.40
  -6   1  -1   43.10    9.20
  -6   1  -1   42.00    9.80
  -6   1  -1   48.20    8.40
  -6   1  -1   59.39    9.50
   6  -1   1   53.49    9.80
   6  -1   1   51.49    7.40
   6  -1   1   52.69   10.00
   6  -1   1   69.19   11.70
  -7   1  -1   12.90    8.10
  -7   1  -1   27.20    8.70
  -7   1  -1   13.80    8.50
  -7   1  -1   38.00   12.30
  -7   1  -1   13.50    9.40
   7  -1   1   22.60    6.90
   7  -1   1   17.20    8.10
   7  -1   1   24.00    8.90
   7  -1   1   54.39   20.70
   7  -1   1   19.20    8.70
   7   0  -1   74.29    7.40
   7   0  -1   61.89   11.00
   7   0  -1   42.60   11.00
   7   0  -1   69.59   18.50
   7   0  -1   50.59   10.50
  -7   0   1   49.30   10.20
  -7   0   1   58.89    9.80
  -7   0   1   59.99   12.40
  -7   0   1   53.19   12.50
  -7   0   1   60.19   11.30
   6   0  -1   -1.30    2.80
   6   0  -1    2.50    6.80
   6   0  -1    7.70    6.10
   6   0  -1   -9.80    6.30
  -6   0   1   -4.50    8.10
  -6   0   1   -7.00    4.60
  -6   0   1    1.10    6.00
  -6   0   1    4.10    6.50
  -6   0   1    0.20    7.30
   5   0  -1 1287.67   45.30
   5   0  -1 1311.17   49.40
   5   0  -1 1306.07   49.60
   5   0  -1 1368.76   50.09
  -5   0   1 1357.76   49.90
  -5   0   1 1254.77   48.90
  -5   0   1 1374.56   50.89
  -5   0   1 1336.97   49.60
  -5   0   1 1314.97   50.59
   4   0  -1  319.27   12.90
   4   0  -1  300.97   16.20
   4   0  -1  342.97   17.10
   4   0  -1  312.07   15.90
  -4   0   1  319.47   15.90
  -4   0   1  329.37   16.50
  -4   0   1  285.57   15.90
  -4   0   1  312.77   16.10
  -4   0   1  324.17   15.50
   3   0  -1 2094.29   69.59
   3   0  -1 2067.29   68.79
   3   0  -1 1975.30   66.09
   3   0  -1 1989.80   68.59
  -3   0   1 2043.70   68.59
  -3   0   1 1954.00   68.49
  -3   0   1 2056.49   69.59
  -3   0   1 2095.29   68.79
  -3   0   1 2083.59   69.39
   2   0  -1  612.54   20.80
   2   0  -1  641.54   23.20
   2   0  -1  656.43   24.00
   2   0  -1  620.84   21.30
   2   0  -1  624.34   23.30
   2   0  -1  645.34   23.40
  -2   0   1  619.74   24.40
  -2   0   1  640.04   24.00
  -2   0   1  691.43   23.90
  -2   0   1  638.74   23.10
  -2   0   1  661.03   23.40
   1   0  -1 1162.18   38.50
   1   0  -1 1218.48   39.50
   1   0  -1 1132.79   38.50
   1   0  -1 1279.67   39.10
  -1   0   1 1282.67   39.00
  -1   0   1 1073.09   38.40
  -1   0   1 1191.08   39.00
  -1   0   1 1127.29   38.40
  -1   0   1 1161.88   39.40
  -1   0  -1 1066.99   33.90
  -1   0  -1 1028.30   34.60
  -1   0  -1 1091.99   34.40
   1   0   1 1101.29   34.70
   1   0   1  991.60   34.40
   1   0   1 1014.20   34.70
  -2   0  -1  232.88   10.00
  -2   0  -1  227.18   10.10
  -2   0  -1  223.18   10.70
  -2   0  -1  236.78   10.90
  -2   0  -1  233.58    9.90
   2   0   1  227.78    9.80
   2   0   1  216.28   10.70
   2   0   1  233.68    9.90
   2   0   1  220.08   10.60
   2   0   1  237.38   10.30
  -3   0  -1   38.70    4.70
  -3   0  -1   45.40    6.30
  -3   0  -1   42.20    6.80
  -3   0  -1   43.20    5.50
  -3   0  -1   39.40    5.90
  -3   0  -1   48.10    2.40
   3   0   1   43.50    5.20
   3   0   1   37.10    6.40
   3   0   1   43.10    5.20
   3   0   1   35.70    4.90
   3   0   1   40.70    9.20
  -4   0  -1 1235.78   41.80
  -4   0  -1 1233.88   43.40
  -4   0  -1 1158.98   43.90
  -4   0  -1 1213.08   43.40
  -4   0  -1 1181.68   44.10
  -4   0  -1 1168.68   43.90
   4   0   1 1196.68   43.90
   4   0   1 1173.78   44.10
   4   0   1 1195.78   43.30
   4   0   1 1202.38   42.00
  -5   0  -1  106.59   13.30
  -5   0  -1   96.79   11.20
  -5   0  -1   96.59   10.40
  -5   0  -1   85.79   11.80
  -5   0  -1  101.19    8.90
  -5   0  -1  117.59   11.40
   5   0   1   93.89    9.50
   5   0   1   93.69   12.30
   5   0   1  112.79   11.20
   5   0   1   81.59    7.50
  -6   0  -1  221.78   17.10
  -6   0  -1  253.97   18.00
  -6   0  -1  227.18   13.90
  -6   0  -1  220.78   19.60
   6   0   1  201.48   18.20
   6   0   1  203.08   13.20
   6   0   1  236.48   17.90
   6   0   1  235.38   17.40
  -7   0  -1   -2.60    8.40
  -7   0  -1   -2.10    5.90
  -7   0  -1   -2.00    6.90
   7   0   1   -7.00    4.50
   7   0   1    6.00    7.90
   7   0   1    3.10    7.90
   7   0   1   11.40    7.90
   7  -1  -1   51.99   10.00
   7  -1  -1   35.60    9.60
   7  -1  -1   46.60   10.60
   7  -1  -1   39.00    5.40
  -7   1   1   42.50   10.60
  -7   1   1   41.60    9.40
  -7   1   1   41.00   10.20
  -7   1   1   51.19   11.00
  -7   1   1   37.70   10.60
   6  -1  -1   -4.90    6.80
   6  -1  -1    4.30    3.20
   6  -1  -1   -7.50    5.10
   6  -1  -1    4.00    6.90
  -6   1   1    4.40    5.80
  -6   1   1   -2.20    5.70
  -6   1   1  -12.30    6.30
  -6   1   1   -8.80    6.60
  -6   1   1   -2.80    8.70
   5  -1  -1  446.96   21.50
   5  -1  -1  391.46   20.50
   5  -1  -1  401.66   17.90
   5  -1  -1  427.76   21.50
   5  -1  -1  438.96   22.60
  -5   1   1  392.46   21.30
  -5   1   1  421.36   21.60
  -5   1   1  415.06   22.50
  -5   1   1  417.26   22.60
  -5   1   1  430.76   21.60
   4  -1  -1  464.25   20.90
   4  -1  -1  451.75   21.10
   4  -1  -1  469.45   21.10
   4  -1  -1  476.95   18.60
   4  -1  -1  506.25   22.20
  -4   1   1  464.65   20.90
  -4   1   1  468.15   21.90
  -4   1   1  499.25   21.10
  -4   1   1  459.35   21.80
  -4   1   1  472.25   21.10
   3  -1  -1 1646.54   58.09
   3  -1  -1 1740.63   59.59
   3  -1  -1 1709.23   56.59
   3  -1  -1 1743.03   58.69
   3  -1  -1 1721.63   58.69
  -3   1   1 1646.24   58.09
  -3   1   1 1698.83   58.49
  -3   1   1 1734.03   59.39
  -3   1   1 1779.62   58.69
  -3   1   1 1734.93   59.29
   2  -1  -1 1496.25   49.40
   2  -1  -1 1454.55   50.29
   2  -1  -1 1586.64   50.79
   2  -1  -1 1495.05   50.59
   2  -1  -1 1587.04   51.59
  -2   1   1 1473.65   50.49
  -2   1   1 1520.65   50.59
  -2   1   1 1565.04   51.29
  -2   1   1 1609.84   51.39
  -2   1   1 1412.26   51.49
  -2   1   1 1452.45   48.50
   1  -1  -1 3159.48  105.79
   1  -1  -1 3311.97  106.79
   1  -1  -1 3248.77  106.19
  -1   1   1 3287.47  106.19
  -1   1   1 3577.44  106.79
  -1   1   1 3391.16  106.79
   0  -1  -1  208.38    7.10
   0  -1  -1  229.88    8.30
   0  -1  -1  208.38    7.20
   0  -1  -1  209.38    7.00
   0  -1  -1  215.08    7.90
   0  -1  -1  201.48    7.80
   0  -1  -1  202.28    7.30
   0   1   1  212.08    7.30
   0   1   1  211.38    7.80
   0   1   1  236.28    7.70
   0   1   1  195.68    7.30
  -1  -1  -1    6.30    3.90
  -1  -1  -1    0.90    1.60
  -1  -1  -1    0.70    1.20
  -1  -1  -1    0.50    2.00
  -1  -1  -1   -1.30    2.30
  -1  -1  -1    0.50    1.20
   1   1   1    0.90    1.30
   1   1   1   -1.30    1.70
   1   1   1   -2.00    1.60
   1   1   1    1.00    1.30
   1   1   1    1.00    1.20
   1   1   1    0.50    2.70
  -2  -1  -1 1520.05   49.50
  -2  -1  -1 1577.54   50.79
  -2  -1  -1 1545.45   51.79
  -2  -1  -1 1544.85   50.99
  -2  -1  -1 1556.84   51.89
   2   1   1 1526.25   50.69
   2   1   1 1567.94   51.89
   2   1   1 1593.94   51.79
   2   1   1 1475.95   50.89
   2   1   1 1509.85   49.60
   2   1   1 1560.44   53.79
  -3  -1  -1  931.51   33.90
  -3  -1  -1  918.31   31.90
  -3  -1  -1  914.31   32.80
  -3  -1  -1  932.21   33.20
  -3  -1  -1  894.81   33.50
   3   1   1  910.31   31.90
   3   1   1  920.11   32.90
   3   1   1  888.31   36.30
   3   1   1  921.61   33.90
   3   1   1  928.91   33.70
  -4  -1  -1   85.49    9.70
  -4  -1  -1   90.99    7.30
  -4  -1  -1   76.19    8.40
  -4  -1  -1   87.49    8.30
  -4  -1  -1   93.49    9.20
   4   1   1  100.09    9.00
   4   1   1   77.39    8.40
   4   1   1   90.99    6.80
   4   1   1   70.59   10.00
  -5  -1  -1  102.49   15.10
  -5  -1  -1  124.19   10.70
  -5  -1  -1  120.19   13.10
  -5  -1  -1  156.28    9.60
  -5  -1  -1  135.49   12.40
   5   1   1  140.29    9.00
   5   1   1  146.19   12.10
   5   1   1  124.29   11.80
  -6  -1  -1  126.49   11.00
  -6  -1  -1  149.49   15.40
  -6  -1  -1  134.09   14.10
   6   1   1  106.49    9.40
   6   1   1   96.29   13.90
   6   1   1   93.09   14.50
   6   1   1  137.19   18.40
   6   1   1   95.09   16.50
  -7  -1  -1    3.00    8.10
  -7  -1  -1  -12.90    7.50
  -7  -1  -1   -5.90    5.20
  -7  -1  -1   -5.90    6.00
   7   1   1    6.40   13.50
   7   1   1    7.70    8.80
   7   1   1    1.50    4.00
   7   1   1   -3.80   14.30
  -8  -1  -1   14.90   10.00
  -8  -1  -1   -9.10   10.90
  -8  -1  -1    3.50   11.30
   8   1   1   -1.10    9.20
   8   1   1    4.30    8.30
   8   1   1    9.10    5.00
   8   1   1   21.60    9.50
   7  -2  -1    0.20    7.20
   7  -2  -1    5.30    5.20
   7  -2  -1   13.30    8.50
   7  -2  -1   14.10    8.40
  -7   2   1    0.40    8.40
  -7   2   1    6.00    9.70
  -7   2   1    9.50    8.50
  -7   2   1   10.00    8.90
  -7   2   1   22.10    9.90
   6  -2  -1   10.90    4.10
   6  -2  -1    5.80    7.40
   6  -2  -1   14.00    7.40
   6  -2  -1    9.20    6.70
   6  -2  -1   14.70    6.00
  -6   2   1    6.80    7.70
  -6   2   1    9.40    6.30
  -6   2   1    7.30    7.30
   5  -2  -1    3.30    4.30
   5  -2  -1   -6.40    5.80
   5  -2  -1   -2.30    4.90
   5  -2  -1    0.70    5.60
  -5   2   1   -1.60    4.80
  -5   2   1  -10.90    6.40
  -5   2   1   -3.50    5.60
  -5   2   1   -9.00    4.90
  -5   2   1   -9.50    5.80
   4  -2  -1  133.39   10.40
   4  -2  -1  131.89   10.80
   4  -2  -1  130.69   10.10
   4  -2  -1  113.99   10.80
   4  -2  -1  126.19    8.10
  -4   2   1  119.49    9.90
  -4   2   1  116.09   10.80
  -4   2   1  127.19   10.50
  -4   2   1  128.39   10.30
  -4   2   1  106.29    9.50
   3  -2  -1 1650.73   56.59
   3  -2  -1 1667.13   55.99
   3  -2  -1 1649.23   57.29
   3  -2  -1 1662.73   55.09
   3  -2  -1 1657.33   56.29
  -3   2   1 1680.73   56.89
  -3   2   1 1461.55   53.39
  -3   2   1 1656.23   56.29
  -3   2   1 1649.54   55.99
  -3   2   1 1668.83   57.19
   2  -2  -1 1497.95   49.70
   2  -2  -1 1407.46   49.10
   2  -2  -1 1561.24   50.59
   2  -2  -1 1445.56   49.50
   2  -2  -1 1468.85   48.90
  -2   2   1 1439.56   49.50
  -2   2   1 1485.05   50.09
  -2   2   1 1440.46   49.50
  -2   2   1 1561.04   50.39
  -2   2   1 1498.45   49.30
  -2   2   1 1413.86   47.90
   1  -2  -1   72.29    5.10
   1  -2  -1   62.09    4.30
   1  -2  -1   63.39    4.40
   1  -2  -1   63.69    4.30
  -1   2   1   62.99    4.20
  -1   2   1   67.59    4.40
  -1   2   1   67.69    4.30
  -1   2   1   60.99    4.10
  -1   2   1   67.99    5.00
   0  -2  -1   90.59    5.80
   0  -2  -1   82.19    4.40
   0  -2  -1   86.19    4.80
   0   2   1   88.99    4.80
   0   2   1   79.19    3.30
   0   2   1   80.49    5.10
   0   2   1   82.69    4.50
   0   2   1   88.89    4.60
   0   2   1   81.09    3.30
  -1  -2  -1 3459.25  108.49
  -1  -2  -1 3318.27  107.49
  -1  -2  -1 3314.87  109.99
  -1  -2  -1 3371.86  108.59
   1   2   1 3429.96  109.99
   1   2   1 3540.35  108.59
   1   2   1 3300.77  108.59
  -2  -2  -1 1821.92   61.09
  -2  -2  -1 1822.62   63.29
  -2  -2  -1 1872.01   60.99
  -2  -2  -1 1796.12   59.89
  -2  -2  -1 1868.81   60.09
   2   2   1 1840.82   63.09
   2   2   1 1775.32   59.09
   2   2   1 1858.31   60.09
   2   2   1 1810.52   59.29
   2   2   1 1798.22   60.99
   2   2   1 1893.51   61.09
  -4  -2  -1   11.00    4.10
  -4  -2  -1    0.10    3.00
  -4  -2  -1    1.60    4.60
  -4  -2  -1   -2.60    4.70
  -4  -2  -1    2.90    3.40
   4   2   1   -0.40    3.50
   4   2   1    0.70    2.00
   4   2   1    0.30    2.10
   4   2   1    1.30    3.80
   4   2   1   -0.90    4.60
   4   2   1   -1.50    6.20
  -5  -2  -1  115.69   12.30
  -5  -2  -1  128.99    9.10
  -5  -2  -1  113.89   10.50
  -5  -2  -1  106.69   12.50
   5   2   1  112.39   13.50
   5   2   1   95.69   10.60
   5   2   1  100.99    7.60
   5   2   1  113.79   11.30
   5   2   1  113.69   14.70
  -6  -2  -1  603.04   31.30
  -6  -2  -1  629.14   30.50
  -6  -2  -1  657.03   25.50
  -6  -2  -1  626.34   28.90
  -6  -2  -1  548.95   33.60
   6   2   1  648.14   35.70
   6   2   1  589.94   29.70
   6   2   1  655.03   29.50
  -7  -2  -1   -5.10    5.20
  -7  -2  -1    7.70    6.50
  -7  -2  -1    9.40    8.80
  -7  -2  -1    9.80    9.50
   7   2   1    1.40    7.00
   7   2   1    8.20   12.70
  -8  -2  -1   -8.10    5.60
  -8  -2  -1    7.50   10.90
  -8  -2  -1   -5.90    8.70
  -8  -2  -1   -6.80   14.00
   8   2   1   -4.00    8.50
   8   2   1    8.80    8.80
   8   2   1   13.70   10.10
   8   2   1   -8.90    8.70
   7  -3  -1    5.20    8.40
   7  -3  -1    8.80    8.60
   7  -3  -1   18.50    6.30
  -7   3   1   -5.60    7.70
  -7   3   1   11.50    9.30
  -7   3   1    0.80   10.20
   6  -3  -1   23.20    8.60
   6  -3  -1   13.40    5.60
   6  -3  -1   16.00    6.70
  -6   3   1   11.80    7.40
  -6   3   1    8.10    7.00
  -6   3   1   27.10    8.40
   5  -3  -1   -0.10    6.10
   5  -3  -1   -5.50    3.70
   5  -3  -1    9.90    7.00
   5  -3  -1    2.10    5.60
   5  -3  -1    5.70    4.70
  -5   3   1    3.90    5.20
  -5   3   1   -1.80    4.20
  -5   3   1    4.30    5.70
  -5   3   1    2.70    5.70
   4  -3  -1  162.78   11.50
   4  -3  -1  145.79    9.50
   4  -3  -1  143.29   11.10
   4  -3  -1  141.09   12.30
   4  -3  -1  154.38   11.70
  -4   3   1  138.19   11.80
  -4   3   1  137.89    7.10
  -4   3   1  137.39   10.90
  -4   3   1  145.79   11.00
   3  -3  -1  624.84   24.40
   3  -3  -1  627.84   24.50
   3  -3  -1  571.04   24.50
   3  -3  -1  625.04   23.90
   3  -3  -1  636.94   25.60
  -3   3   1  608.64   24.30
  -3   3   1  628.14   24.90
  -3   3   1  634.54   25.50
  -3   3   1  626.24   22.10
  -3   3   1  658.63   24.60
   2  -3  -1 9230.38  297.77
  -2   3   1 9467.85  297.87
   1  -3  -1  687.23   23.80
   1  -3  -1  684.23   23.80
   1  -3  -1  652.03   23.20
  -1   3   1  667.93   23.30
  -1   3   1  679.13   23.70
  -1   3   1  666.03   23.70
  -1   3   1  716.73   24.50
   0  -3  -1    9.10    3.40
   0  -3  -1    7.60    2.40
   0  -3  -1    9.30    2.10
   0   3   1   10.80    2.40
   0   3   1    8.80    2.40
   0   3   1   11.00    2.20
   0   3   1    7.30    1.10
  -2  -3  -1 1600.34   51.59
  -2  -3  -1 1542.45   52.99
  -2  -3  -1 1528.95   55.29
  -2  -3  -1 1600.04   52.69
   2   3   1 1577.94   52.79
   2   3   1 1592.74   55.19
   2   3   1 1534.55   51.59
   2   3   1 1607.24   53.19
   2   3   1 1476.05   50.49
  -3  -3  -1 1913.51   63.89
  -3  -3  -1 1965.50   64.69
  -3  -3  -1 1855.51   62.29
  -3  -3  -1 1895.81   62.89
  -3  -3  -1 1840.82   67.39
   3   3   1 1919.11   67.29
   3   3   1 1915.61   63.09
   3   3   1 1858.21   63.89
   3   3   1 1832.72   64.29
   3   3   1 1797.32   61.59
   3   3   1 1842.12   61.39
  -4  -3  -1  477.55   22.50
  -4  -3  -1  463.95   21.20
  -4  -3  -1  496.55   20.40
  -4  -3  -1  481.55   19.10
   4   3   1  469.75   24.40
   4   3   1  468.05   19.00
   4   3   1  472.85   21.20
   4   3   1  459.15   22.00
   4   3   1  458.75   17.60
   4   3   1  490.55   20.70
  -5  -3  -1  138.99   14.00
  -5  -3  -1  133.29   10.20
  -5  -3  -1  140.89    9.90
  -5  -3  -1  133.39   13.20
   5   3   1  133.19    7.20
   5   3   1  140.69   18.30
   5   3   1  131.49   11.60
   5   3   1  144.99   12.40
   5   3   1  136.89    9.90
   5   3   1  132.49   13.60
  -6  -3  -1   -7.80    8.40
  -6  -3  -1  -11.20    6.80
  -6  -3  -1    3.20    6.20
  -6  -3  -1    7.70    4.70
  -6  -3  -1   11.20    8.80
   6   3   1    8.60    5.10
   6   3   1   18.30    8.20
   6   3   1    9.30    7.50
   6   3   1   10.60   10.60
  -7  -3  -1   40.90   10.00
  -7  -3  -1   40.90   11.30
  -7  -3  -1   32.90    6.60
  -7  -3  -1   53.09   11.90
  -7  -3  -1   33.80    7.90
   7   3   1   32.70    8.40
   7   3   1   31.70   12.90
   7   3   1   42.00   16.70
   7   3   1   33.10    9.20
  -8  -3  -1   -4.10    9.80
  -8  -3  -1    6.40   11.20
  -8  -3  -1   -6.90    5.30
   8   3   1    7.10    9.70
   8   3   1    6.60    9.30
   8   3   1   12.80    8.80
   6  -4  -1   -4.10    4.90
   6  -4  -1   -5.50    6.40
   6  -4  -1    7.40    7.20
   6  -4  -1   -1.70    7.00
  -6   4   1   -1.90    5.50
  -6   4   1    0.30    7.10
  -6   4   1    2.20    8.50
  -6   4   1   -9.90    6.80
   5  -4  -1   -2.60    6.00
   5  -4  -1    1.50    4.90
   5  -4  -1    2.40    6.50
   5  -4  -1    2.00    5.60
   5  -4  -1    7.00    8.90
  -5   4   1    8.70    6.20
  -5   4   1    7.90    6.20
  -5   4   1   10.70    6.50
  -5   4   1    9.20    6.00
  -5   4   1    3.70    2.90
   4  -4  -1    3.30    5.20
   4  -4  -1    0.20    4.30
   4  -4  -1    0.80    4.40
   4  -4  -1    0.50    4.00
  -4   4   1   -4.00    4.70
  -4   4   1   -7.40    5.40
  -4   4   1   -1.60    3.30
  -4   4   1   -0.60    4.90
   3  -4  -1   37.40    5.90
   3  -4  -1   44.10    7.30
   3  -4  -1   43.40    6.00
   3  -4  -1   39.00    5.50
   3  -4  -1   36.00    5.40
  -3   4   1   40.10    5.80
  -3   4   1   38.60    6.60
  -3   4   1   50.69    6.00
  -3   4   1   39.30    5.80
  -3   4   1   36.90    4.70
   2  -4  -1 3327.77  106.19
   2  -4  -1 3188.38  107.19
   2  -4  -1 3246.08  106.69
   2  -4  -1 3301.17  105.79
   2  -4  -1 3126.99  112.39
  -2   4   1 3417.16  106.19
  -2   4   1 3230.08  105.99
  -2   4   1 3240.88  106.59
  -2   4   1 3261.17  107.19
   1  -4  -1  540.55   20.30
   1  -4  -1  524.85   20.20
  -1   4   1  529.75   20.20
  -1   4   1  547.55   20.60
  -1   4   1  570.44   19.40
  -1   4   1  536.65   20.30
   0  -4  -1  148.49    7.60
   0  -4  -1  148.39    8.10
   0  -4  -1  160.28   10.10
   0   4   1  156.48    7.70
   0   4   1  146.29    7.60
   0   4   1  142.19    5.20
   0   4   1  142.99    7.90
  -1  -4  -1    6.70    2.50
  -1  -4  -1    0.70    4.70
  -1  -4  -1    9.50    3.30
   1   4   1    7.20    3.10
   1   4   1    4.00    2.60
   1   4   1    1.30    3.80
   1   4   1    4.70    1.90
  -2  -4  -1  387.76   14.50
  -2  -4  -1  366.36   15.80
  -2  -4  -1  368.16   14.00
  -2  -4  -1  361.06   18.90
  -2  -4  -1  392.66   16.90
   2   4   1  371.46   14.70
   2   4   1  376.86   16.70
   2   4   1  386.76   18.40
   2   4   1  374.16   16.10
  -3  -4  -1  874.11   30.80
  -3  -4  -1  808.32   32.70
  -3  -4  -1  867.81   32.10
  -3  -4  -1  820.22   35.70
   3   4   1  868.81   32.30
   3   4   1  874.01   35.40
   3   4   1  850.71   29.50
   3   4   1  863.61   32.90
   3   4   1  853.71   31.00
  -4  -4  -1  584.04   24.60
  -4  -4  -1  601.14   22.80
  -4  -4  -1  574.84   26.00
  -4  -4  -1  571.34   29.40
  -4  -4  -1  591.24   23.50
   4   4   1  563.84   23.40
   4   4   1  546.85   25.50
   4   4   1  582.84   24.80
   4   4   1  569.14   21.90
   4   4   1  587.24   21.80
   4   4   1  559.14   28.20
  -5  -4  -1   -1.90    3.70
  -5  -4  -1    0.30    6.40
  -5  -4  -1   -0.90    4.70
  -5  -4  -1    0.60    4.40
   5   4   1   -3.10    5.30
   5   4   1   -1.60    3.10
   5   4   1   -4.00    4.20
   5   4   1    3.10    5.30
   5   4   1    2.00    3.00
  -6  -4  -1  102.49   10.00
  -6  -4  -1  102.59   15.20
  -6  -4  -1  101.29   10.30
   6   4   1  119.79   15.90
   6   4   1   75.49    7.20
   6   4   1   65.99   10.90
   6   4   1  103.19   10.30
   6   4   1   98.89   11.10
  -7  -4  -1  136.09   16.10
  -7  -4  -1  133.39   12.40
  -7  -4  -1  164.78   18.90
  -7  -4  -1  156.58   19.40
   7   4   1  157.38   17.30
   7   4   1  116.29   18.80
   7   4   1  154.08   21.60
   7   4   1  120.59   13.90
  -8  -4  -1   34.70   10.20
  -8  -4  -1   27.20    6.90
  -8  -4  -1   39.90   13.70
   8   4   1   35.60    9.20
   8   4   1   36.60   11.10
   8   4   1   31.90   10.60
   6  -5  -1    4.40    9.20
   6  -5  -1    3.80    7.00
   6  -5  -1   15.50    7.50
   6  -5  -1   21.40    8.70
   6  -5  -1   15.10    9.30
  -6   5   1    8.00    8.40
  -6   5   1    8.60    9.20
  -6   5   1    0.10    7.70
  -6   5   1    1.00    7.00
   5  -5  -1   -4.20    7.30
   5  -5  -1    0.70    6.10
   5  -5  -1   -2.90    5.30
   5  -5  -1   -0.90    6.20
   5  -5  -1   -4.70    5.60
  -5   5   1   12.10    6.50
  -5   5   1    4.70    5.70
  -5   5   1    1.60    6.40
  -5   5   1    4.20    4.00
   4  -5  -1  132.49   11.60
   4  -5  -1  117.29   11.90
   4  -5  -1  109.89   10.50
   4  -5  -1  129.29   11.80
  -4   5   1  138.59   11.80
  -4   5   1   87.39   11.20
  -4   5   1  119.79    8.80
  -4   5   1  117.39   11.70
   3  -5  -1  968.30   36.60
   3  -5  -1  993.30   35.30
   3  -5  -1  922.01   37.00
   3  -5  -1 1009.00   36.50
   3  -5  -1  952.70   35.60
  -3   5   1  964.50   35.70
  -3   5   1  987.80   35.70
  -3   5   1  886.11   36.20
  -3   5   1  950.40   34.40
   2  -5  -1 1164.88   42.20
   2  -5  -1 1154.58   41.80
   2  -5  -1 1193.48   41.50
  -2   5   1 1219.58   41.50
  -2   5   1 1140.79   40.70
  -2   5   1 1219.48   42.30
  -2   5   1 1122.09   41.50
   1  -5  -1   46.90    7.00
   1  -5  -1   52.39    5.80
  -1   5   1   54.79    4.60
  -1   5   1   49.50    5.90
  -1   5   1   51.49    6.20
  -1   5   1   59.99    7.00
   0  -5  -1  176.28   12.00
   0  -5  -1  177.08    9.20
   0  -5  -1  166.18    9.80
   0   5   1  162.18    5.90
   0   5   1  176.28   10.00
   0   5   1  169.08    8.50
   0   5   1  175.08    9.30
  -1  -5  -1    3.40    3.50
  -1  -5  -1    1.30    5.70
  -1  -5  -1    5.50    2.80
   1   5   1    7.50    3.10
   1   5   1    7.60    4.70
   1   5   1    6.60    3.60
  -2  -5  -1   72.49   10.80
  -2  -5  -1   82.19    5.80
  -2  -5  -1   86.79    9.00
  -2  -5  -1   94.69    9.40
   2   5   1   84.29    7.60
   2   5   1   87.39    6.60
   2   5   1   92.39    9.80
   2   5   1   89.69    8.80
  -3  -5  -1   76.89    6.20
  -3  -5  -1   74.49   10.00
  -3  -5  -1   73.99    7.90
  -3  -5  -1   59.19   11.70
  -3  -5  -1   66.29    6.00
   3   5   1   76.39    9.60
   3   5   1   73.79    8.20
   3   5   1   53.49    9.70
   3   5   1   60.89    7.10
  -4  -5  -1  468.15   27.40
  -4  -5  -1  522.55   22.90
  -4  -5  -1  520.15   21.30
  -4  -5  -1  514.55   24.50
  -4  -5  -1  520.65   21.50
   4   5   1  543.45   27.30
   4   5   1  525.55   23.30
   4   5   1  518.05   20.60
   4   5   1  504.35   19.80
   4   5   1  503.45   22.10
   4   5   1  520.55   24.60
  -5  -5  -1   -2.00    6.80
  -5  -5  -1    3.00    4.20
  -5  -5  -1   -1.30   10.50
  -5  -5  -1    4.00    4.80
  -5  -5  -1    2.10    4.90
   5   5   1    2.10    3.20
   5   5   1    6.10    3.80
   5   5   1    6.50    9.80
   5   5   1   -1.10    5.20
   5   5   1    2.90    6.80
   5   5   1    0.60    4.90
  -6  -5  -1   40.50    8.30
  -6  -5  -1   47.00   11.00
  -6  -5  -1   58.29    9.60
  -6  -5  -1   35.80   11.10
  -6  -5  -1   38.70    9.20
   6   5   1   64.49   15.90
   6   5   1   69.99   11.80
   6   5   1   66.79    8.70
   6   5   1   45.00    9.30
   6   5   1   65.79    7.60
   6   5   1   59.19   10.10
  -7  -5  -1  683.33   32.90
  -7  -5  -1  763.12   38.20
  -7  -5  -1  696.93   41.10
  -7  -5  -1  692.93   34.00
  -7  -5  -1  709.13   28.90
   7   5   1  738.23   34.50
   7   5   1  657.43   26.10
   7   5   1  706.43   40.90
   7   5   1  670.93   37.70
   7   5   1  712.83   30.60
   7   5   1  796.72   40.00
  -8  -5  -1   89.39   15.40
  -8  -5  -1   87.29   11.90
  -8  -5  -1   92.39   17.50
   8   5   1   94.99   16.00
   8   5   1  120.49   19.90
   8   5   1  106.99   16.70
   8   5   1  138.49   22.10
   5  -6  -1   14.60    7.20
   5  -6  -1   14.70    6.80
   5  -6  -1    5.10    6.40
  -5   6   1   17.20    5.60
  -5   6   1   17.80    7.20
  -5   6   1   15.00    5.70
  -5   6   1    9.00    7.30
   4  -6  -1   13.20    6.60
   4  -6  -1    4.40    5.70
   4  -6  -1   -5.00    5.60
   4  -6  -1   -3.40    4.80
  -4   6   1    3.90    5.20
  -4   6   1    7.20    6.20
  -4   6   1    0.00    5.60
  -4   6   1    0.60    4.20
  -4   6   1    1.20    4.80
   3  -6  -1   -6.40    4.10
   3  -6  -1    2.70    4.90
   3  -6  -1    3.90    5.30
   3  -6  -1    4.40    4.00
  -3   6   1   -4.50    4.10
  -3   6   1    6.50    5.30
  -3   6   1   -6.60    4.00
  -3   6   1   -6.70    3.90
  -3   6   1   -8.30    4.50
   2  -6  -1  113.09   16.10
   2  -6  -1  114.99    9.30
   2  -6  -1  133.99   10.30
  -2   6   1  134.59   10.20
  -2   6   1  137.89    8.60
  -2   6   1  140.29    9.20
  -2   6   1  115.19   10.60
   1  -6  -1 2545.85   85.19
   1  -6  -1 2430.96   81.29
   1  -6  -1 2371.76   81.29
  -1   6   1 2383.66   81.59
  -1   6   1 2420.56   81.19
  -1   6   1 2508.25   81.39
  -1   6   1 2399.66   79.49
   0  -6  -1   15.70    7.10
   0  -6  -1    9.10    3.20
  -1  -6  -1  319.67   14.60
  -1  -6  -1  303.27   15.70
  -1  -6  -1  324.07   18.40
   1   6   1  297.07   15.40
   1   6   1  312.47   14.70
   1   6   1  344.27   17.00
  -2  -6  -1 2177.78   72.89
  -2  -6  -1 2228.88   75.89
  -2  -6  -1 2252.07   74.89
  -2  -6  -1 2151.18   78.99
   2   6   1 2251.07   77.69
   2   6   1 2236.28   75.79
   2   6   1 2155.68   72.89
   2   6   1 2319.17   75.29
  -3  -6  -1  837.02   37.90
  -3  -6  -1  875.51   33.20
  -3  -6  -1  848.62   30.60
  -3  -6  -1  898.01   34.90
   3   6   1  825.32   33.30
   3   6   1  881.81   34.70
   3   6   1  867.91   31.80
  -4  -6  -1  586.84   32.10
  -4  -6  -1  634.94   28.80
  -4  -6  -1  624.34   24.90
   4   6   1  648.74   27.60
   4   6   1  624.44   25.90
   4   6   1  599.24   28.50
   4   6   1  654.83   31.10
  -5  -6  -1   21.90    5.60
  -5  -6  -1   17.00   12.60
  -5  -6  -1   21.80    8.40
  -5  -6  -1   23.00    6.60
   5   6   1   23.80    4.50
   5   6   1   24.50    8.70
   5   6   1   22.80    7.10
   5   6   1   25.30    5.40
   5   6   1   22.10    9.30
   5   6   1   25.50    7.00
  -6  -6  -1    9.00    5.70
  -6  -6  -1    3.60    5.90
  -6  -6  -1   -6.90    6.70
  -6  -6  -1    5.10    8.90
   6   6   1    7.20    8.10
   6   6   1    1.70    7.00
   6   6   1   13.60    4.30
   6   6   1    3.50    5.10
   6   6   1    4.70    8.30
   6   6   1   16.00   11.00
  -7  -6  -1    0.80    9.60
  -7  -6  -1   19.70   11.20
  -7  -6  -1   -6.60    7.00
  -7  -6  -1    1.50    6.50
  -7  -6  -1  -10.80    7.40
   7   6   1    1.00    5.10
   7   6   1   29.10   13.60
   7   6   1   -4.10    9.80
   7   6   1   10.60    8.60
   5  -7  -1  -14.40    7.80
   5  -7  -1    3.10    7.40
   5  -7  -1    0.20    6.50
   5  -7  -1   -1.60    2.50
   5  -7  -1   -7.40    7.10
  -5   7   1    3.40    7.80
  -5   7   1    3.80    6.00
   4  -7  -1    7.30    6.50
   4  -7  -1    9.70    5.60
   4  -7  -1    3.20    7.20
   4  -7  -1   13.40    8.70
  -4   7   1   10.90    6.30
  -4   7   1    1.40    7.10
  -4   7   1    2.10    5.60
  -4   7   1   16.20    7.50
   3  -7  -1    4.70    4.70
   3  -7  -1   -6.70    5.30
   3  -7  -1    8.40    6.10
  -3   7   1   -4.90    4.90
  -3   7   1   -5.00    4.90
  -3   7   1    3.00    4.00
  -3   7   1    2.20    5.90
  -3   7   1   -2.90    4.90
   2  -7  -1  186.18   12.30
   2  -7  -1  178.88   13.50
  -2   7   1  181.08   10.60
  -2   7   1  190.08   12.50
  -2   7   1  182.48   13.30
  -2   7   1  170.98   12.30
   1  -7  -1  591.64   24.40
   1  -7  -1  597.24   25.10
   1  -7  -1  632.64   28.90
  -1   7   1  577.44   24.10
  -1   7   1  596.24   22.30
  -1   7   1  610.94   25.10
   0  -7  -1   89.29    9.80
   0  -7  -1   84.79   11.70
   0  -7  -1   82.49    7.80
   0   7   1   86.69    7.70
   0   7   1   90.79    9.70
   0   7   1   90.99    8.70
  -1  -7  -1  205.38   13.70
  -1  -7  -1  222.88   16.40
  -1  -7  -1  218.88   12.30
   1   7   1  230.88   13.90
   1   7   1  228.08   12.80
  -2  -7  -1    1.30    7.70
  -2  -7  -1    5.30    3.60
  -2  -7  -1    7.10    5.30
  -2  -7  -1   -0.70    3.20
   2   7   1   -3.20    5.60
   2   7   1    1.00    3.20
   2   7   1    5.60    5.00
   2   7   1    4.20    3.90
  -3  -7  -1   56.19    6.70
  -3  -7  -1   50.29   12.30
  -3  -7  -1   55.39    8.60
  -3  -7  -1   60.09    8.70
   3   7   1   54.59    8.70
   3   7   1   66.89    8.10
   3   7   1   54.79   10.70
   3   7   1   63.29    9.30
  -4  -7  -1  166.18   10.40
  -4  -7  -1  170.68   13.10
  -4  -7  -1  142.79   18.10
  -4  -7  -1  154.88   15.60
   4   7   1  171.78   15.80
   4   7   1  164.98   13.50
   4   7   1  152.58   17.30
   4   7   1  170.58   12.10
  -5  -7  -1    0.40    5.90
  -5  -7  -1   13.10    8.40
  -5  -7  -1   16.00   13.20
  -5  -7  -1    5.20    5.60
   5   7   1   14.30    5.50
   5   7   1    9.20    6.20
   5   7   1   10.00    8.20
   5   7   1    7.10    6.30
   5   7   1    6.50   10.10
  -6  -7  -1   28.20   10.10
  -6  -7  -1   18.80    6.80
  -6  -7  -1   22.30    6.90
  -6  -7  -1   20.20   15.70
  -6  -7  -1   13.20   10.30
   6   7   1   12.70    9.80
   6   7   1   21.50    5.00
   6   7   1   34.10    7.70
   6   7   1   27.80   12.30
   6   7   1   12.30    8.10
   6   7   1   29.60    9.20
  -7  -7  -1   13.50    7.00
  -7  -7  -1   16.50   10.70
  -7  -7  -1    3.90    8.20
  -7  -7  -1    5.70   11.40
  -7  -7  -1    0.60    9.70
   7   7   1    5.70    9.50
   7   7   1   37.00   14.60
   7   7   1   12.00    6.90
   7   7   1   13.20    6.30
   7   7   1    8.10    9.20
   7   7   1   16.50    9.70
   4  -8  -1   29.60    8.10
   4  -8  -1    9.60    8.60
   4  -8  -1    6.20    7.50
  -4   8   1   34.20    8.40
  -4   8   1   18.70    8.70
  -4   8   1   32.80    7.50
  -4   8   1   26.40    6.90
  -4   8   1   23.90    7.70
   3  -8  -1   20.20    7.20
   3  -8  -1   13.40    7.60
   3  -8  -1   12.40    6.00
   3  -8  -1   12.00    7.30
  -3   8   1   22.40    5.60
  -3   8   1    8.40    6.00
  -3   8   1   22.50    7.60
  -3   8   1   16.50    6.60
   2  -8  -1  212.68   14.10
   2  -8  -1  227.18   15.60
   2  -8  -1  237.78   19.90
  -2   8   1  243.18   16.30
  -2   8   1  232.88   15.30
  -2   8   1  196.68   13.90
  -2   8   1  210.08   12.20
   1  -8  -1   63.59   12.80
   1  -8  -1   62.29    8.50
   1  -8  -1   59.49    8.30
  -1   8   1   57.99    8.20
  -1   8   1   51.29    6.20
  -1   8   1   65.79    9.40
  -1   8   1   66.59   10.50
   0  -8  -1   20.90    6.50
   0  -8  -1   18.90    5.00
   0  -8  -1   27.00    9.80
   0   8   1   25.20    3.50
   0   8   1   25.60    5.60
   0   8   1   24.70    6.60
   0   8   1   25.40    5.30
  -1  -8  -1  249.48   19.00
  -1  -8  -1  259.57   14.30
  -1  -8  -1  262.47   16.50
   1   8   1  247.18   16.00
   1   8   1  261.97   15.10
  -2  -8  -1  228.78   15.80
  -2  -8  -1  210.58   12.20
  -2  -8  -1  196.98   18.10
  -2  -8  -1  218.78   13.30
   2   8   1  198.78   11.10
   2   8   1  213.08   15.90
   2   8   1  213.38   13.80
   2   8   1  208.88   15.80
  -3  -8  -1  265.77   18.50
  -3  -8  -1  240.18   21.30
  -3  -8  -1  262.97   13.60
   3   8   1  269.37   16.20
   3   8   1  275.07   18.40
   3   8   1  258.87   14.10
   3   8   1  235.98   20.50
  -4  -8  -1   20.00    8.60
  -4  -8  -1   20.60    6.30
  -4  -8  -1   19.50   12.60
  -4  -8  -1   10.40    4.60
   4   8   1   11.80    9.00
   4   8   1   25.30    6.50
   4   8   1   21.30    8.50
   4   8   1   21.90    7.00
  -5  -8  -1   34.60   15.20
  -5  -8  -1   33.50    8.10
  -5  -8  -1   33.20   10.30
   5   8   1   42.90   10.80
   5   8   1   52.19   12.70
   5   8   1   27.90    8.50
   5   8   1   20.90    8.10
   5   8   1   50.89    8.50
  -6  -8  -1    9.80    7.20
  -6  -8  -1   -7.00    7.40
  -6  -8  -1    4.00    9.70
  -6  -8  -1   10.20   15.10
   6   8   1   -0.90    7.60
   6   8   1    7.90    8.10
   6   8   1   14.10    7.30
   6   8   1   11.60   12.50
  -7  -8  -1   67.09   10.10
  -7  -8  -1   53.29   17.10
  -7  -8  -1   79.89   15.80
   7   8   1   60.29   16.30
   7   8   1   67.19   12.80
   7   8   1   74.89   12.30
   7   8   1   71.49   14.20
   7   8   1   75.49   13.00
   4  -9  -1    4.60    8.40
   4  -9  -1  -19.00    8.40
   4  -9  -1   -2.80    9.40
  -4   9   1    5.70    7.20
  -4   9   1   -1.10    7.80
  -4   9   1  -16.10    8.20
  -4   9   1   -3.50    7.60
   3  -9  -1   12.30    7.00
   3  -9  -1    2.60    7.90
   3  -9  -1   11.30    7.90
  -3   9   1   10.90    5.80
  -3   9   1   28.40    9.40
  -3   9   1    9.00    6.90
  -3   9   1    9.80    7.60
   2  -9  -1  144.29   14.00
   2  -9  -1  159.98   18.90
   2  -9  -1  128.79   14.70
  -2   9   1  137.99   15.70
  -2   9   1  111.19    9.50
  -2   9   1  122.79   11.20
   1  -9  -1   96.19   16.00
   1  -9  -1   91.99   13.50
   1  -9  -1   90.29   10.50
  -1   9   1   71.39    9.60
  -1   9   1   77.59    7.40
  -1   9   1   87.79   13.50
   0  -9  -1  165.58   15.00
   0  -9  -1  187.88   17.90
   0  -9  -1  187.48   13.00
   0   9   1  165.58   11.90
   0   9   1  180.58   15.60
   0   9   1  166.48    9.10
  -1  -9  -1    1.50    4.80
  -1  -9  -1   -5.00    6.00
  -1  -9  -1   -4.50    8.70
   1   9   1   -3.10    6.50
   1   9   1   -5.30    4.80
  -2  -9  -1   12.40    7.00
  -2  -9  -1   -0.60    9.90
  -2  -9  -1    6.70    4.70
   2   9   1    6.70    7.40
   2   9   1    6.00    5.50
   2   9   1    1.00    7.60
   2   9   1    2.20    4.30
  -3  -9  -1  297.37   15.70
  -3  -9  -1  298.87   18.00
  -3  -9  -1  323.27   21.30
  -3  -9  -1  293.17   24.30
   3   9   1  340.67   21.60
   3   9   1  309.97   16.20
   3   9   1  298.77   20.60
   3   9   1  304.37   18.60
  -4  -9  -1   10.20   11.90
  -4  -9  -1    2.50    8.30
  -4  -9  -1    0.00    5.80
  -4  -9  -1    7.70    5.20
   4   9   1   -3.90    6.60
   4   9   1   12.10    8.70
   4   9   1   -3.70    8.50
   4   9   1    1.20    6.10
  -5  -9  -1   45.60    9.80
  -5  -9  -1   49.70   11.90
  -5  -9  -1   63.19   16.80
   5   9   1   47.40    9.20
   5   9   1   59.69    9.80
   5   9   1   42.50   11.70
   5   9   1   52.79   14.40
   5   9   1   33.00    9.60
  -6  -9  -1   -4.00    7.30
  -6  -9  -1    3.10   19.00
  -6  -9  -1  -12.70    7.70
   6   9   1   -0.70    8.70
   6   9   1  -16.20   10.60
   6   9   1  -14.30   12.10
   6   9   1    0.20    7.50
   6   9   1  -19.00    8.70
   3 -10  -1   94.49   15.90
   3 -10  -1   94.09   18.40
   3 -10  -1   68.19   11.70
   3 -10  -1   57.29   10.60
  -3  10   1   53.69   12.00
  -3  10   1   88.19   14.10
  -3  10   1   89.29   12.00
  -3  10   1   85.49   11.60
   2 -10  -1  150.88   21.00
   2 -10  -1  151.98   16.60
   2 -10  -1  137.29   14.90
  -2  10   1  128.19   15.40
  -2  10   1  176.38   13.60
  -2  10   1  149.59   14.70
  -2  10   1  162.38   11.00
  -2  10   1  150.48   18.60
   1 -10  -1   85.19   16.30
   1 -10  -1   90.39   12.00
  -1  10   1   65.39    7.40
  -1  10   1   71.09   11.40
  -1  10   1   68.59    9.70
   0 -10  -1   99.69   16.90
   0 -10  -1   93.89   11.70
   0 -10  -1   83.29   14.30
   0  10   1   76.99    9.60
   0  10   1   89.19   11.90
   0  10   1   87.99    7.00
  -1 -10  -1   29.60   12.70
  -1 -10  -1   13.60    6.40
  -1 -10  -1   22.30    8.80
   1  10   1   14.40    8.20
  -2 -10  -1   32.20    9.50
  -2 -10  -1   31.90   13.40
  -2 -10  -1   17.80    6.70
  -2 -10  -1   22.40    6.60
   2  10   1   36.00    8.20
   2  10   1   27.00    5.80
   2  10   1   24.50    9.20
  -3 -10  -1   37.70    7.10
  -3 -10  -1   29.60    8.00
  -3 -10  -1   59.99   14.80
  -3 -10  -1   44.00   10.80
   3  10   1   41.10    7.30
   3  10   1   48.20   11.60
   3  10   1   35.10    8.70
   3  10   1   50.49   11.20
  -4 -10  -1    3.40   13.00
  -4 -10  -1    4.10    6.90
  -4 -10  -1   11.20    9.30
  -4 -10  -1    7.90    5.60
   4  10   1    0.20    7.70
   4  10   1    3.00    9.80
   4  10   1    3.30    6.90
   4  10   1   15.80    9.80
  -5 -10  -1    5.60   17.80
  -5 -10  -1    5.50    8.30
  -5 -10  -1   -6.70   11.10
   5  10   1   12.50    7.60
   5  10   1   16.50   17.30
   5  10   1   -9.70    8.30
   5  10   1   18.80   12.40
   5  10   1   27.60    9.40
  -6 -10  -1   -7.80   10.40
  -6 -10  -1   -0.60    8.50
  -6 -10  -1  -14.10   16.20
  -6 -10  -1   -4.80    9.00
   6  10   1    2.30    9.30
   6  10   1   -9.60   13.30
   6  10   1  -19.70    9.20
   6  10   1    3.20   10.80
   6  10   1   -4.30    8.50
   2 -11  -1    1.90    8.70
   2 -11  -1    5.20   12.50
   2 -11  -1    2.30    7.90
  -2  11   1    9.60    7.00
  -2  11   1    8.80    9.90
   1 -11  -1   38.40   10.10
   1 -11  -1   39.20   14.50
   1 -11  -1   24.70    7.50
  -1  11   1   31.50   10.70
  -1  11   1   35.00    8.10
  -1  11   1   36.40    7.30
  -1  11   1   30.50    5.10
   0 -11  -1   -2.30    7.90
   0 -11  -1   -5.30    5.40
   0  11   1   -5.80    4.60
   0  11   1    1.20    8.80
   0  11   1    1.90    3.70
   0  11   1    1.70    7.60
  -1 -11  -1   -3.30    8.40
  -1 -11  -1   -4.50    6.10
  -1 -11  -1    5.10   12.50
   1  11   1    2.90    4.70
   1  11   1   -8.30    8.50
  -2 -11  -1  -12.10    8.00
  -2 -11  -1    1.30   12.70
  -2 -11  -1  -11.20    6.00
  -2 -11  -1   -4.70    6.00
   2  11   1    0.40    5.20
   2  11   1  -17.20    8.30
   2  11   1   -6.70    7.10
  -3 -11  -1   47.10   16.50
  -3 -11  -1   48.40   11.80
  -3 -11  -1   44.50    8.00
  -3 -11  -1   32.00    9.10
   3  11   1   46.90    7.80
   3  11   1   45.70   11.80
   3  11   1   54.69   13.80
   3  11   1   29.90   10.60
  -4 -11  -1  303.87   21.60
  -4 -11  -1  356.36   26.20
  -4 -11  -1  333.77   18.30
   4  11   1  307.47   22.00
   4  11   1  348.97   22.80
   4  11   1  358.46   20.10
   4  11   1  310.17   25.70
  -5 -11  -1    3.60   10.80
  -5 -11  -1   29.50   16.80
  -5 -11  -1  -12.00    8.40
  -5 -11  -1   15.00    6.60
   5  11   1   16.70    8.80
   5  11   1    2.10   12.80
   5  11   1    8.90   11.40
   5  11   1   -9.50    9.10
   5  11   1   26.40   10.40
   0 -12  -1    8.10   13.20
   0 -12  -1    9.70   10.30
   0 -12  -1   24.00    8.60
   0  12   1    9.80    4.50
   0  12   1    5.00   10.90
  -1 -12  -1    3.50    7.50
  -1 -12  -1   11.80   14.10
   1  12   1    9.40   11.00
   1  12   1   16.60    4.30
   1  12   1   13.60    5.70
  -2 -12  -1   -3.10    9.60
  -2 -12  -1   -9.90   12.70
   2  12   1  -11.80    5.40
   2  12   1  -12.20   10.60
  -3 -12  -1   37.00   16.60
  -3 -12  -1   20.90   10.70
  -3 -12  -1   20.50    9.70
  -3 -12  -1   35.80    8.60
   3  12   1   34.60    8.00
   3  12   1   29.40   14.50
  -4 -12  -1  143.49   14.60
  -4 -12  -1  182.98   25.00
  -4 -12  -1  210.38   22.80
  -4 -12  -1  130.79   22.10
   4  12   1  152.88   15.30
   4  12   1  150.98   18.20
   4  12   1  130.49   20.60
   4  12   1  202.68   23.20
   3  11  -2  300.97   21.00
   3  11  -2  332.87   25.90
  -3 -11   2  331.57   22.20
  -3 -11   2  322.57   26.70
  -3 -11   2  254.67   21.10
  -3 -11   2  346.07   29.90
   2  11  -2   48.00   12.10
   2  11  -2   20.70    8.70
   2  11  -2   19.40    5.30
   2  11  -2   10.30    9.10
  -2 -11   2    6.10    8.90
  -2 -11   2   21.80   13.90
  -2 -11   2   -0.20    8.40
  -2 -11   2   -2.00    8.20
  -2 -11   2   22.10   10.60
   1  11  -2   -2.20    3.00
   1  11  -2   -2.70    7.40
   1  11  -2   -8.50    9.20
  -1 -11   2  -11.70   11.90
  -1 -11   2   -8.40    9.40
  -1 -11   2   -5.90    7.80
  -1 -11   2   -9.60    8.70
  -1 -11   2   -1.20    8.00
   0  11  -2  -13.30   10.90
   0  11  -2  -13.00    7.90
   0 -11   2   -9.40    9.20
   0 -11   2  -17.30   11.60
   0 -11   2   -3.70    7.70
  -1  11  -2   -3.60    9.70
  -1  11  -2   -8.00    4.80
  -1  11  -2   10.40    6.80
   1 -11   2    5.60   10.00
   1 -11   2   -0.70    8.30
   5  10  -2    0.70    9.30
   5  10  -2   -1.20   10.50
   5  10  -2    1.00   11.50
   5  10  -2    3.10   10.10
  -5 -10   2    0.60    8.70
  -5 -10   2  -12.80    6.10
  -5 -10   2    2.60   12.10
  -5 -10   2   -4.00   15.70
   4  10  -2   11.20   10.10
   4  10  -2    5.10    9.50
   4  10  -2    0.90    9.00
   4  10  -2    1.20    9.90
  -4 -10   2   16.30    8.60
  -4 -10   2   17.80    8.90
  -4 -10   2   13.70   14.50
  -4 -10   2   40.00   15.50
  -4 -10   2    6.20    6.80
   3  10  -2   37.80    9.10
   3  10  -2   32.30   12.60
   3  10  -2   31.90    9.30
   3  10  -2   46.00   10.50
  -3 -10   2   52.69    9.70
  -3 -10   2   39.90   11.60
  -3 -10   2   48.50   15.60
  -3 -10   2   19.20    8.40
   2  10  -2    3.70    7.20
   2  10  -2    1.00    8.80
   2  10  -2   -3.50    6.90
  -2 -10   2    9.70   10.40
  -2 -10   2   -9.00    6.30
  -2 -10   2    6.70    9.30
  -2 -10   2    2.70    6.90
  -2 -10   2    2.80    7.80
   1  10  -2   48.80   10.80
   1  10  -2   30.00    8.90
   1  10  -2   41.60    5.80
  -1 -10   2   45.90    9.90
  -1 -10   2   43.00    8.80
  -1 -10   2   37.90   11.10
  -1 -10   2   44.00   12.80
   0  10  -2    5.90    7.10
   0  10  -2    3.90    8.50
   0 -10   2   -5.80    6.00
   0 -10   2   14.10   10.40
   0 -10   2   10.00    7.90
  -1  10  -2    2.70    4.40
  -1  10  -2   -0.70    7.50
  -1  10  -2   -7.70    8.50
  -1  10  -2    6.30    5.80
   1 -10   2   -2.10    7.50
   1 -10   2   14.60   10.90
   1 -10   2   -9.10    7.70
   1 -10   2   -2.20    8.50
  -2  10  -2    7.40   10.10
  -2  10  -2   19.90    8.40
  -2  10  -2   28.10    7.50
  -2  10  -2   17.80    6.20
   2 -10   2    2.00   13.70
   2 -10   2   23.50   10.10
   2 -10   2    8.50    9.50
   2 -10   2   30.70    9.30
   5   9  -2   -0.10    9.30
   5   9  -2   -2.00    8.60
  -5  -9   2   -4.50   11.10
  -5  -9   2   -3.00    8.00
  -5  -9   2   10.50   14.30
  -5  -9   2  -15.50    7.10
   4   9  -2   -0.60    8.50
   4   9  -2    2.40    7.20
   4   9  -2   -1.60    7.10
  -4  -9   2   -1.20    9.50
  -4  -9   2    8.70   11.90
  -4  -9   2  -10.70    6.10
  -4  -9   2    4.40    7.40
   3   9  -2   52.49    9.30
   3   9  -2   61.89   11.40
   3   9  -2   55.09   11.20
  -3  -9   2   53.69    9.50
  -3  -9   2   48.00   11.20
  -3  -9   2   81.89   12.20
  -3  -9   2   54.39   14.90
   2   9  -2   35.40    9.20
   2   9  -2   28.00    7.70
   2   9  -2   36.60    7.80
  -2  -9   2   28.10    7.30
  -2  -9   2   47.40   12.40
  -2  -9   2   37.30   10.00
  -2  -9   2   27.20    7.40
  -2  -9   2   39.10    8.90
   1   9  -2    1.80    7.20
   1   9  -2   -3.60    2.80
   1   9  -2    6.20    6.10
  -1  -9   2    1.60    7.50
  -1  -9   2   -2.90    5.60
  -1  -9   2   -2.60    6.60
  -1  -9   2    1.40    9.30
  -1  -9   2   -7.20    5.30
   0   9  -2   -5.30    5.90
   0   9  -2   -2.50    7.00
   0  -9   2    0.20    5.50
   0  -9   2    1.20    6.20
   0  -9   2    3.20    7.60
   0  -9   2    2.00    9.30
  -1   9  -2   14.70    8.00
  -1   9  -2   24.70    7.40
  -1   9  -2   24.80    5.30
   1  -9   2   13.90    6.60
   1  -9   2   21.30   11.10
   1  -9   2   10.40    8.60
  -2   9  -2    8.70    4.30
  -2   9  -2    7.20    7.90
  -2   9  -2   18.10    7.70
  -2   9  -2   18.70    6.50
   2  -9   2   16.20   10.90
   2  -9   2    6.90    6.80
  -3   9  -2  499.95   27.40
  -3   9  -2  431.46   22.10
  -3   9  -2  470.15   26.10
  -3   9  -2  464.15   23.90
   3  -9   2  478.85   26.60
   3  -9   2  521.25   35.00
   3  -9   2  432.46   23.70
   3  -9   2  516.15   27.10
   3  -9   2  394.66   26.40
   6   8  -2   -8.40    8.30
   6   8  -2    7.00   12.50
   6   8  -2    9.70   10.20
   6   8  -2    0.10    9.60
  -6  -8   2   -2.70    7.80
  -6  -8   2    0.30   11.70
  -6  -8   2    4.90    5.60
  -6  -8   2   -4.70   11.40
   5   8  -2   27.40   10.70
   5   8  -2    9.10    7.90
   5   8  -2   14.30    9.80
   5   8  -2   32.70    9.70
  -5  -8   2   24.20   13.70
  -5  -8   2    4.30    7.60
  -5  -8   2   23.20   10.90
  -5  -8   2   23.40    7.80
   4   8  -2   20.40    9.30
   4   8  -2   44.60    9.50
   4   8  -2   27.50   10.20
   4   8  -2   22.40    7.80
  -4  -8   2   47.40   13.90
  -4  -8   2   28.80    7.40
  -4  -8   2   34.30   10.50
  -4  -8   2   30.80    8.20
   3   8  -2   -0.90    6.80
   3   8  -2   -3.00    6.90
   3   8  -2   -1.90    6.00
   3   8  -2   -3.00    5.60
  -3  -8   2    1.20   10.80
  -3  -8   2   -7.00    7.50
  -3  -8   2   -4.70    5.70
  -3  -8   2   -3.00    5.30
   2   8  -2 2183.28   77.49
   2   8  -2 2461.95   80.59
   2   8  -2 2228.98   80.19
   2   8  -2 2288.47   79.09
  -2  -8   2 2249.07   81.89
  -2  -8   2 2283.57   78.99
  -2  -8   2 2195.88   80.49
  -2  -8   2 2262.27   83.29
   1   8  -2  203.38   14.10
   1   8  -2  188.98   15.70
  -1  -8   2  205.38   16.50
  -1  -8   2  166.98   13.60
  -1  -8   2  193.98   13.60
  -1  -8   2  171.88   16.90
   0   8  -2   10.90    6.50
   0   8  -2   12.60    6.10
   0   8  -2   10.60    2.30
   0  -8   2   13.90    5.70
   0  -8   2   14.20    7.00
   0  -8   2    4.30    6.00
   0  -8   2   11.40    9.00
  -1   8  -2   10.40    6.60
  -1   8  -2    9.20    5.40
  -1   8  -2    5.60    3.80
   1  -8   2    8.50    8.90
   1  -8   2    6.10    5.40
   1  -8   2    7.70    6.60
   1  -8   2   -2.30    6.30
  -2   8  -2   32.90    7.60
  -2   8  -2   29.60    8.30
  -2   8  -2   30.60    5.90
   2  -8   2   30.50    7.40
   2  -8   2   18.00    8.20
   2  -8   2   37.50   10.90
  -3   8  -2    4.20    4.70
  -3   8  -2   15.10    6.40
  -3   8  -2    3.90    8.00
   3  -8   2    9.30    7.20
   3  -8   2   13.40    6.60
   3  -8   2    5.30    5.40
  -4   8  -2    6.90    8.90
  -4   8  -2   26.50    9.50
  -4   8  -2   15.70    7.40
  -4   8  -2   10.10    5.80
   4  -8   2   14.20    9.30
   4  -8   2    9.00    8.00
   4  -8   2    5.10    7.60
   4  -8   2   31.90    8.60
   6   7  -2   17.00    9.10
   6   7  -2   22.20   11.30
   6   7  -2    0.70    9.40
   6   7  -2   -6.40    6.80
   6   7  -2   -0.30    7.50
  -6  -7   2    5.80    7.90
  -6  -7   2    3.50    9.80
  -6  -7   2    2.20    4.10
  -6  -7   2    5.80   11.00
   5   7  -2  -13.30    7.90
   5   7  -2  -11.30    7.20
   5   7  -2   -7.50    8.60
   5   7  -2   -6.50    5.90
  -5  -7   2  -11.30    8.20
   4   7  -2   77.29   11.80
   4   7  -2   70.09   12.20
   4   7  -2   60.99    9.50
   4   7  -2   61.39   10.60
  -4  -7   2   43.40   10.80
  -4  -7   2   48.40    8.40
  -4  -7   2   64.99   14.70
  -4  -7   2   58.49    9.10
   3   7  -2  394.16   21.70
   3   7  -2  365.66   20.60
   3   7  -2  389.16   21.80
   3   7  -2  396.06   19.70
  -3  -7   2  378.46   23.60
  -3  -7   2  375.96   22.00
  -3  -7   2  367.36   20.00
  -3  -7   2  393.36   19.40
   2   7  -2  241.88   14.70
   2   7  -2  241.98   16.30
   2   7  -2  224.78   14.50
   2   7  -2  217.78   13.50
  -2  -7   2  229.38   14.60
  -2  -7   2  196.98   17.30
  -2  -7   2  246.88   16.70
  -2  -7   2  214.98   13.90
   1   7  -2   72.19    9.40
   1   7  -2   72.79   10.50
  -1  -7   2   70.69    8.80
  -1  -7   2   72.89    9.80
  -1  -7   2   74.99   11.60
  -1  -7   2   68.99   11.90
   0   7  -2    1.50    2.70
   0   7  -2   -3.90    4.70
   0   7  -2    1.70    1.80
   0  -7   2    2.10    5.00
   0  -7   2    3.00    6.70
   0  -7   2   -4.10    3.90
   0  -7   2   -2.00    5.20
  -1   7  -2   73.99    9.40
  -1   7  -2   70.99   10.80
  -1   7  -2   71.59    6.50
   1  -7   2   76.19   11.80
   1  -7   2   66.09    9.00
   1  -7   2   77.19    9.50
   1  -7   2   66.99    8.50
  -2   7  -2   71.99    7.30
  -2   7  -2   68.89   10.50
  -2   7  -2   59.89    8.80
  -2   7  -2   63.69    8.80
   2  -7   2   71.69   12.00
   2  -7   2   47.10    8.10
  -3   7  -2   84.19   10.60
  -3   7  -2   76.59    8.80
  -3   7  -2   75.19   10.70
   3  -7   2   71.19   10.50
   3  -7   2   59.79    9.50
   3  -7   2  101.59   13.20
   3  -7   2   79.99   10.80
  -4   7  -2   33.60    7.50
  -4   7  -2   72.69   11.50
  -4   7  -2   37.40    9.30
   4  -7   2   67.19   10.50
   4  -7   2   43.70    4.70
   4  -7   2   44.10    9.40
  -5   7  -2    5.80    9.50
  -5   7  -2   36.30    8.80
  -5   7  -2   33.40   10.30
  -5   7  -2   10.00    6.20
   5  -7   2   25.50    9.50
   5  -7   2   -4.50    8.80
   5  -7   2   27.20    9.00
   5  -7   2   15.10    3.30
   5  -7   2   15.60    8.40
   7   6  -2   60.79   13.10
   7   6  -2   43.80   10.30
   7   6  -2   74.69   16.20
   7   6  -2   38.60   11.80
   7   6  -2   48.60    7.30
  -7  -6   2   50.09   13.40
   6   6  -2   54.79   11.80
   6   6  -2   91.59   18.10
   6   6  -2   54.09    9.70
   6   6  -2   48.60    9.50
  -6  -6   2   60.09    7.80
  -6  -6   2   66.09   13.10
  -6  -6   2   60.29   11.90
   5   6  -2   20.50    8.00
   5   6  -2   22.10    7.30
   5   6  -2   14.70    9.00
   5   6  -2   10.60   10.90
   5   6  -2   27.20   10.90
  -5  -6   2    9.40    9.50
  -5  -6   2   17.90    4.50
   4   6  -2   23.40    8.00
   4   6  -2   -7.40    3.70
   4   6  -2    1.70    5.70
  -4  -6   2  -10.80    9.10
  -4  -6   2   -6.50    4.20
  -4  -6   2  -11.30    6.60
  -4  -6   2   -7.20    5.70
   3   6  -2  129.19   10.80
   3   6  -2  103.59   10.30
   3   6  -2  104.39   11.50
   3   6  -2  123.99   12.50
  -3  -6   2  104.49   14.40
  -3  -6   2   98.09   10.80
  -3  -6   2  113.49   12.80
  -3  -6   2  115.99   11.20
   2   6  -2   77.49    8.80
   2   6  -2   88.29    8.70
   2   6  -2  109.19   11.00
   2   6  -2   72.49    9.00
  -2  -6   2   74.99    9.20
  -2  -6   2   70.89   12.00
  -2  -6   2   98.79    9.20
  -2  -6   2  113.59   11.50
   1   6  -2  698.13   27.00
   1   6  -2  657.83   27.50
  -1  -6   2  602.14   28.30
  -1  -6   2  701.33   28.20
  -1  -6   2  682.63   26.80
  -1  -6   2  664.93   27.00
  -1  -6   2  709.63   26.80
   0   6  -2  274.77   14.80
   0   6  -2  256.17   10.90
   0   6  -2  258.67   13.90
   0   6  -2  273.17   11.80
   0  -6   2  269.97   16.70
   0  -6   2  266.67   15.80
   0  -6   2  270.87   14.30
   0  -6   2  246.88   15.00
  -1   6  -2   19.40    4.90
  -1   6  -2   15.10    2.60
  -1   6  -2   16.60    5.50
  -1   6  -2   22.30    3.70
   1  -6   2   19.70    5.10
   1  -6   2   11.60    5.40
   1  -6   2   25.30    7.40
   1  -6   2   14.60    4.60
  -2   6  -2   35.10    6.90
  -2   6  -2   41.60    6.90
  -2   6  -2   45.50    6.80
  -2   6  -2   43.20    5.70
   2  -6   2   41.80    7.10
   2  -6   2   42.90    7.00
   2  -6   2   54.69    8.30
  -3   6  -2   16.30    5.10
  -3   6  -2   15.10    5.40
  -3   6  -2   16.40    6.80
  -3   6  -2   21.90    6.40
   3  -6   2   16.00    2.70
   3  -6   2   14.60    4.80
   3  -6   2   19.10    6.70
   3  -6   2   21.60    6.80
   3  -6   2   20.20    6.60
  -4   6  -2 1573.54   57.19
  -4   6  -2 1575.24   56.69
  -4   6  -2 1470.45   55.89
   4  -6   2 1504.45   57.99
   4  -6   2 1544.85   58.69
   4  -6   2 1541.45   50.99
   4  -6   2 1560.84   57.09
   4  -6   2 1520.05   56.69
  -5   6  -2  102.19   15.80
  -5   6  -2  105.49   11.60
   5  -6   2  150.18   16.20
   5  -6   2   99.39   13.80
   5  -6   2   92.09   12.60
   5  -6   2  108.49    8.40
   5  -6   2  125.89   15.80
  -6   6  -2   12.70   10.20
  -6   6  -2    3.30    9.90
  -6   6  -2   18.10    8.50
   6  -6   2   23.30    9.90
   6  -6   2    9.80    9.30
   6  -6   2   43.00   11.30
   6  -6   2   17.40    4.90
   7   5  -2   -1.90    8.10
   7   5  -2    0.40    4.00
   7   5  -2   35.10   15.90
   7   5  -2    5.00   10.00
   7   5  -2    1.20    9.80
  -7  -5   2    5.30    8.10
  -7  -5   2    7.70   10.30
  -7  -5   2    6.10    7.10
  -7  -5   2    3.10   11.10
   6   5  -2   38.20   13.30
   6   5  -2   35.20   11.10
   6   5  -2   32.50    8.00
   6   5  -2   27.40    7.60
  -6  -5   2   32.80   11.00
  -6  -5   2   23.00   13.10
   5   5  -2   16.10    8.00
   5   5  -2    6.60    8.00
   5   5  -2   36.30   11.50
   5   5  -2    8.90    6.50
  -5  -5   2   10.00    9.10
  -5  -5   2   -0.40    7.90
  -5  -5   2   17.20    3.40
   4   5  -2  187.58   15.60
   4   5  -2  181.28   12.90
   4   5  -2  184.38   12.60
   4   5  -2  187.58   15.20
   4   5  -2  187.78   12.80
  -4  -5   2  167.08   15.50
  -4  -5   2  171.28   12.30
  -4  -5   2  178.58   13.10
   3   5  -2  430.66   21.90
   3   5  -2  451.65   19.80
   3   5  -2  462.35   19.40
   3   5  -2  438.76   21.30
   3   5  -2  432.96   19.90
  -3  -5   2  442.66   19.60
  -3  -5   2  438.56   20.20
  -3  -5   2  468.55   21.90
  -3  -5   2  429.16   23.80
   2   5  -2   -0.30    3.70
   2   5  -2    5.30    4.60
   2   5  -2    5.00    4.20
   2   5  -2   -4.80    3.90
  -2  -5   2   -0.70    4.50
  -2  -5   2    2.30    3.30
  -2  -5   2   -6.00    4.20
   0   5  -2  340.17   13.30
   0   5  -2  345.97   13.50
   0   5  -2  346.17   15.60
   0   5  -2  339.07   16.00
   0  -5   2  328.77   15.50
   0  -5   2  360.16   15.90
   0  -5   2  338.57   16.30
   0  -5   2  326.17   16.70
  -1   5  -2   50.09    7.00
  -1   5  -2   39.60    4.20
  -1   5  -2   29.90    3.00
   1  -5   2   55.79    8.10
  -2   5  -2  261.57   12.20
  -2   5  -2  257.57   14.20
  -2   5  -2  239.78   12.70
  -2   5  -2  254.27   14.00
   2  -5   2  249.78   14.10
   2  -5   2  244.18   14.30
   2  -5   2  259.07   14.30
   2  -5   2  244.88   10.10
  -3   5  -2  202.88   13.80
  -3   5  -2  187.18   11.90
  -3   5  -2  199.18   13.50
  -3   5  -2  187.48   11.20
   3  -5   2  196.18   11.40
   3  -5   2  188.58    8.80
   3  -5   2  199.98   13.90
   3  -5   2  184.88   13.50
   3  -5   2  197.18   13.50
  -4   5  -2   58.19    9.00
  -4   5  -2   68.99    9.90
  -4   5  -2   53.29    9.10
  -4   5  -2   41.10    8.40
   4  -5   2   79.89   10.80
   4  -5   2   40.20    7.10
   4  -5   2   85.69   13.80
   4  -5   2   76.89   12.00
   4  -5   2   65.99    6.30
  -5   5  -2   51.89    9.80
  -5   5  -2   45.20    8.80
  -5   5  -2   42.10    9.00
   5  -5   2   54.79    9.60
   5  -5   2   43.40    9.00
   5  -5   2   47.00    9.30
   5  -5   2   53.49    8.80
   5  -5   2   45.90    5.90
  -6   5  -2   18.50    7.30
  -6   5  -2   23.40   10.00
  -6   5  -2   13.20    8.90
   6  -5   2   26.70    8.80
   6  -5   2   25.00    8.80
   6  -5   2   11.60    5.30
   6  -5   2   20.60    8.50
   6  -5   2   27.60    8.70
   7   4  -2   28.10   15.60
   7   4  -2   11.70    8.70
   7   4  -2   14.00    9.60
   7   4  -2    3.40    7.70
  -7  -4   2    8.00    6.50
  -7  -4   2   20.20   11.10
  -7  -4   2    2.20    7.50
  -7  -4   2   -1.30    8.60
  -7  -4   2   -0.60   10.70
   6   4  -2 1781.42   67.39
   6   4  -2 1808.62   66.49
   6   4  -2 1774.82   65.89
   6   4  -2 1778.62   68.39
   6   4  -2 1839.62   73.19
  -6  -4   2 1758.02   68.79
  -6  -4   2 1880.51   68.69
  -6  -4   2 1745.83   66.29
   5   4  -2    8.40    7.90
   5   4  -2   -9.40    6.50
   5   4  -2   -5.80    5.10
   5   4  -2    4.10    9.10
  -5  -4   2   -4.40    5.80
  -5  -4   2  -11.60    7.20
  -5  -4   2   -5.20    5.70
  -5  -4   2    2.20    1.20
   4   4  -2  211.78   14.60
   4   4  -2  226.58   13.40
   4   4  -2  229.08   15.30
   4   4  -2  194.08   15.90
   4   4  -2  198.88   13.10
  -4  -4   2  214.78    9.40
  -4  -4   2  224.48   16.40
  -4  -4   2  204.48   15.70
   3   4  -2   72.49    7.50
   3   4  -2   68.59    7.60
   3   4  -2   67.09    8.90
   3   4  -2   80.89    9.10
  -3  -4   2   72.19    7.30
  -3  -4   2   72.49    9.50
  -3  -4   2   68.49   10.80
  -3  -4   2   63.19    8.40
   2   4  -2 1312.67   45.60
   2   4  -2 1226.38   46.40
   2   4  -2 1302.17   45.40
   2   4  -2 1304.27   46.00
   2   4  -2 1309.47   45.20
  -2  -4   2 1356.56   46.40
  -2  -4   2 1279.17   47.70
  -2  -4   2 1278.07   45.10
  -2  -4   2 1338.67   45.90
   1   4  -2  182.08   10.20
   1   4  -2  159.48    9.60
   1   4  -2  177.48   10.30
  -1  -4   2  137.39   10.80
  -1  -4   2  175.08    9.50
  -1  -4   2  176.38   10.80
  -1  -4   2  176.38   10.40
  -1  -4   2  177.38    9.00
   0   4  -2 3075.99   97.59
   0   4  -2 3021.30   95.79
   0   4  -2 2997.70   97.69
   0   4  -2 2921.61   95.99
   0  -4   2 2961.70   97.79
   0  -4   2 2871.21   97.89
   0  -4   2 3104.09   97.79
   0  -4   2 2941.31   97.39
  -1   4  -2  447.26   18.40
  -1   4  -2  445.06   18.50
  -1   4  -2  475.55   16.90
  -1   4  -2  439.46   15.80
   1  -4   2  435.36   18.40
   1  -4   2  463.85   18.80
   1  -4   2  439.06   18.80
  -2   4  -2   65.59    6.20
  -2   4  -2   62.99    7.20
  -2   4  -2   64.89    5.90
  -2   4  -2   68.19    7.90
   2  -4   2   63.09    7.90
   2  -4   2   57.09    7.20
   2  -4   2   56.09    4.30
   2  -4   2   50.49    7.30
  -3   4  -2  101.49    9.80
  -3   4  -2  101.59    8.90
  -3   4  -2  113.49   10.40
  -3   4  -2  101.39    8.60
   3  -4   2  113.89   10.20
   3  -4   2  111.39    8.10
   3  -4   2  109.99    9.80
   3  -4   2  103.69    6.20
   3  -4   2  101.69   10.10
  -4   4  -2  166.28   13.70
  -4   4  -2  151.78   11.50
  -4   4  -2  154.38   13.10
   4  -4   2  173.58    9.30
   4  -4   2  144.99   11.30
   4  -4   2  170.88   13.60
   4  -4   2  153.08   13.50
   4  -4   2  160.98   15.30
  -5   4  -2  892.21   36.50
  -5   4  -2  931.31   37.30
  -5   4  -2  815.72   36.20
   5  -4   2  939.41   37.10
   5  -4   2  860.71   38.20
   5  -4   2  824.02   35.20
   5  -4   2  846.82   36.50
  -6   4  -2  103.79   12.30
  -6   4  -2  102.59   11.90
  -6   4  -2  118.89   17.50
   6  -4   2   91.39   14.00
   6  -4   2  108.39   15.40
   6  -4   2  126.99   15.20
   6  -4   2   91.39   13.70
   7   3  -2   14.90    8.70
   7   3  -2   16.10   10.10
   7   3  -2    6.90    7.80
   7   3  -2   30.60   15.10
  -7  -3   2    4.60    6.30
  -7  -3   2    1.90    7.10
  -7  -3   2   20.20    8.70
  -7  -3   2   21.60    7.30
  -7  -3   2   10.00   10.40
   6   3  -2  221.78   21.10
   6   3  -2  229.18   19.00
   6   3  -2  199.88   11.70
   6   3  -2  244.98   16.40
   6   3  -2  258.87   22.20
   6   3  -2  211.28   17.60
  -6  -3   2  207.88   16.60
  -6  -3   2  257.57   21.00
  -6  -3   2  262.47   20.40
   5   3  -2  104.29   10.80
   5   3  -2  100.89   14.60
   5   3  -2  122.29   18.70
   5   3  -2  114.29   11.50
  -5  -3   2  100.79   14.30
  -5  -3   2  107.89   11.70
  -5  -3   2  121.39   10.40
  -5  -3   2  103.19   15.30
   4   3  -2  195.08   15.10
   4   3  -2  194.38   12.60
   4   3  -2  198.18   12.40
   4   3  -2  189.38   14.20
   4   3  -2  188.78   12.30
  -4  -3   2  198.88   15.20
  -4  -3   2  202.28   12.50
  -4  -3   2  186.38    7.00
  -4  -3   2  206.48   12.20
  -4  -3   2  189.98   13.90
   3   3  -2   -7.20    4.80
   3   3  -2    3.20    3.30
   3   3  -2    1.40    4.00
   3   3  -2    0.60    3.90
   3   3  -2    3.00    3.20
  -3  -3   2   -3.60    3.70
  -3  -3   2   -3.10    3.80
  -3  -3   2    1.70    3.00
  -3  -3   2   -3.20    3.70
   2   3  -2  653.73   25.10
   2   3  -2  670.23   24.80
   2   3  -2  645.94   25.10
   2   3  -2  677.63   25.00
   2   3  -2  653.53   26.30
  -2  -3   2  686.43   25.60
  -2  -3   2  640.84   25.20
  -2  -3   2  608.74   26.70
  -2  -3   2  690.63   24.60
   1   3  -2 1531.05   51.79
   1   3  -2 1448.06   51.59
   1   3  -2 1563.74   55.69
  -1  -3   2 1574.94   52.29
  -1  -3   2 1566.04   51.59
  -1  -3   2 1572.24   52.09
  -1  -3   2 1581.14   50.89
  -1  -3   2 1512.75   52.49
   0   3  -2 1831.12   61.09
   0   3  -2 1955.10   60.39
   0   3  -2 1895.91   61.99
   0   3  -2 1847.42   61.89
   0  -3   2 1862.11   62.09
   0  -3   2 1811.62   61.89
   0  -3   2 1930.51   61.99
   0  -3   2 1891.21   61.99
  -1   3  -2  307.77   11.30
  -1   3  -2  323.27   11.80
  -1   3  -2  289.17   13.10
  -1   3  -2  317.37   13.40
   1  -3   2  292.17   13.20
   1  -3   2  299.07   13.30
   1  -3   2  305.17   11.60
   1  -3   2  315.97   13.70
  -2   3  -2   22.10    3.80
  -2   3  -2   15.00    3.50
  -2   3  -2   14.50    3.80
  -2   3  -2   16.20    4.10
  -2   3  -2   16.40    4.10
   2  -3   2   14.90    2.40
   2  -3   2   12.30    3.90
   2  -3   2   17.10    2.90
   2  -3   2   15.00    3.70
   2  -3   2   14.70    4.10
  -3   3  -2  267.97   13.50
  -3   3  -2  276.17   13.60
  -3   3  -2  276.57   14.70
  -3   3  -2  270.67   14.60
  -3   3  -2  279.07   13.60
   3  -3   2  271.37   14.70
   3  -3   2  269.67   14.20
   3  -3   2  268.27   12.60
   3  -3   2  284.77   14.50
  -4   3  -2    7.00    4.20
  -4   3  -2    2.90    4.60
  -4   3  -2    1.00    4.70
  -4   3  -2    1.00    5.10
   4  -3   2   -2.90    3.90
   4  -3   2    1.50    4.40
   4  -3   2    0.90    5.00
   4  -3   2   -1.90    3.20
  -5   3  -2 4689.53  148.69
  -5   3  -2 4436.16  147.99
  -5   3  -2 4070.19  147.89
   5  -3   2 4337.47  147.99
   5  -3   2 4582.84  148.29
   5  -3   2 4432.76  150.18
   5  -3   2 4628.64  147.69
   5  -3   2 4431.56  147.19
  -6   3  -2   38.80    4.60
  -6   3  -2   37.70    9.70
  -6   3  -2   40.00    8.50
   6  -3   2   46.30    9.60
   6  -3   2   40.30    9.20
   6  -3   2   42.20    8.40
   6  -3   2   34.30    9.20
   6  -3   2   41.90    7.70
  -7   3  -2   28.10    9.60
  -7   3  -2    2.70    7.80
  -7   3  -2    8.60    9.20
   7  -3   2   17.90    9.40
   7  -3   2   16.10    8.70
   7  -3   2   19.70    8.50
   7  -3   2   15.40    7.50
   7   2  -2   35.10   10.10
   7   2  -2   45.90   11.20
   7   2  -2   64.79   16.30
   7   2  -2   40.40   11.20
  -7  -2   2   45.60   11.30
  -7  -2   2   44.10   12.10
  -7  -2   2   35.10    8.70
  -7  -2   2   38.90   10.50
  -7  -2   2   31.60    9.00
   6   2  -2   62.79   11.00
   6   2  -2   93.79   17.60
   6   2  -2   67.99   12.10
   6   2  -2   80.09   12.90
   6   2  -2   63.69   10.60
  -6  -2   2   38.60    8.20
  -6  -2   2   56.39   10.50
  -6  -2   2   57.69   10.20
  -6  -2   2   65.69   11.60
  -5  -2   2  241.58   18.90
   4   2  -2  197.58   12.00
   4   2  -2  188.88   14.00
   4   2  -2  184.48   12.20
   4   2  -2  187.68   12.20
   4   2  -2  171.58   14.80
  -4  -2   2  186.08   11.70
  -4  -2   2  202.88   12.50
  -4  -2   2  193.98   12.20
  -4  -2   2  196.78   13.50
  -4  -2   2  189.88   13.80
   3   2  -2  522.35   21.80
   3   2  -2  503.35   24.00
   3   2  -2  504.05   21.10
   3   2  -2  530.15   22.20
   3   2  -2  547.95   22.30
  -3  -2   2  564.94   21.30
  -3  -2   2  519.25   22.70
  -3  -2   2  523.85   22.20
  -3  -2   2  534.35   21.60
   2   2  -2    9.40    5.00
   2   2  -2   13.60    3.30
   2   2  -2   11.70    3.40
   2   2  -2    9.40    2.90
   2   2  -2   10.00    3.30
  -2  -2   2   13.20    1.70
  -2  -2   2   10.80    3.50
  -2  -2   2   11.90    3.50
  -2  -2   2    8.30    3.80
  -2  -2   2    9.90    2.70
   1   2  -2   58.99    4.80
   1   2  -2   61.09    5.00
   1   2  -2   58.19    5.30
  -1  -2   2   45.90    5.80
  -1  -2   2   56.89    3.70
  -1  -2   2   61.59    5.40
  -1  -2   2   46.50    5.60
  -1  -2   2   58.09    4.50
  -1   2  -2 2276.87   74.29
  -1   2  -2 2293.77   75.59
  -1   2  -2 2332.77   75.79
  -1   2  -2 2259.27   75.49
  -1   2  -2 2431.26   74.49
   1  -2   2 2265.27   74.39
   1  -2   2 2328.57   75.49
   1  -2   2 2380.16   75.79
   1  -2   2 2314.47   75.99
  -2   2  -2  345.77   15.00
  -2   2  -2  353.26   14.20
  -2   2  -2  337.77   14.90
  -2   2  -2  347.47   14.30
  -2   2  -2  353.36   15.00
   2  -2   2  338.97   14.80
   2  -2   2  313.77   14.80
   2  -2   2  355.56   14.90
   2  -2   2  343.37   13.20
   2  -2   2  353.16   13.00
  -3   2  -2   27.00    4.30
  -3   2  -2   26.90    5.20
  -3   2  -2   24.60    5.00
  -3   2  -2   24.40    4.50
  -3   2  -2   27.80    4.90
   3  -2   2   22.10    4.80
   3  -2   2   26.10    5.10
   3  -2   2   27.30    4.50
   3  -2   2   31.50    4.30
  -4   2  -2   -2.10    4.60
  -4   2  -2    3.80    3.70
  -4   2  -2    4.30    4.10
  -4   2  -2    5.10    4.50
   4  -2   2    3.60    3.70
   4  -2   2   -1.40    3.10
   4  -2   2    3.70    3.20
   4  -2   2    1.50    4.30
   4  -2   2    2.90    4.40
  -5   2  -2  766.22   30.90
  -5   2  -2  804.22   33.70
  -5   2  -2  760.82   32.00
  -5   2  -2  805.12   31.40
  -5   2  -2  768.32   34.00
  -5   2  -2  763.82   33.90
   5  -2   2  813.42   33.40
   5  -2   2  790.62   32.20
   5  -2   2  761.42   32.20
   5  -2   2  806.32   34.30
   5  -2   2  765.22   31.40
  -6   2  -2  519.55   27.50
  -6   2  -2  582.64   26.30
  -6   2  -2  608.34   29.00
   6  -2   2  550.84   25.90
   6  -2   2  558.04   26.00
   6  -2   2  506.05   28.00
   6  -2   2  535.15   27.60
  -7   2  -2   32.70    8.40
  -7   2  -2   34.50    7.70
  -7   2  -2   20.80    8.90
  -7   2  -2   30.40    8.90
  -7   2  -2   27.50   10.20
   7  -2   2   22.30    8.90
   7  -2   2   21.80    9.10
   7  -2   2   32.20    9.00
   7  -2   2   35.30    7.60
   7   1  -2    7.00    7.30
   7   1  -2   -8.70    8.20
   7   1  -2   11.60   13.60
   7   1  -2    4.10    7.50
   7   1  -2   12.20    9.30
  -7  -1   2   -5.90    6.10
  -7  -1   2   -1.50    7.30
  -7  -1   2   11.50    7.00
  -7  -1   2   -3.10    8.70
  -7  -1   2   -1.90    6.30
   6   1  -2   15.60    7.30
   6   1  -2   12.90    8.30
   6   1  -2    6.90    5.30
   6   1  -2   15.70   11.90
  -6  -1   2   14.90    7.30
  -6  -1   2    0.00    7.10
  -6  -1   2    9.50    7.70
  -6  -1   2    4.50    5.80
   5   1  -2 1704.73   61.99
   5   1  -2 1770.82   67.99
   5   1  -2 1701.73   61.99
   5   1  -2 1739.33   61.09
  -5  -1   2 1655.83   62.19
  -5  -1   2 1635.24   62.59
  -5  -1   2 1666.43   60.59
  -5  -1   2 1631.44   60.99
  -5  -1   2 1746.83   61.89
   4   1  -2   60.19    9.40
   4   1  -2   62.69   11.00
   4   1  -2   50.09    7.30
   4   1  -2   49.99    7.60
   4   1  -2   59.29    8.10
  -4  -1   2   57.69    8.10
  -4  -1   2   52.59    7.40
  -4  -1   2   61.89    7.50
  -4  -1   2   51.79    8.40
  -4  -1   2   66.19    8.00
   3   1  -2  301.07   15.00
   3   1  -2  296.17   14.60
   3   1  -2  295.47   13.90
   3   1  -2  335.97   15.30
  -3  -1   2  308.77   16.30
  -3  -1   2  302.97   13.90
  -3  -1   2  286.37   14.50
  -3  -1   2  288.57   14.30
  -3  -1   2  266.57   14.40
   2   1  -2    7.10    2.80
   2   1  -2    9.90    2.90
   2   1  -2   10.50    3.50
   2   1  -2    7.70    2.40
  -2  -1   2    6.30    3.00
  -2  -1   2    6.20    2.70
  -2  -1   2    9.90    3.10
  -2  -1   2    6.70    2.20
  -2  -1   2    5.10    3.20
   1   1  -2  467.35   17.70
   1   1  -2  479.15   16.60
   1   1  -2  465.75   16.60
   1   1  -2  471.35   17.40
   1   1  -2  464.95   17.50
  -1  -1   2  452.55   17.80
  -1  -1   2  436.86   15.40
  -1  -1   2  464.95   16.40
  -1  -1   2  477.05   17.90
  -1  -1   2  463.85   16.70
   0   1  -2   14.80    2.40
   0   1  -2   15.10    2.60
   0  -1   2   11.30    2.00
   0  -1   2   20.40    3.20
   0  -1   2   12.70    2.50
  -1   1  -2 4217.38  136.99
   1  -1   2 4355.06  137.19
  -2   1  -2   -5.20    2.40
  -2   1  -2    1.00    1.70
  -2   1  -2   -1.50    2.70
  -2   1  -2    0.50    1.90
  -2   1  -2   -2.30    2.70
  -2   1  -2    0.80    2.30
   2  -1   2   -2.50    2.40
   2  -1   2    0.60    1.40
   2  -1   2   -3.80    2.40
   2  -1   2    0.40    1.80
  -3   1  -2   12.70    3.20
  -3   1  -2    5.60    4.10
  -3   1  -2   15.90    4.20
  -3   1  -2    9.00    3.10
  -3   1  -2    8.90    3.70
  -3   1  -2    5.70    3.80
   3  -1   2   10.10    3.90
   3  -1   2   12.30    3.40
   3  -1   2   11.10    4.20
   3  -1   2    9.80    2.70
   3  -1   2    9.60    3.50
  -4   1  -2  125.69   10.40
  -4   1  -2  133.19   11.50
  -4   1  -2  137.59    9.40
  -4   1  -2  130.49    9.50
  -4   1  -2  113.19    9.50
  -4   1  -2  116.99    9.90
   4  -1   2  126.99   10.60
   4  -1   2  127.29    8.90
   4  -1   2  141.99   10.10
   4  -1   2  114.69   10.70
   4  -1   2  138.39    9.50
  -5   1  -2  721.33   30.20
  -5   1  -2  731.23   31.10
  -5   1  -2  700.13   28.80
  -5   1  -2  677.53   23.70
  -5   1  -2  677.93   30.30
  -5   1  -2  755.72   28.90
  -5   1  -2  722.83   31.30
   5  -1   2  715.13   29.10
   5  -1   2  754.72   30.10
   5  -1   2  723.13   31.40
   5  -1   2  666.23   30.40
  -6   1  -2  705.93   29.10
  -6   1  -2  647.44   30.60
  -6   1  -2  633.94   31.60
  -6   1  -2  693.53   33.10
  -6   1  -2  699.33   30.00
   6  -1   2  657.73   32.80
   6  -1   2  684.43   32.30
   6  -1   2  677.63   29.40
   6  -1   2  672.93   30.30
  -7   1  -2   85.79   12.50
  -7   1  -2  111.49   14.50
  -7   1  -2  102.79   14.20
  -7   1  -2  125.29   18.10
   7  -1   2  103.09   16.50
   7  -1   2   80.29   12.60
   7  -1   2  130.89   31.00
   7  -1   2  121.59   14.90
   7  -1   2  117.89   12.30
   7   0  -2   23.50    8.30
   7   0  -2   27.90    9.30
   7   0  -2   20.30    9.90
   7   0  -2   29.20    8.40
   7   0  -2   42.40   16.50
  -7   0   2   15.50    9.10
  -7   0   2   18.00    9.60
  -7   0   2   21.30    8.00
  -7   0   2   17.40   11.20
  -7   0   2   17.80    8.10
   6   0  -2   -7.40    7.40
   6   0  -2    1.20    6.50
   6   0  -2   10.90    7.20
   6   0  -2    6.40    2.30
   6   0  -2    0.90    5.00
  -6   0   2    0.90    5.80
  -6   0   2    3.50    7.10
  -6   0   2    6.60    6.80
  -6   0   2   -4.50    5.60
   5   0  -2  638.24   23.60
   5   0  -2  686.73   28.60
   5   0  -2  646.64   29.40
   5   0  -2  667.93   29.00
  -5   0   2  661.13   29.20
  -5   0   2  660.63   30.20
  -5   0   2  667.63   29.10
  -5   0   2  676.73   28.50
  -5   0   2  669.53   31.00
   4   0  -2   12.90    5.40
   4   0  -2    2.70    4.90
   4   0  -2    8.80    1.80
   4   0  -2   12.00    4.40
  -4   0   2    9.80    4.90
  -4   0   2    5.70    5.90
  -4   0   2    5.00    4.30
  -4   0   2    6.40    3.60
  -4   0   2    7.00    3.90
   3   0  -2  637.04   24.80
   3   0  -2  613.84   21.30
   3   0  -2  638.74   26.10
   3   0  -2  651.73   24.50
   3   0  -2  615.44   25.10
   3   0  -2  625.44   21.30
  -3   0   2  646.04   25.50
  -3   0   2  657.43   25.00
  -3   0   2  631.44   24.80
  -3   0   2  650.93   26.40
  -3   0   2  597.14   24.00
   2   0  -2   11.50    3.40
   2   0  -2   10.10    3.40
   2   0  -2   12.30    1.40
   2   0  -2   10.10    2.90
   2   0  -2   10.40    3.50
   2   0  -2   12.40    2.50
  -2   0   2   13.00    2.50
  -2   0   2   10.90    3.40
  -2   0   2   12.20    3.10
  -2   0   2    9.80    2.60
  -2   0   2    7.90    3.80
   1   0  -2 2413.66   81.19
   1   0  -2 2732.03   82.29
   1   0  -2 2660.53   82.79
   1   0  -2 2423.66   82.59
   1   0  -2 2389.86   81.09
  -1   0   2 2655.53   81.89
  -1   0   2 2633.14   82.49
  -1   0   2 2425.46   82.59
  -1   0   2 2549.04   82.69
   0   0  -2 2339.77   74.39
   0   0  -2 2243.08   74.29
   0   0  -2 2418.36   74.69
   0   0   2 2321.37   74.69
   0   0   2 2362.96   74.29
   0   0   2 2245.58   74.09
  -1   0  -2  169.08    8.00
  -1   0  -2  189.08    7.50
  -1   0  -2  176.58    8.40
  -1   0  -2  170.08    8.90
   1   0   2  170.88    8.90
   1   0   2  178.58    7.60
   1   0   2  182.58    8.80
   1   0   2  174.38    8.10
  -2   0  -2 1025.30   35.40
  -2   0  -2 1005.10   34.60
  -2   0  -2 1075.79   36.00
  -2   0  -2 1023.70   36.20
   2   0   2 1073.39   35.50
   2   0   2 1032.90   36.10
   2   0   2 1077.19   36.00
   2   0   2 1018.40   36.20
  -3   0  -2   24.40    5.10
  -3   0  -2   25.80    4.40
  -3   0  -2   33.70    5.00
  -3   0  -2   29.50    4.60
  -3   0  -2   34.40    5.30
   3   0   2   24.10    4.90
   3   0   2   31.00    4.90
   3   0   2   38.20    5.90
   3   0   2   29.80    5.00
  -4   0  -2    1.20    3.40
  -4   0  -2    7.30    1.60
  -4   0  -2   -0.40    3.60
  -4   0  -2    6.60    4.30
  -4   0  -2    5.70    4.00
  -4   0  -2    3.80    4.60
  -4   0  -2    4.10    4.80
   4   0   2    6.20    4.30
   4   0   2    2.70    3.00
   4   0   2   -2.30    3.60
   4   0   2    4.70    4.60
  -5   0  -2    2.00    4.10
  -5   0  -2    0.60    4.10
  -5   0  -2    0.30    4.60
  -5   0  -2    0.80    5.60
  -5   0  -2   -8.90    4.60
   5   0   2   -1.50    3.20
   5   0   2    1.60    4.80
   5   0   2   -1.80    5.10
   5   0   2    5.50    5.90
  -6   0  -2 4738.03  160.48
  -6   0  -2 4851.61  158.08
  -6   0  -2 4928.81  160.18
  -6   0  -2 4242.88  163.58
  -6   0  -2 4950.40  156.08
   6   0   2 4943.31  159.78
   6   0   2 4736.73  158.28
   6   0   2 4708.13  156.68
  -7   0  -2   82.69   12.60
  -7   0  -2   96.49   12.60
  -7   0  -2   93.29   13.80
  -7   0  -2   95.19   13.40
   7   0   2   99.39   14.70
   7   0   2   61.99   10.60
   7   0   2   76.49   18.20
   7   0   2   72.49   14.10
  -8   0  -2   20.00   11.50
  -8   0  -2   24.90   10.50
  -8   0  -2   10.10    9.50
   8   0   2   18.40    9.70
   8   0   2   17.90    7.20
   8   0   2   13.00   10.20
   8   0   2   12.50    9.50
   7  -1  -2   15.20    7.90
   7  -1  -2   18.10    7.30
   7  -1  -2    3.80    8.00
  -7   1   2   15.90   10.00
  -7   1   2   10.70    8.60
  -7   1   2   22.30   10.00
  -7   1   2   13.80    8.00
  -7   1   2   -4.10    8.60
   6  -1  -2    3.80    6.50
   6  -1  -2   -8.80    6.90
   6  -1  -2    7.70    3.10
   6  -1  -2    5.00    4.90
  -6   1   2   -5.90    6.10
  -6   1   2    2.30    6.30
  -6   1   2   -2.50    6.80
   5  -1  -2  129.19   13.00
   5  -1  -2   99.79    7.50
   5  -1  -2  115.29   12.40
   5  -1  -2  107.49   10.00
   5  -1  -2  135.29   13.40
  -5   1   2  102.59   12.00
  -5   1   2  102.29   12.40
  -5   1   2  104.99   12.30
  -5   1   2  118.89   11.60
  -5   1   2   95.39   13.40
   4  -1  -2  201.08   13.70
   4  -1  -2  178.78   12.70
   4  -1  -2  183.38   11.40
   4  -1  -2  182.48   12.50
   4  -1  -2  176.58    8.90
  -4   1   2  170.58   12.40
  -4   1   2  182.68   12.20
  -4   1   2  192.08   12.10
  -4   1   2  167.98   12.30
  -4   1   2  173.58   11.70
   3  -1  -2    5.00    4.40
   3  -1  -2    6.30    3.30
   3  -1  -2    5.90    3.00
   3  -1  -2    7.10    1.90
   3  -1  -2    8.10    3.70
  -3   1   2    9.30    4.70
  -3   1   2    8.10    3.90
  -3   1   2    3.10    3.00
  -3   1   2    1.10    3.50
  -3   1   2    6.80    4.30
   2  -1  -2    8.00    1.70
   2  -1  -2    9.30    2.40
   2  -1  -2    9.40    3.40
   2  -1  -2    8.60    1.60
   2  -1  -2    6.50    2.60
   2  -1  -2    7.30    3.30
  -2   1   2    5.30    2.10
  -2   1   2    6.00    2.30
  -2   1   2   11.00    3.20
  -2   1   2   11.80    3.30
  -2   1   2    9.00    2.90
   1  -1  -2   41.30    4.10
   1  -1  -2   41.40    3.30
   1  -1  -2   40.00    4.10
   1  -1  -2   33.20    3.60
   1  -1  -2   37.60    3.20
  -1   1   2   39.90    3.80
  -1   1   2   44.80    4.10
  -1   1   2   42.70    4.00
  -1   1   2   35.40    4.90
  -1   1   2   41.40    3.00
   0  -1  -2   41.70    3.50
   0  -1  -2   41.30    3.20
   0  -1  -2   35.20    3.90
   0  -1  -2   32.20    3.90
   0   1   2   42.40    3.00
   0   1   2   37.90    3.40
   0   1   2   33.10    4.30
  -2  -1  -2 2863.11   91.59
  -2  -1  -2 2814.22   91.99
  -2  -1  -2 2842.02   92.39
  -2  -1  -2 2833.32   90.89
  -2  -1  -2 2869.11   94.49
  -2  -1  -2 2714.53   92.29
   2   1   2 2802.82   94.19
   2   1   2 2979.20   92.09
   2   1   2 2911.71   92.49
   2   1   2 2757.52   91.39
   2   1   2 2806.92   92.39
  -3  -1  -2  389.56   17.80
  -3  -1  -2  403.36   14.40
  -3  -1  -2  406.36   16.60
  -3  -1  -2  418.16   16.80
  -3  -1  -2  412.56   16.50
  -3  -1  -2  390.26   17.50
   3   1   2  381.06   20.60
   3   1   2  388.76   19.90
   3   1   2  403.96   17.50
   3   1   2  388.56   16.20
  -4  -1  -2    9.70    5.00
  -4  -1  -2    9.40    4.00
  -4  -1  -2   16.20    2.20
  -4  -1  -2   14.40    4.40
  -4  -1  -2   13.30    4.10
  -4  -1  -2   14.40    4.50
   4   1   2   13.00    3.40
   4   1   2   10.00    7.30
   4   1   2   11.50    4.60
   4   1   2    9.30    4.60
  -5  -1  -2   17.60    5.00
  -5  -1  -2   20.80    6.70
  -5  -1  -2   14.90    5.50
  -5  -1  -2   22.40    5.90
  -5  -1  -2   21.70    6.00
   5   1   2   22.20    4.00
   5   1   2   22.90    5.30
   5   1   2   16.60    6.20
   5   1   2    8.40    9.60
   5   1   2   16.50    6.10
  -6  -1  -2  139.09   14.70
  -6  -1  -2  158.18   13.00
  -6  -1  -2  112.59   15.30
  -6  -1  -2  112.99   11.50
  -6  -1  -2  103.19   14.30
  -6  -1  -2  129.69   17.90
   6   1   2  115.59   16.20
   6   1   2  139.39   24.10
   6   1   2  128.09   14.20
   6   1   2  104.89   11.40
  -7  -1  -2   34.10   10.60
  -7  -1  -2   35.60    7.70
  -7  -1  -2   32.30    9.20
  -7  -1  -2   28.70    8.40
   7   1   2   44.70   18.10
   7   1   2   35.10    9.50
   7   1   2   38.10    6.40
  -8  -1  -2   13.40   11.20
  -8  -1  -2    5.30   11.10
   8   1   2    8.30    9.30
   8   1   2   30.50   10.50
   8   1   2   10.20    7.80
   8   1   2    9.80    6.30
   7  -2  -2   -2.80    8.70
   7  -2  -2    6.10    7.10
   7  -2  -2   10.40    7.70
   7  -2  -2   -4.90    4.50
  -7   2   2    2.90    9.20
  -7   2   2   10.20   13.10
  -7   2   2    8.50    9.30
  -7   2   2   -7.20    8.80
  -7   2   2    6.30    8.60
   6  -2  -2    0.10    3.50
   6  -2  -2   -0.90    7.10
   6  -2  -2   -3.80    5.00
   6  -2  -2   -0.60    6.40
  -6   2   2   -1.10    6.80
  -6   2   2    4.00    5.60
  -6   2   2  -11.60    6.60
   5  -2  -2   61.19    9.80
   5  -2  -2   63.89   10.90
   5  -2  -2   52.39    7.10
   5  -2  -2   67.59   11.50
   5  -2  -2   73.09   10.20
  -5   2   2   60.49   10.30
  -5   2   2   70.59    9.10
  -5   2   2   52.39    9.80
  -5   2   2   74.59   10.10
  -5   2   2   68.69   10.40
   4  -2  -2    5.10    3.90
   4  -2  -2    2.40    4.40
   4  -2  -2    8.00    3.00
   4  -2  -2    7.60    5.50
   4  -2  -2    2.90    5.20
  -4   2   2    4.40    4.20
  -4   2   2    7.30    4.40
  -4   2   2    3.70    4.60
  -4   2   2    9.10    4.40
  -4   2   2    5.40    4.50
   3  -2  -2   14.10    3.40
   3  -2  -2   21.30    4.50
   3  -2  -2   21.10    3.20
   3  -2  -2   20.70    4.30
   3  -2  -2   19.10    4.70
  -3   2   2   13.40    3.50
  -3   2   2   17.00    4.10
  -3   2   2   14.70    4.30
  -3   2   2   18.60    2.90
  -3   2   2   23.40    4.90
  -3   2   2   21.20    5.30
   2  -2  -2  236.38   10.70
   2  -2  -2  236.08   11.30
   2  -2  -2  233.88   12.50
   2  -2  -2  230.48   10.80
  -2   2   2  225.38   11.10
  -2   2   2  245.48   11.80
  -2   2   2  253.47   12.10
  -2   2   2  215.58    9.90
  -2   2   2  234.08   10.30
   1  -2  -2  470.05   17.00
   1  -2  -2  455.75   16.50
   1  -2  -2  470.35   18.10
   1  -2  -2  481.65   16.90
   1  -2  -2  469.05   16.30
  -1   2   2  478.75   16.30
  -1   2   2  467.55   16.90
  -1   2   2  488.25   17.70
  -1   2   2  497.35   17.30
  -1   2   2  451.45   16.50
   0  -2  -2   95.09    4.50
   0  -2  -2   93.39    4.50
   0  -2  -2   94.99    4.00
   0  -2  -2   90.59    5.60
   0  -2  -2   90.29    4.20
   0  -2  -2  105.69    7.10
   0   2   2  101.79    5.00
   0   2   2   99.39    4.30
   0   2   2   87.39    5.30
  -1  -2  -2  872.51   31.50
  -1  -2  -2  873.31   29.70
  -1  -2  -2  881.71   29.50
  -1  -2  -2  829.12   28.40
  -1  -2  -2  883.51   29.70
   1   2   2  867.51   29.60
   1   2   2  894.31   31.30
   1   2   2  893.61   29.50
   1   2   2  838.22   28.30
   1   2   2  896.01   29.90
   2   2   2    6.40    2.40
  -3  -2  -2  704.93   29.80
  -3  -2  -2  727.23   27.00
  -3  -2  -2  660.63   25.20
  -3  -2  -2  633.24   23.30
  -3  -2  -2  700.03   26.40
  -3  -2  -2  646.14   25.00
   3   2   2  672.43   28.90
   3   2   2  716.33   26.30
   3   2   2  636.34   23.70
   3   2   2  685.23   26.30
   3   2   2  653.73   25.10
   3   2   2  706.43   26.90
  -4  -2  -2    2.30    4.50
  -4  -2  -2    0.30    3.60
  -4  -2  -2    5.30    4.00
  -4  -2  -2    1.40    3.60
  -4  -2  -2    3.00    2.70
   4   2   2    3.50    2.40
   4   2   2   -3.10    6.80
   4   2   2    1.80    2.30
   4   2   2   -8.30    5.40
   4   2   2    1.40    4.60
   4   2   2    3.00    3.20
  -5  -2  -2  167.18   12.80
  -5  -2  -2  157.88   10.70
  -5  -2  -2  161.48   10.90
  -5  -2  -2  155.28   14.30
  -5  -2  -2  148.39   12.50
   5   2   2  168.68   12.50
   5   2   2  150.38    9.50
   5   2   2  148.09   15.90
   5   2   2  160.58   12.20
  -6  -2  -2  509.75   25.00
  -6  -2  -2  533.25   27.20
  -6  -2  -2  574.04   29.10
  -6  -2  -2  583.24   23.80
  -6  -2  -2  535.95   26.90
   6   2   2  517.35   25.00
   6   2   2  580.54   32.90
   6   2   2  524.95   23.10
  -7  -2  -2   49.80    9.50
  -7  -2  -2   73.79   11.50
  -7  -2  -2   51.79    9.90
  -7  -2  -2   68.19   12.60
  -7  -2  -2   58.09    8.40
   7   2   2   67.29   11.40
   7   2   2   66.29   12.10
   7   2   2   57.99   11.10
  -8  -2  -2  108.69   16.70
  -8  -2  -2   78.69   13.00
  -8  -2  -2  112.79   16.50
   8   2   2  116.69   17.90
   8   2   2  107.29   17.80
   8   2   2  101.19   15.70
   6  -3  -2    7.90    8.70
   6  -3  -2   -2.70    4.20
   6  -3  -2    4.80    7.70
   6  -3  -2   -4.70    5.90
  -6   3   2    1.50    6.60
  -6   3   2   -3.40    6.70
  -6   3   2    5.30    7.20
   5  -3  -2  128.99   13.20
   5  -3  -2  118.09    9.40
   5  -3  -2  133.19   12.00
   5  -3  -2  129.59   14.60
   5  -3  -2  130.79   12.50
  -5   3   2  127.39   14.20
  -5   3   2  117.69   11.50
  -5   3   2  133.69   12.70
  -5   3   2  133.09   12.30
  -5   3   2  144.49   13.00
   4  -3  -2   34.00    6.50
   4  -3  -2   17.00    4.40
   4  -3  -2   29.60    6.60
   4  -3  -2   20.30    5.50
   4  -3  -2   27.60    5.40
  -4   3   2   29.70    6.50
  -4   3   2   22.40    6.60
  -4   3   2   25.10    5.80
  -4   3   2   25.80    3.50
  -4   3   2   24.70    5.30
   3  -3  -2   -5.60    3.30
   3  -3  -2   -1.30    3.10
   3  -3  -2   -1.60    2.10
   3  -3  -2   -0.90    3.50
   3  -3  -2   -1.50    2.40
  -3   3   2   -1.90    3.80
  -3   3   2   -1.70    3.00
  -3   3   2   -1.10    3.00
  -3   3   2   -2.40    2.30
   2  -3  -2    8.00    3.20
   2  -3  -2    4.90    4.30
   2  -3  -2    4.10    2.80
   2  -3  -2    8.80    3.60
  -2   3   2    9.10    3.00
  -2   3   2   10.60    3.30
  -2   3   2    3.90    3.00
  -2   3   2    7.70    3.20
  -2   3   2    9.50    3.90
   1  -3  -2  297.47   10.80
   1  -3  -2  293.17   12.70
   1  -3  -2  289.57   11.60
   1  -3  -2  300.07   11.50
   1  -3  -2  295.17   11.50
  -1   3   2  306.47   11.50
  -1   3   2  304.67   12.70
  -1   3   2  293.27   12.20
  -1   3   2  300.47   11.60
  -1   3   2  292.17   11.30
   0  -3  -2  512.85   18.30
   0  -3  -2  531.15   18.90
   0  -3  -2  555.84   18.70
   0  -3  -2  594.64   21.40
   0   3   2  534.95   19.80
   0   3   2  553.64   18.70
   0   3   2  493.75   18.50
   0   3   2  540.95   18.80
   0   3   2  580.54   19.70
   0   3   2  511.45   17.50
  -1  -3  -2 1663.53   54.69
  -1  -3  -2 1620.64   52.89
  -1  -3  -2 1726.33   54.49
  -1  -3  -2 1745.63   57.19
   1   3   2 1606.44   54.69
   1   3   2 1739.13   56.69
   1   3   2 1681.73   54.49
   1   3   2 1663.13   54.89
   1   3   2 1492.15   52.69
  -2  -3  -2 3504.85  111.79
  -2  -3  -2 3408.66  114.19
  -2  -3  -2 3468.25  111.39
   2   3   2 3443.16  110.69
   2   3   2 3520.85  111.49
   2   3   2 3408.26  111.59
   2   3   2 3368.36  109.89
   2   3   2 3351.06  113.69
  -3  -3  -2  135.39    9.30
  -3  -3  -2  135.09   10.40
  -3  -3  -2  132.39   12.70
  -3  -3  -2  137.69    8.80
  -3  -3  -2  133.99    8.20
   3   3   2  125.39   10.30
   3   3   2  135.59    6.40
   3   3   2  128.49    9.30
   3   3   2  130.69   11.80
   3   3   2  131.19    8.50
   3   3   2  130.19    7.40
  -4  -3  -2  201.38   17.30
  -4  -3  -2  235.08   12.20
  -4  -3  -2  242.38   13.70
  -4  -3  -2  213.78   14.60
  -4  -3  -2  229.48   12.40
   4   3   2  225.18   12.70
   4   3   2  207.78   14.50
   4   3   2  221.88   13.40
   4   3   2  220.08   16.70
   4   3   2  225.38   10.50
  -5  -3  -2   61.69   10.30
  -5  -3  -2   67.89    8.90
  -5  -3  -2   68.99   11.70
  -5  -3  -2   84.29    9.20
  -5  -3  -2   81.39    9.90
   5   3   2   68.39    6.00
   5   3   2   83.59   10.00
   5   3   2   80.39   14.90
   5   3   2   75.69    9.90
   5   3   2   65.69    9.80
  -6  -3  -2   72.19   11.40
  -6  -3  -2  100.49   10.20
  -6  -3  -2   63.69   11.50
  -6  -3  -2   87.39   10.60
  -6  -3  -2   74.29   12.50
   6   3   2   59.19   10.30
   6   3   2  116.69   16.90
   6   3   2   96.69   15.80
   6   3   2   98.79   12.50
  -7  -3  -2  562.04   29.70
  -7  -3  -2  617.24   33.20
  -7  -3  -2  627.64   30.80
  -7  -3  -2  575.84   29.40
  -7  -3  -2  638.14   26.50
   7   3   2  617.84   30.70
   7   3   2  477.85   34.90
   7   3   2  589.34   27.40
   7   3   2  612.74   30.40
  -8  -3  -2   19.20   11.70
  -8  -3  -2   15.40   10.70
  -8  -3  -2   -0.30    7.70
  -8  -3  -2   10.70    6.90
   8   3   2   22.70    8.50
   8   3   2    2.40    8.60
   8   3   2   21.00   10.10
   8   3   2   35.00   19.50
   8   3   2    7.60    9.10
   6  -4  -2   -4.70    8.00
   6  -4  -2    0.70    6.30
   6  -4  -2   -3.50    6.40
   6  -4  -2   -4.20    5.20
  -6   4   2   -0.20    6.00
  -6   4   2   -0.60    7.40
  -6   4   2   -1.80    6.90
  -6   4   2    5.90    8.10
   5  -4  -2  164.78   11.90
   5  -4  -2  161.28   15.90
   5  -4  -2  169.18   14.00
   5  -4  -2  157.18   13.00
   5  -4  -2  141.79   13.90
  -5   4   2  179.48   14.10
  -5   4   2  158.98   13.80
  -5   4   2  150.88   14.00
  -5   4   2  150.48   13.60
   4  -4  -2  797.12   34.20
   4  -4  -2  783.62   32.30
   4  -4  -2  799.12   31.30
   4  -4  -2  863.41   32.40
   4  -4  -2  790.92   31.20
  -4   4   2  844.32   31.50
  -4   4   2  800.22   32.00
  -4   4   2  754.82   33.20
  -4   4   2  778.72   28.70
   3  -4  -2  938.81   34.40
   3  -4  -2  949.90   35.20
   3  -4  -2  958.00   34.80
   3  -4  -2  972.90   34.50
   3  -4  -2  931.51   36.70
  -3   4   2  931.01   36.20
  -3   4   2  947.81   34.90
  -3   4   2  933.61   33.30
  -3   4   2  933.51   34.90
  -3   4   2  950.00   34.30
   2  -4  -2    0.00    2.50
   2  -4  -2    2.90    3.30
   2  -4  -2    0.50    3.00
   2  -4  -2    1.40    2.80
  -2   4   2    3.80    2.90
  -2   4   2   -3.90    2.40
  -2   4   2   -1.20    3.20
  -2   4   2    1.10    2.40
  -2   4   2   -0.40    2.70
   1  -4  -2   10.30    2.40
   1  -4  -2    8.20    1.30
   1  -4  -2    9.20    2.90
   1  -4  -2    7.80    2.50
  -1   4   2    6.40    2.80
  -1   4   2    9.10    2.20
  -1   4   2    6.70    3.40
  -1   4   2    8.60    3.30
  -1   4   2    4.60    2.50
   0  -4  -2  765.12   28.30
   0  -4  -2  684.23   25.30
   0  -4  -2  728.43   25.20
   0   4   2  750.62   25.90
   0   4   2  719.63   25.10
   0   4   2  704.43   23.70
   0   4   2  686.43   23.50
   0   4   2  724.23   25.40
   0   4   2  745.63   26.30
  -1  -4  -2 1963.70   64.69
  -1  -4  -2 1929.81   65.19
  -1  -4  -2 1981.70   67.89
   1   4   2 1967.60   65.39
   1   4   2 2006.90   64.89
   1   4   2 1987.40   65.19
   1   4   2 2093.49   67.49
   1   4   2 2014.60   64.99
   1   4   2 1803.42   62.59
  -2  -4  -2   54.69    3.00
  -2  -4  -2   58.09    7.20
  -2  -4  -2   49.40    9.20
  -2  -4  -2   53.29    4.30
   2   4   2   60.59    7.20
   2   4   2   55.69    6.00
   2   4   2   64.89    7.10
   2   4   2   50.19    4.60
   2   4   2   59.99    6.10
  -3  -4  -2  447.06   23.90
  -3  -4  -2  462.85   20.00
  -3  -4  -2  483.15   21.10
  -3  -4  -2  474.75   18.50
   3   4   2  495.45   21.20
   3   4   2  461.55   16.60
   3   4   2  472.65   23.10
   3   4   2  479.65   18.70
   3   4   2  472.05   18.70
   3   4   2  469.35   20.20
  -4  -4  -2  117.69    8.80
  -4  -4  -2  117.59   14.40
  -4  -4  -2  134.99   10.20
  -4  -4  -2  123.59    9.30
  -4  -4  -2  119.79   11.90
   4   4   2  113.39    9.80
   4   4   2  111.79    7.70
   4   4   2  105.89   12.80
   4   4   2  117.99    6.90
   4   4   2  107.99   11.70
   4   4   2  115.29    9.70
  -5  -4  -2    3.40    3.90
  -5  -4  -2    6.70    6.30
  -5  -4  -2    6.90    4.20
  -5  -4  -2    5.10    6.90
   5   4   2    5.90    3.20
   5   4   2    2.30    6.60
   5   4   2    4.50    5.20
   5   4   2    3.20    3.40
   5   4   2    2.00    4.80
  -6  -4  -2   84.09   11.00
  -6  -4  -2   60.59   11.30
  -6  -4  -2   70.39   10.10
  -6  -4  -2   53.59    9.20
  -6  -4  -2   39.00    9.90
   6   4   2   44.00    9.40
   6   4   2   68.69    7.60
   6   4   2   53.89   10.60
   6   4   2   70.59   14.60
   6   4   2   66.49    7.00
   6   4   2   80.39   12.10
  -7  -4  -2   -0.90    7.30
  -7  -4  -2   15.60    8.20
  -7  -4  -2   -1.20    6.20
  -7  -4  -2    5.80    6.60
  -7  -4  -2   -7.90    9.50
   7   4   2   12.00    8.40
   7   4   2   14.60   13.00
   7   4   2    4.60    8.80
   7   4   2   21.10   11.30
  -8  -4  -2   32.60    7.90
  -8  -4  -2   36.20   13.20
  -8  -4  -2    4.50   10.70
  -8  -4  -2   17.80   11.20
   8   4   2   28.90    9.00
   8   4   2   30.00    8.60
   8   4   2   31.20   10.60
   6  -5  -2    9.60   10.40
   6  -5  -2   24.00    7.60
   6  -5  -2   12.10    7.30
   6  -5  -2    3.20    7.50
   6  -5  -2   26.00    6.70
  -6   5   2    2.70    7.90
  -6   5   2   14.40    8.70
  -6   5   2   10.30    8.80
   5  -5  -2   35.10    7.80
   5  -5  -2   69.19   10.30
   5  -5  -2   42.40    7.00
   5  -5  -2   35.30    7.70
  -5   5   2   36.10    8.20
  -5   5   2   35.90    5.10
  -5   5   2   56.29    9.10
  -5   5   2   43.40    8.20
   4  -5  -2  152.18   12.70
   4  -5  -2  148.69   12.20
   4  -5  -2  163.38   13.90
   4  -5  -2  140.09   11.60
   4  -5  -2  157.18   14.20
  -4   5   2  159.18   13.00
  -4   5   2  162.18   10.20
  -4   5   2  142.99   11.70
   3  -5  -2   20.40    4.90
  -3   5   2   11.40    5.20
  -3   5   2   20.80    4.80
  -3   5   2   23.00    4.50
   2  -5  -2   89.99    7.70
   2  -5  -2   78.69    4.10
   2  -5  -2   88.39    6.80
   2  -5  -2   86.89    8.50
   2  -5  -2   80.39    7.20
  -2   5   2   81.49    7.10
  -2   5   2   85.49    7.90
  -2   5   2   76.39    7.20
  -2   5   2   84.99    6.60
  -2   5   2   83.09    7.50
   1  -5  -2  945.91   32.90
   1  -5  -2  942.01   32.90
  -1   5   2  943.71   33.70
  -1   5   2  867.91   31.40
  -1   5   2  903.11   32.60
  -1   5   2  956.00   32.80
  -1   5   2  931.01   33.40
   0  -5  -2   30.10    4.40
   0  -5  -2   34.40    6.60
   0  -5  -2   28.20    4.40
   0   5   2   29.60    2.20
   0   5   2   27.30    4.30
   0   5   2   34.00    5.00
   0   5   2   29.30    4.80
   0   5   2   34.00    2.60
   0   5   2   33.60    5.50
  -1  -5  -2  181.38   13.10
  -1  -5  -2  176.28    9.30
  -1  -5  -2  181.68   10.70
   1   5   2  205.18   11.70
   1   5   2  184.38   10.30
   1   5   2  172.58    6.90
   1   5   2  176.48    9.10
   1   5   2  176.28   10.40
   1   5   2  189.48    9.70
  -2  -5  -2  122.99    8.30
  -2  -5  -2  111.99   10.80
  -2  -5  -2  114.99    9.60
  -2  -5  -2  121.79    6.10
   2   5   2  124.69    8.80
   2   5   2  122.99    6.70
   2   5   2  121.59   10.70
   2   5   2  111.59    9.60
   2   5   2  122.09    8.70
  -3  -5  -2  117.99   10.90
  -3  -5  -2  113.79    9.00
  -3  -5  -2  109.19   13.40
  -3  -5  -2  116.99    7.10
   3   5   2  110.59    9.30
   3   5   2  116.29   11.00
   3   5   2  110.89    8.50
   3   5   2  108.99    8.20
   3   5   2  105.79   11.60
  -4  -5  -2  214.48   13.90
  -4  -5  -2  228.88   15.70
  -4  -5  -2  232.78   13.00
  -4  -5  -2  246.38   18.10
  -4  -5  -2  222.78   12.00
   4   5   2  219.08   12.90
   4   5   2  232.18   12.30
   4   5   2  231.98   10.20
   4   5   2  248.98   16.00
   4   5   2  232.78   14.20
   4   5   2  239.98   17.50
  -5  -5  -2   68.09    8.70
  -5  -5  -2   77.49   15.00
  -5  -5  -2   64.79    8.30
  -5  -5  -2   52.29    9.80
   5   5   2   59.49    6.00
   5   5   2   66.59   13.70
   5   5   2   74.59    7.80
   5   5   2   61.69    9.90
   5   5   2   52.39    9.70
   5   5   2   64.99   10.30
  -6  -5  -2   37.10    6.80
  -6  -5  -2   35.30   10.20
  -6  -5  -2   36.50    7.10
  -6  -5  -2   31.20    8.10
   6   5   2   28.50    9.40
   6   5   2   46.50    9.10
   6   5   2   50.39   13.50
   6   5   2   38.90    5.90
   6   5   2   43.40    7.20
   6   5   2   27.40    8.40
  -7  -5  -2   43.50   10.20
  -7  -5  -2   53.19    8.70
  -7  -5  -2   66.29   12.50
  -7  -5  -2   57.59   10.30
  -7  -5  -2   53.29   12.90
   7   5   2   57.39   10.90
   7   5   2   53.49   11.00
   7   5   2   83.79   10.40
   7   5   2   50.09    6.60
  -8  -5  -2   45.60   10.60
  -8  -5  -2   26.40    7.90
  -8  -5  -2   35.00   10.30
   8   5   2   31.90    8.30
   8   5   2   46.70   10.30
   8   5   2   23.70   11.30
   5  -6  -2   17.30    9.30
   5  -6  -2   14.40    7.10
   5  -6  -2   11.80    7.00
   5  -6  -2   11.20    6.70
   5  -6  -2   15.00    6.40
  -5   6   2   19.90    7.20
  -5   6   2   25.40    6.00
  -5   6   2   20.60    7.80
  -5   6   2   30.80    7.80
   4  -6  -2  380.66   19.90
   4  -6  -2  395.76   19.40
   4  -6  -2  369.56   19.10
   4  -6  -2  374.76   21.90
   4  -6  -2  369.46   19.60
  -4   6   2  365.46   20.50
  -4   6   2  375.96   19.50
  -4   6   2  393.16   18.00
  -4   6   2  352.36   20.10
  -4   6   2  384.66   19.90
   3  -6  -2    5.10    5.60
   3  -6  -2    2.80    4.60
   3  -6  -2   11.10    4.10
   3  -6  -2    5.10    4.90
  -3   6   2   -3.60    4.20
  -3   6   2   12.00    5.20
  -3   6   2   -1.40    5.00
  -3   6   2    2.20    4.70
   2  -6  -2    1.20    3.20
   2  -6  -2   -7.10    3.70
   2  -6  -2    0.60    4.10
  -2   6   2   -0.50    3.70
  -2   6   2    1.70    3.10
  -2   6   2   -2.20    2.90
  -2   6   2   -2.20    3.50
  -2   6   2    0.20    4.20
   1  -6  -2   54.49    6.20
   1  -6  -2   69.89   10.40
   1  -6  -2   67.69    8.00
  -1   6   2   63.89    7.40
  -1   6   2   70.19    7.10
  -1   6   2   65.69    7.50
  -1   6   2   60.79    6.80
  -1   6   2   53.79    4.70
   0  -6  -2   -1.90    3.30
   0  -6  -2    4.80    2.80
   0  -6  -2   10.00    6.10
   0   6   2    3.50    3.40
  -1  -6  -2 2534.55   84.89
  -1  -6  -2 2504.75   88.29
  -1  -6  -2 2445.76   83.79
   1   6   2 2673.53   87.49
   1   6   2 2559.64   84.09
   1   6   2 2585.54   84.79
   1   6   2 2501.55   84.19
  -2  -6  -2  976.70   36.70
  -2  -6  -2  945.21   35.20
  -2  -6  -2  926.21   39.80
   2   6   2  946.91   33.10
   2   6   2  976.10   36.50
   2   6   2 1024.60   39.00
   2   6   2  967.20   35.60
   2   6   2  998.80   36.00
  -3  -6  -2  457.85   25.70
  -3  -6  -2  462.95   22.30
  -3  -6  -2  472.45   20.90
  -3  -6  -2  468.95   17.50
   3   6   2  495.85   21.40
   3   6   2  459.35   19.00
   3   6   2  480.75   22.40
   3   6   2  502.35   20.60
   3   6   2  466.85   24.20
  -4  -6  -2   82.19    7.10
  -4  -6  -2   81.29    9.20
  -4  -6  -2   87.69   12.20
  -4  -6  -2   71.39   13.70
   4   6   2   86.09    8.90
   4   6   2   87.79   10.10
   4   6   2   76.09    8.50
   4   6   2   79.09   12.20
   4   6   2   82.89   12.50
  -5  -6  -2    2.50    4.70
  -5  -6  -2   -2.80    3.80
  -5  -6  -2   -5.20    4.70
  -5  -6  -2   -4.20    7.00
   5   6   2   -3.00    9.40
   5   6   2   -3.70    5.10
   5   6   2    1.20    2.50
   5   6   2   -6.70    6.40
   5   6   2   -5.50    5.10
   5   6   2   -0.10    4.40
  -6  -6  -2  108.59   14.50
  -6  -6  -2  104.49   17.30
  -6  -6  -2  126.69   12.80
  -6  -6  -2  128.19   12.00
   6   6   2  138.79   17.50
   6   6   2  122.09   14.40
   6   6   2  141.59   11.00
   6   6   2  131.59    9.10
   6   6   2  119.59   13.10
   6   6   2  108.49   20.00
  -7  -6  -2   83.59   12.90
  -7  -6  -2  118.99   13.70
  -7  -6  -2   99.69   13.90
  -7  -6  -2  118.79   19.90
   7   6   2  141.69   21.70
   7   6   2  108.99   10.70
   7   6   2  107.09   17.10
   7   6   2  102.59   17.10
   7   6   2  105.99   15.40
   7   6   2  127.49   11.00
  -8  -6  -2    6.40    9.60
  -8  -6  -2    8.10   11.90
  -8  -6  -2   20.40   10.30
  -8  -6  -2   11.50    7.80
   8   6   2   33.20   12.70
   8   6   2   27.10   10.30
   8   6   2   12.20    7.40
   8   6   2   24.90   11.30
   5  -7  -2    3.30    7.10
   5  -7  -2   -3.80    6.70
   5  -7  -2   -4.10    6.40
   5  -7  -2   -7.20    9.50
  -5   7   2    4.00    8.40
  -5   7   2   -3.20    7.50
  -5   7   2    5.80    6.30
  -5   7   2    4.30    8.90
   4  -7  -2   90.89   12.00
   4  -7  -2   95.59   15.00
   4  -7  -2  108.39   12.90
   4  -7  -2  110.39    5.20
  -4   7   2  120.59   12.20
  -4   7   2  114.19   11.80
  -4   7   2  102.99   13.40
  -4   7   2   98.49   11.10
   3  -7  -2  477.55   24.20
   3  -7  -2  476.55   22.50
   3  -7  -2  434.56   22.80
   3  -7  -2  492.05   22.70
  -3   7   2  465.45   23.20
  -3   7   2  494.85   23.40
  -3   7   2  484.85   22.60
  -3   7   2  478.15   20.80
  -3   7   2  482.35   21.90
   2  -7  -2   16.00    4.50
   2  -7  -2   19.30    5.50
   2  -7  -2   10.80    5.70
  -2   7   2   11.40    5.90
  -2   7   2   20.60    5.10
  -2   7   2    5.70    6.70
  -2   7   2   21.10    5.80
  -2   7   2    9.70    4.10
   1  -7  -2   22.50    5.60
   1  -7  -2   35.60    6.10
   1  -7  -2   46.00    9.90
  -1   7   2   26.80    4.20
  -1   7   2   33.00    6.20
  -1   7   2   25.20    5.30
  -1   7   2   30.90    5.70
   0  -7  -2  119.49    8.50
   0  -7  -2  107.59    9.90
   0  -7  -2  106.49   12.80
   0   7   2  119.79    8.90
   0   7   2  118.19   10.00
   0   7   2  117.39    9.30
   0   7   2  120.09    5.80
  -1  -7  -2    8.10    3.40
  -1  -7  -2    7.60    4.70
  -1  -7  -2    4.70    7.40
   1   7   2    4.70    3.70
  -2  -7  -2  377.66   23.50
  -2  -7  -2  419.36   20.40
  -2  -7  -2  422.56   18.70
   2   7   2  409.06   16.30
   2   7   2  425.36   19.20
   2   7   2  465.25   22.30
   2   7   2  414.16   20.40
   2   7   2  424.66   19.20
  -3  -7  -2   47.20    8.00
  -3  -7  -2   32.50   10.70
  -3  -7  -2   34.00    5.30
  -3  -7  -2   38.70    7.60
   3   7   2   41.30    7.70
   3   7   2   45.80    9.70
   3   7   2   39.30    6.50
   3   7   2   50.49    8.30
   3   7   2   36.60    5.40
  -4  -7  -2  356.46   25.80
  -4  -7  -2  377.26   19.80
  -4  -7  -2  384.76   22.00
   4   7   2  386.26   18.70
   4   7   2  383.66   20.30
   4   7   2  374.76   35.60
   4   7   2  378.96   21.80
   4   7   2  378.76   18.10
  -5  -7  -2   43.40    7.90
  -5  -7  -2   42.50   10.40
  -5  -7  -2   51.69   14.90
  -5  -7  -2   42.60    7.90
  -5  -7  -2   49.00    8.00
   5   7   2   47.30    8.70
   5   7   2   45.70    8.30
   5   7   2   50.29   10.60
   5   7   2   55.59    9.00
   5   7   2   50.69   13.30
  -6  -7  -2   -3.70    5.70
  -6  -7  -2   -4.10   13.60
  -6  -7  -2    2.60    7.10
  -6  -7  -2   -9.70    8.30
  -6  -7  -2   -2.00    4.90
   6   7   2   -6.70   11.50
   6   7   2    2.30    5.90
   6   7   2   -1.00    8.70
   6   7   2    6.10    7.40
   6   7   2   -2.80    3.10
   6   7   2   -5.20    6.60
  -7  -7  -2    7.70    7.50
  -7  -7  -2   -4.50    7.80
  -7  -7  -2   -0.80   11.00
  -7  -7  -2    6.10    7.80
   7   7   2    1.50    4.70
   7   7   2    6.50    9.00
   7   7   2   20.20   13.10
   7   7   2    7.20   10.40
   7   7   2   -9.10    5.90
   7   7   2    1.80    9.10
   4  -8  -2   64.79   10.40
   4  -8  -2   75.09   12.90
   4  -8  -2   64.99   10.70
   4  -8  -2  110.19   13.80
  -4   8   2   81.89   11.00
  -4   8   2   89.39   12.60
  -4   8   2   75.79   10.90
  -4   8   2  106.49   14.10
  -4   8   2   74.19   12.10
   3  -8  -2   27.20    8.20
   3  -8  -2   14.30    7.40
   3  -8  -2   35.20    7.30
  -3   8   2   37.10    8.00
  -3   8   2   37.70    7.30
  -3   8   2   30.80    5.70
  -3   8   2   31.70    8.30
   2  -8  -2  212.78   19.20
   2  -8  -2  178.28   14.70
   2  -8  -2  198.78   13.60
   2  -8  -2  187.88   13.50
   2  -8  -2  186.58   12.90
  -2   8   2  183.98   15.30
  -2   8   2  178.78   10.60
  -2   8   2  159.28   13.90
  -2   8   2  193.88   13.70
  -2   8   2  187.78   14.80
   1  -8  -2   46.30    7.50
   1  -8  -2   56.79    7.90
   1  -8  -2   44.80   11.60
  -1   8   2   44.70    7.40
  -1   8   2   35.70    7.60
  -1   8   2   50.89    8.50
  -1   8   2   43.10    5.20
   0  -8  -2  177.48   13.30
   0  -8  -2  169.18   16.70
   0  -8  -2  187.58   11.40
   0   8   2  181.58   12.80
   0   8   2  177.18   13.60
   0   8   2  186.48   12.20
   0   8   2  200.78   12.60
   0   8   2  173.78    8.10
  -1  -8  -2  139.89   12.50
  -1  -8  -2  150.88   10.20
  -1  -8  -2  132.49   15.40
   1   8   2  134.29   10.30
   1   8   2  140.19    7.30
   1   8   2  137.59   10.60
   1   8   2  150.68   13.00
  -2  -8  -2  240.48   16.00
  -2  -8  -2  255.87   13.80
  -2  -8  -2  228.18   19.10
   2   8   2  227.18   15.90
   2   8   2  239.08   14.20
   2   8   2  223.18   10.90
  -3  -8  -2  354.26   24.60
  -3  -8  -2  360.26   20.80
  -3  -8  -2  379.26   18.60
  -3  -8  -2  317.57   14.80
   3   8   2  359.96   20.80
   3   8   2  360.46   18.80
   3   8   2  332.87   18.80
   3   8   2  332.07   20.60
   3   8   2  343.87   15.70
  -4  -8  -2    7.60    3.80
  -4  -8  -2   12.20    5.70
  -4  -8  -2   -1.70   10.50
  -4  -8  -2   18.80    7.90
   4   8   2   14.40    6.20
   4   8   2    9.40    5.30
   4   8   2    1.00    6.10
   4   8   2   12.90    7.60
   4   8   2   12.70    9.00
  -5  -8  -2  151.78   21.50
  -5  -8  -2  135.69   18.00
  -5  -8  -2  152.38   14.30
   5   8   2  153.08   18.20
   5   8   2  155.48   17.90
   5   8   2  149.69   13.20
   5   8   2  139.29   15.00
   5   8   2  141.69   13.70
  -6  -8  -2   -6.30   14.10
  -6  -8  -2   11.30   10.10
  -6  -8  -2   -2.10    6.40
  -6  -8  -2   -1.50    7.50
   6   8   2   -4.40    9.30
   6   8   2    0.20    5.90
   6   8   2   -7.80    7.50
   6   8   2    4.70    7.70
   6   8   2  -12.80   11.80
  -7  -8  -2  138.79   21.90
  -7  -8  -2  146.49   16.30
  -7  -8  -2  103.39   17.40
  -7  -8  -2  111.09   14.20
   7   8   2   99.79   16.40
   7   8   2  118.69   20.50
   7   8   2   95.69   14.80
   7   8   2  163.28   23.20
   7   8   2  120.29   13.90
   3  -9  -2   91.69   15.00
   3  -9  -2  128.79   15.20
   3  -9  -2  116.69   15.80
   3  -9  -2  135.19   13.70
  -3   9   2  147.29   14.10
  -3   9   2  120.89   14.70
  -3   9   2  122.59   11.20
  -3   9   2  129.29   12.20
  -3   9   2   93.29   15.50
   2  -9  -2  190.98   16.90
   2  -9  -2  220.98   14.90
   2  -9  -2  224.48   17.80
   2  -9  -2  248.18   22.40
  -2   9   2  237.58   17.70
  -2   9   2  210.38   11.90
  -2   9   2  207.08   14.80
  -2   9   2  219.18   16.90
   1  -9  -2  112.49   13.10
   1  -9  -2  103.69   10.20
   1  -9  -2  113.99   16.80
  -1   9   2   92.59   11.00
  -1   9   2   86.39    8.90
  -1   9   2   85.19   13.00
  -1   9   2   87.89   12.80
  -1   9   2   89.19    7.20
   0  -9  -2   83.09   15.20
   0  -9  -2   63.79    8.50
   0  -9  -2   69.39   11.80
   0   9   2   65.39    9.00
   0   9   2   66.29    5.30
   0   9   2   88.39   11.80
   0   9   2   68.59   10.00
   0   9   2   70.19    9.60
  -1  -9  -2    2.10    9.50
  -1  -9  -2    0.50    4.20
  -1  -9  -2  -11.20    5.20
   1   9   2   -1.30    2.60
   1   9   2   -6.80    6.00
   1   9   2   -0.10    2.00
   1   9   2   -5.40    4.30
  -2  -9  -2  430.66   23.00
  -2  -9  -2  398.86   26.60
  -2  -9  -2  433.46   20.80
   2   9   2  416.96   20.90
   2   9   2  460.75   24.50
   2   9   2  411.66   20.60
   2   9   2  415.36   17.00
   2   9   2  392.36   22.70
  -3  -9  -2  215.68   15.70
  -3  -9  -2  233.08   18.30
  -3  -9  -2  221.28   21.70
  -3  -9  -2  211.38   12.20
   3   9   2  233.58   18.30
   3   9   2  227.58   18.60
   3   9   2  215.28   12.60
   3   9   2  204.48   15.20
   3   9   2  226.08   16.30
  -4  -9  -2  102.69   19.50
  -4  -9  -2   88.69   12.20
  -4  -9  -2  104.49    8.70
  -4  -9  -2  134.79   17.00
   4   9   2  113.59   16.30
   4   9   2   94.09   13.60
   4   9   2   94.99   16.00
   4   9   2  111.19   11.20
   4   9   2   76.79   12.70
  -5  -9  -2   34.20    8.10
  -5  -9  -2   41.10   11.60
  -5  -9  -2   61.49   17.80
   5   9   2   57.89   10.30
   5   9   2   34.40   10.60
   5   9   2   35.60    9.70
   5   9   2   49.00   13.80
   5   9   2   36.70    8.00
  -6  -9  -2  -12.50    7.80
  -6  -9  -2    9.50    8.20
  -6  -9  -2   17.00   17.50
   6   9   2   27.10    8.40
   6   9   2    9.30    8.40
   6   9   2  -10.00    8.70
   6   9   2    5.30   14.10
  -7  -9  -2   -3.70    7.90
  -7  -9  -2   24.80   17.40
  -7  -9  -2   16.60   12.00
   7   9   2   16.80   19.20
   7   9   2   15.90   11.70
   7   9   2   20.30    9.40
   7   9   2    3.90   10.60
   7   9   2   24.40   12.10
   3 -10  -2   33.70   14.80
   3 -10  -2   18.70   10.70
   3 -10  -2   15.40    9.20
   3 -10  -2    9.40    8.40
   3 -10  -2   21.80    8.20
  -3  10   2   19.60    9.40
  -3  10   2   24.70    9.60
  -3  10   2   21.40    9.70
   2 -10  -2  235.98   17.20
   2 -10  -2  260.47   24.40
   2 -10  -2  255.37   20.30
   2 -10  -2  230.38   19.40
  -2  10   2  248.78   16.70
  -2  10   2  262.07   19.00
  -2  10   2  268.87   18.00
  -2  10   2  267.17   20.90
  -2  10   2  256.07   13.20
   1 -10  -2   14.80    6.20
   1 -10  -2    1.60   11.20
  -1  10   2    3.40    3.20
  -1  10   2   -2.20    7.70
  -1  10   2    8.60    6.00
  -1  10   2   -1.30    8.30
  -1  10   2    7.70    5.60
   0 -10  -2   27.00   12.10
   0 -10  -2    6.70    5.50
   0 -10  -2   12.60    7.90
   0  10   2   19.40    6.30
   0  10   2   16.30    8.60
   0  10   2   14.60    3.20
   0  10   2   16.70    8.40
  -1 -10  -2   -0.50   10.20
  -1 -10  -2   -5.80    6.80
   1  10   2   -5.00    7.20
   1  10   2    3.70    2.30
   1  10   2    6.90    3.60
   1  10   2   20.00    8.20
  -2 -10  -2   16.60    6.80
  -2 -10  -2   12.20   11.00
  -2 -10  -2   11.80    8.00
   2  10   2   21.00    4.50
   2  10   2   24.00    8.60
   2  10   2    4.70    8.60
  -3 -10  -2    6.90    8.70
  -3 -10  -2   -1.60    5.80
  -3 -10  -2   12.40   11.40
  -3 -10  -2    7.80    4.90
   3  10   2   11.80    6.50
   3  10   2    3.00    9.10
   3  10   2   -9.60    8.00
   3  10   2    0.70    4.90
   3  10   2   11.20    8.50
  -4 -10  -2  155.58   15.40
  -4 -10  -2  169.68   11.70
  -4 -10  -2  165.78   23.00
  -4 -10  -2  208.28   20.50
   4  10   2  175.58   13.40
   4  10   2  167.18   15.90
   4  10   2  162.88   18.70
   4  10   2  177.98   16.40
   4  10   2  196.08   20.90
  -5 -10  -2   50.59   14.70
  -5 -10  -2   56.19   10.50
   5  10   2   64.09   10.10
   5  10   2   63.29   11.60
   5  10   2   58.89   13.30
   5  10   2   79.09   16.40
   5  10   2   72.39   11.90
  -6 -10  -2  -11.30    8.30
  -6 -10  -2    7.60   16.00
  -6 -10  -2    3.10    9.20
  -6 -10  -2   -3.20   10.30
   6  10   2   21.30   12.00
   6  10   2   13.50    9.80
   6  10   2   19.80   13.90
   6  10   2   -6.10    9.90
   6  10   2   30.50    9.80
   2 -11  -2    2.00    8.80
   2 -11  -2   16.90   10.10
   2 -11  -2    9.90    7.80
   2 -11  -2   -2.60   12.80
  -2  11   2   11.90    9.50
  -2  11   2   18.60    5.20
  -2  11   2    7.90    7.70
  -2  11   2    8.40   10.30
   1 -11  -2  249.28   17.70
   1 -11  -2  260.77   20.30
   1 -11  -2  228.98   24.80
  -1  11   2  226.98   16.80
  -1  11   2  254.37   22.00
  -1  11   2  231.68   16.10
  -1  11   2  245.38   11.90
  -1  11   2  250.37   20.30
   0 -11  -2   18.20    6.30
   0 -11  -2   48.30   17.40
   0 -11  -2   21.60    9.20
   0  11   2   16.80    6.70
   0  11   2    9.90    9.60
   0  11   2   17.50    3.40
   0  11   2   14.80    6.00
   0  11   2   22.40   10.30
  -1 -11  -2   27.20   14.10
  -1 -11  -2    8.70    8.90
  -1 -11  -2   19.40    7.00
   1  11   2   28.90    3.50
   1  11   2   20.80    4.20
   1  11   2   27.90   10.20
   1  11   2   22.00    9.70
  -2 -11  -2   11.40   13.20
  -2 -11  -2   10.60   10.20
  -2 -11  -2   11.60    6.80
   2  11   2   16.60    9.50
   2  11   2   27.50    9.90
   2  11   2   15.80    4.40
  -3 -11  -2    5.30    5.80
  -3 -11  -2    0.20    9.10
  -3 -11  -2    3.40   13.40
  -3 -11  -2   -7.70    6.50
   3  11   2   -1.30    4.90
   3  11   2   18.50    9.30
   3  11   2    0.30   11.10
   3  11   2   -3.50    6.80
   3  11   2    8.50    9.50
  -4 -11  -2  228.28   18.60
  -4 -11  -2  228.68   14.00
  -4 -11  -2  229.68   21.70
   4  11   2  265.97   20.30
   4  11   2  173.98   21.00
   4  11   2  216.38   21.70
   4  11   2  238.48   15.30
   4  11   2  242.48   23.20
  -5 -11  -2   56.99   12.80
  -5 -11  -2   50.49   19.10
  -5 -11  -2   33.00   10.10
   5  11   2   19.40    8.60
   5  11   2   31.50   12.40
   5  11   2   34.90   14.40
   5  11   2   39.50   11.50
   5  11   2   12.10    9.60
   0 -12  -2    0.00   12.70
   0 -12  -2   22.50   10.40
   0 -12  -2   -0.70    7.40
   0  12   2   11.80   10.90
   0  12   2    9.50    3.30
   0  12   2   15.50    6.40
   0  12   2    7.00    9.40
  -1 -12  -2    3.70   12.90
  -1 -12  -2    3.00    7.10
  -1 -12  -2    9.40    9.30
   1  12   2   -3.00    9.30
   1  12   2    9.40    4.00
   1  12   2   -0.10    7.80
   1  12   2    4.60    3.10
   1  12   2   10.60   11.30
  -2 -12  -2   -6.00    8.50
  -2 -12  -2    1.10    7.00
  -2 -12  -2   -5.30   13.50
   2  12   2    2.80    4.40
   2  12   2   -9.20    8.80
   2  12   2   -3.30   10.50
   2  12   2  -15.40    7.40
  -3 -12  -2   24.60   11.10
  -3 -12  -2   40.10   18.00
  -3 -12  -2   29.10    9.20
  -3 -12  -2   43.60    8.40
   3  12   2   46.50   11.50
   3  12   2   41.20   13.20
   3  12   2   43.80    7.00
  -4 -12  -2   39.70   10.20
  -4 -12  -2   65.99   11.00
  -4 -12  -2   53.19   12.70
  -4 -12  -2   63.29   18.50
   4  12   2   65.29   13.40
   4  12   2   35.20    8.30
   4  12   2   50.79   14.20
   4  12   2   57.39   14.70
   2  11  -3    4.70    9.50
   2  11  -3    8.40    6.10
   2  11  -3   22.80   10.60
   2  11  -3   23.10    9.80
  -2 -11   3   15.20   11.60
  -2 -11   3   -4.90    8.80
  -2 -11   3   35.10   14.30
  -2 -11   3   -2.50    8.60
   1  11  -3  -10.30    8.20
   1  11  -3   -3.20    9.80
   1  11  -3    6.50    3.80
  -1 -11   3   -5.20    8.90
  -1 -11   3    0.70   10.80
  -1 -11   3    4.30   12.90
  -1 -11   3    5.60    8.30
  -1 -11   3    6.40   10.00
   0  11  -3  -19.70    9.50
   0  11  -3    2.40    2.30
   0 -11   3  -12.00   10.00
   0 -11   3   -7.90   12.60
   4  10  -3   -8.70    9.30
   4  10  -3   -6.90    9.40
  -4 -10   3    3.00    9.30
  -4 -10   3    7.70   15.00
   3  10  -3  -12.10    8.10
   3  10  -3    3.80    8.60
   3  10  -3    3.90    9.90
  -3 -10   3    1.30   10.30
  -3 -10   3    5.20    6.60
  -3 -10   3   15.00   13.00
  -3 -10   3    5.40    8.50
  -3 -10   3   -7.10    7.50
   2  10  -3  323.27   20.00
   2  10  -3  326.77   23.70
   2  10  -3  261.27   21.10
   2  10  -3  258.37   20.70
  -2 -10   3  333.47   24.80
  -2 -10   3  271.67   20.50
  -2 -10   3  342.67   25.20
  -2 -10   3  274.57   19.70
   1  10  -3   23.20    8.50
   1  10  -3   18.90    4.40
  -1 -10   3   37.20   11.70
  -1 -10   3   34.40   10.00
  -1 -10   3   33.50   12.50
  -1 -10   3   33.30    8.80
   0  10  -3   -1.70    7.20
   0  10  -3    4.60    2.40
   0  10  -3   -6.80   15.70
   0 -10   3  -12.90    7.20
   0 -10   3   -9.70   10.70
   0 -10   3   -0.20   10.80
   0 -10   3  -11.40    6.60
  -1  10  -3   36.20    9.60
  -1  10  -3   60.49    7.80
   1 -10   3   54.79   10.50
   1 -10   3   61.09   12.70
   1 -10   3   95.09   16.60
   1 -10   3   52.79   10.10
  -2  10  -3   30.90   11.20
  -2  10  -3   42.70    8.80
  -2  10  -3   31.40    6.00
   2 -10   3   29.60   15.10
   2 -10   3   21.00   10.40
   2 -10   3   49.40   10.30
   5   9  -3  -11.80    8.00
   5   9  -3   16.20   10.40
   5   9  -3   -1.90   10.50
   5   9  -3    6.50   10.00
  -5  -9   3    9.00    9.90
  -5  -9   3    3.40    5.30
  -5  -9   3   -1.70   11.90
   4   9  -3   20.90    9.10
   4   9  -3    2.60    7.50
   4   9  -3   12.50    9.70
   4   9  -3    4.70    8.50
  -4  -9   3   17.60    8.70
  -4  -9   3    5.10    9.70
  -4  -9   3   31.20   14.20
  -4  -9   3    2.70    7.70
   3   9  -3   70.89   10.80
   3   9  -3   57.69   10.20
   3   9  -3   71.69   10.50
   3   9  -3   61.29   20.40
  -3  -9   3   69.69   11.10
  -3  -9   3   60.09   12.40
  -3  -9   3   87.69   13.60
  -3  -9   3   45.10    9.30
  -3  -9   3   79.59   16.20
   2   9  -3   12.30    8.50
   2   9  -3    4.50    6.70
   2   9  -3   -4.80    6.40
  -2  -9   3    7.20    8.60
  -2  -9   3    0.90    5.90
  -2  -9   3   10.50   11.50
  -2  -9   3   -0.50    7.60
  -2  -9   3   -1.10    6.40
   1   9  -3   41.80    6.80
   1   9  -3   35.30    9.40
   1   9  -3   45.40    9.00
  -1  -9   3   37.20    8.50
  -1  -9   3   37.50    9.40
  -1  -9   3   27.60    7.70
  -1  -9   3   46.20   12.30
  -1  -9   3   53.59   10.50
   0   9  -3    1.20    5.80
   0   9  -3  -12.40    6.40
   0   9  -3    2.10    2.40
   0  -9   3   -2.60    5.90
   0  -9   3  -11.40    6.10
   0  -9   3    0.70    9.50
   0  -9   3   -3.00    7.70
  -1   9  -3    4.60    7.70
  -1   9  -3    1.10    3.40
  -1   9  -3   -3.40    6.30
   1  -9   3   -7.90    8.70
   1  -9   3   -1.00    8.30
   1  -9   3   -5.40    6.20
  -2   9  -3  176.98   17.70
  -2   9  -3  195.88   14.30
  -2   9  -3  193.38   19.30
  -2   9  -3  176.78   11.80
   2  -9   3  176.18   18.60
   2  -9   3  202.38   19.80
   2  -9   3  177.78   17.00
  -3   9  -3  206.58   19.90
  -3   9  -3  225.98   20.80
  -3   9  -3  217.78   14.00
   3  -9   3  170.78   19.80
   3  -9   3  212.58   20.70
   3  -9   3  223.68   22.10
   3  -9   3  204.18   16.10
   3  -9   3  202.38   20.30
   6   8  -3   20.10   12.10
   6   8  -3    0.10    9.60
   6   8  -3   34.80   10.50
   6   8  -3   45.10   14.30
  -6  -8   3    9.90   11.90
  -6  -8   3   15.00    5.20
  -6  -8   3   16.10    3.60
  -6  -8   3   22.20   13.40
   5   8  -3   25.20   10.50
   5   8  -3   22.50    8.10
   5   8  -3   26.30   10.50
  -5  -8   3   32.00    9.50
  -5  -8   3   16.50    4.40
  -5  -8   3   22.80    7.80
  -5  -8   3   37.00   12.50
   4   8  -3   -1.30   13.00
   4   8  -3   -7.70    7.20
   4   8  -3  -12.60    6.10
   4   8  -3   -3.00    7.80
  -4  -8   3    0.50    4.10
  -4  -8   3    9.70    7.50
  -4  -8   3  -10.70   10.60
  -4  -8   3   -5.50    8.20
   3   8  -3   41.50    8.40
   3   8  -3   27.80    7.50
   3   8  -3   32.90    8.30
   3   8  -3   31.70    9.30
  -3  -8   3   37.00    8.80
  -3  -8   3   29.60    6.10
  -3  -8   3   32.80   12.30
  -3  -8   3   37.30   10.20
  -3  -8   3   33.80    7.50
   2   8  -3  325.07   17.70
   2   8  -3  328.57   19.10
   2   8  -3  332.57   20.90
  -2  -8   3  321.47   21.70
  -2  -8   3  311.47   19.40
  -2  -8   3  296.97   21.90
  -2  -8   3  332.17   18.90
   1   8  -3  116.39   14.20
   1   8  -3   85.09    8.20
   1   8  -3  115.49   12.50
  -1  -8   3   91.59   14.80
  -1  -8   3  109.09   15.50
  -1  -8   3  102.89   13.10
  -1  -8   3   87.09   14.20
  -1  -8   3   80.39   11.50
   0   8  -3    6.50    2.60
   0   8  -3    2.60    6.60
   0   8  -3    5.50    5.60
   0  -8   3    9.80    4.80
   0  -8   3    6.60    5.90
   0  -8   3    2.00    8.20
   0  -8   3    5.40    7.10
  -1   8  -3    1.00    1.70
  -1   8  -3   -5.50    5.50
  -1   8  -3   -1.00    2.90
  -1   8  -3   -4.20    6.30
   1  -8   3   -6.00    7.40
   1  -8   3    0.00    6.70
   1  -8   3    2.10    6.40
   1  -8   3    0.00    4.90
  -2   8  -3   18.20    4.30
  -2   8  -3   15.40    7.80
  -2   8  -3   12.20    7.60
  -2   8  -3   17.50    6.10
   2  -8   3   20.20    8.40
   2  -8   3   12.30    6.90
   2  -8   3   18.60    9.80
  -3   8  -3   19.60    8.20
  -3   8  -3   14.10    6.40
  -3   8  -3   21.90    8.70
  -3   8  -3   13.00    5.00
   3  -8   3    4.80    8.60
   3  -8   3    6.10    5.80
   3  -8   3   11.10    8.00
  -4   8  -3   64.09    9.30
  -4   8  -3   54.29   11.70
   4  -8   3   37.10    9.00
   4  -8   3   47.60   10.90
   4  -8   3   38.90   10.70
   6   7  -3   27.00   10.70
   6   7  -3   39.50   11.90
   6   7  -3   42.00   12.60
  -6  -7   3   15.30    8.90
  -6  -7   3   26.90    9.30
  -6  -7   3   41.50   12.60
   5   7  -3   -1.60    8.30
   5   7  -3   12.90    9.40
   5   7  -3   -4.50    6.70
   5   7  -3    4.60    9.60
   5   7  -3    2.60    6.70
  -5  -7   3    9.50    3.00
  -5  -7   3    4.90    9.90
   4   7  -3   -2.50    6.40
   4   7  -3    0.30    8.10
   4   7  -3   -2.20    7.30
  -4  -7   3   -2.20    2.90
  -4  -7   3   -8.90    7.80
  -4  -7   3   -2.10    6.60
  -4  -7   3   -6.50    9.50
   3   7  -3   20.60    7.20
   3   7  -3   21.70    7.60
   3   7  -3   22.80    7.40
   3   7  -3   24.10    7.40
  -3  -7   3   15.70    6.20
  -3  -7   3   38.70   10.70
  -3  -7   3   13.90    7.30
  -3  -7   3   16.90    8.20
   2   7  -3   32.10    7.00
   2   7  -3   51.69    8.50
  -2  -7   3   38.40    8.30
  -2  -7   3   53.99    7.90
  -2  -7   3   31.70   10.60
  -2  -7   3   58.89    9.60
  -2  -7   3   51.09    9.10
   1   7  -3  215.88   15.40
   1   7  -3  210.58   14.00
  -1  -7   3  214.08   16.40
  -1  -7   3  189.78   15.40
  -1  -7   3  195.28   14.70
  -1  -7   3  174.28   13.20
  -1  -7   3  213.88   13.60
   0   7  -3    3.60    2.50
   0   7  -3   -5.20    5.20
   0  -7   3   -2.80    6.00
   0  -7   3   -6.70    6.80
   0  -7   3   -5.40    4.70
   0  -7   3   -2.90    5.80
  -1   7  -3   -0.80    6.00
  -1   7  -3   -0.60    2.60
  -1   7  -3   -2.60    1.70
  -1   7  -3   -4.30    4.60
   1  -7   3   -8.80    5.50
   1  -7   3   -2.20    6.30
   1  -7   3   -0.80    5.10
  -2   7  -3  130.99   13.50
  -2   7  -3  155.38   14.80
  -2   7  -3  147.89    9.40
  -2   7  -3  139.09   21.40
   2  -7   3  151.68   13.40
   2  -7   3  153.38   14.60
  -3   7  -3  212.58   15.00
  -3   7  -3  189.18   15.90
  -3   7  -3  186.38   11.50
  -3   7  -3  192.28   16.40
   3  -7   3  164.18   15.50
   3  -7   3  141.99   12.20
   3  -7   3  163.48   16.30
  -4   7  -3   50.79   10.10
  -4   7  -3   59.69    9.30
   4  -7   3   48.20   11.80
   4  -7   3   40.90    9.90
   4  -7   3   48.50    8.20
  -5   7  -3   13.60    9.10
  -5   7  -3    0.20    9.20
  -5   7  -3    1.90    4.90
   5  -7   3   -0.90    3.10
   5  -7   3   -1.40    8.00
   5  -7   3   -7.10    9.00
   5  -7   3   21.20    9.60
   5  -7   3   -7.70    6.80
   6   6  -3   31.30   11.30
   6   6  -3   20.80    8.70
   6   6  -3    8.40    8.40
   6   6  -3   23.80   10.90
   6   6  -3   28.90   10.80
  -6  -6   3   40.20   11.60
  -6  -6   3   24.60   11.00
  -6  -6   3   13.00    7.40
   5   6  -3   76.49   12.40
   5   6  -3  104.49   14.50
   5   6  -3  124.49   14.80
   5   6  -3   85.69   13.60
   5   6  -3   86.69   16.40
  -5  -6   3  100.59    7.40
  -5  -6   3   99.79    5.60
  -5  -6   3  110.39   18.70
  -5  -6   3   87.79   14.30
   4   6  -3   46.90   10.00
   4   6  -3   23.70    7.50
   4   6  -3   45.90    9.30
   4   6  -3   36.60    9.20
   4   6  -3   39.20    7.40
  -4  -6   3   24.00    9.30
  -4  -6   3   34.00    8.40
  -4  -6   3   33.10    5.10
   3   6  -3   15.30    6.10
   3   6  -3   18.70    6.60
   3   6  -3   22.90    7.10
   3   6  -3   16.20    5.30
  -3  -6   3   19.40    3.90
  -3  -6   3   20.30    9.70
  -3  -6   3   12.80    4.80
  -3  -6   3   15.40    6.80
  -3  -6   3   27.90    7.90
   2   6  -3  525.05   24.30
   2   6  -3  539.75   23.30
   2   6  -3  528.65   23.00
  -2  -6   3  548.05   24.30
  -2  -6   3  570.14   25.40
  -2  -6   3  529.05   21.50
  -2  -6   3  508.45   25.60
   1   6  -3  138.19   11.80
   1   6  -3  141.89   10.80
  -1  -6   3  141.99   12.50
  -1  -6   3  135.29   10.20
  -1  -6   3  113.39   11.90
  -1  -6   3  122.79   10.30
  -1  -6   3  138.29   11.70
   0   6  -3   88.89    6.40
   0   6  -3   84.69    9.10
   0   6  -3  104.19   10.50
   0  -6   3   97.99   11.00
   0  -6   3   96.39   10.40
   0  -6   3   94.09    9.10
   0  -6   3  103.79    9.20
  -1   6  -3  209.48    9.90
  -1   6  -3  203.58   13.80
  -1   6  -3  210.78    9.20
  -1   6  -3  222.78   13.30
   1  -6   3  207.08   14.20
   1  -6   3  199.88   13.00
   1  -6   3  212.48   13.60
   1  -6   3  206.98   13.10
  -2   6  -3   -1.50    4.80
  -2   6  -3   -3.00    3.70
  -2   6  -3    0.00    5.30
  -2   6  -3    8.40    3.20
   2  -6   3    1.10    3.80
   2  -6   3    3.80    5.70
  -3   6  -3  313.97   18.50
  -3   6  -3  301.27   16.60
  -3   6  -3  286.97   17.90
  -3   6  -3  303.87   15.10
   3  -6   3  320.17   18.60
   3  -6   3  262.47   14.60
   3  -6   3  286.17   18.40
   3  -6   3  303.87   12.70
   3  -6   3  291.97   18.50
  -4   6  -3  967.90   38.40
  -4   6  -3 1052.89   40.50
  -4   6  -3 1058.59   41.30
  -4   6  -3  971.70   41.50
   4  -6   3  952.60   41.50
   4  -6   3 1026.20   41.30
   4  -6   3  986.60   34.70
   4  -6   3  991.00   42.10
   4  -6   3  941.81   38.10
  -5   6  -3   23.80    9.20
  -5   6  -3   41.10    9.50
  -5   6  -3   26.50    7.50
   5  -6   3   29.60    9.20
   5  -6   3   47.50    9.80
   5  -6   3   31.90   10.40
   5  -6   3   25.50    7.80
   5  -6   3   23.40    4.80
   7   5  -3   12.90    4.90
   7   5  -3   10.30   11.50
   7   5  -3   30.70   15.50
   7   5  -3   26.50   10.90
   7   5  -3   11.40    9.70
   7   5  -3   17.20    9.00
  -7  -5   3   21.10   10.00
  -7  -5   3   20.80    8.00
  -7  -5   3   24.90   12.80
   6   5  -3   52.49   12.30
   6   5  -3   90.79   12.60
   6   5  -3   98.69   13.60
   6   5  -3   66.69   12.90
  -6  -5   3   87.99   11.60
  -6  -5   3   81.99   12.60
  -6  -5   3  121.59   19.50
  -6  -5   3  112.59   18.20
   5   5  -3   12.00    8.70
   5   5  -3   -2.80    5.30
   5   5  -3    0.80    8.10
  -5  -5   3    3.40    8.50
  -5  -5   3   -2.60    5.30
  -5  -5   3   -0.20    8.60
   4   5  -3  307.47   17.50
   4   5  -3  303.37   18.90
   4   5  -3  291.67   18.30
   4   5  -3  280.47   16.40
   4   5  -3  285.77   19.30
  -4  -5   3  295.57   11.50
  -4  -5   3  277.87   19.50
  -4  -5   3  285.47   20.00
  -4  -5   3  292.77   17.50
  -4  -5   3  273.07   16.20
   3   5  -3   -4.60    3.60
   3   5  -3    2.30    5.10
   3   5  -3   -0.50    3.50
   3   5  -3   -6.20    4.10
   3   5  -3    2.80    5.30
  -3  -5   3   -4.20    5.10
  -3  -5   3   -7.40    4.80
  -3  -5   3   -0.20    2.20
  -3  -5   3   -6.70    6.80
   2   5  -3   40.60    6.50
   2   5  -3   42.10    6.70
   2   5  -3   38.40    6.40
   2   5  -3   44.50    6.80
  -2  -5   3   34.10    8.20
  -2  -5   3   53.59    6.90
  -2  -5   3   61.49    9.90
  -2  -5   3   48.60    5.80
  -2  -5   3   35.30    6.90
   1   5  -3  203.18   11.70
   1   5  -3  199.48   10.60
   1   5  -3  202.48   12.70
  -1  -5   3  166.98   12.80
  -1  -5   3  183.58   11.30
  -1  -5   3  204.98   13.20
  -1  -5   3  178.08   11.10
  -1  -5   3  194.38   12.70
   0   5  -3   48.60    5.20
   0   5  -3   78.79    8.70
   0   5  -3   63.59    7.60
   0  -5   3   62.39    8.10
   0  -5   3   60.29    9.00
   0  -5   3   38.00    7.90
   0  -5   3   55.39    7.40
  -1   5  -3   85.89   10.10
  -1   5  -3   85.79    9.30
  -1   5  -3   77.79    5.20
  -1   5  -3   93.09    5.60
   1  -5   3   68.59    7.90
   1  -5   3   71.89    8.50
   1  -5   3   73.19    8.90
   1  -5   3   72.99    9.30
  -2   5  -3    4.90    2.70
  -2   5  -3   -1.50    4.20
  -2   5  -3    1.20    4.10
   2  -5   3    0.30    3.90
   2  -5   3   -0.10    4.40
   2  -5   3    2.30    2.50
   2  -5   3   -0.20    3.50
  -3   5  -3   87.59    9.20
  -3   5  -3   86.79    7.60
  -3   5  -3  102.79   11.80
  -3   5  -3   97.49   10.90
   3  -5   3   89.99    7.70
   3  -5   3  113.09   11.70
   3  -5   3   90.89   11.50
   3  -5   3  101.59   10.90
   3  -5   3   90.99    6.60
  -4   5  -3   10.50    6.40
  -4   5  -3   -1.50    6.40
  -4   5  -3    7.10    5.90
  -4   5  -3    5.50    4.60
   4  -5   3    6.80    6.60
   4  -5   3    4.60    6.60
   4  -5   3   -4.60    3.90
   4  -5   3   -1.30    6.00
   4  -5   3    2.50    3.40
  -5   5  -3    1.90    5.70
  -5   5  -3    9.10    7.60
  -5   5  -3   -0.70    7.60
  -5   5  -3   15.90    7.50
   5  -5   3   16.90    8.00
   5  -5   3   -0.90    4.20
   5  -5   3    1.90    7.40
   5  -5   3   21.60    8.20
  -6   5  -3   -1.60    8.80
  -6   5  -3   22.80    9.10
  -6   5  -3    7.20    5.60
   6  -5   3   -1.60    7.40
   6  -5   3   -0.60    9.40
   6  -5   3    0.30    8.00
   6  -5   3   -0.80    4.60
   6  -5   3  -14.20    8.00
   7   4  -3   -3.10    9.00
   7   4  -3   -9.10    8.70
   7   4  -3    5.30   15.00
   7   4  -3    0.40    3.60
   7   4  -3  -11.90    8.90
   7   4  -3   -6.70    7.90
  -7  -4   3   -6.40    9.30
  -7  -4   3   -2.30   10.70
  -7  -4   3    3.50    6.40
   6   4  -3  555.04   28.10
   6   4  -3  542.55   26.50
   6   4  -3  584.34   32.70
  -6  -4   3  499.85   26.20
  -6  -4   3  600.34   30.70
  -6  -4   3  527.05   27.60
  -6  -4   3  498.45   34.70
   5   4  -3  226.68   16.00
   5   4  -3  226.28   17.60
   5   4  -3  229.18   20.50
   5   4  -3  170.28   18.20
   5   4  -3  203.28   14.70
  -5  -4   3  212.38   19.30
  -5  -4   3  206.28   18.70
  -5  -4   3  215.88   15.10
   4   4  -3   59.29    8.50
   4   4  -3   67.49    9.70
   4   4  -3   74.59    9.90
   4   4  -3   80.39   12.20
   4   4  -3   60.79   11.50
  -4  -4   3   54.89    9.00
  -4  -4   3   48.50    8.90
  -4  -4   3   62.09    3.10
  -4  -4   3   58.29   10.30
  -4  -4   3   63.19    3.00
   3   4  -3   84.89    9.60
   3   4  -3   96.49    8.50
   3   4  -3  100.09   10.30
   3   4  -3   84.49    8.70
   3   4  -3  104.29   10.30
  -3  -4   3   94.39    5.30
  -3  -4   3  107.09    8.40
  -3  -4   3   98.69   11.00
  -3  -4   3   83.39   10.00
   2   4  -3   54.49    6.30
   2   4  -3   52.19    6.50
   2   4  -3   43.50    6.80
   2   4  -3   54.69    7.90
   2   4  -3   58.89    7.70
  -2  -4   3   34.00    7.60
  -2  -4   3   54.29    8.10
  -2  -4   3   53.19    6.10
  -2  -4   3   36.70    4.50
  -2  -4   3   35.80    6.40
   1   4  -3 1032.60   37.30
   1   4  -3 1041.40   36.30
   1   4  -3 1044.00   36.90
  -1  -4   3  972.70   37.50
  -1  -4   3 1040.40   36.30
  -1  -4   3 1069.49   37.80
  -1  -4   3 1067.59   38.30
  -1  -4   3 1054.59   36.80
   0   4  -3 2705.93   88.29
   0   4  -3 2762.02   89.49
   0   4  -3 2712.13   89.49
   0  -4   3 2734.83   89.69
   0  -4   3 2731.63   89.39
   0  -4   3 2755.82   89.79
   0  -4   3 2609.04   89.19
  -1   4  -3  350.56   15.90
  -1   4  -3  342.47   19.90
  -1   4  -3  351.56   13.20
  -1   4  -3  327.77   13.30
   1  -4   3  346.17   16.10
   1  -4   3  347.07   15.80
   1  -4   3  357.96   16.00
  -2   4  -3   12.80    4.40
  -2   4  -3   19.30    3.50
  -2   4  -3   13.70    4.80
   2  -4   3   18.30    4.80
   2  -4   3   12.80    4.60
   2  -4   3   18.70    3.00
   2  -4   3   11.60    4.60
  -3   4  -3    6.30    3.50
  -3   4  -3   11.50    4.40
  -3   4  -3    7.90    5.30
  -3   4  -3    6.40    4.40
   3  -4   3    2.20    2.80
   3  -4   3    3.50    4.60
   3  -4   3    0.60    4.10
   3  -4   3    2.70    4.70
   3  -4   3    3.90    2.70
  -4   4  -3  227.38   14.00
  -4   4  -3  245.78   16.20
  -4   4  -3  233.18   16.00
  -4   4  -3  212.88   14.90
   4  -4   3  236.68   11.40
   4  -4   3  238.88   15.90
   4  -4   3  224.08   12.80
   4  -4   3  210.68   17.80
   4  -4   3  223.98   14.40
  -5   4  -3  559.64   27.10
  -5   4  -3  473.45   24.50
  -5   4  -3  459.25   24.10
  -5   4  -3  542.35   27.10
   5  -4   3  533.75   27.10
   5  -4   3  578.04   27.30
   5  -4   3  475.25   20.70
   5  -4   3  456.45   25.00
   5  -4   3  440.66   22.60
  -6   4  -3   29.80    7.90
  -6   4  -3   39.00   10.40
  -6   4  -3   36.60    9.70
   6  -4   3   51.09   10.40
   6  -4   3   26.20    7.80
   6  -4   3   25.80    6.60
   6  -4   3   27.50    9.60
   6  -4   3   29.20    8.80
   7   3  -3   38.90   16.10
   7   3  -3   13.10    9.70
   7   3  -3   15.90    8.50
   7   3  -3   19.50   10.90
   7   3  -3   16.00    9.50
  -7  -3   3   23.20    9.30
  -7  -3   3    8.30    6.40
  -7  -3   3   24.80   11.20
  -7  -3   3   15.50    8.20
   6   3  -3    0.20    7.10
   6   3  -3    2.00    9.80
   6   3  -3    6.60   12.10
   6   3  -3   14.00    5.70
   6   3  -3   -4.80    8.70
  -6  -3   3    6.30    6.20
  -6  -3   3    4.10    8.60
  -6  -3   3   -6.10   10.50
   5   3  -3  759.02   31.10
   5   3  -3  774.32   33.40
   5   3  -3  746.03   32.20
   5   3  -3  676.03   37.00
   5   3  -3  727.53   33.30
  -5  -3   3  698.33   32.20
  -5  -3   3  712.53   31.80
  -5  -3   3  775.92   33.50
  -5  -3   3  752.02   34.00
  -5  -3   3  728.83   30.50
   4   3  -3  351.46   19.10
   4   3  -3  342.57   17.30
   4   3  -3  366.56   18.50
   4   3  -3  334.77   20.20
   4   3  -3  337.17   19.20
  -4  -3   3  346.77   19.40
  -4  -3   3  358.16   20.70
   3   3  -3  453.15   20.30
   3   3  -3  477.95   20.60
   3   3  -3  460.85   19.50
   3   3  -3  452.35   22.00
   3   3  -3  444.86   20.60
  -3  -3   3  451.85   20.50
  -3  -3   3  460.45   20.80
  -3  -3   3  460.95   19.10
  -3  -3   3  479.55   22.30
  -3  -3   3  428.86   15.30
   2   3  -3   11.30    3.50
   2   3  -3   10.40    3.70
   2   3  -3   12.80    4.00
   2   3  -3    8.70    4.80
   2   3  -3   10.50    4.40
  -2  -3   3    8.70    3.10
  -2  -3   3   12.20    4.20
  -2  -3   3    2.00    4.50
  -2  -3   3   12.50    2.10
   1   3  -3  314.67   13.80
   1   3  -3  300.47   12.90
   1   3  -3  299.57   13.40
  -1  -3   3  334.77   13.50
  -1  -3   3  328.97   13.00
  -1  -3   3  329.47   14.30
  -1  -3   3  319.27   15.00
  -1  -3   3  290.17   13.80
   0   3  -3    5.10    2.90
   0   3  -3    4.30    2.40
   0   3  -3    8.10    3.20
   0  -3   3    9.90    3.40
   0  -3   3    6.60    2.70
   0  -3   3    4.80    2.90
   0  -3   3    3.10    1.80
   0  -3   3    4.00    3.10
  -1   3  -3    2.00    3.40
  -1   3  -3    5.10    1.80
  -1   3  -3    0.30    1.80
  -1   3  -3   -0.50    3.00
  -1   3  -3    4.20    3.60
   1  -3   3   -3.80    2.60
   1  -3   3    0.40    3.40
   1  -3   3    2.90    2.50
   1  -3   3    7.70    2.90
  -2   3  -3  293.57   14.50
  -2   3  -3  312.57   14.60
  -2   3  -3  278.37   14.20
  -2   3  -3  311.17   12.80
   2  -3   3  294.77   14.60
   2  -3   3  292.87   14.50
   2  -3   3  300.47   14.40
   2  -3   3  300.47   12.10
  -3   3  -3    1.00    3.70
  -3   3  -3    0.20    3.30
  -3   3  -3    1.50    2.90
  -3   3  -3    2.10    4.40
  -3   3  -3    3.60    4.20
   3  -3   3    2.40    2.50
   3  -3   3    3.30    2.30
   3  -3   3   -2.80    3.60
   3  -3   3    1.10    3.70
   3  -3   3    5.50    4.30
  -4   3  -3  123.39    9.80
  -4   3  -3  136.59   11.80
  -4   3  -3  131.79   12.40
   4  -3   3  129.69    8.60
   4  -3   3  138.89   12.30
   4  -3   3  141.69   12.30
   4  -3   3  138.39    9.30
  -5   3  -3  843.12   36.10
  -5   3  -3  937.31   36.30
  -5   3  -3  933.31   37.70
  -5   3  -3  934.71   36.90
   5  -3   3  833.72   36.50
   5  -3   3  896.91   38.60
   5  -3   3  805.42   33.80
   5  -3   3  915.51   37.30
  -6   3  -3  155.68   13.90
  -6   3  -3  170.38   17.80
   6  -3   3  170.88   17.50
   6  -3   3  180.48   20.10
   6  -3   3  162.48   15.30
  -7   3  -3   -0.70    6.70
  -7   3  -3    2.50   10.00
  -7   3  -3    2.80    9.10
   7  -3   3   14.40   10.20
   7  -3   3   -3.50    8.10
   7  -3   3   -0.50    8.60
   7   2  -3   61.69   12.10
   7   2  -3   81.49   18.00
   7   2  -3   59.99   11.70
   7   2  -3   45.60   10.40
  -7  -2   3   39.70    9.20
  -7  -2   3   48.40   12.40
  -7  -2   3   59.89   11.90
  -7  -2   3   53.69   10.50
  -7  -2   3   55.49   11.50
   6   2  -3   -8.30    8.20
   6   2  -3  -10.30   10.30
   6   2  -3    1.70    5.20
   6   2  -3   10.10    6.90
   6   2  -3    0.10    7.60
  -6  -2   3    3.40    8.90
  -6  -2   3   -4.30    6.10
  -6  -2   3   -4.70    6.60
   5   2  -3  670.13   30.70
   5   2  -3  748.53   36.20
   5   2  -3  680.63   29.40
   5   2  -3  728.03   32.40
   5   2  -3  715.63   31.50
  -5  -2   3  739.13   32.10
  -5  -2   3  703.83   33.30
  -5  -2   3  732.03   31.70
  -5  -2   3  707.63   29.60
  -5  -2   3  662.13   31.40
   4   2  -3   61.99    8.90
   4   2  -3   64.49    7.90
   4   2  -3   47.20    7.80
   4   2  -3   69.39   11.00
   4   2  -3   54.69    8.30
  -4  -2   3   57.19    9.70
  -4  -2   3   69.59   10.30
  -4  -2   3   69.29    7.80
  -4  -2   3   67.59    8.30
   3   2  -3 1818.62   61.49
   3   2  -3 1743.53   60.59
   3   2  -3 1684.03   60.89
   3   2  -3 1801.52   60.09
   3   2  -3 1653.23   62.89
  -3  -2   3 1845.32   60.89
  -3  -2   3 1773.72   62.29
  -3  -2   3 1740.73   60.59
  -3  -2   3 1772.02   59.59
   2   2  -3  496.45   20.30
   2   2  -3  517.45   20.60
   2   2  -3  450.05   20.50
   2   2  -3  482.55   19.10
   2   2  -3  495.45   19.70
  -2  -2   3  490.45   19.90
  -2  -2   3  476.05   16.60
  -2  -2   3  523.55   19.00
  -2  -2   3  520.65   21.10
  -2  -2   3  485.05   20.70
   1   2  -3  357.26   14.40
   1   2  -3  378.26   14.40
   1   2  -3  349.17   14.10
   1   2  -3  351.96   15.30
  -1  -2   3  359.56   14.70
  -1  -2   3  369.36   16.00
  -1  -2   3  382.76   14.10
  -1  -2   3  362.46   13.60
   0   2  -3 2220.38   70.69
   0   2  -3 2137.29   69.89
   0   2  -3 2167.48   69.79
   0   2  -3 2108.89   69.79
   0  -2   3 2137.89   70.79
   0  -2   3 2139.89   69.69
   0  -2   3 2130.39   69.89
   0  -2   3 2091.19   70.09
  -1   2  -3   91.59    7.30
  -1   2  -3  100.59    5.50
  -1   2  -3  114.19    4.70
  -1   2  -3   89.39    6.60
  -1   2  -3   93.89    6.90
   1  -2   3  101.29    5.80
   1  -2   3   85.89    6.60
   1  -2   3   96.19    7.00
   1  -2   3   93.09    7.20
  -2   2  -3 1172.08   41.40
  -2   2  -3 1192.48   40.80
  -2   2  -3 1190.18   41.40
  -2   2  -3 1187.38   41.50
  -2   2  -3 1125.19   41.10
   2  -2   3 1148.89   38.80
   2  -2   3 1234.28   41.30
   2  -2   3 1184.58   41.70
   2  -2   3 1209.88   41.90
   2  -2   3 1161.38   39.50
  -3   2  -3  393.06   16.60
  -3   2  -3  362.96   17.60
  -3   2  -3  392.16   17.00
  -3   2  -3  391.26   17.60
  -3   2  -3  392.16   17.80
   3  -2   3  377.16   17.90
   3  -2   3  381.26   17.70
   3  -2   3  365.56   17.30
   3  -2   3  377.16   15.20
   3  -2   3  365.86   14.90
  -4   2  -3  787.12   33.10
  -4   2  -3  858.21   33.20
  -4   2  -3  847.22   32.10
  -4   2  -3  796.42   32.10
  -4   2  -3  827.52   32.10
   4  -2   3  814.72   30.40
   4  -2   3  844.92   32.90
   4  -2   3  810.22   33.50
   4  -2   3  832.32   32.80
  -5   2  -3   29.50    7.60
  -5   2  -3   18.70    6.50
  -5   2  -3   26.30    6.90
  -5   2  -3   20.30    6.80
   5  -2   3   23.30    5.50
   5  -2   3   23.80    8.40
   5  -2   3   18.40    6.20
   5  -2   3   17.00    7.00
  -6   2  -3  257.67   17.30
  -6   2  -3  264.17   20.80
  -6   2  -3  227.88   10.30
  -6   2  -3  232.78   17.60
   6  -2   3  257.47   19.60
   6  -2   3  274.37   18.00
   6  -2   3  268.27   17.50
   6  -2   3  240.48   19.50
  -7   2  -3   -0.40    5.80
  -7   2  -3   -9.50    8.90
  -7   2  -3   -1.10    8.50
  -7   2  -3   -1.90    8.20
   7  -2   3    4.30    9.20
   7  -2   3   -5.80    7.50
   7  -2   3    8.90    6.80
   7  -2   3    9.40    7.90
   7   1  -3    2.40    7.00
   7   1  -3    1.60    8.60
   7   1  -3   23.90   15.70
   7   1  -3    7.50    9.80
   7   1  -3    9.50    7.90
  -7  -1   3    6.80    7.30
  -7  -1   3    3.20    9.30
  -7  -1   3    2.30    9.50
  -7  -1   3   18.70    9.90
  -7  -1   3    6.90    7.40
   6   1  -3   54.89   14.70
   6   1  -3   21.90    5.70
   6   1  -3   24.60    8.00
  -6  -1   3   15.60    8.00
  -6  -1   3    5.20    9.70
  -6  -1   3   12.00    7.00
   5   1  -3  696.23   24.20
   5   1  -3  713.13   31.90
   5   1  -3  748.43   32.70
   5   1  -3  778.42   37.40
   5   1  -3  801.22   33.20
   5   1  -3  761.92   30.70
  -5  -1   3  764.62   32.10
  -5  -1   3  741.83   30.30
  -5  -1   3  715.43   31.10
  -5  -1   3  740.13   34.10
  -5  -1   3  670.53   31.20
   4   1  -3  522.85   22.60
   4   1  -3  604.44   24.80
   4   1  -3  532.95   24.60
   4   1  -3  524.45   24.40
  -4  -1   3  538.25   24.10
  -4  -1   3  514.95   22.40
  -4  -1   3  564.74   25.40
  -4  -1   3  530.15   23.70
  -4  -1   3  557.94   23.90
   3   1  -3 2775.82   94.69
   3   1  -3 2845.32   93.09
   3   1  -3 2806.82   93.49
   3   1  -3 2795.02   94.39
  -3  -1   3 2812.62   95.39
  -3  -1   3 2815.12   93.99
  -3  -1   3 2757.62   92.49
  -3  -1   3 2954.00   93.69
  -3  -1   3 2845.62   94.09
   2   1  -3  891.31   32.30
   2   1  -3  907.21   33.30
   2   1  -3  948.21   33.90
   2   1  -3  889.71   31.90
  -2  -1   3  940.21   32.60
  -2  -1   3  943.11   34.10
  -2  -1   3  899.31   31.60
  -2  -1   3  935.51   34.00
   1   1  -3  129.09    7.30
   1   1  -3  157.48    6.80
   1   1  -3  124.29    6.30
   1   1  -3  144.59    6.90
   1   1  -3  142.89    8.20
  -1  -1   3  138.49    6.10
  -1  -1   3  149.49    6.60
  -1  -1   3  138.69    6.80
  -1  -1   3  144.59    6.40
  -1  -1   3  133.59    7.80
  -1  -1   3  144.79    8.80
   0   1  -3  422.86   16.00
   0   1  -3  434.16   15.60
   0   1  -3  369.76   16.80
   0   1  -3  422.36   15.10
   0   1  -3  420.86   15.70
   0  -1   3  412.86   15.00
   0  -1   3  428.76   15.10
   0  -1   3  406.96   15.70
   0  -1   3  428.06   15.40
   0  -1   3  431.56   16.60
  -2   1  -3  429.96   17.90
  -2   1  -3  447.56   18.20
  -2   1  -3  445.96   17.90
  -2   1  -3  448.26   17.20
  -2   1  -3  462.65   16.90
   2  -1   3  436.76   18.20
   2  -1   3  440.66   17.70
   2  -1   3  433.56   16.40
   2  -1   3  444.06   18.10
   2  -1   3  427.46   15.10
  -3   1  -3 1724.33   59.59
  -3   1  -3 1716.03   58.59
  -3   1  -3 1789.72   58.89
  -3   1  -3 1705.53   58.79
  -3   1  -3 1662.53   59.19
  -3   1  -3 1705.03   56.49
   3  -1   3 1660.03   56.69
   3  -1   3 1721.53   59.09
   3  -1   3 1771.42   59.89
   3  -1   3 1762.52   59.39
  -4   1  -3  130.09    9.80
  -4   1  -3  131.79    8.40
  -4   1  -3  122.79   11.20
  -4   1  -3  133.49    9.40
  -4   1  -3  106.29    9.40
   4  -1   3  122.69    9.80
   4  -1   3  125.29    8.90
   4  -1   3  122.09   11.20
   4  -1   3  113.79   10.50
  -5   1  -3   75.49   12.10
  -5   1  -3   77.29    5.30
  -5   1  -3   69.89   10.20
  -5   1  -3   82.19    9.10
  -5   1  -3   95.99   11.70
  -5   1  -3   66.79    8.80
  -5   1  -3   59.59    9.70
   5  -1   3   83.39    9.60
   5  -1   3   83.69   11.90
   5  -1   3   73.79   11.80
   5  -1   3   67.39   10.30
  -6   1  -3   27.70    8.90
  -6   1  -3   26.20    3.00
  -6   1  -3   30.40    7.50
  -6   1  -3   25.10   10.50
  -6   1  -3   25.50    9.30
  -6   1  -3   26.90    7.10
   6  -1   3   34.90    8.60
   6  -1   3   33.50    9.10
   6  -1   3   17.30    8.70
   6  -1   3   20.80    6.40
  -7   1  -3    1.50    6.60
  -7   1  -3   -7.20    8.50
  -7   1  -3   -3.30    8.00
  -7   1  -3   -9.00    7.60
  -7   1  -3   -7.30    6.60
   7  -1   3   -4.00    7.10
   7  -1   3   11.90    6.30
   7  -1   3   -2.70   13.10
   7  -1   3    7.70    8.20
   7  -1   3  -10.00    7.90
   7   0  -3   -1.90    7.20
   7   0  -3   17.60   15.40
   7   0  -3   25.00   11.20
   7   0  -3   -1.50    6.80
   7   0  -3    6.20    9.10
  -7   0   3    0.30    7.90
  -7   0   3   -6.30    7.70
  -7   0   3   -1.90   10.50
  -7   0   3   -1.80    8.50
  -7   0   3   -3.10    6.80
   6   0  -3   85.09   12.40
   6   0  -3   67.09   10.60
   6   0  -3   90.29   13.70
  -6   0   3   75.69   11.70
  -6   0   3   86.49   14.40
  -6   0   3   96.89   16.30
   5   0  -3    2.20    5.00
   5   0  -3   -0.60    4.00
   5   0  -3    5.90    5.60
  -5   0   3    6.80    4.60
  -5   0   3   -4.00    5.50
  -5   0   3   -3.50    5.40
  -5   0   3    1.90    5.60
   4   0  -3 1319.77   44.60
   4   0  -3 1366.06   50.29
   4   0  -3 1431.16   49.10
   4   0  -3 1317.77   54.19
   4   0  -3 1397.36   50.79
   4   0  -3 1308.77   43.90
  -4   0   3 1372.86   51.69
  -4   0   3 1383.26   50.49
  -4   0   3 1428.26   48.80
  -4   0   3 1406.76   49.99
  -4   0   3 1350.36   49.00
   3   0  -3  711.33   26.20
   3   0  -3  688.93   26.80
   3   0  -3  627.04   22.50
   3   0  -3  673.13   24.30
   3   0  -3  723.23   28.00
   3   0  -3  717.73   28.40
   3   0  -3  723.63   28.80
  -3   0   3  700.13   27.20
  -3   0   3  766.22   27.90
  -3   0   3  700.23   28.80
  -3   0   3  697.63   26.90
  -3   0   3  683.03   25.80
   2   0  -3  966.80   33.60
   2   0  -3 1038.10   36.10
   2   0  -3 1111.79   38.40
   2   0  -3 1039.10   37.90
   2   0  -3 1007.70   35.80
   2   0  -3 1108.09   37.50
  -2   0   3 1011.00   35.50
  -2   0   3 1130.89   37.20
  -2   0   3 1014.90   38.00
  -2   0   3 1094.29   37.00
   1   0  -3  802.92   28.10
   1   0  -3  889.41   30.30
   1   0  -3  841.02   28.00
   1   0  -3  883.91   30.40
   1   0  -3  870.21   29.60
   1   0  -3  805.42   28.00
  -1   0   3  853.11   30.00
  -1   0   3  905.91   29.00
  -1   0   3  805.92   27.80
  -1   0   3  828.32   30.30
   0   0  -3   46.40    4.40
   0   0  -3   49.50    4.50
   0   0  -3   50.29    3.00
   0   0  -3   52.19    4.70
   0   0  -3   49.70    3.20
   0   0  -3   52.49    2.90
   0   0  -3   47.50    3.90
   0   0  -3   52.79    3.10
   0   0   3   48.40    3.10
   0   0   3   48.70    4.50
   0   0   3   48.80    5.20
   0   0   3   46.50    4.20
   0   0   3   58.79    2.80
   0   0   3   49.60    4.10
  -1   0  -3 2114.99   69.59
  -1   0  -3 2124.09   69.79
  -1   0  -3 2132.19   69.79
  -1   0  -3 2198.18   70.79
   1   0   3 2167.38   69.99
   1   0   3 2118.89   70.19
   1   0   3 2240.28   70.89
   1   0   3 2160.38   69.79
  -2   0  -3 1039.80   35.30
  -2   0  -3 1013.90   34.10
  -2   0  -3  988.60   34.90
  -2   0  -3  949.31   34.70
  -2   0  -3  947.11   32.30
   2   0   3  972.10   36.10
   2   0   3 1037.80   35.10
   2   0   3  975.80   33.60
   2   0   3  990.00   34.70
   2   0   3 1002.10   35.00
  -3   0  -3  325.07   15.80
  -3   0  -3  320.77   15.20
  -3   0  -3  314.47   13.00
  -3   0  -3  331.47   14.50
   3   0   3  291.07   17.20
   3   0   3  304.97   15.40
   3   0   3  324.17   15.70
   3   0   3  337.37   14.40
   3   0   3  329.97   15.10
  -4   0  -3   25.70    6.30
  -4   0  -3   24.00    3.60
  -4   0  -3   34.00    5.20
  -4   0  -3   29.40    4.60
  -4   0  -3   23.90    5.40
  -4   0  -3   27.40    5.90
   4   0   3   20.40    4.40
   4   0   3    9.00    8.20
   4   0   3   16.30    5.70
   4   0   3   31.90    5.40
   4   0   3   29.40    8.50
  -5   0  -3   89.29    9.90
  -5   0  -3   86.99    5.10
  -5   0  -3   80.59   10.00
  -5   0  -3   84.49    9.90
  -5   0  -3  100.59    9.50
  -5   0  -3   85.69   12.00
   5   0   3   88.29   11.50
   5   0   3   83.49   12.50
   5   0   3   97.79    9.30
   5   0   3   87.79   10.30
  -6   0  -3  261.47   20.30
  -6   0  -3  348.17   22.70
  -6   0  -3  313.87   18.50
  -6   0  -3  309.27   20.80
  -6   0  -3  364.66   19.10
   6   0   3  350.16   19.00
   6   0   3  318.77   25.50
   6   0   3  314.87   19.90
   6   0   3  328.57   21.90
   6   0   3  314.67   21.10
  -7   0  -3  100.99   12.70
  -7   0  -3   89.89   12.30
  -7   0  -3   83.79   12.30
  -7   0  -3   75.59   12.50
  -7   0  -3   74.59   12.80
   7   0   3  103.79   20.80
   7   0   3   90.19   11.70
   7   0   3   93.89   15.20
   7   0   3   75.99   10.30
  -8   0  -3    0.00   13.80
  -8   0  -3   -4.50   11.90
  -8   0  -3   18.70    8.80
  -8   0  -3    5.90    8.50
   8   0   3   17.50    8.90
   8   0   3   27.50    8.00
   8   0   3   21.00    9.70
   8   0   3   14.50   11.00
   7  -1  -3    6.20    2.40
   7  -1  -3    0.30    9.00
   7  -1  -3    4.60    7.70
   7  -1  -3    0.10    7.10
  -7   1   3    4.60    9.90
  -7   1   3    6.90    9.60
  -7   1   3   -6.70    8.00
   6  -1  -3   36.90    4.80
   6  -1  -3   41.60    9.10
   6  -1  -3   44.20    7.70
   6  -1  -3   39.60   10.20
   6  -1  -3   44.20    9.10
  -6   1   3   27.70    8.20
  -6   1   3   45.50   13.60
  -6   1   3   49.70    9.40
   5  -1  -3   -3.30    3.60
   5  -1  -3   -5.20    6.50
   5  -1  -3    3.60    2.00
   5  -1  -3   -3.00    5.20
   5  -1  -3    1.00    6.60
  -5   1   3   -3.70    5.20
  -5   1   3   -4.50    5.60
  -5   1   3   -2.50    6.90
  -5   1   3    3.80    6.10
  -5   1   3    0.70    4.60
   4  -1  -3   23.50    4.40
   4  -1  -3   16.70    2.70
   4  -1  -3   13.60    6.10
   4  -1  -3   21.90    5.30
  -4   1   3   22.50    6.00
  -4   1   3   18.50    4.80
  -4   1   3   16.80    5.70
  -4   1   3   14.30    6.70
  -4   1   3   16.90    5.10
   3  -1  -3  368.16   13.60
   3  -1  -3  380.36   16.80
   3  -1  -3  368.16   15.70
   3  -1  -3  367.16   13.50
   3  -1  -3  355.36   15.80
   3  -1  -3  362.46   18.20
  -3   1   3  380.06   17.80
  -3   1   3  365.06   16.60
  -3   1   3  373.36   17.20
  -3   1   3  361.36   15.50
   2  -1  -3 9999.00  318.87
   1  -1  -3  729.93   26.00
   1  -1  -3  777.92   26.30
   1  -1  -3  731.93   24.50
   1  -1  -3  732.33   26.90
   1  -1  -3  761.62   27.00
  -1   1   3  723.23   24.20
  -1   1   3  701.03   24.30
  -1   1   3  784.92   26.30
  -1   1   3  777.72   27.10
   0  -1  -3   46.90    4.00
   0  -1  -3   34.20    4.70
   0  -1  -3   40.00    4.50
   0  -1  -3   40.60    3.30
   0  -1  -3   44.30    4.40
   0  -1  -3   37.80    4.50
   0   1   3   44.80    4.20
   0   1   3   34.00    4.80
   0   1   3   40.70    3.30
  -1  -1  -3  109.19    7.30
  -1  -1  -3  110.19    7.60
  -1  -1  -3  141.29    6.70
  -1  -1  -3  110.89    6.40
  -1  -1  -3  115.69    6.40
   1   1   3  110.49    6.10
   1   1   3  111.99    7.00
   1   1   3  121.29    6.30
   1   1   3  111.89    7.30
   1   1   3  132.79    6.20
  -2  -1  -3 2181.48   70.99
  -2  -1  -3 2125.79   70.99
  -2  -1  -3 2144.89   70.99
  -2  -1  -3 2113.09   69.89
  -2  -1  -3 2129.59   72.79
  -2  -1  -3 2182.98   70.19
   2   1   3 2180.78   70.99
   2   1   3 2166.78   72.59
   2   1   3 2089.49   70.69
   2   1   3 2139.49   70.89
  -3  -1  -3 6754.62  210.98
  -3  -1  -3 6624.34  211.38
  -3  -1  -3 6542.05  210.08
  -3  -1  -3 6886.31  211.58
   3   1   3 6392.06  211.18
   3   1   3 6245.88  209.68
   3   1   3 6438.36  213.88
   3   1   3 6878.41  210.88
   3   1   3 6364.66  210.88
  -4  -1  -3 1247.88   41.70
  -4  -1  -3 1213.08   45.80
  -4  -1  -3 1272.97   44.80
  -4  -1  -3 1248.88   44.40
  -4  -1  -3 1280.47   44.00
  -4  -1  -3 1250.87   46.00
   4   1   3 1206.28   44.00
   4   1   3 1250.27   44.50
   4   1   3 1234.28   45.90
   4   1   3 1258.97   49.30
   4   1   3 1229.48   45.60
  -5  -1  -3  135.89    6.40
  -5  -1  -3  139.89   13.40
  -5  -1  -3  141.49   11.30
  -5  -1  -3  140.19   11.50
  -5  -1  -3  135.69   12.20
  -5  -1  -3  134.39   11.20
   5   1   3  120.89   12.00
   5   1   3  147.79   15.80
   5   1   3  145.99   13.30
   5   1   3  123.59   10.30
   5   1   3  140.59   11.40
  -6  -1  -3   -6.60    7.00
  -6  -1  -3   -1.50    6.90
  -6  -1  -3   -4.90    5.80
  -6  -1  -3  -11.20    6.40
  -6  -1  -3   -0.10    5.90
  -6  -1  -3    2.60    7.70
   6   1   3    3.60    6.90
   6   1   3   -1.00    6.60
   6   1   3   -5.80    4.90
   6   1   3    7.80   10.20
   6   1   3   -6.90    7.30
  -7  -1  -3   -5.80    6.90
  -7  -1  -3   -2.70    6.70
  -7  -1  -3  -14.30    9.00
  -7  -1  -3  -12.50    7.50
  -7  -1  -3   -1.10    6.80
   7   1   3    0.10    7.50
   7   1   3    2.40    4.90
   7   1   3  -17.00    8.80
   7   1   3  -12.00    7.90
  -8  -1  -3   -2.80    7.40
  -8  -1  -3    2.00    8.20
  -8  -1  -3    6.30   11.20
   8   1   3   10.30    7.10
   8   1   3    7.60    7.90
   8   1   3   -3.70    9.90
   8   1   3    1.20    9.30
   6  -2  -3    7.70    9.00
   6  -2  -3    4.70    7.70
   6  -2  -3   10.40    5.40
   6  -2  -3  -10.70    8.00
   6  -2  -3    6.00    3.40
  -6   2   3    7.10    6.20
  -6   2   3    5.50   10.00
  -6   2   3    8.50    7.80
  -6   2   3   11.80    7.30
   5  -2  -3   -2.40    5.40
   5  -2  -3    2.00    6.50
   5  -2  -3    4.10    3.00
   5  -2  -3    0.70    4.20
   5  -2  -3    1.20    5.30
  -5   2   3   -6.50    5.70
  -5   2   3    6.10    5.00
  -5   2   3    2.50    5.70
  -5   2   3    2.70    6.30
  -5   2   3   -5.40    6.90
   4  -2  -3   13.50    4.00
   4  -2  -3   14.00    4.90
   4  -2  -3   10.60    3.10
   4  -2  -3    9.10    5.90
   4  -2  -3    8.20    4.80
  -4   2   3   13.50    6.10
  -4   2   3   11.20    4.90
  -4   2   3    8.80    4.40
  -4   2   3   12.00    5.40
  -4   2   3   15.00    4.10
   3  -2  -3  116.19    8.10
   3  -2  -3  111.49   10.10
   3  -2  -3  103.49    7.40
   3  -2  -3  107.19    6.30
   3  -2  -3  105.69    8.90
  -3   2   3  108.49    8.50
  -3   2   3  108.79    7.70
  -3   2   3  107.59   10.20
  -3   2   3  108.29    8.90
   2  -2  -3 6569.54  220.08
   2  -2  -3 6976.60  222.78
   2  -2  -3 6969.10  221.08
  -2   2   3 6713.73  219.88
  -2   2   3 7135.49  222.48
  -2   2   3 7150.98  221.18
  -2   2   3 6951.80  221.78
   1  -2  -3  316.37   13.60
   1  -2  -3  309.37   12.60
   1  -2  -3  320.37   15.90
   1  -2  -3  302.57   11.30
   1  -2  -3  307.67   11.10
  -1   2   3  334.87   13.20
  -1   2   3  326.97   13.20
  -1   2   3  314.37   12.30
   0  -2  -3  873.31   30.20
   0  -2  -3  890.01   30.60
   0  -2  -3  944.61   31.30
   0  -2  -3  889.21   29.60
   0  -2  -3  836.32   28.50
   0  -2  -3  833.42   28.30
   0   2   3  863.11   28.20
   0   2   3  957.60   29.90
   0   2   3  911.01   30.70
   0   2   3  832.22   28.40
   0   2   3  882.41   29.70
  -1  -2  -3   94.49    7.10
  -1  -2  -3   99.39    7.50
  -1  -2  -3   96.29    5.80
  -1  -2  -3   98.99    5.90
  -1  -2  -3   97.79    6.30
  -1  -2  -3   99.79    4.60
   1   2   3  102.19    4.80
   1   2   3   88.69    6.00
   1   2   3  103.29    7.10
   1   2   3   96.99    5.50
   1   2   3  102.89    5.40
   1   2   3   98.49    5.50
  -2  -2  -3 1824.52   64.09
  -2  -2  -3 1936.31   60.69
  -2  -2  -3 2020.10   62.19
  -2  -2  -3 1755.32   60.99
  -2  -2  -3 1735.43   61.69
  -2  -2  -3 2102.59   62.59
   2   2   3 1768.12   61.49
   2   2   3 1931.71   61.99
   2   2   3 1869.41   61.89
   2   2   3 1760.42   60.29
   2   2   3 1695.53   61.09
  -3  -2  -3  408.86   16.10
   3   2   3  438.66   18.60
   3   2   3  443.26   19.20
   3   2   3  418.06   16.60
   3   2   3  414.56   17.00
  -4  -2  -3 1896.31   67.39
  -4  -2  -3 1976.20   66.19
  -4  -2  -3 1913.21   65.59
  -4  -2  -3 1880.11   66.99
  -4  -2  -3 1881.71   62.99
   4   2   3 1950.20   67.19
   4   2   3 1928.71   65.59
   4   2   3 1929.21   65.49
   4   2   3 1961.50   71.19
  -5  -2  -3    2.50    5.90
  -5  -2  -3   -1.20    4.40
  -5  -2  -3   -6.10    4.00
  -5  -2  -3   -2.40    4.10
  -5  -2  -3    3.60    5.10
   5   2   3    5.80    7.40
   5   2   3    1.90    3.20
   5   2   3   -0.70    4.70
   5   2   3   -5.70    4.10
  -6  -2  -3   30.10    9.10
  -6  -2  -3   30.40    7.00
  -6  -2  -3   25.50    8.60
  -6  -2  -3   31.20    8.30
  -6  -2  -3   39.60    7.20
   6   2   3   23.30    8.50
   6   2   3   48.30    8.60
   6   2   3   42.40   12.80
   6   2   3   29.00    7.90
   6   2   3   16.10    6.10
  -7  -2  -3  158.78   15.20
  -7  -2  -3  168.08   18.40
  -7  -2  -3  151.38   19.50
  -7  -2  -3  181.98   16.50
  -7  -2  -3  177.98   15.40
  -7  -2  -3  195.38   16.70
   7   2   3  149.59   19.90
   7   2   3  163.98   17.60
   7   2   3  182.48   17.20
   7   2   3  159.28   14.00
  -8  -2  -3   21.00   12.10
  -8  -2  -3   58.39   11.50
  -8  -2  -3   44.30   13.30
  -8  -2  -3   44.10    9.60
  -8  -2  -3   46.60   11.10
  -8  -2  -3   32.90   13.50
   8   2   3   47.70   11.00
   8   2   3   76.29   11.20
   8   2   3   69.69   21.30
   8   2   3   44.80   11.50
   6  -3  -3    1.90    5.60
   6  -3  -3    2.20    6.90
   6  -3  -3    6.90    4.30
   6  -3  -3   10.00    9.10
  -6   3   3   -3.30    8.60
  -6   3   3   10.00    7.30
  -6   3   3    5.40    6.80
  -6   3   3    7.00    6.90
   5  -3  -3   23.30    4.30
   5  -3  -3   18.40    8.00
   5  -3  -3   17.90    6.00
   5  -3  -3   20.30    7.40
   5  -3  -3   15.00    5.00
  -5   3   3   15.90    6.90
  -5   3   3   13.50    7.00
  -5   3   3   15.60    5.80
  -5   3   3   14.80    8.00
  -5   3   3   15.40    6.00
   4  -3  -3  221.78   13.50
   4  -3  -3  225.48   13.50
   4  -3  -3  196.48   11.60
   4  -3  -3  232.78   16.60
   4  -3  -3  235.28   14.70
  -4   3   3  235.78   16.50
  -4   3   3  244.48   13.50
  -4   3   3  248.28   14.90
  -4   3   3  213.18   15.20
   3  -3  -3 2771.32   89.59
   3  -3  -3 2610.94   88.99
   3  -3  -3 2668.43   90.29
   3  -3  -3 2855.91   91.19
   3  -3  -3 2805.42   93.29
  -3   3   3 2710.73   90.19
  -3   3   3 2879.71   91.19
  -3   3   3 2623.04   89.29
  -3   3   3 2701.73   91.99
  -3   3   3 2630.84   88.79
   2  -3  -3  278.07   12.90
   2  -3  -3  283.97   12.30
   2  -3  -3  287.57   12.10
   2  -3  -3  288.47   14.30
  -2   3   3  293.57   13.10
  -2   3   3  288.77   11.60
  -2   3   3  306.27   14.10
  -2   3   3  284.17   12.80
   1  -3  -3   62.89    4.40
   1  -3  -3   61.99    6.40
   1  -3  -3   50.29    4.00
   1  -3  -3   61.79    4.80
   1  -3  -3   64.09    4.30
   1  -3  -3   61.99    5.10
  -1   3   3   55.09    4.10
  -1   3   3   55.59    5.90
  -1   3   3   62.39    6.10
  -1   3   3   65.49    4.50
   0  -3  -3  145.39    6.30
   0  -3  -3  138.49    5.60
   0  -3  -3  146.99    9.30
   0  -3  -3  139.09    6.40
   0  -3  -3  140.79    6.00
   0  -3  -3  129.59    7.50
   0   3   3  147.99    6.00
   0   3   3  151.28    6.70
   0   3   3  155.68    7.50
   0   3   3  147.29    8.20
  -1  -3  -3  407.96   14.70
  -1  -3  -3  444.16   18.80
  -1  -3  -3  431.36   16.50
  -1  -3  -3  409.46   14.20
  -1  -3  -3  401.46   15.60
  -1  -3  -3  428.06   16.20
   1   3   3  432.36   16.00
   1   3   3  454.65   18.20
   1   3   3  443.36   15.70
   1   3   3  432.26   16.80
   1   3   3  410.86   15.60
   1   3   3  438.36   16.20
  -2  -3  -3    6.90    5.60
  -2  -3  -3    6.20    3.50
  -2  -3  -3    5.50    3.40
  -2  -3  -3    5.60    2.90
  -2  -3  -3    6.60    2.10
  -2  -3  -3   11.30    3.10
   2   3   3    6.60    3.40
   2   3   3    6.20    2.90
   2   3   3    6.50    4.50
   2   3   3    5.20    2.20
   2   3   3    5.20    3.40
  -3  -3  -3   75.19   11.10
  -3  -3  -3   51.99    8.40
  -3  -3  -3   72.09    7.80
  -3  -3  -3   56.69    7.80
  -3  -3  -3   82.19    6.40
  -3  -3  -3   71.69    5.40
   3   3   3   57.39    9.50
   3   3   3   74.89    6.30
   3   3   3   70.99    6.20
   3   3   3   64.19    8.40
   3   3   3   79.79    7.70
  -4  -3  -3 1002.70   39.20
  -4  -3  -3 1032.80   37.20
  -4  -3  -3  985.90   42.90
  -4  -3  -3  973.80   40.30
   4   3   3 1003.70   38.50
   4   3   3 1053.69   37.10
   4   3   3 1030.90   35.70
   4   3   3 1023.40   39.40
   4   3   3 1024.50   42.50
  -5  -3  -3   46.60    8.40
  -5  -3  -3   55.39    9.00
  -5  -3  -3   34.70    6.40
  -5  -3  -3   34.60    6.80
   5   3   3   59.89   14.40
   5   3   3   30.30    6.70
   5   3   3   43.10    7.30
   5   3   3   28.90    8.20
  -6  -3  -3   42.30    8.50
  -6  -3  -3   64.79   10.90
  -6  -3  -3   37.50    9.50
  -6  -3  -3   73.69   10.10
  -6  -3  -3   50.69   10.20
   6   3   3   57.59    8.90
   6   3   3   49.00   13.60
   6   3   3   36.80    8.20
  -7  -3  -3  333.77   20.20
  -7  -3  -3  353.46   20.00
  -7  -3  -3  343.67   25.10
  -7  -3  -3  365.16   22.70
  -7  -3  -3  343.77   23.50
   7   3   3  336.97   24.50
   7   3   3  335.07   20.30
   7   3   3  368.26   23.10
  -8  -3  -3  246.78   22.40
  -8  -3  -3  315.57   28.90
  -8  -3  -3  303.37   19.40
  -8  -3  -3  265.37   21.10
  -8  -3  -3  280.97   23.60
  -8  -3  -3  273.97   25.80
   8   3   3  275.67   21.30
   8   3   3  293.67   23.40
   8   3   3  276.07   23.40
   8   3   3  299.27   29.20
   6  -4  -3    8.70    8.20
   6  -4  -3   -0.30    6.90
   6  -4  -3    5.20    8.90
   6  -4  -3   -0.20    6.40
  -6   4   3    9.90    7.80
  -6   4   3    3.30    8.00
  -6   4   3  -10.20    7.70
  -6   4   3    6.60    7.40
   5  -4  -3    5.30    3.80
   5  -4  -3   -2.90    6.60
   5  -4  -3   -0.90    5.30
   5  -4  -3   -4.50    4.60
  -5   4   3    2.10    5.70
  -5   4   3    3.90    6.60
  -5   4   3    0.00    5.40
  -5   4   3   -3.10    5.60
   4  -4  -3   -3.60    5.10
   4  -4  -3   -3.40    5.50
   4  -4  -3   -4.60    3.10
   4  -4  -3   -3.80    4.30
  -4   4   3   -2.20    5.20
  -4   4   3   -2.60    4.90
  -4   4   3   -2.90    4.20
  -4   4   3   -1.50    4.10
  -4   4   3    2.10    3.60
   3  -4  -3  121.59   12.80
   3  -4  -3  137.19    9.40
   3  -4  -3  136.19    8.70
   3  -4  -3  120.99    8.90
   3  -4  -3  138.09   10.00
  -3   4   3  142.39    9.40
  -3   4   3  149.09    9.70
  -3   4   3  144.09    9.10
  -3   4   3  134.09   10.60
   2  -4  -3   75.79    6.10
   2  -4  -3   88.69    7.00
   2  -4  -3   77.79    6.30
   2  -4  -3   90.19    8.40
  -2   4   3   79.79    7.10
  -2   4   3   70.89    6.10
  -2   4   3   82.39    6.60
  -2   4   3   87.59    7.70
   1  -4  -3 3745.53  122.29
   1  -4  -3 3686.43  119.99
   1  -4  -3 3773.42  119.89
   1  -4  -3 3918.01  119.79
  -1   4   3 3631.34  119.89
  -1   4   3 3778.42  119.79
  -1   4   3 3756.72  119.69
  -1   4   3 3611.34  121.29
  -1   4   3 3788.02  121.69
   0  -4  -3   11.70    2.30
   0  -4  -3   11.80    1.80
   0  -4  -3   10.60    1.40
   0  -4  -3    8.70    2.60
   0  -4  -3   10.00    5.50
   0   4   3    9.50    2.20
   0   4   3   12.60    3.30
   0   4   3    9.00    2.40
   0   4   3   12.10    3.40
   0   4   3   12.00    2.20
  -1  -4  -3  354.66   14.10
  -1  -4  -3  362.16   15.00
  -1  -4  -3  342.97   14.70
  -1  -4  -3  363.86   17.80
   1   4   3  367.66   14.20
   1   4   3  382.66   17.00
   1   4   3  371.46   14.70
   1   4   3  347.17   14.60
   1   4   3  349.37   13.50
   1   4   3  344.37   15.40
  -2  -4  -3 1159.78   40.70
  -2  -4  -3 1196.98   40.50
  -2  -4  -3 1171.68   44.50
  -2  -4  -3 1141.49   38.70
  -2  -4  -3 1174.48   41.30
   2   4   3 1197.88   43.80
   2   4   3 1182.18   41.00
   2   4   3 1169.98   41.30
   2   4   3 1185.48   40.80
   2   4   3 1148.49   38.60
  -3  -4  -3 1621.54   54.89
  -3  -4  -3 1611.94   53.09
  -3  -4  -3 1613.94   55.69
  -3  -4  -3 1616.14   54.99
  -3  -4  -3 1561.14   58.99
   3   4   3 1558.74   52.89
   3   4   3 1624.94   53.89
   3   4   3 1492.45   50.19
   3   4   3 1531.55   54.79
   3   4   3 1562.44   58.19
   3   4   3 1579.54   55.39
  -4  -4  -3 2691.03   94.79
  -4  -4  -3 2617.14   90.09
  -4  -4  -3 2658.13   87.69
  -4  -4  -3 2636.84   88.39
  -4  -4  -3 2634.54   89.39
   4   4   3 2698.83   87.59
   4   4   3 2427.96   84.79
   4   4   3 2705.23   89.59
   4   4   3 2685.93   93.89
   4   4   3 2634.14   90.09
   4   4   3 2564.34   86.79
  -5  -4  -3  137.69   11.10
  -5  -4  -3  143.29   12.20
  -5  -4  -3  131.09   15.50
  -5  -4  -3  136.99   14.50
  -5  -4  -3  136.49   10.80
   5   4   3  103.39   16.00
   5   4   3  140.69    9.20
   5   4   3  145.69    8.40
   5   4   3  135.19   14.60
   5   4   3  147.49   12.90
   5   4   3  148.29   11.70
  -6  -4  -3   54.19   10.50
  -6  -4  -3   40.70    7.60
  -6  -4  -3   45.00    8.10
  -6  -4  -3   26.30    9.20
  -6  -4  -3   51.29    9.20
   6   4   3   41.10   12.60
   6   4   3   45.00    5.90
   6   4   3   46.60    8.70
   6   4   3   47.90   10.50
   6   4   3   36.70    8.40
   6   4   3   58.89    7.10
  -7  -4  -3   11.90    9.60
  -7  -4  -3    6.80    8.10
  -7  -4  -3   -5.90    5.10
  -7  -4  -3   13.20    6.50
  -7  -4  -3   -2.80    7.60
   7   4   3   -7.20    7.70
   7   4   3    3.90    4.70
   7   4   3   -5.20    8.20
  -8  -4  -3    6.00    9.90
  -8  -4  -3   12.20    8.10
  -8  -4  -3   24.00   11.80
  -8  -4  -3   19.60   10.50
   8   4   3   25.90   11.30
   8   4   3   30.20   17.10
   8   4   3   21.60    9.30
   8   4   3   28.80    8.10
   6  -5  -3   39.90    8.10
   6  -5  -3   44.00    8.50
   6  -5  -3   24.20   13.90
   6  -5  -3   20.10    7.10
   6  -5  -3   30.30    8.90
  -6   5   3   25.20    9.50
  -6   5   3   19.00   10.60
  -6   5   3   27.70    8.90
  -6   5   3   26.50    9.20
   5  -5  -3   17.20    6.80
   5  -5  -3    2.00    5.00
   5  -5  -3    2.90    5.20
   5  -5  -3   -6.50    5.60
   5  -5  -3    2.20    8.30
  -5   5   3    4.30    6.80
  -5   5   3   -2.00    6.00
  -5   5   3    8.80    5.50
   4  -5  -3   29.80    5.80
   4  -5  -3   40.10    7.40
   4  -5  -3   35.00    8.30
   4  -5  -3   29.70    5.70
   4  -5  -3   32.10    6.30
  -4   5   3   30.40    5.60
  -4   5   3   36.90    7.80
  -4   5   3   41.30    7.00
   3  -5  -3   15.70    4.60
   3  -5  -3   16.30    4.60
   3  -5  -3   20.70    5.70
   3  -5  -3   18.80    4.30
   3  -5  -3   14.90    6.20
  -3   5   3   23.50    5.00
  -3   5   3   19.30    4.80
  -3   5   3   13.20    5.70
  -3   5   3   19.10    4.60
  -3   5   3   19.70    5.20
   2  -5  -3  456.35   18.20
   2  -5  -3  436.96   20.60
   2  -5  -3  438.76   18.30
   2  -5  -3  444.46   16.20
   2  -5  -3  450.65   18.00
  -2   5   3  436.06   18.40
  -2   5   3  462.65   18.10
  -2   5   3  462.15   19.10
  -2   5   3  424.06   19.40
  -2   5   3  469.65   18.10
   1  -5  -3 1209.08   41.00
   1  -5  -3 1295.17   43.10
   1  -5  -3 1256.57   42.90
   1  -5  -3 1273.57   41.80
  -1   5   3 1289.47   44.60
  -1   5   3 1282.87   42.10
  -1   5   3 1261.37   42.90
  -1   5   3 1270.57   44.40
  -1   5   3 1235.48   42.80
   0  -5  -3    6.30    2.30
   0  -5  -3    8.50    3.20
   0  -5  -3   10.90    5.80
   0   5   3    1.90    2.40
   0   5   3    0.50    3.10
   0   5   3   11.60    4.20
   0   5   3    7.00    3.10
   0   5   3    7.70    1.90
   0   5   3    7.40    1.00
  -1  -5  -3   13.80    3.10
  -1  -5  -3   14.00    3.80
  -1  -5  -3   17.30    6.80
   1   5   3   21.90    3.50
   1   5   3   22.10    5.80
   1   5   3   10.30    3.00
   1   5   3   16.80    3.80
   1   5   3   11.70    3.80
   1   5   3   15.30    3.40
  -2  -5  -3  119.89    9.50
  -2  -5  -3  124.19    8.30
  -2  -5  -3  121.19    5.80
  -2  -5  -3  124.29   11.30
   2   5   3  116.89    9.10
   2   5   3  120.19    6.10
   2   5   3  127.49    8.40
   2   5   3  121.49    9.70
   2   5   3  119.39   11.10
  -3  -5  -3 1464.85   57.09
  -3  -5  -3 1465.75   52.09
  -3  -5  -3 1515.65   53.29
  -3  -5  -3 1459.25   49.90
   3   5   3 1490.35   49.99
   3   5   3 1485.75   52.29
   3   5   3 1510.25   51.59
   3   5   3 1488.25   53.09
   3   5   3 1492.95   55.99
  -4  -5  -3   52.29   11.90
  -4  -5  -3   33.40    6.00
  -4  -5  -3   30.80    5.90
  -4  -5  -3   37.40    5.50
  -4  -5  -3   35.50    7.50
   4   5   3   31.00    6.20
   4   5   3   29.70    9.10
   4   5   3   28.40    7.10
   4   5   3   31.80    5.70
   4   5   3   33.20    5.80
   4   5   3   37.50    3.30
  -5  -5  -3   39.20    6.70
  -5  -5  -3   57.79   14.10
  -5  -5  -3   47.50    7.40
  -5  -5  -3   43.50    7.70
  -5  -5  -3   38.50    8.90
   5   5   3   41.80    7.50
   5   5   3   52.29   12.10
   5   5   3   36.00    8.80
   5   5   3   50.29    7.60
   5   5   3   38.60    4.60
  -6  -5  -3    4.70    5.50
  -6  -5  -3    1.50    5.70
  -6  -5  -3    4.30    8.00
  -6  -5  -3    6.10    6.00
   6   5   3    0.00   10.50
   6   5   3   -2.90    5.90
   6   5   3   12.80    8.40
   6   5   3    3.70    6.20
   6   5   3    6.70    4.60
   6   5   3   10.80    3.70
  -7  -5  -3    5.70   10.30
  -7  -5  -3   -1.50    7.00
  -7  -5  -3    1.10    6.80
  -7  -5  -3   -1.90    8.70
  -7  -5  -3    4.10    7.70
   7   5   3    6.80    8.30
   7   5   3   19.00   13.40
   7   5   3   -6.10    9.50
   7   5   3    8.70    4.60
   7   5   3   13.00    8.00
  -8  -5  -3   51.39   13.90
  -8  -5  -3   51.39   11.40
  -8  -5  -3   49.60   10.00
  -8  -5  -3   78.19   13.80
  -8  -5  -3   60.49   13.40
   8   5   3   65.69   10.70
   8   5   3   63.19   13.10
   8   5   3   86.09   13.10
   5  -6  -3    2.30    6.30
   5  -6  -3   -0.90    6.60
   5  -6  -3   -8.50    5.90
   5  -6  -3    8.50    5.80
   5  -6  -3    2.70    6.00
  -5   6   3   -0.60    5.80
  -5   6   3    3.60    6.50
  -5   6   3   -1.90    7.70
  -5   6   3    1.90    5.00
  -5   6   3   -2.90    6.60
   4  -6  -3    5.00    5.40
   4  -6  -3    3.20    4.70
   4  -6  -3   -6.60    4.60
   4  -6  -3    5.10    5.50
  -4   6   3    2.20    5.80
  -4   6   3   10.20    5.90
  -4   6   3   -2.00    5.40
  -4   6   3    4.10    4.60
   3  -6  -3  168.88   15.60
   3  -6  -3  224.38   13.20
   3  -6  -3  189.28    9.40
   3  -6  -3  237.78   13.40
   3  -6  -3  258.37   16.20
   3  -6  -3  219.38   13.60
  -3   6   3  226.18   12.80
  -3   6   3  227.38   13.40
  -3   6   3  214.18   14.90
  -3   6   3  225.58   13.80
  -3   6   3  238.28   13.80
   2  -6  -3  494.85   19.70
   2  -6  -3  506.55   20.90
   2  -6  -3  491.15   20.90
   2  -6  -3  511.45   23.70
   2  -6  -3  500.45   17.30
  -2   6   3  520.65   21.20
  -2   6   3  467.55   22.10
  -2   6   3  509.55   20.00
  -2   6   3  503.45   21.90
  -2   6   3  538.55   20.80
   1  -6  -3   96.39   11.80
   1  -6  -3   84.09    6.60
   1  -6  -3   97.69    8.20
  -1   6   3   95.59    8.00
  -1   6   3  104.99    8.00
  -1   6   3   97.69    5.70
  -1   6   3  100.79    9.30
  -1   6   3   93.29    7.10
   0  -6  -3    6.80    2.70
   0  -6  -3    4.20    3.60
   0  -6  -3   10.90    6.10
   0   6   3    2.70    2.70
   0   6   3   13.90    4.80
   0   6   3    4.00    1.90
   0   6   3    6.80    3.00
   0   6   3    5.70    1.10
   0   6   3    8.30    3.70
  -1  -6  -3  198.48   11.80
  -1  -6  -3  194.68   10.20
  -1  -6  -3  196.88   13.90
   1   6   3  194.88   10.50
   1   6   3  199.28   11.70
   1   6   3  193.18   10.40
   1   6   3  201.38   12.30
   1   6   3  199.38    8.70
   1   6   3  211.48   13.80
  -2  -6  -3  726.23   26.90
  -2  -6  -3  666.83   31.60
  -2  -6  -3  705.23   28.20
   2   6   3  678.83   23.80
   2   6   3  673.53   27.70
   2   6   3  721.53   28.00
   2   6   3  734.03   30.60
   2   6   3  715.33   27.00
  -3  -6  -3  287.37   12.20
  -3  -6  -3  281.67   16.80
  -3  -6  -3  271.57   19.80
  -3  -6  -3  286.87   14.90
   3   6   3  297.97   16.60
   3   6   3  281.17   14.80
   3   6   3  294.37   18.30
   3   6   3  285.37   12.80
   3   6   3  271.17   15.10
  -4  -6  -3    0.10    5.60
  -4  -6  -3    2.80    3.30
  -4  -6  -3    5.30    4.20
  -4  -6  -3    1.50    8.70
   4   6   3    1.80    5.70
   4   6   3    1.70    4.10
   4   6   3   -3.10    7.30
   4   6   3   -0.90    4.30
   4   6   3    3.70    4.70
  -5  -6  -3   61.19   15.30
  -5  -6  -3   59.09    9.90
  -5  -6  -3   61.09    8.10
  -5  -6  -3   64.69   10.30
  -5  -6  -3   67.49   10.70
   5   6   3   47.40    9.90
   5   6   3   69.69    9.30
   5   6   3   70.29   13.60
   5   6   3   69.09    9.70
   5   6   3   63.39    5.00
   5   6   3   58.19   11.70
  -6  -6  -3   28.70   15.30
  -6  -6  -3   18.90    6.50
  -6  -6  -3   27.30    7.70
  -6  -6  -3   13.10    7.50
  -6  -6  -3   19.70    9.50
   6   6   3   19.60    3.70
   6   6   3   27.50    6.40
   6   6   3   35.00   13.60
   6   6   3   20.70    8.00
   6   6   3   14.70    7.60
   6   6   3   12.10    9.60
  -7  -6  -3   86.49   12.90
  -7  -6  -3  117.79   17.60
  -7  -6  -3  121.19   20.60
  -7  -6  -3  110.09   14.60
  -7  -6  -3  113.89   13.90
   7   6   3  105.49   16.30
   7   6   3  117.49   11.10
   7   6   3  104.99    9.60
   7   6   3  112.29   21.90
   7   6   3  110.59   18.20
   7   6   3  133.49   15.80
  -8  -6  -3   48.30   11.50
  -8  -6  -3   66.69   14.30
  -8  -6  -3   64.89   10.60
  -8  -6  -3   71.29   13.10
   8   6   3   67.89   13.60
   8   6   3   85.69   15.40
   8   6   3   49.90   11.60
   5  -7  -3   -1.30    2.90
   5  -7  -3    3.00    6.50
   5  -7  -3    9.90    8.40
   5  -7  -3   14.90    6.70
  -5   7   3    2.50    8.60
  -5   7   3    1.60    6.40
  -5   7   3   -3.00    9.00
  -5   7   3   -9.70    7.20
  -5   7   3   -1.00    8.30
   4  -7  -3    4.50    1.90
   4  -7  -3    4.70    6.40
   4  -7  -3    3.90    5.00
   4  -7  -3    2.20    5.40
   4  -7  -3   -3.60    5.90
  -4   7   3    0.70    6.10
  -4   7   3    3.00    6.00
  -4   7   3   -1.40    6.00
  -4   7   3    2.40    5.50
   3  -7  -3   16.30    7.30
   3  -7  -3   11.00    4.50
   3  -7  -3   -0.30    5.30
   3  -7  -3    3.90    5.90
   3  -7  -3   12.30    1.50
  -3   7   3    7.50    5.80
  -3   7   3    7.40    6.30
  -3   7   3   12.20    4.80
  -3   7   3    5.10    5.80
  -3   7   3   13.80    5.40
   2  -7  -3  188.38   11.60
   2  -7  -3  211.28   12.80
   2  -7  -3  158.98   13.00
  -2   7   3  162.38   12.70
  -2   7   3  200.48   12.40
  -2   7   3  149.29    9.90
  -2   7   3  132.19   13.40
   1  -7  -3  113.19   13.60
   1  -7  -3   97.69    9.70
   1  -7  -3  102.79    8.20
  -1   7   3   99.29    9.30
  -1   7   3  109.19    6.10
  -1   7   3  105.09   10.20
  -1   7   3  115.89    9.60
  -1   7   3  100.49    9.10
   0  -7  -3   67.09    6.60
   0  -7  -3   62.59   11.30
   0  -7  -3   60.39    8.50
   0   7   3   69.79    3.30
   0   7   3   61.19    8.50
   0   7   3   64.29    8.30
   0   7   3   66.89    7.40
   0   7   3   70.79    6.80
  -1  -7  -3  123.29   10.60
  -1  -7  -3   96.59   11.30
   1   7   3   88.79    7.90
   1   7   3  106.49   10.00
   1   7   3   93.19    8.10
  -2  -7  -3   66.29    9.50
  -2  -7  -3   54.69   11.30
  -2  -7  -3   64.89    7.10
   2   7   3   44.90    4.50
   2   7   3   55.79    9.30
   2   7   3   67.49   10.30
   2   7   3   66.99    9.20
   2   7   3   57.39    7.40
  -3  -7  -3  200.78   12.50
  -3  -7  -3  202.88   18.20
  -3  -7  -3  209.78   15.00
  -3  -7  -3  175.88    8.90
   3   7   3  227.08   16.70
   3   7   3  202.78   13.70
   3   7   3  215.88   13.40
   3   7   3  205.58   10.40
   3   7   3  222.48   15.00
  -4  -7  -3    3.50    6.30
  -4  -7  -3    0.70    9.70
  -4  -7  -3   -3.60    3.20
  -4  -7  -3    8.00    4.60
   4   7   3    6.80    6.70
   4   7   3    6.70    5.10
   4   7   3    2.80    4.50
   4   7   3    0.90    5.60
   4   7   3   -2.20    7.90
  -5  -7  -3  154.78   10.80
  -5  -7  -3  132.19   20.20
  -5  -7  -3  157.48   16.50
  -5  -7  -3  159.18   13.50
  -5  -7  -3  133.49   13.10
   5   7   3  145.99   17.50
   5   7   3  155.48   17.30
   5   7   3  156.08   16.30
   5   7   3  147.49   12.20
   5   7   3  166.98   13.20
  -6  -7  -3    4.70    6.10
  -6  -7  -3   -8.10    6.70
  -6  -7  -3    2.30    5.20
  -6  -7  -3    2.00   13.90
  -6  -7  -3    3.80    8.80
   6   7   3   -0.20    2.40
   6   7   3   -2.50    7.10
   6   7   3   -1.10    6.60
   6   7   3    4.90    6.20
   6   7   3   -2.20    8.40
   6   7   3    0.10   11.30
  -7  -7  -3    1.90    9.10
  -7  -7  -3   10.40    7.80
  -7  -7  -3   17.20    7.80
  -7  -7  -3   23.30   17.60
   7   7   3    1.70    6.40
   7   7   3    8.10    3.90
   7   7   3   30.90   14.70
   7   7   3    6.50    9.10
   7   7   3   13.30    8.90
   7   7   3   11.40   11.70
   4  -8  -3   -7.00    8.30
   4  -8  -3   -1.70    6.80
   4  -8  -3   -6.80    5.90
   4  -8  -3    6.50    6.10
  -4   8   3    0.30    6.40
  -4   8   3   11.80    7.60
  -4   8   3    0.80    7.10
  -4   8   3   -4.00    6.90
  -4   8   3    3.20    6.10
   3  -8  -3   69.29   10.90
   3  -8  -3   94.49   12.90
   3  -8  -3   77.89   12.20
  -3   8   3  100.19   10.70
  -3   8   3  109.39   12.70
  -3   8   3   77.39   12.50
  -3   8   3  102.49    9.50
   2  -8  -3  521.05   23.50
   2  -8  -3  538.95   26.10
   2  -8  -3  592.04   31.00
   2  -8  -3  527.95   24.40
  -2   8   3  551.04   25.30
  -2   8   3  562.64   24.30
  -2   8   3  517.45   24.80
  -2   8   3  506.55   21.30
  -2   8   3  551.14   24.30
   1  -8  -3  252.77   13.80
   1  -8  -3  282.57   16.20
   1  -8  -3  283.87   20.40
  -1   8   3  261.77   15.50
  -1   8   3  284.07   14.80
  -1   8   3  259.27   14.70
  -1   8   3  261.27   11.30
  -1   8   3  259.27   16.90
   0  -8  -3   39.20    5.60
   0  -8  -3   52.99   11.50
   0  -8  -3   43.60    7.20
   0   8   3   54.09    7.40
   0   8   3   53.99    3.00
   0   8   3   40.10    5.80
   0   8   3   54.69    8.80
   0   8   3   42.90    7.20
  -1  -8  -3   25.50    5.00
  -1  -8  -3   26.30    6.80
  -1  -8  -3   30.60   10.40
   1   8   3   35.10    6.50
   1   8   3   18.70    6.30
   1   8   3   22.80    3.80
   1   8   3   31.00    5.80
   1   8   3   24.90    5.60
  -2  -8  -3   16.90    9.60
  -2  -8  -3   13.00    4.30
  -2  -8  -3   12.40    6.10
   2   8   3   17.00    8.00
   2   8   3    7.90    6.00
   2   8   3   20.60    5.70
   2   8   3    7.80    4.60
   2   8   3   14.80    2.70
   3   8   3  327.27   20.90
   3   8   3  334.57   14.00
   3   8   3  257.57   17.30
   3   8   3  320.17   19.50
   3   8   3  341.97   17.70
  -4  -8  -3   46.20   14.50
  -4  -8  -3   45.60    9.20
   4   8   3   30.70    9.20
   4   8   3   30.70    8.50
   4   8   3   43.70    6.70
   4   8   3   59.19   12.10
   4   8   3   39.10    7.80
  -5  -8  -3    6.60    6.10
  -5  -8  -3    0.20    6.20
  -5  -8  -3    4.10    7.60
  -5  -8  -3    3.20   12.10
   5   8   3    2.50    8.50
   5   8   3   -5.60    5.60
   5   8   3  -12.30   16.70
   5   8   3    1.50    6.40
  -6  -8  -3    4.10    7.40
  -6  -8  -3    7.20    7.30
  -6  -8  -3  -14.00   14.20
  -6  -8  -3    6.40    5.60
  -6  -8  -3    7.00    9.80
   6   8   3    4.30    7.90
   6   8   3   -7.60    6.50
   6   8   3    0.70   12.40
   6   8   3    0.60    9.30
   6   8   3   12.00    6.70
  -7  -8  -3   12.40    8.50
  -7  -8  -3   33.00   16.60
  -7  -8  -3    5.60    7.40
  -7  -8  -3   12.50   10.30
  -7  -8  -3   -2.40    8.60
   7   8   3    6.70   10.80
   7   8   3   15.20    9.40
   7   8   3   11.70    9.90
   7   8   3    8.90    7.70
   7   8   3   18.20   13.20
   3  -9  -3   12.80   12.50
   3  -9  -3    5.20    7.30
   3  -9  -3   -9.80    8.10
   3  -9  -3   13.40    6.70
  -3   9   3   18.30    8.60
  -3   9   3    7.60    7.20
  -3   9   3    8.90    7.10
  -3   9   3   12.40    6.00
  -3   9   3   15.00    5.30
   2  -9  -3   12.70    5.30
   2  -9  -3   16.80   14.90
   2  -9  -3   28.90    8.10
  -2   9   3   25.80    4.40
  -2   9   3   22.90    7.10
  -2   9   3   25.40    8.30
  -2   9   3   17.20    7.10
   1  -9  -3  292.17   22.80
   1  -9  -3  279.27   15.50
   1  -9  -3  296.07   18.00
  -1   9   3  282.87   16.90
  -1   9   3  271.17   16.10
  -1   9   3  288.27   17.80
  -1   9   3  256.87   11.70
  -1   9   3  258.67   18.50
   0  -9  -3   53.79    8.60
   0  -9  -3   45.50    7.90
   0  -9  -3   55.39   13.30
   0   9   3   51.79    8.30
   0   9   3   65.09    3.60
   0   9   3   64.39    9.20
   0   9   3   61.29   10.00
   0   9   3   52.99    9.10
  -1  -9  -3   33.80    7.90
  -1  -9  -3   31.00   11.70
  -1  -9  -3   21.60    5.30
   1   9   3   22.90    7.30
   1   9   3   16.30    6.10
   1   9   3   33.30    4.00
   1   9   3   28.70    7.60
   1   9   3   20.70    5.90
  -2  -9  -3   20.50    5.60
  -2  -9  -3   18.80    7.40
  -2  -9  -3   20.80   11.70
   2   9   3   29.30    7.30
   2   9   3   34.00   10.50
   2   9   3   28.00    4.20
   2   9   3   18.20    6.10
   2   9   3   18.00    7.70
  -3  -9  -3  195.68   14.20
  -3  -9  -3  165.68   16.10
  -3  -9  -3  146.09    9.60
  -3  -9  -3  196.78   20.90
   3   9   3  186.38   15.40
   3   9   3  165.68   21.70
   3   9   3  183.28   10.20
   3   9   3  157.08   16.60
  -4  -9  -3  853.41   44.50
  -4  -9  -3  883.11   36.30
  -4  -9  -3  902.21   39.20
   4   9   3  854.11   36.90
   4   9   3  904.01   41.50
   4   9   3  857.91   39.00
   4   9   3  850.11   33.00
   4   9   3  886.11   36.70
  -5  -9  -3   46.60   12.00
  -5  -9  -3   77.99   18.80
  -5  -9  -3   58.79    9.70
   5   9   3   52.99   12.10
   5   9   3   46.90    9.90
   5   9   3   47.10    8.50
   5   9   3   65.49   15.60
   5   9   3   42.50   10.80
  -6  -9  -3    5.10    8.20
  -6  -9  -3   -7.40   15.40
  -6  -9  -3    9.70   10.10
  -6  -9  -3    0.00    7.40
   6   9   3   -8.50   12.40
   6   9   3   23.10   11.00
   6   9   3    9.80    8.30
   6   9   3  -14.60    7.70
   6   9   3    6.90    8.10
  -7  -9  -3   10.50    9.00
  -7  -9  -3   11.30   17.60
  -7  -9  -3   -0.30    9.30
  -7  -9  -3   15.90   11.30
   7   9   3   18.20    8.90
   7   9   3   21.30   18.40
   7   9   3    4.80   11.10
   7   9   3  -11.20    9.90
   7   9   3   19.40    9.80
   3 -10  -3   15.90   14.20
   3 -10  -3    1.90   13.10
   3 -10  -3   -3.50    8.70
   3 -10  -3   19.10    7.50
   3 -10  -3    2.30    7.60
  -3  10   3   20.00   13.90
  -3  10   3    9.30    8.80
  -3  10   3    3.90    9.60
  -3  10   3   16.50    9.40
  -3  10   3    5.80    5.90
   2 -10  -3  -12.70    7.60
   2 -10  -3  -11.30   11.00
   2 -10  -3   -6.50    7.00
   2 -10  -3    2.10    6.10
   2 -10  -3    9.90    6.30
  -2  10   3  -11.70    7.40
  -2  10   3   -0.20    6.30
  -2  10   3    1.60    5.80
  -2  10   3   -2.40    8.10
  -2  10   3    0.70    3.80
   1 -10  -3  102.89   10.50
  -1  10   3  141.99   16.40
  -1  10   3  123.49   11.90
  -1  10   3  103.09    6.70
  -1  10   3  104.99   15.00
  -1  10   3  100.99   13.90
   0 -10  -3   17.50   12.70
   0 -10  -3    4.70    4.60
   0 -10  -3   -5.90    6.70
   0  10   3    3.10    7.80
   0  10   3    3.30    1.60
   0  10   3    6.60    7.60
   0  10   3   13.20    5.70
  -1 -10  -3    0.60   11.30
  -1 -10  -3    3.90    6.90
   1  10   3  -12.80    7.20
   1  10   3   -5.10    5.80
  -2 -10  -3    7.90   12.00
  -2 -10  -3    4.80    7.70
  -2 -10  -3    5.70    5.50
   2  10   3   -4.30    7.20
   2  10   3   12.50    3.30
   2  10   3   12.30    6.50
  -3 -10  -3  136.79   20.30
  -3 -10  -3  121.59   16.60
  -3 -10  -3  128.59   13.00
  -3 -10  -3  117.09    9.40
   3  10   3   98.49   16.80
   3  10   3  134.69    9.00
   3  10   3  159.48   15.60
   3  10   3  131.09   17.00
  -4 -10  -3  279.37   26.40
  -4 -10  -3  265.97   18.30
  -4 -10  -3  284.17   22.30
  -4 -10  -3  258.07   12.60
   4  10   3  254.67   15.00
   4  10   3  275.77   22.80
   4  10   3  269.17   20.00
   4  10   3  289.07   22.60
  -5 -10  -3   10.90   10.80
  -5 -10  -3    7.90    8.30
   5  10   3   18.40   12.10
   5  10   3   28.20   12.50
   5  10   3   23.80    9.00
   5  10   3   16.80    7.40
   5  10   3   14.00   11.00
  -6 -10  -3   -1.10   10.40
  -6 -10  -3   -5.50    8.50
  -6 -10  -3   -2.90   16.10
   6  10   3  -10.20   11.60
   6  10   3    0.50    8.00
   6  10   3   -1.80   14.40
   6  10   3    1.10    8.80
   6  10   3  -12.20    9.20
   1 -11  -3  623.54   35.50
   1 -11  -3  731.23   40.00
   1 -11  -3  753.52   33.80
  -1  11   3  664.63   31.00
  -1  11   3  692.83   24.80
  -1  11   3  739.03   34.80
  -1  11   3  757.92   34.30
  -1  11   3  693.33   31.70
   0 -11  -3  -11.30    7.40
   0 -11  -3    2.60    7.40
   0 -11  -3    4.00   12.90
   0  11   3   13.80    9.70
   0  11   3   -1.70    5.00
   0  11   3  -10.00    6.10
   0  11   3    7.40    9.00
  -1 -11  -3   10.20    8.50
  -1 -11  -3   -6.60    5.30
   1  11   3   17.80   10.00
   1  11   3   -3.00    6.50
   1  11   3   -1.90    8.30
  -2 -11  -3   -3.60    9.10
  -2 -11  -3   -8.00   12.80
  -2 -11  -3  -11.80    5.80
   2  11   3    3.10    8.60
   2  11   3    0.80    3.10
   2  11   3  -11.20    8.60
  -3 -11  -3   23.20   22.00
  -3 -11  -3   11.40    9.50
  -3 -11  -3   13.20    5.50
  -3 -11  -3    1.40    6.50
   3  11   3   13.10    4.10
   3  11   3   27.80   10.50
   3  11   3   17.30   11.70
   3  11   3   14.50   10.50
  -4 -11  -3    2.10    4.20
  -4 -11  -3    3.20    7.10
  -4 -11  -3   20.80   15.20
  -4 -11  -3    7.20    9.10
   4  11   3    8.60   10.00
   4  11   3    7.60    5.60
   4  11   3  -11.90    7.30
   4  11   3   -5.70    9.00
   4  11   3   -4.60   10.50
  -5 -11  -3   43.70   10.40
  -5 -11  -3   60.59   12.30
  -5 -11  -3   99.09   20.10
   5  11   3   61.69   12.60
   5  11   3   48.90   16.90
   5  11   3   58.69   15.50
   5  11   3   52.59    9.30
   5  11   3   64.39   16.00
   0 -12  -3  153.78   19.40
   0 -12  -3  182.98   23.80
   0 -12  -3  163.18   15.30
   0  12   3  194.88   22.60
   0  12   3  196.08   19.20
   0  12   3  171.88   15.80
  -1 -12  -3   32.20   15.30
  -1 -12  -3   -5.00    6.50
  -1 -12  -3   13.80    9.20
   1  12   3    5.30   10.70
   1  12   3    4.80    7.70
   1  12   3   -5.40    9.60
  -2 -12  -3    3.40    8.20
  -2 -12  -3  -12.20   12.30
  -2 -12  -3  -13.70    6.50
   2  12   3  -19.80    9.60
   2  12   3    0.40    3.10
   2  12   3   -9.20    8.90
   2  12   3   -8.90    7.40
  -3 -12  -3   21.20    6.70
  -3 -12  -3   43.00   16.50
  -3 -12  -3   19.70    8.30
  -3 -12  -3   29.30   10.40
   3  12   3   18.40    9.00
   3  12   3   27.00    4.60
   3  12   3   46.80   11.20
   3  12   3   25.20   12.10
  -4 -12  -3   -9.00    9.50
  -4 -12  -3   20.40   17.20
  -4 -12  -3   11.80    5.10
   4  12   3    1.90   12.30
   4  12   3    3.90    5.90
   4  12   3   -2.20   12.10
   4  12   3    0.80   10.10
   3  10  -4   27.30   11.20
   3  10  -4    3.00    9.50
  -3 -10   4   32.80    9.00
  -3 -10   4   22.40   16.60
  -3 -10   4   31.70   15.00
   2  10  -4  498.85   26.20
   2  10  -4  446.36   22.70
   2  10  -4  475.75   27.50
   2  10  -4  499.25   29.20
  -2 -10   4  519.65   38.70
  -2 -10   4  506.35   29.80
  -2 -10   4  472.45   30.60
  -2 -10   4  450.45   26.00
   1  10  -4   44.10   11.20
   1  10  -4   50.39    9.90
   1  10  -4   62.29    9.00
  -1 -10   4   42.00    9.40
  -1 -10   4   59.19   14.10
  -1 -10   4   36.80   10.70
   0  10  -4  -14.60    8.60
   0  10  -4  -13.80    7.40
   0  10  -4    4.90    3.30
   0 -10   4  -10.30   10.70
   0 -10   4  -12.80    8.40
   0 -10   4  -12.20    7.10
   0 -10   4    0.90   10.50
   0 -10   4  -11.90    8.20
  -1  10  -4   -3.00    8.30
  -1  10  -4   -4.90    9.20
   1 -10   4    1.80   11.20
   1 -10   4  -12.00    9.40
   1 -10   4    4.80    9.60
  -2  10  -4   14.70    8.50
  -2  10  -4  -18.10    9.00
  -2  10  -4    7.80    4.20
   2 -10   4   -4.80   11.80
   2 -10   4   -0.20    9.40
   2 -10   4   -7.50    9.90
   4   9  -4  -17.10    8.20
   4   9  -4  -14.20    7.60
   4   9  -4    1.80    9.40
  -4  -9   4  -15.10   10.00
  -4  -9   4    8.90    8.60
  -4  -9   4  -16.40   12.70
   3   9  -4   50.49   10.50
   3   9  -4   37.30    8.90
   3   9  -4   43.90   11.00
  -3  -9   4   30.30    7.20
  -3  -9   4   24.80   11.00
  -3  -9   4   39.20   13.90
  -3  -9   4   33.60    8.70
  -3  -9   4   28.80    9.80
   2   9  -4   22.50    8.00
   2   9  -4   25.40    6.10
   2   9  -4   16.30    8.00
  -2  -9   4   32.00    9.70
  -2  -9   4   26.10   12.90
  -2  -9   4   23.00    7.90
  -2  -9   4   20.90    7.10
  -2  -9   4   24.30   10.30
   1   9  -4   -3.00    6.00
   1   9  -4    8.10    8.70
   1   9  -4    1.10    4.30
  -1  -9   4   16.60    9.80
  -1  -9   4   12.00   10.00
  -1  -9   4   -3.90    8.10
  -1  -9   4    2.30    6.50
  -1  -9   4   -2.40    7.20
   0   9  -4   20.50    7.40
   0   9  -4   42.70   10.30
   0   9  -4   42.80    5.90
   0  -9   4   30.10    8.20
   0  -9   4   46.70   12.50
   0  -9   4   29.60   10.50
  -1   9  -4    7.90    8.80
  -1   9  -4   -1.10    6.40
   1  -9   4   -4.90    9.00
   1  -9   4   13.50   10.60
   1  -9   4   -2.50    6.70
   1  -9   4   -2.10    7.80
  -2   9  -4   44.10    8.80
  -2   9  -4   63.49    7.00
  -2   9  -4   53.69    9.90
   2  -9   4   46.60   10.50
   2  -9   4   61.79   12.30
   2  -9   4   51.09   10.10
   2  -9   4   55.79   13.90
  -3   9  -4   38.90   11.10
  -3   9  -4   33.30    5.80
  -3   9  -4   55.89   16.60
  -3   9  -4   50.59    9.50
   3  -9   4   35.70    8.00
   3  -9   4   13.20   10.00
   3  -9   4   42.00   14.10
   3  -9   4   27.30   11.00
   5   8  -4   48.50   12.00
   5   8  -4   32.40   11.10
   5   8  -4   25.70    9.60
   5   8  -4   38.90   11.10
  -5  -8   4   58.29   14.00
  -5  -8   4   53.39   11.40
  -5  -8   4   42.00   13.40
   4   8  -4  -15.30    7.60
   4   8  -4  -12.00    6.30
   4   8  -4   -8.70    7.20
   4   8  -4   -0.50    7.30
  -4  -8   4  -14.20    7.40
  -4  -8   4    0.40    4.40
  -4  -8   4   -8.40    9.10
   3   8  -4   68.79   10.10
   3   8  -4   97.59   15.70
   3   8  -4  101.29   13.90
   3   8  -4   64.19    9.60
  -3  -8   4   96.39   16.50
  -3  -8   4   86.09    9.80
  -3  -8   4   72.19   12.50
  -3  -8   4   83.69   14.10
   2   8  -4   20.00    8.30
   2   8  -4    1.80    6.50
  -2  -8   4   19.40    8.70
  -2  -8   4    6.30    6.50
  -2  -8   4    4.30    8.60
  -2  -8   4   -1.80    5.20
  -2  -8   4   13.20   10.10
   1   8  -4  376.46   20.90
   1   8  -4  398.46   18.20
   1   8  -4  405.96   22.80
  -1  -8   4  410.86   22.80
  -1  -8   4  385.26   20.80
  -1  -8   4  374.76   22.70
  -1  -8   4  422.76   24.00
  -1  -8   4  366.16   20.90
   0   8  -4    2.60    2.70
   0   8  -4    0.90    5.50
   0   8  -4   -1.70    6.60
   0  -8   4   -5.00    6.30
   0  -8   4    7.70    7.70
   0  -8   4   -4.00    7.90
  -1   8  -4   -2.10    6.80
  -1   8  -4   -5.90    5.80
  -1   8  -4    2.40    2.30
  -1   8  -4    2.10    3.00
   1  -8   4   -1.20    7.70
   1  -8   4   -2.40    5.90
   1  -8   4   -3.20    5.60
   1  -8   4    1.10    7.50
  -2   8  -4    7.10    6.90
  -2   8  -4    4.20    3.50
  -2   8  -4    8.90    6.00
  -2   8  -4    4.10    7.50
   2  -8   4    8.20    8.70
   2  -8   4   12.60    9.50
   2  -8   4   20.00    8.10
  -3   8  -4   85.29   12.50
  -3   8  -4   94.89    8.50
  -3   8  -4   71.09   11.40
   3  -8   4  100.99   16.60
   3  -8   4   63.89   11.30
  -4   8  -4  540.45   33.60
  -4   8  -4  570.34   41.60
  -4   8  -4  496.75   23.70
  -4   8  -4  520.85   27.20
   4  -8   4  558.54   30.80
   4  -8   4  563.94   29.70
   4  -8   4  473.05   24.90
   6   7  -4   20.40    9.80
   6   7  -4   47.00   12.20
   6   7  -4   35.00   10.90
   6   7  -4   11.70    9.10
  -6  -7   4   44.50   13.40
  -6  -7   4   28.70   12.30
   5   7  -4    4.20    8.60
   5   7  -4    3.70    8.90
   5   7  -4    7.50    8.40
   5   7  -4   -1.80    6.90
  -5  -7   4    6.10    2.90
  -5  -7   4   -2.40    9.70
  -5  -7   4    6.90   10.70
  -5  -7   4    5.70    3.90
  -5  -7   4    3.80    6.70
   4   7  -4   26.60    8.00
   4   7  -4   23.20    8.70
   4   7  -4   17.00    9.60
   4   7  -4   18.80    6.70
  -4  -7   4   11.60    3.90
  -4  -7   4   20.70    9.20
  -4  -7   4   10.30    9.20
   3   7  -4    1.30    6.60
   3   7  -4    7.30    7.60
   3   7  -4    3.40    5.50
  -3  -7   4    2.70    7.10
  -3  -7   4   -1.00    8.00
  -3  -7   4   -2.50    8.60
  -3  -7   4   11.40    4.60
   2   7  -4   82.79    8.70
   2   7  -4   69.79   12.00
   2   7  -4   78.29   12.80
  -2  -7   4   68.99   12.10
  -2  -7   4   71.89   10.70
  -2  -7   4   61.69   10.50
  -2  -7   4   71.89    9.00
  -2  -7   4   76.19   10.90
   1   7  -4 2043.00   73.99
   1   7  -4 2118.29   71.69
  -1  -7   4 2084.49   73.49
  -1  -7   4 2079.19   74.69
  -1  -7   4 2356.66   74.09
  -1  -7   4 2137.39   74.99
  -1  -7   4 1915.71   74.19
   0   7  -4   89.89   10.70
   0   7  -4   98.09   13.20
   0   7  -4   97.69    7.60
   0  -7   4   91.29   10.70
   0  -7   4   69.29   11.90
   0  -7   4  102.19   13.90
   0  -7   4   75.79   11.00
  -1   7  -4   24.20    6.60
  -1   7  -4   34.50    5.00
  -1   7  -4   32.70    4.50
  -1   7  -4   25.90    7.60
   1  -7   4   31.20    8.70
   1  -7   4   25.00    6.90
   1  -7   4   39.90    8.50
   1  -7   4   36.70    7.40
  -2   7  -4   31.80    7.90
  -2   7  -4   30.40    4.50
  -2   7  -4   27.50    7.80
   2  -7   4   37.20    8.90
   2  -7   4   21.00    6.90
   2  -7   4   30.20    9.20
  -3   7  -4    4.30    3.80
  -3   7  -4    3.80    7.10
  -3   7  -4    3.50    6.40
  -3   7  -4   11.00    7.80
   3  -7   4   14.10    8.10
   3  -7   4    1.40    6.90
   3  -7   4   -2.10    4.30
  -4   7  -4   22.30    9.50
  -4   7  -4   20.10    9.10
  -4   7  -4   30.10    5.90
   4  -7   4   15.90    6.70
   4  -7   4   30.80    8.00
   4  -7   4   34.90    9.60
   4  -7   4   22.90    9.70
  -5   7  -4   16.80    6.10
  -5   7  -4   -0.10    9.40
   5  -7   4    9.90    9.10
   5  -7   4    6.90    7.10
   5  -7   4   16.60    4.50
   5  -7   4   31.10   10.90
   6   6  -4  428.46   24.90
   6   6  -4  463.25   29.20
   6   6  -4  500.55   29.00
   6   6  -4  487.85   28.10
   6   6  -4  409.56   26.60
  -6  -6   4  429.26   27.80
  -6  -6   4  423.96   24.90
  -6  -6   4  482.15   30.40
  -6  -6   4  463.85   24.90
   5   6  -4   20.90   11.50
   5   6  -4   20.10    8.40
   5   6  -4   33.80   13.70
   5   6  -4   32.60   12.50
  -5  -6   4   30.00   11.40
  -5  -6   4   16.70    6.90
   4   6  -4   36.10    8.30
   4   6  -4   49.00   10.00
   4   6  -4   29.80    7.20
   4   6  -4   44.30    9.90
   4   6  -4   46.30    9.40
  -4  -6   4   50.99    9.80
  -4  -6   4   39.00   10.20
  -4  -6   4   37.50    5.20
  -4  -6   4   41.90   10.90
   3   6  -4   -8.10    4.80
   3   6  -4   -6.20    4.50
   3   6  -4   -1.10    5.60
   3   6  -4   -4.50    5.70
  -3  -6   4   -8.50    6.50
  -3  -6   4   -4.90    4.60
  -3  -6   4   -8.00    7.70
  -3  -6   4   -6.10    6.60
   2   6  -4   76.39    7.90
   2   6  -4   86.69   12.00
   2   6  -4   65.29    8.90
  -2  -6   4   74.09    8.20
  -2  -6   4   64.09   10.50
  -2  -6   4   89.29   11.90
  -2  -6   4   62.49    9.40
  -2  -6   4   67.69    8.90
   1   6  -4   26.60    6.50
   1   6  -4   20.70    4.70
  -1  -6   4   29.60    7.30
  -1  -6   4   15.50    6.90
   0   6  -4  407.16   18.80
   0   6  -4  418.76   19.70
   0   6  -4  380.16   16.40
   0  -6   4  389.56   20.20
   0  -6   4  355.86   20.30
   0  -6   4  421.76   19.80
   0  -6   4  355.86   18.80
  -1   6  -4   18.10    5.80
  -1   6  -4   18.30    3.20
  -1   6  -4   18.50    3.20
  -1   6  -4   20.20    6.30
   1  -6   4   15.80    6.30
   1  -6   4   11.30    5.10
   1  -6   4   18.60    6.20
   1  -6   4   17.90    6.50
  -2   6  -4    1.80    4.80
  -2   6  -4    2.90    5.40
  -2   6  -4    2.50    2.60
   2  -6   4   -5.20    4.60
   2  -6   4   -3.30    5.60
   2  -6   4    3.60    6.00
  -3   6  -4  108.89    8.30
  -3   6  -4  114.79   13.40
  -3   6  -4  106.99   12.80
  -3   6  -4  100.79   10.80
   3  -6   4   89.09   12.70
   3  -6   4   99.79   13.70
   3  -6   4   81.59    8.20
   3  -6   4   89.39    7.90
  -4   6  -4   67.49   10.40
  -4   6  -4   74.89    8.90
  -4   6  -4   71.69   11.00
  -4   6  -4   62.99    9.60
   4  -6   4   54.29   10.30
   4  -6   4   43.80    6.70
   4  -6   4   68.89   10.70
   4  -6   4   57.49   10.30
   4  -6   4   56.39    7.50
  -5   6  -4  541.85   25.90
  -5   6  -4  644.94   31.30
  -5   6  -4  581.84   29.50
   5  -6   4  566.74   22.90
   5  -6   4  557.34   30.40
   5  -6   4  559.24   30.80
   5  -6   4  579.74   29.50
   5  -6   4  528.15   25.50
   6   5  -4   46.70   10.60
   6   5  -4   62.59   12.50
   6   5  -4   62.39   12.70
   6   5  -4   58.59   12.60
  -6  -5   4   77.89   11.80
  -6  -5   4   54.29    9.20
   5   5  -4   20.20    8.30
   5   5  -4   32.80    9.80
   5   5  -4   22.50    6.30
   5   5  -4   16.70   10.20
  -5  -5   4   43.50   10.90
  -5  -5   4   36.60    9.80
   4   5  -4  120.09   11.90
   4   5  -4  152.58   13.40
   4   5  -4  150.78   14.90
   4   5  -4  126.99   13.10
   4   5  -4  135.89   15.70
  -4  -5   4  131.39   11.50
  -4  -5   4  140.49   14.50
  -4  -5   4  141.89    6.50
  -4  -5   4  120.09   16.00
  -4  -5   4  145.49   16.10
   3   5  -4   -3.00    5.40
   3   5  -4   -5.30    4.20
   3   5  -4    2.00    6.30
   3   5  -4   -3.90    5.10
  -3  -5   4   -0.20    2.30
  -3  -5   4   -7.90    5.70
  -3  -5   4   -2.80    6.20
   2   5  -4  123.59   11.10
   2   5  -4  105.69    9.10
   2   5  -4  106.59    8.50
  -2  -5   4  123.99   12.20
  -2  -5   4   99.29   10.90
  -2  -5   4  119.49    8.10
  -2  -5   4  116.99   11.80
  -2  -5   4   91.99   13.00
   1   5  -4    6.60    4.80
   1   5  -4    0.60    3.50
  -1  -5   4    7.10    3.40
  -1  -5   4    7.80    5.10
  -1  -5   4   -2.90    5.30
  -1  -5   4    2.00    5.60
  -1  -5   4    4.50    3.70
   0   5  -4 1478.55   51.19
   0   5  -4 1449.95   51.49
   0   5  -4 1407.46   49.70
   0  -5   4 1506.15   51.99
   0  -5   4 1387.76   50.89
   0  -5   4 1533.65   52.09
   0  -5   4 1461.05   51.19
  -1   5  -4  137.39    7.70
  -1   5  -4  148.49    8.00
  -1   5  -4  151.98   11.80
  -1   5  -4  150.68   10.80
   1  -5   4  139.09   10.80
   1  -5   4  142.79   10.40
   1  -5   4  154.38   11.60
   1  -5   4  141.69   11.70
  -2   5  -4   52.39    5.20
  -2   5  -4   53.19    8.70
  -2   5  -4   57.09    9.60
   2  -5   4   43.70    7.20
   2  -5   4   37.30    8.60
   2  -5   4   33.90    6.60
   2  -5   4   52.69    6.00
  -3   5  -4   84.59    7.30
  -3   5  -4   61.09    9.00
  -3   5  -4   84.79   11.80
  -3   5  -4   63.89    9.60
   3  -5   4   78.49    6.80
   3  -5   4   80.19   11.20
   3  -5   4   82.59   11.80
   3  -5   4   80.19    7.10
   3  -5   4   79.99   11.10
  -4   5  -4   39.70    8.50
  -4   5  -4   31.10    8.30
  -4   5  -4   47.10    7.40
  -4   5  -4   32.00    7.10
   4  -5   4   37.60    8.40
   4  -5   4   21.60    4.70
   4  -5   4   36.30    9.00
   4  -5   4   35.70    8.70
   4  -5   4   26.50    5.10
  -5   5  -4 1226.38   62.59
  -5   5  -4 1212.68   48.30
  -5   5  -4 1372.46   51.29
   5  -5   4 1362.16   54.99
   5  -5   4 1314.77   45.20
   5  -5   4 1231.78   46.80
   5  -5   4 1201.38   51.19
   5  -5   4 1251.27   51.89
  -6   5  -4    2.80    4.80
  -6   5  -4   -2.80    8.90
  -6   5  -4    4.20   10.80
   6  -5   4   18.90   10.50
   6  -5   4   -1.00    7.80
   6  -5   4    0.50    5.00
   6  -5   4   -5.10    6.90
   6  -5   4   11.50    9.20
   6   4  -4   -0.20    8.50
   6   4  -4   -7.10    5.80
   6   4  -4   16.10   12.80
   6   4  -4  -13.40    8.20
  -6  -4   4    1.20   10.10
  -6  -4   4    9.60    9.50
  -6  -4   4    8.60    6.60
  -6  -4   4    3.90    6.10
   5   4  -4    2.40    7.80
   5   4  -4    2.80    5.10
   5   4  -4    3.00    6.50
   5   4  -4   13.00    8.80
   5   4  -4   -2.40    8.60
  -5  -4   4    2.90    5.60
  -5  -4   4    8.40    8.10
  -5  -4   4   14.60    9.00
  -5  -4   4   10.80    6.10
   4   4  -4   51.69    8.50
   4   4  -4   60.89    9.20
   4   4  -4   51.09    9.30
   4   4  -4   53.29   10.90
   4   4  -4   47.70    9.00
  -4  -4   4   35.80    8.80
  -4  -4   4   53.39    7.30
  -4  -4   4   34.80   10.20
   3   4  -4   15.90    5.60
   3   4  -4   26.70    7.10
   3   4  -4   19.10    6.30
   3   4  -4   20.00    4.40
   3   4  -4   18.40    6.30
  -3  -4   4    7.50    6.50
  -3  -4   4   21.00    3.40
  -3  -4   4   24.60    7.40
  -3  -4   4   22.20    6.60
   2   4  -4   59.79    7.90
   2   4  -4   64.99    6.90
   2   4  -4   63.79    8.50
   2   4  -4   61.79    6.70
   2   4  -4   73.69    9.00
  -2  -4   4   76.39    7.30
  -2  -4   4   59.89    8.70
  -2  -4   4   60.99    5.40
  -2  -4   4   60.99    9.60
   1   4  -4   11.20    3.70
   1   4  -4   21.00    3.80
   1   4  -4   16.20    4.70
  -1  -4   4   14.50    3.70
  -1  -4   4   15.40    3.80
  -1  -4   4   12.70    4.80
  -1  -4   4    5.90    5.30
   0   4  -4 7550.44  244.78
   0   4  -4 7605.44  245.48
   0   4  -4 7623.94  245.68
   0  -4   4 7843.22  246.18
   0  -4   4 7813.82  246.08
   0  -4   4 7716.43  247.08
   0  -4   4 7637.94  245.58
  -1   4  -4  414.56   18.20
  -1   4  -4  421.56   14.80
  -1   4  -4  423.86   18.40
  -1   4  -4  414.66   16.40
  -1   4  -4  413.86   18.70
   1  -4   4  403.26   18.60
   1  -4   4  405.36   18.90
   1  -4   4  405.36   18.30
  -2   4  -4  188.68   12.20
  -2   4  -4  191.78   12.70
  -2   4  -4  196.18   12.80
  -2   4  -4  208.78    9.50
   2  -4   4  191.88   12.60
   2  -4   4  199.68    9.90
   2  -4   4  213.98   13.10
   2  -4   4  176.08   12.20
  -3   4  -4    2.50    5.30
  -3   4  -4   -0.60    4.20
  -3   4  -4    3.30    4.80
  -3   4  -4    5.10    5.50
  -3   4  -4    4.10    3.10
   3  -4   4    1.20    5.60
   3  -4   4    1.20    4.90
   3  -4   4    3.20    5.30
   3  -4   4    1.20    2.30
   3  -4   4    1.40    2.90
  -4   4  -4    7.90    4.90
  -4   4  -4   14.00    7.70
  -4   4  -4   15.80    6.90
  -4   4  -4   10.00    4.50
  -4   4  -4   14.20    5.70
   4  -4   4    8.80    3.90
   4  -4   4   11.30    6.50
   4  -4   4   17.10    6.70
   4  -4   4   14.50    3.60
   4  -4   4   13.00    6.60
  -5   4  -4  303.97   18.40
  -5   4  -4  298.37   19.10
  -5   4  -4  311.07   17.90
  -5   4  -4  382.16   25.10
   5  -4   4  312.97   16.00
   5  -4   4  258.67   18.20
   5  -4   4  307.27   21.00
   5  -4   4  293.27   15.10
  -6   4  -4  191.68   15.30
  -6   4  -4  198.98   17.50
  -6   4  -4  164.78   19.00
   6  -4   4  198.38   20.20
   6  -4   4  190.58   13.20
   6  -4   4  154.08   14.20
   6  -4   4  179.98   18.10
   6  -4   4  185.68   18.50
   6   3  -4   11.70   11.10
   6   3  -4    8.10    5.50
   6   3  -4    8.70    9.30
   6   3  -4    3.90   14.00
  -6  -3   4    6.20    6.60
  -6  -3   4   19.80    7.80
  -6  -3   4    0.10    9.10
  -6  -3   4   10.00    8.80
   5   3  -4  574.84   27.40
   5   3  -4  539.55   27.60
   5   3  -4  537.15   29.60
   5   3  -4  537.35   24.50
   5   3  -4  508.15   27.40
  -5  -3   4  574.84   28.10
  -5  -3   4  522.35   25.80
  -5  -3   4  582.64   30.20
  -5  -3   4  529.75   24.30
   4   3  -4  153.08   13.10
   4   3  -4  163.28   14.30
   4   3  -4  157.98   11.30
   4   3  -4  152.78   14.40
   4   3  -4  144.19   13.90
  -4  -3   4  137.49   11.40
  -4  -3   4  147.89   11.10
  -4  -3   4  177.48   14.20
  -4  -3   4  145.09   14.00
   3   3  -4   11.30    5.80
   3   3  -4   12.00    3.60
   3   3  -4   13.60    5.10
   3   3  -4   12.80    5.80
   3   3  -4   10.40    4.90
  -3  -3   4    8.80    4.10
  -3  -3   4   11.40    6.50
  -3  -3   4   11.00    1.60
  -3  -3   4    8.00    5.90
  -3  -3   4   13.60    3.90
  -3  -3   4    7.20    5.10
   2   3  -4   60.69    7.60
   2   3  -4   55.39    8.00
   2   3  -4   51.39    6.30
   2   3  -4   45.60    7.30
   2   3  -4   54.19    6.10
  -2  -3   4   51.89    8.20
  -2  -3   4   58.49    8.90
  -2  -3   4   50.19    5.90
  -2  -3   4   52.19    4.30
  -2  -3   4   52.29    7.30
   1   3  -4   76.09    5.10
   1   3  -4   79.19    7.10
   1   3  -4   78.49    6.60
  -1  -3   4   85.29    7.70
  -1  -3   4   88.09    6.70
  -1  -3   4   65.79    8.90
  -1  -3   4   85.29    5.90
   0   3  -4  128.99    8.20
   0   3  -4  127.69    8.20
   0   3  -4  114.29    7.60
   0   3  -4  125.69    8.60
   0  -3   4  136.19    9.00
   0  -3   4  119.39    8.70
   0  -3   4  119.69    4.80
   0  -3   4  125.19    7.90
   0  -3   4  141.09   10.20
  -1   3  -4  860.51   27.90
  -1   3  -4  840.22   31.00
  -1   3  -4  866.31   31.50
  -1   3  -4  831.52   30.90
  -1   3  -4  851.81   29.80
   1  -3   4  847.82   30.20
   1  -3   4  857.91   31.10
   1  -3   4  830.22   31.80
   1  -3   4  846.92   31.20
  -2   3  -4  530.15   22.10
  -2   3  -4  532.45   22.30
  -2   3  -4  535.75   22.10
   2  -3   4  532.35   20.30
   2  -3   4  557.24   22.20
   2  -3   4  548.55   22.70
   2  -3   4  523.65   22.40
  -3   3  -4   27.20    4.40
  -3   3  -4   26.80    5.70
  -3   3  -4   22.80    5.20
  -3   3  -4   24.80    5.80
   3  -3   4   24.50    6.00
   3  -3   4   30.50    6.10
   3  -3   4   24.40    4.00
   3  -3   4   24.40    5.80
   3  -3   4   29.60    3.80
  -4   3  -4   28.10    5.90
  -4   3  -4   24.00    6.60
  -4   3  -4   28.60    5.90
  -4   3  -4   30.90    7.20
   4  -3   4   27.00    6.90
   4  -3   4   35.80    5.80
   4  -3   4   34.40    7.10
   4  -3   4   33.90    5.30
  -5   3  -4  294.77   17.70
  -5   3  -4  292.17   18.40
  -5   3  -4  313.47   23.00
  -5   3  -4  337.37   19.60
  -5   3  -4  319.27   20.20
   5  -3   4  335.27   20.30
   5  -3   4  338.07   21.10
   5  -3   4  321.97   19.80
   5  -3   4  344.77   16.10
   5  -3   4  302.77   15.60
  -6   3  -4  533.45   28.80
  -6   3  -4  505.15   26.10
  -6   3  -4  506.35   29.40
  -6   3  -4  485.85   25.20
  -6   3  -4  442.96   27.60
   6  -3   4  511.55   22.60
   6  -3   4  483.65   30.70
   6  -3   4  463.45   25.60
   6  -3   4  511.25   28.30
  -7   3  -4   -5.40    6.70
  -7   3  -4    5.90   10.30
   7  -3   4   -7.20    6.10
   7  -3   4   11.60    8.80
   7  -3   4  -10.00    9.90
   7  -3   4  -11.30    8.00
   7   2  -4   -3.10    7.20
   7   2  -4   32.10   16.30
   7   2  -4    2.90    7.40
   7   2  -4    1.30   11.10
  -7  -2   4   -1.70    8.40
  -7  -2   4   11.00   10.80
  -7  -2   4    2.70    7.80
  -7  -2   4    7.10    8.80
   6   2  -4   64.39   16.30
   6   2  -4   56.19    3.60
   6   2  -4   40.40   12.30
   6   2  -4   42.30   10.30
   6   2  -4   64.89    8.80
  -6  -2   4   36.70   10.00
  -6  -2   4   49.10   10.50
  -6  -2   4   45.40    9.00
   5   2  -4  397.86   22.80
   5   2  -4  419.46   22.50
   5   2  -4  386.06   22.20
   5   2  -4  376.96   24.80
   5   2  -4  372.86   18.70
  -5  -2   4  353.46   22.10
  -5  -2   4  404.26   22.40
  -5  -2   4  392.06   19.20
  -5  -2   4  350.66   20.40
   4   2  -4    1.90    6.90
   4   2  -4   -6.20    5.10
   4   2  -4   -7.20    6.00
   4   2  -4   -5.60    3.10
   4   2  -4   -2.20    5.20
  -4  -2   4    2.00    4.80
  -4  -2   4   -2.40    5.50
  -4  -2   4   -5.50    4.00
   3   2  -4  246.68   14.90
   3   2  -4  234.58   12.20
   3   2  -4  254.37   14.10
   3   2  -4  238.38   15.00
   3   2  -4  244.18   14.60
  -3  -2   4  253.37   15.10
  -3  -2   4  260.07   13.40
  -3  -2   4  256.27   14.20
  -3  -2   4  242.38   12.00
   2   2  -4    1.60    3.40
   2   2  -4   -1.00    3.40
   2   2  -4    8.40    4.40
   2   2  -4    2.80    2.50
   2   2  -4    2.50    3.70
  -2  -2   4    2.90    2.40
  -2  -2   4    4.00    4.80
  -2  -2   4    1.10    4.70
  -2  -2   4    3.30    1.40
  -2  -2   4    1.10    3.70
  -2  -2   4    3.40    2.90
   1   2  -4   85.59    5.50
   1   2  -4   96.79    7.90
   1   2  -4  100.79    5.70
   1   2  -4   93.79    6.70
   1   2  -4   92.89    6.30
  -1  -2   4   94.29    6.10
  -1  -2   4   87.59    8.80
  -1  -2   4   97.39    5.30
  -1  -2   4   94.79    7.30
  -1  -2   4   98.89    7.90
  -1  -2   4   99.09    5.90
   0   2  -4    8.90    2.80
   0   2  -4    5.80    2.40
   0   2  -4    3.40    2.80
   0   2  -4    6.70    2.70
   0  -2   4    6.40    3.30
   0  -2   4    8.70    3.00
   0  -2   4    3.00    2.70
   0  -2   4    7.20    2.40
  -1   2  -4  779.32   27.50
  -1   2  -4  783.12   25.40
  -1   2  -4  788.82   29.00
  -1   2  -4  768.62   28.10
  -1   2  -4  789.52   28.10
   1  -2   4  773.72   28.00
   1  -2   4  772.02   27.80
   1  -2   4  777.82   28.40
   1  -2   4  810.12   29.30
  -2   2  -4  280.67   13.90
  -2   2  -4  279.17   14.00
  -2   2  -4  307.47   11.90
  -2   2  -4  284.27   14.60
   2  -2   4  284.37   12.20
   2  -2   4  275.47   10.10
   2  -2   4  280.77   13.90
   2  -2   4  273.27   13.70
   2  -2   4  265.77   13.90
  -3   2  -4  139.89    8.70
  -3   2  -4  127.79   10.60
  -3   2  -4  146.09    9.70
  -3   2  -4  141.69   10.60
  -3   2  -4  132.99   10.80
   3  -2   4  133.29    8.10
   3  -2   4  148.39   10.90
   3  -2   4  138.99   10.60
   3  -2   4  142.89    6.80
   3  -2   4  150.08   11.00
  -4   2  -4    8.50    5.60
  -4   2  -4    7.10    5.50
  -4   2  -4    7.30    4.10
  -4   2  -4    6.50    6.90
  -4   2  -4    5.00    3.60
   4  -2   4    6.50    2.70
   4  -2   4    7.10    3.50
   4  -2   4    3.00    5.10
   4  -2   4    8.60    4.00
   4  -2   4    5.00    4.60
  -5   2  -4   -9.70    5.60
  -5   2  -4    7.80    6.60
  -5   2  -4    0.70    5.70
  -5   2  -4   -6.20    4.80
   5  -2   4    0.50    6.40
   5  -2   4   -3.40    5.00
   5  -2   4    1.90    6.50
  -6   2  -4 1382.76   55.99
  -6   2  -4 1613.44   58.19
  -6   2  -4 1409.46   58.89
  -6   2  -4 1501.25   55.29
   6  -2   4 1454.15   58.19
   6  -2   4 1522.15   57.09
   6  -2   4 1402.66   55.79
  -7   2  -4   32.00    8.10
  -7   2  -4   28.40    9.40
  -7   2  -4   18.10   10.20
  -7   2  -4   25.50   10.60
  -7   2  -4   38.40    3.80
   7  -2   4   19.80    8.30
   7  -2   4   29.00   11.30
   7  -2   4   66.89   16.20
   7  -2   4   27.10    9.80
   7   1  -4   35.00   19.20
   7   1  -4   14.50    8.10
   7   1  -4    1.00   10.30
   7   1  -4   -0.90    7.20
  -7  -1   4    7.90    8.30
  -7  -1   4   14.50    9.30
  -7  -1   4    2.00   11.00
  -7  -1   4   11.40   10.60
   6   1  -4   18.30   12.00
   6   1  -4    5.40    8.30
   6   1  -4    1.60    5.20
   6   1  -4    7.20    8.40
  -6  -1   4    8.40    7.70
  -6  -1   4   -2.80    9.50
  -6  -1   4   11.50    7.90
  -6  -1   4   -4.50    5.20
   5   1  -4  212.48   19.70
   5   1  -4  244.78   17.70
   5   1  -4  217.18   17.00
   5   1  -4  202.18   13.60
   5   1  -4  234.38   17.40
   5   1  -4  215.68    9.20
  -5  -1   4  208.48   18.40
  -5  -1   4  205.68   15.70
  -5  -1   4  200.58   16.50
  -5  -1   4  218.18   15.30
  -5  -1   4  218.98   13.80
   4   1  -4   95.79   11.50
   4   1  -4  109.49   12.60
   4   1  -4  107.09    8.30
   4   1  -4   98.29   10.10
   4   1  -4   87.49   12.00
  -4  -1   4   95.59    9.80
  -4  -1   4  111.99   13.00
  -4  -1   4   99.99   10.80
  -4  -1   4   94.99    8.40
  -4  -1   4   78.59   10.80
   3   1  -4   16.90    5.10
   3   1  -4   16.10    6.00
   3   1  -4   14.60    4.90
   3   1  -4   17.10    3.40
  -3  -1   4   14.70    4.40
  -3  -1   4   15.40    3.50
  -3  -1   4   15.90    6.40
  -3  -1   4   15.70    4.80
   2   1  -4  336.87   13.60
   2   1  -4  311.57   15.50
   2   1  -4  334.17   16.10
   2   1  -4  305.37   14.10
  -2  -1   4  301.57   13.90
  -2  -1   4  329.67   13.10
  -2  -1   4  329.37   16.40
  -2  -1   4  340.37   16.50
  -2  -1   4  336.97   14.10
   1   1  -4  345.97   13.20
   1   1  -4  326.47   13.40
   1   1  -4  359.76   15.30
   1   1  -4  343.07   12.90
  -1  -1   4  331.07   13.40
  -1  -1   4  338.87   13.10
  -1  -1   4  347.27   15.20
  -1  -1   4  351.16   15.90
  -1  -1   4  360.96   13.00
  -1  -1   4  341.67   12.90
   0   1  -4    0.40    1.50
   0   1  -4    1.90    1.90
   0   1  -4    1.20    2.50
   0   1  -4    2.00    2.40
   0   1  -4   -0.30    1.90
   0  -1   4   -3.20    3.10
   0  -1   4    2.30    2.00
   0  -1   4   -0.20    2.00
   0  -1   4    0.30    2.30
   0  -1   4    3.10    1.80
   0  -1   4    0.40    0.60
  -1   1  -4 1191.88   39.80
  -1   1  -4 1203.98   41.00
  -1   1  -4 1189.98   39.90
  -1   1  -4 1193.68   40.00
   1  -1   4 1119.79   39.30
   1  -1   4 1176.48   39.70
   1  -1   4 1245.58   41.40
   1  -1   4 1140.29   39.80
   1  -1   4 1114.29   37.80
   1  -1   4 1224.58   40.30
  -2   1  -4  465.75   19.10
  -2   1  -4  479.05   19.10
  -2   1  -4  462.95   19.30
  -2   1  -4  489.25   17.60
   2  -1   4  479.05   18.00
   2  -1   4  464.75   18.90
   2  -1   4  457.15   19.30
   2  -1   4  457.85   19.50
  -3   1  -4   37.30    5.80
  -3   1  -4   32.60    5.90
  -3   1  -4   25.80    5.40
  -3   1  -4   40.10    5.20
  -3   1  -4   31.70    5.50
   3  -1   4   29.60    5.50
   3  -1   4   35.60    5.90
   3  -1   4   31.20    5.70
   3  -1   4   31.60    5.40
  -4   1  -4   32.90    5.40
  -4   1  -4   36.10    5.10
  -4   1  -4   26.20    6.10
  -4   1  -4   33.50    6.60
  -4   1  -4   29.90    5.70
   4  -1   4   30.30    6.40
   4  -1   4   31.90    6.90
   4  -1   4   38.30    6.50
  -5   1  -4   11.80    4.10
  -5   1  -4    4.50    6.60
  -5   1  -4    4.60    5.60
  -5   1  -4   -2.80    4.50
  -5   1  -4   -1.90    5.10
   5  -1   4   11.30    6.30
   5  -1   4    3.90    5.90
  -6   1  -4   15.10    6.00
  -6   1  -4   13.20    7.50
  -6   1  -4   12.40    3.20
  -6   1  -4   22.00    7.90
  -6   1  -4   14.10    8.70
   6  -1   4   17.70   12.10
   6  -1   4   25.70    7.80
   6  -1   4   17.00    6.50
   6  -1   4    9.70    6.60
   6  -1   4   19.90    8.40
  -7   1  -4   -2.60    5.60
  -7   1  -4   -7.90    8.60
  -7   1  -4    4.30    6.20
  -7   1  -4   10.40    7.90
  -7   1  -4    1.50    8.20
  -7   1  -4    3.60    1.40
  -7   1  -4    6.20    9.00
   7  -1   4   13.70    6.90
   7  -1   4  -16.50    8.60
   7  -1   4   -6.00    8.60
   7  -1   4    9.30    6.20
   6   0  -4   53.59   15.10
   6   0  -4   36.60    8.70
   6   0  -4   26.60    9.10
   6   0  -4   24.20    5.90
   6   0  -4   12.40    9.30
  -6   0   4   26.50    9.40
  -6   0   4   24.00    8.50
  -6   0   4   26.90    8.30
  -6   0   4   28.50    7.70
   5   0  -4   36.50    5.70
   5   0  -4   37.00    9.10
   5   0  -4   37.40    8.80
   5   0  -4   31.00    2.60
  -5   0   4   34.50   10.00
  -5   0   4   38.40    8.50
  -5   0   4   39.80    6.40
  -5   0   4   32.20    7.20
  -5   0   4   42.50    8.40
   4   0  -4   -6.70    5.50
   4   0  -4    2.80    6.20
   4   0  -4    4.30    5.70
   4   0  -4    5.90    2.20
   4   0  -4   -0.90    2.90
  -4   0   4    5.90    4.60
  -4   0   4    4.30    3.30
  -4   0   4    2.20    4.00
  -4   0   4   12.90    4.90
  -4   0   4   -0.80    6.80
   3   0  -4   30.30    5.30
   3   0  -4   34.80    6.50
   3   0  -4   32.80    6.40
   3   0  -4   34.70    4.90
   3   0  -4   36.60    4.40
   3   0  -4   24.60    5.60
  -3   0   4   34.80    5.70
  -3   0   4   26.70    6.60
  -3   0   4   26.40    4.70
  -3   0   4   37.30    5.90
  -3   0   4   34.90    4.80
   2   0  -4  116.99    9.30
   2   0  -4  113.79    8.30
   2   0  -4  107.99    6.50
   2   0  -4  116.89    9.10
   2   0  -4  112.59    7.60
   2   0  -4  101.19    4.70
  -2   0   4  103.39    6.50
  -2   0   4  120.29    8.80
  -2   0   4  102.79    6.10
  -2   0   4  125.29    8.00
   1   0  -4   37.70    3.60
   1   0  -4   33.20    4.50
   1   0  -4   33.80    5.00
   1   0  -4   32.70    4.90
   1   0  -4   38.10    3.00
   1   0  -4   41.80    4.00
  -1   0   4   36.70    2.80
  -1   0   4   31.10    5.20
  -1   0   4   39.90    5.90
  -1   0   4   42.10    4.00
   0   0  -4  708.03   25.10
   0   0  -4  676.03   22.90
   0   0  -4  647.34   27.60
   0   0  -4  679.33   22.90
   0   0  -4  709.43   24.60
   0   0  -4  678.63   24.50
   0   0  -4  656.33   22.90
   0   0   4  733.93   22.70
   0   0   4  691.83   24.50
   0   0   4  691.53   24.10
   0   0   4  693.03   25.40
   0   0   4  680.83   24.70
   0   0   4  670.93   23.00
  -1   0  -4 2867.81   91.79
  -1   0  -4 2753.42   91.39
  -1   0  -4 2886.41   92.99
  -1   0  -4 2812.82   91.59
   1   0   4 2761.12   91.49
   1   0   4 3053.39   93.19
   1   0   4 2864.11   92.29
   1   0   4 2801.02   91.79
   1   0   4 2775.92   91.89
  -2   0  -4  162.88   10.40
  -2   0  -4  147.69    9.10
  -2   0  -4  157.28    5.40
  -2   0  -4  148.49    9.30
   2   0   4  165.98   10.20
   2   0   4  164.98    8.30
   2   0   4  158.48    9.80
   2   0   4  161.18    9.20
   2   0   4  166.68    9.50
  -3   0  -4 1151.08   41.90
  -3   0  -4 1182.58   40.90
  -3   0  -4 1206.48   42.20
  -3   0  -4 1108.49   38.30
   3   0   4 1146.49   40.10
   3   0   4 1142.69   43.90
   3   0   4 1136.29   42.00
   3   0   4 1184.68   41.70
   3   0   4 1179.28   42.00
  -4   0  -4   31.00    6.70
  -4   0  -4   37.10    5.30
  -4   0  -4   35.90    5.90
  -4   0  -4   44.60    7.00
  -4   0  -4   40.70    5.00
  -4   0  -4   42.20    6.40
   4   0   4   30.80    6.20
   4   0   4   35.50    6.60
   4   0   4   44.30    9.40
  -5   0  -4    1.30    4.80
  -5   0  -4   11.90    6.50
  -5   0  -4   11.20    2.90
  -5   0  -4    9.30    5.50
  -5   0  -4   10.50    4.50
  -5   0  -4    9.40    5.40
   5   0   4   10.90    4.70
   5   0   4    0.40    4.80
   5   0   4    1.40    5.90
   5   0   4    4.70    6.20
  -6   0  -4  205.18   20.00
  -6   0  -4  219.08   18.60
  -6   0  -4  207.78   13.80
  -6   0  -4  148.69   15.50
  -6   0  -4  211.48   16.10
  -6   0  -4  199.78    9.10
   6   0   4  230.08   18.60
   6   0   4  193.38   15.30
   6   0   4  206.48   17.10
   6   0   4  195.68   20.80
   6   0   4  175.08   15.80
  -7   0  -4   -0.20    9.40
  -7   0  -4    1.20    7.00
  -7   0  -4    7.70    6.80
  -7   0  -4    7.70    6.40
   7   0   4   13.50    6.90
   7   0   4    1.10    7.40
   7   0   4   14.30    9.20
   7   0   4   24.50   13.80
  -8   0  -4    8.40    7.10
  -8   0  -4    5.10   10.90
  -8   0  -4   -7.50    8.60
   8   0   4    1.50   11.10
   8   0   4  -13.70    7.80
   8   0   4   12.90    9.40
   8   0   4   -7.30    8.50
   6  -1  -4    7.90    8.00
   6  -1  -4   14.50    5.40
   6  -1  -4    2.60    7.70
   6  -1  -4   -6.30    8.40
  -6   1   4    3.60    6.40
  -6   1   4   11.40    8.90
  -6   1   4   -3.90    5.30
  -6   1   4   -3.00    7.10
   5  -1  -4  233.28   17.50
   5  -1  -4  224.48   17.50
   5  -1  -4  222.88    8.80
   5  -1  -4  221.78   13.60
   5  -1  -4  223.08   15.30
  -5   1   4  234.18   14.20
  -5   1   4  238.88   15.40
  -5   1   4  227.58   18.40
  -5   1   4  249.28   16.50
  -5   1   4  204.18   15.70
   4  -1  -4   72.59   11.00
   4  -1  -4   74.39    4.60
   4  -1  -4   71.19    4.40
   4  -1  -4   77.49    9.40
   4  -1  -4   66.59    7.40
   4  -1  -4   70.29   11.20
   4  -1  -4   70.19    9.10
  -4   1   4   61.29    9.80
  -4   1   4   59.99    9.40
  -4   1   4   77.89    7.80
  -4   1   4   71.99    9.70
  -4   1   4   75.39    9.90
   3  -1  -4   24.10    3.40
   3  -1  -4   23.60    2.60
   3  -1  -4   21.40    5.80
   3  -1  -4   23.70    5.80
   3  -1  -4   21.90    3.60
   3  -1  -4   30.00    5.60
  -3   1   4   27.30    5.20
  -3   1   4   23.40    3.60
  -3   1   4   23.50    3.40
  -3   1   4   15.40    5.90
  -3   1   4   24.40    5.00
   2  -1  -4  175.68    8.30
   2  -1  -4  183.78    9.30
   2  -1  -4  200.88   11.30
   2  -1  -4  182.38   11.50
   2  -1  -4  168.28   10.60
  -2   1   4  180.58   10.90
  -2   1   4  171.48    7.80
  -2   1   4  191.08   10.20
   1  -1  -4   22.30    2.70
   1  -1  -4   23.00    3.60
   1  -1  -4   23.30    2.10
   1  -1  -4   28.40    4.20
   1  -1  -4   21.30    3.80
   1  -1  -4   22.70    6.40
   1  -1  -4   18.90    3.80
   1  -1  -4   21.30    4.30
  -1   1   4   19.60    1.70
  -1   1   4   22.90    1.50
  -1   1   4   29.50    4.10
  -1   1   4   24.30    4.20
   0  -1  -4 2922.31   94.89
   0  -1  -4 2869.21   94.59
   0  -1  -4 2971.50   94.39
   0  -1  -4 2990.20   94.59
   0  -1  -4 2793.62   95.09
   0   1   4 2860.11   94.99
   0   1   4 2918.31   94.69
   0   1   4 3033.30   93.39
  -1  -1  -4 4117.19  135.39
  -1  -1  -4 4164.88  136.49
  -1  -1  -4 4236.88  136.39
  -1  -1  -4 4268.27  136.69
   1   1   4 4338.37  136.59
   1   1   4 4197.38  135.09
   1   1   4 4195.58  135.59
   1   1   4 4370.06  135.59
  -2  -1  -4 4034.70  129.59
  -2  -1  -4 3981.90  129.59
  -2  -1  -4 4108.59  129.79
  -2  -1  -4 3932.41  128.69
  -2  -1  -4 3932.81  131.29
  -2  -1  -4 4100.99  130.49
   2   1   4 4030.50  129.39
   2   1   4 3926.51  128.79
   2   1   4 3954.40  131.09
   2   1   4 4210.48  130.49
   2   1   4 3907.11  129.59
  -3  -1  -4  217.98   12.90
  -3  -1  -4  218.38   12.60
  -3  -1  -4  209.48   12.50
  -3  -1  -4  219.28   10.60
  -3  -1  -4  234.98   10.70
   3   1   4  206.88   12.50
   3   1   4  211.38   12.50
   3   1   4  203.48   13.80
   3   1   4  219.88   12.20
  -4  -1  -4   19.40    5.50
  -4  -1  -4   29.50    5.00
  -4  -1  -4   31.70    4.70
  -4  -1  -4   29.40    4.60
  -4  -1  -4   21.60    5.70
  -4  -1  -4   22.80    5.90
   4   1   4   30.80    5.40
   4   1   4   33.70    8.60
   4   1   4   28.60    5.40
   4   1   4   20.60    5.30
   4   1   4   27.00    6.40
  -5  -1  -4   58.89    9.40
  -5  -1  -4   54.39    8.90
  -5  -1  -4   76.79   10.60
  -5  -1  -4   70.09    5.40
  -5  -1  -4   70.99    8.50
   5   1   4   60.89   10.20
   5   1   4   61.09    8.70
   5   1   4   60.29    9.10
   5   1   4   74.99    8.40
   5   1   4   59.19   12.30
  -6  -1  -4   65.29    5.00
  -6  -1  -4   76.59   11.50
  -6  -1  -4   74.89   11.50
  -6  -1  -4   53.99   10.50
  -6  -1  -4   55.29    9.50
  -6  -1  -4   62.09   10.00
   6   1   4   69.49   10.00
   6   1   4   76.19   11.10
   6   1   4   65.59   14.90
   6   1   4   72.29   10.70
  -7  -1  -4   30.10    8.10
  -7  -1  -4   23.60    7.20
  -7  -1  -4   19.90    8.70
  -7  -1  -4   30.90    8.40
  -7  -1  -4   20.80    9.50
  -7  -1  -4   14.10   10.60
   7   1   4   36.80    9.60
   7   1   4   38.00    8.00
   7   1   4   23.20   10.80
   7   1   4   40.40   17.10
   7   1   4   29.90   11.00
  -8  -1  -4    9.20   14.30
  -8  -1  -4   -0.40   10.90
  -8  -1  -4   -3.50    8.30
  -8  -1  -4   -2.00    8.20
   8   1   4    0.90    8.20
   8   1   4    2.00    7.60
   8   1   4    4.80   10.00
   8   1   4    6.80   10.50
   6  -2  -4    2.50    8.50
   6  -2  -4    9.40    2.80
   6  -2  -4    9.40    5.50
   6  -2  -4    3.20    8.80
   6  -2  -4   11.90    8.00
  -6   2   4    0.30    6.30
  -6   2   4   -2.30    7.20
  -6   2   4    6.50    6.60
  -6   2   4    3.80    8.70
   5  -2  -4  232.08   10.50
   5  -2  -4  218.18   16.80
   5  -2  -4  215.28   13.40
   5  -2  -4  227.18   15.00
  -5   2   4  225.28   16.30
  -5   2   4  225.28   18.50
  -5   2   4  234.38   15.10
  -5   2   4  211.38   14.40
  -5   2   4  247.48   16.50
   4  -2  -4  732.33   27.20
   4  -2  -4  841.82   34.60
   4  -2  -4  804.92   32.30
   4  -2  -4  788.92   29.90
   4  -2  -4  770.02   29.90
  -4   2   4  716.03   34.10
  -4   2   4  797.52   30.40
  -4   2   4  733.93   32.10
  -4   2   4  741.53   33.40
  -4   2   4  780.92   29.80
   3  -2  -4  930.01   33.60
   3  -2  -4  984.00   37.90
   3  -2  -4  938.91   32.70
   3  -2  -4  931.01   32.40
   3  -2  -4  930.81   35.70
   3  -2  -4  923.21   33.90
  -3   2   4  972.50   35.60
  -3   2   4  949.60   36.10
  -3   2   4  918.31   33.50
  -3   2   4  950.50   33.00
  -3   2   4 1019.90   37.70
   2  -2  -4   46.50    6.20
   2  -2  -4   53.09    4.30
   2  -2  -4   61.69    6.80
   2  -2  -4   46.40    4.90
   2  -2  -4   54.39    4.60
   2  -2  -4   49.40    6.30
  -2   2   4   48.90    8.00
  -2   2   4   51.39    4.00
  -2   2   4   53.19    5.50
  -2   2   4   54.29    5.80
   1  -2  -4  283.97   10.40
   1  -2  -4  305.27   12.80
   1  -2  -4  295.67   13.90
   1  -2  -4  297.27   10.10
   1  -2  -4  290.37   13.80
   1  -2  -4  292.07   12.80
  -1   2   4  309.77   12.90
   0  -2  -4   -0.80    2.40
   0  -2  -4    0.00    1.60
   0  -2  -4    5.00    2.30
   0  -2  -4   -2.00    2.00
   0  -2  -4   -1.60    2.90
   0   2   4   -3.80    2.90
   0   2   4    1.30    2.20
  -1  -2  -4 1048.00   34.40
   1   2   4 1137.59   34.00
   1   2   4  979.80   34.10
   1   2   4  979.30   35.70
   1   2   4  922.01   34.30
  -2  -2  -4 3830.82  127.19
  -2  -2  -4 3846.92  130.49
  -2  -2  -4 4103.49  129.29
  -2  -2  -4 4136.39  128.39
  -2  -2  -4 4005.90  128.29
  -2  -2  -4 4085.69  128.29
   2   2   4 3982.20  128.49
   2   2   4 4264.87  129.19
   2   2   4 3838.62  129.99
   2   2   4 3676.33  126.09
   2   2   4 3931.81  128.09
   2   2   4 3915.11  127.49
  -3  -2  -4   -6.00    3.80
  -3  -2  -4    2.30    4.40
  -3  -2  -4    3.60    2.70
  -3  -2  -4    8.50    3.50
  -3  -2  -4   -2.00    2.50
  -3  -2  -4   -1.00    6.10
   3   2   4   -7.90    4.70
   3   2   4    0.30    2.90
   3   2   4   -0.70    3.10
   3   2   4    4.00    3.60
  -4  -2  -4   41.30    5.60
  -4  -2  -4   41.60    6.80
  -4  -2  -4   38.10    7.00
  -4  -2  -4   39.70    6.30
  -4  -2  -4   50.79    5.20
   4   2   4   49.20    9.90
   4   2   4   43.40    6.90
   4   2   4   49.70    7.00
   4   2   4   41.40    6.90
  -5  -2  -4   -0.40    4.40
  -5  -2  -4   -6.70    5.10
  -5  -2  -4   -0.60    2.10
  -5  -2  -4    1.90    4.50
  -5  -2  -4   -0.90    4.70
  -5  -2  -4    2.20    4.50
   5   2   4    3.00    7.80
   5   2   4    0.00    3.60
   5   2   4   -3.90    4.30
   5   2   4    0.00    3.80
   5   2   4   -3.30    4.90
  -6  -2  -4   29.00    7.80
  -6  -2  -4   28.40    9.00
  -6  -2  -4   16.30    7.10
  -6  -2  -4   26.10    7.60
  -6  -2  -4   27.40    7.10
   6   2   4   21.60   11.30
   6   2   4   10.70    6.10
   6   2   4   28.70    7.80
   6   2   4   30.00    7.80
   6   2   4   15.60    7.80
  -7  -2  -4   62.49    9.80
  -7  -2  -4   54.29   12.70
  -7  -2  -4   63.49   11.60
  -7  -2  -4   83.79   13.60
  -7  -2  -4   74.99   12.30
   7   2   4   72.99   12.50
   7   2   4   70.39   10.50
   7   2   4   73.39   10.90
   7   2   4   89.49   15.40
  -8  -2  -4   72.19   13.20
  -8  -2  -4   75.09   12.80
  -8  -2  -4  109.79   16.50
  -8  -2  -4  101.39   16.30
  -8  -2  -4   92.19   15.00
   8   2   4  107.19   15.50
   8   2   4   85.09   13.90
   8   2   4   84.39   14.30
   8   2   4  131.79   26.00
   8   2   4   93.69   13.10
   6  -3  -4    1.60    6.20
   6  -3  -4    5.90    3.90
   6  -3  -4   11.70    8.40
   6  -3  -4    4.30    5.60
   6  -3  -4    5.50    8.70
  -6   3   4    2.70    6.70
  -6   3   4   15.80    8.40
  -6   3   4    2.70    8.30
  -6   3   4    9.80    6.80
   5  -3  -4   99.99   11.70
   5  -3  -4  112.89    8.20
   5  -3  -4  107.39   10.30
   5  -3  -4  131.49   13.50
  -5   3   4  112.69   12.00
  -5   3   4  108.99   11.50
  -5   3   4  127.49   15.60
  -5   3   4  103.29   13.10
  -5   3   4  122.69   12.50
   4  -3  -4   95.59   11.20
   4  -3  -4   91.09    9.60
   4  -3  -4   82.09    8.40
   4  -3  -4   90.89    7.30
   4  -3  -4  110.09   11.20
  -4   3   4  108.79   13.20
  -4   3   4  103.79   12.20
  -4   3   4   92.79   10.60
  -4   3   4   98.39    9.80
   3  -3  -4    4.30    4.30
   3  -3  -4    2.50    2.50
   3  -3  -4    6.50    3.30
  -3   3   4    4.90    4.10
  -3   3   4    7.30    3.20
  -3   3   4    5.20    2.20
  -3   3   4    4.10    3.90
   2  -3  -4   -1.30    1.50
   2  -3  -4    2.30    3.20
   2  -3  -4   -0.10    1.90
   2  -3  -4   -1.00    3.50
   2  -3  -4   -0.20    1.90
  -2   3   4    0.40    2.70
  -2   3   4    1.00    1.60
  -2   3   4   -1.90    3.20
  -2   3   4    2.70    3.10
   1  -3  -4   91.29    4.90
   1  -3  -4  109.49    6.70
   1  -3  -4  104.99    4.90
   1  -3  -4   85.99    7.60
   1  -3  -4  102.79    6.00
   1  -3  -4   95.69    6.70
  -1   3   4  100.99    4.30
  -1   3   4   95.79    7.10
  -1   3   4   89.99    8.00
   0  -3  -4  344.57   12.20
   0  -3  -4  346.37   12.60
   0  -3  -4  343.27   14.50
   0  -3  -4  348.17   13.20
   0  -3  -4  332.27   11.80
   0  -3  -4  358.16   15.90
   0  -3  -4  335.37   14.20
   0   3   4  331.17   11.90
   0   3   4  327.47   14.90
   0   3   4  348.07   13.90
   0   3   4  347.17   13.60
   0   3   4  339.67   11.60
  -1  -3  -4 2020.20   66.39
  -1  -3  -4 1967.90   64.79
  -1  -3  -4 2003.20   65.09
  -1  -3  -4 1927.21   64.99
  -1  -3  -4 1930.71   64.49
  -1  -3  -4 1985.60   68.09
   1   3   4 2009.10   66.79
   1   3   4 1997.70   65.19
   1   3   4 2129.29   67.69
   1   3   4 1973.10   64.59
   1   3   4 1927.01   64.79
   1   3   4 2049.59   65.49
  -2  -3  -4 1542.75   57.29
  -2  -3  -4 1650.83   55.59
  -2  -3  -4 1641.24   54.69
  -2  -3  -4 1640.14   52.89
  -2  -3  -4 1636.64   54.39
  -2  -3  -4 1612.34   54.49
   2   3   4 1615.14   54.49
   2   3   4 1598.04   53.69
   2   3   4 1688.63   57.19
   2   3   4 1490.85   51.49
   2   3   4 1602.04   54.19
   2   3   4 1618.64   54.89
  -3  -3  -4   11.50    3.30
  -3  -3  -4   14.60    5.20
  -3  -3  -4   11.30    7.60
  -3  -3  -4   14.40    5.00
  -3  -3  -4   18.60    4.50
  -3  -3  -4   15.60    3.50
   3   3   4   16.70    3.70
   3   3   4   10.60    4.00
   3   3   4   20.20    6.60
   3   3   4   15.20    5.10
   3   3   4   14.30    4.40
  -4  -3  -4  217.68   10.70
  -4  -3  -4  221.68   11.80
  -4  -3  -4  208.98   13.30
  -4  -3  -4  219.68   17.40
  -4  -3  -4  218.78   14.50
  -4  -3  -4  230.48   13.50
   4   3   4  189.08   14.50
   4   3   4  209.28   11.80
   4   3   4  212.88   15.50
   4   3   4  210.18   13.50
   4   3   4  206.88   11.70
  -5  -3  -4   27.20    6.30
  -5  -3  -4   19.90    6.00
  -5  -3  -4   31.40    4.50
  -5  -3  -4   29.90    7.50
  -5  -3  -4   38.50    6.10
   5   3   4   29.60    6.80
   5   3   4   35.10   12.10
   5   3   4   23.60    5.10
   5   3   4   29.00    6.10
  -6  -3  -4  161.48   16.00
  -6  -3  -4  216.18   15.00
  -6  -3  -4  223.88   15.50
  -6  -3  -4  225.68   18.70
  -6  -3  -4  219.18   16.60
   6   3   4  219.48   15.00
   6   3   4  195.78   20.10
   6   3   4  203.48   16.40
   6   3   4  174.38   13.80
  -7  -3  -4   -3.70    8.70
  -7  -3  -4   -2.20    7.10
  -7  -3  -4   10.40    7.50
  -7  -3  -4    7.10    8.10
  -7  -3  -4    5.50    7.90
   7   3   4    8.70    7.70
   7   3   4   -4.50    8.70
   7   3   4    0.50    7.90
  -8  -3  -4    4.00    8.10
  -8  -3  -4    2.70    8.60
  -8  -3  -4   -3.40   11.90
  -8  -3  -4   -4.40    9.30
  -8  -3  -4    4.40   10.20
   8   3   4   -2.00   10.00
   8   3   4   38.40   16.30
   8   3   4   -1.20    9.60
   8   3   4  -11.00    8.00
   6  -4  -4   11.20    6.30
   6  -4  -4   15.80    6.80
   6  -4  -4   14.50    4.80
   6  -4  -4   19.10    8.80
  -6   4   4    9.70    9.20
  -6   4   4   12.80    7.50
  -6   4   4   16.80    7.20
  -6   4   4    8.50   12.10
   5  -4  -4   74.69    8.10
   5  -4  -4   80.09   11.00
   5  -4  -4   48.20   11.60
   5  -4  -4   71.39   10.80
   5  -4  -4   74.69    9.60
  -5   4   4   78.69   11.30
  -5   4   4   66.79   10.60
  -5   4   4   78.89   10.80
  -5   4   4   83.99   12.30
   4  -4  -4  468.25   24.20
   4  -4  -4  479.45   19.80
   4  -4  -4  476.85   20.80
   4  -4  -4  457.05   22.80
   4  -4  -4  464.85   20.30
  -4   4   4  435.06   22.80
  -4   4   4  461.75   20.90
  -4   4   4  482.45   20.40
  -4   4   4  469.55   22.60
   3  -4  -4   57.09    7.60
   3  -4  -4   59.79    6.60
   3  -4  -4   63.39    7.20
   3  -4  -4   68.09    9.90
  -3   4   4   55.89    6.10
  -3   4   4   59.99    7.50
  -3   4   4   56.49    8.50
  -3   4   4   56.29    7.40
  -3   4   4   64.59    7.10
   2  -4  -4   83.29    6.00
   2  -4  -4   74.29    8.40
   2  -4  -4   70.79    5.70
   2  -4  -4   75.89    5.70
   2  -4  -4   74.19    7.20
  -2   4   4   71.69    7.60
  -2   4   4   74.39    6.60
  -2   4   4   84.49    5.00
  -2   4   4   79.99    7.90
   1  -4  -4   -1.30    1.30
   1  -4  -4    0.50    3.20
   1  -4  -4   -0.70    1.60
   1  -4  -4    1.20    2.20
   1  -4  -4    1.90    1.90
   1  -4  -4   -2.50    2.00
  -1   4   4   -2.80    1.90
  -1   4   4    2.70    3.10
  -1   4   4    0.20    1.60
  -1   4   4    0.70    3.60
   0  -4  -4   39.00    4.50
   0  -4  -4   37.70    7.20
   0  -4  -4   36.40    3.60
   0  -4  -4   32.70    3.30
   0  -4  -4   35.40    4.40
   0  -4  -4   35.60    4.40
   0   4   4   34.10    4.50
   0   4   4   35.30    5.70
   0   4   4   38.40    3.40
   0   4   4   34.90    5.20
  -1  -4  -4 8286.37  266.47
   1   4   4 8436.06  267.07
  -2  -4  -4 2161.78   72.19
  -2  -4  -4 2145.69   71.69
  -2  -4  -4 2055.59   69.69
  -2  -4  -4 2150.28   75.89
  -2  -4  -4 2233.98   72.29
   2   4   4 2141.09   72.49
   2   4   4 2247.08   75.29
   2   4   4 2193.18   71.79
   2   4   4 2127.79   72.09
  -3  -4  -4 1096.09   39.20
  -3  -4  -4 1074.59   36.60
  -3  -4  -4 1014.70   42.50
  -3  -4  -4 1079.09   38.60
  -3  -4  -4 1053.79   37.40
  -3  -4  -4 1020.70   38.90
   3   4   4 1059.29   38.00
   3   4   4 1079.79   36.30
   3   4   4 1044.60   39.10
   3   4   4 1068.99   42.00
   3   4   4  998.10   38.10
  -4  -4  -4  374.86   15.80
  -4  -4  -4  377.26   16.80
  -4  -4  -4  364.06   19.60
  -4  -4  -4  384.46   22.60
  -4  -4  -4  377.06   18.50
  -4  -4  -4  383.16   18.60
   4   4   4  372.26   17.10
   4   4   4  371.96   16.70
   4   4   4  371.16   18.70
   4   4   4  374.86   21.60
   4   4   4  371.86   19.60
  -5  -4  -4   19.30    6.30
  -5  -4  -4   12.80   10.90
  -5  -4  -4   23.60    6.30
  -5  -4  -4   19.50    7.40
  -5  -4  -4   21.90    5.00
   5   4   4   29.40    9.80
   5   4   4   20.20    6.00
   5   4   4   18.60    5.00
   5   4   4   20.60    7.50
  -6  -4  -4  189.68   13.70
  -6  -4  -4  163.08   15.10
  -6  -4  -4  158.68   17.10
  -6  -4  -4  164.38   14.30
   6   4   4  203.18   25.80
   6   4   4  162.98   15.40
   6   4   4  178.98   14.20
   6   4   4  179.98   18.50
  -7  -4  -4  177.28   16.30
  -7  -4  -4  176.98   16.60
  -7  -4  -4  179.38   20.90
  -7  -4  -4  193.98   18.70
  -7  -4  -4  183.08   17.20
   7   4   4  200.08   19.20
   7   4   4  180.98   16.80
  -8  -4  -4   57.69   12.40
  -8  -4  -4   46.80   10.70
  -8  -4  -4   51.99   10.70
  -8  -4  -4   47.70   11.80
  -8  -4  -4   52.99   14.90
   8   4   4   80.99   12.50
   8   4   4   66.79   13.20
   8   4   4   57.49   12.50
   8   4   4   56.69   11.20
   5  -5  -4    5.10    5.60
   5  -5  -4   10.50    8.50
   5  -5  -4    1.40    6.80
   5  -5  -4    1.70    4.70
   5  -5  -4    4.80    5.30
  -5   5   4    1.20    5.40
  -5   5   4   -1.10    7.00
  -5   5   4   -3.10    5.70
   4  -5  -4  123.19    9.80
   4  -5  -4  139.09   12.80
   4  -5  -4  123.39   10.00
   4  -5  -4  136.49   11.20
  -4   5   4  135.79   10.50
  -4   5   4  132.79   11.60
  -4   5   4  120.59   12.20
  -4   5   4  131.29   11.30
  -4   5   4  136.39   11.90
   3  -5  -4  310.47   13.90
   3  -5  -4  313.97   19.00
   3  -5  -4  346.97   15.20
   3  -5  -4  285.47   16.30
   3  -5  -4  364.86   15.80
  -3   5   4  314.27   15.90
  -3   5   4  277.87   15.10
  -3   5   4  295.87   15.50
   2  -5  -4   20.90    4.30
   2  -5  -4   14.70    6.00
   2  -5  -4   16.40    3.20
   2  -5  -4   17.60    3.60
   2  -5  -4   18.10    2.80
  -2   5   4   20.80    5.40
  -2   5   4   19.30    5.00
  -2   5   4   19.70    3.30
  -2   5   4   18.00    3.90
  -2   5   4   20.90    3.80
   1  -5  -4    6.10    2.80
   1  -5  -4    6.30    2.40
   1  -5  -4    4.00    2.00
   1  -5  -4   10.50    4.00
   1  -5  -4    3.70    1.60
  -1   5   4    2.10    2.10
  -1   5   4    7.10    4.20
  -1   5   4    4.80    2.00
  -1   5   4    2.20    1.90
  -1   5   4    5.00    3.30
   0  -5  -4   30.50    4.10
   0  -5  -4   31.20    3.20
   0  -5  -4   32.50    7.80
   0  -5  -4   28.30    3.80
   0   5   4   31.20    4.30
   0   5   4   33.40    4.20
   0   5   4   41.80    6.80
   0   5   4   30.90    5.30
   0   5   4   27.50    4.00
  -1  -5  -4  304.77   13.80
  -1  -5  -4  302.57   12.60
  -1  -5  -4  279.27   13.60
  -1  -5  -4  307.27   17.50
   1   5   4  280.97   13.50
   1   5   4  300.27   13.80
   1   5   4  301.17   12.30
   1   5   4  309.37   12.80
   1   5   4  279.97   14.10
   1   5   4  331.57   16.60
  -2  -5  -4  212.68    8.50
  -2  -5  -4  211.78    7.60
  -2  -5  -4  205.98   12.30
  -2  -5  -4  220.58   11.60
  -2  -5  -4  234.38   11.30
  -2  -5  -4  214.98   15.60
   2   5   4  213.38   14.20
   2   5   4  220.98   11.30
   2   5   4  224.08   12.60
   2   5   4  220.18   12.30
  -3  -5  -4  904.11   33.70
  -3  -5  -4  869.11   38.50
  -3  -5  -4  882.01   34.60
  -3  -5  -4  889.81   31.40
   3   5   4  909.21   31.30
   3   5   4  917.01   37.60
   3   5   4  895.51   34.50
   3   5   4  892.61   33.70
   3   5   4  922.61   33.90
  -4  -5  -4   28.30    7.00
  -4  -5  -4   32.20    5.20
  -4  -5  -4   32.20    6.10
  -4  -5  -4   34.00   10.50
  -4  -5  -4   34.10    6.00
   4   5   4   30.20    5.10
   4   5   4   38.30    9.30
   4   5   4   40.10    6.30
   4   5   4   29.30    5.90
   4   5   4   33.20    7.20
  -5  -5  -4  153.38   12.70
  -5  -5  -4  130.39   14.50
  -5  -5  -4  126.69   10.10
  -5  -5  -4  130.29   17.80
  -5  -5  -4  131.69   12.50
   5   5   4  131.49    6.80
   5   5   4  105.49   15.30
   5   5   4  139.29   10.70
   5   5   4  152.88   12.90
   5   5   4  142.79   14.90
   5   5   4  141.09   11.90
  -6  -5  -4    0.60    5.90
  -6  -5  -4    2.20    7.90
  -6  -5  -4    8.50    6.70
  -6  -5  -4   -0.30    4.90
   6   5   4    3.50    5.00
   6   5   4    2.60    8.10
   6   5   4    5.00    2.90
   6   5   4   11.60    6.70
   6   5   4    5.90    6.40
  -7  -5  -4    4.70    7.90
  -7  -5  -4    0.50    9.20
  -7  -5  -4   -6.80    6.20
  -7  -5  -4    2.20    8.20
  -7  -5  -4    0.70    7.60
   7   5   4   -1.80    7.70
   7   5   4    4.90   10.00
   7   5   4    2.00    4.10
   7   5   4   -9.10    7.50
  -8  -5  -4   41.00   20.30
  -8  -5  -4   66.99   11.20
  -8  -5  -4   42.60   10.80
  -8  -5  -4   33.50   11.00
  -8  -5  -4   52.29   13.40
   8   5   4   56.39   11.90
   8   5   4   61.79   11.90
   5  -6  -4   18.80    6.80
   5  -6  -4    0.00    6.00
   5  -6  -4   19.10    5.70
   5  -6  -4   27.40    7.80
   5  -6  -4   19.30   11.20
  -5   6   4   25.20    7.50
  -5   6   4   12.60    9.40
  -5   6   4   12.60    8.10
  -5   6   4   15.00    6.80
   4  -6  -4  151.78   12.80
   4  -6  -4  210.58   13.90
   4  -6  -4  145.79   12.00
   4  -6  -4  174.38   13.10
   4  -6  -4  167.98    9.40
  -4   6   4  159.38   13.60
  -4   6   4  162.08   13.50
  -4   6   4  165.48   12.80
  -4   6   4  181.78   13.70
  -4   6   4  167.58   12.70
   3  -6  -4   24.20    7.20
   3  -6  -4   14.60    3.10
   3  -6  -4   21.30    5.40
   3  -6  -4   19.80    4.60
   3  -6  -4   17.70    5.50
  -3   6   4   28.40    6.70
  -3   6   4   21.50    5.30
  -3   6   4   17.50    4.80
  -3   6   4   18.10    6.50
   2  -6  -4   45.50    4.10
   2  -6  -4   61.39    9.70
   2  -6  -4   61.69    6.60
   2  -6  -4   73.19    7.90
  -2   6   4   36.50    7.70
  -2   6   4   51.39    6.20
  -2   6   4   58.99    7.20
  -2   6   4   47.30    8.30
  -2   6   4   58.19    7.90
   1  -6  -4    5.40    2.30
   1  -6  -4    7.20    6.90
   1  -6  -4    5.00    1.50
   1  -6  -4    2.70    3.30
  -1   6   4    1.00    4.50
  -1   6   4    6.80    2.00
  -1   6   4    3.50    3.50
  -1   6   4    2.90    4.20
  -1   6   4    4.50    2.60
   0  -6  -4   28.10    8.30
   0  -6  -4   22.60    3.40
   0  -6  -4   21.10    4.20
   0   6   4   23.30    4.40
   0   6   4   25.40    5.90
   0   6   4   21.40    3.40
   0   6   4   22.30    3.80
   0   6   4   24.20    4.80
  -1  -6  -4 1426.66   51.29
  -1  -6  -4 1462.15   50.39
  -1  -6  -4 1494.85   56.09
   1   6   4 1491.05   52.79
   1   6   4 1490.45   50.49
   1   6   4 1505.15   51.79
   1   6   4 1582.64   55.19
   1   6   4 1468.95   51.29
   1   6   4 1495.65   49.40
  -2  -6  -4 1219.98   43.00
  -2  -6  -4 1225.98   44.10
  -2  -6  -4 1224.88   48.40
   2   6   4 1263.87   47.30
   2   6   4 1209.68   44.30
   2   6   4 1235.08   43.20
   2   6   4 1189.08   43.90
  -3  -6  -4 1165.88   48.40
  -3  -6  -4 1178.98   44.00
  -3  -6  -4 1148.79   39.60
  -3  -6  -4 1148.99   42.50
   3   6   4 1224.68   47.20
   3   6   4 1223.78   43.10
   3   6   4 1153.48   39.60
   3   6   4 1150.28   42.70
   3   6   4 1166.38   43.80
  -4  -6  -4   15.60    6.50
  -4  -6  -4    7.60    9.50
  -4  -6  -4    9.60    3.80
  -4  -6  -4   20.70    5.40
  -4  -6  -4   18.00    6.00
   4   6   4    8.50    9.80
   4   6   4   14.90    5.80
   4   6   4   12.80    4.60
   4   6   4   13.30    6.50
   4   6   4   11.60    5.90
  -5  -6  -4   76.39   11.00
  -5  -6  -4   85.59   12.70
  -5  -6  -4   80.29    8.10
  -5  -6  -4   81.69   13.70
  -5  -6  -4   92.19   16.40
   5   6   4   91.39    9.60
   5   6   4   83.49    9.50
   5   6   4   69.19   11.20
   5   6   4   72.49   14.20
   5   6   4   79.59   11.00
  -6  -6  -4   -1.10    6.50
  -6  -6  -4    3.80    8.10
  -6  -6  -4    2.40    5.40
  -6  -6  -4    7.40   12.70
  -6  -6  -4   -1.20    5.50
   6   6   4    4.50    6.70
   6   6   4    2.90    5.60
   6   6   4   -6.80    7.60
   6   6   4   -3.10    6.10
  -7  -6  -4  443.86   29.20
  -7  -6  -4  423.76   23.10
  -7  -6  -4  392.96   25.40
  -7  -6  -4  417.76   23.40
   7   6   4  414.76   20.40
   7   6   4  445.26   23.90
   7   6   4  409.06   25.70
   7   6   4  458.05   30.00
  -8  -6  -4   -2.30   10.50
  -8  -6  -4   -2.20    9.90
  -8  -6  -4  -19.30    8.70
  -8  -6  -4   -0.80   10.10
  -8  -6  -4   -2.70    8.20
   8   6   4   -0.40    8.60
   8   6   4   -4.40    5.30
   8   6   4    8.40   12.30
   8   6   4   -1.10   10.40
   4  -7  -4   33.80    4.50
   4  -7  -4   30.50    6.90
   4  -7  -4   33.40    9.80
   4  -7  -4   31.70    6.30
   4  -7  -4   28.50    7.10
   4  -7  -4   20.50    6.50
  -4   7   4   24.60    7.00
  -4   7   4   26.30    7.60
  -4   7   4   27.00    7.20
  -4   7   4   31.70    7.60
   3  -7  -4  138.19   11.00
   3  -7  -4  160.48    7.10
   3  -7  -4  143.49   12.60
   3  -7  -4  152.38   12.50
   3  -7  -4  167.28   11.30
  -3   7   4  135.99   12.30
  -3   7   4  162.98   13.30
  -3   7   4  146.79   12.90
  -3   7   4  171.68   13.00
  -3   7   4  159.98   10.60
   2  -7  -4  637.94   28.70
   2  -7  -4  619.84   21.30
   2  -7  -4  610.94   25.30
   2  -7  -4  633.44   25.60
  -2   7   4  657.43   25.50
  -2   7   4  624.34   24.10
  -2   7   4  605.84   27.40
  -2   7   4  635.44   27.30
  -2   7   4  653.63   25.80
   1  -7  -4  155.38   10.70
   1  -7  -4  150.68   15.30
   1  -7  -4  140.69    9.00
  -1   7   4  153.58   10.50
  -1   7   4  130.39   10.80
  -1   7   4  144.89    9.40
  -1   7   4  129.29   12.10
  -1   7   4  148.09    7.10
   0  -7  -4   98.49    9.20
   0  -7  -4   84.79    6.80
   0  -7  -4  101.69   12.90
   0   7   4   97.39   10.10
   0   7   4  101.49    7.70
   0   7   4   89.69    7.80
   0   7   4   99.19    9.10
  -1  -7  -4   24.00    4.20
  -1  -7  -4   26.20    5.40
  -1  -7  -4   25.70    8.90
   1   7   4   25.60    4.40
   1   7   4   25.90    6.40
   1   7   4   21.40    5.20
   1   7   4   24.40    5.20
   1   7   4   29.20    4.40
  -2  -7  -4 1522.65   54.89
  -2  -7  -4 1557.94   53.59
  -2  -7  -4 1511.65   59.89
   2   7   4 1627.84   58.49
   2   7   4 1543.55   55.49
   2   7   4 1543.25   53.69
   2   7   4 1502.55   54.79
  -3  -7  -4  177.98   13.80
  -3  -7  -4  169.08   11.20
  -3  -7  -4  148.89   16.80
   3   7   4  150.68   12.70
   3   7   4  161.98   17.60
   3   7   4  160.48   12.50
   3   7   4  145.49    8.10
   3   7   4  135.99   13.60
  -4  -7  -4  277.37   18.70
  -4  -7  -4  242.78   12.90
  -4  -7  -4  323.47   16.70
  -4  -7  -4  283.77   23.00
   4   7   4  266.27   16.50
   4   7   4  293.17   19.20
   4   7   4  306.77   17.00
   4   7   4  274.27   13.90
   4   7   4  274.57   20.20
  -5  -7  -4   94.19   17.60
  -5  -7  -4   74.29   11.60
  -5  -7  -4   82.99    8.40
  -5  -7  -4   91.89   12.30
  -5  -7  -4   92.09   11.70
   5   7   4   94.79   11.80
   5   7   4   81.29   10.50
   5   7   4   89.99   12.30
   5   7   4   92.59   13.50
   5   7   4   73.79   11.80
  -6  -7  -4   90.29   14.00
  -6  -7  -4  102.29   17.00
  -6  -7  -4   64.79   18.50
  -6  -7  -4   88.19   11.20
  -6  -7  -4   88.49   13.50
   6   7   4  102.19   11.70
   6   7   4   77.39   13.30
   6   7   4   66.29   11.30
   6   7   4   86.39   11.80
  -7  -7  -4    8.50    8.10
  -7  -7  -4    9.00    7.10
  -7  -7  -4   24.30    9.20
   7   7   4   23.30    3.90
   7   7   4   38.50   14.70
   7   7   4   18.20    7.30
   7   7   4   18.60    9.80
   7   7   4   20.30   18.90
   7   7   4   12.90    8.50
   4  -8  -4   15.90    2.30
   4  -8  -4   18.50    5.90
   4  -8  -4   24.60    8.30
   4  -8  -4    3.70    7.00
   4  -8  -4   12.30    6.90
  -4   8   4   10.60    7.20
  -4   8   4   22.40    8.60
  -4   8   4   16.30    7.50
   3  -8  -4   11.20    6.40
   3  -8  -4    0.20    6.40
   3  -8  -4   22.80    7.20
   3  -8  -4   17.80    5.60
  -3   8   4    8.70    6.10
  -3   8   4   15.20    5.20
  -3   8   4   18.50    6.30
  -3   8   4   28.20    8.60
   2  -8  -4   42.50    9.00
   2  -8  -4   65.09   11.00
   2  -8  -4   59.29   12.30
   2  -8  -4   69.79    8.50
  -2   8   4   56.69    6.50
  -2   8   4   52.59    7.60
  -2   8   4   46.00    8.50
  -2   8   4   73.89   10.40
  -2   8   4   59.29    9.30
   1  -8  -4    5.10    5.10
   1  -8  -4   13.80    9.60
   1  -8  -4    6.50    3.40
  -1   8   4    3.10    4.90
  -1   8   4    2.70    2.00
  -1   8   4    6.80    4.30
  -1   8   4   -6.90    6.70
  -1   8   4    9.40    4.10
   0  -8  -4   14.60    5.50
   0  -8  -4   17.50    4.10
   0  -8  -4   15.70    9.70
   0   8   4   15.80    5.00
   0   8   4   20.30    6.30
   0   8   4   26.10    6.10
   0   8   4   16.60    4.40
  -1  -8  -4    1.60    8.70
  -1  -8  -4   -3.60    3.00
  -1  -8  -4    0.00    5.10
   1   8   4    1.30    3.70
   1   8   4    0.30    2.30
   1   8   4    3.00    6.00
   1   8   4   -2.60    3.80
   1   8   4   -9.00    4.60
  -2  -8  -4  191.48   12.20
  -2  -8  -4  190.18   18.50
  -2  -8  -4  182.48   15.10
   2   8   4  219.58   16.40
   2   8   4  204.58   13.10
   2   8   4  189.48   14.90
   2   8   4  216.88   15.00
   2   8   4  213.78   10.50
  -3  -8  -4  104.19   16.70
  -4  -8  -4  279.37   24.10
  -4  -8  -4  327.47   18.10
  -4  -8  -4  335.87   20.90
   4   8   4  267.87   14.50
   4   8   4  320.37   21.00
   4   8   4  295.37   18.90
   4   8   4  342.97   22.90
   4   8   4  310.57   18.10
  -5  -8  -4    3.80    7.20
  -5  -8  -4   -0.60   12.60
  -5  -8  -4   -2.10    5.90
  -5  -8  -4    1.70    7.70
   5   8   4    6.90    5.80
   5   8   4    1.90    9.60
   5   8   4    2.60    8.00
   5   8   4    3.80    7.50
   5   8   4   10.70    6.90
  -6  -8  -4   34.00   11.60
  -6  -8  -4   46.80   17.60
  -6  -8  -4   30.10    8.70
  -6  -8  -4   39.80    6.90
  -6  -8  -4   34.60    8.80
   6   8   4   25.30   12.90
   6   8   4   40.60    9.00
   6   8   4   25.40    9.10
   6   8   4   35.70   12.10
   6   8   4   47.80    9.00
  -7  -8  -4   83.19   14.40
  -7  -8  -4   53.89   11.10
  -7  -8  -4   53.19   11.70
  -7  -8  -4   97.69   11.90
  -7  -8  -4   83.29   21.10
   7   8   4   79.19   12.20
   7   8   4   58.79   12.00
   7   8   4   74.19   15.30
   7   8   4   73.49   18.10
   7   8   4   80.59   12.50
   3  -9  -4    4.90    9.10
   3  -9  -4   -2.80    6.60
   3  -9  -4    0.50    5.50
   3  -9  -4   -3.90   12.00
  -3   9   4    5.30    6.80
  -3   9   4    3.30    6.60
  -3   9   4    3.90    8.00
  -3   9   4   13.20    7.50
  -3   9   4   -3.10    5.00
   2  -9  -4    2.10    4.40
   2  -9  -4   -3.80   13.50
   2  -9  -4  -11.60    6.10
   2  -9  -4    1.30    7.10
  -2   9   4   -0.80    5.10
  -2   9   4   -6.10    3.10
  -2   9   4   -6.80    6.20
  -2   9   4    1.40    7.40
   1  -9  -4  251.47   22.00
   1  -9  -4  203.58   12.60
   1  -9  -4  215.28   15.60
  -1   9   4  188.28    8.60
  -1   9   4  228.28   15.80
  -1   9   4  181.88   17.00
  -1   9   4  206.98   13.70
  -1   9   4  231.38   15.30
   0  -9  -4  151.68   18.30
   0  -9  -4  162.88   14.30
   0  -9  -4  143.79   10.80
   0   9   4  180.08   14.30
   0   9   4  175.98   13.10
   0   9   4  176.08   12.00
   0   9   4  166.28   15.00
  -1  -9  -4   -1.90    5.60
  -1  -9  -4   -6.00    3.30
  -1  -9  -4    4.20    9.90
   1   9   4    1.90    2.50
   1   9   4   -2.10    5.00
   1   9   4   -9.00    4.10
   1   9   4    5.00    5.90
   1   9   4    4.20    5.30
  -2  -9  -4  216.78   20.80
  -2  -9  -4  203.58   13.20
  -2  -9  -4  186.68   16.30
   2   9   4  237.58   11.20
   2   9   4  226.28   18.40
   2   9   4  200.38   13.50
   2   9   4  219.18   15.90
   2   9   4  223.88   16.90
  -3  -9  -4   44.20    9.20
  -3  -9  -4   33.30    6.50
  -3  -9  -4   48.30    5.30
  -3  -9  -4   32.90   12.80
   3   9   4   39.20    9.10
   3   9   4   36.40    9.90
   3   9   4   76.39   12.30
   3   9   4   31.80   10.80
  -4  -9  -4  752.62   34.30
  -4  -9  -4  636.94   33.00
  -4  -9  -4  702.53   39.40
   4   9   4  699.53   27.10
   4   9   4  747.93   33.00
   4   9   4  731.93   34.40
   4   9   4  742.03   36.60
  -5  -9  -4  206.18   20.20
  -5  -9  -4  223.98   22.90
  -5  -9  -4  201.88   16.20
   5   9   4  188.78   21.30
   5   9   4  209.58   16.90
   5   9   4  171.38   16.40
   5   9   4  187.18   13.70
   5   9   4  174.08   20.30
  -6  -9  -4    6.90   16.40
  -6  -9  -4    3.10    7.80
  -6  -9  -4   -9.00    8.80
  -6  -9  -4  -10.90    7.40
   6   9   4    5.10    7.70
   6   9   4   -0.90   10.40
   6   9   4   -7.90    6.60
   6   9   4  -15.80    8.20
  -7  -9  -4    7.90    6.50
  -7  -9  -4  -12.20   16.20
  -7  -9  -4    2.60    8.60
  -7  -9  -4    4.90    9.30
  -7  -9  -4   -8.70   10.30
   7   9   4    2.60    8.20
   7   9   4  -12.60    7.70
   7   9   4   -9.30   14.50
   7   9   4   -0.40   11.00
   2 -10  -4    6.00    7.50
   2 -10  -4    6.50   11.90
   2 -10  -4    2.00    7.70
   2 -10  -4   -0.80    5.60
  -2  10   4   13.00    6.90
  -2  10   4    6.80    8.90
  -2  10   4    8.30    3.60
  -2  10   4   13.30    7.90
  -2  10   4    0.80    7.60
   1 -10  -4  209.98   20.50
   1 -10  -4  215.68   19.80
   1 -10  -4  240.28   14.30
  -1  10   4  211.98   14.40
  -1  10   4  198.48    8.20
  -1  10   4  210.88   18.50
  -1  10   4  248.58   17.70
   0 -10  -4   29.80    8.20
   0 -10  -4   34.30   13.80
   0 -10  -4   32.00    5.80
   0  10   4   34.10    7.60
   0  10   4   36.80   10.30
   0  10   4   35.80    9.00
  -1 -10  -4   14.10   12.80
  -1 -10  -4    9.60    4.50
  -1 -10  -4    8.10    7.00
   1  10   4    9.00    7.80
   1  10   4   14.60    8.60
   1  10   4    8.40    5.50
   1  10   4    2.80    5.60
   1  10   4   13.50    2.50
  -2 -10  -4   -6.50    4.50
  -2 -10  -4   -9.00    6.70
  -2 -10  -4   -2.90   11.40
   2  10   4    0.50    3.30
   2  10   4  -12.30    7.20
   2  10   4  -11.00    6.70
   2  10   4    7.10    7.90
  -3 -10  -4   81.09    7.60
  -3 -10  -4   87.39   12.70
  -3 -10  -4  102.59   19.60
   3  10   4   91.69   16.30
   3  10   4  123.89   12.70
   3  10   4  100.59   13.50
   3  10   4  103.99    6.10
  -4 -10  -4   14.50    8.80
  -4 -10  -4   12.10    6.40
  -4 -10  -4   30.10   15.30
   4  10   4    3.10   12.30
   4  10   4   13.10    9.40
   4  10   4   -2.20    6.70
   4  10   4    5.90    4.60
  -5 -10  -4   86.99   14.10
  -5 -10  -4  109.39   22.60
  -5 -10  -4  119.79   18.50
   5  10   4  115.09   19.00
   5  10   4  117.69   16.60
   5  10   4   80.89   13.90
   5  10   4  103.69   12.00
   5  10   4  104.29   14.80
  -6 -10  -4    1.10    9.10
  -6 -10  -4   27.70   16.20
  -6 -10  -4   28.80   10.80
  -6 -10  -4   14.10    9.80
   6  10   4   12.50   13.10
   6  10   4   20.30    9.90
   6  10   4   21.60    8.40
   6  10   4    2.10    9.70
   1 -11  -4   16.40   14.60
   1 -11  -4   26.60    6.50
   1 -11  -4   14.80    8.00
  -1  11   4   16.90    8.60
  -1  11   4   14.70    9.10
  -1  11   4   12.20    6.50
   0 -11  -4   56.09   10.30
   0 -11  -4   66.39    9.90
   0 -11  -4   96.99   20.00
   0  11   4   78.79   12.20
   0  11   4   89.39   13.50
   0  11   4   53.89   11.20
  -1 -11  -4   53.29   11.90
  -1 -11  -4   51.99   15.90
  -1 -11  -4   46.10    7.90
   1  11   4   44.70   11.60
   1  11   4   58.79    9.00
   1  11   4   59.39   11.40
  -2 -11  -4   -4.40    6.00
  -2 -11  -4   -3.80    9.40
   2  11   4    0.70    8.80
   2  11   4   -4.60    3.10
   2  11   4    2.00    9.30
  -3 -11  -4   -7.20    8.50
  -3 -11  -4  -11.10    5.90
  -3 -11  -4   -4.90    4.00
   3  11   4   -1.50    9.40
   3  11   4   -1.50    6.80
  -4 -11  -4   -2.90    6.80
  -4 -11  -4    3.70   12.80
  -4 -11  -4    1.00    3.80
  -4 -11  -4   -1.80    8.30
   4  11   4   -8.90    9.70
   4  11   4    7.80   10.10
   4  11   4   -4.00    9.00
   4  11   4   -1.30   12.40
   4  11   4   -0.40    4.20
  -5 -11  -4   54.29   18.60
  -5 -11  -4   45.80   10.40
  -5 -11  -4   43.40   12.30
   5  11   4   83.19   17.30
   5  11   4   51.69   12.10
   5  11   4   47.10   13.20
   5  11   4   33.00   10.10
   5  11   4   49.10    8.10
   0 -12  -4   -3.30    8.20
   0 -12  -4   10.40   14.40
   0 -12  -4    6.10    6.60
   0  12   4   11.60   10.30
   0  12   4   25.50   10.90
  -1 -12  -4   51.79    8.70
  -1 -12  -4   62.29   11.50
  -1 -12  -4   65.89   17.70
   1  12   4   83.09   13.40
   1  12   4   41.00   12.50
   1  12   4   49.20    9.50
  -2 -12  -4   20.00    7.30
  -2 -12  -4   13.80   15.00
  -2 -12  -4   27.10   10.00
   2  12   4   28.90    4.20
   2  12   4   35.00   11.30
   2  12   4   39.30   11.10
   2  12   4    6.00    7.70
  -3 -12  -4   16.00   14.90
  -3 -12  -4   19.30   10.10
  -3 -12  -4    2.60    5.40
  -3 -12  -4    0.60    7.10
   3  12   4   13.20    9.30
   3  12   4   14.90    5.30
   3  12   4    4.00   10.80
   3  12   4    6.30    8.70
  -4 -12  -4   13.90    9.60
  -4 -12  -4    8.00   14.40
  -4 -12  -4    1.70    3.50
  -4 -12  -4  -16.70    7.60
   4  12   4  -12.10   10.70
   4  12   4    5.60    4.20
   4  12   4   -5.70   10.20
   4  12   4   -1.00   13.10
   2  10  -5   22.60    7.30
   2  10  -5   27.90   10.50
   2  10  -5    8.50   10.20
   2  10  -5    5.30    9.00
  -2 -10   5   50.99   11.80
  -2 -10   5   36.30   13.80
   1  10  -5    0.50    8.30
   1  10  -5    0.30    9.10
   1  10  -5    2.20    5.40
  -1 -10   5    6.80    9.40
  -1 -10   5    1.30   11.20
  -1 -10   5   24.70   11.90
  -1 -10   5    9.70   10.40
   0  10  -5   11.00   10.20
   0  10  -5   18.10    4.70
   0  10  -5    5.70    9.00
   0 -10   5    6.30   10.20
   0 -10   5    6.20    9.80
   0 -10   5    4.70   11.00
   0 -10   5   10.30    9.70
   0 -10   5   15.90   11.70
  -1  10  -5    4.10    8.90
  -1  10  -5   -7.90    8.60
   1 -10   5   -2.30   10.50
   1 -10   5   -3.10   10.60
   4   9  -5   -9.40    7.70
   4   9  -5  -19.60    9.90
   4   9  -5   -2.40   10.60
  -4  -9   5    8.40   10.60
  -4  -9   5  -15.20   11.50
   3   9  -5    3.50    8.00
   3   9  -5   21.70   10.20
   3   9  -5   -2.00    8.70
  -3  -9   5    4.30    8.20
  -3  -9   5   21.70   13.00
  -3  -9   5   22.80    6.70
  -3  -9   5   11.20   11.30
   2   9  -5   -2.20    7.30
   2   9  -5    2.80    6.10
   2   9  -5   22.60    9.40
  -2  -9   5    4.60    7.30
  -2  -9   5   15.70   10.30
  -2  -9   5   15.40   10.30
  -2  -9   5   15.70   11.00
  -2  -9   5    7.50    7.40
   1   9  -5    3.80    6.90
   1   9  -5   -1.10    5.00
   1   9  -5   11.30    8.90
  -1  -9   5   15.30   10.10
  -1  -9   5   12.70    7.20
  -1  -9   5    6.10    9.40
  -1  -9   5   -6.90    7.10
  -1  -9   5   23.60   10.30
   0   9  -5   16.90    9.40
   0   9  -5    5.30    4.00
   0   9  -5   14.10    7.80
   0  -9   5   22.20   10.70
   0  -9   5   11.30    7.50
   0  -9   5    5.90    9.60
  -1   9  -5    4.20    7.70
  -1   9  -5   -0.80    3.00
  -1   9  -5   -0.40    8.80
   1  -9   5    6.30    9.80
   1  -9   5   -2.20   18.70
   1  -9   5   -0.60    7.30
  -2   9  -5   18.70    8.90
  -2   9  -5   12.50    4.40
  -2   9  -5   10.00    9.20
  -2   9  -5    3.90    7.00
   2  -9   5    3.40   10.40
   2  -9   5   12.50    9.90
   2  -9   5   12.50   11.30
   2  -9   5   20.50    9.30
   4   8  -5   21.10    9.90
   4   8  -5   -7.90    7.30
   4   8  -5   10.90    9.20
  -4  -8   5   13.20   10.90
  -4  -8   5    4.30    4.60
  -4  -8   5    4.60   11.20
   3   8  -5    4.20    8.60
   3   8  -5    1.00    6.60
   3   8  -5    4.50    5.60
   3   8  -5   17.00    8.60
  -3  -8   5    8.10    5.80
  -3  -8   5    6.70    9.40
  -3  -8   5   21.50   11.10
  -3  -8   5   20.30   10.20
   2   8  -5   78.89   12.50
   2   8  -5   82.29   15.40
   2   8  -5   94.59   11.90
  -2  -8   5  103.79   12.60
  -2  -8   5   89.09   15.20
  -2  -8   5   88.59   13.10
  -2  -8   5   71.19   12.20
   1   8  -5   10.50    6.40
   1   8  -5   20.10    8.50
  -1  -8   5   13.40    8.00
  -1  -8   5   22.40    9.00
  -1  -8   5    9.80    7.20
  -1  -8   5   21.50    9.40
   0   8  -5    5.10    3.60
   0   8  -5   13.50    8.00
   0   8  -5   21.90    7.20
   0  -8   5    8.10    8.30
   0  -8   5   18.90    8.60
   0  -8   5    6.70    8.70
   0  -8   5    5.80    7.20
   0  -8   5    7.80    6.70
  -1   8  -5   53.39    9.00
  -1   8  -5   59.99    6.10
  -1   8  -5   36.70    9.30
   1  -8   5   50.19   10.30
   1  -8   5   55.49   11.20
   1  -8   5   43.00    8.90
  -2   8  -5   -4.40    3.10
  -2   8  -5    2.00    8.30
  -2   8  -5   10.90    7.50
   2  -8   5  -11.90    7.90
   2  -8   5    4.90    8.90
   2  -8   5    1.30    7.80
   2  -8   5   -8.30    6.90
  -3   8  -5   19.00    8.80
  -3   8  -5   19.00    4.60
  -3   8  -5   13.20    9.40
  -3   8  -5   21.50    9.30
   3  -8   5    9.40    9.70
   3  -8   5   22.00   11.40
   3  -8   5   10.00    6.00
   3  -8   5   16.80   10.10
   3  -8   5   24.30    9.80
  -4   8  -5  252.37   21.80
  -4   8  -5  190.48   18.50
  -4   8  -5  235.28   13.80
   4  -8   5  247.68   22.80
   4  -8   5  253.87   22.60
   5   7  -5   33.20   10.80
   5   7  -5   18.40    8.30
   5   7  -5   52.29   12.80
  -5  -7   5   39.50    3.00
  -5  -7   5   13.90    8.50
  -5  -7   5   33.30   12.00
  -5  -7   5   30.40   11.90
   4   7  -5   55.09   11.60
   4   7  -5   43.60    8.30
   4   7  -5   51.09   10.50
  -4  -7   5   58.79    9.60
  -4  -7   5   51.29   11.20
  -4  -7   5   51.49   11.50
  -4  -7   5   40.30   11.60
   3   7  -5    7.90    5.20
   3   7  -5    2.40    7.30
   3   7  -5    3.90    6.70
   3   7  -5    5.60    7.90
  -3  -7   5   11.80    4.60
  -3  -7   5   10.70    8.60
  -3  -7   5    5.60    8.90
   2   7  -5   12.40    7.80
  -2  -7   5   10.00    4.80
  -2  -7   5   20.70    9.30
  -2  -7   5   -0.50    7.90
  -2  -7   5   10.70    8.30
   1   7  -5   22.30    6.10
   1   7  -5   25.20   10.00
   1   7  -5   33.30    8.10
  -1  -7   5   32.00    8.90
  -1  -7   5   29.20    9.20
  -1  -7   5   20.70    8.10
  -1  -7   5   32.50    9.10
   0   7  -5   32.00    7.90
   0   7  -5   18.60    6.20
   0   7  -5   20.30    4.50
   0  -7   5   22.50    8.30
   0  -7   5   20.30    6.60
   0  -7   5   22.50    9.10
   0  -7   5   13.10    5.90
   0  -7   5   33.90    8.90
  -1   7  -5   76.19   12.70
  -1   7  -5   84.79    7.10
  -1   7  -5   94.69   11.70
   1  -7   5   76.59   12.50
   1  -7   5   80.89   12.20
   1  -7   5   82.69   14.20
   1  -7   5   84.19   11.60
  -2   7  -5    0.60    2.70
  -2   7  -5   -4.90    5.80
  -2   7  -5   -6.40    6.40
   2  -7   5   -8.30    6.90
   2  -7   5    3.00    6.20
   2  -7   5    2.00    7.60
  -3   7  -5   -8.20    6.60
  -3   7  -5    3.30    3.50
  -3   7  -5   -0.80    5.90
  -3   7  -5    5.30    7.00
   3  -7   5   -1.80    7.70
   3  -7   5   10.00    7.40
   3  -7   5   -5.20    3.70
  -4   7  -5   16.40    8.80
  -4   7  -5   14.70    4.60
  -4   7  -5   27.50    8.50
   4  -7   5    7.30    9.40
   4  -7   5   -3.00    5.10
   4  -7   5   -1.00    8.50
   4  -7   5    3.20    8.70
   5   6  -5   11.30    7.10
   5   6  -5   21.50    9.80
   5   6  -5   18.70    9.10
   5   6  -5   17.20    7.80
   5   6  -5    4.40    9.80
  -5  -6   5   23.40    6.50
  -5  -6   5   14.50   11.10
  -5  -6   5    6.70    9.70
  -5  -6   5    6.40    7.00
   4   6  -5   20.00    7.90
   4   6  -5    6.90    5.70
   4   6  -5   24.70    8.00
   4   6  -5   20.70    8.90
   4   6  -5   16.30    9.70
  -4  -6   5   24.20    9.80
  -4  -6   5   19.10    3.20
  -4  -6   5   18.70    9.20
  -4  -6   5   28.10   11.00
   3   6  -5   -7.80    4.40
   3   6  -5   -8.50    6.90
   3   6  -5   -4.00    6.40
   3   6  -5   -5.00    4.50
  -3  -6   5   -5.90    7.00
  -3  -6   5   -9.60    6.60
  -3  -6   5    2.90    3.20
  -3  -6   5   -7.70    4.90
   2   6  -5   46.40    8.50
   2   6  -5   53.49    6.70
   2   6  -5   47.10    7.30
  -2  -6   5   67.79    8.20
  -2  -6   5   33.90    8.90
  -2  -6   5   38.00    9.80
  -2  -6   5   31.60    8.30
  -2  -6   5   39.30    6.80
   1   6  -5  188.88   14.50
   1   6  -5  203.68   13.30
   1   6  -5  183.28   12.20
  -1  -6   5  191.78   16.00
  -1  -6   5  194.08   15.50
  -1  -6   5  164.48   13.50
  -1  -6   5  192.18   13.10
  -1  -6   5  192.08   12.60
   0   6  -5 1615.74   56.99
   0   6  -5 1651.33   57.69
   0   6  -5 1609.34   55.19
   0  -6   5 1622.44   58.19
   0  -6   5 1603.94   58.79
   0  -6   5 1477.95   56.19
   0  -6   5 1612.84   58.49
   0  -6   5 1584.84   56.89
  -1   6  -5  102.99    7.70
  -1   6  -5   86.39   12.10
   1  -6   5  102.09   11.50
   1  -6   5  102.99   13.50
   1  -6   5  100.29   12.00
   1  -6   5   74.99   10.20
  -2   6  -5   14.50    7.00
  -2   6  -5   10.70    6.20
  -2   6  -5   13.00    3.10
   2  -6   5   12.10    6.50
   2  -6   5   10.10    7.20
   2  -6   5   10.60    7.00
  -3   6  -5    1.60    3.40
  -3   6  -5   -9.20    6.00
  -3   6  -5   -7.80    5.30
  -3   6  -5    5.50    6.40
   3  -6   5   15.10    7.10
   3  -6   5   -2.10    3.10
   3  -6   5    2.60    7.10
  -4   6  -5   74.39    8.40
  -4   6  -5   52.59   10.60
  -4   6  -5   89.59   14.60
   4  -6   5   58.59   11.10
   4  -6   5   51.59    8.20
   4  -6   5   63.39   11.20
   4  -6   5   66.79    8.00
   4  -6   5   53.89   10.30
  -5   6  -5  129.29   18.20
  -5   6  -5   91.99   16.00
  -5   6  -5  113.69   11.50
  -5   6  -5  133.39   16.00
   5  -6   5   81.79   10.90
   5  -6   5  121.69   10.60
   5  -6   5  137.09   18.70
   5  -6   5  135.79   18.00
   5  -6   5  108.89   18.30
   6   5  -5   24.60   11.80
   6   5  -5  -10.20    8.90
   6   5  -5   -1.60    9.50
  -6  -5   5  -10.60    7.00
  -6  -5   5    9.20    7.10
  -6  -5   5    8.10   11.20
  -6  -5   5   11.50   11.40
   5   5  -5  475.05   40.20
   5   5  -5  604.94   31.10
   5   5  -5  583.64   26.90
   5   5  -5  606.64   30.20
  -5  -5   5  625.34   31.60
  -5  -5   5  539.85   36.00
  -5  -5   5  541.45   26.40
  -5  -5   5  606.94   27.30
   4   5  -5   51.19    7.60
   4   5  -5   53.99   10.00
   4   5  -5   62.39   11.10
   4   5  -5   60.29    9.60
   4   5  -5   76.19   10.40
  -4  -5   5   67.99    3.30
  -4  -5   5   58.49   10.90
  -4  -5   5   42.90    7.70
  -4  -5   5   68.69   11.10
  -4  -5   5   56.69    8.00
  -4  -5   5   63.69   12.10
   3   5  -5   61.39    9.40
   3   5  -5   74.09    8.60
   3   5  -5   47.00    8.10
   3   5  -5   70.89   10.20
   3   5  -5   60.09    9.00
  -3  -5   5   56.09   10.30
  -3  -5   5   54.39    8.60
  -3  -5   5   55.19   10.00
  -3  -5   5   62.69    5.70
  -3  -5   5   54.09    9.60
   2   5  -5   36.70    7.20
   2   5  -5   42.20    7.30
   2   5  -5   45.70    5.80
  -2  -5   5   38.90    7.90
  -2  -5   5   38.70    6.10
  -2  -5   5   43.40    9.10
  -2  -5   5   51.39    6.70
  -1  -5   5   17.40    6.80
  -1  -5   5   11.80    5.20
   0   5  -5   88.49    8.80
   0   5  -5   71.59    7.70
   0  -5   5  102.99   11.70
   0  -5   5   62.99    7.90
   0  -5   5   85.19    9.70
  -1   5  -5   12.70    3.30
  -1   5  -5   16.50    4.90
  -1   5  -5   10.30    5.30
   1  -5   5   19.70    5.50
   1  -5   5   11.10    5.90
   1  -5   5   17.60    5.80
   1  -5   5   11.40    5.00
  -2   5  -5  127.29    7.00
  -2   5  -5  124.69   11.80
  -2   5  -5  129.09    8.40
  -2   5  -5  135.79   12.40
   2  -5   5  104.59   11.70
   2  -5   5  137.89   13.30
   2  -5   5  129.89   12.60
  -3   5  -5   -4.00    5.00
  -3   5  -5    3.50    6.40
  -3   5  -5    7.20    3.20
  -3   5  -5    2.80    5.30
   3  -5   5   -0.40    6.20
   3  -5   5    5.40    4.10
   3  -5   5   -0.30    6.20
   3  -5   5    1.80    6.20
  -4   5  -5   -1.90    6.80
  -4   5  -5   -0.50    3.90
  -4   5  -5   -2.80    5.50
  -4   5  -5    1.90    6.70
   4  -5   5    7.60    6.80
   4  -5   5   -8.20    4.00
   4  -5   5    1.40    6.90
   4  -5   5    3.00    5.10
   4  -5   5    2.10    3.00
  -5   5  -5   80.89    9.30
  -5   5  -5   59.69   10.50
  -5   5  -5   67.99   11.70
  -5   5  -5  118.09   16.20
   5  -5   5  102.99   15.70
   5  -5   5   76.09    9.30
   5  -5   5   72.49    9.00
   5  -5   5   56.89   10.30
  -6   5  -5  183.28   19.30
  -6   5  -5  210.88   21.10
  -6   5  -5  188.68   13.80
   6  -5   5  159.98   14.20
   6  -5   5  210.68   22.40
   6  -5   5  187.98   14.00
   6  -5   5  192.78   19.50
   6  -5   5  131.69   19.50
   6   4  -5  -15.40    8.60
   6   4  -5   10.10    9.80
   6   4  -5   -1.90   11.90
   6   4  -5  -11.50    6.20
  -6  -4   5    8.50    8.10
  -6  -4   5  -11.60    6.00
  -6  -4   5    5.30    6.60
  -6  -4   5    5.20    9.90
   5   4  -5  150.78   16.20
   5   4  -5  154.48   16.80
   5   4  -5  113.49   11.40
  -5  -4   5  133.29   18.00
  -5  -4   5  152.48   18.90
  -5  -4   5  150.18   13.40
   4   4  -5    7.70    6.30
   4   4  -5   -5.50    5.40
   4   4  -5   -3.60    6.60
   4   4  -5   -7.30    7.70
  -4  -4   5   -9.30    5.00
  -4  -4   5   -2.10    4.50
  -4  -4   5   -6.10    6.50
  -4  -4   5    2.40    8.90
   3   4  -5  254.37   13.80
   3   4  -5  236.78   15.80
   3   4  -5  210.48   15.30
   3   4  -5  233.18   14.20
   3   4  -5  263.67   16.70
  -3  -4   5  246.18   13.20
  -3  -4   5  244.28   16.50
  -3  -4   5  226.68   12.80
  -3  -4   5  242.98   16.10
  -3  -4   5  232.38   16.80
  -3  -4   5  229.98    9.90
   2   4  -5   -5.30    3.00
   2   4  -5    3.60    4.10
   2   4  -5   -3.30    2.80
   2   4  -5   -7.10    4.20
   2   4  -5   -3.50    4.00
  -2  -4   5    0.50    5.10
  -2  -4   5   -1.40    4.70
  -2  -4   5   -1.30    2.40
  -2  -4   5   -3.10    5.10
  -2  -4   5   -3.30    3.60
   1   4  -5  116.09    9.90
   1   4  -5   96.79    8.10
   1   4  -5  100.69    7.90
  -1  -4   5  101.49   11.50
  -1  -4   5   80.69    7.90
  -1  -4   5  109.89   10.30
  -1  -4   5  100.29    7.70
  -1  -4   5  116.29    8.30
   0   4  -5 1473.15   51.29
   0   4  -5 1507.05   51.79
   0   4  -5 1475.55   50.99
   0  -4   5 1342.17   49.60
   0  -4   5 1493.15   51.49
   0  -4   5 1530.25   52.09
   0  -4   5 1571.54   53.99
   0  -4   5 1506.15   52.39
   0  -4   5 1439.36   47.20
  -1   4  -5  127.49   10.80
  -1   4  -5  178.58   11.80
   1  -4   5  185.68   12.20
  -2   4  -5  720.93   29.70
  -2   4  -5  734.83   29.50
  -2   4  -5  724.63   27.00
  -2   4  -5  730.53   26.40
  -2   4  -5  739.83   29.50
   2  -4   5  765.32   29.60
   2  -4   5  704.03   29.80
   2  -4   5  755.02   27.60
   2  -4   5  721.33   30.50
  -3   4  -5   29.80    6.90
  -3   4  -5   32.30    7.80
  -3   4  -5   15.90    6.60
  -3   4  -5   20.50    5.70
   3  -4   5   24.60    6.70
   3  -4   5   29.70    6.80
   3  -4   5   15.90    6.60
   3  -4   5   22.30    4.70
  -4   4  -5   10.60    7.00
  -4   4  -5   14.30    4.70
  -4   4  -5    3.80    5.80
  -4   4  -5   18.10    6.60
  -4   4  -5   16.10    6.50
   4  -4   5   26.40    7.30
   4  -4   5   17.50    3.40
   4  -4   5   12.00    6.70
   4  -4   5   10.40    4.60
   4  -4   5   30.20    7.30
  -5   4  -5   49.60   10.20
  -5   4  -5   90.39   15.10
  -5   4  -5   45.90    8.00
   5  -4   5   48.20   10.40
   5  -4   5   74.79    7.70
   5  -4   5   93.89   14.90
   5  -4   5   61.49    9.20
  -6   4  -5  299.27   19.00
  -6   4  -5  372.76   27.40
  -6   4  -5  315.27   21.70
   6  -4   5  351.96   18.10
   6  -4   5  342.07   25.70
   6  -4   5  325.87   23.70
   6  -4   5  391.86   24.70
   6   3  -5   85.39   13.50
   6   3  -5  101.09   19.40
   6   3  -5   76.49   11.30
   6   3  -5   62.49   12.80
   6   3  -5   95.69   16.20
  -6  -3   5   78.19   11.20
  -6  -3   5   83.29   13.40
  -6  -3   5  103.59   13.30
  -6  -3   5   94.59   13.50
   5   3  -5  156.18   16.90
   5   3  -5  161.38   12.20
   5   3  -5  147.69   16.60
  -5  -3   5  178.18   14.20
  -5  -3   5  179.78   17.20
  -5  -3   5  142.19   12.60
  -5  -3   5  178.48   16.70
   4   3  -5   27.00    9.20
   4   3  -5   33.70    8.10
   4   3  -5   49.50    9.80
   4   3  -5   38.00    8.40
   4   3  -5   34.80    5.90
  -4  -3   5   23.40    6.40
  -4  -3   5   33.60    7.90
  -4  -3   5   25.70    5.40
  -4  -3   5   35.30    8.80
   3   3  -5  532.95   24.80
   3   3  -5  539.45   25.20
   3   3  -5  539.85   24.30
   3   3  -5  536.35   22.10
   3   3  -5  509.05   23.40
  -3  -3   5  529.55   22.00
  -3  -3   5  523.15   22.80
  -3  -3   5  525.75   25.40
  -3  -3   5  526.15   25.90
  -3  -3   5  535.05   23.80
   2   3  -5   21.20    5.40
   2   3  -5   22.60    4.60
   2   3  -5   17.30    3.90
   2   3  -5   20.80    5.20
   2   3  -5   17.50    4.80
  -2  -3   5   31.50    7.10
  -2  -3   5   19.40    4.00
  -2  -3   5   16.90    5.30
  -2  -3   5   18.30    2.90
  -2  -3   5   16.00    6.50
  -2  -3   5   29.80    4.40
   1   3  -5  146.99    8.50
   1   3  -5  139.79    6.30
   1   3  -5  139.29    9.80
   1   3  -5  141.09    9.30
  -1  -3   5  120.19   10.30
  -1  -3   5  143.19   10.10
  -1  -3   5  135.99   10.20
  -1  -3   5  140.99    8.40
  -1  -3   5  150.48    8.70
  -1  -3   5  146.89    6.60
   0   3  -5  198.08   10.50
   0   3  -5  206.28   11.10
   0   3  -5  186.48   10.50
   0   3  -5  207.38   11.20
   0  -3   5  213.18   11.50
   0  -3   5  200.78   12.40
   0  -3   5  211.98   11.90
   0  -3   5  212.68   10.70
  -1   3  -5 4599.24  149.69
  -1   3  -5 4498.85  149.69
  -1   3  -5 4540.95  150.38
  -1   3  -5 4677.13  149.09
   1  -3   5 4727.03  151.18
   1  -3   5 4708.03  150.18
   1  -3   5 4605.84  149.49
   1  -3   5 4667.73  149.69
  -2   3  -5   33.30    5.80
  -2   3  -5   26.50    4.10
  -2   3  -5   37.10    5.80
  -2   3  -5   44.80    4.10
  -2   3  -5   35.30    6.20
   2  -3   5   22.80    5.60
   2  -3   5   31.30    4.70
   2  -3   5   38.60    6.50
   2  -3   5   37.40    6.10
  -3   3  -5  492.75   21.60
  -3   3  -5  493.05   22.30
  -3   3  -5  504.25   19.60
  -3   3  -5  492.45   22.60
  -3   3  -5  470.05   21.80
   3  -3   5  505.65   20.00
   3  -3   5  466.45   17.40
   3  -3   5  476.25   23.50
   3  -3   5  509.55   22.40
   3  -3   5  465.55   22.70
  -4   3  -5    2.10    3.50
  -4   3  -5    2.00    5.90
  -4   3  -5   -5.90    4.00
  -4   3  -5    3.00    5.80
  -4   3  -5    0.20    5.30
   4  -3   5    5.60    3.80
   4  -3   5   -5.30    5.20
   4  -3   5    6.40    2.40
   4  -3   5    4.70    5.20
   4  -3   5   -0.80    5.90
  -5   3  -5    6.80    5.30
  -5   3  -5   -6.30    6.10
  -5   3  -5    0.80    5.40
  -5   3  -5    7.50    6.60
  -5   3  -5   10.30    6.70
   5  -3   5    9.00    7.20
   5  -3   5    6.60    5.50
   5  -3   5    3.90    6.80
  -6   3  -5   12.60    6.20
  -6   3  -5   11.80    8.70
  -6   3  -5   23.00    9.50
  -6   3  -5    6.70    7.40
   6  -3   5    6.80    7.10
   6  -3   5   17.20    5.60
  -7   3  -5   -3.10    6.40
  -7   3  -5   -8.90    8.40
  -7   3  -5    9.50   10.20
  -7   3  -5    4.80    4.40
   7  -3   5   29.80   17.60
   7  -3   5   13.20   11.00
   7  -3   5   14.70    9.30
   7  -3   5   -2.70    6.00
   7  -3   5    5.40    9.30
   6   2  -5   44.20   13.90
   6   2  -5   34.20    9.90
   6   2  -5   25.00   10.60
   6   2  -5   22.00    9.80
   6   2  -5   30.10    4.40
   6   2  -5   25.70    6.90
  -6  -2   5   30.10   10.80
  -6  -2   5   27.90    7.60
  -6  -2   5   26.40    7.80
  -6  -2   5   31.40    9.80
   5   2  -5    2.80    7.30
   5   2  -5    1.00    4.40
   5   2  -5    7.60   10.00
   5   2  -5    5.00    7.90
  -5  -2   5  -12.30    8.10
  -5  -2   5    3.30    5.20
  -5  -2   5   -7.80    5.30
  -5  -2   5    3.30    7.10
   4   2  -5  594.34   29.20
   4   2  -5  628.94   28.60
   4   2  -5  616.74   27.20
   4   2  -5  597.14   28.20
   4   2  -5  610.94   25.10
  -4  -2   5  587.44   26.30
  -4  -2   5  599.04   24.50
  -4  -2   5  625.44   30.30
  -4  -2   5  604.64   26.90
   3   2  -5   79.09   10.60
   3   2  -5   80.09   10.10
   3   2  -5   74.09    7.20
   3   2  -5   79.39    9.30
  -3  -2   5   77.79   10.10
  -3  -2   5   91.39    8.10
  -3  -2   5   90.29    7.30
  -3  -2   5  101.99   11.80
  -3  -2   5   84.99   10.00
   2   2  -5  206.88   12.70
   2   2  -5  178.58   10.70
   2   2  -5  189.78   10.90
   2   2  -5  183.18   12.50
   2   2  -5  189.38    9.70
  -2  -2   5  199.18   11.60
  -2  -2   5  199.48    9.70
  -2  -2   5  182.58    8.10
  -2  -2   5  180.88   12.00
  -2  -2   5  188.48    9.90
  -2  -2   5  169.48   13.30
   1   2  -5  667.73   25.30
   1   2  -5  634.64   23.60
   1   2  -5  690.53   24.60
   1   2  -5  712.13   27.50
   1   2  -5  702.63   26.90
   1   2  -5  689.13   25.00
  -1  -2   5  706.53   28.30
  -1  -2   5  716.13   27.10
  -1  -2   5  697.83   24.90
  -1  -2   5  704.73   23.60
  -1  -2   5  700.43   25.20
  -1  -2   5  697.53   25.80
   0   2  -5  223.28   10.50
   0   2  -5  213.78   11.00
   0   2  -5  215.58   10.30
   0   2  -5  218.68   10.60
   0  -2   5  195.38   11.00
   0  -2   5  209.08   10.40
   0  -2   5  238.08   13.20
   0  -2   5  223.78   10.30
   0  -2   5  225.18   11.00
  -1   2  -5  586.54   21.80
  -1   2  -5  552.94   21.90
  -1   2  -5  582.14   23.30
  -1   2  -5  567.94   21.90
   1  -2   5  570.34   21.90
   1  -2   5  570.74   22.00
   1  -2   5  554.14   23.40
   1  -2   5  589.54   20.80
   1  -2   5  579.54   22.40
  -2   2  -5  170.98   11.10
  -2   2  -5  183.78   12.20
  -2   2  -5  163.58    9.60
  -2   2  -5  177.08   11.30
  -2   2  -5  200.68    8.40
   2  -2   5  161.78   11.30
   2  -2   5  202.08   12.30
   2  -2   5  176.78   11.20
   2  -2   5  181.18   10.00
  -3   2  -5  169.18   10.40
  -3   2  -5  124.59   11.00
  -3   2  -5  140.59   11.60
  -3   2  -5  156.68    8.80
  -3   2  -5  131.79   11.40
   3  -2   5  152.08   11.40
   3  -2   5  135.19   11.30
   3  -2   5  144.29   11.40
   3  -2   5  152.08    9.10
  -4   2  -5   -1.80    3.50
  -4   2  -5   -1.80    4.30
  -4   2  -5   -3.50    5.10
  -4   2  -5   -0.80    5.10
  -4   2  -5   -4.80    4.80
   4  -2   5   -6.10    5.00
   4  -2   5   -2.40    3.20
   4  -2   5   -3.90    5.40
  -5   2  -5   -7.00    5.30
  -5   2  -5  -12.10    5.50
  -5   2  -5   -0.40    6.20
  -5   2  -5   -6.10    4.10
   5  -2   5   -9.20    6.00
   5  -2   5   -0.90    4.20
   5  -2   5    1.50    4.50
   5  -2   5    4.60    6.70
  -6   2  -5    2.00    6.70
  -6   2  -5   23.00    9.60
  -6   2  -5   20.40    8.60
  -6   2  -5   31.50    9.40
   6  -2   5    5.70    8.40
   6  -2   5   17.80    5.70
   6  -2   5   31.50   13.30
   6  -2   5   29.30    9.00
   6  -2   5   19.00    7.60
  -7   2  -5  117.99    8.30
  -7   2  -5  160.68   17.20
  -7   2  -5  103.09   12.90
  -7   2  -5  137.09   20.30
   7  -2   5  130.99   13.50
   7  -2   5  130.89   17.80
   7  -2   5   98.49   14.60
   7  -2   5  125.09   20.20
   6   1  -5   33.80   11.00
   6   1  -5   48.70   15.00
   6   1  -5   23.40    9.20
   6   1  -5   19.80    6.40
   6   1  -5   27.70    2.20
  -6  -1   5   24.30    7.30
  -6  -1   5   36.50   11.50
  -6  -1   5   32.90    8.40
  -6  -1   5   24.00    8.00
   5   1  -5    0.00    2.60
   5   1  -5   -1.20    3.50
   5   1  -5   -4.90    5.60
   5   1  -5    7.80   10.70
   5   1  -5    2.50    6.50
  -5  -1   5   -1.10    6.40
  -5  -1   5   -0.70    5.50
  -5  -1   5    4.50    4.80
  -5  -1   5   -5.70    5.80
   4   1  -5    2.00    5.50
   4   1  -5   -0.30    5.50
   4   1  -5    5.90    5.40
   4   1  -5    8.20    7.80
   4   1  -5    3.90    2.90
  -4  -1   5   -2.00    5.10
  -4  -1   5   10.70    5.70
  -4  -1   5    0.70    7.30
   3   1  -5   37.80    5.90
   3   1  -5   33.10    4.50
   3   1  -5   43.70    7.00
   3   1  -5   35.40    7.40
  -3  -1   5   39.20    5.30
  -3  -1   5   38.10    7.80
  -3  -1   5   42.90    6.20
   2   1  -5 1790.82   59.79
   2   1  -5 1751.22   60.39
   2   1  -5 1877.21   63.49
   2   1  -5 1826.42   62.49
  -2  -1   5 1733.63   59.19
  -2  -1   5 1839.62   60.59
  -2  -1   5 1771.92   63.09
  -2  -1   5 1851.51   63.79
   1   1  -5   14.50    2.90
   1   1  -5   16.20    2.60
   1   1  -5   11.40    3.90
   1   1  -5   17.90    3.20
   1   1  -5   16.10    4.70
  -1  -1   5   20.50    2.90
  -1  -1   5   17.00    4.30
  -1  -1   5   16.30    2.50
  -1  -1   5   14.20    2.90
  -1  -1   5   19.00    5.10
  -1  -1   5   13.30    2.60
   0   1  -5   73.09    6.90
   0   1  -5   81.49    5.70
   0   1  -5   75.09    6.50
   0   1  -5   74.29    5.10
   0   1  -5   74.49    7.00
   0  -1   5   68.99    6.20
   0  -1   5   68.09    8.10
   0  -1   5   68.49    6.20
   0  -1   5   81.79    3.20
   0  -1   5   81.39    5.40
   0  -1   5   71.09    6.60
  -1   1  -5  314.47   13.10
  -1   1  -5  325.27   10.20
  -1   1  -5  311.97   13.10
  -1   1  -5  304.67   13.20
  -1   1  -5  306.47   14.60
   1  -1   5  277.67   11.40
   1  -1   5  294.97   12.80
   1  -1   5  300.17   13.70
   1  -1   5  300.57   14.50
   1  -1   5  303.47   13.20
   1  -1   5  288.97   11.00
   1  -1   5  338.07   14.80
  -2   1  -5  811.02   28.50
  -2   1  -5  782.52   29.60
  -2   1  -5  784.72   29.30
  -2   1  -5  812.92   30.70
   2  -1   5  748.03   29.70
   2  -1   5  796.22   28.70
   2  -1   5  771.92   29.70
   2  -1   5  795.72   30.60
   2  -1   5  819.62   29.30
  -3   1  -5 3457.95  112.99
  -3   1  -5 3383.16  111.69
  -3   1  -5 3456.75  110.79
  -3   1  -5 3434.76  112.39
  -3   1  -5 3398.36  112.69
   3  -1   5 3203.98  113.89
   3  -1   5 3297.57  110.49
   3  -1   5 3468.65  113.39
   3  -1   5 3396.76  112.89
   3  -1   5 3435.56  112.39
  -4   1  -5  239.48   13.90
  -4   1  -5  239.98   13.20
  -4   1  -5  242.78   15.40
  -4   1  -5  255.37   15.60
   4  -1   5  235.98   16.70
   4  -1   5  255.47   15.20
   4  -1   5  254.87   15.40
   4  -1   5  248.88   15.70
   4  -1   5  228.68   12.60
  -5   1  -5   11.50    6.70
  -5   1  -5   17.40    5.40
  -5   1  -5   16.50    7.40
  -5   1  -5   26.40    7.30
  -5   1  -5   16.50    5.90
   5  -1   5   19.20    7.10
   5  -1   5   16.90    5.80
   5  -1   5    9.90    7.00
   5  -1   5   11.60    4.90
   5  -1   5   -1.20   12.00
  -6   1  -5   22.70    4.30
  -6   1  -5   30.00    8.80
  -6   1  -5   26.00    5.50
  -6   1  -5   15.50    8.40
  -6   1  -5   28.90    9.20
  -6   1  -5   18.10    8.30
   6  -1   5   22.80   13.30
   6  -1   5   26.30    8.00
   6  -1   5   28.70    9.00
   6  -1   5   35.70    9.40
  -7   1  -5  104.29   15.30
  -7   1  -5   89.89    6.60
  -7   1  -5   99.79   12.50
  -7   1  -5   78.79   13.90
  -7   1  -5   72.39   11.60
  -7   1  -5   84.19   13.60
   7  -1   5   87.49   13.70
   7  -1   5   66.19   11.20
   7  -1   5  118.49   22.10
   7  -1   5   71.59   12.90
   6   0  -5   28.90    9.60
   6   0  -5   18.70    5.60
   6   0  -5   37.00   15.30
   6   0  -5   10.10    9.00
  -6   0   5   21.40    8.10
  -6   0   5    8.80    6.20
  -6   0   5   17.40    8.20
  -6   0   5   15.10    8.00
  -6   0   5   27.20    8.10
   5   0  -5   43.70    7.40
   5   0  -5   29.70    8.90
   5   0  -5   47.70    4.00
  -5   0   5   36.60    7.50
  -5   0   5   34.30    6.20
  -5   0   5   30.30    8.10
  -5   0   5   46.50   11.20
   4   0  -5  174.88   13.10
   4   0  -5  171.18   10.30
   4   0  -5  159.08    8.90
   4   0  -5  161.68   14.50
   4   0  -5  132.69   13.10
  -4   0   5  176.18   10.40
  -4   0   5  171.28   12.60
  -4   0   5  185.18   16.20
   3   0  -5   23.60    4.10
   3   0  -5   24.70    6.40
   3   0  -5   19.60    6.50
   3   0  -5   18.20    3.50
   3   0  -5   16.90    4.70
   3   0  -5   19.00    5.80
  -3   0   5   14.30    3.30
  -3   0   5   13.80    3.30
  -3   0   5   24.50    7.10
  -3   0   5   18.00    4.80
   2   0  -5 1459.55   50.19
   2   0  -5 1510.25   54.09
   2   0  -5 1494.25   50.89
   2   0  -5 1550.74   53.29
   2   0  -5 1575.04   54.39
  -2   0   5 1546.85   51.89
  -2   0   5 1554.04   54.19
  -2   0   5 1464.75   49.60
   1   0  -5    7.70    2.60
   1   0  -5   11.20    3.60
   1   0  -5   11.20    1.80
   1   0  -5   10.70    3.30
   1   0  -5   12.40    3.80
   1   0  -5   12.10    2.40
  -1   0   5   12.30    1.80
  -1   0   5   16.80    4.20
  -1   0   5    6.80    4.70
  -1   0   5   15.00    3.30
   0   0  -5 1788.52   61.49
   0   0  -5 1944.11   63.59
   0   0  -5 1820.62   61.49
   0   0  -5 1957.70   64.29
   0   0  -5 1967.70   63.59
   0   0  -5 1851.41   61.49
   0   0  -5 1943.71   63.19
   0   0   5 1835.32   61.59
   0   0   5 1956.30   62.99
   0   0   5 1942.91   61.19
   0   0   5 1944.31   64.69
   0   0   5 1951.10   63.59
  -1   0  -5  459.95   16.70
  -1   0  -5  429.96   15.50
  -1   0  -5  440.76   17.00
  -1   0  -5  439.46   18.60
  -1   0  -5  419.86   16.60
   1   0   5  454.25   18.20
   1   0   5  423.16   16.80
   1   0   5  451.15   17.60
   1   0   5  427.86   16.10
   1   0   5  453.95   18.50
  -2   0  -5 1622.04   56.19
  -2   0  -5 1734.93   57.79
  -2   0  -5 1676.13   56.19
  -2   0  -5 1645.54   55.59
   2   0   5 1675.93   55.89
   2   0   5 1629.64   56.39
   2   0   5 1612.14   56.89
   2   0   5 1653.53   55.79
   2   0   5 1685.43   57.59
  -3   0  -5   73.49    6.80
  -3   0  -5   54.59    7.00
  -3   0  -5   58.59    7.40
  -3   0  -5   40.80    6.50
  -3   0  -5   61.29    3.20
   3   0   5   65.69    8.20
   3   0   5   55.89    6.40
   3   0   5   50.39    6.90
   3   0   5   48.30    8.20
   3   0   5   56.99    8.20
  -4   0  -5  778.12   31.50
  -4   0  -5  760.42   31.20
  -4   0  -5  735.53   26.60
  -4   0  -5  755.12   29.80
   4   0   5  761.02   28.90
   4   0   5  765.42   31.00
   4   0   5  767.92   31.60
   4   0   5  747.63   33.60
   4   0   5  773.92   31.00
  -5   0  -5  100.09   11.50
  -5   0  -5   89.79    7.80
  -5   0  -5   82.29    8.70
  -5   0  -5   91.69   12.50
  -5   0  -5  107.69    7.90
   5   0   5   93.59   16.80
   5   0   5   82.49   14.20
   5   0   5   99.99   12.70
  -6   0  -5   -7.90    4.10
  -6   0  -5   -2.70    3.20
  -6   0  -5   -5.00    6.50
  -6   0  -5    4.70    7.70
  -6   0  -5    4.30    7.50
   6   0   5   -4.10    6.10
   6   0   5    0.00   10.20
   6   0   5    9.70    7.10
   6   0   5   -2.10    7.30
  -7   0  -5  110.39   15.00
  -7   0  -5   87.49   12.20
  -7   0  -5   94.79   11.70
  -7   0  -5   84.29   13.10
  -7   0  -5   96.79    6.30
  -7   0  -5   88.09   14.00
   7   0   5   98.89   14.30
   7   0   5  112.59   17.00
   7   0   5  122.09   21.00
  -8   0  -5   70.49   14.00
  -8   0  -5   96.59   13.50
   8   0   5   93.99   21.40
   8   0   5   82.59   12.70
   8   0   5   82.29   14.00
   6  -1  -5   20.20    9.50
   6  -1  -5    2.80    5.00
   6  -1  -5   -9.40    8.10
  -6   1   5   -1.40    6.10
  -6   1   5    5.40    6.60
  -6   1   5   14.10    6.90
  -6   1   5    6.70    8.30
  -6   1   5    8.40    9.10
   5  -1  -5    6.60    3.80
   5  -1  -5    4.90    6.70
   5  -1  -5    3.80    5.30
  -5   1   5    2.70    6.10
  -5   1   5    4.70    8.30
  -5   1   5    6.70    5.90
  -5   1   5    4.40    4.50
  -5   1   5    7.40    6.10
   4  -1  -5  142.89    9.30
   4  -1  -5  118.79    5.10
   4  -1  -5  136.79   13.70
   4  -1  -5  139.09   13.70
   4  -1  -5  139.79   11.00
   4  -1  -5  135.39    5.20
   4  -1  -5  126.59   12.40
   4  -1  -5  141.09    7.70
  -4   1   5  141.09   12.30
  -4   1   5  138.19    9.40
  -4   1   5  124.69   11.80
  -4   1   5  140.49    9.20
  -4   1   5  139.49   14.80
   3  -1  -5  559.44   26.70
   3  -1  -5  599.04   22.40
   3  -1  -5  579.54   22.00
   3  -1  -5  557.54   20.80
   3  -1  -5  492.25   34.40
   3  -1  -5  629.04   25.60
  -3   1   5  594.34   21.40
  -3   1   5  588.04   24.40
  -3   1   5  622.44   26.80
   2  -1  -5   23.20    4.90
   2  -1  -5   16.00    2.90
   2  -1  -5   16.70    3.20
   2  -1  -5   20.70    4.00
   2  -1  -5    9.80    4.70
   2  -1  -5   22.10    3.10
   2  -1  -5   21.80    5.00
  -2   1   5   22.80    2.60
  -2   1   5   19.90    5.70
  -2   1   5   20.80    4.30
  -2   1   5   22.50    2.80
   1  -1  -5   92.09    4.60
   1  -1  -5   88.39    7.30
   1  -1  -5   90.69    4.00
   1  -1  -5  104.99    7.40
   1  -1  -5   67.19    7.30
   1  -1  -5  100.69    7.70
   1  -1  -5   81.49    7.90
   1  -1  -5   92.39    6.50
  -1   1   5   85.39    3.30
  -1   1   5   89.89    3.20
  -1   1   5   98.99    8.20
  -1   1   5  105.89    6.20
   0  -1  -5  902.51   31.90
   0  -1  -5  910.61   34.10
   0  -1  -5  963.40   34.90
   0  -1  -5  983.60   33.90
   0  -1  -5  946.11   31.80
   0  -1  -5 1022.00   34.50
   0  -1  -5  960.70   35.30
   0  -1  -5 1035.20   34.90
   0   1   5  904.71   33.80
   0   1   5  945.61   31.60
   0   1   5 1017.10   32.90
   0   1   5 1054.89   35.10
   0   1   5 1010.50   31.90
   0   1   5 1120.69   36.00
  -1  -1  -5  553.64   19.80
  -1  -1  -5  558.14   20.90
  -1  -1  -5  562.44   20.00
  -1  -1  -5  531.45   20.00
  -1  -1  -5  544.85   22.20
  -1  -1  -5  540.85   21.40
  -1  -1  -5  550.14   22.20
   1   1   5  602.44   20.90
   1   1   5  579.44   22.10
   1   1   5  549.54   20.10
   1   1   5  551.84   19.50
   1   1   5  579.24   21.50
   1   1   5  578.14   21.30
  -2  -1  -5   79.29    7.50
  -2  -1  -5   64.19    8.20
  -2  -1  -5   60.69    6.70
  -2  -1  -5   75.39    8.70
   2   1   5   75.99    7.10
   2   1   5   67.29    6.50
   2   1   5   70.89    7.50
   2   1   5   69.59    6.80
   2   1   5   62.99    5.40
  -3  -1  -5  103.89    9.60
  -3  -1  -5  123.29    8.00
  -3  -1  -5  119.69   10.70
  -3  -1  -5  112.39    9.20
  -3  -1  -5  123.29    8.30
   3   1   5  122.69    7.70
   3   1   5  118.89   11.00
   3   1   5  112.99    9.70
   3   1   5  119.09    9.50
   3   1   5  107.29    9.40
  -4  -1  -5  552.44   24.40
  -4  -1  -5  556.34   22.60
  -4  -1  -5  566.04   24.60
  -4  -1  -5  538.75   24.70
  -4  -1  -5  538.55   21.70
  -4  -1  -5  554.24   20.90
   4   1   5  564.84   24.10
   4   1   5  529.45   24.40
   4   1   5  553.04   26.90
   4   1   5  533.55   24.30
  -5  -1  -5   -1.10    5.80
  -5  -1  -5   -1.50    4.00
  -5  -1  -5    0.70    5.00
  -5  -1  -5    1.60    4.30
  -5  -1  -5   -2.60    2.80
  -5  -1  -5   -1.30    3.60
   5   1   5    7.20    8.50
   5   1   5    6.20    6.70
   5   1   5    2.90    5.90
   5   1   5    3.20    4.70
  -6  -1  -5   42.70    9.90
  -6  -1  -5   44.30    5.50
  -6  -1  -5   49.90    8.90
  -6  -1  -5   44.50    8.80
  -6  -1  -5   41.30    7.10
  -6  -1  -5   37.20    9.20
   6   1   5   47.50   10.10
   6   1   5   39.00    8.20
   6   1   5   56.99   14.00
   6   1   5   39.10    8.90
   6   1   5   35.00    9.20
  -7  -1  -5    5.20    9.20
  -7  -1  -5    1.10    6.10
  -7  -1  -5   -1.40    7.00
  -7  -1  -5    9.10    8.30
  -7  -1  -5   -5.90    7.30
  -7  -1  -5   -2.10    6.00
   7   1   5   34.30   16.20
   7   1   5    7.50    8.70
   7   1   5    9.60    9.00
   7   1   5    1.20    6.40
  -8  -1  -5  206.58   34.00
  -8  -1  -5  260.77   24.30
  -8  -1  -5  234.48   20.80
  -8  -1  -5  234.38   20.10
  -8  -1  -5  211.08   17.80
   8   1   5  211.78   18.60
   8   1   5  251.77   22.60
   8   1   5  265.87   23.40
   8   1   5  247.78   18.50
   6  -2  -5  -10.20    7.60
   6  -2  -5   -9.20    5.00
   6  -2  -5    5.40    6.40
   6  -2  -5    3.00   11.60
   6  -2  -5   11.80   11.30
   6  -2  -5    1.00    1.50
  -6   2   5   -3.90    8.40
  -6   2   5    2.00    6.20
  -6   2   5   -4.20    6.50
  -6   2   5   -6.60    5.80
  -6   2   5    1.10    8.70
   5  -2  -5    5.00    2.10
   5  -2  -5    6.50    5.20
   5  -2  -5    6.20    7.90
   5  -2  -5    0.80    4.00
  -5   2   5   15.30    7.20
  -5   2   5    6.30    7.20
  -5   2   5    9.40    6.10
  -5   2   5    1.60    4.40
  -5   2   5    7.70    6.20
   4  -2  -5   15.80    2.90
   4  -2  -5    5.10    6.80
   4  -2  -5    8.70    4.60
   4  -2  -5   10.80    2.40
   4  -2  -5   12.90    3.50
  -4   2   5   11.90    7.70
  -4   2   5   10.70    3.30
  -4   2   5   21.50    4.30
  -4   2   5   13.50    5.00
  -4   2   5   14.50    6.10
   3  -2  -5  149.19   12.70
   3  -2  -5  149.39   13.10
   3  -2  -5  156.78   11.80
   3  -2  -5  147.69    8.20
   3  -2  -5  153.88    8.50
   3  -2  -5  136.59    8.80
  -3   2   5  157.78   10.90
  -3   2   5  166.18   11.00
  -3   2   5  139.89   11.50
  -3   2   5  150.48    8.00
   2  -2  -5    4.40    4.30
   2  -2  -5    2.40    1.50
   2  -2  -5    5.00    4.00
   2  -2  -5    4.40    3.90
   2  -2  -5    3.80    2.00
   2  -2  -5    7.40    2.70
  -2   2   5    3.90    1.20
  -2   2   5    1.60    3.10
  -2   2   5    3.20    1.10
  -2   2   5    3.00    4.20
   1  -2  -5  958.80   34.50
   1  -2  -5  938.31   35.40
   1  -2  -5  967.40   34.00
   1  -2  -5  970.20   35.30
   1  -2  -5  952.90   35.50
  -1   2   5  982.20   33.80
   0  -2  -5 1056.09   40.30
   0  -2  -5 1037.90   35.50
   0  -2  -5  963.40   36.70
   0  -2  -5 1005.50   35.80
   0  -2  -5 1025.00   35.60
   0  -2  -5  998.30   34.50
   0   2   5  944.71   35.30
   0   2   5  982.60   33.90
   0   2   5  944.31   34.90
  -1  -2  -5  546.15   19.90
  -1  -2  -5  554.64   22.20
  -1  -2  -5  544.45   22.40
  -1  -2  -5  538.55   20.40
  -1  -2  -5  529.35   19.80
  -1  -2  -5  564.24   20.70
  -1  -2  -5  565.64   22.50
   1   2   5  551.44   20.80
   1   2   5  563.64   19.70
   1   2   5  580.84   21.20
   1   2   5  608.24   21.90
  -2  -2  -5  755.92   28.80
  -2  -2  -5  715.33   26.90
  -2  -2  -5  704.93   29.20
  -2  -2  -5  755.62   27.80
  -2  -2  -5  714.53   26.90
   2   2   5  732.93   25.80
   2   2   5  773.22   28.10
   2   2   5  718.93   26.80
   2   2   5  717.43   26.80
   2   2   5  737.13   28.80
   2   2   5  737.83   26.70
  -3  -2  -5  925.31   37.50
  -3  -2  -5  943.51   35.50
  -3  -2  -5  952.90   33.20
  -3  -2  -5  949.71   33.80
  -3  -2  -5  922.01   34.60
  -3  -2  -5  890.71   34.50
   3   2   5  905.21   33.30
   3   2   5  928.61   35.00
   3   2   5  968.10   37.30
   3   2   5  903.81   34.40
   3   2   5  901.11   34.40
  -4  -2  -5 1725.23   59.59
  -4  -2  -5 1832.92   62.79
  -4  -2  -5 1732.43   62.19
  -4  -2  -5 1790.92   62.39
  -4  -2  -5 1783.12   62.39
   4   2   5 1715.93   61.79
   4   2   5 1738.03   65.39
   4   2   5 1752.72   61.79
   4   2   5 1729.53   62.19
  -5  -2  -5    9.20    6.50
  -5  -2  -5    6.20    4.40
  -5  -2  -5    1.50    5.10
  -5  -2  -5   10.30    5.90
  -5  -2  -5   13.30    3.50
   5   2   5    4.40    7.80
   5   2   5   11.20    5.20
   5   2   5    0.80    5.70
   5   2   5    3.50    5.00
  -6  -2  -5  267.37   12.60
  -6  -2  -5  277.47   16.30
  -6  -2  -5  273.67   25.30
  -6  -2  -5  280.07   18.40
  -6  -2  -5  275.87   20.30
  -6  -2  -5  306.17   19.60
   6   2   5  296.87   19.80
   6   2   5  303.17   20.20
   6   2   5  281.27   22.90
   6   2   5  277.47   17.70
   6   2   5  285.97   17.40
  -7  -2  -5   38.80   15.00
  -7  -2  -5   27.80    8.20
  -7  -2  -5   39.60   11.10
  -7  -2  -5   39.50    9.50
  -7  -2  -5   39.70   10.30
   7   2   5   26.10    9.20
   7   2   5   25.50    7.40
   7   2   5   25.70   10.40
   7   2   5   26.10   10.00
  -8  -2  -5   -7.20    7.10
  -8  -2  -5   -4.30    9.90
  -8  -2  -5    5.40    8.40
  -8  -2  -5   -4.30    9.60
  -8  -2  -5    6.80    9.00
  -8  -2  -5   11.60   10.40
   8   2   5    7.50    7.00
   8   2   5   12.50   10.20
   8   2   5   30.80   17.90
   8   2   5   -0.50    8.80
   6  -3  -5   -0.10    8.20
   6  -3  -5    5.40    5.60
   6  -3  -5    3.70    3.50
   6  -3  -5    0.20    5.60
  -6   3   5    0.40    8.30
  -6   3   5    1.70    6.60
  -6   3   5    8.20    6.60
   5  -3  -5   28.70    8.50
   5  -3  -5   15.70    3.40
   5  -3  -5   19.20    5.90
   5  -3  -5   19.90    4.40
  -5   3   5   18.90    5.20
  -5   3   5   10.00    7.10
  -5   3   5   18.50    7.30
  -5   3   5   11.80    6.70
  -5   3   5    6.40    5.70
   4  -3  -5   17.20    4.10
   4  -3  -5   21.10    3.60
   4  -3  -5   20.40    5.00
   4  -3  -5   10.20    7.10
  -4   3   5   19.20    8.00
  -4   3   5   24.10    6.60
  -4   3   5   19.70    6.50
  -4   3   5   17.50    3.20
   3  -3  -5  790.22   31.10
   3  -3  -5  767.62   28.00
   3  -3  -5  780.12   28.70
   3  -3  -5  786.62   33.60
   3  -3  -5  783.72   28.50
   3  -3  -5  777.62   32.90
  -3   3   5  844.22   31.00
  -3   3   5  756.02   31.40
  -3   3   5  765.92   28.00
   2  -3  -5   66.49    7.60
   2  -3  -5   58.39    4.40
   2  -3  -5   51.79    4.20
   2  -3  -5   53.49    5.90
   2  -3  -5   49.40    7.90
   2  -3  -5   52.49    6.90
   2  -3  -5   51.59    5.60
  -2   3   5   52.99    6.50
  -2   3   5   52.69    3.30
  -2   3   5   50.79    3.60
   1  -3  -5   35.40    2.40
   1  -3  -5   29.00    4.30
   1  -3  -5   32.90    4.80
   1  -3  -5   32.10    5.20
   1  -3  -5   22.30    4.60
  -1   3   5   33.20    5.50
  -1   3   5   32.80    4.70
   0  -3  -5  440.36   15.20
   0  -3  -5  449.56   17.20
   0  -3  -5  472.95   18.80
   0  -3  -5  451.85   18.30
   0  -3  -5  435.96   18.30
   0  -3  -5  434.86   14.80
   0  -3  -5  451.15   19.50
   0  -3  -5  446.86   16.60
   0   3   5  443.86   18.90
   0   3   5  458.75   17.50
   0   3   5  456.15   18.00
  -1  -3  -5  803.02   31.50
  -1  -3  -5  808.92   30.50
  -1  -3  -5  805.22   28.00
  -1  -3  -5  790.72   28.30
  -1  -3  -5  814.72   28.60
  -1  -3  -5  817.62   28.90
  -1  -3  -5  822.02   30.40
   1   3   5  881.61   31.10
   1   3   5  821.52   29.20
   1   3   5  851.61   29.10
   1   3   5  826.92   31.10
   1   3   5  800.02   27.70
  -2  -3  -5  988.30   38.70
  -2  -3  -5 1012.50   35.50
  -2  -3  -5 1020.20   36.40
  -2  -3  -5 1012.20   35.80
  -2  -3  -5 1022.10   37.40
  -2  -3  -5 1000.40   34.10
   2   3   5 1013.40   35.40
   2   3   5 1025.70   35.30
   2   3   5 1018.70   36.80
   2   3   5  970.80   33.70
   2   3   5  988.30   35.70
   2   3   5 1007.70   38.00
  -3  -3  -5 1468.35   51.59
  -3  -3  -5 1484.35   52.19
  -3  -3  -5 1488.25   50.59
  -3  -3  -5 1427.96   51.09
  -3  -3  -5 1488.45   49.60
  -3  -3  -5 1430.96   54.69
   3   3   5 1415.66   49.90
   3   3   5 1477.65   51.39
   3   3   5 1432.16   53.99
   3   3   5 1465.75   51.19
   3   3   5 1456.85   50.99
  -4  -3  -5  121.59   14.20
   4   3   5  101.09   12.20
  -5  -3  -5    4.80    3.30
  -5  -3  -5   -3.50    5.20
  -5  -3  -5    4.30    4.30
  -5  -3  -5   -0.60    4.30
  -5  -3  -5    4.50    5.60
   5   3   5    9.10    4.50
   5   3   5   -2.10    5.70
   5   3   5   -1.00    4.30
  -6  -3  -5   54.29    9.40
  -6  -3  -5   71.79   10.10
  -6  -3  -5   51.49   10.00
  -6  -3  -5   32.10    7.70
  -6  -3  -5   52.59    5.90
  -6  -3  -5   60.09    9.80
   6   3   5   65.59   10.60
   6   3   5   50.79    9.40
   6   3   5   44.70    9.80
   6   3   5   62.79   14.30
   6   3   5   40.00    8.10
  -7  -3  -5   13.40    9.50
  -7  -3  -5   10.60    7.70
  -7  -3  -5   21.30    8.40
  -7  -3  -5   15.00    8.10
  -7  -3  -5   10.70    8.50
   7   3   5   15.70    9.40
   7   3   5   18.80    6.80
   7   3   5    0.40    7.90
   7   3   5    6.80    7.40
  -8  -3  -5   31.30    9.60
  -8  -3  -5   37.30   12.60
  -8  -3  -5   32.90   11.30
  -8  -3  -5   24.10   10.20
  -8  -3  -5   35.40   10.20
   8   3   5   32.50    9.80
   8   3   5   41.50   11.40
   8   3   5   65.79   17.60
   8   3   5   39.60   11.60
   5  -4  -5   -2.70    4.70
   5  -4  -5   -7.00    3.50
   5  -4  -5    2.30    6.90
   5  -4  -5    2.60    6.60
   5  -4  -5   -0.70    4.20
  -5   4   5   -5.70    7.00
  -5   4   5   -6.70    5.00
  -5   4   5    2.70    6.10
  -5   4   5   -6.10    6.00
   4  -4  -5   21.50    4.50
   4  -4  -5   31.10    7.70
   4  -4  -5   23.00    4.20
   4  -4  -5   19.70    5.10
  -4   4   5   28.50    5.30
  -4   4   5   27.80    7.20
  -4   4   5   30.90    7.30
  -4   4   5   25.10    3.80
   3  -4  -5  165.68   12.60
   3  -4  -5  159.68    9.80
   3  -4  -5  153.78   14.40
   3  -4  -5  168.18    9.80
  -3   4   5  142.39   12.50
  -3   4   5  193.38   12.10
  -3   4   5  181.18    9.80
   2  -4  -5   17.40    2.90
   2  -4  -5   11.80    5.40
   2  -4  -5   19.40    4.60
   2  -4  -5   20.70    4.00
   2  -4  -5   16.70    3.20
   2  -4  -5   14.50    2.70
  -2   4   5   18.30    5.10
  -2   4   5   13.80    2.60
  -2   4   5   17.70    2.90
  -2   4   5   16.50    4.90
  -2   4   5   18.00    4.10
   1  -4  -5  219.48    8.90
   1  -4  -5  228.68   10.30
   1  -4  -5  226.78   11.40
   1  -4  -5  216.18   10.30
   1  -4  -5  218.88    8.80
   1  -4  -5  213.58   12.50
  -1   4   5  219.78   11.50
  -1   4   5  215.48   12.70
  -1   4   5  218.38    8.30
   0  -4  -5   -7.80    4.70
   0  -4  -5    0.80    2.30
   0  -4  -5   -3.00    1.70
   0  -4  -5    1.50    2.70
   0  -4  -5   -1.50    1.90
   0  -4  -5   -1.60    1.00
   0  -4  -5    0.10    1.90
   0   4   5   -0.70    2.20
   0   4   5   -2.00    1.20
   0   4   5   -5.30    2.60
   0   4   5   -3.70    4.10
  -1  -4  -5   -0.80    3.90
  -1  -4  -5    5.70    2.10
  -1  -4  -5   11.70    6.20
  -1  -4  -5    6.30    2.60
  -1  -4  -5    7.70    2.40
  -1  -4  -5    5.50    3.00
   1   4   5   11.80    4.80
   1   4   5    7.90    2.20
   1   4   5    6.00    4.60
   1   4   5    7.40    2.20
   1   4   5    4.70    2.80
   1   4   5    9.20    3.40
  -2  -4  -5  806.62   29.90
  -2  -4  -5  822.62   31.20
  -2  -4  -5  818.12   29.40
  -2  -4  -5  819.72   30.40
  -2  -4  -5  773.72   33.30
  -2  -4  -5  808.72   27.60
   2   4   5  799.82   29.80
   2   4   5  793.32   29.10
   2   4   5  811.22   31.00
   2   4   5  847.22   32.80
   2   4   5  802.32   29.10
  -3  -4  -5  520.85   26.30
  -3  -4  -5  548.75   21.70
  -3  -4  -5  552.64   20.40
  -3  -4  -5  548.55   23.70
  -3  -4  -5  507.45   22.70
  -3  -4  -5  528.75   22.10
   3   4   5  526.55   22.20
   3   4   5  525.05   22.50
   3   4   5  523.75   22.70
   3   4   5  538.95   25.30
  -4  -4  -5   22.90    6.00
  -4  -4  -5   35.30    5.40
  -4  -4  -5   24.00    9.40
  -4  -4  -5   19.80    5.10
   4   4   5   16.80    4.30
   4   4   5   19.20    6.20
   4   4   5   21.80    8.10
   4   4   5   18.40    4.90
   4   4   5   14.60    5.10
  -5  -4  -5   26.60   12.00
  -5  -4  -5   37.80    7.30
  -5  -4  -5   35.50    5.70
  -5  -4  -5   38.90    7.40
  -5  -4  -5   36.70    5.80
  -5  -4  -5   27.10    7.90
   5   4   5   30.70    6.20
   5   4   5   22.20    8.40
   5   4   5   30.80    6.90
   5   4   5   36.80   11.20
   5   4   5   37.30    6.30
  -6  -4  -5   93.59   10.50
  -6  -4  -5  101.29   15.10
  -6  -4  -5   98.59   12.80
  -6  -4  -5   84.39   12.40
   6   4   5   60.99    8.60
   6   4   5  100.69   15.40
   6   4   5   63.69   14.30
  -7  -4  -5  109.29   14.20
  -7  -4  -5  106.09   13.70
  -7  -4  -5  139.49   19.60
  -7  -4  -5  111.99   14.80
  -7  -4  -5  138.29   16.90
   7   4   5  106.49   13.70
   7   4   5  119.89   17.30
   7   4   5  119.99   17.20
  -8  -4  -5   -8.40    9.80
  -8  -4  -5    0.90    8.30
  -8  -4  -5    2.90    8.90
  -8  -4  -5   -2.40    8.60
  -8  -4  -5   11.80   10.60
   8   4   5   -0.50    9.50
   8   4   5   11.80   10.00
   8   4   5    2.00    8.00
   5  -5  -5   19.40    6.60
   5  -5  -5    0.00    6.70
   5  -5  -5    7.50    9.90
   5  -5  -5    5.40    4.90
  -5   5   5    8.40    7.20
  -5   5   5    7.00    6.20
   4  -5  -5   -0.40    4.00
   4  -5  -5   -3.80    5.40
   4  -5  -5   -2.30    3.70
   4  -5  -5    2.00    3.50
  -4   5   5    0.00    5.10
  -4   5   5    3.50    4.40
  -4   5   5   -7.60    5.00
   3  -5  -5   38.20    5.60
   3  -5  -5   29.90    5.20
   3  -5  -5   32.70    4.90
   3  -5  -5   35.90    6.90
  -3   5   5   49.20    6.80
  -3   5   5   35.60    4.70
  -3   5   5   39.40    7.10
  -3   5   5   44.30    7.00
  -3   5   5   43.00    7.00
   2  -5  -5  377.66   17.00
   2  -5  -5  363.36   20.10
   2  -5  -5  394.46   15.90
   2  -5  -5  373.26   15.80
   2  -5  -5  413.46   15.80
  -2   5   5  382.56   18.80
  -2   5   5  384.86   18.80
  -2   5   5  412.46   16.90
   1  -5  -5    7.10    2.60
   1  -5  -5    5.50    6.50
   1  -5  -5    7.10    2.20
   1  -5  -5    3.30    3.20
   1  -5  -5    3.90    2.80
   1  -5  -5    2.50    4.10
   1  -5  -5    8.50    2.00
  -1   5   5    6.20    4.80
  -1   5   5    0.80    3.60
  -1   5   5    7.20    2.20
   0  -5  -5   97.59    5.90
   0  -5  -5   97.89    6.70
   0  -5  -5   95.89   10.70
   0  -5  -5  108.49    8.00
   0  -5  -5   94.29    5.40
   0   5   5  101.89    7.10
   0   5   5   97.09    5.40
   0   5   5   96.89    6.80
   0   5   5  113.89    8.50
  -1  -5  -5  702.33   24.60
  -1  -5  -5  680.53   24.80
  -1  -5  -5  706.03   27.10
  -1  -5  -5  611.14   22.10
  -1  -5  -5  676.63   29.80
  -1  -5  -5  691.33   25.50
  -1  -5  -5  648.54   22.20
   1   5   5  713.43   28.00
   1   5   5  665.23   25.00
   1   5   5  733.73   25.20
   1   5   5  686.23   24.50
   1   5   5  782.82   29.40
   1   5   5  703.23   26.10
  -2  -5  -5    5.60    2.90
  -2  -5  -5    2.00    3.70
  -2  -5  -5    3.20    1.30
  -2  -5  -5    2.20    3.70
  -2  -5  -5    2.60    1.50
  -2  -5  -5    4.10    6.50
   2   5   5   -1.00    4.80
   2   5   5    7.20    3.00
   2   5   5    5.70    4.00
   2   5   5    9.90    4.80
   2   5   5    2.10    3.10
  -3  -5  -5  455.95   21.10
  -3  -5  -5  451.35   19.50
  -3  -5  -5  432.76   18.70
  -3  -5  -5  432.96   17.00
  -3  -5  -5  453.95   20.80
  -3  -5  -5  417.36   23.90
   3   5   5  425.86   20.10
   3   5   5  449.26   19.50
   3   5   5  443.56   22.90
   3   5   5  438.46   20.60
  -4  -5  -5  193.58   10.90
  -4  -5  -5  174.68   17.30
  -4  -5  -5  186.38   10.10
  -4  -5  -5  199.08   14.00
  -4  -5  -5  175.98   14.50
  -4  -5  -5  181.08   12.00
   4   5   5  197.28   16.40
   4   5   5  160.78   11.80
   4   5   5  178.18   14.10
   4   5   5  180.68   10.50
   4   5   5  189.48   12.60
  -5  -5  -5   13.30    4.60
  -5  -5  -5   18.20    6.90
  -5  -5  -5   10.70    5.80
  -5  -5  -5   10.00   11.60
  -5  -5  -5   15.10    6.00
   5   5   5   11.70    5.40
   5   5   5   10.60    5.30
   5   5   5   13.20    2.00
   5   5   5    7.30    9.10
   5   5   5   14.20    5.80
   5   5   5   10.50    7.30
  -6  -5  -5   81.89   12.70
  -6  -5  -5   84.39   10.30
  -6  -5  -5   97.29   13.00
  -6  -5  -5   81.89   12.30
   6   5   5   87.99   10.40
   6   5   5  103.89   14.40
   6   5   5   84.39    6.20
   6   5   5   80.99   11.10
   6   5   5   75.29   12.80
  -7  -5  -5   67.09   10.30
  -7  -5  -5   70.09   13.00
  -7  -5  -5  114.49   15.50
  -7  -5  -5   68.79   10.60
  -7  -5  -5   77.19   13.30
   7   5   5   79.09    7.70
   7   5   5   79.59   12.50
   7   5   5   67.69   11.20
  -8  -5  -5   16.90    9.00
  -8  -5  -5   27.60   12.30
  -8  -5  -5   19.80   10.20
  -8  -5  -5   14.70   10.00
  -8  -5  -5   37.50   10.60
   8   5   5   21.30   10.80
   8   5   5   24.90    9.80
   8   5   5   32.50    6.50
   5  -6  -5    3.80    5.00
   5  -6  -5   -4.90    5.40
   5  -6  -5    0.60    5.50
   5  -6  -5   -6.40    6.30
  -5   6   5   -0.60    6.60
  -5   6   5   -6.80    6.70
  -5   6   5   -5.70    9.10
   4  -6  -5   -0.90    3.00
   4  -6  -5   -4.80    4.60
   4  -6  -5   -8.20    4.20
   4  -6  -5   -0.90    4.10
  -4   6   5    4.20    5.00
  -4   6   5    5.20    5.60
  -4   6   5    6.40    6.00
  -4   6   5   -7.70    6.00
   3  -6  -5   32.80    5.50
   3  -6  -5   29.80    6.20
   3  -6  -5   30.40    4.30
   3  -6  -5   23.10    4.50
  -3   6   5   34.60    7.20
  -3   6   5   34.00    6.70
  -3   6   5   25.70    4.30
  -3   6   5   38.20    6.20
   2  -6  -5 2056.69   74.49
   2  -6  -5 2132.99   69.69
   2  -6  -5 2087.49   68.99
   2  -6  -5 2057.59   70.29
   2  -6  -5 2131.19   70.19
  -2   6   5 2122.99   69.99
  -2   6   5 2067.79   69.99
  -2   6   5 2100.69   72.79
  -2   6   5 2082.69   73.19
  -2   6   5 2116.19   69.19
   1  -6  -5  148.99   11.00
   1  -6  -5  149.19    7.90
   1  -6  -5  139.69    7.30
   1  -6  -5  173.28   14.70
   1  -6  -5  144.59    9.00
   1  -6  -5  142.59    7.60
  -1   6   5  136.69    9.70
  -1   6   5  143.39    8.00
  -1   6   5  150.18   11.40
  -1   6   5  148.19    7.70
   0  -6  -5  206.58    9.60
   0  -6  -5  225.18   11.10
   0  -6  -5  222.38   15.60
   0   6   5  211.28    9.70
   0   6   5  214.28   13.60
   0   6   5  205.18   11.80
   0   6   5  201.48   10.00
  -1  -6  -5   37.70    8.10
  -1  -6  -5   30.20    5.00
  -1  -6  -5   33.60    4.30
   1   6   5   33.40    6.70
   1   6   5   30.60    4.00
   1   6   5   27.80    5.00
   1   6   5   33.70    5.10
   1   6   5   33.60    5.00
  -2  -6  -5    8.30    1.80
  -2  -6  -5    6.60    4.40
  -2  -6  -5   10.50    1.40
  -2  -6  -5    8.60    7.70
  -2  -6  -5   10.20    3.30
   2   6   5   12.30    4.70
   2   6   5    8.10    4.50
   2   6   5    9.60    3.30
   2   6   5    7.50    3.50
   2   6   5   16.30    6.60
  -3  -6  -5  175.78    8.40
  -3  -6  -5  174.48   16.60
  -3  -6  -5  171.68   13.00
  -3  -6  -5  186.78   11.50
   3   6   5  169.98   11.70
   3   6   5  169.58   12.80
   3   6   5  184.28   15.00
   3   6   5  200.48   13.10
  -4  -6  -5   19.80    5.00
  -4  -6  -5   24.60    4.30
  -4  -6  -5   25.60    7.10
  -4  -6  -5   33.50   11.40
  -4  -6  -5   26.70    6.20
   4   6   5   19.60    6.60
   4   6   5   24.50    7.20
   4   6   5   21.50    4.60
  -5  -6  -5   11.40    6.80
  -5  -6  -5    5.50   11.90
  -5  -6  -5   16.80    6.20
  -5  -6  -5   -0.70    6.80
  -5  -6  -5    6.70    4.60
   5   6   5    3.50    9.20
   5   6   5   11.40    6.00
   5   6   5   12.80    5.10
   5   6   5    6.70    7.70
   5   6   5   14.00    6.10
  -6  -6  -5    2.50    8.30
  -6  -6  -5   -2.30    5.40
  -6  -6  -5   -7.10   12.10
  -6  -6  -5    0.40    6.30
  -6  -6  -5    2.90    7.20
   6   6   5    5.20    8.30
   6   6   5   10.20    6.30
   6   6   5    4.00    6.60
   6   6   5    4.80    6.20
   6   6   5    0.30    1.80
  -7  -6  -5    5.20   14.40
  -7  -6  -5    2.90    6.40
  -7  -6  -5    3.30    8.10
  -7  -6  -5    9.20    7.90
   7   6   5    7.40    3.00
   7   6   5    7.70    7.20
   7   6   5   13.60   11.20
   7   6   5   -2.80    8.40
   7   6   5   -4.60    5.90
  -8  -6  -5   35.30   12.00
  -8  -6  -5   31.80   11.30
  -8  -6  -5   40.00   10.70
  -8  -6  -5   12.70    9.50
  -8  -6  -5   24.10   10.70
   8   6   5   24.50    9.80
   8   6   5   51.09   11.20
   8   6   5   30.00    5.40
   4  -7  -5   -5.60    5.10
   4  -7  -5   -7.70    5.90
   4  -7  -5    0.70    2.70
   4  -7  -5   -1.10    4.90
   4  -7  -5   -4.60    8.70
   4  -7  -5   -7.00    5.20
  -4   7   5   -6.80    5.50
  -4   7   5    4.30    6.80
  -4   7   5   -3.60    6.00
  -4   7   5    1.70    6.60
   3  -7  -5   -1.20    3.90
   3  -7  -5    1.20    2.20
   3  -7  -5    0.90    6.40
   3  -7  -5   -2.40    4.20
   3  -7  -5   -2.30    4.30
  -3   7   5   -2.30    3.70
  -3   7   5   -7.60    4.20
  -3   7   5    0.60    6.30
  -3   7   5   -2.20    6.40
   1  -7  -5 2025.30   72.19
   1  -7  -5 2042.60   68.79
   1  -7  -5 2148.49   76.09
   1  -7  -5 2040.20   68.39
  -1   7   5 2076.69   71.89
  -1   7   5 1968.00   70.99
  -1   7   5 2005.40   68.19
   0  -7  -5   50.69    7.70
   0  -7  -5   56.39    5.50
   0  -7  -5   58.79   11.60
   0   7   5   53.19    6.00
   0   7   5   49.10    8.00
   0   7   5   40.40    6.20
   0   7   5   52.69    8.20
  -1  -7  -5   55.69    8.60
  -1  -7  -5   54.99    5.70
  -1  -7  -5   51.79   10.20
   1   7   5   58.89    5.70
   1   7   5   57.59    8.10
   1   7   5   52.39    7.70
   1   7   5   57.09    6.50
   1   7   5   46.80    7.20
  -2  -7  -5   89.19   10.60
  -2  -7  -5   88.59   13.30
  -2  -7  -5   78.39    7.50
   2   7   5   83.89    9.10
   2   7   5   85.19    9.90
   2   7   5   86.09   11.20
   2   7   5   95.49    7.50
   2   7   5   83.99    7.80
  -3  -7  -5   35.50    6.00
  -3  -7  -5   41.80   11.80
  -3  -7  -5   38.10    7.70
  -3  -7  -5   37.70    3.60
   3   7   5   37.00    7.60
   3   7   5   46.30   11.70
   3   7   5   28.10    7.10
  -4  -7  -5 1971.20   67.09
  -4  -7  -5 2007.60   70.59
  -4  -7  -5 1942.41   77.89
  -4  -7  -5 2035.20   72.09
  -4  -7  -5 2021.30   72.39
   4   7   5 2040.80   72.29
   4   7   5 2022.40   67.09
   4   7   5 2000.50   70.89
   4   7   5 2045.90   71.09
   4   7   5 2023.60   76.09
  -5  -7  -5  130.39   15.60
  -5  -7  -5  114.49    9.70
  -5  -7  -5  110.99   19.20
  -5  -7  -5  112.39   18.20
  -5  -7  -5  146.09   14.40
   5   7   5  133.39   10.50
   5   7   5  122.69   16.20
   5   7   5  122.19   14.00
   5   7   5  149.69   12.80
  -6  -7  -5   14.60    8.00
  -6  -7  -5    4.90    9.00
  -6  -7  -5   18.70    5.70
  -6  -7  -5   11.70   14.60
  -6  -7  -5   16.30    7.60
   6   7   5   10.80    7.90
   6   7   5   17.20    7.70
   6   7   5   21.30    7.30
   6   7   5   18.80    9.90
  -7  -7  -5   26.60    9.80
  -7  -7  -5   39.10   12.40
  -7  -7  -5   50.19   15.60
  -7  -7  -5   38.40    9.90
  -7  -7  -5   49.70    9.10
   7   7   5   40.10    4.10
   7   7   5   43.90    9.60
   7   7   5   54.09    9.20
   7   7   5   41.80   15.40
   7   7   5   63.69   14.20
   7   7   5   37.10   10.70
   4  -8  -5    1.30    2.20
   4  -8  -5    1.90    5.90
   4  -8  -5    3.80    6.40
  -4   8   5  -13.60    6.40
  -4   8   5    1.80    7.10
  -4   8   5    5.00    8.00
  -4   8   5    2.80    9.00
   3  -8  -5    4.00    1.50
   3  -8  -5   -6.30    5.10
   3  -8  -5    7.60    4.40
   3  -8  -5    5.30    6.20
  -3   8   5    1.30    5.50
  -3   8   5    6.10    5.80
  -3   8   5   -2.00    5.30
  -3   8   5   -0.70    7.30
  -3   8   5   -8.20    4.10
   2  -8  -5  -16.70   10.30
   2  -8  -5   -1.30    4.90
   2  -8  -5   -6.00    3.40
  -2   8   5   -6.10    2.80
  -2   8   5   -4.50    5.00
  -2   8   5    0.60    4.40
  -2   8   5   -7.90    6.80
   1  -8  -5  559.74   22.80
   1  -8  -5  573.14   31.20
   1  -8  -5  601.94   24.60
  -1   8   5  593.54   24.20
  -1   8   5  548.75   23.20
  -1   8   5  535.55   24.90
  -1   8   5  573.74   27.30
   0  -8  -5    4.10    9.90
   0  -8  -5    9.60    5.10
   0  -8  -5    5.60    2.80
   0   8   5   -1.70    3.80
   0   8   5    4.40    3.70
   0   8   5   -4.20    6.20
   0   8   5    3.60    4.80
  -1  -8  -5   73.59    7.20
  -1  -8  -5   75.79   10.50
  -1  -8  -5   83.19   14.00
   1   8   5   67.99    9.70
   1   8   5   64.69    9.00
   1   8   5   90.59   11.30
   1   8   5   67.89    9.90
   1   8   5   90.59    6.70
  -2  -8  -5   61.99    9.00
  -2  -8  -5   63.09    7.40
  -2  -8  -5   60.99   13.30
   2   8   5   85.19   11.30
   2   8   5   71.69   12.10
   2   8   5   74.39    8.80
   2   8   5   48.70    8.00
   2   8   5   72.29    6.80
  -3  -8  -5  103.19   13.90
  -3  -8  -5   95.99   10.10
  -3  -8  -5   88.79   14.10
   3   8   5  116.29   12.70
   3   8   5  116.09   13.30
   3   8   5  112.39   14.30
   3   8   5  101.99   11.00
  -4  -8  -5  609.44   24.30
  -4  -8  -5  661.73   31.50
  -4  -8  -5  706.93   29.20
  -4  -8  -5  643.54   36.70
   4   8   5  663.53   29.10
   4   8   5  689.03   34.60
   4   8   5  651.03   24.80
   4   8   5  689.03   30.50
   4   8   5  671.43   31.40
  -5  -8  -5  249.58   18.80
  -5  -8  -5  245.48   20.10
  -5  -8  -5  217.78   12.90
  -5  -8  -5  255.87   17.50
  -5  -8  -5  248.18   25.00
   5   8   5  254.47   14.50
   5   8   5  231.88   20.80
   5   8   5  242.08   17.60
  -6  -8  -5   28.30    8.70
  -6  -8  -5   30.80    6.10
  -6  -8  -5   15.40   11.40
  -6  -8  -5   16.70    8.00
   6   8   5   17.40    7.70
   6   8   5   24.90    7.30
   6   8   5   26.10   11.00
   6   8   5   14.10    8.10
  -7  -8  -5   10.80    9.40
  -7  -8  -5    5.40    8.60
  -7  -8  -5    9.40    7.00
  -7  -8  -5   19.60   15.50
  -7  -8  -5   14.40   10.50
   7   8   5    7.40    8.40
   7   8   5    5.20   13.30
   7   8   5    2.10    9.10
   7   8   5   10.70    8.60
   3  -9  -5    4.70    5.90
   3  -9  -5   -0.30   12.00
   3  -9  -5  -10.00    5.80
   3  -9  -5   22.40   11.00
  -3   9   5    3.50    4.90
  -3   9   5   18.30    6.70
  -3   9   5   -6.80    8.60
   2  -9  -5   -7.70    5.40
   2  -9  -5   -4.20    4.70
   2  -9  -5  -13.40   10.20
   2  -9  -5    6.50    7.60
  -2   9   5    0.20    7.80
  -2   9   5   -9.30    5.50
  -2   9   5   -4.10    4.90
   1  -9  -5 2468.05   89.89
   1  -9  -5 2375.56   80.49
   1  -9  -5 2381.06   81.19
  -1   9   5 2382.36   83.99
  -1   9   5 2394.56   80.89
  -1   9   5 2338.57   80.39
  -1   9   5 2221.08   82.69
   0  -9  -5    6.20    3.60
   0  -9  -5    8.70   11.40
   0  -9  -5   11.00    6.20
   0   9   5   10.80    5.50
   0   9   5   10.10    4.70
   0   9   5    7.60    6.40
   0   9   5    9.20    8.30
  -1  -9  -5  161.68   10.60
  -1  -9  -5  162.48   19.00
  -1  -9  -5  153.08   13.90
   1   9   5  182.68   14.70
   1   9   5  176.08   13.60
   1   9   5  180.18    9.00
   1   9   5  143.69   12.70
   1   9   5  159.98   11.70
  -2  -9  -5    0.80    3.80
  -2  -9  -5   -2.70   10.40
  -2  -9  -5   -4.50    6.60
   2   9   5   19.70    7.40
   2   9   5    2.40    6.40
   2   9   5    4.50    4.90
   2   9   5    8.40    3.70
  -3  -9  -5   94.69   18.00
  -3  -9  -5   80.79    9.90
  -3  -9  -5   90.29   13.80
   3   9   5   95.09   13.40
   3   9   5   82.19   11.80
   3   9   5   65.39   11.20
  -4  -9  -5   54.09   16.00
   4   9   5   37.00    9.90
   4   9   5   26.20    4.60
   4   9   5   27.50    9.80
  -5  -9  -5  313.57   21.50
  -5  -9  -5  315.27   28.90
  -5  -9  -5  343.27   24.60
  -5  -9  -5  317.57   19.80
   5   9   5  283.47   20.50
   5   9   5  300.67   16.50
   5   9   5  350.76   25.00
  -6  -9  -5    3.60    5.10
  -6  -9  -5    0.50    8.30
  -6  -9  -5    0.90    9.80
  -6  -9  -5   -3.20    7.60
  -6  -9  -5  -14.50   14.10
   6   9   5    7.00    8.60
   6   9   5    0.20    8.30
   6   9   5    5.10   10.40
   6   9   5    4.50    7.50
   6   9   5   13.80   13.40
  -7  -9  -5    1.50    9.60
  -7  -9  -5   13.40   16.30
  -7  -9  -5   -6.60    6.10
  -7  -9  -5   -0.50   10.00
  -7  -9  -5  -10.80    9.80
   7   9   5    0.80    8.00
   7   9   5  -22.60   11.00
   7   9   5   -6.80    8.80
   2 -10  -5   16.60   13.60
   2 -10  -5   17.50    9.50
   2 -10  -5   23.80    5.50
   2 -10  -5   14.60    7.40
  -2  10   5   19.10    7.50
  -2  10   5   12.60    7.70
  -2  10   5   10.80    9.70
  -2  10   5   15.70    9.50
   1 -10  -5   49.50    9.70
   1 -10  -5   74.29    9.40
   1 -10  -5   51.29   15.10
  -1  10   5   49.00   11.10
  -1  10   5   59.79    9.00
  -1  10   5   49.60    9.00
   0 -10  -5  917.81   37.50
   0 -10  -5  826.52   49.50
   0 -10  -5  922.71   35.10
   0  10   5  920.81   39.70
   0  10   5  939.81   37.60
   0  10   5  893.71   37.40
  -1 -10  -5  -12.10   11.00
   1  10   5   -8.30    6.40
   1  10   5    3.50    8.50
   1  10   5   -6.70    4.70
   1  10   5    0.30    2.60
  -2 -10  -5   -8.20   11.60
  -2 -10  -5  -12.70    6.60
   2  10   5   -6.50    5.20
   2  10   5  -10.90    6.60
   2  10   5   -0.60    8.40
   2  10   5   -2.90    3.40
  -3 -10  -5   68.09    8.80
  -3 -10  -5   54.69   15.80
  -3 -10  -5   64.99    5.80
  -3 -10  -5   47.40   10.60
   3  10   5   77.09    8.60
   3  10   5   93.69   14.20
   3  10   5   61.49   11.60
  -4 -10  -5   14.80   13.80
  -4 -10  -5   10.40    9.90
  -4 -10  -5    4.70    6.30
   4  10   5   10.20    9.40
   4  10   5   -3.40    9.50
   4  10   5    5.80   10.10
   4  10   5   14.50    3.80
  -5 -10  -5  550.04   31.60
  -5 -10  -5  556.64   38.20
  -5 -10  -5  589.34   28.50
   5  10   5  590.34   34.70
   5  10   5  633.74   33.40
   5  10   5  563.04   24.00
   5  10   5  541.95   29.60
  -6 -10  -5    1.80    8.60
  -6 -10  -5    7.20   16.20
  -6 -10  -5   15.20   10.20
  -6 -10  -5   20.80   10.20
   6  10   5  -10.70    8.70
   6  10   5    5.10    7.40
   6  10   5    9.70   12.20
   6  10   5   16.60   10.20
   6  10   5   -9.40   10.20
   1 -11  -5    8.20    7.80
   1 -11  -5   -3.00   13.60
   1 -11  -5   12.00    5.90
  -1  11   5   16.50   10.40
  -1  11   5   16.30    7.00
  -1  11   5   18.60    9.20
   0 -11  -5  136.69   16.60
   0 -11  -5  113.39   20.40
   0 -11  -5  122.49   11.50
   0  11   5  113.79   13.10
   0  11   5   94.79   12.50
   0  11   5   94.59   16.20
   0  11   5   91.39   14.20
  -1 -11  -5   27.80   10.90
  -1 -11  -5   55.69   15.80
  -1 -11  -5   25.50    5.90
   1  11   5   32.80    7.00
   1  11   5   37.70    7.60
   1  11   5   43.10   10.30
   1  11   5   49.60   11.50
  -2 -11  -5    9.10   14.00
  -2 -11  -5    6.30   11.20
   2  11   5   -2.50    9.10
   2  11   5   17.30    9.90
   2  11   5   10.40    4.10
   2  11   5   -6.70    6.40
  -3 -11  -5    6.80   12.90
  -3 -11  -5   -3.90    5.50
  -3 -11  -5   -3.00    3.50
  -3 -11  -5    6.30    8.80
   3  11   5  -12.10    9.40
   3  11   5   -9.90    8.40
   3  11   5    1.70    4.60
   3  11   5   -8.80    9.00
   3  11   5   -6.50    6.30
  -4 -11  -5   11.70    9.20
  -4 -11  -5   -7.50    6.30
  -4 -11  -5    3.70   15.10
   4  11   5   -1.40    8.70
   4  11   5   -3.70    9.60
   4  11   5  -10.10    6.40
  -5 -11  -5  391.56   26.10
  -5 -11  -5  376.46   32.60
  -5 -11  -5  307.27   21.70
   5  11   5  392.46   28.60
   5  11   5  374.36   25.20
   5  11   5  366.46   17.50
   5  11   5  360.56   23.20
  -1 -12  -5    0.10   14.20
  -1 -12  -5    8.70    9.10
   1  12   5    5.40    7.00
   1  12   5    7.50   10.70
   1  12   5    5.40   10.40
  -2 -12  -5  120.09   18.10
  -2 -12  -5   73.59   10.30
  -2 -12  -5   99.09   20.40
   2  12   5   92.49   14.80
   2  12   5  105.89    8.00
   2  12   5  143.39   17.20
  -3 -12  -5  -10.20   12.90
  -3 -12  -5   -3.20    4.20
  -3 -12  -5   -4.20    6.70
  -3 -12  -5    2.20    9.10
   3  12   5    7.10   11.10
   3  12   5   -5.90    7.90
   3  12   5    0.10    4.60
   3  12   5    3.90    9.90
  -4 -12  -5   17.20   10.10
  -4 -12  -5    6.30   13.90
   4  12   5    0.70    9.90
   4  12   5   -1.90   11.30
   3   9  -6    2.70    9.50
   3   9  -6   -2.70    8.20
   3   9  -6  -10.80    9.00
  -3  -9   6   -3.60    7.20
  -3  -9   6  -13.40   10.70
  -3  -9   6    6.50   12.20
   2   9  -6   12.10    8.60
   2   9  -6    6.80    9.30
   2   9  -6   21.70    9.80
  -2  -9   6   13.40   10.40
  -2  -9   6    5.40   11.00
  -2  -9   6   25.80   11.20
  -2  -9   6   11.40    8.40
   1   9  -6  207.08   19.70
   1   9  -6  156.98   14.30
   1   9  -6  166.38   17.40
  -1  -9   6  193.78   20.80
  -1  -9   6  191.08   18.10
  -1  -9   6  191.38   17.60
  -1  -9   6  206.88   22.40
   0   9  -6   38.30   10.60
   0   9  -6   31.40    6.60
   0   9  -6   47.60   10.00
   0  -9   6   29.70   11.30
   0  -9   6   31.30    8.60
   0  -9   6   16.50   10.40
   0  -9   6   35.70   12.00
   0  -9   6   43.50   11.00
  -1   9  -6    0.50    8.40
  -1   9  -6    4.00    4.10
  -1   9  -6  -13.00    8.20
   1  -9   6   -1.80   13.70
   1  -9   6   -2.40    9.50
   1  -9   6   -3.50    9.50
   1  -9   6   -0.50    8.60
  -2   9  -6   -9.30    9.00
  -2   9  -6  -10.80    8.80
   2  -9   6    3.90   11.00
   2  -9   6  -13.90    9.60
   4   8  -6  -11.90    8.80
   4   8  -6   -8.50    6.80
   4   8  -6  -14.80    7.40
   4   8  -6    4.60    6.60
  -4  -8   6   -5.80   11.10
  -4  -8   6   12.40    9.80
  -4  -8   6   -6.40    9.90
  -4  -8   6    8.80    5.20
   3   8  -6  -12.90    7.70
   3   8  -6   -1.00    7.90
  -3  -8   6   10.90    7.20
  -3  -8   6    0.00   10.20
  -3  -8   6    7.80   10.60
   2   8  -6  -13.10    6.20
   2   8  -6   -7.50    7.50
   2   8  -6   -1.90    6.00
  -2  -8   6   -3.90    9.50
  -2  -8   6    9.10    9.20
   1   8  -6   -2.00    6.30
   1   8  -6    3.20    7.90
  -1  -8   6   13.10   10.60
  -1  -8   6    7.50    8.10
  -1  -8   6   -4.10    8.50
  -1  -8   6    9.30    7.20
   0   8  -6   38.90    8.80
   0   8  -6   31.70   10.80
   0   8  -6   29.30    5.90
   0  -8   6   25.00   10.30
   0  -8   6   26.30    7.90
   0  -8   6   18.10    8.80
   0  -8   6   37.60    9.80
   0  -8   6   46.40   13.80
  -1   8  -6   27.70    4.60
  -1   8  -6   23.10    9.00
  -1   8  -6   24.20    8.10
   1  -8   6   31.60    9.50
   1  -8   6   23.90    8.10
   1  -8   6   28.40   10.30
   1  -8   6   26.30   10.10
  -2   8  -6  -14.30    7.40
  -2   8  -6   -3.30    3.00
  -2   8  -6   -9.40    8.00
   2  -8   6  -13.00    8.00
   2  -8   6  -11.20    9.20
   2  -8   6   -9.30    8.60
   2  -8   6   -7.80    7.80
  -3   8  -6   33.70    9.40
  -3   8  -6   42.00    9.80
  -3   8  -6   25.70    4.60
  -3   8  -6   43.50   10.90
   3  -8   6   49.30   11.20
   3  -8   6   35.10   11.20
   3  -8   6   31.20   11.70
   3  -8   6   21.30    5.80
   4   7  -6    5.20    9.10
   4   7  -6   11.60    6.60
   4   7  -6   12.00    9.80
   4   7  -6   -4.50    6.50
  -4  -7   6   15.50    3.90
  -4  -7   6    7.70   10.10
  -4  -7   6    4.60    7.60
  -4  -7   6    6.50   11.00
  -4  -7   6   25.90   11.20
   3   7  -6  -11.30    7.20
   3   7  -6   -4.60    4.40
  -3  -7   6   -4.20    6.70
  -3  -7   6   -7.80    8.60
  -3  -7   6   -2.10    4.30
  -3  -7   6    0.00    9.20
  -3  -7   6    3.80    9.30
   2   7  -6   -2.90    5.50
   2   7  -6   -5.60    7.10
   2   7  -6   -3.30    5.80
  -2  -7   6   -4.60    7.90
  -2  -7   6    3.60    5.30
  -2  -7   6   -3.60    8.00
   1   7  -6   31.40    8.50
   1   7  -6   32.70    6.50
   1   7  -6   23.80    7.00
  -1  -7   6   28.60    7.30
  -1  -7   6   34.40    8.20
  -1  -7   6   33.80   10.00
  -1  -7   6   27.60    9.20
   0   7  -6  315.27   18.50
   0   7  -6  364.26   20.90
   0   7  -6  359.66   19.60
   0  -7   6  368.96   22.20
   0  -7   6  319.77   20.50
   0  -7   6  315.27   18.40
   0  -7   6  354.66   22.60
  -1   7  -6   68.39   10.10
  -1   7  -6   71.09   11.80
  -1   7  -6   63.39    7.40
   1  -7   6   63.39   11.00
   1  -7   6   60.89   11.00
   1  -7   6   62.09    9.20
   1  -7   6   60.79   10.30
  -2   7  -6   -6.50    7.00
  -2   7  -6    2.60    2.70
   2  -7   6   -1.20    7.60
   2  -7   6   -1.20   13.60
   2  -7   6   -8.60    6.80
  -3   7  -6    0.30    3.20
  -3   7  -6   -9.40    7.70
  -3   7  -6   -4.80    8.00
   3  -7   6   -3.40    8.20
   3  -7   6    5.00    3.80
   3  -7   6    2.90    7.80
   3  -7   6  -13.60    8.90
  -4   7  -6   29.70    5.10
  -4   7  -6   33.80   10.20
  -4   7  -6   40.30   10.30
  -4   7  -6   35.00    9.80
   4  -7   6   37.40   10.40
   4  -7   6   28.10   11.50
   4  -7   6   22.70   11.70
   4  -7   6   34.40    5.60
   5   6  -6   16.40    7.80
   5   6  -6   17.00    9.40
   5   6  -6   20.60    9.50
  -5  -6   6   19.50   11.10
  -5  -6   6   10.60    7.20
  -5  -6   6   17.10    9.00
   4   6  -6   -0.10    5.90
   4   6  -6   -7.80    8.80
   4   6  -6    2.90    8.30
   4   6  -6   -3.40    5.70
  -4  -6   6   -7.20    5.10
  -4  -6   6    0.40    8.70
  -4  -6   6   -8.70    9.90
  -4  -6   6    0.70    2.30
  -4  -6   6    6.10    9.10
  -4  -6   6   -8.40    5.80
   3   6  -6  -11.00    7.30
   3   6  -6    5.00    5.20
   3   6  -6   -2.30    7.20
   3   6  -6    3.90    4.80
  -3  -6   6    1.70    7.20
  -3  -6   6   -0.10    3.60
  -3  -6   6   -4.10    8.20
  -3  -6   6  -15.60    7.40
   2   6  -6   50.69    8.00
   2   6  -6   62.59   10.00
   2   6  -6   49.40    9.00
  -2  -6   6   53.59    8.00
  -2  -6   6   67.99   10.70
  -2  -6   6   58.99   11.00
   1   6  -6    0.00    4.40
   1   6  -6    2.60    6.20
   1   6  -6   -3.90    4.50
  -1  -6   6   -1.40    7.40
  -1  -6   6   -5.40    7.70
  -1  -6   6    9.60    5.20
  -1  -6   6    0.10    6.90
   0   6  -6  902.11   35.60
   0   6  -6  907.11   36.80
   0   6  -6 1064.29   38.60
   0  -6   6 1004.40   40.10
   0  -6   6  938.31   38.40
   0  -6   6  857.91   35.20
   0  -6   6  975.60   38.70
  -1   6  -6  103.99   12.60
  -1   6  -6   79.99    8.50
  -1   6  -6   90.69   13.10
   1  -6   6   75.09   10.50
   1  -6   6   90.29   14.50
   1  -6   6  101.89   12.80
   1  -6   6   94.29   10.40
  -2   6  -6    5.70    3.60
  -2   6  -6    7.50    2.60
  -2   6  -6    5.50    6.80
  -2   6  -6    2.50    6.10
   2  -6   6   -0.70    6.30
   2  -6   6   12.10    5.80
   2  -6   6   10.40    7.40
   2  -6   6   -3.20    6.20
  -3   6  -6   -4.40    5.10
  -3   6  -6    9.60    7.30
  -3   6  -6    5.70    3.10
  -3   6  -6   11.30    7.70
   3  -6   6    6.10    7.80
   3  -6   6    7.70    3.30
   3  -6   6    3.40    7.40
  -4   6  -6   27.20    9.40
  -4   6  -6   18.80    4.50
  -4   6  -6   18.70    8.50
   4  -6   6   19.00    9.30
   4  -6   6    7.10    5.30
   4  -6   6   21.20    4.30
   4  -6   6   12.50    9.40
  -5   6  -6   25.30    6.30
  -5   6  -6   39.70   10.70
  -5   6  -6   34.20    9.90
   5  -6   6   30.70   10.40
   5  -6   6   25.80    6.50
   5  -6   6   28.30    5.60
   5   5  -6  381.26   22.70
   5   5  -6  377.26   25.10
   5   5  -6  368.06   24.00
   5   5  -6  339.97   22.00
   5   5  -6  358.56   19.90
  -5  -5   6  317.87   19.70
  -5  -5   6  403.76   26.10
  -5  -5   6  386.06   27.10
  -5  -5   6  350.46   19.40
   4   5  -6   44.90    7.30
   4   5  -6   68.99   11.40
   4   5  -6   56.39   12.60
  -4  -5   6   94.69   15.80
  -4  -5   6   62.99   12.70
  -4  -5   6   83.79   12.10
  -4  -5   6   51.19    8.30
   3   5  -6    3.40    6.20
   3   5  -6   10.80    7.50
   3   5  -6    1.00    4.50
   3   5  -6    9.90    4.60
   3   5  -6   -5.80    7.60
  -3  -5   6   19.30    4.60
  -3  -5   6    8.40    7.80
  -3  -5   6   -5.80    6.60
  -3  -5   6    9.20    8.80
  -3  -5   6    0.80    5.30
  -3  -5   6   10.80    3.10
   2   5  -6   75.99    9.00
   2   5  -6   63.49    9.00
   2   5  -6   83.99    6.40
  -2  -5   6   58.19    9.10
  -2  -5   6   74.09   12.20
  -2  -5   6   72.29    9.80
  -2  -5   6   85.99    7.40
  -2  -5   6   79.29    8.10
  -2  -5   6   84.49   13.80
   1   5  -6   96.69   11.20
   1   5  -6  103.69    9.40
  -1  -5   6  100.69    9.90
  -1  -5   6   93.99    9.80
  -1  -5   6   90.89   12.40
  -1  -5   6   80.39   11.40
   0   5  -6  114.39    9.40
   0   5  -6  119.49    9.90
   0   5  -6  109.89   11.30
   0  -5   6  101.79    8.40
   0  -5   6  109.39   10.00
   0  -5   6  122.99   13.90
   0  -5   6  106.19   11.00
   0  -5   6  126.69   13.30
  -1   5  -6  286.27   14.60
  -1   5  -6  315.57   16.70
  -1   5  -6  306.77   17.30
   1  -5   6  271.67   17.70
   1  -5   6  330.97   17.00
   1  -5   6  282.07   17.40
  -2   5  -6  162.98   21.20
  -2   5  -6  197.58   14.60
  -2   5  -6  177.58   11.20
  -2   5  -6  194.38   14.90
   2  -5   6  181.98   15.60
   2  -5   6  168.68   14.20
   2  -5   6  190.78   14.90
  -3   5  -6    1.90    6.50
  -3   5  -6    5.90    6.10
  -3   5  -6   -6.80    6.60
  -3   5  -6    7.00    3.10
  -3   5  -6    1.90    5.50
   3  -5   6    0.50    6.60
   3  -5   6    2.50    7.10
   3  -5   6    1.70    4.60
  -4   5  -6    3.30    3.70
  -4   5  -6   10.20    7.30
  -4   5  -6   -8.40    6.60
  -4   5  -6   -5.90    7.40
   4  -5   6    2.70    2.80
   4  -5   6    4.90    7.10
   4  -5   6   -1.20    7.70
   4  -5   6   -5.90    4.50
  -5   5  -6   25.70    5.50
  -5   5  -6   56.49   11.20
  -5   5  -6   37.40    9.40
   5  -5   6   42.60   10.30
   5  -5   6   41.00    6.50
  -6   5  -6  195.38   14.40
  -6   5  -6  230.78   21.90
   6  -5   6  197.08   20.80
   6  -5   6  245.38   23.30
   6  -5   6  201.78   14.70
   5   4  -6  202.58   22.30
   5   4  -6  201.78   14.40
   5   4  -6  159.48   18.60
   5   4  -6  196.38   16.70
  -5  -4   6  189.88   14.90
  -5  -4   6  235.58   22.00
  -5  -4   6  232.88   20.20
  -5  -4   6  189.18   14.50
   4   4  -6   17.60    7.90
   4   4  -6    8.90    8.60
   4   4  -6   21.40    4.70
   4   4  -6    4.20    8.00
  -4  -4   6   20.90    9.90
  -4  -4   6   10.40    7.90
  -4  -4   6   15.80    5.50
  -4  -4   6   11.50    5.80
   3   4  -6   -3.20    5.70
   3   4  -6    3.80    3.70
   3   4  -6    8.20    4.40
   3   4  -6   -4.30    5.80
   3   4  -6   -8.40    6.50
  -3  -4   6    4.90    4.30
  -3  -4   6   -6.40    7.10
  -3  -4   6    7.70    7.80
  -3  -4   6   -1.30    3.70
  -3  -4   6    5.80    1.90
  -3  -4   6   12.40    6.60
   2   4  -6    1.00    4.00
   2   4  -6   -3.40    4.90
   2   4  -6   -1.30    2.60
   2   4  -6   -3.00    3.10
   2   4  -6   -3.70    4.30
  -2  -4   6   -1.90    3.70
  -2  -4   6    3.40    6.10
  -2  -4   6   -4.50    4.90
  -2  -4   6   -1.00    2.70
  -2  -4   6   -0.40    3.70
  -2  -4   6   -5.40    4.50
   1   4  -6   60.99    7.20
   1   4  -6   74.79    9.00
   1   4  -6   74.39    7.50
  -1  -4   6   68.29    7.70
  -1  -4   6   66.29    9.10
  -1  -4   6   64.09    9.90
  -1  -4   6   71.19    3.90
  -1  -4   6   68.69    9.50
   0   4  -6   29.00    5.10
   0   4  -6   50.69    7.60
   0   4  -6   50.29    8.00
   0   4  -6   50.89    7.00
   0  -4   6   29.20    6.00
   0  -4   6   38.80    6.60
   0  -4   6   38.50    6.00
   0  -4   6   29.10    2.70
   0  -4   6   34.70    7.90
  -1   4  -6  191.98   11.30
  -1   4  -6  211.88   13.70
  -1   4  -6  210.68   12.50
  -1   4  -6  222.48   13.40
   1  -4   6  232.08   14.60
   1  -4   6  192.88   10.20
   1  -4   6  222.88   14.10
   1  -4   6  235.48   15.50
  -2   4  -6  136.59   12.40
  -2   4  -6  104.89    8.30
  -2   4  -6  107.69   10.50
  -2   4  -6  118.49    5.90
  -2   4  -6  110.89   11.80
   2  -4   6  140.79   12.80
   2  -4   6  125.39   10.10
   2  -4   6  109.89   12.20
   2  -4   6  101.89   11.10
  -3   4  -6    4.00    2.80
  -3   4  -6   -6.00    6.10
  -3   4  -6    0.00    5.90
   3  -4   6    5.90    4.40
   3  -4   6   -1.80    5.80
   3  -4   6   -0.50    1.60
   3  -4   6   -7.20    5.80
   3  -4   6  -10.40    5.20
  -4   4  -6    5.00    6.80
  -4   4  -6   10.70    5.50
  -4   4  -6   14.70    7.00
  -4   4  -6   12.40    4.10
  -4   4  -6    0.80    5.30
   4  -4   6    8.70    5.10
   4  -4   6   12.10    7.40
   4  -4   6   10.10    7.10
   4  -4   6   12.20    2.60
  -5   4  -6   14.80    8.00
  -5   4  -6   10.70    8.60
  -5   4  -6   -0.80    7.50
   5  -4   6   13.00    7.90
   5  -4   6   15.80    8.30
   5  -4   6   -0.50    5.00
  -6   4  -6  154.38   17.60
  -6   4  -6  137.09   17.60
  -6   4  -6  125.29   12.60
  -6   4  -6  172.28   19.30
   6  -4   6  133.09   12.70
   6  -4   6  165.78   20.40
   6  -4   6  167.18   19.60
   6  -4   6  120.09   18.50
   6   3  -6   23.20    4.80
   6   3  -6   13.10    9.40
   6   3  -6   20.60   10.60
   6   3  -6    8.70   10.40
   6   3  -6   28.30   13.80
  -6  -3   6   16.60    6.60
  -6  -3   6   27.80   10.30
   5   3  -6   29.60    8.90
   5   3  -6   44.10   10.10
   5   3  -6   24.30    5.90
   5   3  -6   29.40    9.30
  -5  -3   6   37.80    9.00
  -5  -3   6   30.60   11.60
  -5  -3   6   22.30    7.10
   4   3  -6   13.00    7.30
   4   3  -6   -4.50    3.50
   4   3  -6   -6.70    7.00
   4   3  -6    6.70    6.50
   4   3  -6    0.60    6.30
  -4  -3   6   -5.30    8.30
  -4  -3   6    4.70    7.10
  -4  -3   6   -6.30    4.60
  -4  -3   6    0.80    4.10
   3   3  -6  100.19   12.90
   3   3  -6  104.79    8.80
   3   3  -6  103.99    9.90
   3   3  -6  102.79   11.90
   3   3  -6  121.29   12.70
  -3  -3   6   85.79   12.10
  -3  -3   6  110.39   13.80
  -3  -3   6  104.59   13.80
  -3  -3   6  100.49    8.60
  -3  -3   6  111.89    9.30
   2   3  -6  308.87   13.90
   2   3  -6  320.37   14.60
   2   3  -6  297.07   17.30
   2   3  -6  304.57   17.50
   2   3  -6  295.97   15.90
  -2  -3   6  304.27   13.20
  -2  -3   6  315.17   17.70
  -2  -3   6  304.87   13.00
  -2  -3   6  311.27   16.40
  -2  -3   6  322.27   14.50
  -2  -3   6  317.37   17.90
   1   3  -6  382.76   18.00
   1   3  -6  388.26   16.00
   1   3  -6  366.46   16.20
   1   3  -6  401.16   17.40
  -1  -3   6  376.86   16.50
  -1  -3   6  378.06   18.40
  -1  -3   6  372.06   17.60
  -1  -3   6  374.46   16.20
  -1  -3   6  376.36   13.30
  -1  -3   6  356.56   20.00
   0   3  -6   -0.50    3.80
   0   3  -6    3.90    3.50
   0   3  -6    2.50    3.20
   0   3  -6   -0.20    2.70
   0  -3   6   -4.50    3.50
   0  -3   6   -3.30    5.20
   0  -3   6    0.50    3.90
   0  -3   6    0.40    3.00
   0  -3   6    1.10    3.80
  -1   3  -6   77.09    8.30
  -1   3  -6   93.09    9.60
  -1   3  -6   74.49    7.40
  -1   3  -6   63.39    6.80
   1  -3   6   65.39    6.10
   1  -3   6   85.39   10.30
  -2   3  -6   86.59    8.80
  -2   3  -6   70.49    9.00
  -2   3  -6   53.79    6.90
  -2   3  -6   64.59    4.10
  -2   3  -6   52.49    8.20
   2  -3   6   66.49    9.20
   2  -3   6   55.99    9.10
   2  -3   6   68.39    7.50
   2  -3   6   74.19    9.60
  -3   3  -6  156.58   13.20
  -3   3  -6  155.78   12.40
  -3   3  -6  157.88   12.60
  -3   3  -6  165.08    8.80
   3  -3   6  163.18   10.80
   3  -3   6  131.39   12.70
   3  -3   6  152.88   12.90
   3  -3   6  143.79   12.60
  -4   3  -6   84.69   12.50
  -4   3  -6   95.59   10.80
  -4   3  -6   76.99    9.10
  -4   3  -6   75.39   12.40
  -4   3  -6   94.49    8.10
   4  -3   6   97.59    9.10
   4  -3   6   95.69   12.30
   4  -3   6   98.79   13.50
   4  -3   6   90.09   12.50
  -5   3  -6   36.20    8.00
  -5   3  -6   35.90    8.70
  -5   3  -6   24.80    8.80
  -5   3  -6   21.50    5.80
   5  -3   6   36.40    9.00
   5  -3   6   23.80    6.00
   5  -3   6   30.00    9.40
  -6   3  -6    4.80   16.10
  -6   3  -6   23.60    8.50
  -6   3  -6   47.80   13.30
  -6   3  -6    8.40    6.30
   6  -3   6   17.30    6.20
   6  -3   6   19.20    7.20
   6  -3   6   38.40   10.40
   6   2  -6    2.70    5.50
   6   2  -6   16.70   10.70
   6   2  -6    0.20    8.40
   6   2  -6   11.40    3.60
   6   2  -6   37.20   13.10
   6   2  -6    1.70    9.00
  -6  -2   6    9.30    6.10
  -6  -2   6   13.80   10.30
  -6  -2   6   -1.00    5.90
  -6  -2   6   11.20    9.00
   5   2  -6   82.49   14.80
   5   2  -6   56.39   10.50
   5   2  -6   44.40   13.30
   5   2  -6   50.99    7.00
   5   2  -6   43.40    9.20
  -5  -2   6   61.29    9.50
  -5  -2   6   59.49    9.90
  -5  -2   6   48.10    8.80
   4   2  -6  166.58   14.80
   4   2  -6  184.78   14.90
   4   2  -6  173.28   15.40
   4   2  -6  165.48   10.70
   4   2  -6  152.78   15.50
  -4  -2   6  170.98   15.30
  -4  -2   6  157.98   12.80
  -4  -2   6  182.48   14.70
  -4  -2   6  176.28   11.20
   3   2  -6    2.40    5.40
   3   2  -6   -4.50    6.60
   3   2  -6    0.20    4.80
   3   2  -6    3.00    4.60
   3   2  -6    3.30    3.00
  -3  -2   6    3.80    5.30
  -3  -2   6    1.70    4.10
  -3  -2   6    6.40    7.30
  -3  -2   6    5.90    3.40
  -3  -2   6   -2.50    6.90
   2   2  -6  395.36   15.90
   2   2  -6  360.56   18.10
   2   2  -6  373.66   19.70
   2   2  -6  379.56   17.10
   2   2  -6  356.66   16.50
  -2  -2   6  384.56   19.60
  -2  -2   6  381.96   15.60
  -2  -2   6  354.96   14.30
  -2  -2   6  383.06   17.50
  -2  -2   6  378.46   15.50
  -2  -2   6  385.66   20.60
   1   2  -6  298.47   15.60
   1   2  -6  275.47   10.40
   1   2  -6  304.77   13.00
   1   2  -6  293.67   13.60
   1   2  -6  306.47   12.80
   1   2  -6  301.17   15.20
  -1  -2   6  298.87   13.20
  -1  -2   6  291.27   14.10
  -1  -2   6  273.27   16.60
  -1  -2   6  288.77   12.70
  -1  -2   6  299.87   11.00
  -1  -2   6  282.67   14.90
   0   2  -6  263.47   13.50
   0   2  -6  270.07   13.20
   0   2  -6  271.97   12.10
   0   2  -6  261.07   12.40
   0  -2   6  257.47   12.80
   0  -2   6  260.37   12.80
   0  -2   6  282.17   13.70
   0  -2   6  268.67   12.20
   0  -2   6  262.27   15.60
  -1   2  -6 1437.76   49.10
  -1   2  -6 1436.16   49.30
  -1   2  -6 1520.05   50.69
  -1   2  -6 1465.75   49.40
   1  -2   6 1358.16   47.00
   1  -2   6 1435.66   50.99
   1  -2   6 1242.48   45.80
   1  -2   6 1441.46   49.10
   1  -2   6 1490.35   51.39
   1  -2   6 1466.25   49.60
   1  -2   6 1436.46   49.99
  -2   2  -6   22.80    3.10
  -2   2  -6   21.90    5.70
  -2   2  -6   12.30    4.60
  -2   2  -6   16.80    4.00
  -2   2  -6   18.20    4.80
   2  -2   6   19.30    4.60
   2  -2   6   25.70    5.10
   2  -2   6   15.80    5.10
   2  -2   6   18.80    5.00
   2  -2   6   21.70    5.60
  -3   2  -6  313.77   16.80
  -3   2  -6  304.87   16.70
  -3   2  -6  315.27   17.90
  -3   2  -6  325.37   13.80
   3  -2   6  321.87   16.70
   3  -2   6  317.57   14.80
   3  -2   6  300.57   16.80
   3  -2   6  301.87   17.10
   3  -2   6  310.27   17.30
  -4   2  -6   34.30    7.60
  -4   2  -6   34.70    6.80
  -4   2  -6   27.50    7.70
  -4   2  -6   38.80    6.20
  -4   2  -6   33.90    7.50
   4  -2   6   37.50    5.90
   4  -2   6   38.80    6.80
   4  -2   6   37.30    7.90
   4  -2   6   34.40    7.90
   4  -2   6   33.00    8.80
  -5   2  -6   15.80    5.10
  -5   2  -6   16.00    7.50
  -5   2  -6   18.80    6.40
   5  -2   6   19.80   10.60
   5  -2   6   22.30    7.90
   5  -2   6   18.30    7.90
   5  -2   6   18.10    5.50
   5  -2   6   17.40    8.10
   6  -2   6   76.19   11.40
  -7   2  -6    5.30    9.80
  -7   2  -6    6.00    5.00
  -7   2  -6    6.70    5.50
  -7   2  -6   21.80   11.30
  -7   2  -6    8.70    9.50
  -7   2  -6   -4.20    9.20
   7  -2   6   10.60    9.40
   7  -2   6    3.30    6.90
   7  -2   6    5.80    9.30
   7  -2   6   32.80   10.90
   7  -2   6   34.30   14.50
   6   1  -6    2.90   11.10
   6   1  -6   30.50   14.20
   6   1  -6    3.30    2.70
   6   1  -6  -17.70    8.90
   6   1  -6   -8.70    5.00
  -6  -1   6    9.90    7.70
  -6  -1   6   -1.80    5.30
  -6  -1   6   -7.60    5.80
  -6  -1   6  -10.40    9.60
   5   1  -6   69.29   14.50
   5   1  -6  108.79   17.00
   5   1  -6   70.19   10.20
   5   1  -6   88.29    6.90
   5   1  -6   68.19   11.20
   5   1  -6   70.99    8.50
  -5  -1   6   70.39    9.60
  -5  -1   6   84.29   10.30
   4   1  -6   97.59   12.40
   4   1  -6  113.49   13.90
   4   1  -6  108.69   12.90
   4   1  -6  110.19   13.40
   4   1  -6  100.39    8.00
  -4  -1   6  111.39   15.00
  -4  -1   6  101.09   10.40
  -4  -1   6  104.69    8.80
  -4  -1   6   98.39   14.80
   3   1  -6   77.09    9.90
   3   1  -6   81.49    6.70
   3   1  -6  103.09    9.80
   3   1  -6   76.09    9.20
   3   1  -6   85.39   11.30
  -3  -1   6   73.79   10.60
  -3  -1   6   67.39    7.50
  -3  -1   6   97.29    6.90
  -3  -1   6   88.99    8.50
   2   1  -6  245.48   10.70
   2   1  -6  233.58   12.00
   2   1  -6  210.88   14.00
   2   1  -6  218.58    9.40
   2   1  -6  250.87   15.00
  -2  -1   6  229.18   13.80
  -2  -1   6  239.88   11.40
  -2  -1   6  236.78   11.10
  -2  -1   6  237.28   15.70
  -2  -1   6  238.78   10.40
   1   1  -6   30.00    4.10
   1   1  -6   34.00    5.10
   1   1  -6   33.90    4.10
   1   1  -6   28.40    5.30
   1   1  -6   27.80    3.80
   1   1  -6   38.90    6.10
  -1  -1   6   27.50    6.70
  -1  -1   6   36.00    4.80
  -1  -1   6   36.00    3.80
  -1  -1   6   28.20    4.40
  -1  -1   6   33.70    4.10
  -1  -1   6   37.50    5.90
   0   1  -6 1659.53   55.09
   0   1  -6 1559.64   53.49
   0   1  -6 1633.04   55.39
   0   1  -6 1569.84   53.39
   0   1  -6 1625.24   56.09
   0  -1   6 1572.34   53.59
   0  -1   6 1593.24   55.19
   0  -1   6 1679.83   57.09
   0  -1   6 1642.14   54.39
  -1   1  -6  815.82   26.70
  -1   1  -6  868.51   30.80
  -1   1  -6  812.82   31.70
  -1   1  -6  836.02   30.10
  -1   1  -6  850.31   29.90
   1  -1   6  881.51   30.00
   1  -1   6  827.32   31.90
   1  -1   6  864.01   32.30
   1  -1   6  805.52   28.20
   1  -1   6  826.42   27.30
   1  -1   6  854.11   31.30
   1  -1   6  834.02   30.30
  -2   1  -6  918.61   34.50
  -2   1  -6  951.50   34.20
  -2   1  -6  970.40   35.90
  -2   1  -6  970.20   33.90
   2  -1   6  954.10   36.10
   2  -1   6  949.21   34.10
   2  -1   6  882.81   33.80
   2  -1   6  938.61   33.80
   2  -1   6  899.01   34.60
  -3   1  -6   23.20    4.20
  -3   1  -6    7.10    4.50
  -3   1  -6    7.80    4.90
  -3   1  -6   18.70    4.20
  -3   1  -6    4.70    5.80
   3  -1   6   14.20    5.00
   3  -1   6   12.60    5.10
   3  -1   6   21.40    4.60
   3  -1   6   21.80    6.50
   3  -1   6   16.50    4.60
  -4   1  -6   57.59    8.50
  -4   1  -6   56.19    8.20
  -4   1  -6   63.69    7.30
  -4   1  -6   61.09    8.80
  -4   1  -6   62.59    6.80
   4  -1   6   52.49    7.50
   4  -1   6   49.30    8.10
   4  -1   6   70.39   10.60
   4  -1   6   55.69    8.30
   4  -1   6   54.69   10.70
  -5   1  -6    3.50    6.20
  -5   1  -6   -4.70    6.20
   5  -1   6   -8.70    5.50
   5  -1   6    1.20    4.70
   5  -1   6   -0.80    6.50
   5  -1   6   -6.10    6.30
  -6   1  -6   10.60    8.20
  -6   1  -6   22.40    5.40
  -6   1  -6   18.00    8.70
  -6   1  -6   22.30    8.90
   6  -1   6    7.70    8.80
   6  -1   6   39.70   13.60
   6  -1   6    9.90    7.20
   6  -1   6   24.80    9.20
   6  -1   6   10.30    6.00
  -7   1  -6   60.19   12.10
  -7   1  -6   43.70    9.70
  -7   1  -6   49.00    7.40
  -7   1  -6   41.40    8.90
  -7   1  -6   33.60   10.80
   7  -1   6   39.50   11.30
   7  -1   6   48.00   11.80
   7  -1   6   36.30    9.50
   7  -1   6   45.80    8.20
   6   0  -6    2.80    6.30
   6   0  -6    5.90    5.30
   6   0  -6   16.40   15.20
   6   0  -6    1.00    8.20
  -6   0   6  -13.30    9.10
  -6   0   6    4.80    7.50
  -6   0   6   10.90    5.70
  -6   0   6    0.40    6.00
   5   0  -6  201.38   12.30
   5   0  -6  207.38   18.60
   5   0  -6  211.78   10.30
   5   0  -6  215.48   18.60
  -5   0   6  276.17   24.60
  -5   0   6  200.28   12.60
  -5   0   6  199.68   15.00
   4   0  -6  128.89    8.40
   4   0  -6  114.79   13.80
   4   0  -6  109.99    8.20
  -4   0   6  133.99    8.60
  -4   0   6  119.89   15.20
  -4   0   6  110.49   11.00
   3   0  -6  221.88   23.40
   3   0  -6  244.48   11.70
   3   0  -6  267.77   16.30
   3   0  -6  254.17   13.60
   3   0  -6  288.37   16.80
   3   0  -6  223.48   13.10
  -3   0   6  258.97   11.20
  -3   0   6  266.17   14.10
  -3   0   6  260.37   16.20
   2   0  -6  349.47   13.50
   2   0  -6  375.66   18.30
   2   0  -6  357.46   13.70
   2   0  -6  351.66   14.90
   2   0  -6  352.06   18.40
   2   0  -6  343.87   17.60
  -2   0   6  356.96   15.40
  -2   0   6  362.66   13.20
  -2   0   6  341.87   18.10
   1   0  -6  704.43   26.60
   1   0  -6  664.73   23.10
   1   0  -6  657.23   24.70
   1   0  -6  699.03   26.90
   1   0  -6  686.63   23.70
   1   0  -6  680.83   27.30
  -1   0   6  705.93   28.40
  -1   0   6  710.93   28.00
  -1   0   6  704.13   24.20
  -1   0   6  666.23   22.90
  -1   0   6  601.24   24.10
   0   0  -6  201.38    9.80
   0   0  -6  218.58    9.40
   0   0  -6  246.68   12.10
   0   0  -6  228.48   11.40
   0   0  -6  248.68    9.80
   0   0  -6  254.57   12.70
   0   0  -6  226.88   11.70
   0   0   6  240.18   11.20
   0   0   6  240.08    9.00
   0   0   6  225.78    9.60
   0   0   6  230.68   11.70
   0   0   6  232.48   13.30
  -1   0  -6  202.08   10.50
  -1   0  -6  190.48    8.50
  -1   0  -6  189.08   12.00
  -1   0  -6  189.68    9.40
  -1   0  -6  194.78    9.40
   1   0   6  188.28   11.30
   1   0   6  191.48   11.70
   1   0   6  207.68    8.40
   1   0   6  190.88   11.00
   1   0   6  196.78    9.70
  -2   0  -6 1366.06   47.80
  -2   0  -6 1382.56   47.50
  -2   0  -6 1358.26   47.20
  -2   0  -6 1378.26   49.10
   2   0   6 1364.16   46.90
   2   0   6 1399.16   48.00
   2   0   6 1403.26   47.70
   2   0   6 1375.76   47.90
   2   0   6 1307.07   47.60
   2   0   6 1408.26   49.50
  -3   0  -6   85.89    9.50
  -3   0  -6   98.49    9.20
  -3   0  -6   78.79    9.10
  -3   0  -6  106.59    7.40
   3   0   6  103.59    9.70
   3   0   6   91.39    9.90
   3   0   6   75.99    9.60
   3   0   6   99.99    7.30
   3   0   6   86.49    9.30
  -4   0  -6  311.47   15.50
  -4   0  -6  287.37   16.20
  -4   0  -6  281.27   16.70
   4   0   6  272.47   16.70
   4   0   6  295.17   17.30
   4   0   6  281.87   16.90
   4   0   6  289.27   18.20
   4   0   6  287.97   14.00
  -5   0  -6   77.69   10.30
  -5   0  -6   91.89    6.80
  -5   0  -6   86.09   12.30
  -5   0  -6   75.99   12.70
  -5   0  -6   98.29    8.80
   5   0   6   87.19   11.50
   5   0   6   87.99   16.40
   5   0   6   83.49    9.70
   5   0   6   80.99   12.30
   5   0   6   95.19   13.60
  -6   0  -6    6.00    8.00
  -6   0  -6    4.60    3.90
  -6   0  -6   -8.90    5.40
  -6   0  -6   -1.10    5.90
  -6   0  -6    0.70    7.40
  -6   0  -6    9.90    8.00
  -6   0  -6    6.00    4.10
   6   0   6    5.40   11.10
   6   0   6    8.10    8.10
   6   0   6   14.00    8.10
   6   0   6    6.00    6.90
   6   0   6    5.10    5.70
  -7   0  -6  168.68   12.80
  -7   0  -6  181.58   20.80
  -7   0  -6  168.88   18.40
  -7   0  -6  151.48   15.50
  -7   0  -6  179.58   16.40
  -7   0  -6  165.58   10.00
   7   0   6  186.18   20.90
   7   0   6  195.28   23.50
   7   0   6  151.98   17.90
   6  -1  -6   23.20    8.30
   6  -1  -6   34.20    7.90
  -6   1   6    7.40    6.10
  -6   1   6   15.40    8.50
  -6   1   6   20.40    8.40
  -6   1   6   14.80    7.70
   5  -1  -6   23.10    9.20
   5  -1  -6   19.20    3.30
   5  -1  -6   23.30    6.10
   5  -1  -6   18.80    4.70
  -5   1   6   14.30    4.30
  -5   1   6   13.40    7.50
  -5   1   6   20.90    7.00
  -5   1   6   23.90    5.00
   4  -1  -6  184.08    9.80
   4  -1  -6  170.58   11.70
   4  -1  -6  173.88   15.10
   4  -1  -6  168.58    9.50
   4  -1  -6  142.39   15.90
  -4   1   6  180.08   16.70
  -4   1   6  157.18   12.60
  -4   1   6  159.28    9.60
   3  -1  -6  467.35   19.30
   3  -1  -6  442.56   17.40
   3  -1  -6  467.05   22.00
   3  -1  -6  436.46   17.30
   3  -1  -6  443.06   23.50
   3  -1  -6  473.25   22.60
  -3   1   6  442.86   23.00
  -3   1   6  438.76   20.20
  -3   1   6  439.16   16.60
  -3   1   6  429.06   17.00
   2  -1  -6    1.30    2.50
   2  -1  -6    6.00    4.40
   2  -1  -6    4.80    3.20
   2  -1  -6    1.20    2.70
   2  -1  -6   -1.30    4.60
   2  -1  -6    5.70    1.60
   2  -1  -6    8.20    5.70
  -2   1   6    6.00    1.20
  -2   1   6    5.10    1.50
  -2   1   6    9.30    3.40
  -2   1   6    8.40    5.40
   1  -1  -6  144.79    6.20
   1  -1  -6  126.69    8.90
   1  -1  -6  139.89    5.50
   1  -1  -6  122.29    9.10
   1  -1  -6  135.49    9.20
   1  -1  -6  139.79   10.20
  -1   1   6  142.59    9.90
  -1   1   6  142.89   11.40
  -1   1   6  126.59    7.70
   0  -1  -6  959.40   33.80
   0  -1  -6 1036.00   36.20
   0  -1  -6  997.40   34.80
   0  -1  -6  954.80   34.90
   0  -1  -6  924.21   31.60
   0  -1  -6  909.11   31.80
   0  -1  -6 1022.90   35.60
   0  -1  -6  983.80   34.70
   0   1   6  923.91   31.60
   0   1   6 1024.40   36.20
   0   1   6  929.51   31.40
  -1  -1  -6  996.10   35.00
  -1  -1  -6  983.80   37.50
  -1  -1  -6 1036.90   36.30
  -1  -1  -6 1014.80   34.70
  -1  -1  -6 1030.80   35.10
  -1  -1  -6  981.00   36.20
  -1  -1  -6 1038.90   37.40
   1   1   6 1085.19   35.50
   1   1   6 1037.60   37.00
   1   1   6 1079.59   37.60
   1   1   6 1054.99   36.60
   1   1   6  994.50   34.20
   1   1   6 1039.60   35.20
  -2  -1  -6 1187.28   43.40
  -2  -1  -6 1218.78   42.90
  -2  -1  -6 1113.49   42.70
  -2  -1  -6 1209.08   41.30
  -2  -1  -6 1128.59   38.60
  -2  -1  -6 1223.68   41.40
   2   1   6 1206.28   41.50
   2   1   6 1242.18   41.70
   2   1   6 1168.48   42.30
   2   1   6 1158.58   41.50
   2   1   6 1195.68   43.30
   2   1   6 1165.28   40.80
  -3  -1  -6    9.20    4.50
  -3  -1  -6    3.10    4.60
  -3  -1  -6    6.30    4.20
  -3  -1  -6    7.80    4.10
  -3  -1  -6   14.90    4.00
   3   1   6   12.40    4.00
   3   1   6   18.40    5.60
   3   1   6    2.30    4.40
   3   1   6    8.00    3.30
   3   1   6    4.30    4.40
  -4  -1  -6   13.80    4.60
  -4  -1  -6   18.10    4.80
  -4  -1  -6   18.70    3.10
  -4  -1  -6   14.10    6.00
  -4  -1  -6   14.00    5.90
  -4  -1  -6   15.80    4.80
   4   1   6   15.30    5.50
   4   1   6   17.30    4.10
   4   1   6   11.30    5.70
   4   1   6   13.20    5.60
   4   1   6   19.60    7.20
  -5  -1  -6    1.00    5.60
  -5  -1  -6    5.40    3.90
  -5  -1  -6   -0.70    3.60
  -5  -1  -6   -4.70    5.90
  -5  -1  -6    1.40    3.30
  -5  -1  -6   -0.10    6.30
   5   1   6    0.40    4.90
   5   1   6   -4.80    4.60
   5   1   6   -3.60    4.90
   5   1   6    1.40    7.70
   5   1   6   -7.10    5.70
  -6  -1  -6  317.77   15.10
  -6  -1  -6  338.47   16.50
  -6  -1  -6  303.07   18.20
  -6  -1  -6  331.37   21.60
  -6  -1  -6  324.37   21.80
  -6  -1  -6  317.87   20.80
   6   1   6  341.07   22.90
   6   1   6  297.07   24.00
   6   1   6  340.47   20.30
   6   1   6  346.37   22.10
  -7  -1  -6    9.00    6.40
  -7  -1  -6    7.40    6.80
  -7  -1  -6    8.10    8.50
  -7  -1  -6    6.20    9.70
  -7  -1  -6   11.90    9.30
  -7  -1  -6   16.40    9.10
  -7  -1  -6    9.30    3.60
   7   1   6   26.20   15.60
   7   1   6    8.30    7.60
   7   1   6   21.60    9.90
   7   1   6   12.10    9.30
  -8  -1  -6   -1.50    6.70
  -8  -1  -6   -1.40    8.60
  -8  -1  -6   13.50   10.60
  -8  -1  -6    1.00    9.60
  -8  -1  -6    6.60   15.10
   8   1   6   20.60   11.50
   8   1   6   10.90    9.40
   8   1   6   11.10   10.60
   5  -2  -6   27.00    4.50
   5  -2  -6   55.79    9.50
   5  -2  -6   41.80    2.10
   5  -2  -6   27.80    9.30
  -5   2   6   26.60    5.20
  -5   2   6   25.50    9.90
  -5   2   6   28.20    6.80
  -5   2   6   33.10    5.70
   4  -2  -6  157.58    8.80
   4  -2  -6  176.98    9.80
   4  -2  -6  174.68    9.30
   4  -2  -6  160.48   15.10
   4  -2  -6  183.98   11.20
   4  -2  -6  176.78    7.70
  -4   2   6  162.88   13.10
  -4   2   6  182.88    9.60
  -4   2   6  181.38   16.60
   3  -2  -6   45.20    9.50
   3  -2  -6   50.79    6.60
   3  -2  -6   52.49    8.30
   3  -2  -6   66.49   11.20
   3  -2  -6   48.50    5.00
   3  -2  -6   39.90    6.40
  -3   2   6   48.30    7.80
  -3   2   6   40.90    4.60
  -3   2   6   43.40    9.00
  -3   2   6   45.70    4.10
   2  -2  -6  233.08   11.30
   2  -2  -6  217.28   14.30
   2  -2  -6  227.98   12.30
   2  -2  -6  227.98   11.70
   2  -2  -6  211.98    8.80
   2  -2  -6  208.98   12.80
   2  -2  -6  233.38   14.50
  -2   2   6  225.78   14.20
  -2   2   6  222.38   11.90
   1  -2  -6   34.50    5.10
   1  -2  -6   27.60    5.30
   1  -2  -6   34.10    5.60
   1  -2  -6   26.50    4.70
   1  -2  -6   23.10    4.90
   1  -2  -6   37.60    5.90
  -1   2   6   29.30    4.40
   0  -2  -6    5.10    1.00
   0  -2  -6    5.50    3.20
   0   2   6    3.80    2.50
   0   2   6    7.60    4.10
   0   2   6    1.80    3.50
  -1  -2  -6 6439.66  204.58
  -1  -2  -6 6768.42  206.38
  -1  -2  -6 6454.45  204.48
  -1  -2  -6 6314.67  203.88
  -1  -2  -6 6624.34  206.48
  -1  -2  -6 6081.89  205.68
   1   2   6 6248.88  202.88
   1   2   6 6366.46  204.88
   1   2   6 6287.67  204.88
  -2  -2  -6  509.25   19.80
  -2  -2  -6  541.75   20.10
  -2  -2  -6  492.05   21.50
  -2  -2  -6  550.64   20.30
  -2  -2  -6  435.26   21.60
  -2  -2  -6  520.05   21.40
   2   2   6  490.05   20.00
   2   2   6  496.95   19.80
   2   2   6  519.65   19.90
   2   2   6  465.25   19.20
   2   2   6  491.25   21.10
   2   2   6  457.25   20.90
  -3  -2  -6  499.45   22.00
  -3  -2  -6  525.75   21.60
  -3  -2  -6  510.75   21.90
  -3  -2  -6  517.95   20.40
  -3  -2  -6  530.45   23.40
  -3  -2  -6  508.65   24.50
   3   2   6  495.95   20.80
   3   2   6  505.75   21.80
   3   2   6  512.95   23.80
   3   2   6  535.55   22.90
   3   2   6  512.05   21.80
  -4  -2  -6   25.00    6.80
  -4  -2  -6   32.30    5.50
  -4  -2  -6   37.30    7.20
  -4  -2  -6   37.90    6.30
  -4  -2  -6   33.40    5.50
   4   2   6   22.10    6.40
   4   2   6   35.50    6.40
   4   2   6   37.10    8.80
   4   2   6   37.40    6.50
   4   2   6   32.90    5.80
  -5  -2  -6   -0.50    5.30
  -5  -2  -6   -3.10    3.50
  -5  -2  -6    0.00    5.50
  -5  -2  -6    1.50    6.20
  -5  -2  -6    3.20    3.50
  -5  -2  -6    0.50    5.80
   5   2   6   -7.30    5.60
   5   2   6    1.50    6.10
   5   2   6   -6.60    4.90
   5   2   6   -9.90    7.00
  -6  -2  -6   51.49   10.30
  -6  -2  -6   48.50    6.60
  -6  -2  -6   56.79   10.10
  -6  -2  -6   49.00    8.90
  -6  -2  -6   54.89    7.60
  -6  -2  -6   49.30    8.50
   6   2   6   56.99   14.00
   6   2   6   48.60   10.40
   6   2   6   59.89   10.30
  -7  -2  -6  114.19   18.40
  -7  -2  -6   91.39   14.10
  -7  -2  -6   98.89    7.60
  -7  -2  -6   85.09   11.90
  -7  -2  -6  100.29   16.20
  -7  -2  -6   76.09   12.10
   7   2   6   76.69   12.60
   7   2   6   80.69   11.30
   7   2   6   97.99   13.90
  -8  -2  -6  124.69   15.40
  -8  -2  -6  167.38   20.60
  -8  -2  -6  170.78   22.50
  -8  -2  -6  153.88   21.20
  -8  -2  -6  154.28   17.20
   8   2   6  178.28   28.70
   8   2   6  168.68   21.80
   8   2   6  125.29   17.40
   8   2   6  140.59   20.20
   5  -3  -6    0.30    8.40
   5  -3  -6   25.20    9.50
   5  -3  -6    1.60    4.50
   5  -3  -6   -0.50    2.60
   5  -3  -6    1.90    3.90
   5  -3  -6   -9.40    7.40
  -5   3   6    9.20    4.60
  -5   3   6    7.20    5.10
   4  -3  -6   88.79    8.40
   4  -3  -6   76.29    7.00
   4  -3  -6   74.89   12.10
   4  -3  -6   76.99    6.10
  -4   3   6   87.79   10.60
  -4   3   6   87.79   11.90
  -4   3   6   82.59    8.10
   3  -3  -6   11.80    6.60
   3  -3  -6   17.70    6.10
   3  -3  -6   22.70    4.30
   3  -3  -6   13.70    3.60
   3  -3  -6   11.70    6.50
   3  -3  -6   10.30    3.20
  -3   3   6   15.80    5.90
  -3   3   6   13.00    2.30
  -3   3   6   12.20    2.80
   2  -3  -6   13.80    4.80
   2  -3  -6   20.00    5.70
   2  -3  -6    5.30    3.50
   2  -3  -6    9.90    1.90
   2  -3  -6   10.30    5.50
   2  -3  -6   14.70    3.60
  -2   3   6   12.30    4.40
   1  -3  -6  121.59    9.60
   1  -3  -6  122.19    8.50
   1  -3  -6  127.19    8.00
   1  -3  -6  123.49    9.80
   1  -3  -6  117.99    8.50
  -1   3   6  119.09    8.10
   0  -3  -6   34.10    5.60
   0  -3  -6   28.50    4.80
   0  -3  -6   33.20    6.60
   0  -3  -6   27.70    3.90
   0  -3  -6   22.60    4.90
   0  -3  -6   29.70    4.50
   0   3   6   25.40    4.90
   0   3   6   28.00    4.20
  -1  -3  -6  366.76   17.30
  -1  -3  -6  403.36   19.00
  -1  -3  -6  381.66   14.90
  -1  -3  -6  381.76   18.40
  -1  -3  -6  411.56   16.20
  -1  -3  -6  396.26   16.10
  -1  -3  -6  373.66   15.10
   1   3   6  384.16   14.40
   1   3   6  377.76   17.90
   1   3   6  457.65   18.30
   1   3   6  407.06   16.00
   1   3   6  384.86   16.60
   1   3   6  409.96   16.90
  -2  -3  -6  126.99    8.90
  -2  -3  -6  119.19    8.50
  -2  -3  -6  113.29   10.80
  -2  -3  -6  115.99   10.70
  -2  -3  -6  113.19    7.80
   2   3   6  113.69    7.80
   2   3   6  116.39    7.20
   2   3   6  125.09    7.80
   2   3   6  126.29   10.30
  -3  -3  -6  382.86   18.60
  -3  -3  -6  323.07   14.50
  -3  -3  -6  319.57   15.70
  -3  -3  -6  376.26   16.70
  -3  -3  -6  364.56   17.00
  -3  -3  -6  339.97   19.60
   3   3   6  295.57   15.10
   3   3   6  331.27   16.20
   3   3   6  360.76   16.40
   3   3   6  297.07   18.10
  -4  -3  -6    0.90    5.10
  -4  -3  -6    6.00    3.20
  -4  -3  -6    2.40    8.10
  -4  -3  -6   -3.20    4.70
  -4  -3  -6    5.50    3.90
  -4  -3  -6    4.80    3.60
   4   3   6    2.90    4.10
   4   3   6    1.00    4.90
   4   3   6    7.60    3.80
   4   3   6   -3.30    5.70
   4   3   6    0.30    4.10
  -5  -3  -6   10.10    4.70
  -5  -3  -6    7.70    5.30
  -5  -3  -6   11.60    3.90
  -5  -3  -6    9.10    4.60
  -5  -3  -6    3.60    6.10
   5   3   6   -0.20    5.90
   5   3   6   10.70    5.50
  -6  -3  -6   94.19   12.80
  -6  -3  -6   87.69   11.10
  -6  -3  -6   77.99   11.00
  -6  -3  -6   90.49    7.80
  -6  -3  -6   71.09   11.00
  -6  -3  -6  115.69   15.30
   6   3   6   94.59   13.40
   6   3   6   90.19   15.50
   6   3   6   86.29   11.40
   6   3   6   54.89    9.60
   6   3   6   76.89   15.90
  -7  -3  -6    6.70    8.00
  -7  -3  -6    0.90    8.80
  -7  -3  -6    3.10    3.30
  -7  -3  -6    0.30    6.80
  -7  -3  -6    3.60    6.80
  -7  -3  -6   -1.10    7.70
   7   3   6   17.20    9.00
   7   3   6   -0.60    5.50
   7   3   6    2.70    6.10
   7   3   6    8.20    9.00
  -8  -3  -6  120.79   15.60
  -8  -3  -6   86.89   14.90
  -8  -3  -6  112.89   15.90
  -8  -3  -6   90.29   13.70
  -8  -3  -6   68.29   13.00
   8   3   6   91.29   14.50
   8   3   6  114.09   19.00
   8   3   6   92.09   14.40
   8   3   6  117.49   23.10
   5  -4  -6   21.60    4.70
   5  -4  -6   31.20   10.80
   5  -4  -6   34.90    9.70
   5  -4  -6   27.30   10.20
   5  -4  -6   23.40    4.10
   5  -4  -6   29.60    5.90
  -5   4   6   24.10    7.40
  -5   4   6   34.20    6.00
   4  -4  -6   44.10    6.10
   4  -4  -6   47.00    6.30
   4  -4  -6   46.50   10.00
   4  -4  -6   59.99    9.50
   4  -4  -6   56.49    7.60
  -4   4   6   53.49    8.40
  -4   4   6   58.79    9.50
  -4   4   6   50.89    8.10
   3  -4  -6   80.19    7.20
   3  -4  -6   63.69    7.50
   3  -4  -6   69.79   10.50
   3  -4  -6   60.69    9.00
   3  -4  -6   72.89   12.00
   3  -4  -6   53.99    5.90
   3  -4  -6   63.49    6.50
  -3   4   6   57.09    8.90
  -3   4   6   64.29    4.70
  -3   4   6   78.19    5.50
   2  -4  -6  424.56   18.30
   2  -4  -6  428.66   15.40
   2  -4  -6  427.66   21.10
   2  -4  -6  461.25   19.30
   2  -4  -6  410.36   17.80
   2  -4  -6  412.86   16.00
  -2   4   6  418.56   19.50
  -2   4   6  424.66   14.10
  -2   4   6  391.16   14.30
   1  -4  -6   -2.10    2.80
   1  -4  -6   -1.80    1.30
   1  -4  -6   -1.40    2.90
   1  -4  -6   -4.60    2.70
   1  -4  -6    3.40    3.70
   1  -4  -6    0.80    3.30
   1  -4  -6    0.90    2.30
   1  -4  -6   -3.70    5.40
  -1   4   6   -1.00    3.10
  -1   4   6   -1.90    4.50
   0  -4  -6    8.60    1.50
   0  -4  -6    6.90    2.60
   0  -4  -6    8.80    3.10
   0  -4  -6   11.80    2.80
   0  -4  -6    6.70    5.50
   0  -4  -6    8.20    1.90
   0  -4  -6   12.40    3.60
   0   4   6   10.00    5.20
   0   4   6   12.10    3.40
   0   4   6    5.30    3.50
  -1  -4  -6 2512.95   83.99
  -1  -4  -6 2470.45   81.99
  -1  -4  -6 2426.36   81.19
  -1  -4  -6 2375.46   80.49
  -1  -4  -6 2510.25   81.99
  -1  -4  -6 2494.35   85.89
   1   4   6 2410.76   80.19
   1   4   6 2609.04   84.99
   1   4   6 2520.15   82.49
   1   4   6 2684.53   85.29
   1   4   6 2474.25   82.49
  -2  -4  -6 1399.46   50.09
  -2  -4  -6 1396.16   48.90
  -2  -4  -6 1326.37   51.49
  -2  -4  -6 1393.26   47.20
  -2  -4  -6 1369.16   47.70
  -2  -4  -6 1307.17   45.70
   2   4   6 1309.17   49.20
   2   4   6 1373.66   47.00
   2   4   6 1498.55   51.19
   2   4   6 1415.26   47.60
  -3  -4  -6 1013.60   39.50
  -3  -4  -6 1049.59   37.80
  -3  -4  -6 1012.90   38.20
  -3  -4  -6 1006.60   37.50
  -3  -4  -6  983.60   41.80
  -3  -4  -6 1045.40   35.70
   3   4   6 1031.40   37.60
   3   4   6 1073.59   41.20
   3   4   6  988.70   38.30
   3   4   6 1030.20   36.90
   3   4   6  964.50   37.60
  -4  -4  -6    0.00    7.10
  -4  -4  -6   -0.90    3.10
  -4  -4  -6    4.70    3.50
  -4  -4  -6    1.90    3.80
  -4  -4  -6   -2.90    5.50
  -4  -4  -6    0.20    5.10
   4   4   6   -4.80    3.80
   4   4   6   -3.60    6.10
   4   4   6    2.40    2.20
   4   4   6    1.30    4.80
  -5  -4  -6    4.90    6.60
  -5  -4  -6    5.00    4.90
  -5  -4  -6    1.60   10.30
  -5  -4  -6  -11.20    5.50
  -5  -4  -6    8.40    3.60
  -5  -4  -6    4.90    4.40
   5   4   6    1.00    5.10
   5   4   6   -1.40    4.60
   5   4   6   -7.20    7.30
  -6  -4  -6    1.10    7.20
  -6  -4  -6    5.50    6.10
  -6  -4  -6    0.90    5.80
  -6  -4  -6    9.30    4.10
  -6  -4  -6   26.10    7.80
   6   4   6    4.00    6.60
   6   4   6   -1.20    5.80
   6   4   6   19.50   10.40
  -7  -4  -6  641.04   33.40
  -7  -4  -6  613.14   30.20
  -7  -4  -6  576.24   28.40
  -7  -4  -6  604.94   28.90
  -7  -4  -6  581.04   31.00
   7   4   6  596.24   32.20
   7   4   6  578.04   28.30
   7   4   6  596.64   37.00
   7   4   6  619.44   32.00
  -8  -4  -6  -16.60    8.60
  -8  -4  -6    3.40    8.30
  -8  -4  -6  -10.90    8.90
  -8  -4  -6   -3.10    9.80
  -8  -4  -6   -1.00   10.20
   8   4   6   -6.00    7.30
   8   4   6    2.60   11.00
   8   4   6   36.70   18.70
   8   4   6    5.10    9.80
   5  -5  -6   -5.40    4.60
   5  -5  -6    2.00    7.50
   5  -5  -6   -2.40    5.40
   5  -5  -6   -3.00    4.70
   5  -5  -6   -0.60    5.60
   4  -5  -6   11.30    4.40
   4  -5  -6    7.20    3.60
   4  -5  -6    8.10    4.30
   4  -5  -6   19.40    6.80
   4  -5  -6    5.50    3.90
  -4   5   6   -4.10    6.50
  -4   5   6   16.20    4.30
  -4   5   6    5.40    5.80
   3  -5  -6   23.50    4.10
   3  -5  -6   21.90    4.70
   3  -5  -6   29.70    6.90
   3  -5  -6   24.40    4.10
  -3   5   6   35.40    7.00
  -3   5   6   22.10    3.70
  -3   5   6   27.80    3.30
   2  -5  -6  597.24   24.40
   2  -5  -6  585.14   22.00
   2  -5  -6  587.24   27.00
   2  -5  -6  581.44   24.00
   2  -5  -6  582.14   21.50
   2  -5  -6  601.54   23.10
  -2   5   6  595.44   26.30
  -2   5   6  562.04   21.10
  -2   5   6  614.54   20.50
  -2   5   6  596.44   26.00
   1  -5  -6  127.09    7.70
   1  -5  -6  114.69    6.00
   1  -5  -6  132.09   13.00
   1  -5  -6  127.49    9.10
   1  -5  -6   97.89   11.70
   1  -5  -6  115.79    7.90
   1  -5  -6  119.69    6.70
  -1   5   6  116.89    5.30
  -1   5   6  119.79   10.80
  -1   5   6  131.89    9.60
   0  -5  -6  192.88    7.90
   0  -5  -6  193.68   11.80
   0  -5  -6  191.88    9.30
   0  -5  -6  209.88   14.80
   0  -5  -6  195.58    8.70
   0  -5  -6  181.28   11.00
   0  -5  -6  204.18    9.10
   0   5   6  191.38    8.10
   0   5   6  190.28   11.00
   0   5   6  182.98   10.30
   0   5   6  183.58    7.50
   0   5   6  188.28   12.00
  -1  -5  -6   23.40    5.10
  -1  -5  -6   20.00    3.30
  -1  -5  -6   20.80    7.60
  -1  -5  -6   21.90    3.90
  -1  -5  -6   18.80    3.30
   1   5   6   21.20    4.10
   1   5   6   15.90    6.00
   1   5   6   24.10    4.30
   1   5   6   25.80    3.60
  -2  -5  -6 1653.73   55.19
  -2  -5  -6 1522.95   58.39
  -2  -5  -6 1477.35   50.79
  -2  -5  -6 1557.14   52.89
  -2  -5  -6 1549.74   53.69
  -2  -5  -6 1494.65   50.79
   2   5   6 1591.54   53.19
   2   5   6 1651.33   57.39
   2   5   6 1571.74   55.79
   2   5   6 1510.25   53.59
   2   5   6 1552.64   52.79
  -3  -5  -6   93.09   11.20
  -3  -5  -6   78.89   12.80
  -3  -5  -6   69.89    5.80
  -3  -5  -6   64.29    7.10
  -3  -5  -6   69.29    9.40
  -3  -5  -6   81.39    8.20
   3   5   6   75.79    7.60
   3   5   6   76.69    9.80
   3   5   6   80.19    8.40
   3   5   6   82.49    9.90
   3   5   6   88.49   11.00
  -4  -5  -6  595.24   25.80
  -4  -5  -6  609.04   23.40
  -4  -5  -6  595.54   31.40
  -4  -5  -6  612.64   27.60
  -4  -5  -6  606.64   24.70
  -4  -5  -6  577.14   26.80
   4   5   6  589.44   27.00
   4   5   6  528.35   26.80
   4   5   6  617.04   29.90
   4   5   6  606.84   25.90
  -5  -5  -6    0.00    6.50
  -5  -5  -6   -4.30    4.80
  -5  -5  -6   -4.90    6.20
  -5  -5  -6   -4.60    3.90
  -5  -5  -6  -12.00    9.80
  -5  -5  -6    3.30    4.10
   5   5   6   -1.90    4.90
   5   5   6    1.50    4.40
   5   5   6  -11.10    6.60
   5   5   6   -3.10    7.30
   5   5   6    5.40    5.30
  -6  -5  -6   95.89   15.60
  -6  -5  -6   67.49   17.70
  -6  -5  -6   99.89   10.50
  -6  -5  -6   78.69   13.00
  -6  -5  -6   82.69   12.60
   6   5   6   84.99   16.70
   6   5   6   95.39   14.00
   6   5   6   76.79   10.80
  -7  -5  -6    9.60    8.40
  -7  -5  -6    7.10    7.70
  -7  -5  -6    2.50    6.90
  -7  -5  -6   15.80    7.70
   7   5   6   18.20    7.60
   7   5   6   28.00   14.20
   7   5   6   -1.30    8.20
  -8  -5  -6   29.60    9.80
  -8  -5  -6   26.70   11.00
  -8  -5  -6   16.50    9.50
  -8  -5  -6   10.70    9.50
  -8  -5  -6   10.50    9.00
   8   5   6    6.00   10.90
   8   5   6    6.80    8.50
   8   5   6   15.70    5.30
   8   5   6   27.60   11.20
   4  -6  -6   23.70    4.40
   4  -6  -6   25.50    7.10
   4  -6  -6   17.00    5.00
   4  -6  -6   28.50    4.40
   4  -6  -6   25.10    9.00
   4  -6  -6   15.90    5.20
  -4   6   6   31.80    7.00
  -4   6   6   19.00    6.60
  -4   6   6   16.50    5.10
   3  -6  -6   -1.20    3.50
   3  -6  -6   -6.40    4.50
   3  -6  -6    0.80    2.80
  -3   6   6    2.00    3.80
  -3   6   6   -0.10    6.00
   2  -6  -6  144.59    8.90
   2  -6  -6  147.19   10.80
   2  -6  -6  145.39    9.60
   2  -6  -6  164.38    8.60
  -2   6   6  139.79   13.90
  -2   6   6  142.09    7.90
  -2   6   6  147.69   12.30
   1  -6  -6  110.89    7.60
   1  -6  -6   99.39   10.10
   1  -6  -6  123.99    6.70
   1  -6  -6  150.28   14.70
   1  -6  -6  111.19    7.30
   1  -6  -6  131.29    8.30
  -1   6   6  116.49    6.70
  -1   6   6  124.19    7.00
  -1   6   6  122.19   10.60
  -1   6   6   93.89   12.10
   0  -6  -6    4.40    3.10
   0  -6  -6    3.30    1.70
   0  -6  -6    3.80    2.20
   0  -6  -6    4.50    4.10
   0  -6  -6   -4.40    6.90
   0   6   6    5.00    2.00
   0   6   6    2.70    5.60
   0   6   6   -0.40    3.50
  -1  -6  -6   31.30    9.20
  -1  -6  -6   34.60    4.00
  -1  -6  -6   39.40    6.60
  -1  -6  -6   24.00    4.50
  -1  -6  -6   26.60    4.00
   1   6   6   24.10    6.80
   1   6   6   27.10    4.60
   1   6   6   30.10    4.70
   1   6   6   33.40    5.20
   1   6   6   27.60    4.50
  -2  -6  -6  332.17   16.30
  -2  -6  -6  304.87   12.00
  -2  -6  -6  285.67   11.00
  -2  -6  -6  322.67   16.00
  -2  -6  -6  303.97   14.00
  -2  -6  -6  315.27   20.30
   2   6   6  303.17   15.50
   2   6   6  324.27   14.40
   2   6   6  341.57   14.60
   2   6   6  355.56   19.10
   2   6   6  291.27   17.30
  -3  -6  -6   14.90    5.90
  -3  -6  -6   14.30    2.60
  -3  -6  -6   19.20    9.60
  -3  -6  -6    9.00    4.90
  -3  -6  -6   10.50    4.20
  -3  -6  -6   14.80    6.40
   3   6   6   12.70    6.30
   3   6   6   15.60    5.90
   3   6   6   15.40    4.70
   3   6   6   17.50    4.40
   3   6   6   14.90    7.80
  -4  -6  -6   31.70   11.50
  -4  -6  -6   16.70    7.20
  -4  -6  -6    2.40    3.10
  -4  -6  -6    1.70    4.70
  -4  -6  -6   11.50    6.50
  -4  -6  -6   18.40    4.90
   4   6   6   -2.70    6.70
   4   6   6    9.40    6.70
   4   6   6   12.10    9.40
  -5  -6  -6  -10.30   10.60
  -5  -6  -6    4.70    7.20
  -5  -6  -6   -2.90    6.40
  -5  -6  -6   14.40    5.90
   5   6   6   -4.60    5.30
   5   6   6   -6.40    7.10
   5   6   6    1.40    5.00
   5   6   6    1.00    6.00
   5   6   6    0.60    6.90
  -6  -6  -6   24.30    9.20
  -6  -6  -6   14.00    7.60
  -6  -6  -6   10.30    5.60
  -6  -6  -6   13.40    7.60
  -6  -6  -6   24.80   15.30
   6   6   6   33.40   14.60
   6   6   6   19.80   10.20
   6   6   6    9.50    6.50
   6   6   6   21.70    6.90
  -7  -6  -6  181.18   18.80
  -7  -6  -6  197.98   15.80
  -7  -6  -6  197.18   24.00
  -7  -6  -6  235.08   19.10
   7   6   6  217.18   23.50
   7   6   6  196.98    9.30
   7   6   6  211.98   16.20
  -8  -6  -6   -6.70   10.30
  -8  -6  -6    9.70   10.30
  -8  -6  -6    6.80    9.50
  -8  -6  -6   28.60    9.50
  -8  -6  -6    1.00   10.90
   8   6   6    4.80    7.90
   8   6   6   10.70    4.50
   4  -7  -6   19.90    6.20
   4  -7  -6   23.00    6.50
   4  -7  -6   28.60    5.10
   4  -7  -6   27.20    6.80
   4  -7  -6   20.00    3.90
  -4   7   6   24.10    7.30
  -4   7   6   23.60    6.30
   3  -7  -6    5.60    2.70
   3  -7  -6    4.20    4.40
   3  -7  -6    6.80    5.20
   3  -7  -6    5.00    3.90
  -3   7   6    3.10    4.50
  -3   7   6   11.40    5.60
  -3   7   6    3.30    7.40
   2  -7  -6    0.30   10.50
   2  -7  -6   -0.20    2.20
   2  -7  -6    2.30    2.80
   2  -7  -6    5.20    3.90
   2  -7  -6    0.90    4.10
  -2   7   6   -0.40    7.00
  -2   7   6    0.00    4.00
   1  -7  -6    5.60    2.70
   1  -7  -6   11.70    4.50
   1  -7  -6   24.00    9.90
   1  -7  -6    9.80    2.80
   1  -7  -6    6.90    4.90
  -1   7   6   -1.80    7.30
   0  -7  -6  110.29   14.80
   0  -7  -6  120.29    9.50
   0  -7  -6  129.49    7.40
   0   7   6  101.99   10.30
   0   7   6  124.49    7.70
   0   7   6  129.79    7.80
   0   7   6  136.59   12.80
  -1  -7  -6    4.20    2.30
  -1  -7  -6    9.30    4.30
  -1  -7  -6   -0.70    8.00
   1   7   6    1.20    4.00
   1   7   6    6.70    3.20
   1   7   6    5.60    6.00
   1   7   6    6.90    7.60
   1   7   6    5.60    3.60
  -2  -7  -6  424.16   16.10
  -2  -7  -6  423.26   24.60
  -2  -7  -6  408.56   18.10
  -2  -7  -6  440.36   20.60
   2   7   6  443.96   22.10
   2   7   6  440.26   18.60
   2   7   6  447.96   18.30
   2   7   6  448.36   20.20
  -3  -7  -6   38.90    3.60
  -3  -7  -6   32.70    7.80
  -3  -7  -6   29.40    5.80
  -3  -7  -6   36.90   11.90
   3   7   6   36.70    7.40
   3   7   6   30.40    7.20
   3   7   6   42.20   11.10
   3   7   6   31.60    6.90
   3   7   6   54.19    7.10
  -4  -7  -6  752.62   32.90
  -4  -7  -6  762.82   31.30
  -4  -7  -6  774.12   33.60
  -4  -7  -6  724.63   27.80
  -4  -7  -6  738.83   38.90
   4   7   6  776.22   33.80
   4   7   6  742.83   32.80
   4   7   6  789.32   36.80
   4   7   6  792.52   32.00
  -5  -7  -6  339.07   22.20
  -5  -7  -6  363.46   20.10
  -5  -7  -6  359.86   21.40
  -5  -7  -6  334.87   27.50
  -5  -7  -6  320.47   16.10
   5   7   6  367.06   25.70
   5   7   6  340.27   20.40
   5   7   6  330.17   22.30
   5   7   6  339.37   16.80
  -6  -7  -6    4.80    5.20
  -6  -7  -6   -5.40   13.90
  -6  -7  -6   -2.60    8.30
  -6  -7  -6    2.40    6.60
  -6  -7  -6   -1.90    7.40
   6   7   6   -5.50    6.20
   6   7   6  -14.30    8.40
   6   7   6   -3.90    6.00
  -7  -7  -6    2.80    6.80
  -7  -7  -6   10.30    9.50
  -7  -7  -6    8.60    9.40
  -7  -7  -6  -10.50   14.40
  -7  -7  -6   -2.80    8.00
   7   7   6   13.20   11.90
   7   7   6    0.20    7.60
   7   7   6    4.90    7.10
   7   7   6   -2.40    8.50
   7   7   6   -1.10   10.50
   3  -8  -6    0.70    4.70
   3  -8  -6   -4.00    4.10
   3  -8  -6   -7.00   10.60
   3  -8  -6    8.00    4.90
   3  -8  -6    1.70    2.20
   3  -8  -6   -4.50    9.00
  -3   8   6   -5.10    3.20
  -3   8   6   -1.10    5.30
  -3   8   6   -4.50    7.20
   2  -8  -6   -5.30   11.90
   2  -8  -6    3.10    4.70
   2  -8  -6    6.00    3.40
  -2   8   6   -2.70    2.80
  -2   8   6    0.00    7.30
  -2   8   6    1.10    5.10
  -2   8   6    6.50    4.60
   1  -8  -6  311.07   16.10
   1  -8  -6  294.77   13.70
   1  -8  -6  292.87   23.00
  -1   8   6  277.07   14.40
  -1   8   6  293.37   14.70
  -1   8   6  321.17   17.80
   0  -8  -6   75.09   15.30
   0  -8  -6   86.09   10.20
   0  -8  -6   97.99    7.00
   0   8   6   57.49   11.40
   0   8   6   92.39   10.50
   0   8   6   81.79   11.60
  -1  -8  -6   64.69   14.20
  -1  -8  -6   76.39   10.20
  -1  -8  -6   72.69    6.70
   1   8   6   81.29   10.30
   1   8   6   74.79    9.90
   1   8   6   82.79    7.50
  -2  -8  -6   -6.10    5.40
  -2  -8  -6  -15.50    9.10
   2   8   6    1.70    5.30
   2   8   6    2.20    5.30
   2   8   6   -0.30    3.50
   2   8   6    0.80    7.30
  -3  -8  -6    9.50    4.50
  -3  -8  -6    8.90   11.30
  -3  -8  -6    6.70    7.20
   3   8   6    3.30    5.00
   3   8   6   18.60    4.70
   3   8   6   30.20   10.00
   3   8   6   19.80    8.10
   3   8   6   15.10    7.30
  -4  -8  -6  196.58   18.10
  -4  -8  -6  220.78   22.50
  -4  -8  -6  192.38   14.10
  -4  -8  -6  197.78    9.80
   4   8   6  179.08   17.10
   4   8   6  202.58   17.20
   4   8   6  221.08   20.60
   4   8   6  208.88   15.50
  -5  -8  -6  273.37   14.80
  -5  -8  -6  322.77   21.60
  -5  -8  -6  296.57   21.80
  -5  -8  -6  323.87   27.70
   5   8   6  313.77   22.60
   5   8   6  294.47   15.50
   5   8   6  309.57   21.10
  -6  -8  -6   -3.70    6.10
  -6  -8  -6   -5.80    7.50
  -6  -8  -6   -0.80    7.00
   6   8   6   -5.20    5.30
   6   8   6    1.60    7.10
  -7  -8  -6    1.50    9.30
  -7  -8  -6    1.10    8.70
  -7  -8  -6    2.80    6.80
  -7  -8  -6  -12.70    9.20
  -7  -8  -6   -9.80   13.60
   7   8   6    5.80   14.50
   7   8   6    5.20   11.10
   7   8   6   13.30    7.80
   7   8   6  -11.20    9.60
   7   8   6   -5.50    7.30
   3  -9  -6   -0.60   12.80
   3  -9  -6    0.50    5.80
   3  -9  -6   12.10    5.20
  -3   9   6    7.00    8.20
  -3   9   6   -6.50    8.80
   2  -9  -6   -3.10    5.10
   2  -9  -6   -5.60    7.20
   2  -9  -6    3.50    4.20
   2  -9  -6  -17.80   10.40
  -2   9   6   10.40    5.60
  -2   9   6    2.60    8.40
  -2   9   6   -8.00    4.90
  -2   9   6  -10.00   11.50
   1  -9  -6  215.98   14.80
   1  -9  -6  208.28   25.70
   1  -9  -6  180.88   11.20
  -1   9   6  167.48   17.20
  -1   9   6  211.98   13.00
  -1   9   6  200.18   14.70
  -1   9   6  220.18   15.50
   0  -9  -6   36.10    7.40
   0  -9  -6   48.50   13.60
   0   9   6   33.20    7.20
   0   9   6   37.40    9.90
   0   9   6   49.10    8.40
   0   9   6   59.59    9.70
  -1  -9  -6   44.80    8.00
  -1  -9  -6   53.99    6.90
  -1  -9  -6   57.49   14.20
   1   9   6   55.29    8.20
   1   9   6   53.09    9.20
   1   9   6   38.70    6.00
   1   9   6   54.49    6.70
  -2  -9  -6   -8.30   10.40
  -2  -9  -6    1.10    3.80
  -2  -9  -6    3.70    6.40
   2   9   6    9.80    7.80
   2   9   6   14.60    4.60
   2   9   6    9.70    6.90
   2   9   6    5.00    5.00
  -3  -9  -6   -2.30    6.70
  -3  -9  -6   -6.40    3.90
  -3  -9  -6   -8.80   11.10
   3   9   6   11.50    8.10
   3   9   6   -7.00    6.50
   3   9   6   -0.70    5.40
  -4  -9  -6   -3.70    5.30
  -4  -9  -6    2.70   12.30
  -4  -9  -6   11.60    8.00
   4   9   6   16.30    9.20
   4   9   6    8.20    6.10
   4   9   6   -7.10    6.20
  -5  -9  -6   28.80    9.10
  -5  -9  -6   12.40    6.80
  -5  -9  -6   21.30   14.70
  -5  -9  -6   11.80    9.50
   5   9   6   -0.40    9.60
   5   9   6   19.80   10.30
   5   9   6    1.30    5.10
  -6  -9  -6  104.69   17.00
  -6  -9  -6   93.99   13.00
  -6  -9  -6  106.79   18.10
  -6  -9  -6  109.99   22.50
  -6  -9  -6  100.09   15.80
   6   9   6   98.59   21.20
   6   9   6   81.29   14.50
   6   9   6   99.29   12.40
   6   9   6   78.39   12.70
   6   9   6  109.49   14.80
  -7  -9  -6    7.40   16.50
  -7  -9  -6   19.40   11.20
  -7  -9  -6   31.40   10.40
  -7  -9  -6   22.50   17.70
  -7  -9  -6   21.30    6.70
   7   9   6   16.60    9.60
   7   9   6   21.70    8.90
   2 -10  -6   44.90   15.70
   2 -10  -6   24.70    5.60
   2 -10  -6   16.30    7.10
  -2  10   6   34.20    7.20
  -2  10   6   19.90   10.10
  -2  10   6   13.00    7.90
   1 -10  -6    4.00    8.30
   1 -10  -6   -1.00    3.90
   1 -10  -6   -4.10   12.10
   1 -10  -6   -0.20    6.50
  -1  10   6    7.80    6.70
  -1  10   6    1.00   10.00
  -1  10   6   -1.00    6.40
   0 -10  -6   46.00    8.30
   0 -10  -6   50.69   15.10
   0  10   6   41.80    8.60
   0  10   6   59.69   12.20
   0  10   6   35.80    6.80
  -1 -10  -6   18.90   13.90
  -1 -10  -6   17.90    7.70
  -1 -10  -6   22.50    5.40
   1  10   6   37.30    6.30
   1  10   6   25.80    7.80
   1  10   6   26.90    6.30
   1  10   6   34.90   10.80
   1  10   6   22.60    6.30
  -2 -10  -6   36.10    6.40
  -2 -10  -6   35.40    9.10
  -2 -10  -6   37.90   15.20
   2  10   6   25.50    7.10
   2  10   6   53.49   11.00
   2  10   6   46.00    9.60
   2  10   6   48.40    7.70
  -3 -10  -6   -7.30   11.80
  -3 -10  -6   10.60    8.70
   3  10   6    4.80    8.70
   3  10   6   13.60    9.40
   3  10   6    7.30    4.70
  -4 -10  -6   -3.30   23.00
   4  10   6   -9.10    6.30
   4  10   6    9.20    9.00
   4  10   6    6.60    4.90
   4  10   6   10.20    9.60
  -5 -10  -6   35.20   13.40
  -5 -10  -6   38.20   15.50
  -5 -10  -6   21.50    9.70
  -5 -10  -6   24.70    7.50
   5  10   6   12.30   12.80
   5  10   6   27.80   10.90
   5  10   6   40.30   15.20
   5  10   6   26.00    5.50
   5  10   6   13.20   11.60
  -6 -10  -6   31.60   11.70
  -6 -10  -6   37.00   16.50
  -6 -10  -6    5.10    9.10
  -6 -10  -6   28.20   10.30
   6  10   6   31.30   12.70
   6  10   6   24.50    7.60
   6  10   6    9.80    9.80
   6  10   6   19.30   12.80
   6  10   6   13.20   14.00
   1 -11  -6    3.70    7.30
   1 -11  -6  -11.60   13.60
   1 -11  -6    5.20    5.30
  -1  11   6    5.80    9.70
  -1  11   6    0.30    9.20
  -1  11   6    0.40    8.70
  -1  11   6    7.50    6.60
   0 -11  -6    1.30   12.70
   0 -11  -6   13.70    7.50
   0  11   6   18.70    6.50
   0  11   6   12.50    7.50
   0  11   6   18.10    8.60
   0  11   6    4.80    9.70
  -1 -11  -6   14.40    8.90
  -1 -11  -6   15.40    5.30
  -1 -11  -6   14.80   13.00
   1  11   6   12.80    6.20
   1  11   6   37.10    9.90
   1  11   6   12.70    6.20
   1  11   6   20.20    8.90
  -2 -11  -6    8.10   13.00
  -2 -11  -6   24.70   10.30
  -2 -11  -6   13.40    5.30
   2  11   6   16.40   10.00
   2  11   6   -0.60    6.50
   2  11   6   22.00    9.70
   2  11   6   22.00    5.00
  -3 -11  -6    1.00    8.20
  -3 -11  -6   -9.10   12.50
  -3 -11  -6    3.10    3.20
  -3 -11  -6   -1.60    5.20
   3  11   6   -1.50    4.90
   3  11   6  -12.60   10.60
   3  11   6   -0.20    9.20
   3  11   6   -0.40    6.30
   3  11   6    4.20    8.90
  -4 -11  -6    4.10   10.30
  -4 -11  -6    1.70    6.30
  -4 -11  -6    4.60    9.10
   4  11   6   -2.30    9.90
   4  11   6  -15.40   10.60
   4  11   6  -13.90    6.40
   4  11   6    1.60    9.80
   4  11   6    2.50    6.00
  -5 -11  -6  295.87   24.20
  -5 -11  -6  325.47   29.30
  -5 -11  -6  257.37   19.50
   5  11   6  258.07   22.50
   5  11   6  295.87   26.10
   5  11   6  300.77   26.80
   5  11   6  276.17   22.90
  -1 -12  -6    3.20    8.50
  -1 -12  -6    2.50   13.40
  -1 -12  -6   -9.50    4.90
   1  12   6   19.30   10.50
   1  12   6  -14.60    6.80
   1  12   6   -3.30    9.40
  -2 -12  -6   20.90    7.20
  -2 -12  -6   42.70   16.30
  -2 -12  -6   30.80   10.30
   2  12   6   51.99   12.60
   2  12   6   41.60   11.90
   2  12   6   21.30    8.40
   2  12   6   39.20    5.40
  -3 -12  -6    4.30    9.20
  -3 -12  -6   -1.40    3.40
  -3 -12  -6    9.30   13.40
   3  12   6    5.10   10.80
   3  12   6    8.20    5.20
   3  12   6   -4.40   10.30
  -4 -12  -6   -4.60    9.30
  -4 -12  -6  -15.30   13.30
   4  12   6    1.40    5.90
   4  12   6    2.20   10.10
   4  12   6  -11.40   10.70
   1   9  -7   -1.40    8.30
   1   9  -7   18.60   10.30
  -1  -9   7   27.90   10.10
  -1  -9   7    7.00   11.90
  -1  -9   7    2.30    9.60
  -1  -9   7    7.30   11.00
   0   9  -7   53.19   11.40
   0   9  -7   56.79   11.00
   0   9  -7   71.09   10.70
   0  -9   7   48.70   12.10
   0  -9   7   79.39   21.70
   0  -9   7   48.60   13.80
   3   8  -7   -0.40    9.10
   3   8  -7   -9.20    7.10
   3   8  -7    3.70    8.60
  -3  -8   7    0.40   11.30
  -3  -8   7    6.10   11.30
  -3  -8   7   -7.00   10.80
  -3  -8   7   11.90    4.80
   2   8  -7   24.00    9.10
   2   8  -7   18.20    7.50
   2   8  -7    8.00    8.20
  -2  -8   7   27.00   11.80
  -2  -8   7   23.30    8.10
  -2  -8   7   18.60    7.80
  -2  -8   7   31.50   11.70
   1   8  -7   13.80    6.20
   1   8  -7   17.70    8.90
   1   8  -7   14.30    7.20
  -1  -8   7    7.10    9.80
  -1  -8   7   25.30   11.00
  -1  -8   7   22.50    8.30
  -1  -8   7   28.40    7.90
  -1  -8   7   20.20    8.10
   0   8  -7  444.66   25.40
   0   8  -7  464.15   24.30
   0   8  -7  398.36   20.40
   0  -8   7  438.76   27.10
   0  -8   7  419.16   23.80
   0  -8   7  453.95   27.80
   0  -8   7  396.96   21.30
  -1   8  -7   16.10    9.20
  -1   8  -7   20.50    5.50
  -1   8  -7   33.80    9.20
   1  -8   7   -3.40    9.50
   1  -8   7   35.70    8.70
   1  -8   7   24.60   10.50
   1  -8   7   12.30   10.90
   1  -8   7   16.80    8.50
  -2   8  -7  -14.40    8.00
  -2   8  -7    3.10    8.80
   2  -8   7   11.60   10.50
   2  -8   7   -3.50    8.30
   2  -8   7   -6.10    7.80
   4   7  -7   -1.60    9.40
   4   7  -7   -9.20    8.60
   4   7  -7   -8.50    6.10
  -4  -7   7    8.30    3.90
  -4  -7   7   -6.60    5.80
  -4  -7   7    4.80   11.40
  -4  -7   7    2.10   10.30
  -4  -7   7    0.30   10.10
   3   7  -7   15.00    9.00
   3   7  -7    5.50    8.40
   3   7  -7    9.30    8.40
   3   7  -7   -8.70    6.60
  -3  -7   7   -1.70    9.80
  -3  -7   7    6.20    9.80
  -3  -7   7   -4.90    6.90
  -3  -7   7   14.10    4.70
  -3  -7   7    5.20    5.10
  -3  -7   7   10.70   11.40
   2   7  -7   20.50    8.90
   2   7  -7   32.80    7.50
  -2  -7   7   39.90   13.80
  -2  -7   7   37.30   10.70
  -2  -7   7   30.20    7.50
  -2  -7   7   34.70   10.70
   1   7  -7   -5.80    5.50
   1   7  -7   -2.20    5.00
  -1  -7   7    6.80    7.00
  -1  -7   7    2.10    8.80
  -1  -7   7   -3.60    9.90
   0   7  -7  117.19   13.20
   0  -7   7  124.59   18.20
   0  -7   7  114.49   15.00
   0  -7   7  165.48   17.60
   0  -7   7  125.89   11.30
  -1   7  -7   10.00    4.70
  -1   7  -7   29.40    7.70
   1  -7   7   13.00    7.10
   1  -7   7   12.80    9.00
  -2   7  -7  -10.30    6.90
  -2   7  -7   -5.30    7.50
   2  -7   7    1.80    7.90
   2  -7   7   -2.60    8.30
   2  -7   7   -3.40    8.50
   2  -7   7    0.60    7.50
  -3   7  -7   20.50    3.50
  -3   7  -7   20.40    9.50
  -3   7  -7   14.60    9.00
  -3   7  -7   10.60    8.30
   3  -7   7   30.10   10.60
   3  -7   7    3.00    9.70
   3  -7   7   22.90   14.50
   3  -7   7   11.50    9.70
   3  -7   7   19.00    4.10
  -4   7  -7   -2.70    9.30
  -4   7  -7   -6.10    8.40
  -4   7  -7   29.10   10.60
  -4   7  -7   -0.30    3.70
   4  -7   7    9.80    4.30
   4  -7   7  -11.20    9.20
   4   6  -7    7.00    6.00
   4   6  -7   12.90    9.50
   4   6  -7   -0.40    6.50
   4   6  -7   -7.90    7.90
  -4  -6   7    5.20    6.70
  -4  -6   7    2.90   10.40
  -4  -6   7    7.30   10.30
  -4  -6   7    7.00    9.90
  -4  -6   7    0.90    5.20
  -4  -6   7    9.80    2.10
   3   6  -7   10.80    4.30
   3   6  -7    3.60    5.50
   3   6  -7    9.70    8.60
   3   6  -7   19.10    8.40
  -3  -6   7   23.50    5.00
  -3  -6   7   12.00    4.20
  -3  -6   7   -1.50    9.60
  -3  -6   7   13.10    9.20
  -3  -6   7   11.00    6.50
   2   6  -7   15.20    7.00
   2   6  -7   10.20    5.70
   2   6  -7   17.40    8.20
  -2  -6   7   21.40    5.40
  -2  -6   7   29.50    4.00
  -2  -6   7   21.80   10.10
  -2  -6   7   31.90    9.50
  -2  -6   7   18.40    9.00
   1   6  -7   50.99    9.00
   1   6  -7   46.80    8.00
   1   6  -7   57.29    8.10
  -1  -6   7   72.69   10.80
  -1  -6   7   40.90   10.80
   0   6  -7  174.18   15.00
   0   6  -7  185.48   14.30
   0   6  -7  162.28   12.70
   0  -6   7  180.18   17.10
   0  -6   7  159.68   16.20
   0  -6   7  178.58   15.10
   0  -6   7  156.38   12.90
  -1   6  -7  149.49   14.00
  -1   6  -7  110.19   12.20
  -1   6  -7  134.79   14.80
   1  -6   7  124.09   14.70
   1  -6   7  106.99   10.50
   1  -6   7  120.39   15.60
   1  -6   7  132.79   16.40
  -2   6  -7   56.79    8.20
  -2   6  -7   61.29    9.70
  -2   6  -7   80.39   13.30
   2  -6   7   64.29   10.50
   2  -6   7   49.10    9.80
  -3   6  -7    7.90    2.90
  -3   6  -7    0.70    7.20
   3  -6   7    8.40    8.70
   3  -6   7   12.80    9.00
   3  -6   7    7.90    2.80
   3  -6   7   -0.70    7.60
  -4   6  -7   16.50    8.80
  -4   6  -7   28.50    4.80
  -4   6  -7   36.90    9.90
  -4   6  -7   27.70    8.50
   4  -6   7   15.60    9.40
   4  -6   7   14.30    9.30
   4  -6   7   27.10    3.80
   4  -6   7   28.90    7.20
   5   5  -7   16.60   11.10
   5   5  -7   -2.30    8.40
   5   5  -7   26.10   10.40
   5   5  -7   18.00    9.00
  -5  -5   7   13.60    6.10
  -5  -5   7   -5.10    9.90
  -5  -5   7   11.20   10.40
   4   5  -7   -1.80    7.70
   4   5  -7   13.50    6.00
   4   5  -7   -9.40    7.80
   4   5  -7    3.70    9.10
  -4  -5   7  -10.20    5.70
  -4  -5   7    3.80   10.20
  -4  -5   7   16.60    9.20
  -4  -5   7   -3.10    4.80
   3   5  -7   50.39    6.50
   3   5  -7   29.10   10.40
   3   5  -7   32.30    6.40
   3   5  -7   46.50    9.50
  -3  -5   7   41.80   11.20
  -3  -5   7   58.19    6.20
  -3  -5   7   61.29    7.20
  -3  -5   7   44.40    9.90
  -3  -5   7   29.50   10.70
   2   5  -7   -9.50    5.50
   2   5  -7    3.70    4.60
   2   5  -7   -1.30    6.00
  -2  -5   7  -11.00    6.80
  -2  -5   7    3.30    3.60
  -2  -5   7   -2.30    8.10
  -2  -5   7    3.60    5.00
  -2  -5   7    4.50    7.00
  -2  -5   7    2.80    3.30
   1   5  -7   43.60    6.60
   1   5  -7   46.70    7.30
   1   5  -7   49.40    8.20
  -1  -5   7   54.69    8.70
  -1  -5   7   51.79    9.00
  -1  -5   7   61.49   10.20
  -1  -5   7   55.69    9.20
  -1  -5   7   31.90    9.70
   0   5  -7   26.10    5.90
   0   5  -7   18.40    5.30
   0   5  -7   16.70    6.50
   0  -5   7   23.40    8.10
   0  -5   7   22.50    6.10
   0  -5   7   22.70    7.50
   0  -5   7   30.50    9.60
  -1   5  -7 1134.29   40.90
  -1   5  -7 1064.39   40.60
  -1   5  -7 1035.80   39.20
   1  -5   7 1096.19   41.20
   1  -5   7 1021.40   42.00
   1  -5   7  937.71   36.50
   1  -5   7 1063.99   42.90
  -2   5  -7   -1.30    6.10
  -2   5  -7    5.10    6.60
  -2   5  -7   -8.30    3.90
  -2   5  -7   -3.40    6.20
   2  -5   7   -7.30    6.60
   2  -5   7   -8.20    6.30
   2  -5   7   -4.00    5.10
  -3   5  -7   43.50    5.10
  -3   5  -7   34.50    9.20
  -3   5  -7   51.09    9.30
  -3   5  -7   47.20    8.70
   3  -5   7   40.10    9.10
   3  -5   7   40.30    7.00
   3  -5   7   52.89    3.90
   3  -5   7   46.70    9.70
  -4   5  -7   36.90    8.70
  -4   5  -7   54.99    6.70
  -4   5  -7   47.00    9.90
  -4   5  -7   43.30    9.10
   4  -5   7   46.50    7.60
   4  -5   7   36.50   10.00
   4  -5   7   44.50   10.30
   4  -5   7   51.59    3.90
  -5   5  -7   27.90    9.90
  -5   5  -7   20.60    9.50
  -5   5  -7    7.30    8.60
  -5   5  -7   -0.30    3.90
  -5   5  -7    5.20    8.70
   5  -5   7   -2.00    5.80
   5  -5   7    0.40    9.00
   5  -5   7    9.90    9.80
   5   4  -7   -6.60    5.20
   5   4  -7   21.60   10.10
   5   4  -7   -0.30   10.10
   5   4  -7   -3.50    9.30
   5   4  -7    6.80    8.80
  -5  -4   7   -1.90    8.40
  -5  -4   7   -1.90    5.30
  -5  -4   7   -7.20    8.60
  -5  -4   7   -7.20    5.80
   4   4  -7   52.49    8.40
   4   4  -7   37.70    9.70
   4   4  -7   22.20    9.50
   4   4  -7   47.50   11.10
  -4  -4   7   35.20   11.50
  -4  -4   7   57.29   10.30
  -4  -4   7   36.70    6.70
   3   4  -7   -6.40    3.40
   3   4  -7   -3.00    6.00
   3   4  -7    5.00    4.00
   3   4  -7   -4.80    5.90
   3   4  -7   -1.70    6.00
  -3  -4   7   -3.20    2.00
  -3  -4   7    0.30    3.60
  -3  -4   7  -10.20    7.80
  -3  -4   7   -8.80    6.60
  -3  -4   7    2.40    4.30
  -3  -4   7  -13.70    7.60
   2   4  -7   51.69    7.60
   2   4  -7   53.99    8.90
   2   4  -7   55.39    4.50
   2   4  -7   51.79    8.20
   2   4  -7   49.40    8.00
  -2  -4   7   58.09    9.70
  -2  -4   7   64.59    9.10
  -2  -4   7   47.80   10.10
  -2  -4   7   62.59    6.70
  -2  -4   7   58.49    8.30
   1   4  -7  230.58   12.90
   1   4  -7  237.58   15.10
   1   4  -7  239.18   14.80
  -1  -4   7  233.28   18.00
  -1  -4   7  224.58   14.90
  -1  -4   7  260.27   15.90
  -1  -4   7  231.98   13.40
  -1  -4   7  237.98   13.60
   0   4  -7   93.39   10.00
   0   4  -7  116.19   10.00
   0   4  -7   94.09    8.80
   0  -4   7  110.69   10.50
   0  -4   7   87.09   10.80
   0  -4   7  107.59    9.30
   0  -4   7   85.99   13.10
   0  -4   7   87.09    9.90
  -1   4  -7  308.07   16.20
  -1   4  -7  290.27   15.30
   1  -4   7  261.37   17.90
   1  -4   7  273.47   15.80
  -2   4  -7    1.80    5.40
  -2   4  -7    4.10    5.20
  -2   4  -7    5.40    4.10
  -2   4  -7    4.90    5.00
  -2   4  -7    3.00    1.30
   2  -4   7   11.00    5.10
   2  -4   7   -3.70    5.70
   2  -4   7    5.20    5.40
   2  -4   7    3.80    5.50
  -3   4  -7    0.70    5.20
  -3   4  -7   -0.80    6.20
  -3   4  -7   -1.40    2.40
  -3   4  -7   -9.20    5.80
   3  -4   7   -6.50    5.90
   3  -4   7   -8.00    4.20
   3  -4   7   -5.50    6.60
   3  -4   7    8.80    6.60
  -4   4  -7   40.40    8.30
  -4   4  -7   35.50    6.00
  -4   4  -7   21.70    8.20
  -4   4  -7   23.00    9.10
   4  -4   7   41.60    9.30
   4  -4   7   55.39    9.80
   4  -4   7   31.20    6.60
  -5   4  -7    6.50   14.80
  -5   4  -7    8.20    8.50
  -5   4  -7    0.50    4.40
  -5   4  -7    7.80    8.40
  -5   4  -7    0.00    5.50
   5  -4   7   -3.90    6.00
   5  -4   7    9.10    8.40
   5  -4   7    0.80    7.80
   5  -4   7   -3.70    5.50
  -6   4  -7  119.69   11.80
  -6   4  -7  128.59   18.60
  -6   4  -7  131.89   17.90
   6  -4   7   74.89   16.20
   6  -4   7  119.09   13.30
   6  -4   7  189.88   28.30
   6  -4   7  147.09   19.30
   5   3  -7   -1.00    9.40
   5   3  -7   -2.20    4.80
   5   3  -7   -1.70    8.50
   5   3  -7    5.10    9.50
   5   3  -7    7.70   10.20
  -5  -3   7    6.40    8.30
  -5  -3   7   -7.70    5.20
  -5  -3   7    3.90    7.80
  -5  -3   7   10.50    4.80
   4   3  -7    5.90    7.00
   4   3  -7   12.50    6.90
   4   3  -7    7.30    3.70
  -4  -3   7   -2.90    5.10
  -4  -3   7    0.20    4.90
  -4  -3   7  -12.10    8.60
  -4  -3   7    5.10    7.30
   3   3  -7   -0.10    6.60
   3   3  -7    0.20    4.50
   3   3  -7    8.60    7.30
   3   3  -7   -5.90    3.10
   3   3  -7   -2.70    5.10
  -3  -3   7   -1.00    6.20
  -3  -3   7    0.60    3.50
  -3  -3   7   -3.20    3.60
  -3  -3   7   -8.20    8.00
   2   3  -7  143.39    7.90
   2   3  -7  153.58   12.30
   2   3  -7  109.79   13.30
   2   3  -7  155.68    9.80
   2   3  -7  153.38   12.40
   2   3  -7  156.08   13.60
  -2  -3   7  129.39   15.20
  -2  -3   7  144.59    8.20
  -2  -3   7  159.38   14.10
  -2  -3   7  167.98   12.90
  -2  -3   7  167.48   10.40
  -2  -3   7  159.38    8.80
   1   3  -7  127.09   10.80
   1   3  -7  129.69   10.60
   1   3  -7  129.99    8.80
   1   3  -7  136.19    9.20
  -1  -3   7  119.29    9.20
  -1  -3   7  123.09   10.00
  -1  -3   7  124.99    4.90
  -1  -3   7  132.79   11.10
  -1  -3   7  128.89   11.10
  -1  -3   7  121.49   13.80
   0   3  -7   57.59    8.10
   0   3  -7   60.99    8.10
   0   3  -7   54.99    8.00
   0   3  -7   61.49    7.10
   0  -3   7   66.29    7.30
   0  -3   7   65.99    8.70
   0  -3   7   54.39    7.80
   0  -3   7   62.09    9.30
   0  -3   7   63.09    9.10
  -1   3  -7    8.30    3.80
  -1   3  -7   10.80    3.80
  -1   3  -7    9.50    4.60
  -1   3  -7   20.90    5.40
   1  -3   7   10.80    5.10
   1  -3   7    8.20    6.20
   1  -3   7    9.50    4.80
   1  -3   7    8.80    3.40
  -2   3  -7  326.87   15.50
  -2   3  -7  334.07   18.40
  -2   3  -7  316.27   16.70
  -2   3  -7  324.87   16.50
  -2   3  -7  318.97   10.90
   2  -3   7  275.67   20.40
   2  -3   7  320.47   17.20
   2  -3   7  312.87   14.80
   2  -3   7  341.97   16.90
   2  -3   7  314.87   17.30
  -3   3  -7  374.76   19.50
  -3   3  -7  351.56   20.40
  -3   3  -7  369.36   14.50
  -3   3  -7  337.27   19.50
   3  -3   7  332.67   19.80
   3  -3   7  358.56   19.60
   3  -3   7  356.16   19.10
   3  -3   7  360.36   20.70
   3  -3   7  375.56   17.60
  -4   3  -7    1.50    3.30
  -4   3  -7    2.50    7.00
  -4   3  -7    5.00    6.30
  -4   3  -7   -2.00    6.10
   4  -3   7    8.80    6.90
   4  -3   7    0.70    4.70
   4  -3   7   -0.50    7.40
   4  -3   7    6.10    6.60
  -5   3  -7  122.39   10.20
  -5   3  -7  116.39   16.50
  -5   3  -7  128.79   16.10
  -5   3  -7  117.89   16.20
   5  -3   7  140.49   16.10
   5  -3   7   99.09   15.50
   5  -3   7  152.18   18.00
   5  -3   7  121.29   11.40
   5  -3   7  114.49   17.40
  -6   3  -7   54.99   11.40
  -6   3  -7   73.19    9.40
  -6   3  -7   53.79   11.40
  -6   3  -7  102.39   15.10
   6  -3   7   52.69   10.00
   6  -3   7   42.60   12.10
   6  -3   7   71.89   10.90
   5   2  -7   50.99   11.70
   5   2  -7   26.60   10.50
   5   2  -7   14.60    8.20
   5   2  -7   33.60    9.90
   5   2  -7   53.09    8.50
   5   2  -7   14.90    5.30
  -5  -2   7   18.10    8.60
  -5  -2   7   31.40    8.50
  -5  -2   7   29.50    7.30
   4   2  -7  660.73   30.60
   4   2  -7  643.44   26.00
   4   2  -7  677.13   29.40
   4   2  -7  670.03   31.90
  -4  -2   7  662.33   33.20
  -4  -2   7  647.64   29.10
  -4  -2   7  640.34   25.80
  -4  -2   7  630.94   27.70
   3   2  -7   56.79    9.10
   3   2  -7   54.59    9.90
   3   2  -7   60.69    8.00
   3   2  -7   58.49    6.30
   3   2  -7   70.09    8.90
  -3  -2   7   57.19   10.30
  -3  -2   7   55.59   10.80
  -3  -2   7   61.39    7.40
  -3  -2   7   53.09    7.50
  -3  -2   7   53.29   10.30
   2   2  -7   39.90    8.40
   2   2  -7   49.99    5.80
   2   2  -7   44.10    8.20
   2   2  -7   58.69    9.00
   2   2  -7   54.39    8.50
   2   2  -7   48.70    5.60
  -2  -2   7   51.19    4.90
  -2  -2   7   54.89    5.60
  -2  -2   7   46.40   10.20
  -2  -2   7   44.10    8.30
  -2  -2   7   49.80    8.80
  -2  -2   7   60.09    6.30
   1   2  -7   52.99    6.50
   1   2  -7   53.19    7.30
   1   2  -7   44.50    5.30
  -1  -2   7   45.00    5.60
  -1  -2   7   43.00    6.90
  -1  -2   7   36.20    5.70
  -1  -2   7   49.40    3.60
  -1  -2   7   43.60    8.70
  -1  -2   7   40.90    6.00
   0   2  -7  386.96   16.90
   0   2  -7  399.76   18.00
   0   2  -7  394.56   18.10
   0   2  -7  383.36   16.40
   0  -2   7  385.86   17.20
   0  -2   7  384.56   20.20
   0  -2   7  393.76   16.70
   0  -2   7  413.26   17.40
   0  -2   7  418.66   18.40
  -1   2  -7  111.99    8.70
  -1   2  -7  126.19    9.10
  -1   2  -7  140.89    9.50
  -1   2  -7  116.49   10.60
   1  -2   7  128.89    9.40
   1  -2   7  127.99    9.60
   1  -2   7  122.39   10.60
   1  -2   7  127.09   12.10
   1  -2   7  118.69    7.10
   1  -2   7  116.59    8.80
  -2   2  -7  118.09    5.00
  -2   2  -7  114.89   11.60
  -2   2  -7  119.79    8.70
  -2   2  -7  110.69   10.20
  -2   2  -7  113.19    9.30
   2  -2   7  112.59    9.80
   2  -2   7  118.89   11.10
   2  -2   7  123.79   10.30
   2  -2   7  109.69    7.70
   2  -2   7  118.49   10.40
  -3   2  -7   16.70    5.80
  -3   2  -7   18.40    5.90
  -3   2  -7   24.80    3.80
  -3   2  -7   23.60    5.90
   3  -2   7   19.00    5.20
   3  -2   7   15.40    5.70
   3  -2   7   18.40    6.30
   3  -2   7   15.00    6.10
  -4   2  -7   76.49    7.40
  -4   2  -7   66.99   10.50
  -4   2  -7   65.39    9.60
  -4   2  -7   55.59    8.40
  -4   2  -7   64.29   10.00
   4  -2   7   61.49    9.30
   4  -2   7   58.79    9.20
   4  -2   7   67.79    9.60
   4  -2   7   83.19    9.10
   4  -2   7   66.49   11.50
  -5   2  -7  184.08   17.00
  -5   2  -7  197.58   13.30
  -5   2  -7  185.58   17.90
   5  -2   7  181.08   17.10
   5  -2   7  229.88   18.20
   5  -2   7  199.18   13.50
   5  -2   7  195.78   18.70
   5  -2   7  207.48   18.60
  -6   2  -7    4.50    5.40
  -6   2  -7    2.40    9.30
   6  -2   7   25.20    9.90
   6  -2   7    9.20    6.40
   6  -2   7   29.20   13.00
   6  -2   7    8.70    9.10
   6  -2   7    8.20    8.10
  -7   2  -7   44.40    8.20
  -7   2  -7   57.79   11.50
  -7   2  -7   48.60   12.30
  -7   2  -7   56.99   12.60
   7  -2   7   55.49   13.70
   7  -2   7   51.29   11.90
   7  -2   7   36.10   11.10
   5   1  -7   17.40    4.80
   5   1  -7   -1.60    7.40
   5   1  -7    7.40    8.60
   5   1  -7   22.70   11.10
   5   1  -7   16.10    9.00
   5   1  -7    5.30    3.80
  -5  -1   7   13.30    9.40
  -5  -1   7    3.00    5.70
  -5  -1   7   14.20    5.00
   4   1  -7   63.49    9.00
   4   1  -7   78.19   11.60
   4   1  -7   54.69    7.00
   4   1  -7   80.99    8.30
  -4  -1   7   65.79    7.70
  -4  -1   7   68.99    9.60
  -4  -1   7   90.19    8.40
  -4  -1   7   65.79   11.60
   3   1  -7   29.60    7.00
   3   1  -7   20.40   10.90
   3   1  -7   16.80    3.50
   3   1  -7   17.00    5.50
   3   1  -7   29.60    8.10
  -3  -1   7   20.20    3.70
  -3  -1   7   18.30    3.70
  -3  -1   7   17.00    8.50
  -3  -1   7   24.10    5.40
   2   1  -7   25.30    7.00
   2   1  -7   26.20    5.20
   2   1  -7   22.60    3.20
   2   1  -7   29.80    4.50
   2   1  -7   32.50    6.20
   2   1  -7   21.30    4.60
   2   1  -7   22.80    6.70
  -2  -1   7   27.30    4.50
  -2  -1   7   35.50    7.50
  -2  -1   7   33.60    4.90
  -2  -1   7   30.90    8.60
  -2  -1   7   27.90    4.40
   1   1  -7   -0.10    3.00
   1   1  -7   -8.10    3.70
   1   1  -7   -2.00    1.80
   1   1  -7    2.20    1.90
   1   1  -7   -0.40    3.90
   1   1  -7   -1.30    2.80
  -1  -1   7    2.00    6.00
  -1  -1   7    0.50    2.00
  -1  -1   7    1.20    4.40
  -1  -1   7    0.20    1.90
  -1  -1   7    1.80    2.00
  -1  -1   7    1.50    2.70
   0   1  -7  267.17   11.80
   0   1  -7  275.17   14.00
   0   1  -7  267.17   12.20
   0   1  -7  279.77   13.70
   0  -1   7  280.37   14.00
   0  -1   7  239.48   12.90
   0  -1   7  268.77   13.10
   0  -1   7  279.47   12.10
   0  -1   7  279.27   16.30
  -1   1  -7   91.09    7.40
  -1   1  -7   83.89    9.20
  -1   1  -7   80.69    6.50
  -1   1  -7   83.49    7.80
   1  -1   7   78.09   10.10
   1  -1   7   87.19    7.90
   1  -1   7   74.19    5.60
   1  -1   7   67.69    8.80
   1  -1   7   84.09    7.10
   1  -1   7   81.69    7.40
  -2   1  -7  158.68   10.70
  -2   1  -7  144.29   10.10
  -2   1  -7  162.38   12.50
  -2   1  -7  152.78    9.70
   2  -1   7  143.19   11.60
   2  -1   7  157.78   11.80
   2  -1   7  150.28   10.50
   2  -1   7  162.78   10.60
   2  -1   7  150.38   10.70
   2  -1   7  144.19    8.60
  -3   1  -7   32.00    4.40
  -3   1  -7   20.50    6.80
  -3   1  -7   27.50    6.10
  -3   1  -7   28.90    6.10
   3  -1   7   27.20    6.00
   3  -1   7   35.20    5.70
   3  -1   7   30.60    6.90
   3  -1   7   36.10    7.50
   3  -1   7   27.30    7.10
  -4   1  -7   42.20    6.20
  -4   1  -7   35.60    8.00
  -4   1  -7   29.10    7.20
  -4   1  -7   35.20    8.40
  -4   1  -7   47.70    7.00
   4  -1   7   43.50    7.90
   4  -1   7   44.30    6.70
   4  -1   7   46.00    9.80
   4  -1   7   33.00    7.70
   4  -1   7   35.80    6.80
  -5   1  -7   51.39    8.40
  -5   1  -7   45.20    9.20
  -5   1  -7   19.30   10.50
  -5   1  -7   39.80    9.10
   5  -1   7   50.39    9.50
   5  -1   7   47.70    9.30
   5  -1   7   50.49    9.00
   5  -1   7   49.30    7.30
  -6   1  -7   18.70    7.00
  -6   1  -7   29.80    9.90
  -6   1  -7   29.10    9.70
  -6   1  -7   31.90    6.90
  -6   1  -7   28.50    9.70
   6  -1   7   31.50    9.90
   6  -1   7   37.30    7.40
   6  -1   7   54.89   11.20
   6  -1   7   59.09   15.40
   6  -1   7   33.70    9.40
  -7   1  -7   22.30    6.30
  -7   1  -7   22.00    9.10
  -7   1  -7   20.60   10.10
  -7   1  -7   22.50   10.30
  -7   1  -7    9.10   10.60
  -7   1  -7   27.10    6.40
   7  -1   7   45.40   10.90
   7  -1   7   46.40   11.40
   7  -1   7   59.49   12.90
   5   0  -7   12.20    3.90
   5   0  -7   15.40    4.20
   5   0  -7   12.90    8.80
   5   0  -7   17.40    9.60
  -5   0   7    8.60    5.90
  -5   0   7   14.30    4.70
  -5   0   7    5.80   10.40
  -5   0   7   20.80    4.40
   4   0  -7    6.50    7.80
   4   0  -7   21.30    4.10
  -4   0   7   16.00    4.90
  -4   0   7   13.90    9.20
  -4   0   7   15.90    5.70
   3   0  -7    9.50    4.80
   3   0  -7    2.50    4.90
   3   0  -7    5.30    2.40
   3   0  -7   -5.50    7.40
   3   0  -7   -0.90    4.70
   3   0  -7    1.90    6.60
  -3   0   7    9.40    2.70
  -3   0   7    4.60    7.20
  -3   0   7    4.90    4.70
  -3   0   7    5.10    3.20
   2   0  -7   26.50    5.80
   2   0  -7   25.40    4.20
   2   0  -7   22.80    6.40
   2   0  -7   27.10    3.60
   2   0  -7   25.80    5.70
   2   0  -7   28.60    3.60
   2   0  -7   30.10    6.50
  -2   0   7   24.50    4.00
  -2   0   7   26.70    6.90
  -2   0   7   28.70    4.80
  -2   0   7   24.80    3.40
   1   0  -7   54.09    7.10
   1   0  -7   55.29    3.90
   1   0  -7   60.99    7.60
   1   0  -7   57.19    5.40
   1   0  -7   59.49    6.70
   1   0  -7   67.79    9.00
  -1   0   7   42.90    7.90
  -1   0   7   54.69    4.40
  -1   0   7   57.89    5.20
  -1   0   7   61.29    7.90
  -1   0   7   55.79    3.90
   0   0  -7  772.72   29.30
   0   0  -7  710.43   27.50
   0   0  -7  806.32   28.70
   0   0  -7  741.53   28.10
   0   0  -7  635.24   25.80
   0   0  -7  739.73   25.60
   0   0  -7  712.53   25.60
   0   0   7  739.33   25.70
   0   0   7  747.93   30.00
   0   0   7  722.93   28.00
   0   0   7  765.52   25.00
   0   0   7  755.02   27.50
  -1   0  -7  272.87   14.70
  -1   0  -7  262.67   11.10
  -1   0  -7  254.67   11.70
  -1   0  -7  273.57   12.90
  -1   0  -7  255.27   11.80
   1   0   7  268.97   14.40
   1   0   7  261.07   12.20
   1   0   7  253.67   14.70
   1   0   7  258.37   14.10
  -2   0  -7 1384.06   47.20
  -2   0  -7 1367.36   49.30
  -2   0  -7 1352.16   47.20
  -2   0  -7 1378.36   46.80
   2   0   7 1301.27   47.20
   2   0   7 1368.16   49.30
   2   0   7 1319.77   46.20
   2   0   7 1311.07   46.50
   2   0   7 1339.77   47.90
   2   0   7 1334.97   47.50
  -3   0  -7  404.96   19.60
  -3   0  -7  453.25   20.20
  -3   0  -7  427.16   20.80
   3   0   7  413.96   20.60
   3   0   7  450.75   20.50
   3   0   7  458.15   19.90
   3   0   7  430.56   20.50
   3   0   7  443.36   19.30
  -4   0  -7   77.19    8.70
  -4   0  -7   70.59    9.90
  -4   0  -7   65.49    9.00
   4   0   7   65.49   10.50
   4   0   7   74.59    8.70
   4   0   7   61.99    8.80
   4   0   7   61.79    9.90
   4   0   7   75.49   10.70
  -5   0  -7   71.09   10.30
  -5   0  -7   77.59    9.70
  -5   0  -7   63.99   10.60
  -5   0  -7   75.89   12.80
   5   0   7   76.39   10.60
   5   0   7   77.79   10.10
   5   0   7  101.49   16.30
   5   0   7   94.99   12.80
   5   0   7   82.69   12.70
  -6   0  -7  377.36   23.60
  -6   0  -7  349.37   21.30
  -6   0  -7  360.86   18.20
  -6   0  -7  393.06   24.10
  -6   0  -7  335.37   20.20
  -6   0  -7  369.26   23.90
   6   0   7  350.26   22.30
   6   0   7  354.56   27.40
   6   0   7  426.46   24.20
   6   0   7  393.96   20.30
   6   0   7  381.86   24.90
  -7   0  -7  132.29   15.80
  -7   0  -7  114.19   18.60
  -7   0  -7   95.79   13.10
  -7   0  -7   87.19   16.20
  -7   0  -7  142.09   18.90
  -7   0  -7  115.39   10.30
   7   0   7  162.88   23.30
   7   0   7   81.99   13.10
   7   0   7  150.88   19.30
   5  -1  -7   -5.80    3.40
   5  -1  -7    2.00    6.50
   5  -1  -7    0.30    4.70
   5  -1  -7  -11.70    8.00
   5  -1  -7    6.00    3.30
  -5   1   7   -4.10    5.50
  -5   1   7   -6.80    3.70
  -5   1   7   -7.00    4.80
   4  -1  -7   -7.30    3.40
   4  -1  -7    0.10    4.00
   4  -1  -7   -5.80    5.30
   4  -1  -7   -0.80    8.00
   4  -1  -7    4.10    2.40
  -4   1   7   -2.90    2.40
  -4   1   7   -7.50    4.10
  -4   1   7   -4.90    7.60
  -4   1   7    1.10    2.40
   3  -1  -7 2003.00   73.39
   3  -1  -7 2042.20   71.39
   3  -1  -7 1969.50   66.59
   3  -1  -7 1979.00   65.99
   3  -1  -7 1995.30   68.99
   3  -1  -7 2121.99   73.39
  -3   1   7 2060.69   72.49
  -3   1   7 1957.00   65.09
  -3   1   7 1970.40   69.49
  -3   1   7 1970.10   64.69
   2  -1  -7   13.00    4.40
   2  -1  -7   15.90    2.60
   2  -1  -7   15.00    6.10
   2  -1  -7   10.40    3.20
   2  -1  -7   11.40    5.80
   2  -1  -7   15.30    6.00
   2  -1  -7   12.20    3.10
  -2   1   7   10.00    1.30
  -2   1   7   13.60    4.00
  -2   1   7    8.60    6.20
  -2   1   7   10.50    1.30
   1  -1  -7  249.38    9.50
   1  -1  -7  230.48   13.40
   1  -1  -7  246.88   12.70
   1  -1  -7  229.08   12.20
   1  -1  -7  238.68   13.30
   1  -1  -7  233.68   14.20
   1  -1  -7  255.57   13.80
  -1   1   7  240.98   11.20
  -1   1   7  243.18   15.20
  -1   1   7  273.57   14.10
   0  -1  -7  469.35   20.90
   0  -1  -7  468.95   19.30
   0  -1  -7  471.15   18.60
   0  -1  -7  452.55   19.60
   0  -1  -7  437.76   16.30
   0  -1  -7  462.05   16.20
   0  -1  -7  465.25   19.30
   0  -1  -7  478.95   21.00
   0   1   7  444.16   16.00
   0   1   7  461.05   15.90
   0   1   7  477.95   17.30
   0   1   7  492.65   21.50
  -1  -1  -7  285.87   13.50
  -1  -1  -7  310.07   15.70
  -1  -1  -7  306.27   15.30
  -1  -1  -7  276.47   12.30
  -1  -1  -7  307.87   12.80
  -1  -1  -7  284.37   13.80
  -1  -1  -7  308.57   12.30
   1   1   7  288.77   15.20
   1   1   7  293.87   12.60
   1   1   7  315.47   15.40
   1   1   7  296.47   11.60
   1   1   7  302.97   14.30
  -2  -1  -7  668.13   27.00
  -2  -1  -7  644.74   27.40
  -2  -1  -7  622.74   26.10
  -2  -1  -7  642.74   24.70
  -2  -1  -7  658.23   25.20
  -2  -1  -7  633.64   22.30
   2   1   7  657.43   25.30
   2   1   7  637.44   25.00
   2   1   7  636.84   24.20
   2   1   7  659.73   27.30
   2   1   7  663.03   25.80
   2   1   7  649.64   25.50
  -3  -1  -7   33.30    6.10
  -3  -1  -7   42.80    5.30
  -3  -1  -7   36.50    2.30
  -3  -1  -7   35.90    7.50
  -3  -1  -7   30.80    6.20
   3   1   7   34.40    5.90
   3   1   7   42.90    7.70
   3   1   7   32.90    5.80
   3   1   7   27.10    5.50
   3   1   7   31.60    6.00
  -4  -1  -7   27.30    5.90
  -4  -1  -7   15.30    4.50
  -4  -1  -7   18.30    6.30
  -4  -1  -7   24.50    5.70
  -4  -1  -7   13.30    6.10
   4   1   7   13.10    7.60
   4   1   7   14.40    6.10
   4   1   7   18.20    6.90
   4   1   7   15.90    5.00
  -5  -1  -7   71.59   10.50
  -5  -1  -7   66.19    9.10
  -5  -1  -7   76.49   11.70
  -5  -1  -7   62.69    5.80
  -5  -1  -7   65.19   10.30
  -5  -1  -7   69.39   14.90
   5   1   7   58.29    9.30
   5   1   7   64.49    9.70
   5   1   7   65.49    9.80
   5   1   7   58.09    8.10
   5   1   7   68.79   13.50
  -6  -1  -7  147.39   10.10
  -6  -1  -7  176.88   16.60
  -6  -1  -7  183.58   17.50
  -6  -1  -7  136.59   19.50
  -6  -1  -7  146.19   16.10
  -6  -1  -7  166.68   11.00
   6   1   7  135.79   17.10
   6   1   7  144.89   18.90
   6   1   7  137.69   15.70
   6   1   7  157.58   16.90
   6   1   7  155.08   12.10
  -7  -1  -7    7.00    9.40
  -7  -1  -7   10.20    9.90
  -7  -1  -7   -1.40    6.00
  -7  -1  -7   10.40    9.40
  -7  -1  -7   -2.00    4.60
  -7  -1  -7    0.70    4.40
   7   1   7   34.30   14.30
   7   1   7   10.80    8.40
   7   1   7  -12.80    8.80
   7   1   7   12.80    9.60
   5  -2  -7    6.60    3.10
   5  -2  -7   11.20    9.50
   5  -2  -7   22.00    9.90
   5  -2  -7   -1.40    3.60
   5  -2  -7   11.50    5.00
   5  -2  -7   -1.00    9.70
  -5   2   7   16.30    9.30
  -5   2   7    3.40    5.50
  -5   2   7    3.80    2.90
  -5   2   7   -2.00    3.80
   4  -2  -7  115.29    8.40
   4  -2  -7  101.49    7.20
   4  -2  -7  127.69    9.00
   4  -2  -7   94.69    5.20
   4  -2  -7  114.69    8.20
   4  -2  -7  120.49   14.10
   4  -2  -7  109.89   13.10
  -4   2   7  101.89   12.90
  -4   2   7  109.09    6.50
  -4   2   7  119.29   11.40
  -4   2   7  114.19    6.20
   3  -2  -7  111.69    9.60
   3  -2  -7  104.59    7.30
   3  -2  -7  101.29    8.30
   3  -2  -7  120.99   12.80
   3  -2  -7  110.99   13.40
   3  -2  -7   89.49   11.20
   3  -2  -7  105.69    7.30
  -3   2   7  111.89   10.70
  -3   2   7  124.99   12.10
  -3   2   7  106.59    4.50
  -3   2   7  120.69    4.70
   2  -2  -7  768.32   28.40
   2  -2  -7  778.92   30.00
   2  -2  -7  711.93   24.80
   2  -2  -7  798.42   32.80
   2  -2  -7  767.92   30.20
   2  -2  -7  711.23   24.80
   2  -2  -7  786.22   30.70
  -2   2   7  767.62   29.40
  -2   2   7  776.72   31.20
   1  -2  -7   -1.70    3.80
   1  -2  -7   14.00    4.80
   1  -2  -7    7.10    3.60
   1  -2  -7    3.90    3.90
   1  -2  -7    6.30    3.50
  -1   2   7    4.70    3.20
   0  -2  -7   12.40    2.10
   0  -2  -7   17.50    5.00
   0  -2  -7    8.90    4.50
   0  -2  -7   11.00    3.70
   0  -2  -7   16.30    1.60
   0  -2  -7   15.80    3.90
   0  -2  -7    9.70    3.70
   0  -2  -7    7.20    4.70
   0   2   7   12.50    3.00
   0   2   7    6.10    4.80
  -1  -2  -7   32.50    5.20
  -1  -2  -7   35.50    6.20
  -1  -2  -7   29.80    4.30
  -1  -2  -7   35.90    5.60
  -1  -2  -7   36.60    6.80
  -1  -2  -7   35.80    4.70
  -1  -2  -7   34.90    4.10
  -1  -2  -7   30.30    5.70
   1   2   7   30.30    5.40
   1   2   7   36.60    5.60
   1   2   7   27.30    3.80
  -2  -2  -7  231.78    9.90
  -2  -2  -7  215.18   13.80
  -2  -2  -7  201.68   12.30
  -2  -2  -7  243.48   14.70
  -2  -2  -7  250.87   12.00
  -2  -2  -7  234.28   11.50
  -2  -2  -7  187.58   10.80
   2   2   7  210.38   13.60
   2   2   7  235.98   12.50
   2   2   7  224.18   11.50
   2   2   7  212.18   12.30
   2   2   7  239.08   12.20
  -3  -2  -7  887.31   32.90
  -3  -2  -7  931.11   34.60
  -3  -2  -7  884.41   34.30
  -3  -2  -7  921.11   34.90
  -3  -2  -7  905.81   36.20
  -3  -2  -7  890.31   37.00
   3   2   7  905.81   33.40
   3   2   7  893.21   35.90
   3   2   7  887.71   34.20
   3   2   7  888.11   33.70
   3   2   7  924.51   32.70
   3   2   7  894.41   35.30
  -4  -2  -7    4.90    5.60
  -4  -2  -7   -0.40    4.70
  -4  -2  -7    5.10    4.40
  -4  -2  -7    8.40    4.20
  -4  -2  -7    1.70    4.60
   4   2   7    6.30    4.80
   4   2   7   11.70    5.50
   4   2   7   -2.20    4.90
   4   2   7   -2.00    3.90
   4   2   7   -1.90    5.50
  -5  -2  -7    1.90    3.40
  -5  -2  -7   -0.60    4.80
  -5  -2  -7    1.40    4.60
  -5  -2  -7    0.50    5.20
  -5  -2  -7   -1.20    6.50
  -5  -2  -7    2.40    4.30
   5   2   7   -0.60    5.70
   5   2   7   -1.40    5.90
   5   2   7   -6.80    5.90
   5   2   7   -5.50    4.80
  -6  -2  -7  149.69   13.90
  -6  -2  -7  154.88   17.90
  -6  -2  -7  157.78   16.20
  -6  -2  -7  158.98   11.30
  -6  -2  -7  147.99   16.30
  -6  -2  -7  157.48   10.70
   6   2   7  154.18   17.10
   6   2   7  157.08   13.80
   6   2   7  152.28   15.40
   6   2   7  143.19   15.80
   6   2   7  142.39   19.80
  -7  -2  -7  121.19    9.60
  -7  -2  -7   92.39   14.60
  -7  -2  -7  128.39   17.50
  -7  -2  -7  108.09   20.10
  -7  -2  -7  145.39   17.30
  -7  -2  -7  105.79   11.50
   7   2   7  111.19   18.10
   7   2   7  118.79   16.10
   7   2   7  148.89   24.60
   7   2   7  110.39   17.90
  -8  -2  -7   -2.10    9.70
  -8  -2  -7    2.30   10.70
  -8  -2  -7   13.60   10.50
  -8  -2  -7   17.90    9.40
  -8  -2  -7  -12.60    6.40
   8   2   7   23.50   21.10
   8   2   7   -9.60   10.20
   8   2   7  -12.20    9.30
   5  -3  -7   22.40   10.80
   5  -3  -7   13.60    3.40
   5  -3  -7   21.20    5.20
   5  -3  -7    9.70    3.90
   5  -3  -7    6.80    2.30
  -5   3   7   13.70    3.30
  -5   3   7   12.50    6.50
  -5   3   7   11.60    4.10
   4  -3  -7   25.20    3.70
   4  -3  -7   21.20    4.10
   4  -3  -7   23.20    7.80
   4  -3  -7   26.00    9.90
   4  -3  -7   19.90    5.80
   4  -3  -7   14.20    9.10
   4  -3  -7   20.20    4.20
   4  -3  -7   17.60    2.90
  -4   3   7   19.50    6.40
  -4   3   7   16.80    2.70
  -4   3   7   15.00    2.40
   3  -3  -7   46.30    6.70
   3  -3  -7   27.50    6.60
   3  -3  -7   30.00    8.20
   3  -3  -7   37.40    4.90
   3  -3  -7   48.60    9.90
   3  -3  -7   46.20    8.80
  -3   3   7   40.10    7.40
   2  -3  -7  878.41   33.00
   2  -3  -7  873.01   36.10
   2  -3  -7  838.52   32.70
   2  -3  -7  813.62   33.10
   2  -3  -7  909.21   32.30
   2  -3  -7  800.72   38.10
  -2   3   7  839.42   32.80
   1  -3  -7   -0.50    3.60
   1  -3  -7    0.00    3.60
   1  -3  -7    4.30    5.40
   1  -3  -7    1.90    3.60
   1  -3  -7    9.60    4.20
   1  -3  -7    2.50    3.90
   1  -3  -7    1.40    2.70
  -1   3   7    1.50    3.30
   0  -3  -7  378.76   17.20
   0  -3  -7  349.37   17.20
   0  -3  -7  353.86   17.60
   0  -3  -7  381.56   20.00
   0  -3  -7  349.96   16.60
   0  -3  -7  384.56   16.20
   0   3   7  359.86   15.30
  -1  -3  -7  618.54   23.50
  -1  -3  -7  617.74   25.50
  -1  -3  -7  600.54   21.40
  -1  -3  -7  608.34   25.90
  -1  -3  -7  587.94   25.10
  -1  -3  -7  601.44   21.40
  -1  -3  -7  607.24   23.30
  -1  -3  -7  596.74   23.30
   1   3   7  620.74   24.20
   1   3   7  587.04   20.40
   1   3   7  627.74   22.90
   1   3   7  602.84   20.70
   1   3   7  625.44   24.20
  -2  -3  -7  229.48   13.60
  -2  -3  -7  198.98   11.30
  -2  -3  -7  224.08   13.50
  -2  -3  -7  245.88   12.00
  -2  -3  -7  258.57   11.50
   2   3   7  195.18   11.30
   2   3   7  228.68   11.20
   2   3   7  190.48   11.90
   2   3   7  232.08   10.90
   2   3   7  256.17   13.80
  -3  -3  -7 1439.26   49.90
  -3  -3  -7 1374.86   53.09
  -3  -3  -7 1407.46   48.00
  -3  -3  -7 1330.67   49.30
  -3  -3  -7 1415.26   50.29
  -3  -3  -7 1381.26   51.29
   3   3   7 1388.46   47.30
   3   3   7 1381.16   48.80
   3   3   7 1446.16   52.29
   3   3   7 1380.96   49.10
   3   3   7 1372.46   49.30
  -4  -3  -7  225.58   16.30
  -4  -3  -7  269.77   13.30
  -4  -3  -7  244.48   14.70
  -4  -3  -7  232.28   18.70
  -4  -3  -7  238.18   13.80
  -4  -3  -7  256.67   16.00
   4   3   7  249.28   17.20
   4   3   7  225.08   16.30
   4   3   7  242.28   17.50
   4   3   7  243.58   13.30
   4   3   7  243.48   15.40
  -5  -3  -7  164.18   11.50
  -5  -3  -7  157.78   15.70
  -5  -3  -7  168.68   13.90
  -5  -3  -7  168.28   15.60
   5   3   7  156.28   13.70
   5   3   7  169.28   15.30
   5   3   7  151.88   12.70
  -6  -3  -7  346.37   17.80
  -6  -3  -7  334.57   16.60
  -6  -3  -7  341.87   18.80
  -6  -3  -7  327.27   22.70
  -6  -3  -7  341.57   21.80
  -6  -3  -7  329.27   22.30
   6   3   7  367.76   22.70
   6   3   7  301.07   19.90
   6   3   7  340.97   25.50
  -7  -3  -7  138.79   17.00
  -7  -3  -7  143.59   13.90
  -7  -3  -7  130.99   14.80
  -7  -3  -7  124.99   10.20
  -7  -3  -7  122.59   17.00
   7   3   7  151.98   24.00
   7   3   7  181.58   19.50
   7   3   7  124.59   15.40
  -8  -3  -7   60.79   12.60
  -8  -3  -7   67.79   10.10
  -8  -3  -7   67.89   13.60
  -8  -3  -7   58.69    9.70
  -8  -3  -7  121.49   19.40
   8   3   7   70.29   13.40
   8   3   7  107.49   16.00
   8   3   7   67.69   22.20
   5  -4  -7   -3.90    3.50
   5  -4  -7    2.90    4.30
   5  -4  -7   -3.70    4.00
   5  -4  -7   -9.20    9.10
   5  -4  -7   -2.30    6.60
  -5   4   7   -2.40    9.20
  -5   4   7   -5.10    3.80
   4  -4  -7    4.10    3.20
   4  -4  -7    5.80    5.50
   4  -4  -7   11.30    8.60
   4  -4  -7   17.20    3.70
   4  -4  -7   19.20    7.30
   4  -4  -7   11.20    9.30
   4  -4  -7   11.70    3.60
  -4   4   7   13.90    5.70
  -4   4   7   11.20    2.30
  -4   4   7    9.10    2.60
   3  -4  -7   -6.90    3.60
   3  -4  -7   -4.50    6.70
   3  -4  -7   -2.60    5.10
   3  -4  -7   -5.50    5.80
   3  -4  -7   -2.00    2.30
  -3   4   7    2.40    5.50
   2  -4  -7 3768.62  120.49
   2  -4  -7 3576.34  116.89
   2  -4  -7 3588.64  116.19
   2  -4  -7 3615.34  120.39
   2  -4  -7 3334.27  111.49
   2  -4  -7 3624.84  116.79
   2  -4  -7 3213.28  111.69
  -2   4   7 3507.35  117.29
   1  -4  -7    3.60    4.60
   1  -4  -7    9.20    6.60
   1  -4  -7    3.30    4.20
   1  -4  -7    2.10    2.90
   1  -4  -7    6.00    4.60
   1  -4  -7    4.40    4.10
  -1   4   7    9.50    3.70
   0  -4  -7  723.63   26.70
   0  -4  -7  728.83   28.80
   0  -4  -7  753.02   27.60
   0  -4  -7  745.73   30.90
   0  -4  -7  750.72   29.60
   0  -4  -7  716.23   29.00
   0   4   7  763.92   30.70
   0   4   7  734.23   27.80
  -1  -4  -7   78.69    8.50
  -1  -4  -7   79.69    6.50
  -1  -4  -7   71.79    5.90
  -1  -4  -7   79.79    9.80
  -1  -4  -7   79.69   10.40
  -1  -4  -7   78.29    6.50
  -1  -4  -7   83.09    4.70
   1   4   7   81.69    6.70
   1   4   7   68.69    4.40
   1   4   7   85.29    7.90
   1   4   7   76.99    4.30
   1   4   7   71.99    8.30
  -2  -4  -7   -4.40    4.60
  -2  -4  -7    3.20    6.50
  -2  -4  -7   -0.30    3.30
  -2  -4  -7   -1.10    2.10
  -2  -4  -7   -1.10    3.10
   2   4   7   -5.10    3.70
   2   4   7    4.10    3.70
   2   4   7   -1.70    2.40
   2   4   7   -4.30    4.10
  -3  -4  -7  220.58   14.20
  -3  -4  -7  203.18   14.10
  -3  -4  -7  235.78   10.90
  -3  -4  -7  227.28   13.60
  -3  -4  -7  225.48   12.70
  -3  -4  -7  216.58   16.80
   3   4   7  226.08   12.50
   3   4   7  213.78   12.60
   3   4   7  226.88   15.80
   3   4   7  216.58   10.20
   3   4   7  220.38   14.40
  -4  -4  -7  129.89   15.70
  -4  -4  -7  101.89    9.50
  -4  -4  -7  127.29    8.70
  -4  -4  -7  111.39   13.60
  -4  -4  -7   92.19   10.50
  -4  -4  -7  112.49   12.90
   4   4   7  104.09    7.00
   4   4   7  104.39    8.90
   4   4   7  122.09   13.40
  -5  -4  -7   -2.90    4.50
  -5  -4  -7    3.20    4.40
  -5  -4  -7    3.40    6.50
  -5  -4  -7   -5.10    4.90
  -5  -4  -7   -4.80    5.10
   5   4   7   -2.00    4.90
   5   4   7   -9.60    8.00
   5   4   7   -2.20    6.10
   5   4   7   -0.50    5.40
  -6  -4  -7   53.59    8.30
  -6  -4  -7   55.29   10.60
  -6  -4  -7   51.99   10.50
  -6  -4  -7   49.20    9.50
  -6  -4  -7   63.29    9.70
   6   4   7   33.90    9.80
   6   4   7   50.39   14.50
  -7  -4  -7   21.20    5.40
  -7  -4  -7    8.50    6.80
  -7  -4  -7   18.00    8.90
  -7  -4  -7    5.50    7.00
  -7  -4  -7    9.70    9.00
   7   4   7   24.70   12.30
   7   4   7    3.90    9.30
   7   4   7   14.80    9.20
  -8  -4  -7   13.70   10.90
  -8  -4  -7    1.00    9.20
  -8  -4  -7    8.20    9.40
  -8  -4  -7   15.60   11.30
   8   4   7   23.50   11.00
   4  -5  -7    9.70    4.20
   4  -5  -7    8.60    4.90
   4  -5  -7   11.10    4.10
   4  -5  -7    8.50    8.50
   4  -5  -7    5.60    3.30
   4  -5  -7   16.10    9.20
   4  -5  -7   17.80    7.90
  -4   5   7    8.30    6.30
  -4   5   7    6.10    2.40
   3  -5  -7    9.30    7.20
   3  -5  -7   11.30    6.20
   3  -5  -7    8.40    4.00
   3  -5  -7    6.40    3.00
  -3   5   7    9.50    1.50
  -3   5   7    7.50    1.60
  -3   5   7   12.70    6.10
   2  -5  -7   -4.60    4.70
   2  -5  -7   -1.50    2.30
   2  -5  -7   -7.10    6.20
   2  -5  -7   -0.40    3.20
   2  -5  -7    1.10    4.90
  -2   5   7    3.20    5.20
   1  -5  -7 4064.29  135.69
   1  -5  -7 4259.07  136.79
   1  -5  -7 4041.60  131.19
   1  -5  -7 3909.51  127.79
   1  -5  -7 3739.13  127.79
   1  -5  -7 3959.90  130.59
   1  -5  -7 4294.97  133.49
   1  -5  -7 4072.89  134.39
  -1   5   7 3921.11  132.69
  -1   5   7 4082.99  134.49
   0  -5  -7   36.90    8.70
   0  -5  -7   26.70    4.00
   0  -5  -7   37.10    5.20
   0  -5  -7   22.70    4.90
   0  -5  -7   30.00    6.10
   0  -5  -7   27.80    5.60
   0  -5  -7   24.50    3.90
   0   5   7   25.30    7.00
   0   5   7   26.10    5.00
  -1  -5  -7   66.39    6.00
  -1  -5  -7   57.09   10.50
  -1  -5  -7   65.19    4.30
  -1  -5  -7   64.49    6.20
  -1  -5  -7   74.79    6.50
  -1  -5  -7   75.39    8.80
   1   5   7   62.69    7.30
   1   5   7   57.29    4.70
   1   5   7   68.79    4.40
   1   5   7   73.39    7.20
   1   5   7   57.49    8.70
  -2  -5  -7   -4.00    5.10
  -2  -5  -7    1.70    1.90
  -2  -5  -7    1.30    3.70
  -2  -5  -7    2.70    4.60
  -2  -5  -7    0.00    2.10
  -2  -5  -7   -1.30    6.60
  -2  -5  -7   -1.20    1.60
   2   5   7   -0.90    2.60
   2   5   7   -0.20    2.50
   2   5   7   -4.50    3.30
   2   5   7    6.30    5.80
   2   5   7   -4.60    5.30
  -3  -5  -7    9.50    2.80
  -3  -5  -7   -2.40    4.80
  -3  -5  -7    3.50    8.10
  -3  -5  -7   -0.30    3.00
  -3  -5  -7   -5.90    4.50
  -3  -5  -7    6.20    6.00
   3   5   7    2.60    4.10
   3   5   7    2.00    3.70
   3   5   7    5.90    6.60
   3   5   7   10.10    5.30
   3   5   7    3.20    6.10
  -4  -5  -7 3305.47  120.19
  -4  -5  -7 3468.05  114.49
  -4  -5  -7 3401.06  111.89
  -4  -5  -7 3370.46  115.99
  -4  -5  -7 3472.85  114.09
  -4  -5  -7 3333.07  114.99
   4   5   7 3458.85  115.09
   4   5   7 3366.66  114.59
   4   5   7 3496.25  120.49
   4   5   7 3460.15  113.29
   4   5   7 3363.76  114.79
  -5  -5  -7  152.18   13.30
  -5  -5  -7  162.58   11.60
  -5  -5  -7  125.69   18.50
  -5  -5  -7  156.88   11.50
  -5  -5  -7  123.89   15.40
  -5  -5  -7  124.39   14.40
   5   5   7  138.39   16.90
   5   5   7  156.78   14.30
   5   5   7  151.98   13.30
  -6  -5  -7   86.89   18.90
  -6  -5  -7   76.79   12.80
  -6  -5  -7   58.29   11.20
  -6  -5  -7   67.19   11.80
  -6  -5  -7   72.59   10.10
   6   5   7   75.49   15.00
  -7  -5  -7  119.69   16.50
  -7  -5  -7  124.99   17.30
  -7  -5  -7  104.69   13.20
  -7  -5  -7  139.49   19.00
   7   5   7  121.59   16.70
   7   5   7  104.59   20.60
   7   5   7  136.39   19.10
  -8  -5  -7   11.30   11.30
  -8  -5  -7    4.80    9.20
  -8  -5  -7   -3.60    8.60
  -8  -5  -7   -7.70    9.70
  -8  -5  -7   15.20   10.60
   8   5   7    0.70    9.40
   8   5   7    8.00    8.40
   4  -6  -7   -2.80    4.60
   4  -6  -7    7.60    4.30
   4  -6  -7    0.70    3.80
   4  -6  -7   -3.30    8.70
   4  -6  -7   -5.80    4.10
   4  -6  -7    6.50    6.20
  -4   6   7    7.70    3.70
  -4   6   7    1.70    6.60
   3  -6  -7   -1.60    3.30
   3  -6  -7    2.90    3.00
   3  -6  -7    9.40    5.50
   3  -6  -7   -0.20    7.90
   3  -6  -7    1.60    3.40
  -3   6   7    7.90    4.60
  -3   6   7    0.80    1.90
  -3   6   7    6.30    2.40
   2  -6  -7   -1.50    6.20
   2  -6  -7   -4.30    3.00
   2  -6  -7   -5.80    4.30
   2  -6  -7   -1.80    3.10
   2  -6  -7    2.70    5.50
   2  -6  -7   -1.60    9.60
  -2   6   7   -3.90    4.70
  -2   6   7    1.20    1.50
  -2   6   7  -11.30    6.30
   1  -6  -7 1426.96   48.10
   1  -6  -7 1404.66   54.69
   1  -6  -7 1460.85   47.90
   1  -6  -7 1369.26   53.39
   1  -6  -7 1411.66   48.80
   1  -6  -7 1550.74   56.89
   1  -6  -7 1468.05   49.50
  -1   6   7 1474.45   53.89
  -1   6   7 1415.46   52.09
  -1   6   7 1389.16   46.20
   0  -6  -7   -0.90    3.40
   0  -6  -7   -4.10    2.70
   0  -6  -7    2.40    2.50
   0  -6  -7    5.80    1.70
   0  -6  -7    5.20    3.00
   0  -6  -7   -8.20    7.60
   0  -6  -7   -4.00    6.90
   0   6   7   -3.30    4.30
   0   6   7    4.90    6.20
   0   6   7    5.50    1.70
   0   6   7    1.20    1.60
  -1  -6  -7  215.88   11.50
  -1  -6  -7  217.58   17.70
  -1  -6  -7  214.98    9.50
  -1  -6  -7  220.68   11.30
   1   6   7  210.58   12.50
   1   6   7  232.88   12.40
   1   6   7  200.78   13.70
   1   6   7  225.68    9.70
  -2  -6  -7   24.00    3.90
  -2  -6  -7   34.00   10.20
  -2  -6  -7   30.20    3.70
  -2  -6  -7   31.90    5.50
  -2  -6  -7   26.70    2.90
   2   6   7   26.80    4.10
   2   6   7   25.10    4.90
   2   6   7   20.60    7.90
   2   6   7   29.00    6.70
  -3  -6  -7   -1.90    6.40
  -3  -6  -7    0.00    2.40
  -3  -6  -7    0.30    5.50
  -3  -6  -7    6.30    9.40
  -3  -6  -7    9.50    6.50
  -3  -6  -7   -0.60    3.60
   3   6   7   -0.50    4.70
   3   6   7    1.50    4.10
   3   6   7   -2.50    6.90
   3   6   7    3.50    4.20
   3   6   7    9.20    6.60
  -4  -6  -7 1520.35   55.69
  -4  -6  -7 1458.65   53.89
  -4  -6  -7 1433.86   55.59
  -4  -6  -7 1484.85   51.09
  -4  -6  -7 1462.35   60.99
  -4  -6  -7 1461.65   53.89
   4   6   7 1529.45   59.09
   4   6   7 1523.15   52.99
   4   6   7 1482.05   53.89
   4   6   7 1491.95   55.09
   4   6   7 1443.56   55.19
  -5  -6  -7  493.05   21.70
  -5  -6  -7  483.65   26.30
  -5  -6  -7  497.15   23.20
  -5  -6  -7  493.15   26.60
  -5  -6  -7  491.55   24.20
  -5  -6  -7  495.25   32.10
   5   6   7  493.05   26.70
   5   6   7  502.85   25.20
   5   6   7  515.25   29.70
   5   6   7  509.45   24.80
  -6  -6  -7  176.98   18.10
  -6  -6  -7  179.88   23.70
  -6  -6  -7  190.28   13.70
  -6  -6  -7  163.38   15.70
  -6  -6  -7  168.98   18.30
   6   6   7  206.58   15.90
   6   6   7  151.68   19.60
  -7  -6  -7   54.29   12.00
  -7  -6  -7   37.20   10.00
  -7  -6  -7   59.99   13.00
  -7  -6  -7   62.49    9.40
   7   6   7   59.59    9.90
   7   6   7   64.29    4.50
   7   6   7   70.19   17.40
   7   6   7   41.80   10.20
  -8  -6  -7   -2.80    8.70
  -8  -6  -7    6.80   10.10
  -8  -6  -7    5.30   10.10
  -8  -6  -7  -13.80   10.00
  -8  -6  -7   11.80    9.50
   8   6   7    1.50   11.10
   8   6   7   -9.10    7.80
   8   6   7   15.10    3.80
   3  -7  -7    6.50    8.80
   3  -7  -7   -0.90    3.10
   3  -7  -7   -1.80    3.90
   3  -7  -7    2.00    5.20
   3  -7  -7    4.70    3.40
  -3   7   7    4.50    3.80
  -3   7   7   -1.30    2.50
  -3   7   7    1.50    4.90
  -3   7   7    3.20    7.20
   2  -7  -7    2.70    3.70
   2  -7  -7    9.70    4.20
   2  -7  -7   11.40    3.10
   2  -7  -7   12.80   10.90
   2  -7  -7    5.50    2.80
  -2   7   7    2.60    5.00
  -2   7   7    4.00    7.30
  -2   7   7   13.80    2.90
  -2   7   7    7.70    2.40
   1  -7  -7 3509.15  114.99
   1  -7  -7 3468.25  114.59
   1  -7  -7 3728.93  124.59
   1  -7  -7 3516.15  113.99
   1  -7  -7 3594.24  115.19
   1  -7  -7 3712.93  121.39
  -1   7   7 3583.14  120.59
  -1   7   7 3463.15  113.89
  -1   7   7 3422.26  118.89
  -1   7   7 3456.45  113.89
   0  -7  -7  167.98   17.80
   0  -7  -7  178.58   11.00
   0  -7  -7  186.18    8.70
   0  -7  -7  178.58   12.40
   0   7   7  170.88   13.10
   0   7   7  186.28    8.70
   0   7   7  177.08   11.60
   0   7   7  184.38   15.40
  -1  -7  -7  389.06   24.70
  -1  -7  -7  403.46   19.60
  -1  -7  -7  410.96   16.40
  -1  -7  -7  416.16   18.60
  -1  -7  -7  432.56   18.10
   1   7   7  433.16   16.60
   1   7   7  416.56   17.10
   1   7   7  441.86   18.10
   1   7   7  373.56   19.70
   1   7   7  421.56   22.00
  -2  -7  -7    8.10    9.80
  -2  -7  -7   18.40    5.80
  -2  -7  -7   14.70    5.30
  -2  -7  -7   16.10    2.80
   2   7   7   16.80    7.20
   2   7   7   16.20    4.00
   2   7   7   14.70    4.50
   2   7   7   11.10    7.10
   2   7   7   13.80    5.00
  -3  -7  -7  120.79   10.90
  -3  -7  -7   86.09   11.90
  -3  -7  -7  100.19   16.50
  -3  -7  -7   81.99    9.00
  -3  -7  -7   88.99   11.80
  -3  -7  -7  105.59    5.70
   3   7   7   98.09   10.20
   3   7   7  128.09    9.80
   3   7   7  108.49   12.00
   3   7   7  108.69   14.00
   3   7   7  107.79   12.50
  -4  -7  -7   15.20    5.20
  -4  -7  -7   27.90   13.30
  -4  -7  -7   11.10    3.70
  -4  -7  -7   27.20    8.90
  -4  -7  -7   11.10    7.40
  -4  -7  -7    8.30    7.00
   4   7   7   36.50   10.60
   4   7   7   25.40    6.00
   4   7   7   15.20    6.20
   4   7   7   16.60    7.60
   4   7   7   16.00    8.30
  -5  -7  -7  828.22   37.50
  -5  -7  -7  811.52   37.00
  -5  -7  -7  806.22   43.20
  -5  -7  -7  858.71   35.10
  -5  -7  -7  790.12   31.30
   5   7   7  825.12   40.70
   5   7   7  809.02   37.40
   5   7   7  841.52   35.80
  -6  -7  -7   53.49   11.80
  -6  -7  -7   40.70   10.00
  -6  -7  -7   64.09   16.50
  -6  -7  -7   40.70    8.90
  -6  -7  -7   38.50    6.70
   6   7   7   44.40    9.70
   6   7   7   38.80   11.80
  -7  -7  -7    2.60    6.20
  -7  -7  -7    4.90    8.50
  -7  -7  -7    8.10   14.50
  -7  -7  -7   -4.40    9.70
  -7  -7  -7    2.00    9.50
   7   7   7   -4.20   11.70
   7   7   7  -12.30    8.20
   7   7   7    8.30    8.10
   7   7   7   -5.20    7.10
   7   7   7    9.10   12.90
   3  -8  -7    1.40    5.00
   3  -8  -7   -1.70    5.00
   3  -8  -7   -0.10    4.10
   3  -8  -7    0.90    2.80
   3  -8  -7   -6.30   10.70
  -3   8   7    6.50    8.30
  -3   8   7    8.70    4.80
   2  -8  -7    6.00    2.70
   2  -8  -7    8.90    3.80
   2  -8  -7   -3.50    4.10
   2  -8  -7   10.80    3.30
   2  -8  -7    0.80   11.10
  -2   8   7    6.70    3.00
  -2   8   7    6.70    5.10
  -2   8   7    4.30    7.90
   1  -8  -7   21.00   11.20
  -1   8   7   -7.40    8.20
  -1   8   7   13.40    5.90
   0  -8  -7 1791.82   61.39
   0  -8  -7 1856.61   71.69
   0  -8  -7 1870.01   63.09
   0   8   7 1768.92   65.49
   0   8   7 1869.21   62.49
   0   8   7 1858.01   67.59
  -1  -8  -7  140.59    9.60
  -1  -8  -7  143.89    8.60
  -1  -8  -7  151.68   12.10
   1   8   7  157.48   10.40
   1   8   7  156.28   14.90
  -2  -8  -7    6.70    2.30
  -2  -8  -7    6.60    3.10
  -2  -8  -7  -10.90    9.40
  -2  -8  -7   11.60    5.90
   2   8   7    8.20    6.20
   2   8   7   -1.80    3.70
   2   8   7    4.50    5.20
   2   8   7    5.20    4.30
   2   8   7   13.90    8.70
  -3  -8  -7   18.90   11.70
  -3  -8  -7   13.50    5.40
  -3  -8  -7    9.80    7.60
   3   8   7   14.40    5.50
   3   8   7   17.20    6.90
   3   8   7   22.70   10.10
   3   8   7   33.90    9.40
   3   8   7   28.60    5.90
  -4  -8  -7   72.99   12.20
  -4  -8  -7   97.99    6.40
  -4  -8  -7   84.59   10.40
  -4  -8  -7   91.09   12.20
  -4  -8  -7  100.09   16.60
   4   8   7   98.69   15.40
   4   8   7  120.79   10.90
   4   8   7  101.99   16.10
   4   8   7  103.49   14.40
   4   8   7   82.29   12.10
  -5  -8  -7 1234.48   45.10
  -5  -8  -7 1306.87   49.90
  -5  -8  -7 1261.97   51.29
  -5  -8  -7 1296.07   52.19
  -5  -8  -7 1281.47   59.39
   5   8   7 1282.57   50.79
   5   8   7 1305.27   52.49
  -6  -8  -7   19.30   16.10
  -6  -8  -7   16.80    7.70
  -6  -8  -7    9.00    9.70
  -6  -8  -7    6.10    8.90
   6   8   7   11.60    8.90
   6   8   7    3.60   12.80
   6   8   7    4.70   10.60
  -7  -8  -7   -9.80    8.20
  -7  -8  -7    9.20    9.80
  -7  -8  -7   -4.00   10.40
  -7  -8  -7   19.80   16.80
   7   8   7   -8.80   14.40
   7   8   7   -9.10    9.50
   7   8   7  -22.20   11.30
   7   8   7   -6.40    8.20
   7   8   7   -4.80    6.60
   2  -9  -7   21.90   13.40
   2  -9  -7   20.50    9.80
   2  -9  -7   24.50    4.50
   2  -9  -7   10.10    5.60
  -2   9   7   22.40   10.20
  -2   9   7   28.60    5.60
  -2   9   7   13.60    7.70
   1  -9  -7   51.39   14.00
   1  -9  -7   38.00    6.60
   1  -9  -7   44.20    7.00
  -1   9   7   34.00    6.50
  -1   9   7   56.79    8.60
  -1   9   7   29.40    7.20
  -1   9   7   25.70   10.20
   0  -9  -7  301.87   13.70
   0  -9  -7  296.27   24.70
   0  -9  -7  290.17   16.90
   0   9   7  276.97   20.50
   0   9   7  290.97   14.30
   0   9   7  289.47   16.60
   0   9   7  288.07   17.70
  -1  -9  -7   34.80    7.40
  -1  -9  -7   16.70   12.50
  -1  -9  -7   37.50    5.80
   1   9   7   26.20    7.90
   1   9   7   24.00    5.10
   1   9   7   33.90    5.50
   1   9   7   19.80    7.10
   1   9   7   23.70    7.00
  -2  -9  -7    2.80    6.30
  -2  -9  -7   -3.30    3.10
  -2  -9  -7   -4.50   11.40
   2   9   7   -6.70    7.20
   2   9   7   -1.20    4.10
   2   9   7    0.60    4.30
   2   9   7    1.00    6.00
  -3  -9  -7  -10.70   10.50
   3   9   7   -0.30    7.00
   3   9   7    3.90    6.40
   3   9   7   -6.50    8.50
   3   9   7   -0.10    4.10
  -4  -9  -7   -4.90    4.80
  -4  -9  -7    7.80    8.40
  -4  -9  -7    0.10   11.40
   4   9   7   12.00    5.70
   4   9   7   20.30    9.50
   4   9   7    6.20    8.60
  -5  -9  -7  746.13   37.20
  -5  -9  -7  795.02   29.40
  -5  -9  -7  828.42   38.50
   5   9   7  851.31   39.30
   5   9   7  803.82   36.80
   5   9   7  782.32   35.40
  -6  -9  -7    2.40    7.80
  -6  -9  -7   18.60   14.70
  -6  -9  -7   -1.10    9.10
  -6  -9  -7   -1.40    4.60
   6   9   7   -0.70   12.00
   6   9   7  -12.00    7.80
   6   9   7   13.90    9.30
   6   9   7   -8.10   10.00
  -7  -9  -7   83.19   13.40
  -7  -9  -7   98.89   12.60
  -7  -9  -7   69.39   12.50
  -7  -9  -7   98.59   22.50
  -7  -9  -7   89.29   14.80
   7   9   7   92.29   16.80
   7   9   7   85.09   12.30
   7   9   7  103.89   15.60
   1 -10  -7   -0.80    4.10
   1 -10  -7    1.50    6.60
   1 -10  -7    4.70   12.10
   1 -10  -7  -10.20    5.70
  -1  10   7   -9.10   11.00
  -1  10   7    4.50    7.70
   0 -10  -7  602.74   24.50
   0 -10  -7  607.34   35.90
   0 -10  -7  634.34   27.80
   0  10   7  621.44   27.80
   0  10   7  593.54   28.60
   0  10   7  603.74   25.10
  -1 -10  -7   37.70    5.50
  -1 -10  -7   49.90    9.10
   1  10   7   61.49    9.50
   1  10   7   37.80   19.80
   1  10   7   38.40    6.40
   1  10   7   40.90    8.50
  -2 -10  -7  141.19   22.50
  -2 -10  -7  192.58   10.20
  -2 -10  -7  178.48   12.20
  -2 -10  -7  166.68   16.50
   2  10   7  210.78   12.30
   2  10   7  199.38   17.10
   2  10   7  192.48   21.70
  -3 -10  -7    8.30    8.10
  -3 -10  -7    8.40    4.90
  -3 -10  -7   19.50   17.10
   3  10   7   14.30    9.30
   3  10   7   21.70    9.00
   3  10   7   19.20    5.90
  -4 -10  -7    2.60    5.20
  -4 -10  -7    9.20   14.50
   4  10   7   24.80    6.70
   4  10   7   13.60   10.00
   4  10   7    7.50    6.90
  -5 -10  -7   36.20   10.50
  -5 -10  -7   23.30   15.40
  -5 -10  -7   18.20    7.30
  -5 -10  -7   33.60   11.30
   5  10   7   29.50    7.10
   5  10   7   23.90   11.70
   5  10   7   10.60    7.80
   5  10   7   11.80   11.70
   5  10   7   13.10    9.90
  -6 -10  -7  122.59   23.60
  -6 -10  -7   77.69    8.40
  -6 -10  -7   68.39   13.40
  -6 -10  -7   65.69   13.20
  -6 -10  -7   57.69   11.10
   6  10   7   77.69   14.30
   6  10   7   74.39   15.50
   0 -11  -7   -2.60    4.50
   0 -11  -7   10.40    7.40
   0 -11  -7   17.40   12.90
   0  11   7   -1.30    7.40
   0  11   7    7.70    5.70
   0  11   7  -16.80   10.10
  -1 -11  -7   86.89   18.90
  -1 -11  -7   87.69    9.40
  -1 -11  -7   94.39   15.60
   1  11   7   80.89   14.40
   1  11   7  100.99   16.10
   1  11   7  104.79   11.70
   1  11   7  101.89   12.80
  -2 -11  -7   74.79   11.70
  -2 -11  -7   62.49   17.50
  -2 -11  -7   51.39    7.10
   2  11   7   52.69   12.20
   2  11   7   71.29   11.70
   2  11   7   54.99    8.60
  -3 -11  -7   14.50    0.90
  -3 -11  -7   23.50    9.40
  -3 -11  -7   25.00   15.30
  -3 -11  -7   19.20    5.90
   3  11   7   12.70    7.30
   3  11   7   34.30   11.70
   3  11   7   11.00    9.70
   3  11   7   34.50    6.90
  -4 -11  -7    3.90    8.60
  -4 -11  -7   -9.00    7.00
  -4 -11  -7   -3.10   12.60
   4  11   7   -0.20   10.00
   4  11   7  -11.90   11.50
   4  11   7    3.40    6.10
   4  11   7    0.50   10.20
  -5 -11  -7   18.00   14.70
  -5 -11  -7    6.30    9.30
  -5 -11  -7   -6.70    7.40
  -5 -11  -7    7.30    9.60
   5  11   7   -0.90    9.90
   5  11   7    9.90   11.30
   5  11   7    5.90    6.30
  -2 -12  -7  -10.70   13.80
  -2 -12  -7   -7.30    7.90
   2  12   7   -7.00    7.00
   2  12   7    0.80    4.50
   2  12   7   -8.40    9.80
   2  12   7   -9.40    9.00
  -3 -12  -7    3.90    9.50
  -3 -12  -7    4.90   14.10
  -3 -12  -7    2.90    1.80
   3  12   7   -3.10    5.50
   3  12   7  -11.20    7.90
   3  12   7   -8.90   10.60
   3  12   7    7.30   10.40
  -4 -12  -7   -6.20   14.60
  -4 -12  -7  -10.70    9.00
   4  12   7   -1.00   11.20
   4  12   7  -12.30   10.90
   4  12   7    1.70    5.60
   1   8  -8   -5.40    7.30
   1   8  -8  -12.90    8.20
  -1  -8   8   -6.80    9.90
  -1  -8   8   10.40    9.10
  -1  -8   8    6.70    9.90
   0   8  -8  149.19   15.40
   0   8  -8  193.48   18.60
   0   8  -8  210.38   20.10
   0  -8   8  171.28   19.80
   0  -8   8  201.88   21.10
   0  -8   8  241.78   23.60
  -1   8  -8    5.80    8.60
  -1   8  -8   13.30    8.70
  -1   8  -8    1.00    5.60
   1  -8   8   -4.80   10.90
   1  -8   8   16.60   11.80
   1  -8   8    6.40   10.90
   1  -8   8   15.80    7.40
   3   7  -8   -1.90    7.40
   3   7  -8  -13.30    6.70
   3   7  -8  -11.00    9.20
   3   7  -8  -10.40    9.30
  -3  -7   8    8.20   11.20
  -3  -7   8   13.00   11.40
  -3  -7   8   10.50    5.60
  -3  -7   8   -4.00   10.90
   2   7  -8    9.10    8.70
   2   7  -8   15.20    7.40
   2   7  -8   13.30    7.90
   2   7  -8    1.70    7.10
  -2  -7   8    1.70    7.40
  -2  -7   8   14.90    7.10
  -2  -7   8    7.90   10.50
  -2  -7   8    7.40   11.00
  -2  -7   8   18.80   11.60
   1   7  -8   13.60    8.40
  -1  -7   8   12.60    8.90
  -1  -7   8    8.20    7.60
  -1  -7   8   18.60   11.20
  -1  -7   8   10.00   10.10
  -1  -7   8   -2.20    6.30
   0   7  -8   60.89   10.00
   0   7  -8   43.00    9.80
   0   7  -8   41.70    8.30
   0  -7   8   40.10    8.30
   0  -7   8   48.90   12.00
   0  -7   8   52.49   11.20
   0  -7   8   36.60    9.90
  -1   7  -8   31.40    6.20
  -1   7  -8   45.90   10.00
   1  -7   8   41.20   11.70
   1  -7   8   50.29    9.30
   1  -7   8   47.00    8.70
   1  -7   8   48.70   12.00
   1  -7   8   39.50   11.20
  -2   7  -8    6.30    5.80
  -2   7  -8    9.40    8.50
  -2   7  -8    6.50    7.90
   2  -7   8   14.00    8.90
   2  -7   8  -11.00    9.90
   2  -7   8   -0.80    9.30
   2  -7   8   11.10   10.00
   2  -7   8   11.40    7.50
  -3   7  -8    0.00    8.70
   3  -7   8    1.90    3.30
   3  -7   8   -7.20    8.40
   3   6  -8  -11.70    5.90
   3   6  -8    2.10    7.90
   3   6  -8   -5.00    8.10
   3   6  -8   13.10    9.70
  -3  -6   8    1.20    4.30
  -3  -6   8   -1.70    3.80
  -3  -6   8   -9.00   10.50
  -3  -6   8   -1.20    9.60
  -3  -6   8   14.60   10.30
  -3  -6   8   -8.20    6.40
   2   6  -8  -12.70    6.90
   2   6  -8   -1.70    6.80
  -2  -6   8    1.30    5.40
  -2  -6   8   -4.40    7.90
  -2  -6   8   -1.00    8.10
  -2  -6   8  -11.20    8.60
   1   6  -8   88.59   10.60
  -1  -6   8   98.09   13.10
  -1  -6   8   93.89   11.40
  -1  -6   8  112.79   13.70
  -1  -6   8  116.29   13.50
   0   6  -8   15.00    5.60
   0  -6   8   17.60   12.20
   0  -6   8   15.20    8.90
   0  -6   8    4.20    6.50
   0  -6   8   17.30    7.00
   0  -6   8   10.40    7.00
  -1   6  -8   12.80    6.40
  -1   6  -8   14.60    5.30
   1  -6   8   18.00    8.80
   1  -6   8   30.60   18.40
   1  -6   8   18.50    8.90
  -2   6  -8    2.60    6.80
  -2   6  -8   -2.50    6.80
  -2   6  -8   -4.50    4.40
   2  -6   8   -2.50    8.00
   2  -6   8   13.60    9.60
   2  -6   8   -0.20    5.50
   2  -6   8   -3.30    9.70
  -3   6  -8    5.60    7.90
  -3   6  -8   -2.70    8.10
   3  -6   8    4.00    1.90
   3  -6   8   19.70    9.30
   3  -6   8    1.60    7.50
   3  -6   8    9.70    8.60
   3  -6   8   -5.80    9.00
  -4   6  -8    8.80    9.20
  -4   6  -8   18.00    9.60
  -4   6  -8    5.00    8.90
  -4   6  -8   -1.50    3.40
   4  -6   8   -2.30   10.70
   4   5  -8   10.60    6.00
   4   5  -8    1.50    9.30
   4   5  -8   -7.30    9.30
   4   5  -8   -1.90    5.40
   4   5  -8    2.30    8.00
  -4  -5   8    1.90   10.20
  -4  -5   8   11.70    9.40
  -4  -5   8   -2.50    6.20
  -4  -5   8   -0.50    5.00
  -4  -5   8    7.70    9.70
   3   5  -8   58.79    5.50
   3   5  -8   25.80   10.30
   3   5  -8   29.20   11.10
   3   5  -8   80.49   13.30
  -3  -5   8   38.60    7.30
  -3  -5   8   49.30   10.30
  -3  -5   8   49.50    6.50
  -3  -5   8   36.20   10.90
  -3  -5   8   53.59    7.00
  -3  -5   8   48.70   12.50
   2   5  -8   43.30    9.00
   2   5  -8   47.40    7.20
   2   5  -8   43.40   11.60
  -2  -5   8   62.29   10.80
  -2  -5   8   61.19    9.90
  -2  -5   8   45.50   12.30
  -2  -5   8   46.20    3.80
  -2  -5   8   60.99    8.30
   1   5  -8   10.70    4.90
   1   5  -8   16.50    7.00
   1   5  -8   12.00    6.10
  -1  -5   8   17.70    7.90
  -1  -5   8   22.20    9.20
  -1  -5   8   19.20    8.00
  -1  -5   8   17.20    6.30
  -1  -5   8   27.00    6.30
   0   5  -8   11.20    6.50
   0   5  -8   11.80    5.20
   0   5  -8    7.80    5.60
   0  -5   8   19.10    9.60
   0  -5   8   16.40    5.80
   0  -5   8    8.70    6.50
   0  -5   8   24.70    8.40
   0  -5   8   17.20    6.60
  -1   5  -8  218.78   16.00
  -1   5  -8  241.28   16.70
  -1   5  -8  202.58   13.60
  -1   5  -8  235.98   14.90
   1  -5   8  232.08   17.90
   1  -5   8  198.18   17.10
   1  -5   8  202.28   13.00
   1  -5   8  207.48   18.80
  -2   5  -8    1.40    6.10
  -2   5  -8   -2.80    7.00
  -2   5  -8   14.20    6.70
  -2   5  -8   10.80    4.60
   2  -5   8   -4.90    6.60
   2  -5   8    4.70    7.80
   2  -5   8    6.20    3.60
   2  -5   8   10.70    8.60
   2  -5   8   -1.50    4.80
  -3   5  -8  100.59   15.80
  -3   5  -8  115.09   15.00
   3  -5   8   67.49   12.00
   3  -5   8   92.19   15.70
  -4   5  -8   49.30    6.40
  -4   5  -8   62.49   10.70
  -4   5  -8   51.09   10.70
  -4   5  -8   46.10   10.80
  -4   5  -8   85.99   13.20
   4  -5   8   69.09   11.40
   4  -5   8   46.40    9.30
   4  -5   8   52.29   11.50
   4  -5   8   61.99   10.40
  -5   5  -8   22.50   10.40
  -5   5  -8    1.30    8.90
  -5   5  -8    2.20    4.20
  -5   5  -8   -3.10    8.50
   5  -5   8    7.90    9.50
   5  -5   8    1.20    6.70
   4   4  -8  351.86   23.50
   4   4  -8  376.26   23.70
   4   4  -8  355.36   24.40
   4   4  -8  353.46   18.20
   4   4  -8  365.06   18.60
  -4  -4   8  403.36   24.50
  -4  -4   8  341.97   18.90
  -4  -4   8  358.96   25.40
  -4  -4   8  361.26   18.00
   3   4  -8   -3.10    4.00
   3   4  -8   -8.40    5.50
   3   4  -8    4.00    6.90
   3   4  -8    1.40    8.30
   3   4  -8    3.00    7.00
   3   4  -8    3.90    3.80
  -3  -4   8    4.70    3.70
  -3  -4   8   -0.30    7.10
  -3  -4   8   -7.80    8.70
   2   4  -8   70.79    8.80
   2   4  -8   75.89   11.70
   2   4  -8   98.79   12.70
  -2  -4   8   88.69    5.70
  -2  -4   8   85.39    9.70
  -2  -4   8   94.39    8.30
  -2  -4   8  103.99   13.70
  -2  -4   8   87.39   13.40
  -2  -4   8  106.29   15.80
   1   4  -8   84.59   11.40
   1   4  -8   68.09    7.70
   1   4  -8   48.60    8.10
  -1  -4   8   68.19   11.70
  -1  -4   8   69.89   11.60
  -1  -4   8   65.89    8.80
  -1  -4   8   73.49   10.90
  -1  -4   8   73.19    8.90
   0   4  -8   21.40    5.00
   0   4  -8   15.00    5.70
   0   4  -8   15.70    5.80
   0   4  -8   27.90    6.10
   0  -4   8   12.80    6.40
   0  -4   8   14.60    5.90
   0  -4   8   15.70    5.10
   0  -4   8   10.00    8.90
   0  -4   8   24.10    6.30
  -1   4  -8  338.37   18.10
  -1   4  -8  394.06   19.30
  -1   4  -8  465.85   20.70
   1  -4   8  429.16   22.10
   1  -4   8  358.46   21.10
   1  -4   8  337.37   16.50
   1  -4   8  396.36   19.70
  -2   4  -8   -0.90    5.70
  -2   4  -8    2.60    4.20
  -2   4  -8   -1.60    7.00
  -2   4  -8   -3.10    4.90
   2  -4   8   -5.20    3.50
   2  -4   8   -4.40    6.50
   2  -4   8   -7.40    6.40
   2  -4   8    7.30    7.40
  -3   4  -8    3.70    6.90
  -3   4  -8    7.60    7.80
  -3   4  -8    8.40    6.40
   3  -4   8    7.40    6.20
   3  -4   8    1.40    7.20
   3  -4   8    9.20    7.80
   3  -4   8    5.90    5.60
  -4   4  -8    5.70    3.30
  -4   4  -8    6.80    8.10
  -4   4  -8    0.80    7.10
   4  -4   8   -0.20    5.40
   4  -4   8    2.50    7.70
   4  -4   8    8.90    8.30
   4  -4   8    2.40    7.80
  -5   4  -8   42.50    7.30
  -5   4  -8   23.30    8.90
  -5   4  -8   18.70    9.80
  -5   4  -8   46.20   10.30
  -5   4  -8   47.30   10.50
   5  -4   8   12.70    9.40
   5  -4   8   48.90   13.10
   5  -4   8   57.29   14.00
   5  -4   8   29.60    7.70
   5  -4   8   33.50   10.60
   4   3  -8   56.09    9.80
   4   3  -8   51.49    9.80
   4   3  -8   50.39    8.20
   4   3  -8   87.19   12.90
  -4  -3   8   62.19    8.80
  -4  -3   8   90.99   15.00
   3   3  -8   61.59    9.30
   3   3  -8   72.59    7.40
   3   3  -8   67.09   11.20
   3   3  -8   51.39    7.40
  -3  -3   8   46.90    7.20
  -3  -3   8   60.59    8.80
  -3  -3   8   85.29   13.10
  -3  -3   8   51.59   11.70
  -3  -3   8   42.80   10.70
   2   3  -8   55.99    7.10
   2   3  -8   63.19    9.60
   2   3  -8   74.79   10.80
   2   3  -8   65.69    9.70
   2   3  -8   73.39    3.90
  -2  -3   8   70.59   11.40
  -2  -3   8   73.79   11.80
  -2  -3   8   73.69   11.00
  -2  -3   8   63.69    7.80
  -2  -3   8   62.09    6.60
  -2  -3   8   80.49    8.30
   1   3  -8    3.40    4.70
   1   3  -8    0.60    4.10
   1   3  -8    7.00    3.40
   1   3  -8    3.70    4.80
  -1  -3   8   -0.10    5.00
  -1  -3   8    1.10    5.20
  -1  -3   8    4.80    3.90
  -1  -3   8    6.20    4.00
  -1  -3   8    1.80    7.50
   0   3  -8  467.55   21.00
   0   3  -8  450.55   19.80
   0   3  -8  455.85   21.40
   0   3  -8  478.05   20.80
   0  -3   8  467.95   20.60
   0  -3   8  476.75   21.70
   0  -3   8  482.75   24.90
   0  -3   8  460.55   21.10
   0  -3   8  449.36   20.20
  -1   3  -8    9.30    5.00
  -1   3  -8    5.40    4.40
  -1   3  -8   13.90    5.70
  -1   3  -8   11.20    4.30
   1  -3   8   10.00    4.70
   1  -3   8   10.30    5.50
   1  -3   8   16.30    7.00
   1  -3   8   12.30    6.30
   1  -3   8    2.00    3.60
  -2   3  -8   36.70    6.70
  -2   3  -8   17.80    5.10
  -2   3  -8   22.70    5.60
  -2   3  -8   27.70    7.70
   2  -3   8   33.50    6.70
   2  -3   8   37.50    7.20
   2  -3   8   27.40    6.70
   2  -3   8   32.30    8.50
   2  -3   8   22.40    4.50
   2  -3   8   29.20    7.50
  -3   3  -8   70.79   10.50
  -3   3  -8   70.39   11.50
  -3   3  -8   80.99    5.70
  -3   3  -8   68.59   11.00
   3  -3   8   82.79   12.90
   3  -3   8   63.89    9.50
   3  -3   8   89.39   10.50
   3  -3   8   67.49   10.70
  -4   3  -8   76.49    6.70
  -4   3  -8   71.19   11.50
  -4   3  -8   81.29   13.60
  -4   3  -8   98.09   14.20
   4  -3   8   59.89   11.50
   4  -3   8   77.89   10.90
   4  -3   8   67.39   10.10
  -5   3  -8    1.90    3.80
  -5   3  -8   -3.60    6.10
  -5   3  -8    2.40    9.00
  -5   3  -8   27.10    8.60
   5  -3   8    2.10    8.30
   5  -3   8   13.40    8.30
   5  -3   8    9.70    8.80
   5  -3   8   28.90   11.20
   5  -3   8    1.80    6.10
  -6   3  -8    1.00    4.80
  -6   3  -8    2.20    8.70
  -6   3  -8    3.50    9.60
  -6   3  -8    6.70   10.30
   6  -3   8    3.40   11.80
   6  -3   8   11.20    9.60
   6  -3   8    7.80    7.60
   6  -3   8    0.80    9.50
   5   2  -8   41.90   11.80
   5   2  -8   73.39   13.30
   5   2  -8   57.69   10.40
  -5  -2   8   86.09   14.40
  -5  -2   8   29.50    8.10
  -5  -2   8   56.79    9.90
   4   2  -8   19.60    4.20
   4   2  -8   32.60    7.90
   4   2  -8   19.20    7.20
   4   2  -8   12.80    9.00
   4   2  -8   14.80    9.50
  -4  -2   8   18.70    5.00
  -4  -2   8   14.30    5.70
  -4  -2   8   33.70   12.90
   3   2  -8   62.19    6.50
   3   2  -8   72.09   11.60
   3   2  -8   54.09   10.60
   3   2  -8   58.39    8.70
  -3  -2   8   64.49    9.90
  -3  -2   8   41.40   10.90
  -3  -2   8   54.09    7.50
  -3  -2   8   55.69   11.20
  -3  -2   8   58.19    7.50
   2   2  -8  174.08   12.40
   2   2  -8  168.28    9.60
   2   2  -8  155.88   13.00
   2   2  -8  167.38    8.80
  -2  -2   8  170.48    8.90
  -2  -2   8  177.38   16.90
  -2  -2   8  179.78   14.80
   1   2  -8  168.78   13.90
   1   2  -8  182.68    9.60
   1   2  -8  182.98   12.10
   1   2  -8  192.78   11.20
   1   2  -8  180.58   11.50
  -1  -2   8  173.58   10.90
  -1  -2   8  179.88   10.20
  -1  -2   8  188.08   13.00
  -1  -2   8  186.08   12.70
  -1  -2   8  188.88   16.20
  -1  -2   8  179.58    7.30
   0   2  -8   -3.90    3.30
   0   2  -8    3.40    4.70
   0   2  -8   -2.80    4.10
   0   2  -8   -1.90    2.50
   0  -2   8   -0.60    6.50
   0  -2   8   -1.50    3.20
   0  -2   8    1.70    4.10
   0  -2   8    1.20    3.60
   0  -2   8    1.80    4.00
  -1   2  -8  222.88   12.50
  -1   2  -8  211.78   14.00
  -1   2  -8  199.58   11.90
   1  -2   8  211.78   13.80
   1  -2   8  224.88   16.20
   1  -2   8  233.28   12.90
   1  -2   8  212.08   10.10
  -2   2  -8   15.30    4.60
  -2   2  -8    8.10    6.40
  -2   2  -8   17.30    5.40
   2  -2   8   26.40    7.50
   2  -2   8   25.10    5.90
   2  -2   8   15.40    3.20
   2  -2   8   16.40    6.50
   2  -2   8   16.40    5.80
   2  -2   8   17.80    5.50
  -3   2  -8   48.10    8.10
  -3   2  -8   50.39    8.10
  -3   2  -8   44.70    8.20
   3  -2   8   55.49    8.20
   3  -2   8   53.09    8.20
   3  -2   8   55.49    9.00
   3  -2   8   52.19    8.20
   3  -2   8   67.89    9.20
  -4   2  -8  203.38   17.50
  -4   2  -8  212.18   16.30
  -4   2  -8  237.68   12.00
   4  -2   8  238.08   16.90
   4  -2   8  211.28   16.40
   4  -2   8  238.88   14.80
  -5   2  -8  104.19   15.20
  -5   2  -8  126.39   10.00
  -5   2  -8   90.19   13.30
  -5   2  -8  118.29   16.20
   5  -2   8  135.69   16.00
   5  -2   8  125.19   12.30
   5  -2   8  127.99   17.40
  -6   2  -8   13.90    6.40
  -6   2  -8   17.40    9.20
  -6   2  -8   21.40    9.50
  -6   2  -8   15.70    6.00
   6  -2   8   49.90   14.70
   6  -2   8   26.80    9.90
   6  -2   8   12.40    6.90
   6  -2   8    1.00    8.90
   6  -2   8   16.20    9.80
   5   1  -8    2.70    5.40
   5   1  -8   29.30   12.80
   5   1  -8   -4.20    9.60
  -5  -1   8   -1.70    6.00
  -5  -1   8   -5.10    7.40
  -5  -1   8    6.00   10.00
   4   1  -8  100.29    8.10
   4   1  -8   81.09   13.10
  -4  -1   8  100.89    8.70
  -4  -1   8  132.69   21.50
  -4  -1   8  106.39   10.30
   3   1  -8  735.63   26.90
   3   1  -8  751.32   29.50
   3   1  -8  707.13   30.70
   3   1  -8  776.22   32.70
   3   1  -8  738.33   32.90
  -3  -1   8  733.13   28.70
  -3  -1   8  746.53   34.10
  -3  -1   8  661.03   30.50
   2   1  -8   20.00    4.60
   2   1  -8   11.70    6.60
   2   1  -8   13.60    4.80
   2   1  -8   14.00    6.00
   2   1  -8   13.50    2.90
   2   1  -8   11.70    4.70
   2   1  -8    5.10    3.00
  -2  -1   8   18.50    3.90
  -2  -1   8   10.60    8.00
  -2  -1   8   14.00    7.20
  -2  -1   8   13.40    3.20
   1   1  -8   14.60    2.30
   1   1  -8   21.90    6.00
   1   1  -8   15.10    3.90
   1   1  -8   12.60    2.80
   1   1  -8   15.30    4.40
   1   1  -8   15.90    5.20
   1   1  -8   16.50    2.60
  -1  -1   8    9.00    4.60
  -1  -1   8   12.00    3.30
  -1  -1   8    5.30    6.30
  -1  -1   8   16.50    5.50
  -1  -1   8   15.90    3.10
  -1  -1   8   14.50    3.60
   0   1  -8  193.88   10.50
   0   1  -8  192.08   12.70
   0   1  -8  221.08   12.90
   0   1  -8  200.58    9.80
   0  -1   8  181.78   10.10
   0  -1   8  198.68   13.90
   0  -1   8  180.38   10.20
   0  -1   8  195.68   11.40
   0  -1   8  212.08   12.50
  -1   1  -8   44.00    5.90
  -1   1  -8   29.00    6.10
  -1   1  -8   34.80    5.10
  -1   1  -8   38.00    6.10
   1  -1   8   37.80    5.40
   1  -1   8   30.60    6.00
   1  -1   8   37.70    6.40
   1  -1   8   37.70    6.90
   1  -1   8   34.00    7.50
  -2   1  -8  145.69   10.00
  -2   1  -8  148.79   10.90
  -2   1  -8  138.49    6.20
  -2   1  -8  143.89   12.90
  -2   1  -8  147.89   10.50
   2  -1   8  150.48   12.70
   2  -1   8  144.29   11.20
   2  -1   8  137.19   11.30
   2  -1   8  135.89    7.60
   2  -1   8  148.79   10.30
   2  -1   8  141.99   11.40
  -3   1  -8   -0.30    3.80
  -3   1  -8    2.00    6.40
  -3   1  -8    2.10    2.70
  -3   1  -8   -2.30    4.80
   3  -1   8    1.40    3.70
   3  -1   8    5.00    5.80
   3  -1   8   -3.30    4.60
   3  -1   8   -3.90    4.20
   3  -1   8   -0.20    4.70
  -4   1  -8   23.70    4.70
  -4   1  -8   10.80    6.60
  -4   1  -8   22.90    6.70
  -4   1  -8   12.90    6.70
  -4   1  -8    5.70    7.50
   4  -1   8   20.30    6.00
   4  -1   8   19.70    7.40
   4  -1   8   14.90    7.00
   4  -1   8   18.20    7.30
   4  -1   8   20.00    7.90
  -5   1  -8    5.00    6.70
  -5   1  -8    4.40    5.90
  -5   1  -8    1.70    5.90
  -5   1  -8    3.10    4.60
   5  -1   8    3.00    5.40
   5  -1   8    8.00    7.30
   5  -1   8    3.90    7.50
  -6   1  -8  131.49   20.10
  -6   1  -8  175.78   18.80
  -6   1  -8  190.48   14.70
  -6   1  -8  174.88   18.50
  -6   1  -8  165.48   13.90
  -6   1  -8  172.78   16.60
   6  -1   8  220.18   22.30
   6  -1   8  192.28   20.60
   6  -1   8  160.58   18.50
   6  -1   8  179.98   19.60
   6  -1   8  177.18   14.60
  -7   1  -8   11.80    9.50
  -7   1  -8    2.30    5.70
  -7   1  -8   35.60   11.70
  -7   1  -8   -6.90    8.90
  -7   1  -8    9.20    7.60
   7  -1   8   20.70   10.30
   7  -1   8    7.90    7.10
   7  -1   8  -16.40    8.80
   5   0  -8    6.40    4.60
   5   0  -8    4.80    5.30
   5   0  -8    2.80    8.50
   5   0  -8   13.60   12.50
  -5   0   8   -5.50    5.00
  -5   0   8   11.00    4.80
  -5   0   8   -1.20    9.80
   4   0  -8   25.70    3.90
   4   0  -8   43.30   11.30
  -4   0   8   27.20    4.40
  -4   0   8   33.40   13.10
  -4   0   8   35.30    6.80
   3   0  -8   21.30    6.80
   3   0  -8   20.60    5.90
   3   0  -8   23.30    5.60
   3   0  -8   43.00    4.50
  -3   0   8   38.60    4.10
  -3   0   8   28.40    9.30
   2   0  -8   81.49    7.20
   2   0  -8   77.19   10.50
   2   0  -8   91.39   11.70
   2   0  -8   98.29    8.30
   2   0  -8   90.69    5.80
   2   0  -8   93.89   12.10
   2   0  -8  101.69   12.50
   2   0  -8  114.09   11.10
  -2   0   8   97.69   12.10
  -2   0   8   80.59    5.00
  -2   0   8  100.69    7.90
  -2   0   8   71.49    5.50
   1   0  -8    7.80    1.90
   1   0  -8    6.30    4.40
   1   0  -8    7.90    4.10
   1   0  -8    9.20    4.50
   1   0  -8    9.90    3.00
   1   0  -8   10.90    3.70
   1   0  -8    1.10    5.60
  -1   0   8    6.90    2.00
  -1   0   8    8.50    6.40
  -1   0   8    7.80    2.10
  -1   0   8   13.50    3.10
  -1   0   8   10.80    5.30
   0   0  -8    1.80    2.40
   0   0  -8    4.80    2.00
   0   0  -8   -2.20    3.20
   0   0  -8    7.40    3.50
   0   0  -8    5.40    2.10
   0   0  -8    7.90    4.30
   0   0   8    1.40    3.50
   0   0   8    5.90    2.30
   0   0   8    2.10    1.90
   0   0   8   -0.70    3.30
   0   0   8    2.70    5.60
  -1   0  -8 1581.34   55.29
  -1   0  -8 1608.44   58.09
  -1   0  -8 1649.44   57.19
  -1   0  -8 1636.74   54.89
   1   0   8 1615.84   58.19
   1   0   8 1660.23   58.79
   1   0   8 1672.83   55.69
   1   0   8 1695.93   58.19
  -2   0  -8  192.78   11.40
  -2   0  -8  184.48   13.90
  -2   0  -8  172.78   10.90
  -2   0  -8  183.48   10.80
   2   0   8  201.08   12.40
   2   0   8  196.98   13.60
   2   0   8  179.18   11.60
   2   0   8  184.88   10.90
   2   0   8  186.78    9.70
   2   0   8  191.88   13.30
  -3   0  -8   15.00    4.80
  -3   0  -8    6.20    6.60
  -3   0  -8    6.70    4.80
   3   0   8    7.60    5.70
   3   0   8    3.00    4.70
   3   0   8    7.00    5.70
   3   0   8   10.60    5.00
   3   0   8    5.00    4.60
  -4   0  -8   84.09   12.20
  -4   0  -8   71.49   10.80
  -4   0  -8   86.99    9.70
   4   0   8   88.09   10.10
   4   0   8   83.79   10.10
   4   0   8   73.29   11.60
   4   0   8   90.39   11.70
   4   0   8   71.89   11.90
  -5   0  -8   38.70    8.70
  -5   0  -8   23.40    8.80
  -5   0  -8   29.30    8.50
  -5   0  -8   21.30   13.40
  -5   0  -8   21.50    6.40
   5   0   8   26.30    6.80
   5   0   8   29.40    8.50
   5   0   8   32.90   13.40
   5   0   8   32.00    7.90
  -6   0  -8    9.90    6.60
  -6   0  -8    1.80    5.80
  -6   0  -8   -6.80    8.00
  -6   0  -8   16.60   10.00
  -6   0  -8    1.30    7.00
  -6   0  -8   -0.50    8.50
   6   0   8    5.30    6.60
   6   0   8   19.80    9.00
   6   0   8   13.70    8.80
   6   0   8   36.90   13.60
   6   0   8   15.20    8.70
  -7   0  -8   14.30    8.90
  -7   0  -8   18.00   10.40
  -7   0  -8   37.30    8.00
  -7   0  -8   39.90   11.40
  -7   0  -8   38.50   11.00
  -7   0  -8   23.90    7.80
   7   0   8   45.40   10.30
   7   0   8   42.50   11.90
   7   0   8   52.39    9.60
   5  -1  -8   13.40    5.20
   5  -1  -8   -4.40    7.50
   5  -1  -8    0.50    4.20
  -5   1   8   -6.80    3.20
  -5   1   8   -8.00    8.30
  -5   1   8    3.70    3.00
  -5   1   8    0.20    4.90
   4  -1  -8   34.10   10.10
   4  -1  -8   34.20    8.30
   4  -1  -8   33.10    5.40
   4  -1  -8   36.40   10.60
   4  -1  -8   56.69    7.60
   4  -1  -8   47.60    7.80
  -4   1   8   34.20    7.40
  -4   1   8   26.40    4.30
  -4   1   8   42.80    4.20
   3  -1  -8  313.47   12.40
   3  -1  -8  341.37   16.80
   3  -1  -8  254.07   19.60
   3  -1  -8  349.57   20.10
   3  -1  -8  353.46   21.50
   3  -1  -8  295.57   18.90
  -3   1   8  344.97   20.80
  -3   1   8  303.77   10.40
  -3   1   8  302.47   16.20
  -3   1   8  285.97   10.30
   2  -1  -8   25.10    7.00
   2  -1  -8   29.90    8.00
   2  -1  -8   30.50    5.00
   2  -1  -8   34.10    4.70
   2  -1  -8   30.70    8.20
   2  -1  -8   34.70    6.60
   2  -1  -8   17.40    6.90
  -2   1   8   45.00    8.50
  -2   1   8   47.70    7.00
   1  -1  -8   97.29    9.40
   1  -1  -8   98.79    9.30
   1  -1  -8  107.39   10.40
   1  -1  -8  104.69    8.60
   1  -1  -8  103.49   10.20
   1  -1  -8   88.09    8.80
   1  -1  -8   88.39    5.40
   1  -1  -8   93.09    5.60
  -1   1   8  100.59    7.00
  -1   1   8   92.99   10.30
  -1   1   8  100.39    9.90
   0  -1  -8    3.50    3.80
   0  -1  -8    6.80    3.50
   0  -1  -8    2.40    1.50
   0  -1  -8    5.70    4.00
   0  -1  -8    8.20    3.80
   0  -1  -8    6.30    2.10
   0  -1  -8    3.80    4.10
   0  -1  -8    3.10    2.90
   0   1   8    4.60    1.40
   0   1   8    1.70    2.40
   0   1   8    5.00    1.60
   0   1   8    2.70    5.50
  -1  -1  -8   -7.30    4.20
  -1  -1  -8    3.80    4.70
  -1  -1  -8    2.20    2.40
  -1  -1  -8    5.00    3.90
  -1  -1  -8    0.80    2.70
  -1  -1  -8    1.10    2.40
  -1  -1  -8    2.30    2.10
   1   1   8    0.30    4.80
   1   1   8   -4.00    3.70
   1   1   8   -0.60    2.30
   1   1   8   -0.80    3.40
  -2  -1  -8  341.37   13.90
  -2  -1  -8  357.36   17.00
  -2  -1  -8  385.86   19.90
  -2  -1  -8  370.46   16.30
  -2  -1  -8  364.16   18.90
  -2  -1  -8  363.36   17.80
   2   1   8  383.86   18.00
   2   1   8  376.86   16.30
   2   1   8  401.56   19.40
   2   1   8  373.76   18.00
   2   1   8  365.46   15.80
   2   1   8  359.36   16.70
  -3  -1  -8  420.26   19.70
  -3  -1  -8  392.46   20.60
  -3  -1  -8  435.76   22.50
   3   1   8  449.36   20.40
   3   1   8  387.56   23.80
   3   1   8  446.06   19.80
   3   1   8  429.76   19.30
   3   1   8  426.06   20.30
   3   1   8  406.66   19.20
  -4  -1  -8    0.00    3.90
  -4  -1  -8   -0.10    4.80
  -4  -1  -8   -4.70    5.30
  -4  -1  -8   -6.70    4.70
   4   1   8   -6.60    5.90
   4   1   8   -7.10    3.90
   4   1   8   -1.30    5.20
   4   1   8   -2.80    4.60
   4   1   8   -5.00    4.80
  -5  -1  -8    2.60    5.70
  -5  -1  -8   -3.10    6.50
  -5  -1  -8   -0.40    7.10
  -5  -1  -8    2.00    4.00
   5   1   8   -4.40   10.70
   5   1   8  -10.30    4.80
   5   1   8    0.70    6.50
   5   1   8   -2.20    4.30
  -6  -1  -8  123.09   15.70
  -6  -1  -8  114.59   13.40
  -6  -1  -8   84.99   12.70
  -6  -1  -8  132.79   16.40
  -6  -1  -8  105.19    7.20
  -6  -1  -8   68.69   15.70
   6   1   8  100.69   17.30
   6   1   8  103.69   15.80
   6   1   8   95.39   12.40
   6   1   8  107.79   16.10
  -7  -1  -8   -5.60    8.10
  -7  -1  -8    7.80    4.30
  -7  -1  -8    3.90    9.70
  -7  -1  -8   15.70   10.00
  -7  -1  -8   -7.30    5.40
  -7  -1  -8    5.70    7.90
   7   1   8   11.20    9.30
   7   1   8   -4.90    7.00
   7   1   8   30.70   15.90
   7   1   8   10.90    9.90
   5  -2  -8   -7.30    4.00
   5  -2  -8   -2.90    4.30
   5  -2  -8   -0.60    3.50
   5  -2  -8   -0.20    7.10
   5  -2  -8    1.20    8.50
  -5   2   8    0.30    3.30
  -5   2   8   -0.50    2.50
  -5   2   8   -5.10    6.90
  -5   2   8    0.10    5.00
   4  -2  -8    3.00    4.30
   4  -2  -8    6.60    8.30
   4  -2  -8    4.80    5.80
   4  -2  -8   -1.30    7.90
   4  -2  -8    4.60    6.80
   4  -2  -8    4.90    3.30
  -4   2   8   -5.30    8.70
  -4   2   8   -6.50    5.00
   3  -2  -8   82.79    5.50
   3  -2  -8   60.49   10.50
   3  -2  -8   66.99   10.40
   3  -2  -8   66.99    7.40
   3  -2  -8   89.79    5.60
   3  -2  -8   62.59   11.20
   3  -2  -8   84.29   14.40
   3  -2  -8   69.49    8.90
  -3   2   8   90.49   13.30
  -3   2   8   92.49    9.90
   2  -2  -8  771.22   32.30
   2  -2  -8  809.22   33.10
   2  -2  -8  814.62   35.20
   2  -2  -8  822.32   33.10
   2  -2  -8  776.02   30.30
  -2   2   8  805.42   31.30
  -2   2   8  858.11   34.50
   1  -2  -8   39.50    6.60
   1  -2  -8   34.10    5.90
   1  -2  -8   31.90    6.60
   1  -2  -8   29.90    6.10
   1  -2  -8   37.70    7.60
  -1   2   8   32.40    5.00
   0  -2  -8    7.00    1.20
   0  -2  -8   10.30    3.20
   0  -2  -8    3.30    9.30
   0  -2  -8    5.70    4.40
   0  -2  -8    7.50    1.60
   0  -2  -8    7.60    3.50
   0  -2  -8    4.00    4.80
   0  -2  -8    3.50    4.00
   0   2   8    7.40    3.00
   0   2   8    1.30    4.80
  -1  -2  -8  520.85   18.90
  -1  -2  -8  531.35   21.90
  -1  -2  -8  497.95   22.40
  -1  -2  -8  525.75   19.40
  -1  -2  -8  505.45   20.90
  -1  -2  -8  517.05   23.50
  -1  -2  -8  523.05   21.80
  -1  -2  -8  544.45   23.80
   1   2   8  526.05   19.10
   1   2   8  526.45   22.40
   1   2   8  525.65   18.30
   1   2   8  607.64   23.70
  -2  -2  -8  225.48   12.00
  -2  -2  -8  219.38   10.50
  -2  -2  -8  238.38   15.20
  -2  -2  -8  241.48   11.80
  -2  -2  -8  252.67   14.70
  -2  -2  -8  234.78   14.40
  -2  -2  -8  248.78   12.20
   2   2   8  229.88   13.40
   2   2   8  208.98   14.20
   2   2   8  222.88   11.60
   2   2   8  224.78   11.80
   2   2   8  241.08   12.90
   2   2   8  218.18   13.30
  -3  -2  -8  104.39   10.00
  -3  -2  -8  128.99   13.00
  -3  -2  -8  126.49   13.40
  -3  -2  -8  115.09   11.10
  -3  -2  -8  122.59   11.20
   3   2   8  121.19   12.00
   3   2   8  125.69   10.50
   3   2   8  127.99   10.50
   3   2   8  142.19   11.40
   3   2   8  124.39   10.60
   3   2   8  136.79   10.30
  -4  -2  -8   -2.40    5.50
  -4  -2  -8   -8.30    4.50
  -4  -2  -8    3.40    4.30
  -4  -2  -8   -6.70    6.80
  -4  -2  -8  -10.40    5.00
   4   2   8    4.50    6.80
   4   2   8   -3.90    5.00
   4   2   8   -2.50    5.00
   4   2   8   -0.30    4.40
   4   2   8   -0.50    5.60
   4   2   8   -2.90    4.90
  -5  -2  -8    6.10    3.30
  -5  -2  -8    6.70    6.10
  -5  -2  -8    1.10    5.10
  -5  -2  -8   10.90    5.40
  -5  -2  -8   -5.00    7.50
  -5  -2  -8    2.90    6.60
   5   2   8    2.50    6.90
   5   2   8   -3.00    5.20
   5   2   8   -0.80    6.80
   5   2   8    7.70    4.80
  -6  -2  -8    4.50    6.30
  -6  -2  -8    1.10    3.80
  -6  -2  -8    2.40    7.30
  -6  -2  -8    3.50    8.00
  -6  -2  -8   -7.30    7.40
   6   2   8   -5.50    6.30
   6   2   8    1.80    8.20
   6   2   8  -13.70    6.40
   6   2   8    6.80   11.10
  -7  -2  -8  304.67   23.50
  -7  -2  -8  239.08   19.10
  -7  -2  -8  272.17   15.40
  -7  -2  -8  277.47   23.50
   7   2   8  321.47   22.80
   7   2   8  310.87   19.80
   7   2   8  326.77   24.60
   7   2   8  293.47   22.10
   7   2   8  304.97   32.30
   4  -3  -8   -2.60    8.50
   4  -3  -8   -4.70    3.70
   4  -3  -8   -5.70    5.60
   4  -3  -8    1.10    4.20
   4  -3  -8   -1.80    7.50
   4  -3  -8   -1.80    2.80
   4  -3  -8   -1.10    9.70
   4  -3  -8    5.30    3.90
  -4   3   8   -4.10    4.50
   3  -3  -8   -7.40    7.20
   3  -3  -8    1.40    1.60
   3  -3  -8    2.10    4.70
   3  -3  -8   -2.20    4.40
   3  -3  -8   -4.30    7.30
   3  -3  -8   -0.20    1.50
   3  -3  -8   -8.20    6.40
   3  -3  -8   -5.20    4.20
  -3   3   8   -3.40    4.60
   2  -3  -8  250.37   15.00
   2  -3  -8  208.88   18.10
   2  -3  -8  270.87   18.10
   2  -3  -8  268.87   16.30
   2  -3  -8  236.58   15.20
   2  -3  -8  276.37   15.10
  -2   3   8  253.97   14.60
   1  -3  -8  148.69   12.30
   1  -3  -8  149.99   12.40
   1  -3  -8  125.09   11.40
   1  -3  -8  151.88   10.80
   1  -3  -8  123.49   10.80
   1  -3  -8  142.29   11.70
  -1   3   8  143.29    9.70
   0  -3  -8  161.68   11.00
   0  -3  -8  147.59   10.00
   0  -3  -8  152.98   10.80
   0  -3  -8  146.69   11.50
   0  -3  -8  140.99   11.30
   0  -3  -8  150.28   11.60
   0   3   8  164.48    9.10
  -1  -3  -8   38.90    4.00
  -1  -3  -8   26.90    6.50
  -1  -3  -8   25.90    4.60
  -1  -3  -8   27.70    6.60
  -1  -3  -8   28.90    3.60
  -1  -3  -8   23.10    4.40
   1   3   8   31.90    2.80
   1   3   8   19.60    5.20
   1   3   8   32.10    2.40
   1   3   8   28.30    6.00
  -2  -3  -8  465.55   20.30
  -2  -3  -8  482.55   19.20
  -2  -3  -8  488.15   19.60
  -2  -3  -8  503.15   22.40
  -2  -3  -8  468.55   18.90
  -2  -3  -8  456.95   22.70
  -2  -3  -8  484.15   23.10
   2   3   8  476.45   18.30
   2   3   8  486.95   19.10
   2   3   8  525.55   21.90
   2   3   8  455.05   20.30
   2   3   8  469.05   21.00
  -3  -3  -8 1028.50   37.40
  -3  -3  -8 1007.90   42.50
  -3  -3  -8 1034.50   38.80
  -3  -3  -8 1028.50   38.90
  -3  -3  -8 1056.59   41.80
  -3  -3  -8 1092.59   40.50
   3   3   8 1034.70   40.90
   3   3   8 1048.40   38.20
   3   3   8 1059.49   38.80
   3   3   8 1059.89   38.90
   3   3   8 1034.80   37.40
  -4  -3  -8  865.81   36.10
  -4  -3  -8  976.30   37.50
  -4  -3  -8  961.70   38.40
  -4  -3  -8  883.51   36.40
  -4  -3  -8  906.61   34.60
  -4  -3  -8  922.51   41.10
   4   3   8  882.71   36.90
   4   3   8  964.10   36.70
   4   3   8  877.31   36.20
   4   3   8  909.41   35.30
   4   3   8  879.81   33.20
   4   3   8  940.81   39.30
  -5  -3  -8   89.99   14.10
  -5  -3  -8   85.09   12.30
  -5  -3  -8  100.59   10.30
  -5  -3  -8   83.89   11.60
   5   3   8   88.49   12.60
   5   3   8   92.99   12.30
   5   3   8   74.89   11.10
   5   3   8   77.09   13.80
   5   3   8   99.39   13.30
  -6  -3  -8   -2.80    7.80
  -6  -3  -8    6.70    5.50
  -6  -3  -8    2.60    4.60
  -6  -3  -8    5.90    8.50
  -6  -3  -8    3.60    9.30
  -6  -3  -8    3.10    6.90
   6   3   8    2.40    8.10
   6   3   8    9.50   10.50
   6   3   8    3.10    6.70
   6   3   8    9.70    6.30
  -7  -3  -8    6.30   10.00
  -7  -3  -8   -0.80   10.20
  -7  -3  -8    1.80    7.50
  -7  -3  -8    4.70    5.40
  -7  -3  -8   -8.90    8.60
  -7  -3  -8    2.10    6.60
   7   3   8   26.20    9.70
   7   3   8    2.40    7.20
   7   3   8    1.80    8.00
   7   3   8   -1.50    9.10
   7   3   8   10.20   13.10
   4  -4  -8    4.10    5.60
   4  -4  -8    9.40    5.00
   4  -4  -8    1.00    3.60
   4  -4  -8    2.60    7.10
   4  -4  -8   -8.30    7.10
   4  -4  -8    4.60    3.00
   4  -4  -8   14.90    8.10
  -4   4   8    9.40    5.50
   3  -4  -8    0.40    4.30
   3  -4  -8    8.40    8.20
   3  -4  -8    1.30    4.70
   3  -4  -8    4.20    1.70
   3  -4  -8   -3.40    5.90
   3  -4  -8    6.40    1.80
  -3   4   8    6.40    4.50
   2  -4  -8  483.05   22.40
   2  -4  -8  468.15   21.80
   2  -4  -8  438.36   20.80
   2  -4  -8  446.16   24.90
   2  -4  -8  474.25   24.60
   2  -4  -8  463.75   22.60
  -2   4   8  460.75   21.50
   1  -4  -8  406.96   21.50
   1  -4  -8  374.06   19.60
   1  -4  -8  339.37   17.70
   1  -4  -8  386.36   19.10
   1  -4  -8  397.86   20.60
   1  -4  -8  395.96   18.20
  -1   4   8  396.46   18.20
   0  -4  -8    7.80    3.90
   0  -4  -8    7.70    3.40
   0  -4  -8   10.10    5.20
   0  -4  -8   12.30    5.20
   0  -4  -8   14.70    6.40
   0  -4  -8    5.10    4.10
   0  -4  -8   10.50    4.00
   0   4   8    6.20    3.70
  -1  -4  -8    5.30    1.80
  -1  -4  -8    8.70    3.50
  -1  -4  -8    5.70    4.20
  -1  -4  -8    7.60    5.60
  -1  -4  -8    7.30    6.70
  -1  -4  -8    7.40    3.50
  -1  -4  -8    8.80    2.40
  -1  -4  -8    6.70    3.60
   1   4   8    9.30    4.40
   1   4   8    8.00    1.20
   1   4   8   10.10    1.70
   1   4   8    1.40    3.10
  -2  -4  -8   10.20    3.80
  -2  -4  -8   11.50    3.20
  -2  -4  -8    4.20    4.60
  -2  -4  -8   17.60    7.50
  -2  -4  -8    7.10    5.10
  -2  -4  -8    9.80    2.80
   2   4   8    6.20    2.80
   2   4   8   10.90    5.80
   2   4   8    6.10    4.60
   2   4   8    4.80    4.00
   2   4   8    5.70    2.30
  -3  -4  -8   34.40   10.00
  -3  -4  -8   19.70    6.00
  -3  -4  -8   21.10    7.60
  -3  -4  -8   29.70    5.20
  -3  -4  -8   33.20    7.90
  -3  -4  -8   22.60    4.20
   3   4   8   28.10    4.50
   3   4   8   23.40    5.20
   3   4   8   22.00    5.90
   3   4   8   34.70    8.10
   3   4   8   27.60    5.90
  -4  -4  -8  590.64   26.80
  -4  -4  -8  592.24   29.50
  -4  -4  -8  630.14   32.50
  -4  -4  -8  598.74   28.00
  -4  -4  -8  631.84   24.80
   4   4   8  621.94   27.30
   4   4   8  624.94   30.10
   4   4   8  578.44   26.70
   4   4   8  586.04   22.80
   4   4   8  621.44   26.00
  -5  -4  -8   33.20    7.50
  -5  -4  -8   23.70    9.30
  -5  -4  -8   49.99   14.90
  -5  -4  -8   19.40    6.90
  -5  -4  -8   35.30    8.60
   5   4   8   33.20    8.40
   5   4   8   25.70    7.30
   5   4   8   24.30    7.30
   5   4   8   29.20   11.20
   5   4   8   18.50    4.60
  -6  -4  -8    5.30    9.10
  -6  -4  -8   10.30    8.20
  -6  -4  -8   12.80    5.80
  -6  -4  -8   11.20    7.20
  -6  -4  -8   -0.40    5.00
   6   4   8    6.20    7.90
   6   4   8    4.40    6.50
   6   4   8    8.80   11.70
  -7  -4  -8  180.18   14.90
  -7  -4  -8  196.08   21.90
  -7  -4  -8  194.68   16.30
  -7  -4  -8  175.58   19.90
  -7  -4  -8  179.28   13.60
  -7  -4  -8  209.98   19.80
   7   4   8  176.68   15.90
   7   4   8  203.48   23.50
   7   4   8  182.28   19.40
   7   4   8  185.78   20.90
  -8  -4  -8    7.90    9.40
  -8  -4  -8   20.10   11.60
  -8  -4  -8    9.00   10.70
  -8  -4  -8    4.10    8.10
  -8  -4  -8   11.00    8.90
   8   4   8   13.40   10.50
   4  -5  -8    3.00    3.70
   4  -5  -8   -2.70    3.10
   4  -5  -8   -4.00    5.20
   4  -5  -8   -4.60   10.10
   4  -5  -8    9.10    8.00
  -4   5   8   -3.80    4.70
   3  -5  -8   55.69    8.50
   3  -5  -8   57.79    8.90
   3  -5  -8   56.59    9.00
   3  -5  -8   70.29    5.10
   3  -5  -8   59.39   11.20
   3  -5  -8   68.19   12.40
   3  -5  -8   58.19    4.70
  -3   5   8   66.99    9.60
   2  -5  -8   35.30   10.90
   2  -5  -8   26.90    8.30
   2  -5  -8   10.60    5.80
   2  -5  -8   19.40    6.40
   2  -5  -8   27.30    8.10
  -2   5   8   20.80    6.10
   1  -5  -8   16.70    8.90
   1  -5  -8    2.00    6.10
   1  -5  -8    3.70    4.90
   1  -5  -8  -10.30    6.40
   1  -5  -8    8.30    4.50
   1  -5  -8   -5.50    5.80
   0  -5  -8  -11.50    6.80
   0  -5  -8   -2.20    3.70
   0  -5  -8   -1.60    3.90
   0  -5  -8   -6.90    3.20
   0   5   8   -1.30    6.60
   0   5   8   -6.40    3.70
  -1  -5  -8    4.50    3.80
  -1  -5  -8    1.00    3.60
  -1  -5  -8   -4.20    6.90
  -1  -5  -8    3.80    1.60
  -1  -5  -8   -1.80    3.00
  -1  -5  -8    6.40    3.20
  -1  -5  -8    2.20    4.40
  -1  -5  -8    4.90    2.60
   1   5   8    4.30    1.40
   1   5   8    0.60    4.00
   1   5   8    2.80    1.30
   1   5   8   -3.00    5.60
   1   5   8   -3.50    3.50
  -2  -5  -8   51.69    7.90
  -2  -5  -8   42.90    8.20
  -2  -5  -8   50.99   10.70
  -2  -5  -8   47.30    7.20
  -2  -5  -8   42.00    4.90
  -2  -5  -8   41.60    5.00
   2   5   8   51.89    5.70
   2   5   8   54.09    9.40
   2   5   8   40.50    8.70
   2   5   8   47.40    7.90
  -3  -5  -8    1.60    8.80
  -3  -5  -8    8.30    4.30
  -3  -5  -8    0.20    6.70
  -3  -5  -8   -6.50    2.90
  -3  -5  -8   -2.70    4.90
   3   5   8   -0.30    6.00
   3   5   8    2.50    6.50
   3   5   8   -2.40    3.60
   3   5   8   -3.50    4.10
  -4  -5  -8  197.68   17.00
  -4  -5  -8  188.78   15.20
  -4  -5  -8  232.18   18.60
  -4  -5  -8  249.08   21.10
  -4  -5  -8  215.68   15.20
  -4  -5  -8  241.18   12.40
   4   5   8  217.78    9.90
   4   5   8  211.78   15.10
   4   5   8  263.97   14.80
  -5  -5  -8  268.77   14.80
  -5  -5  -8  257.17   16.00
  -5  -5  -8  274.87   25.20
  -5  -5  -8  272.57   20.60
  -5  -5  -8  276.17   19.50
  -5  -5  -8  247.58   17.50
   5   5   8  259.47   16.40
   5   5   8  260.57   17.50
   5   5   8  277.97   21.60
   5   5   8  241.38   10.90
  -6  -5  -8   -5.10    6.90
  -6  -5  -8    6.80   13.20
  -6  -5  -8   -3.00    6.90
  -6  -5  -8    8.60    5.40
  -6  -5  -8    2.70    5.60
  -6  -5  -8    8.70    7.50
   6   5   8    2.40    5.20
   6   5   8   -6.30   10.60
   6   5   8  -10.50    7.50
  -7  -5  -8   -0.20    6.90
  -7  -5  -8   29.80   13.00
  -7  -5  -8    8.90    8.70
  -7  -5  -8   17.30    6.30
  -7  -5  -8   14.70    9.30
   7   5   8   24.70   13.60
   7   5   8   19.80    9.10
   7   5   8   18.40   10.40
   3  -6  -8   16.60    3.40
   3  -6  -8   19.60    3.60
   3  -6  -8   15.90    6.50
   3  -6  -8   13.10    8.70
   3  -6  -8   17.30    4.70
   3  -6  -8   20.70    7.70
  -3   6   8   16.00    5.60
   2  -6  -8   42.80    8.90
   2  -6  -8   44.40    6.20
   2  -6  -8   46.10   12.50
   2  -6  -8   44.90    4.30
   2  -6  -8   41.20    6.50
   2  -6  -8   36.20    7.60
   2  -6  -8   38.20    9.70
   2  -6  -8   39.20    4.30
  -2   6   8   38.60    7.50
   1  -6  -8  117.79   12.90
   1  -6  -8  126.69    9.10
   1  -6  -8   95.89    5.30
   1  -6  -8  101.59    5.30
   1  -6  -8  140.49   16.80
   1  -6  -8  112.69    9.20
   1  -6  -8  114.59   11.60
   1  -6  -8   74.29   10.30
   0  -6  -8  212.78   14.10
   0  -6  -8  191.68   18.00
   0  -6  -8  202.08    8.60
   0  -6  -8  180.48   13.30
   0  -6  -8  191.38   11.60
   0  -6  -8  200.38   10.30
   0  -6  -8  207.18    9.30
   0  -6  -8  239.78   14.00
   0   6   8  184.68   13.10
   0   6   8  206.28   15.90
  -1  -6  -8  108.59   10.50
  -1  -6  -8   83.89    5.00
  -1  -6  -8   59.49    7.40
  -1  -6  -8   90.79    7.50
  -1  -6  -8   83.79    7.50
  -1  -6  -8   80.49    5.80
  -1  -6  -8   69.19   13.10
   1   6   8   85.29    5.00
   1   6   8   88.19   12.20
   1   6   8   84.19    9.50
  -2  -6  -8   -0.90    3.70
  -2  -6  -8   -2.60    1.60
  -2  -6  -8   -1.60    4.60
  -2  -6  -8   -1.00    2.10
  -2  -6  -8   -7.80    8.00
  -2  -6  -8    3.10    2.40
   2   6   8   -2.70    4.10
   2   6   8    0.50    5.00
   2   6   8   -3.60    2.20
   2   6   8   -9.60    5.60
   2   6   8    0.80    2.70
  -3  -6  -8   31.20    8.80
  -3  -6  -8   18.90   11.30
  -3  -6  -8   34.30    7.40
  -3  -6  -8   30.40    5.20
  -3  -6  -8   29.80    4.20
  -3  -6  -8   27.50    6.60
   3   6   8   41.10    6.80
   3   6   8   28.30    8.00
   3   6   8   20.90    8.30
   3   6   8   33.70    6.40
  -4  -6  -8  784.82   35.00
  -4  -6  -8  799.12   30.40
  -4  -6  -8  821.62   37.00
  -4  -6  -8  793.12   40.50
  -4  -6  -8  770.82   33.00
  -4  -6  -8  797.32   34.00
   4   6   8  836.82   33.60
   4   6   8  872.31   33.10
   4   6   8  859.61   34.80
   4   6   8  799.72   35.50
   4   6   8  881.31   38.80
  -5  -6  -8  688.63   29.90
  -5  -6  -8  667.43   38.30
  -5  -6  -8  660.73   32.40
  -5  -6  -8  721.73   31.20
  -5  -6  -8  689.63   33.50
  -5  -6  -8  662.73   27.80
   5   6   8  666.33   31.40
   5   6   8  704.93   30.00
   5   6   8  732.33   36.60
   5   6   8  708.63   31.10
  -6  -6  -8   29.20   14.80
  -6  -6  -8   11.80    9.90
  -6  -6  -8   25.30    6.40
  -6  -6  -8   18.50    9.80
  -6  -6  -8   25.30    7.00
  -6  -6  -8   21.90    7.60
   6   6   8   24.20    8.00
  -7  -6  -8   18.50    8.50
  -7  -6  -8    6.80    7.10
  -7  -6  -8   21.60    9.60
   7   6   8    3.50   12.70
   7   6   8    8.20    9.70
   7   6   8    9.70    9.00
   3  -7  -8   -2.30    4.00
   3  -7  -8   -0.20    4.60
   3  -7  -8   -5.50   11.00
   3  -7  -8    6.60    9.10
   3  -7  -8   -8.50   10.90
   3  -7  -8   -2.70    3.50
   3  -7  -8    6.00    5.90
  -3   7   8   -1.90    6.10
   2  -7  -8   -1.50    9.90
   2  -7  -8    2.90    3.40
   2  -7  -8    6.40    4.70
   2  -7  -8   -3.10    3.00
   2  -7  -8    1.80    3.40
   2  -7  -8   -4.50    7.80
   2  -7  -8   10.50    6.90
  -2   7   8   -4.40    4.20
  -2   7   8    3.90    7.90
   1  -7  -8  258.47   11.60
   1  -7  -8  261.37   12.30
   1  -7  -8  256.87   12.00
   1  -7  -8  233.68   20.50
   1  -7  -8  248.28   17.40
  -1   7   8  195.68   18.00
  -1   7   8  248.98   15.60
   0  -7  -8    8.40    6.20
   0  -7  -8    1.40    6.30
   0  -7  -8   18.10    4.10
   0  -7  -8   15.70    3.80
   0  -7  -8   14.90    2.80
   0  -7  -8   12.40    5.50
   0  -7  -8   25.60   11.00
   0   7   8   15.40    5.70
   0   7   8    8.70    2.20
   0   7   8    7.20    8.30
  -1  -7  -8   57.69    7.90
  -1  -7  -8   42.50   13.10
  -1  -7  -8   58.09    8.90
  -1  -7  -8   70.39    7.20
  -1  -7  -8   57.79    4.90
   1   7   8   39.50    7.50
   1   7   8   66.89    8.50
   1   7   8   51.39    9.00
   1   7   8   68.69    5.30
  -2  -7  -8    9.70    5.00
  -2  -7  -8   13.60    3.00
  -2  -7  -8   15.30    1.70
  -2  -7  -8    4.70   10.40
  -2  -7  -8   13.40    2.50
  -2  -7  -8   10.50    6.20
  -2  -7  -8   15.90    3.00
   2   7   8   15.30    3.70
   2   7   8   26.20    8.50
   2   7   8   14.70    4.40
   2   7   8    5.40    8.10
   2   7   8    7.60    4.90
  -3  -7  -8   24.20   12.80
  -3  -7  -8   14.10    8.50
  -3  -7  -8   25.10    7.40
  -3  -7  -8   41.00    7.70
  -3  -7  -8   37.80    5.70
  -3  -7  -8   27.40    3.80
   3   7   8   31.50    6.60
   3   7   8   32.30    6.30
   3   7   8   28.00    9.80
   3   7   8   29.40    5.80
   3   7   8   34.80    8.00
  -4  -7  -8   -5.00    7.10
  -4  -7  -8    9.20    8.00
  -4  -7  -8    3.40   12.20
  -4  -7  -8  -10.70    5.90
  -4  -7  -8   -6.60    4.20
  -4  -7  -8    3.90    2.90
   4   7   8    1.90    8.00
   4   7   8   12.10    7.40
   4   7   8   12.40    5.80
   4   7   8   -1.50    8.40
   4   7   8   -3.00    5.10
  -5  -7  -8   47.40    9.30
  -5  -7  -8   61.79   11.80
  -5  -7  -8   59.09    7.90
  -5  -7  -8   62.49   11.50
  -5  -7  -8   40.50    8.00
   5   7   8   53.89   11.70
   5   7   8   51.29   13.80
  -6  -7  -8    9.70    6.80
  -6  -7  -8   12.10    5.60
  -6  -7  -8   13.20   12.80
  -6  -7  -8    6.70    9.20
  -6  -7  -8    7.60   15.90
   6   7   8   -0.30    8.00
   6   7   8    9.70   12.70
   6   7   8    9.80   10.60
   6   7   8    7.50    8.20
  -7  -7  -8    7.10    8.60
  -7  -7  -8   23.20   10.60
  -7  -7  -8   23.80   15.80
  -7  -7  -8   16.10    6.80
  -7  -7  -8   19.40    9.80
   7   7   8   -0.50   13.80
   7   7   8    8.60    9.40
   2  -8  -8   94.69    7.30
   2  -8  -8   83.79    8.20
   2  -8  -8   86.49   16.90
   2  -8  -8   65.89    8.70
   2  -8  -8   69.29   12.70
   2  -8  -8  124.19   16.50
  -2   8   8   86.09    4.80
  -2   8   8   77.09   12.50
  -2   8   8   85.19   10.90
  -2   8   8   71.29    5.00
   1  -8  -8   35.20   12.90
   1  -8  -8   24.70    5.00
   1  -8  -8   33.20    4.60
   1  -8  -8   34.40    7.90
   1  -8  -8   25.70    8.60
  -1   8   8   24.70    9.90
  -1   8   8   25.70    6.90
   0  -8  -8   18.10   11.20
   0  -8  -8   10.50    2.30
   0  -8  -8   17.50    7.20
   0  -8  -8   16.80    7.40
   0  -8  -8   11.30    4.70
   0   8   8   13.40    2.90
   0   8   8    6.30    8.30
   0   8   8   18.90    6.10
  -1  -8  -8   -5.80   10.70
  -1  -8  -8    6.20    4.00
  -1  -8  -8    0.60    4.60
  -1  -8  -8    3.00    2.10
   1   8   8    4.20    8.30
   1   8   8    0.80    3.10
   1   8   8    2.30    4.30
   1   8   8    2.50    4.70
  -2  -8  -8  133.09    7.70
  -2  -8  -8  133.19    8.40
  -2  -8  -8  112.69   17.90
  -2  -8  -8  131.99   12.50
   2   8   8  142.09   11.40
   2   8   8  129.29   15.10
   2   8   8  121.99    9.50
   2   8   8  141.49   14.60
  -3  -8  -8    3.10    8.50
  -3  -8  -8   11.10    7.00
  -3  -8  -8   13.40    4.20
  -3  -8  -8   10.00   11.50
   3   8   8   24.10    7.20
   3   8   8   16.70    5.80
   3   8   8   14.20   10.10
   3   8   8   18.80    8.30
   3   8   8   25.30    6.30
  -4  -8  -8   -0.90    4.60
  -4  -8  -8    1.70    2.30
  -4  -8  -8   -5.90    7.40
  -4  -8  -8    5.90   11.00
  -4  -8  -8   -6.50    7.50
   4   8   8  -14.10    8.90
   4   8   8    3.00    5.20
   4   8   8   -2.50    5.80
   4   8   8    4.70    7.70
   4   8   8    7.40    8.40
  -5  -8  -8    9.40    9.70
  -5  -8  -8    6.70    5.70
  -5  -8  -8   14.60   14.00
  -5  -8  -8    6.80    8.60
  -5  -8  -8   -0.90    3.50
   5   8   8   27.40    7.00
   5   8   8    0.20    9.00
   5   8   8   19.00    9.80
  -6  -8  -8   30.30   16.10
  -6  -8  -8   11.00    6.90
  -6  -8  -8    5.50    9.40
   6   8   8    0.10   10.40
   6   8   8   -8.10    8.60
   6   8   8    3.70   12.50
   6   8   8   11.70    8.50
  -7  -8  -8   35.40   17.80
  -7  -8  -8   24.30    7.60
  -7  -8  -8    2.70    8.90
  -7  -8  -8   21.00   11.30
  -7  -8  -8    4.30    9.00
   7   8   8   16.70    9.50
   7   8   8    0.20   12.10
   2  -9  -8    3.30    5.20
   2  -9  -8    6.90    3.90
   2  -9  -8    4.60   12.90
  -2   9   8   -7.10    8.20
  -2   9   8    5.10   11.20
  -2   9   8    1.10    3.30
   1  -9  -8   -0.40   11.60
   1  -9  -8    4.30    6.40
   1  -9  -8   14.10    6.80
   1  -9  -8   -3.90    4.50
  -1   9   8    4.00    3.10
  -1   9   8    6.20    3.90
  -1   9   8    0.80    8.90
  -1   9   8   -4.20    4.80
   0  -9  -8   24.80    5.70
   0  -9  -8   17.50    5.80
   0  -9  -8   26.70    9.60
   0  -9  -8   23.10   15.20
   0  -9  -8   19.90    3.50
   0   9   8    6.70    9.90
   0   9   8   28.70    7.10
  -1  -9  -8   22.90   13.20
  -1  -9  -8   18.10    3.60
  -1  -9  -8   23.30    4.60
  -1  -9  -8   16.30    6.20
   1   9   8   15.80    5.60
   1   9   8   15.60    4.10
   1   9   8   22.30    4.40
   1   9   8   13.20    8.70
   1   9   8   11.30    6.20
  -2  -9  -8   19.60    6.80
  -2  -9  -8   13.50   12.60
  -2  -9  -8   13.40    3.50
  -2  -9  -8   23.30    3.40
   2   9   8   19.30    6.70
   2   9   8   19.20    5.90
   2   9   8   18.90    9.40
   2   9   8   14.60    4.90
  -3  -9  -8   16.30   14.40
  -3  -9  -8    8.40    4.90
  -3  -9  -8   10.00    7.10
   3   9   8   20.40    6.40
   3   9   8   23.10   10.00
   3   9   8   14.20    7.50
   3   9   8    7.40    5.30
  -4  -9  -8   -0.40   12.10
  -4  -9  -8    3.60    9.50
  -4  -9  -8  -10.30    4.70
  -4  -9  -8  -14.30    7.70
   4   9   8    1.10    5.60
   4   9   8   -3.70    7.70
   4   9   8    2.10    9.60
  -5  -9  -8  469.45   19.20
  -5  -9  -8  477.25   24.40
  -5  -9  -8  474.15   28.00
  -5  -9  -8  407.26   31.90
  -5  -9  -8  516.85   36.70
   5   9   8  442.36   25.00
   5   9   8  533.65   32.10
   5   9   8  530.85   29.90
   5   9   8  492.65   28.80
   5   9   8  525.65   24.30
  -6  -9  -8   13.00    9.60
  -6  -9  -8    7.80    4.80
  -6  -9  -8   -0.80    9.20
  -6  -9  -8   -1.80    7.50
  -6  -9  -8   16.70   16.60
   6   9   8   13.40    7.20
   6   9   8   -0.50    8.80
   6   9   8   17.20   13.00
   6   9   8   18.30   11.40
   1 -10  -8   -5.90    5.50
   1 -10  -8   -6.60   12.40
   1 -10  -8   -3.80    3.90
  -1  10   8    4.20    9.30
  -1  10   8    3.10    8.70
  -1  10   8    4.70    4.80
  -1  10   8    2.60    5.10
   0 -10  -8  197.48   15.10
   0 -10  -8  171.08   15.70
   0 -10  -8  190.68   22.90
   0 -10  -8  191.88   11.10
   0  10   8  180.68   19.20
   0  10   8  192.98   14.90
   0  10   8  185.88   15.70
   0  10   8  194.48   12.00
  -1 -10  -8   22.10    4.10
  -1 -10  -8   21.60    7.40
  -1 -10  -8   27.10   13.30
   1  10   8   26.20    6.60
   1  10   8   48.60   11.70
   1  10   8   22.20    9.10
   1  10   8   20.00    5.20
  -2 -10  -8   94.89   22.20
  -2 -10  -8   70.39    7.10
  -2 -10  -8   72.89    8.40
  -2 -10  -8  117.59   14.40
   2  10   8   72.19   13.70
   2  10   8   89.69   14.50
   2  10   8   87.09   10.70
   2  10   8   74.19   10.90
  -3 -10  -8   -3.60    7.90
  -3 -10  -8    1.60   12.80
  -3 -10  -8   -7.60    3.90
   3  10   8    2.80   11.10
   3  10   8   -3.30    9.60
   3  10   8    5.70    5.90
   3  10   8    1.20    7.90
  -4 -10  -8   -6.90    5.00
  -4 -10  -8   -8.90   12.80
  -4 -10  -8   -1.40    8.10
  -4 -10  -8   -2.70    8.90
   4  10   8  -18.50   10.80
   4  10   8    3.30    9.00
   4  10   8    5.40    8.30
   4  10   8   -6.20    6.50
   4  10   8    5.10    6.30
  -5 -10  -8   10.90   15.10
  -5 -10  -8   -0.70    9.00
  -5 -10  -8   -9.70    6.80
  -5 -10  -8    2.90    6.60
   5  10   8   -8.80    7.60
   5  10   8    1.90   12.40
   5  10   8    7.70   10.10
   5  10   8    5.30    6.50
   5  10   8   -4.00    9.40
  -6 -10  -8   67.29   13.10
  -6 -10  -8  125.79   19.20
  -6 -10  -8   78.19    8.10
   6  10   8   82.89   14.40
   6  10   8   84.59   15.30
  -1 -11  -8   56.89   17.40
  -1 -11  -8   39.10    8.90
  -1 -11  -8   31.70    4.90
   1  11   8   49.00    9.60
   1  11   8   72.79   13.50
   1  11   8   37.40    6.70
  -2 -11  -8   93.09    7.70
  -2 -11  -8   82.09   18.00
  -2 -11  -8   68.09    8.10
  -2 -11  -8  106.59   15.90
   2  11   8   60.79    8.30
   2  11   8   92.09   14.90
   2  11   8   80.49   10.40
   2  11   8   69.69   11.20
  -3 -11  -8  110.89   11.20
  -3 -11  -8  120.49   17.20
  -3 -11  -8  146.29   22.80
   3  11   8  134.79   19.10
   3  11   8  133.89   12.40
   3  11   8  128.49   17.30
  -4 -11  -8   -3.60    5.80
  -4 -11  -8   -7.60    8.00
  -4 -11  -8   13.90   15.30
   4  11   8  -11.00    6.90
   4  11   8    9.00   10.20
   4  11   8   -6.20   12.70
   4  11   8    4.60    6.90
   4  11   8   11.40   10.20
  -5 -11  -8   47.40   18.80
  -5 -11  -8   26.80   11.00
  -5 -11  -8   38.20    8.80
  -5 -11  -8   58.09   12.70
   5  11   8   44.00    8.50
   5  11   8   56.69   13.40
   5  11   8   42.30   12.40
   1   7  -9    4.90    7.00
   1   7  -9   -9.90    7.00
   1   7  -9   -4.20    8.30
  -1  -7   9   -9.60    8.90
  -1  -7   9   14.80   11.50
  -1  -7   9   -2.40   10.00
  -1  -7   9    3.60    8.40
   0   7  -9   14.80    7.60
   0   7  -9   -7.40    6.80
   0   7  -9   -8.60    8.10
   0  -7   9    5.00   10.30
   0  -7   9   11.00    8.50
   0  -7   9   12.10   10.30
  -1   7  -9  144.89   17.90
   1  -7   9  135.69   14.10
   1  -7   9  113.09   19.00
   1  -7   9  123.19   19.70
   1  -7   9   99.19   14.30
  -2   7  -9   -1.60    5.80
  -2   7  -9   -6.90    8.50
   2  -7   9    4.50   11.70
   2  -7   9   -4.80   10.10
   2  -7   9    2.80    6.00
   2  -7   9   -9.80   10.50
   2  -7   9   -6.80    5.80
   2   6  -9    8.20    6.50
   2   6  -9   26.10    9.20
   2   6  -9   14.20    7.70
   2   6  -9    1.40   10.10
  -2  -6   9   11.40    7.00
  -2  -6   9    9.00   10.60
  -2  -6   9   24.80   11.50
  -2  -6   9   21.80    7.50
  -2  -6   9   24.30   10.40
   1   6  -9   42.60    9.00
   1   6  -9   48.50   10.00
   1   6  -9   34.90    8.50
  -1  -6   9   39.00    7.80
  -1  -6   9   52.19    8.60
  -1  -6   9   46.00   11.70
  -1  -6   9   31.30   12.20
  -1  -6   9   39.60   10.50
   0   6  -9    3.00    7.80
   0   6  -9   -0.80    5.80
   0  -6   9   13.50    7.50
   0  -6   9    8.70    9.80
   0  -6   9    1.10    6.40
   0  -6   9   -1.80    9.10
  -1   6  -9   38.50    9.30
  -1   6  -9   42.30    8.00
  -1   6  -9   27.40    6.80
   1  -6   9   30.30   10.00
   1  -6   9   22.50    9.90
   1  -6   9   40.90    8.60
   1  -6   9   37.30    7.50
  -2   6  -9    3.00    6.80
  -2   6  -9    6.00    5.70
  -2   6  -9   -6.50    6.60
   2  -6   9   -8.40    8.90
   2  -6   9   -2.90    3.90
   2  -6   9    0.60    5.50
   2  -6   9    6.70    9.20
   2  -6   9   11.10    8.40
   2  -6   9   -7.70    9.20
  -3   6  -9    1.80    8.50
  -3   6  -9   -3.60    7.90
   3  -6   9   -0.90    7.00
   3  -6   9    3.00    9.90
   3  -6   9   -0.80    9.60
   3   5  -9   -3.70    8.80
   3   5  -9   -3.80    6.50
   3   5  -9   -2.30    7.90
  -3  -5   9    4.20   10.00
  -3  -5   9   -7.10    5.80
  -3  -5   9   -1.60    3.70
  -3  -5   9    1.40    3.60
  -3  -5   9   11.00    9.70
   2   5  -9   22.20    9.90
   2   5  -9   23.50    6.00
   2   5  -9   30.90    8.40
   2   5  -9   16.60    8.30
  -2  -5   9   36.00   11.60
  -2  -5   9   21.40    6.80
  -2  -5   9   28.70    9.50
  -2  -5   9   24.90    5.60
  -2  -5   9   34.10   10.70
   1   5  -9    6.10    4.80
  -1  -5   9   12.50    8.20
  -1  -5   9   10.50    6.80
  -1  -5   9   14.70    8.40
  -1  -5   9   10.60    7.80
  -1  -5   9   19.50   10.10
   0   5  -9   14.50    5.40
   0   5  -9   12.10    7.90
   0   5  -9    7.00    5.60
   0  -5   9   10.00    7.80
   0  -5   9   29.00    7.50
   0  -5   9   17.50    7.00
  -1   5  -9  191.08   14.40
  -1   5  -9  184.68   14.00
  -1   5  -9  194.38   16.40
   1  -5   9  190.68   17.10
   1  -5   9  181.88   12.20
   1  -5   9  196.08   17.90
   1  -5   9  184.58   16.30
  -2   5  -9   53.99   10.70
  -2   5  -9   74.89   12.50
  -2   5  -9   44.60    9.30
   2  -5   9   60.99   10.90
   2  -5   9   49.60    4.30
   2  -5   9   37.30   11.40
  -3   5  -9    1.40    8.70
  -3   5  -9    9.00    7.70
  -3   5  -9   17.30    7.50
   3  -5   9   28.00    9.90
   3  -5   9   23.30    6.70
   3  -5   9   22.90    6.50
   3  -5   9    9.70    9.00
   3  -5   9   17.00    8.90
  -4   5  -9   23.60    9.60
  -4   5  -9   19.80    7.30
  -4   5  -9   16.00    9.10
  -4   5  -9   21.90   10.30
   4  -5   9   24.90    9.70
   4  -5   9   51.69   13.90
   4  -5   9   12.30   10.50
   4  -5   9   20.50   10.90
   4  -5   9   14.00    7.60
   3   4  -9    2.50    4.60
   3   4  -9    9.50    8.10
   3   4  -9   12.30    2.70
   3   4  -9    6.60    8.80
   3   4  -9   14.40    8.90
  -3  -4   9   22.70    9.00
  -3  -4   9    5.60    6.50
  -3  -4   9   13.70    9.90
  -3  -4   9   20.40   10.70
  -3  -4   9   13.80    4.10
   2   4  -9    6.60    6.30
   2   4  -9   14.00    4.70
   2   4  -9    0.80    6.60
   2   4  -9   11.40    9.00
  -2  -4   9    7.60    4.10
  -2  -4   9    1.70    8.10
  -2  -4   9    8.00    9.90
  -2  -4   9   -2.40    7.10
   1   4  -9   -0.10    5.90
   1   4  -9   -8.10    8.50
  -1  -4   9   -3.30    6.60
  -1  -4   9    0.60    4.80
  -1  -4   9   -2.60    5.90
  -1  -4   9    0.00    4.40
  -1  -4   9    2.90    9.90
   0   4  -9   16.30    6.30
   0   4  -9   22.50    4.80
   0   4  -9   20.20    6.30
   0   4  -9   12.80    6.10
   0  -4   9   20.30    7.40
   0  -4   9   20.30    5.90
   0  -4   9   12.90    5.90
   0  -4   9   14.30    9.10
   0  -4   9   25.50    6.50
  -1   4  -9   28.40    6.20
  -1   4  -9   20.30    6.70
  -1   4  -9   36.40    7.80
  -1   4  -9   30.40    6.10
   1  -4   9   27.30    7.10
   1  -4   9   28.40    7.90
   1  -4   9   16.20    5.00
   1  -4   9   28.80    7.60
   1  -4   9   29.70    9.30
  -2   4  -9    0.40    7.30
  -2   4  -9    1.50    6.30
  -2   4  -9    6.60    5.50
  -2   4  -9    6.10    5.00
   2  -4   9   -4.20    7.10
   2  -4   9   10.20    8.50
   2  -4   9    6.90    6.80
  -3   4  -9   -3.20    6.20
  -3   4  -9   -5.80    8.20
   3  -4   9    1.00    5.10
   3  -4   9   -4.50    5.70
   3  -4   9   -1.30    7.60
  -4   4  -9    8.90    7.80
  -4   4  -9   29.50    9.30
  -4   4  -9   29.10    3.90
  -4   4  -9   11.20    9.10
  -4   4  -9   25.80    8.60
   4  -4   9   15.10    7.30
   4  -4   9   31.80    9.70
   4  -4   9   35.70    9.60
   4  -4   9   30.20    8.10
   4  -4   9   33.20    8.40
  -5   4  -9  142.79   20.10
  -5   4  -9   88.89   13.20
  -5   4  -9   96.39    8.70
  -5   4  -9  105.59   17.20
   5  -4   9  134.09   18.90
   5  -4   9   98.59   14.00
   5  -4   9   96.19   17.10
   4   3  -9   50.09   10.60
   4   3  -9   38.50    9.40
  -4  -3   9   72.89   12.00
  -4  -3   9   46.10    7.00
  -4  -3   9   43.20    7.70
  -4  -3   9   71.49   13.50
   3   3  -9  108.29   15.60
   3   3  -9   73.99   11.90
   3   3  -9   87.69   13.90
   3   3  -9  102.69   14.70
   3   3  -9   75.79    8.00
  -3  -3   9  122.59   17.80
  -3  -3   9   86.29    9.70
  -3  -3   9   91.29   15.30
  -3  -3   9   72.79   12.50
  -3  -3   9   80.99    8.00
   2   3  -9   15.20    4.00
   2   3  -9   22.80    9.50
   2   3  -9   16.50    6.50
  -2  -3   9   23.00   11.00
  -2  -3   9   20.30    3.90
  -2  -3   9   14.20    7.00
  -2  -3   9   26.90    8.70
  -2  -3   9   11.90    4.60
   1   3  -9   11.50    3.90
   1   3  -9   10.40    5.40
   1   3  -9   20.50    6.20
   1   3  -9    9.90    5.10
  -1  -3   9   11.20    7.30
  -1  -3   9    8.60    4.60
  -1  -3   9   15.80    4.60
  -1  -3   9   14.80    6.80
  -1  -3   9   19.40    6.70
   0   3  -9   23.30    5.90
   0   3  -9   17.20    4.20
   0   3  -9   25.30    6.10
   0   3  -9   15.90    6.30
   0  -3   9   14.80    5.50
   0  -3   9   14.30    9.10
   0  -3   9   26.40    5.30
   0  -3   9   31.70    6.50
   0  -3   9   18.80    6.40
  -1   3  -9    4.70    5.40
  -1   3  -9    2.40    4.10
  -1   3  -9   12.50    6.50
  -1   3  -9    2.10    4.40
   1  -3   9    8.70    5.80
   1  -3   9   18.90    8.20
   1  -3   9    8.90    5.30
   1  -3   9    2.30    6.20
   1  -3   9    7.30    3.90
  -2   3  -9  181.58   15.90
  -2   3  -9  177.68   13.00
  -2   3  -9  168.78   14.10
  -2   3  -9  166.98   12.20
   2  -3   9  180.58   16.30
   2  -3   9  142.79   15.30
   2  -3   9  183.48   15.10
   2  -3   9  167.28   14.40
  -3   3  -9   18.40    6.70
  -3   3  -9   23.80    8.70
  -3   3  -9   22.00    7.20
  -3   3  -9   18.70    5.50
   3  -3   9   15.20    6.90
   3  -3   9   -0.90    6.30
   3  -3   9   21.70    9.00
   3  -3   9   20.00    7.50
   3  -3   9   14.80    5.20
  -4   3  -9   -4.20    3.10
  -4   3  -9   10.50    6.70
   4  -3   9   -3.30    6.70
   4  -3   9   -7.30    6.90
   4  -3   9   10.20    6.40
  -5   3  -9   26.10    9.20
  -5   3  -9   47.90    7.20
  -5   3  -9   41.10   10.10
  -5   3  -9   51.59   10.30
  -5   3  -9   25.00    9.70
   5  -3   9   42.60   10.90
   5  -3   9   19.80    9.70
   5  -3   9   50.39   13.10
   5  -3   9   49.99    9.00
   5  -3   9   47.70   10.70
   4   2  -9   21.80    8.10
   4   2  -9   -4.90    9.10
   4   2  -9    6.20    7.10
   4   2  -9   -3.50    7.60
   4   2  -9   -4.20    6.70
  -4  -2   9    1.80    9.40
  -4  -2   9   -2.50    4.30
  -4  -2   9    7.60    4.60
  -4  -2   9   13.50    7.60
   3   2  -9   69.69    7.20
   3   2  -9   96.79   12.60
   3   2  -9   60.49   13.50
  -3  -2   9   60.99    7.90
  -3  -2   9   77.19    8.10
  -3  -2   9   53.79   11.10
   2   2  -9    2.50    5.10
   2   2  -9    1.40    7.30
   2   2  -9   -1.00    2.70
   2   2  -9    5.80    2.00
  -2  -2   9   -3.20    7.80
  -2  -2   9    3.60    3.00
  -2  -2   9    1.50    3.30
  -2  -2   9    2.00    6.90
  -2  -2   9    2.80    3.50
   1   2  -9   17.20    5.30
   1   2  -9   23.80    8.40
   1   2  -9   21.30    5.10
   1   2  -9   19.50    3.70
  -1  -2   9   19.10    4.90
  -1  -2   9   23.60    7.20
  -1  -2   9   26.60    4.70
  -1  -2   9   18.70    2.40
  -1  -2   9   29.40    9.40
   0   2  -9   53.99    6.30
   0   2  -9   47.50    6.50
   0   2  -9   35.70    6.60
   0   2  -9   46.00    7.60
   0  -2   9   42.90    6.50
   0  -2   9   36.70    6.80
   0  -2   9   44.30    7.40
   0  -2   9   45.90   10.10
   0  -2   9   42.40    6.40
  -1   2  -9   67.99    7.60
  -1   2  -9   62.39    9.20
  -1   2  -9   50.39    7.50
  -1   2  -9   72.09   10.60
   1  -2   9   68.69   10.00
   1  -2   9   68.09    8.80
   1  -2   9   50.39    6.50
   1  -2   9   62.59   10.80
  -2   2  -9 1390.36   49.00
  -2   2  -9 1307.57   48.90
  -2   2  -9 1351.06   51.29
  -2   2  -9 1325.57   49.30
   2  -2   9 1308.97   51.79
   2  -2   9 1377.46   52.19
   2  -2   9 1388.16   50.59
   2  -2   9 1391.96   49.00
   2  -2   9 1338.47   49.99
  -3   2  -9   75.39   10.30
  -3   2  -9   61.99   10.30
  -3   2  -9   84.99   11.50
  -3   2  -9   98.49   10.10
  -3   2  -9   73.79    5.10
   3  -2   9   88.29   11.20
   3  -2   9   68.89    8.00
   3  -2   9   85.79   13.30
   3  -2   9   66.59   10.70
   3  -2   9   75.99   12.10
   3  -2   9   90.49   11.70
  -4   2  -9    2.80    6.60
  -4   2  -9   -8.20    7.30
  -4   2  -9    1.60    3.10
   4  -2   9    4.30    5.90
   4  -2   9    3.00    6.90
   4  -2   9    8.60    6.80
  -5   2  -9   67.99   11.10
  -5   2  -9   62.19    8.10
  -5   2  -9   60.89   10.50
   5  -2   9   79.59   12.80
   5  -2   9  106.39   15.90
   5  -2   9   59.79   16.10
  -6   2  -9  116.39   10.90
  -6   2  -9  124.99   18.40
  -6   2  -9   84.89   13.30
  -6   2  -9  132.59   17.60
   6  -2   9  139.99   20.40
   6  -2   9  114.99   18.50
   6  -2   9  175.48   22.70
   4   1  -9   11.00    9.60
   4   1  -9   22.80   10.60
   4   1  -9   35.00    9.70
   4   1  -9   20.00    8.20
   4   1  -9   28.60    7.60
   4   1  -9   13.00    3.60
   4   1  -9   19.80    6.80
  -4  -1   9   22.50    4.10
  -4  -1   9   15.40    5.70
  -4  -1   9   19.50    9.80
  -4  -1   9   26.90    4.30
   3   1  -9 1138.99   44.70
   3   1  -9 1153.48   47.40
   3   1  -9 1159.08   43.30
   3   1  -9 1185.28   40.80
   3   1  -9 1239.68   48.00
  -3  -1   9 1188.18   42.80
  -3  -1   9 1235.38   49.00
  -3  -1   9 1153.38   41.00
   2   1  -9   -0.60    4.60
   2   1  -9   -0.90    3.60
   2   1  -9    5.30    7.40
   2   1  -9   -2.60    2.30
  -2  -1   9    3.20    7.20
  -2  -1   9   -6.40    7.20
  -2  -1   9    6.90    3.20
  -2  -1   9    0.60    2.60
  -2  -1   9    3.00    3.10
   1   1  -9   46.20    5.80
   1   1  -9   33.40    4.60
   1   1  -9   39.50    6.20
   1   1  -9   35.90    8.10
  -1  -1   9   42.60    7.80
  -1  -1   9   38.80    5.70
  -1  -1   9   40.90    9.70
   0   1  -9   12.40    5.50
   0   1  -9   12.60    3.20
   0   1  -9   11.10    5.10
   0   1  -9   16.00    4.20
   0  -1   9    9.70    3.10
   0  -1   9    6.10    5.00
   0  -1   9   13.40    5.10
   0  -1   9   18.60    7.90
   0  -1   9   13.80    3.90
  -1   1  -9    5.10    4.40
  -1   1  -9    8.90    5.90
  -1   1  -9    8.20    4.10
  -1   1  -9    6.00    3.20
   1  -1   9    4.10    4.60
   1  -1   9    8.50    4.30
   1  -1   9   17.20    5.50
   1  -1   9   -0.70    6.80
  -2   1  -9  219.58   13.10
  -2   1  -9  213.68   13.10
  -2   1  -9  196.98   12.60
  -2   1  -9  191.28   13.90
   2  -1   9  196.28    8.20
   2  -1   9  209.48   14.80
   2  -1   9  196.68   13.50
   2  -1   9  218.38   16.20
   2  -1   9  190.68   15.20
   2  -1   9  212.48   13.40
  -3   1  -9   49.40    9.50
  -3   1  -9   75.49   10.00
  -3   1  -9   59.99    8.60
  -3   1  -9   58.69    9.10
   3  -1   9   51.59    9.40
   3  -1   9   61.99    9.50
   3  -1   9   78.39   10.80
   3  -1   9   48.90    7.60
   3  -1   9   57.09    8.50
   3  -1   9   48.40    8.10
  -4   1  -9   23.50    6.80
  -4   1  -9   16.40    8.70
  -4   1  -9   27.40    4.70
  -4   1  -9   24.10    7.50
  -4   1  -9   22.00    7.20
   4  -1   9   17.00    7.50
   4  -1   9   16.50    7.50
   4  -1   9   22.40    6.70
  -5   1  -9    0.70    7.40
  -5   1  -9    3.60    4.50
  -5   1  -9    4.20    5.10
  -5   1  -9   -5.60    6.30
   5  -1   9    2.50    8.00
   5  -1   9    9.40   11.70
   5  -1   9    1.60    5.70
  -6   1  -9   44.40   11.80
  -6   1  -9   70.09   12.20
  -6   1  -9   55.29   10.20
  -6   1  -9   43.20    7.40
  -6   1  -9   66.49   11.40
   6  -1   9   73.19   12.40
   6  -1   9   44.90   11.20
   6  -1   9   86.19   16.80
   6  -1   9   49.50   11.80
   6  -1   9   55.29    9.80
   4   0  -9   51.49    7.80
   4   0  -9   36.60   11.10
   4   0  -9   35.00   10.90
   4   0  -9   43.80    6.00
   4   0  -9   65.59   10.50
  -4   0   9   46.70   11.50
  -4   0   9   43.40    7.10
   3   0  -9   97.49   11.80
   3   0  -9   96.29    6.80
   3   0  -9  116.59   12.30
   3   0  -9   98.79   10.80
   3   0  -9  122.69   15.70
  -3   0   9  117.29   15.60
  -3   0   9  121.79    5.70
  -3   0   9   96.99    5.00
  -3   0   9  103.79    9.70
   2   0  -9  438.56   24.20
   2   0  -9  453.65   22.40
   2   0  -9  427.06   23.00
   2   0  -9  457.35   23.60
   2   0  -9  390.66   17.60
   2   0  -9  422.26   16.00
   2   0  -9  430.26   18.10
  -2   0   9  446.26   22.90
  -2   0   9  462.85   18.50
  -2   0   9  401.06   14.90
  -2   0   9  416.56   15.40
   1   0  -9   20.40    5.60
   1   0  -9   17.60    2.70
   1   0  -9   11.10    5.00
   1   0  -9   24.20    7.60
   1   0  -9   18.60    3.80
   1   0  -9   26.90    4.80
  -1   0   9    3.80    7.30
  -1   0   9   15.20    2.60
  -1   0   9   21.40    3.70
  -1   0   9   23.20    6.50
  -1   0   9   15.60    2.60
   0   0  -9    5.80    3.00
   0   0  -9   -1.90    5.30
   0   0  -9    7.10    5.10
   0   0  -9    3.80    3.40
   0   0  -9    5.00    2.30
   0   0   9    2.90    6.90
   0   0   9   -0.80    3.60
   0   0   9    4.40    2.60
   0   0   9    7.60    4.60
  -1   0  -9   88.79    7.60
  -1   0  -9  104.89    9.50
  -1   0  -9  103.69   11.00
  -1   0  -9   89.19    6.90
   1   0   9   84.99   11.80
   1   0   9   85.69   10.20
   1   0   9   91.19    7.60
   1   0   9   64.99   10.90
   1   0   9   90.29    6.80
  -2   0  -9    6.60    4.50
  -2   0  -9   19.10    5.60
  -2   0  -9   11.10    3.80
  -2   0  -9   11.70    4.40
   2   0   9    7.30    4.50
   2   0   9   10.10    5.00
   2   0   9   10.90    3.10
   2   0   9    9.90    6.10
   2   0   9   13.00    4.50
  -3   0  -9  734.83   29.50
  -3   0  -9  761.12   30.40
  -3   0  -9  731.53   30.30
  -3   0  -9  693.13   31.70
   3   0   9  771.62   31.70
   3   0   9  756.42   29.70
   3   0   9  730.83   31.00
   3   0   9  755.32   30.70
   3   0   9  731.93   32.70
   3   0   9  721.23   29.40
  -4   0  -9   -5.70    5.70
  -4   0  -9   -7.20    4.50
   4   0   9   -0.40    6.30
   4   0   9    2.00    6.50
   4   0   9   -5.00    4.20
   4   0   9   -6.30    5.90
  -5   0  -9   10.30    7.30
  -5   0  -9   10.50    6.70
  -5   0  -9    6.60    6.80
  -5   0  -9    4.70    7.70
  -5   0  -9    6.40    7.20
   5   0   9    4.00    9.70
   5   0   9    4.40    6.40
   5   0   9   10.60    8.10
  -6   0  -9   66.59   12.70
  -6   0  -9   87.49   13.70
  -6   0  -9   79.99   12.10
  -6   0  -9   70.59   12.20
  -6   0  -9   83.29   10.90
   6   0   9  111.09   13.30
   6   0   9   91.39   16.60
   6   0   9   84.29   17.10
   6   0   9   80.29   12.80
  -7   0  -9   57.69   12.10
  -7   0  -9   82.39   13.30
  -7   0  -9   62.39   12.90
  -7   0  -9   75.49   12.50
  -7   0  -9   50.09    9.30
   7   0   9  116.09   23.70
   7   0   9   69.09   14.60
   7   0   9   53.09   22.70
   7   0   9   63.29   10.50
   4  -1  -9   22.30    7.80
   4  -1  -9   20.90   10.80
   4  -1  -9   38.70    6.80
   4  -1  -9   27.30   10.20
   4  -1  -9   26.10    8.10
  -4   1   9   33.00    7.40
  -4   1   9    9.70    9.60
   3  -1  -9   33.40    4.60
   3  -1  -9   27.80    9.40
   3  -1  -9   39.60    4.70
   3  -1  -9   38.90    7.60
   3  -1  -9   28.90    8.00
   3  -1  -9   33.00    9.70
  -3   1   9   35.50    6.40
  -3   1   9   15.20    9.40
   2  -1  -9  941.41   38.60
   2  -1  -9  957.50   38.00
   2  -1  -9  876.81   30.90
   2  -1  -9  883.11   40.20
   2  -1  -9 1015.60   39.10
   2  -1  -9  955.20   39.80
   2  -1  -9  935.91   34.50
  -2   1   9  981.00   39.10
  -2   1   9  970.50   35.20
   1  -1  -9   10.70    4.90
   1  -1  -9    4.70    4.60
   1  -1  -9   -5.50    4.90
   1  -1  -9  -10.20    5.30
   1  -1  -9    9.30    4.90
   1  -1  -9    1.30    5.90
   1  -1  -9   -1.10    2.00
   1  -1  -9   -2.30    5.90
   1  -1  -9    3.90    2.50
  -1   1   9    9.00    3.50
  -1   1   9    7.20    7.00
  -1   1   9    6.80    5.30
   0  -1  -9   89.49    5.80
   0  -1  -9   92.19    8.30
   0  -1  -9   77.09   10.50
   0  -1  -9   66.09   10.10
   0  -1  -9   79.69    7.60
   0  -1  -9   74.79    5.30
   0  -1  -9   76.99    9.50
   0  -1  -9   82.89    8.90
   0   1   9   82.79    5.90
   0   1   9   67.09    4.10
   0   1   9   66.89    9.90
   0   1   9   75.59    4.50
  -1  -1  -9   34.00    6.80
  -1  -1  -9   23.90    3.50
  -1  -1  -9   32.70    5.20
  -1  -1  -9   25.00    5.30
  -1  -1  -9   26.50    3.80
  -1  -1  -9   20.60    5.70
  -1  -1  -9   23.90    5.10
   1   1   9   28.80    7.00
   1   1   9   12.20    6.30
   1   1   9   23.50    6.00
   1   1   9   22.00    3.70
  -2  -1  -9  113.69    6.80
  -2  -1  -9  140.39   11.00
  -2  -1  -9  127.69    9.50
  -2  -1  -9  128.09   13.10
  -2  -1  -9  126.29   10.10
   2   1   9  112.59   13.90
   2   1   9  143.69    8.60
   2   1   9  129.59   12.10
   2   1   9  124.89    9.20
   2   1   9  128.49    9.70
   2   1   9  119.99   11.60
  -3  -1  -9 1673.53   59.19
  -3  -1  -9 1685.63   61.89
  -3  -1  -9 1709.23   62.69
   3   1   9 1700.73   60.09
   3   1   9 1704.63   60.09
   3   1   9 1702.83   58.59
   3   1   9 1659.53   59.79
   3   1   9 1698.23   62.49
   3   1   9 1680.53   60.39
  -4  -1  -9   96.79   12.10
  -4  -1  -9  141.59   13.30
  -4  -1  -9  148.69   11.80
  -4  -1  -9  126.59   13.90
  -4  -1  -9  117.89   13.50
   4   1   9  137.39   12.70
   4   1   9  133.29   12.90
   4   1   9  126.79   13.80
   4   1   9  133.99   12.60
   4   1   9  144.09   12.40
   4   1   9  108.59   12.40
  -5  -1  -9  177.98   14.50
  -5  -1  -9  158.78   15.50
  -5  -1  -9  159.68   17.30
  -5  -1  -9  205.08   17.20
  -5  -1  -9  152.28   13.80
   5   1   9  177.68   16.80
   5   1   9  187.48   21.60
   5   1   9  177.38   14.40
  -6  -1  -9  198.88   18.40
  -6  -1  -9  191.98   21.40
  -6  -1  -9  212.38   15.30
  -6  -1  -9  185.38   16.80
   6   1   9  220.28   19.20
   6   1   9  191.08   15.90
   6   1   9  206.08   20.20
   6   1   9  231.98   23.60
  -7  -1  -9   72.09   12.90
  -7  -1  -9   42.70    9.30
  -7  -1  -9   62.09   12.40
  -7  -1  -9   51.49   11.20
  -7  -1  -9   52.79    9.80
  -7  -1  -9   54.69   12.20
   7   1   9   70.59   16.60
   7   1   9   53.19    9.80
   7   1   9   55.39   12.50
   7   1   9   52.19   13.80
   7   1   9   63.29   12.30
   4  -2  -9   30.30   11.20
   4  -2  -9   21.60    7.70
   4  -2  -9   26.70    6.60
   4  -2  -9   19.70    3.40
   4  -2  -9   23.00   10.60
   4  -2  -9   36.70    9.60
  -4   2   9   13.70   10.40
  -4   2   9   34.60    6.90
   3  -2  -9    8.80    6.10
   3  -2  -9   12.80    7.00
   3  -2  -9   -2.00    7.70
   3  -2  -9    3.20   10.30
   3  -2  -9   19.10    6.20
   3  -2  -9    6.80    3.60
  -3   2   9   15.50    5.60
  -3   2   9    1.00    8.30
   2  -2  -9 1780.12   71.79
   2  -2  -9 2072.79   71.09
   2  -2  -9 2055.89   67.89
   2  -2  -9 1981.70   70.29
   2  -2  -9 1986.00   72.99
   2  -2  -9 2039.60   71.19
  -2   2   9 2018.60   68.59
   1  -2  -9   26.00    7.10
   1  -2  -9    5.30    6.70
   1  -2  -9    3.30    6.60
   1  -2  -9   13.10    6.10
   1  -2  -9   17.00    5.10
  -1   2   9   22.90    4.80
   0  -2  -9  163.18   11.60
   0  -2  -9  153.18   14.40
   0  -2  -9  169.48   11.70
   0  -2  -9  164.78    6.40
   0  -2  -9  170.38    6.80
   0  -2  -9  180.18   13.50
   0  -2  -9  179.48   12.00
   0  -2  -9  165.18   12.50
   0   2   9  188.58   14.40
   0   2   9  176.48    9.60
  -1  -2  -9    5.90    3.10
  -1  -2  -9   -0.50    3.50
  -1  -2  -9   -0.70    5.30
  -1  -2  -9    3.00    2.00
  -1  -2  -9    5.00    5.40
  -1  -2  -9    4.10    5.30
  -1  -2  -9    5.60    4.10
  -1  -2  -9    1.60    2.20
   1   2   9    2.30    5.70
   1   2   9    2.80    2.20
   1   2   9   -0.30    5.10
   1   2   9    1.90    1.50
  -2  -2  -9   49.00    6.10
  -2  -2  -9   34.20    7.70
  -2  -2  -9   32.60    7.20
  -2  -2  -9   33.30    7.50
  -2  -2  -9   29.20    5.50
  -2  -2  -9   28.00    4.60
  -2  -2  -9   29.60    4.60
   2   2   9   22.30    6.40
   2   2   9   31.00    7.00
   2   2   9   33.30    4.80
   2   2   9   37.00    6.30
   2   2   9   29.30    6.60
   2   2   9   35.60    6.20
  -3  -2  -9   60.89    9.00
  -3  -2  -9   68.39   11.60
  -3  -2  -9   47.20    9.30
  -3  -2  -9   58.59    9.70
  -3  -2  -9   46.60    8.10
  -3  -2  -9   59.29    4.60
   3   2   9   69.69   11.40
   3   2   9   69.39    9.50
   3   2   9   66.39    9.80
   3   2   9   57.49    9.10
   3   2   9   63.49    8.20
  -4  -2  -9  211.08   15.90
  -4  -2  -9  207.78   15.90
  -4  -2  -9  194.78   15.40
  -4  -2  -9  208.88   18.60
  -4  -2  -9  229.68   13.90
   4   2   9  221.58   15.40
   4   2   9  223.68   14.30
   4   2   9  236.78   17.00
   4   2   9  237.98   16.30
   4   2   9  211.28   15.40
   4   2   9  234.98   15.30
  -5  -2  -9   11.30    6.90
  -5  -2  -9    5.40    7.40
  -5  -2  -9    1.30    8.60
  -5  -2  -9   -5.30    5.90
  -5  -2  -9    1.40    5.30
  -5  -2  -9   10.30    3.90
   5   2   9   13.10    7.50
   5   2   9   12.10    6.90
   5   2   9    6.60   11.00
   5   2   9    1.40    6.80
   5   2   9   -6.50    5.90
  -6  -2  -9    3.20    7.20
  -6  -2  -9   11.20    6.60
  -6  -2  -9    8.90    8.30
  -6  -2  -9    1.40    7.00
  -6  -2  -9    5.70    3.10
   6   2   9   19.50   12.20
   6   2   9   10.90    8.20
   6   2   9    3.30    6.90
   6   2   9    2.70    8.20
  -7  -2  -9   -4.10    6.70
  -7  -2  -9   -2.20    8.80
  -7  -2  -9  -12.50    8.10
  -7  -2  -9   -3.20    3.80
  -7  -2  -9   -7.90    9.00
  -7  -2  -9   -7.30    8.00
   7   2   9    4.10   10.00
   7   2   9    0.80    7.10
   7   2   9    5.00    6.50
   7   2   9   10.00   10.70
   7   2   9   33.00   13.80
   4  -3  -9    9.10    3.40
   4  -3  -9   12.30    6.70
   4  -3  -9   22.90    5.80
   4  -3  -9   13.50    2.20
   4  -3  -9    6.50    2.40
   4  -3  -9   26.20   10.50
   4  -3  -9   10.30    2.00
  -4   3   9   18.40    5.90
   3  -3  -9    7.00    6.80
   3  -3  -9   14.00    5.80
   3  -3  -9    6.60    8.40
   3  -3  -9   12.30    4.90
   3  -3  -9    6.70    5.70
   3  -3  -9   10.70    9.10
  -3   3   9   10.60    5.00
   2  -3  -9   -8.00    6.40
   2  -3  -9  -10.60    7.00
   2  -3  -9    1.70    5.20
   2  -3  -9   -0.80    5.90
   2  -3  -9   10.90    7.80
   2  -3  -9    9.30    6.70
   2  -3  -9    0.50    4.40
  -2   3   9    5.20    4.80
   1  -3  -9 2217.48   76.99
   1  -3  -9 2176.58   75.59
   1  -3  -9 2246.38   75.89
   1  -3  -9 2261.97   78.29
   1  -3  -9 2201.98   77.99
   1  -3  -9 2137.69   76.99
   1  -3  -9 2160.18   75.49
  -1   3   9 2140.99   74.09
   0  -3  -9   91.19    9.00
   0  -3  -9   70.19   10.10
   0  -3  -9   84.59   10.50
   0  -3  -9   93.79   10.70
   0  -3  -9   85.09   10.30
   0  -3  -9   95.69    9.40
   0   3   9   95.29    7.90
  -1  -3  -9   42.00    5.20
  -1  -3  -9   26.60    6.60
  -1  -3  -9   31.40    7.70
  -1  -3  -9   33.70    5.60
  -1  -3  -9   17.60    4.80
  -1  -3  -9   28.00    3.90
  -1  -3  -9   28.60    7.10
   1   3   9   25.80    2.10
   1   3   9   26.20    6.30
   1   3   9   25.30    6.80
   1   3   9   28.80    1.90
  -2  -3  -9  108.19   12.40
  -2  -3  -9   86.39    7.60
  -2  -3  -9   83.29    7.10
  -2  -3  -9   76.89   11.00
  -2  -3  -9   91.49   10.10
  -2  -3  -9   79.89    6.70
  -2  -3  -9   79.99    8.60
   2   3   9   91.89    6.80
   2   3   9   81.29    9.20
   2   3   9   56.79    9.70
   2   3   9   86.19    7.00
   2   3   9   79.99    9.90
  -3  -3  -9   94.59   11.50
  -3  -3  -9  104.99   10.90
  -3  -3  -9  109.39   14.00
  -3  -3  -9   93.29   13.80
  -3  -3  -9  101.39    9.50
   3   3   9   88.39    9.10
   3   3   9  110.49   10.10
   3   3   9  120.09   10.40
   3   3   9  106.59   11.30
   3   3   9  107.79   10.20
  -4  -3  -9 2753.72   98.39
  -4  -3  -9 2848.62   95.29
  -4  -3  -9 2839.82   97.09
  -4  -3  -9 2758.42   96.39
  -4  -3  -9 2710.43  100.29
  -4  -3  -9 2920.91   96.69
   4   3   9 2826.12   98.19
   4   3   9 2786.62   96.19
   4   3   9 2810.12   95.39
   4   3   9 2858.91   99.09
   4   3   9 2805.22   95.49
   4   3   9 2827.22   93.59
  -5  -3  -9   74.69   10.10
  -5  -3  -9   57.29    9.80
  -5  -3  -9   63.59   12.20
  -5  -3  -9   85.89   13.90
  -5  -3  -9   74.19   10.30
   5   3   9  109.89   13.60
   5   3   9   67.59   10.20
   5   3   9   75.59   11.30
   5   3   9   68.39   10.40
   5   3   9   55.39    9.60
   5   3   9   84.99   14.90
  -6  -3  -9   51.59   12.40
  -6  -3  -9   56.99   10.10
  -6  -3  -9   45.90   12.00
  -6  -3  -9   53.59    9.10
  -6  -3  -9   59.99    8.10
  -6  -3  -9   67.69   10.50
   6   3   9   68.49   11.30
   6   3   9   78.19   16.00
   6   3   9   57.49    9.90
   6   3   9   64.29   11.80
  -7  -3  -9   55.29   11.80
  -7  -3  -9   77.49   11.40
  -7  -3  -9   50.59    7.50
  -7  -3  -9   48.90   11.40
  -7  -3  -9   50.09   10.30
  -7  -3  -9   52.59   11.80
   7   3   9   54.19   12.60
   7   3   9   86.09   17.70
   7   3   9   57.79   10.10
   7   3   9   48.10   10.80
   4  -4  -9   -0.20    8.80
   4  -4  -9   -6.60    6.10
   4  -4  -9   -0.20    4.80
   4  -4  -9   -0.20    5.20
  -4   4   9   -0.80    4.90
   3  -4  -9    5.50    6.30
   3  -4  -9    1.80    4.90
   3  -4  -9    4.90    5.20
   3  -4  -9   19.90    8.80
   3  -4  -9   -9.00    8.70
   3  -4  -9    7.50    5.40
  -3   4   9    5.50    5.10
   2  -4  -9   12.00    6.50
   2  -4  -9    5.30    6.20
   2  -4  -9    4.60    6.90
   2  -4  -9    4.10    8.30
   2  -4  -9   -3.00    6.80
   2  -4  -9   11.30    4.70
   2  -4  -9    0.80    5.90
  -2   4   9    7.30    5.00
   1  -4  -9 1583.34   58.89
   1  -4  -9 1611.84   56.89
   1  -4  -9 1536.95   59.69
   1  -4  -9 1674.93   60.09
   1  -4  -9 1620.04   58.29
   1  -4  -9 1622.44   60.19
   1  -4  -9 1626.84   57.09
  -1   4   9 1600.94   56.89
   0  -4  -9   76.69   10.50
   0  -4  -9   87.09   11.50
   0  -4  -9  101.39   11.60
   0  -4  -9   72.29    9.00
   0  -4  -9   57.29    8.50
   0  -4  -9   89.69   10.20
   0  -4  -9   88.69   10.00
   0   4   9   73.79    8.40
  -1  -4  -9   63.59    4.40
  -1  -4  -9   65.59    9.40
  -1  -4  -9   53.59    8.10
  -1  -4  -9   54.39    9.10
  -1  -4  -9   43.90    7.40
  -1  -4  -9   52.29   10.20
  -1  -4  -9   62.69    7.90
   1   4   9   53.49    8.00
   1   4   9   41.40    6.50
  -2  -4  -9   21.90    6.40
  -2  -4  -9   19.60    5.90
  -2  -4  -9   15.80    4.10
  -2  -4  -9   18.80    3.80
  -2  -4  -9   15.30    8.40
  -2  -4  -9   19.60    3.40
  -2  -4  -9   16.90    4.10
   2   4   9   11.40    5.50
   2   4   9   17.20    3.20
   2   4   9   19.10    5.40
   2   4   9   21.80    6.60
  -3  -4  -9    0.50    4.50
  -3  -4  -9   -7.50    5.00
  -3  -4  -9   -1.80    7.70
  -3  -4  -9   -0.50    3.50
  -3  -4  -9    6.00    3.50
  -3  -4  -9   -4.40    6.70
   3   4   9   -3.20    4.90
   3   4   9   -0.80    4.30
   3   4   9   -2.20    6.40
   3   4   9   -0.10    4.30
   3   4   9    3.40    4.10
  -4  -4  -9 1631.84   60.49
  -4  -4  -9 1673.53   57.89
  -4  -4  -9 1634.64   65.09
  -4  -4  -9 1627.84   62.69
  -4  -4  -9 1689.73   60.69
  -4  -4  -9 1595.44   59.69
   4   4   9 1672.33   59.29
   4   4   9 1648.73   56.49
   4   4   9 1624.94   59.39
   4   4   9 1741.73   63.79
   4   4   9 1630.24   59.59
  -5  -4  -9  388.76   27.40
  -5  -4  -9  361.96   20.60
  -5  -4  -9  399.26   19.50
  -5  -4  -9  359.36   20.70
  -5  -4  -9  377.76   24.80
  -5  -4  -9  361.36   23.20
   5   4   9  376.46   21.30
   5   4   9  397.16   17.30
   5   4   9  383.56   23.00
   5   4   9  383.56   20.40
   5   4   9  390.76   25.10
  -6  -4  -9  134.09   12.90
  -6  -4  -9  129.79   22.40
  -6  -4  -9  118.99   18.90
  -6  -4  -9  127.79   15.20
  -6  -4  -9  155.48   13.10
   6   4   9  109.79   10.40
   6   4   9  142.49   17.70
   6   4   9  127.89   19.30
   6   4   9  117.69   16.10
  -7  -4  -9   35.20   11.00
  -7  -4  -9   43.60    8.10
  -7  -4  -9   37.10   11.90
  -7  -4  -9   33.40    7.50
  -7  -4  -9   30.10    9.40
  -7  -4  -9   50.29   10.10
   7   4   9   28.10    7.50
   7   4   9   29.50   10.20
   7   4   9   55.09   17.20
   7   4   9   47.90   12.00
   3  -5  -9   -8.60    5.30
   3  -5  -9   -0.20    5.80
   3  -5  -9   17.00    8.80
   3  -5  -9    4.50    4.90
   3  -5  -9   18.00    7.60
   3  -5  -9    4.50    9.00
  -3   5   9    4.60    5.60
   2  -5  -9   -1.20    6.40
   2  -5  -9    5.00    4.40
   2  -5  -9    1.00    5.50
   2  -5  -9   -6.50    5.50
   2  -5  -9   -2.20    8.00
   2  -5  -9    4.00    7.50
   2  -5  -9   -6.80    5.50
  -2   5   9    4.90    5.00
   1  -5  -9 1940.21   67.69
   1  -5  -9 1919.71   70.39
   1  -5  -9 1864.71   64.89
   1  -5  -9 1906.11   68.49
   1  -5  -9 1883.81   67.49
   1  -5  -9 1923.61   65.59
   1  -5  -9 1824.12   68.89
  -1   5   9 1781.92   65.59
   0  -5  -9  132.69   11.50
   0  -5  -9   92.99   11.20
   0  -5  -9  128.89   12.00
   0  -5  -9  110.99   15.40
   0  -5  -9  104.99   11.70
   0  -5  -9   96.89    9.60
   0   5   9  112.09   10.40
  -1  -5  -9   85.39   13.90
  -1  -5  -9  103.99   11.20
  -1  -5  -9  114.29    6.80
  -1  -5  -9  118.89    9.20
  -1  -5  -9  109.49   13.10
  -1  -5  -9  118.29   10.10
  -1  -5  -9  108.59    6.40
   1   5   9   85.79    9.00
   1   5   9  121.09   11.20
  -2  -5  -9   16.40    4.30
  -2  -5  -9   21.50    6.30
  -2  -5  -9   19.70    3.90
  -2  -5  -9   25.70    4.30
  -2  -5  -9   11.70    7.20
  -2  -5  -9   23.00    9.20
   2   5   9   14.90    6.00
   2   5   9   22.60    3.50
   2   5   9   17.40    7.60
  -3  -5  -9   22.90    4.70
  -3  -5  -9   27.30    6.80
  -3  -5  -9   14.60    4.00
  -3  -5  -9   19.60    5.80
  -3  -5  -9    4.30    9.50
  -3  -5  -9    9.50    7.90
   3   5   9   10.30    6.00
   3   5   9   15.00    8.60
   3   5   9   16.00    5.00
   3   5   9   19.30    5.60
  -4  -5  -9    6.50    7.30
  -4  -5  -9    8.00    8.10
  -4  -5  -9    2.70    5.10
  -4  -5  -9   -0.80    7.00
  -4  -5  -9   14.60   10.90
   4   5   9    5.00    7.00
   4   5   9   23.80    6.70
   4   5   9    5.60    5.70
   4   5   9   10.60    3.90
   4   5   9   11.70    9.10
  -5  -5  -9  803.32   34.00
  -5  -5  -9  791.02   41.20
  -5  -5  -9  803.92   37.60
  -5  -5  -9  763.22   33.90
  -5  -5  -9  844.82   36.60
   5   5   9  839.92   39.10
   5   5   9  753.42   34.00
   5   5   9  791.22   35.40
   5   5   9  813.52   33.50
   5   5   9  755.12   28.10
  -6  -5  -9   76.89   13.90
  -6  -5  -9   91.19   14.40
  -6  -5  -9  100.29   20.90
  -6  -5  -9  105.09   11.60
  -6  -5  -9  101.29   12.40
   6   5   9   78.69    7.90
   6   5   9   96.89   16.20
  -7  -5  -9   -7.30    9.60
  -7  -5  -9   -6.20    8.30
  -7  -5  -9  -10.20    6.20
  -7  -5  -9    2.10    7.60
  -7  -5  -9    3.20    8.50
   7   5   9   -5.70    6.70
   7   5   9   10.30    9.80
   7   5   9   18.40   13.90
   7   5   9   14.10    9.40
   7   5   9   -2.30    4.20
   3  -6  -9   -1.50    4.70
   3  -6  -9    2.20    6.50
   3  -6  -9   -5.10   10.50
   3  -6  -9  -10.60    9.20
  -3   6   9   -0.10    5.10
   2  -6  -9   21.10    5.90
   2  -6  -9   10.90    6.40
   2  -6  -9   18.00    8.40
   2  -6  -9   15.20    4.90
   2  -6  -9   10.50   10.10
   2  -6  -9   24.60    8.70
  -2   6   9    4.30    5.20
   1  -6  -9    6.20    4.50
   1  -6  -9   -4.80    5.50
   1  -6  -9   -3.60    5.30
   1  -6  -9   -4.60    6.30
   1  -6  -9   -3.30    9.00
   1  -6  -9   -2.00    3.50
  -1   6   9    4.60    5.30
   0  -6  -9 1139.09   40.00
   0  -6  -9 1196.38   45.70
   0  -6  -9 1166.58   44.60
   0  -6  -9 1134.69   47.80
   0  -6  -9 1111.99   44.80
   0  -6  -9 1154.28   44.30
   0   6   9 1116.19   42.80
   0   6   9 1098.69   46.00
  -1  -6  -9  312.97   19.10
  -1  -6  -9  291.07   12.40
  -1  -6  -9  226.48   19.80
  -1  -6  -9  249.97   16.10
  -1  -6  -9  289.87   14.60
  -1  -6  -9  258.07   12.60
  -1  -6  -9  330.37   18.20
   1   6   9  247.48   15.10
   1   6   9  319.97   16.90
   1   6   9  275.17   17.70
  -2  -6  -9    7.60   10.00
  -2  -6  -9   18.30    3.20
  -2  -6  -9   10.20    3.20
  -2  -6  -9   10.70    6.20
  -2  -6  -9   14.80    5.40
  -2  -6  -9    9.00    4.50
  -2  -6  -9   10.00    2.70
   2   6   9    8.00    2.90
   2   6   9   11.60    5.70
   2   6   9    1.70    9.70
   2   6   9   21.00    8.60
  -3  -6  -9   -4.20    3.90
  -3  -6  -9   -7.20    4.70
  -3  -6  -9   -3.00    2.90
   3   6   9    3.60    5.10
   3   6   9   -6.00    7.00
   3   6   9   -4.70    4.50
   3   6   9   -4.00    5.40
  -4  -6  -9  146.59    9.80
  -4  -6  -9  120.39   11.80
  -4  -6  -9  114.99   15.10
  -4  -6  -9  136.39   13.60
  -4  -6  -9  143.29   19.30
  -4  -6  -9  140.69   16.90
   4   6   9  125.59   12.80
   4   6   9  147.49   13.10
   4   6   9  152.08   16.70
   4   6   9  154.18   16.30
  -5  -6  -9 1308.07   51.39
  -5  -6  -9 1391.36   53.99
  -5  -6  -9 1320.07   54.19
  -5  -6  -9 1388.16   49.10
  -5  -6  -9 1322.67   59.49
  -5  -6  -9 1331.07   51.59
   5   6   9 1407.16   51.09
   5   6   9 1360.06   57.09
  -6  -6  -9   42.00   20.10
  -6  -6  -9   16.40    7.90
  -6  -6  -9   32.80    7.40
  -6  -6  -9   27.90   11.70
  -6  -6  -9   43.40   17.50
  -6  -6  -9   34.20    8.20
   6   6   9   22.90    9.40
   6   6   9   38.70   10.20
   6   6   9   33.90   10.40
  -7  -6  -9    2.20    6.80
  -7  -6  -9  -12.90    8.70
  -7  -6  -9    1.40    8.90
  -7  -6  -9   -7.10    6.30
  -7  -6  -9   -6.40    9.00
   7   6   9   -1.20    6.30
   7   6   9   20.40   13.60
   7   6   9    6.90    9.60
   7   6   9    4.90    9.40
   2  -7  -9    9.60    4.60
   2  -7  -9   13.80    5.50
   2  -7  -9   22.50    9.20
   2  -7  -9   15.00    8.90
  -2   7   9   13.40    5.80
   1  -7  -9   88.09   17.30
   1  -7  -9   78.49   11.70
   1  -7  -9   98.29   13.70
   1  -7  -9   83.59   12.10
   1  -7  -9   96.19    8.30
  -1   7   9   67.59   12.20
  -1   7   9  104.09   10.60
   0  -7  -9  251.87   17.20
   0  -7  -9  276.97   10.90
   0  -7  -9  285.57   18.20
   0  -7  -9  281.87   21.90
   0  -7  -9  312.57   15.10
   0  -7  -9  287.77   11.70
   0  -7  -9  269.87   12.20
   0  -7  -9  299.27   20.10
   0   7   9  283.17   16.60
   0   7   9  258.27   20.00
  -1  -7  -9   -0.90    3.50
  -1  -7  -9  -10.20    9.50
  -1  -7  -9    0.60    1.80
  -1  -7  -9    1.80    2.30
  -1  -7  -9    5.40    3.70
  -1  -7  -9   11.10    6.30
   1   7   9   -9.40    7.10
   1   7   9    1.70    5.10
   1   7   9   -6.40    4.50
   1   7   9    0.80    1.50
  -2  -7  -9   -4.20    7.80
  -2  -7  -9    8.20    4.80
  -2  -7  -9    6.40    2.80
  -2  -7  -9    1.10   10.40
  -2  -7  -9    4.20    1.80
  -2  -7  -9   -7.60    8.70
   2   7   9   -0.90    8.00
   2   7   9    5.80    5.60
   2   7   9    5.60    3.00
  -3  -7  -9   -3.20   10.60
  -3  -7  -9    1.70    6.20
  -3  -7  -9   11.00    3.70
  -3  -7  -9   14.60    6.20
  -3  -7  -9   13.20    2.70
   3   7   9    5.80    9.10
   3   7   9   10.40    6.70
   3   7   9    5.50    5.70
   3   7   9    7.40    8.10
   3   7   9   10.90    4.70
  -4  -7  -9   -0.80    4.40
  -4  -7  -9   -1.30   12.00
  -4  -7  -9   11.80    7.00
  -4  -7  -9   -3.10    3.10
  -4  -7  -9   -9.40    6.50
  -4  -7  -9   -5.30    8.20
   4   7   9    0.30    5.40
   4   7   9   -9.70    9.40
   4   7   9   -7.60    7.90
   4   7   9    4.00    6.00
  -5  -7  -9  879.81   38.80
  -5  -7  -9  842.22   44.80
  -5  -7  -9  875.31   40.50
  -5  -7  -9  870.01   32.60
  -5  -7  -9  746.93   35.20
  -5  -7  -9  831.82   35.60
   5   7   9  898.91   35.60
   5   7   9  855.61   38.60
  -6  -7  -9   -2.20    6.60
  -6  -7  -9    6.60    5.00
  -6  -7  -9    5.80    8.80
  -6  -7  -9  -12.60    9.50
   6   7   9   -8.70   12.40
   6   7   9   -1.00    4.90
   6   7   9  -15.30    7.20
  -7  -7  -9   41.90   10.20
  -7  -7  -9   36.90   12.70
  -7  -7  -9   33.50    7.90
  -7  -7  -9   40.90   11.70
  -7  -7  -9   83.69   19.40
   7   7   9   52.39   17.50
   7   7   9   50.99    9.60
   2  -8  -9    0.00    4.40
   2  -8  -9   -4.30    4.20
   2  -8  -9  -15.70   10.70
   2  -8  -9   -0.50    3.10
   2  -8  -9   -7.70    8.60
   2  -8  -9    1.40    3.00
  -2   8   9    6.60    9.60
  -2   8   9    4.20    6.80
   1  -8  -9   16.20    3.50
   1  -8  -9    2.10    8.20
   1  -8  -9   18.90    3.90
   1  -8  -9   21.20    4.40
   1  -8  -9   34.30    5.60
  -1   8   9   25.70    6.80
  -1   8   9   11.90    9.30
   0  -8  -9  181.68   13.80
   0  -8  -9  175.98   15.90
   0  -8  -9  181.28   10.50
   0  -8  -9  170.48   20.00
   0   8   9  192.08   13.50
   0   8   9  140.09   17.00
  -1  -8  -9   67.99    9.90
  -1  -8  -9   51.19    4.90
  -1  -8  -9   65.29    7.70
  -1  -8  -9   53.69    8.60
  -1  -8  -9   67.19   15.10
   1   8   9   66.19    9.90
   1   8   9   58.59    5.30
   1   8   9   56.99    5.60
   1   8   9   48.00    8.40
   1   8   9   58.59   10.60
  -2  -8  -9   55.79    6.00
  -2  -8  -9   61.89   10.20
  -2  -8  -9   51.19    5.80
  -2  -8  -9   53.79   14.20
   2   8   9   79.09   10.00
   2   8   9   65.29   11.70
   2   8   9   56.59    7.10
   2   8   9   60.19    6.50
  -3  -8  -9    0.10    3.00
  -3  -8  -9    5.80   11.80
  -3  -8  -9    3.90    1.30
  -3  -8  -9    0.20    5.80
   3   8   9   -2.00    5.70
   3   8   9  -11.80    8.50
   3   8   9    2.50    6.00
   3   8   9   11.90    8.90
   3   8   9   -5.00    4.20
  -4  -8  -9   -9.10    8.40
  -4  -8  -9    7.00    2.60
  -4  -8  -9   -6.50    7.10
  -4  -8  -9    0.10    8.70
  -4  -8  -9   -2.70   12.60
   4   8   9   -1.20    5.80
   4   8   9   10.90    7.40
   4   8   9   -1.50    9.30
   4   8   9   -2.10    5.80
  -5  -8  -9   -0.70    5.80
  -5  -8  -9   27.60   14.70
  -5  -8  -9    9.00    3.80
   5   8   9   -2.40    8.00
   5   8   9   20.30    7.20
   5   8   9   -1.60   10.10
   5   8   9   20.70    9.90
  -6  -8  -9   70.29   12.90
  -6  -8  -9   63.89   11.20
  -6  -8  -9   69.69   10.50
  -6  -8  -9   72.49   13.40
  -6  -8  -9   90.89   20.50
   6   8   9   87.99   11.00
   6   8   9   94.39   14.70
   6   8   9  108.49   19.70
   6   8   9   67.69   11.20
   6   8   9   77.49   14.10
  -7  -8  -9  119.39   24.50
  -7  -8  -9   73.19   12.00
  -7  -8  -9   80.89   14.00
  -7  -8  -9  125.29   20.40
  -7  -8  -9   56.69    9.30
   1  -9  -9   15.00    7.60
   1  -9  -9   11.00   10.20
   1  -9  -9    4.00    4.50
   1  -9  -9   13.80   12.50
  -1   9   9   10.60    8.00
  -1   9   9   14.90   10.30
   0  -9  -9    3.90    2.70
   0  -9  -9    0.80   11.90
   0  -9  -9   -3.20    4.60
   0  -9  -9    8.60    5.90
   0  -9  -9    6.20    8.00
   0   9   9    4.80    2.70
   0   9   9   -7.10   10.70
   0   9   9    0.70    5.20
  -1  -9  -9   13.60    4.70
  -1  -9  -9    9.80   13.10
  -1  -9  -9    4.80    5.00
   1   9   9    7.10    6.10
   1   9   9    4.30    4.60
   1   9   9    6.00    3.30
  -2  -9  -9  152.18    9.30
  -2  -9  -9  163.68   13.80
  -2  -9  -9  152.88    9.20
  -2  -9  -9  172.88   21.90
   2   9   9  153.48   10.70
   2   9   9  163.28   12.60
   2   9   9  158.38   12.60
  -3  -9  -9   88.09   17.90
  -3  -9  -9   87.69   13.70
  -3  -9  -9   58.39    8.00
   3   9   9   63.59   10.00
   3   9   9   80.49   10.60
   3   9   9   60.89    9.60
  -4  -9  -9    7.60    1.80
  -4  -9  -9   14.50   23.50
  -4  -9  -9   -8.50    7.70
  -4  -9  -9    0.80    7.40
   4   9   9    0.30   11.50
   4   9   9    3.30    7.90
   4   9   9   -3.50   10.90
   4   9   9    3.70    6.10
  -5  -9  -9   -1.70    8.30
  -5  -9  -9    0.60    6.20
  -5  -9  -9   11.30   14.90
  -5  -9  -9   -0.90    3.10
  -5  -9  -9    9.60    9.00
   5   9   9   14.80   10.40
   5   9   9   -6.60    9.00
   5   9   9    2.40    6.80
   5   9   9   10.20   12.40
   5   9   9   -1.40    7.10
  -6  -9  -9   68.69   13.10
  -6  -9  -9   47.20   11.90
  -6  -9  -9   46.30    9.80
  -6  -9  -9   40.90    6.30
   6   9   9   62.99   14.10
   6   9   9   43.90   12.40
   6   9   9   73.09   17.10
   6   9   9   42.10    9.20
   6   9   9   39.30   11.80
   0 -10  -9  168.08   21.40
   0 -10  -9  187.18   23.40
   0 -10  -9  181.28   10.30
   0 -10  -9  248.58   16.70
   0 -10  -9  204.48   15.00
   0  10   9  214.48   11.50
   0  10   9  186.08   10.70
   0  10   9  218.98   20.50
  -1 -10  -9   32.30    4.60
  -1 -10  -9   48.40    7.00
  -1 -10  -9   46.90    7.90
  -1 -10  -9   64.19   17.30
   1  10   9   38.60    8.40
   1  10   9   45.50   13.70
   1  10   9   55.39    7.90
  -2 -10  -9   14.00    3.80
  -2 -10  -9   19.20    6.80
  -2 -10  -9   24.60   14.80
  -2 -10  -9    7.10    3.50
   2  10   9   17.90    8.60
   2  10   9    5.20    6.10
   2  10   9    1.50    8.50
   2  10   9    6.00    4.90
  -3 -10  -9   -9.50   11.70
  -3 -10  -9    1.20    8.00
  -3 -10  -9   -3.00    4.50
   3  10   9   -9.00    7.00
   3  10   9    1.80    5.80
   3  10   9    1.40    7.40
  -4 -10  -9  -10.40   13.00
  -4 -10  -9    1.20    8.90
  -4 -10  -9   -4.40    7.70
  -4 -10  -9  -10.90    5.20
   4  10   9    3.10    9.30
   4  10   9   14.90   10.20
   4  10   9   -2.50    5.90
   4  10   9   -6.80    6.90
  -5 -10  -9   -4.30    8.90
  -5 -10  -9   26.60   11.10
  -5 -10  -9   12.60   14.80
   5  10   9   -9.20   10.00
   5  10   9  -14.30   12.80
   5  10   9    0.90    7.80
   5  10   9    1.10    9.80
   5  10   9    4.80    8.40
  -1 -11  -9   18.00    7.70
  -1 -11  -9   -6.90    3.80
  -1 -11  -9   -5.70    7.40
  -1 -11  -9   -1.90   14.60
   1  11   9  -11.20    9.40
   1  11   9    2.80    5.50
   1  11   9   -0.30    8.00
  -2 -11  -9    4.90   13.60
  -2 -11  -9    6.20    3.90
  -2 -11  -9   -3.30    7.20
   2  11   9   -5.00    8.20
   2  11   9    5.40    6.20
   2  11   9  -10.60    9.80
  -3 -11  -9    6.60   12.80
  -3 -11  -9    1.20    8.10
  -3 -11  -9   -4.50    4.90
   3  11   9   -9.80    8.60
   3  11   9   -4.00    6.00
   3  11   9    3.50    7.50
  -4 -11  -9    9.60    9.30
  -4 -11  -9  -10.30    5.40
  -4 -11  -9    6.60   14.60
  -4 -11  -9    3.20    9.80
   4  11   9    3.80    7.10
   4  11   9    3.70   11.20
   4  11   9  -12.30    7.70
   4  11   9   11.90   10.40
   1   6 -10    4.00    8.40
   1   6 -10   -4.30    8.40
  -1  -6  10   -9.50    9.80
  -1  -6  10    5.40    9.10
  -1  -6  10    9.50    8.00
   0   6 -10    8.10    7.00
   0   6 -10   -6.60    7.90
   0   6 -10  -13.10    6.10
   0  -6  10   -3.20    9.70
   0  -6  10   -5.40    9.90
   0  -6  10   -1.50    7.70
   0  -6  10    1.10    8.80
  -1   6 -10   31.50    7.50
  -1   6 -10   41.80    9.30
  -1   6 -10   22.00    9.00
   1  -6  10   26.00   10.00
   1  -6  10   38.20    7.10
   1  -6  10   35.10   11.00
   1  -6  10   32.00   11.80
  -2   6 -10   11.20    8.80
  -2   6 -10   11.80    6.50
  -2   6 -10   -4.00    8.00
   2  -6  10    3.50   10.10
   2  -6  10    6.00   10.90
   2  -6  10   -1.50   10.30
   2   5 -10   -2.10    7.10
   2   5 -10    2.30    7.90
   2   5 -10   -2.80    5.10
   2   5 -10   -2.40    7.60
  -2  -5  10   -2.10   10.80
  -2  -5  10   -6.90    9.70
  -2  -5  10   10.20    9.50
  -2  -5  10   16.10    5.90
   1   5 -10   -4.00    5.50
   1   5 -10   -3.90    6.80
   1   5 -10   -5.40    7.40
  -1  -5  10   -3.60    8.50
  -1  -5  10    1.00    7.90
  -1  -5  10   -6.20    5.80
  -1  -5  10    5.90    6.40
  -1  -5  10   -5.60    9.20
   0   5 -10   39.10    6.90
   0   5 -10   25.60    8.30
   0   5 -10   44.00    8.70
   0  -5  10   42.20   10.20
   0  -5  10   41.80    8.00
   0  -5  10   43.80    9.00
   0  -5  10   47.80   11.90
  -1   5 -10  116.59   15.80
  -1   5 -10  129.59   15.20
   1  -5  10  149.39   18.90
   1  -5  10  135.69   14.90
   1  -5  10  114.69   17.90
   1  -5  10  113.69   10.50
  -2   5 -10   -5.10    8.80
  -2   5 -10    8.20    7.50
  -2   5 -10   15.60    7.60
   2  -5  10    7.20    9.20
   2  -5  10    0.20    8.20
   2  -5  10   20.90    8.00
   2  -5  10   13.20    9.20
  -3   5 -10   50.49   10.50
  -3   5 -10   47.40   11.10
   3  -5  10   83.99   13.90
   3  -5  10   61.99   12.70
   3  -5  10   76.09    7.80
   3  -5  10   57.49    8.10
   3  -5  10   40.40    9.80
   2   4 -10    8.60    4.50
   2   4 -10    9.70    9.00
   2   4 -10    9.70    8.70
   2   4 -10    8.70    7.90
  -2  -4  10    0.80    5.70
  -2  -4  10   14.30   10.20
  -2  -4  10   11.00    8.40
  -2  -4  10    9.50    5.00
  -2  -4  10    5.90    9.10
   1   4 -10   16.90    5.30
   1   4 -10   21.50    7.70
  -1  -4  10   21.40    8.10
  -1  -4  10   30.00    8.70
  -1  -4  10   12.30   10.10
  -1  -4  10   27.60   10.80
   0   4 -10   25.70    6.80
   0   4 -10   29.00    8.60
   0   4 -10   29.40    5.60
   0  -4  10   25.60    8.20
   0  -4  10   35.20    7.70
   0  -4  10   25.50    7.20
   0  -4  10   45.20   11.50
  -1   4 -10   99.49   13.30
  -1   4 -10   81.59   10.80
   1  -4  10   68.59   10.50
   1  -4  10   65.69   10.50
   1  -4  10   75.49    8.20
   1  -4  10   97.59   14.10
   1  -4  10   74.09   13.30
  -2   4 -10  201.58   18.70
  -2   4 -10  203.88   17.80
  -2   4 -10  257.77   17.00
   2  -4  10  250.07   19.50
   2  -4  10  237.08   17.80
   2  -4  10  240.28   21.30
  -3   4 -10   32.10    7.60
  -3   4 -10    7.00    9.00
  -3   4 -10   14.70    8.20
   3  -4  10   35.60    8.70
   3  -4  10   19.90    5.00
   3  -4  10   34.70    9.60
   3  -4  10    7.50    9.40
   3  -4  10   31.70    6.20
   3  -4  10   28.10   10.00
  -4   4 -10   14.70    8.30
  -4   4 -10   27.00    9.10
  -4   4 -10   27.60    9.70
  -4   4 -10   24.20   10.40
   4  -4  10   38.10   11.10
   4  -4  10   36.00   11.30
   4  -4  10   33.90    8.60
   4  -4  10   31.80   10.70
   3   3 -10  202.08   17.30
   3   3 -10  190.48   11.80
  -3  -3  10  226.58   19.20
  -3  -3  10  201.08   11.10
   2   3 -10    2.80    3.40
   2   3 -10    0.50    6.00
   2   3 -10   -6.20    6.80
   2   3 -10   13.10    9.00
  -2  -3  10   10.70    4.80
  -2  -3  10    0.50    7.60
  -2  -3  10   -2.60    8.30
  -2  -3  10   -2.50    2.40
  -2  -3  10    4.50    9.10
   1   3 -10    6.30    3.70
   1   3 -10   -5.30    5.20
   1   3 -10   -8.70    5.20
   1   3 -10   -4.50    4.80
  -1  -3  10   -9.00    4.50
  -1  -3  10   -1.30    9.90
  -1  -3  10   -4.60    5.60
  -1  -3  10    6.30    7.30
  -1  -3  10    0.60    4.60
   0   3 -10    3.10    6.10
   0   3 -10    1.40    5.40
   0   3 -10   -1.10    3.70
   0  -3  10   -3.90    7.50
   0  -3  10    9.70    6.50
   0  -3  10    7.80    6.40
   0  -3  10    9.00    5.90
   0  -3  10   10.60    5.50
  -1   3 -10   -2.10    5.20
  -1   3 -10    6.70    4.00
  -1   3 -10    3.10    6.40
  -1   3 -10   -3.20    5.20
   1  -3  10    5.90    5.60
   1  -3  10   -0.90    3.60
   1  -3  10   -1.20    6.40
   1  -3  10   -4.90    6.30
   1  -3  10   -6.40    7.30
  -2   3 -10    9.10    5.60
  -2   3 -10    6.90    6.20
  -2   3 -10    6.10    7.80
   2  -3  10    9.20    9.10
   2  -3  10    4.30    6.80
   2  -3  10   17.60    8.10
  -3   3 -10    4.90    8.90
  -3   3 -10    3.60    6.50
  -3   3 -10    5.50    6.10
   3  -3  10  -15.90    8.20
   3  -3  10   12.50    7.30
   3  -3  10   -4.60    6.10
   3  -3  10   -2.40    3.60
   3  -3  10    0.00    7.50
  -4   3 -10   19.40    9.10
  -4   3 -10   29.40    8.20
  -4   3 -10   28.30    8.70
   4  -3  10   24.00    8.40
   4  -3  10   10.70    7.30
   4  -3  10   42.20    9.00
   4  -3  10   25.70    7.90
   4  -3  10   28.60    9.50
  -5   3 -10   22.10    9.70
  -5   3 -10    2.10    8.40
  -5   3 -10   14.00   10.00
  -5   3 -10    4.80    4.20
   5  -3  10    9.30   13.10
   5  -3  10    0.20    9.30
   3   2 -10    8.90    6.40
   3   2 -10   -9.30    7.30
   3   2 -10   -1.90    7.40
   3   2 -10   27.10    8.70
   3   2 -10   16.20    4.40
  -3  -2  10   10.00    4.00
  -3  -2  10    2.40    3.90
  -3  -2  10    8.90    9.40
   2   2 -10   14.50    6.30
   2   2 -10   20.30    9.60
   2   2 -10   19.60    3.80
   2   2 -10    3.10   10.20
  -2  -2  10   17.50    4.30
  -2  -2  10   14.30    3.70
  -2  -2  10   14.20   10.50
  -2  -2  10   23.90    9.30
   1   2 -10   -6.80    4.60
   1   2 -10   -5.80    4.80
  -1  -2  10   -2.10    4.70
  -1  -2  10  -16.60    7.80
  -1  -2  10   -3.10    3.60
  -1  -2  10   -2.50    4.20
  -1  -2  10    6.40    6.10
   0   2 -10   -2.40    4.60
   0   2 -10   -3.40    5.60
   0   2 -10   -2.00    3.10
   0  -2  10   -5.20    5.10
   0  -2  10   -0.50    4.90
   0  -2  10    3.30    4.40
   0  -2  10    0.50    5.50
   0  -2  10    6.70    8.50
  -1   2 -10  134.79   12.70
  -1   2 -10  172.18   10.90
  -1   2 -10  179.48   14.60
  -1   2 -10  165.18   12.30
   1  -2  10  154.18   13.20
   1  -2  10  176.28   14.50
   1  -2  10  144.89   17.00
   1  -2  10  180.88   12.80
  -2   2 -10  454.25   21.80
  -2   2 -10  437.66   20.90
  -2   2 -10  424.76   21.40
  -2   2 -10  475.65   24.50
   2  -2  10  482.25   25.20
   2  -2  10  451.85   23.80
   2  -2  10  455.85   22.20
   2  -2  10  428.06   22.30
   2  -2  10  471.35   26.00
  -3   2 -10   13.20    6.60
  -3   2 -10   18.80    5.90
  -3   2 -10    9.40    8.70
  -3   2 -10   17.50    5.90
   3  -2  10   17.70    6.90
   3  -2  10    8.60    6.70
   3  -2  10   27.40    9.40
   3  -2  10    7.30    3.80
  -4   2 -10   67.19    6.10
  -4   2 -10   53.19   10.00
  -4   2 -10   98.89   13.70
  -4   2 -10   57.99   11.90
   4  -2  10   58.39   10.50
   4  -2  10   69.79    9.80
   4  -2  10   65.79   11.80
   4  -2  10   67.69   11.90
   4  -2  10   65.59   10.70
   4  -2  10   66.49   10.60
  -5   2 -10   22.80    8.40
  -5   2 -10   11.60    7.60
  -5   2 -10   24.60    9.20
  -5   2 -10   14.10    4.80
   5  -2  10   22.30    9.80
   5  -2  10   15.60    9.20
   5  -2  10    3.40    9.00
   5  -2  10    6.30    9.10
   3   1 -10  153.38   13.70
   3   1 -10  156.08   18.70
   3   1 -10  155.08   16.40
   3   1 -10  170.08   12.00
   3   1 -10  192.38   15.80
   3   1 -10  168.18   15.70
   3   1 -10  145.09    8.60
  -3  -1  10  162.18   11.10
  -3  -1  10  143.09   10.80
  -3  -1  10  173.08   18.10
  -3  -1  10  178.28    9.20
   2   1 -10    7.20    5.70
   2   1 -10    9.90    2.60
   2   1 -10   14.80    8.90
   2   1 -10    9.60    9.00
   2   1 -10   17.40    4.10
   2   1 -10   14.40    4.50
  -2  -1  10   14.90    7.90
  -2  -1  10   13.20    3.90
  -2  -1  10   15.60    3.50
   1   1 -10   -2.80    4.10
   1   1 -10   -2.60    6.90
   1   1 -10   -6.20    4.50
  -1  -1  10   -3.40    3.90
  -1  -1  10   -8.80    8.30
  -1  -1  10    0.50    6.30
   0   1 -10    1.40    5.60
   0   1 -10   -3.10    2.50
   0   1 -10    1.80    4.00
   0  -1  10    0.80    2.80
   0  -1  10    0.10    4.90
   0  -1  10   -9.50    7.50
   0  -1  10    0.10    4.40
  -1   1 -10   73.79    7.00
  -1   1 -10   74.89   11.20
  -1   1 -10   69.19    9.90
  -1   1 -10   78.29    8.70
   1  -1  10   65.79    8.70
   1  -1  10   50.59   10.60
   1  -1  10   58.89    8.90
   1  -1  10   70.79    9.80
  -2   1 -10  247.68   14.60
  -2   1 -10  259.77   18.40
  -2   1 -10  254.67   15.60
  -2   1 -10  266.07   15.20
   2  -1  10  263.97   18.60
   2  -1  10  261.27   18.20
   2  -1  10  277.37   15.60
   2  -1  10  282.67   15.90
   2  -1  10  251.57   17.60
  -3   1 -10  563.24   21.10
  -3   1 -10  620.14   29.70
  -3   1 -10  608.54   26.70
  -3   1 -10  598.14   26.50
  -3   1 -10  630.54   27.10
   3  -1  10  616.24   28.00
   3  -1  10  573.14   23.50
   3  -1  10  645.64   27.00
   3  -1  10  593.24   28.80
   3  -1  10  564.14   27.60
   3  -1  10  624.64   30.40
  -4   1 -10   11.60    3.70
  -4   1 -10   -1.10    6.70
  -4   1 -10  -13.20    6.10
  -4   1 -10   11.50    6.30
  -4   1 -10   -6.60    6.30
   4  -1  10   -4.80    5.70
   4  -1  10    3.20    6.30
   4  -1  10    3.40    6.90
   4  -1  10   -7.30    7.20
  -5   1 -10   -8.20    7.70
  -5   1 -10    7.90    4.60
  -5   1 -10    1.50    7.40
  -5   1 -10    1.40    5.90
   5  -1  10    2.60    8.40
   5  -1  10   17.80   10.70
   5  -1  10  -10.00    6.80
   5  -1  10   24.00   12.30
  -6   1 -10   20.40    5.90
  -6   1 -10    5.30   10.10
  -6   1 -10   11.80    8.90
  -6   1 -10   21.50   10.70
  -6   1 -10   23.00    9.20
   6  -1  10   22.00   10.60
   6  -1  10   39.10   13.40
   6  -1  10    5.00    7.50
   3   0 -10   24.50    5.70
   3   0 -10   31.60   10.40
   3   0 -10   32.40    8.10
   3   0 -10   25.40    5.90
   3   0 -10   31.20   10.60
  -3   0  10   36.40    5.90
  -3   0  10   28.70   13.40
   2   0 -10  140.39   15.80
   2   0 -10  115.29   10.60
   2   0 -10  138.79   14.60
   2   0 -10  124.49   16.10
   2   0 -10  128.29   13.90
   2   0 -10  133.69    9.60
   2   0 -10  119.89   10.10
  -2   0  10  138.69   15.00
  -2   0  10  135.89    9.20
   1   0 -10   32.90    5.00
   1   0 -10   32.80    8.90
   1   0 -10   32.80    6.50
   1   0 -10   27.60    3.50
   1   0 -10   21.00    8.90
   1   0 -10   40.60    7.80
  -1   0  10   38.50    5.10
  -1   0  10   28.50    3.10
  -1   0  10   45.30    8.10
  -1   0  10   47.40    9.60
  -1   0  10   21.10    3.40
   0   0 -10   50.29    4.70
   0   0 -10   43.40    7.70
   0   0 -10   30.00    8.10
   0   0 -10   59.59    6.80
   0   0  10   38.40    4.90
   0   0  10   48.70   10.00
   0   0  10   55.09    5.60
  -1   0 -10   -5.00    5.60
  -1   0 -10    0.90    2.50
  -1   0 -10    3.40    3.50
   1   0  10  -10.40    6.40
   1   0  10    4.50    3.60
   1   0  10    0.00    2.60
  -2   0 -10    0.30    6.50
  -2   0 -10   -0.60    3.30
  -2   0 -10    8.50    5.10
  -2   0 -10    9.30    4.60
   2   0  10   -6.50    6.10
   2   0  10    4.80    4.70
   2   0  10    1.50    7.10
   2   0  10    3.40    4.50
  -3   0 -10   36.70    9.00
  -3   0 -10   20.10    6.20
   3   0  10   25.20    6.60
   3   0  10   15.90    6.20
   3   0  10   23.00    6.80
   3   0  10   33.40    8.10
   3   0  10   24.20    6.70
   3   0  10   36.70    6.90
  -4   0 -10    0.50    6.00
  -4   0 -10  -12.10    7.50
  -4   0 -10    4.10    8.20
  -4   0 -10    4.40    5.60
   4   0  10   -7.50    6.50
   4   0  10    1.60    5.60
   4   0  10   10.90    7.00
   4   0  10    8.40    7.20
   4   0  10   -2.00    6.60
  -5   0 -10   -3.70    6.70
  -5   0 -10   11.60    7.80
  -5   0 -10    7.50    4.50
  -5   0 -10    5.30   10.30
  -5   0 -10    8.60    7.60
   5   0  10   -1.80    8.10
   5   0  10    2.90    6.90
   5   0  10   11.70    9.10
   5   0  10    6.40    9.10
  -6   0 -10   16.20    7.90
  -6   0 -10   11.70    7.40
  -6   0 -10   -6.90    7.90
  -6   0 -10    0.50    5.40
  -6   0 -10   10.70    8.30
  -6   0 -10   25.50    9.20
   6   0  10   13.70   11.90
   6   0  10    4.00    9.80
   6   0  10   34.80   10.10
   6   0  10    2.30    7.70
   6   0  10   -9.80    9.10
   3  -1 -10   16.20    7.20
   3  -1 -10   -0.10    1.30
   3  -1 -10    0.10    6.60
   3  -1 -10  -10.40    9.40
   3  -1 -10    8.30    8.70
   3  -1 -10    3.50    1.90
   3  -1 -10    0.90    3.60
  -3   1  10   -3.00    3.80
   2  -1 -10   48.00   10.30
   2  -1 -10   43.00    9.00
   2  -1 -10   35.90    5.80
   2  -1 -10   34.50    7.90
   2  -1 -10   46.20    8.80
  -2   1  10   34.90    9.00
  -2   1  10   38.80    6.50
   1  -1 -10   75.49    5.70
   1  -1 -10  102.99   11.60
   1  -1 -10   93.69    9.60
   1  -1 -10   73.89   12.30
   1  -1 -10   92.49   13.00
   1  -1 -10   65.89   10.80
   1  -1 -10   96.49   12.30
   1  -1 -10   92.39   11.30
   1  -1 -10   68.29    5.20
  -1   1  10  101.49   15.10
  -1   1  10  105.39    7.50
   0  -1 -10   79.99    6.10
   0  -1 -10  100.99    9.30
   0  -1 -10   73.19   10.30
   0  -1 -10   75.39    7.70
   0  -1 -10   92.39   11.70
   0  -1 -10   60.89    8.70
   0  -1 -10   96.49   10.20
   0  -1 -10   78.19    7.60
   0   1  10   81.29   11.80
   0   1  10   73.49    3.80
   0   1  10   67.09    3.90
   0   1  10   73.79    5.90
  -1  -1 -10   12.30    6.40
  -1  -1 -10   14.80    3.40
  -1  -1 -10   15.00    4.80
  -1  -1 -10   16.80    4.10
  -1  -1 -10   19.20    7.40
  -1  -1 -10   15.80    5.20
   1   1  10    4.40    6.30
   1   1  10    4.50    7.10
   1   1  10   15.90    3.50
  -2  -1 -10   24.30    5.40
  -2  -1 -10   29.30    8.30
  -2  -1 -10   19.00    3.40
  -2  -1 -10   28.60    4.90
  -2  -1 -10   30.20    7.80
   2   1  10   23.60    8.70
   2   1  10   15.20    7.20
   2   1  10   19.50    7.80
   2   1  10    7.00    6.80
  -3  -1 -10 1029.10   38.80
  -3  -1 -10 1042.90   39.70
  -3  -1 -10 1059.69   43.10
  -3  -1 -10  986.10   41.20
   3   1  10  990.80   40.30
   3   1  10 1026.10   38.50
   3   1  10 1036.60   42.50
   3   1  10 1051.89   40.90
   3   1  10 1033.70   38.20
   3   1  10  992.70   39.50
  -4  -1 -10  673.23   29.50
  -4  -1 -10  637.64   31.20
  -4  -1 -10  697.33   33.50
  -4  -1 -10  721.63   30.30
  -4  -1 -10  652.23   30.30
   4   1  10  721.83   30.10
   4   1  10  687.13   30.70
   4   1  10  705.23   31.60
   4   1  10  700.53   30.10
   4   1  10  664.23   41.90
   4   1  10  672.83   29.40
  -5  -1 -10   55.99    9.00
  -5  -1 -10   64.79   11.90
  -5  -1 -10   54.69   10.30
  -5  -1 -10   53.99    9.30
  -5  -1 -10   60.79   10.60
   5   1  10   48.60    9.50
   5   1  10   50.49    9.50
   5   1  10   59.19   10.40
  -6  -1 -10   -3.40    8.40
  -6  -1 -10    7.00    8.40
  -6  -1 -10    7.80    8.50
  -6  -1 -10   15.40    7.80
  -6  -1 -10    0.10    8.20
   6   1  10   -9.60    8.30
   6   1  10   17.80   11.60
   6   1  10   -4.50    6.50
   6   1  10    4.40    8.60
   6   1  10    9.70    8.30
  -7  -1 -10   -2.20    6.30
  -7  -1 -10    1.10    8.90
  -7  -1 -10   -2.20    9.50
  -7  -1 -10   23.60   11.80
  -7  -1 -10   17.80    8.60
   7   1  10   19.30   15.70
   7   1  10    8.50   10.80
   7   1  10   19.60    8.50
   3  -2 -10   -1.90    6.40
   3  -2 -10    7.30    9.10
   3  -2 -10   -1.70    3.40
   3  -2 -10   -6.70    7.30
   3  -2 -10   -4.10    6.30
   3  -2 -10   -0.70    9.30
  -3   2  10   -2.70    4.30
   2  -2 -10  122.79   15.10
   2  -2 -10  151.88   13.90
   2  -2 -10  137.59   11.60
   2  -2 -10  150.78   13.50
   2  -2 -10  133.79   13.40
   2  -2 -10  150.98   14.80
   2  -2 -10  161.08   15.50
  -2   2  10  117.79    9.70
   1  -2 -10  365.46   20.10
   1  -2 -10  346.47   19.10
   1  -2 -10  346.07   20.60
   1  -2 -10  375.06   21.80
   1  -2 -10  371.26   20.70
   1  -2 -10  351.06   19.30
   1  -2 -10  361.86   19.30
  -1   2  10  382.26   16.70
   0  -2 -10    2.10    5.40
   0  -2 -10    7.50    1.60
   0  -2 -10    1.80    5.60
   0  -2 -10    5.40    1.30
   0  -2 -10    8.80    6.00
   0  -2 -10    5.90    4.80
   0  -2 -10    1.50    7.10
   0   2  10    6.90    3.70
   0   2  10   -1.10    6.80
  -1  -2 -10    1.60    5.40
  -1  -2 -10   12.40    6.30
  -1  -2 -10    1.90    4.20
  -1  -2 -10   11.90    3.90
  -1  -2 -10   12.80    3.00
  -1  -2 -10   13.80    2.90
  -1  -2 -10    3.90    5.50
   1   2  10   16.30    7.40
   1   2  10   11.10    2.20
   1   2  10   10.70    2.00
   1   2  10    2.10    6.30
  -2  -2 -10   37.70    7.80
  -2  -2 -10   30.10    7.50
  -2  -2 -10   29.10    8.00
  -2  -2 -10   23.70    4.00
  -2  -2 -10   32.40    4.70
  -2  -2 -10   25.90    4.60
  -2  -2 -10   31.30    5.40
   2   2  10   31.90    5.10
   2   2  10   16.90    7.00
   2   2  10   24.50    4.20
   2   2  10   13.40    7.30
  -3  -2 -10   54.79    4.80
  -3  -2 -10   69.59    9.10
  -3  -2 -10   76.89   10.40
  -3  -2 -10   68.39    9.90
  -3  -2 -10   66.09   11.10
   3   2  10   84.29   10.30
   3   2  10   43.00    8.60
   3   2  10   54.09    9.40
   3   2  10   57.79    8.90
   3   2  10   60.99    9.10
   3   2  10   67.89    9.60
  -4  -2 -10  486.65   26.20
  -4  -2 -10  571.64   27.00
  -4  -2 -10  584.24   25.40
  -4  -2 -10  574.34   30.20
  -4  -2 -10  572.94   26.50
   4   2  10  576.84   25.90
   4   2  10  591.84   26.60
   4   2  10  584.74   27.80
   4   2  10  557.44   27.00
   4   2  10  587.44   26.40
  -5  -2 -10  162.88   16.90
  -5  -2 -10  124.69   13.80
  -5  -2 -10  135.19   18.50
  -5  -2 -10  143.49   13.50
  -5  -2 -10  131.99   14.60
   5   2  10  137.59   16.90
   5   2  10  141.29   12.70
   5   2  10  168.18   16.70
   5   2  10  128.09   13.60
  -6  -2 -10   32.00    8.90
  -6  -2 -10   28.70    9.30
  -6  -2 -10   36.90    8.30
  -6  -2 -10   23.00    8.20
  -6  -2 -10   19.50   10.70
   6   2  10   15.10    7.70
   6   2  10   31.90    9.80
   6   2  10   29.50   11.80
   6   2  10   35.00   10.00
   6   2  10   31.60    8.60
  -7  -2 -10   17.30   10.80
  -7  -2 -10   13.50    7.50
  -7  -2 -10   12.90    9.60
  -7  -2 -10   20.00   11.30
  -7  -2 -10   10.90    8.40
   7   2  10    5.50    7.90
   7   2  10   20.10   11.00
   3  -3 -10   23.90    6.90
   3  -3 -10   28.50    8.00
   3  -3 -10   26.00    5.40
   3  -3 -10   13.90   10.10
   3  -3 -10   15.10    6.70
   3  -3 -10   20.80    8.60
  -3   3  10   20.70    5.90
   2  -3 -10   16.10    6.90
   2  -3 -10   24.70    7.90
   2  -3 -10   17.50    9.10
   2  -3 -10   10.10    8.00
   2  -3 -10   19.00    8.10
   2  -3 -10   11.50    5.70
   2  -3 -10    2.60    5.80
  -2   3  10   12.80    5.20
   1  -3 -10  170.58   13.70
   1  -3 -10  158.58   13.90
   1  -3 -10  150.88   14.50
   1  -3 -10  156.48   12.90
   1  -3 -10  137.89   14.50
   1  -3 -10  145.99   14.20
   1  -3 -10  168.28   15.00
  -1   3  10  147.99   10.90
   0  -3 -10   34.50    8.60
   0  -3 -10   28.30    6.70
   0  -3 -10   34.90    7.00
   0  -3 -10   29.00    7.30
   0  -3 -10   38.30    8.20
   0  -3 -10   12.30    6.70
   0   3  10   24.00    5.40
  -1  -3 -10   88.99   11.90
  -1  -3 -10  119.79   12.20
  -1  -3 -10   79.49   11.30
  -1  -3 -10   78.49    9.60
  -1  -3 -10   81.19    9.60
  -1  -3 -10   90.59    8.90
  -1  -3 -10   93.89    5.30
   1   3  10   68.09   11.40
   1   3  10   77.09   10.30
  -2  -3 -10   14.00    3.70
  -2  -3 -10   19.20    3.60
  -2  -3 -10   12.30    3.70
  -2  -3 -10   16.60    7.60
  -2  -3 -10   23.30    5.20
  -2  -3 -10   17.10    5.50
  -2  -3 -10   15.00    7.20
   2   3  10   13.10    6.60
   2   3  10   16.60    3.70
   2   3  10    6.90    6.10
  -3  -3 -10   13.10    5.50
  -3  -3 -10   24.60    8.00
  -3  -3 -10   15.00    3.20
  -3  -3 -10   15.40    8.10
  -3  -3 -10   21.00    4.70
  -3  -3 -10   16.70    9.10
   3   3  10    6.50    6.30
   3   3  10   16.90    5.20
   3   3  10   10.30    6.40
   3   3  10   12.10    6.60
   3   3  10   13.50    5.10
  -4  -3 -10   21.40    8.00
  -4  -3 -10   20.30    7.80
  -4  -3 -10   25.70    5.60
  -4  -3 -10   31.60    9.30
   4   3  10   18.00    6.70
   4   3  10   10.50    6.70
  -5  -3 -10   86.19   13.20
  -5  -3 -10  131.29   12.10
  -5  -3 -10  115.89   16.60
  -5  -3 -10   82.29   13.90
  -5  -3 -10  103.89   13.90
   5   3  10  113.59   11.30
   5   3  10  124.99   12.10
   5   3  10  140.19   15.70
   5   3  10  121.89   16.30
  -6  -3 -10   -1.00    7.90
  -6  -3 -10  -11.10    6.70
  -6  -3 -10   -0.20   10.00
  -6  -3 -10   13.10    7.60
  -6  -3 -10    0.30    3.50
  -6  -3 -10    8.10    7.20
   6   3  10  -11.00    5.90
   6   3  10   11.50    8.80
   6   3  10   14.70   11.30
   6   3  10    3.40    9.10
   6   3  10   -7.20    6.40
   6   3  10    4.80    8.50
  -7  -3 -10  -11.80    9.10
  -7  -3 -10   17.10    9.90
  -7  -3 -10   20.80    9.00
  -7  -3 -10    6.40    8.80
  -7  -3 -10   14.70    7.60
  -7  -3 -10   -1.40    3.90
   7   3  10  -11.20    6.60
   7   3  10   -4.20   10.20
   7   3  10   12.20   14.30
   3  -4 -10   19.60    6.40
   3  -4 -10   27.90   10.40
   3  -4 -10   13.20    5.80
   3  -4 -10    2.10    9.70
   3  -4 -10   -0.80    9.90
   3  -4 -10    9.20    6.30
   3  -4 -10   11.10    7.90
  -3   4  10   12.40    5.40
   2  -4 -10   39.30   10.80
   2  -4 -10   47.00   10.10
   2  -4 -10   42.20    7.90
   2  -4 -10   40.60    7.10
   2  -4 -10   40.20    8.50
   2  -4 -10   33.00    7.50
   2  -4 -10   52.19   10.20
  -2   4  10   32.70    6.90
   1  -4 -10   19.00    7.10
   1  -4 -10    8.60    6.50
   1  -4 -10   27.70    7.20
   1  -4 -10   13.30    7.20
   1  -4 -10   29.50    9.50
   1  -4 -10   14.10    7.10
   1  -4 -10   33.00    6.20
  -1   4  10   23.60    5.40
   0  -4 -10  240.08   18.30
   0  -4 -10  271.07   15.50
   0  -4 -10  242.08   14.70
   0  -4 -10  262.97   16.70
   0  -4 -10  277.87   17.20
   0  -4 -10  284.57   17.80
   0  -4 -10  264.77   17.70
   0   4  10  250.27   14.20
  -1  -4 -10   36.40    7.70
  -1  -4 -10   20.00    7.50
  -1  -4 -10   36.50    3.00
  -1  -4 -10   24.50    9.60
  -1  -4 -10   36.80    3.30
  -1  -4 -10   52.69    8.30
  -1  -4 -10   20.10    6.20
  -1  -4 -10   27.20    5.90
   1   4  10   26.40    7.90
  -2  -4 -10    2.10    2.50
  -2  -4 -10    0.10    3.20
  -2  -4 -10   -3.30    4.00
  -2  -4 -10    8.30    6.00
  -2  -4 -10   -4.00    6.00
  -2  -4 -10   -6.00    7.70
  -2  -4 -10   -2.60    3.20
   2   4  10   -8.40    4.90
   2   4  10    0.00    1.70
   2   4  10    0.80    2.50
   2   4  10  -10.00    5.20
  -3  -4 -10   96.99    7.40
  -3  -4 -10  111.29   10.80
  -3  -4 -10  102.09   12.40
   3   4  10   79.39   10.70
   3   4  10   68.89   11.20
  -4  -4 -10  737.63   31.20
  -4  -4 -10  643.84   35.80
  -4  -4 -10  718.33   33.80
  -4  -4 -10  671.83   29.30
  -4  -4 -10  718.63   35.90
  -4  -4 -10  650.63   31.10
   4   4  10  708.63   27.70
   4   4  10  684.83   29.70
   4   4  10  674.63   33.40
   4   4  10  655.73   29.20
   4   4  10  712.53   29.90
  -5  -4 -10  929.11   39.50
  -5  -4 -10  911.51   41.70
  -5  -4 -10  896.21   44.20
  -5  -4 -10  858.81   37.40
  -5  -4 -10  879.51   35.60
  -5  -4 -10  840.62   37.60
   5   4  10  918.71   38.70
   5   4  10  924.61   42.20
   5   4  10  832.22   33.40
   5   4  10  929.11   37.00
  -6  -4 -10   21.40    8.90
  -6  -4 -10   17.90    7.50
  -6  -4 -10    7.60    9.00
  -6  -4 -10   10.00    7.20
  -6  -4 -10   21.90    7.20
   6   4  10    3.90    5.80
   6   4  10   17.40    6.20
   6   4  10   12.80    9.00
   6   4  10   30.60   12.30
   6   4  10   26.80    8.70
  -7  -4 -10   -4.90    7.60
  -7  -4 -10   14.10    6.10
  -7  -4 -10    4.40    9.90
  -7  -4 -10   23.80    9.10
  -7  -4 -10   31.40   11.20
  -7  -4 -10   22.50    9.30
   7   4  10   10.90   10.90
   7   4  10   37.20   15.90
   7   4  10    6.30    7.40
   7   4  10    5.40    6.30
   3  -5 -10    8.90    7.80
   3  -5 -10   -4.90    6.70
   3  -5 -10   -0.50    6.20
   3  -5 -10    4.40   10.00
   3  -5 -10   -5.80    5.60
   3  -5 -10  -10.20   11.90
  -3   5  10   -5.70    4.70
   2  -5 -10   21.20    9.10
   2  -5 -10   11.80    5.40
   2  -5 -10    7.70    6.90
   2  -5 -10   18.00    7.40
   2  -5 -10   13.40   10.40
   2  -5 -10   20.70    9.40
   2  -5 -10   -1.60    6.00
  -2   5  10    9.50    5.10
   1  -5 -10    2.20    7.00
   1  -5 -10    7.80    7.10
   1  -5 -10   13.60    5.30
   1  -5 -10   15.30    6.00
   1  -5 -10   11.40    7.00
   1  -5 -10    6.40    9.30
   1  -5 -10    7.90    6.60
  -1   5  10    5.40    4.70
   0  -5 -10   80.69   13.40
   0  -5 -10  122.49   14.70
   0  -5 -10   87.49   12.00
   0  -5 -10   94.89   10.30
   0  -5 -10   79.89   10.10
   0  -5 -10   76.59   12.00
   0  -5 -10   85.09   11.60
   0   5  10   89.09    9.20
  -1  -5 -10  116.59   12.80
  -1  -5 -10  105.89   12.70
  -1  -5 -10  105.19   10.40
  -1  -5 -10  107.09   13.70
  -1  -5 -10  120.09    4.60
  -1  -5 -10  110.09    9.80
  -1  -5 -10   81.49   14.90
  -1  -5 -10  117.69    4.70
   1   5  10   86.29    9.30
   1   5  10  122.49   12.70
  -2  -5 -10    0.00    2.10
  -2  -5 -10    2.40    6.60
  -2  -5 -10   -4.80    3.50
  -2  -5 -10   -1.70    3.20
  -2  -5 -10   -8.60    4.10
  -2  -5 -10   -0.50    3.30
   2   5  10   -2.80    2.00
   2   5  10   -7.00    4.60
   2   5  10   -1.00    1.70
  -3  -5 -10   72.29   13.70
  -3  -5 -10   47.50    7.10
  -3  -5 -10   69.29    7.70
  -3  -5 -10   69.29   10.40
  -3  -5 -10   57.89    9.90
  -3  -5 -10   64.39   11.10
   3   5  10   84.99   13.30
   3   5  10   81.29   12.10
   3   5  10   65.89   10.10
   3   5  10   64.79    9.20
  -4  -5 -10   14.80    7.70
  -4  -5 -10   24.50    7.60
   4   5  10   26.50    7.70
   4   5  10   15.50    5.00
   4   5  10   25.40    9.90
   4   5  10   14.90    7.30
  -5  -5 -10   20.10    7.10
  -5  -5 -10   25.20    9.00
  -5  -5 -10   32.50    9.90
  -5  -5 -10   33.60   10.90
   5   5  10   30.70    9.40
   5   5  10   15.50   10.40
  -6  -5 -10   22.50   11.40
  -6  -5 -10   23.20    9.60
  -6  -5 -10   22.60    9.40
  -6  -5 -10   36.60   16.60
  -6  -5 -10   16.70    7.30
  -6  -5 -10   38.20    7.30
   6   5  10   25.30    9.80
   6   5  10   17.50    7.40
   6   5  10   17.10    4.70
   6   5  10   14.70    8.10
  -7  -5 -10   48.60   11.50
  -7  -5 -10   39.20    8.60
  -7  -5 -10    8.00    9.80
  -7  -5 -10   25.20   11.00
   7   5  10   29.70    8.20
   7   5  10   26.80   11.30
   7   5  10   32.90   15.10
   2  -6 -10   19.40    7.20
   2  -6 -10    7.70    8.10
   2  -6 -10   31.50    8.70
   2  -6 -10   20.70    7.40
   2  -6 -10   24.60   13.10
   2  -6 -10   28.40    9.60
   2  -6 -10   24.10    6.00
  -2   6  10   14.80    5.80
   1  -6 -10   20.50    7.10
   1  -6 -10   22.30    8.30
   1  -6 -10   10.60    7.30
   1  -6 -10   12.10    5.30
   1  -6 -10   18.70   10.60
   1  -6 -10   16.60    7.50
   1  -6 -10   17.00    4.80
  -1   6  10   19.70    6.00
   0  -6 -10  136.09   10.70
   0  -6 -10  137.89   17.50
   0  -6 -10  132.39   15.80
   0  -6 -10  108.09   13.30
   0  -6 -10  124.69   10.00
   0  -6 -10  125.99   12.90
   0  -6 -10  113.59   13.60
   0   6  10  130.19   11.30
  -1  -6 -10   14.60    7.70
  -1  -6 -10   25.20    7.90
  -1  -6 -10   18.50    3.10
  -1  -6 -10   20.30    5.10
  -1  -6 -10   11.00    4.50
  -1  -6 -10    7.00   10.80
  -1  -6 -10   24.10    3.80
  -1  -6 -10   21.00    5.20
   1   6  10   11.40    5.70
   1   6  10   11.40    6.60
  -2  -6 -10  271.37   22.30
  -2  -6 -10  327.47   15.30
  -2  -6 -10  287.37   14.50
  -2  -6 -10  333.67   21.80
  -2  -6 -10  324.27   13.30
   2   6  10  339.57   12.70
   2   6  10  331.77   18.00
   2   6  10  324.87   12.80
  -3  -6 -10   99.29   11.10
  -3  -6 -10   79.09   16.00
  -3  -6 -10  100.29    7.80
  -3  -6 -10   75.09   11.90
  -3  -6 -10   69.59    7.00
   3   6  10   65.59    9.10
   3   6  10   96.89   10.40
   3   6  10   74.99   11.20
   3   6  10   85.29   13.50
  -4  -6 -10   14.80    9.70
  -4  -6 -10   16.80    7.40
  -4  -6 -10   22.40    5.10
  -4  -6 -10   37.50    8.10
  -4  -6 -10   17.20    5.20
  -4  -6 -10   32.20   13.10
   4   6  10   27.80    6.50
   4   6  10   27.00   10.70
   4   6  10   26.00    7.30
   4   6  10   27.30    7.80
  -5  -6 -10   34.70   14.00
  -5  -6 -10   35.90   12.50
  -5  -6 -10   18.40    9.60
   5   6  10   16.20    8.60
   5   6  10   27.30    7.50
   5   6  10   35.00   13.20
  -6  -6 -10    2.00    8.20
  -6  -6 -10    5.00    6.10
  -6  -6 -10   -1.10   14.20
  -6  -6 -10    1.80    7.40
  -6  -6 -10    1.60    8.50
   6   6  10    5.90    9.20
   6   6  10    9.00   14.90
   6   6  10    3.20    8.40
   6   6  10   16.00    7.20
  -7  -6 -10   22.50    8.10
  -7  -6 -10   20.90    9.80
  -7  -6 -10   26.90   10.40
   7   6  10   46.10   16.20
   7   6  10   31.00   10.50
   7   6  10   21.20    8.00
   2  -7 -10  -10.10   11.10
   2  -7 -10   -0.70    5.00
   2  -7 -10    7.40    9.20
   2  -7 -10    4.60    5.90
  -2   7  10    6.50    6.20
   1  -7 -10    1.10    7.50
   1  -7 -10   10.60    4.20
   1  -7 -10   13.50   10.60
   1  -7 -10   -0.40    6.90
   1  -7 -10   -1.70    8.50
   1  -7 -10    2.60    4.60
  -1   7  10   14.50    5.40
   0  -7 -10   34.30    5.00
   0  -7 -10   51.19    7.60
   0  -7 -10   42.20    8.90
   0  -7 -10   34.00    9.60
   0  -7 -10   24.30    6.70
   0  -7 -10   40.70   13.50
   0  -7 -10   40.30    7.70
   0   7  10   42.30    7.80
  -1  -7 -10    1.90    2.20
  -1  -7 -10    3.20    7.20
  -1  -7 -10    6.30    4.60
  -1  -7 -10    1.30    3.10
  -1  -7 -10   16.70    8.20
  -1  -7 -10    0.50    5.90
  -1  -7 -10    5.70   10.60
  -1  -7 -10    2.30    3.00
   1   7  10   -0.20    8.90
   1   7  10    4.70    4.60
   1   7  10    2.50    6.40
  -2  -7 -10    1.40    3.20
  -2  -7 -10   -7.90    6.90
  -2  -7 -10    1.80    4.30
  -2  -7 -10    5.60   10.40
  -2  -7 -10    2.60    6.00
  -2  -7 -10    3.30    2.00
  -2  -7 -10   -0.70    2.00
   2   7  10    5.10    7.00
   2   7  10    0.40    2.60
   2   7  10    2.90    5.90
   2   7  10    5.80    2.40
  -3  -7 -10   42.30    5.00
  -3  -7 -10   42.20   13.90
  -3  -7 -10   42.80    7.60
  -3  -7 -10   38.10    6.60
  -3  -7 -10   34.10    9.00
   3   7  10   51.29    8.50
   3   7  10   47.90   11.30
   3   7  10   51.59   12.30
   3   7  10   53.59    8.80
  -4  -7 -10   -5.70    8.70
  -4  -7 -10   -5.50    3.20
  -4  -7 -10   -4.40    4.00
  -4  -7 -10  -11.00    6.50
  -4  -7 -10   16.00   11.70
   4   7  10   -6.20    9.20
   4   7  10   -5.20    5.50
  -5  -7 -10  272.47   24.30
  -5  -7 -10  260.07   14.00
  -5  -7 -10  283.17   26.50
  -5  -7 -10  250.87   20.20
  -5  -7 -10  244.38   17.00
   5   7  10  288.87   18.00
  -6  -7 -10   54.89   11.50
  -6  -7 -10   33.50    8.50
  -6  -7 -10   37.20   11.00
  -6  -7 -10   53.29   18.40
  -6  -7 -10   48.10   10.40
  -6  -7 -10   39.70    6.70
   6   7  10   46.50   11.10
   6   7  10   46.10    9.20
   6   7  10   29.50    9.20
   6   7  10   41.80   14.80
  -7  -7 -10   66.49   19.30
  -7  -7 -10   15.30   10.40
  -7  -7 -10   19.80    9.80
  -7  -7 -10   19.10   11.60
  -7  -7 -10   15.90    9.70
  -7  -7 -10   29.90    8.60
   7   7  10   37.00   18.90
   7   7  10   35.80    8.40
   7   7  10   42.90   12.50
   1  -8 -10   35.80    4.90
   1  -8 -10   20.10   14.10
   1  -8 -10   18.60    9.70
   1  -8 -10   40.30    8.70
   1  -8 -10   31.90    5.20
  -1   8  10   43.50    8.30
   0  -8 -10   29.80    3.40
   0  -8 -10   19.30    3.50
   0  -8 -10   18.70    8.20
   0  -8 -10   27.30   14.10
   0  -8 -10   32.70    3.40
   0  -8 -10   29.20    8.90
   0   8  10   16.30    6.50
  -1  -8 -10   79.49   16.50
  -1  -8 -10   85.09   13.20
  -1  -8 -10   60.49   10.50
  -1  -8 -10   79.59    9.40
  -1  -8 -10   75.89    8.60
  -1  -8 -10   60.79   11.10
   1   8  10   75.89    9.60
  -2  -8 -10  137.49   11.70
  -2  -8 -10  140.79   19.80
  -2  -8 -10  129.19   15.40
  -2  -8 -10  136.09   12.80
  -2  -8 -10  135.99    9.00
  -2  -8 -10  141.69    8.00
   2   8  10  166.78   14.00
   2   8  10  123.99   25.60
   2   8  10  115.89   10.50
  -3  -8 -10    9.80    2.00
  -3  -8 -10    2.90    7.50
  -3  -8 -10   24.70   13.60
  -3  -8 -10   14.60    3.90
  -3  -8 -10   11.80    6.20
   3   8  10   13.50    4.80
   3   8  10   -2.80   10.40
   3   8  10   11.60    6.50
  -4  -8 -10   18.50   14.20
  -4  -8 -10   10.00    4.90
  -4  -8 -10   15.10    3.20
  -4  -8 -10   18.20    8.10
  -4  -8 -10    0.60    7.50
  -4  -8 -10   19.10   10.90
   4   8  10   12.60    7.20
  -5  -8 -10    5.60    7.40
  -5  -8 -10   -1.30    8.20
  -5  -8 -10    1.50    3.90
  -5  -8 -10   -9.70    7.50
  -5  -8 -10   -5.60    5.50
   5   8  10   11.50    8.00
   5   8  10    0.10   10.90
   5   8  10  -19.60    8.90
   5   8  10    2.90   11.60
  -6  -8 -10   14.90    5.80
  -6  -8 -10   30.40   15.80
  -6  -8 -10    7.30   10.60
  -6  -8 -10   22.10    8.00
  -6  -8 -10    1.90    8.80
  -6  -8 -10    9.20    9.50
   6   8  10   12.00    7.30
   6   8  10   10.20   14.10
   6   8  10    2.60    8.80
   0  -9 -10   30.60    8.20
   0  -9 -10   16.20   13.20
   0  -9 -10   28.70    7.50
   0  -9 -10   42.70    6.40
   0  -9 -10   24.10    4.70
   0   9  10   31.60    7.40
   0   9  10   35.20   12.00
  -1  -9 -10  -12.80    7.70
  -1  -9 -10    7.20    4.90
  -1  -9 -10   -4.70   12.20
  -1  -9 -10    7.20    5.30
  -1  -9 -10    2.10    2.40
   1   9  10   -5.40    9.20
   1   9  10   -8.00    4.40
  -2  -9 -10   95.39    8.10
  -2  -9 -10   99.89    7.60
  -2  -9 -10  134.29   18.40
  -2  -9 -10  139.79   12.80
  -2  -9 -10  122.19   33.10
  -2  -9 -10   95.39   12.90
   2   9  10  141.19   13.40
   2   9  10  109.59    8.60
   2   9  10  135.29   17.60
  -3  -9 -10  290.07   23.50
  -3  -9 -10  269.77   13.90
  -3  -9 -10  281.27   18.60
   3   9  10  258.37   15.30
   3   9  10  301.07   23.70
   3   9  10  305.37   18.50
   3   9  10  278.47   20.00
   3   9  10  284.27   21.90
  -4  -9 -10   33.20   15.80
  -4  -9 -10   -0.10    7.40
  -4  -9 -10    8.50    9.10
  -4  -9 -10   14.20    5.10
  -4  -9 -10   13.50    2.10
   4   9  10    5.40    7.10
   4   9  10   13.20   10.00
   4   9  10    3.10    8.60
   4   9  10   11.50   12.40
  -5  -9 -10   25.90   15.70
  -5  -9 -10   16.00    6.60
  -5  -9 -10    7.40    9.70
  -5  -9 -10   31.10   10.60
  -5  -9 -10   19.20    3.70
   5   9  10   21.40   11.00
   5   9  10   25.50    8.70
   5   9  10   34.80   10.70
   5   9  10   26.80   13.70
   5   9  10    6.80    8.00
  -6  -9 -10   36.40   10.40
  -6  -9 -10   52.19   12.10
  -6  -9 -10   33.80    9.30
  -6  -9 -10   79.79   20.50
  -6  -9 -10   55.09    8.40
   6   9  10   42.20    9.10
   6   9  10   42.10   12.90
  -1 -10 -10    2.20    9.00
  -1 -10 -10   14.90    3.60
  -1 -10 -10   31.90    7.60
  -1 -10 -10   30.10    7.10
  -1 -10 -10   36.10   15.90
   1  10  10   22.20    4.00
   1  10  10   18.70    3.60
   1  10  10   21.60   10.70
  -2 -10 -10    7.80    3.90
  -2 -10 -10   13.40    6.40
  -2 -10 -10    4.30   13.60
   2  10  10    0.80    4.20
   2  10  10    7.00    6.90
   2  10  10    4.30   10.50
  -3 -10 -10    6.40   14.00
  -3 -10 -10   14.40    9.40
   3  10  10   -3.50   10.20
   3  10  10    9.00    7.20
  -4 -10 -10    5.60    5.10
  -4 -10 -10   10.40    8.60
  -4 -10 -10   -3.10    8.90
  -4 -10 -10   18.30   13.60
   4  10  10   10.20    7.30
   4  10  10   -8.60    6.40
   4  10  10   11.10    8.80
   4  10  10   15.30   11.20
  -5 -10 -10   -9.00    6.10
  -5 -10 -10   -5.20    9.90
  -5 -10 -10   -2.90    9.00
  -5 -10 -10    5.20   15.10
  -5 -10 -10    3.90    2.40
   5  10  10    1.60    8.90
   5  10  10   -4.40   11.50
   5  10  10   11.10   12.10
   5  10  10    4.80    7.20
   0   5 -11  -10.90    6.40
   0   5 -11    2.50    7.80
   0   5 -11   -9.80    7.50
   0  -5  11    0.50    7.40
   0  -5  11   -6.80    9.40
   0  -5  11    8.70    8.40
   0  -5  11   -6.60   11.90
  -1   5 -11   47.80    8.20
  -1   5 -11   25.10    8.60
   1  -5  11   32.40   10.90
   1  -5  11   41.20   12.20
   1  -5  11   33.90    6.10
   1  -5  11   32.60   10.50
  -2   5 -11  109.89   16.50
  -2   5 -11  111.89   17.30
  -2   5 -11  130.99   13.60
   2  -5  11  150.48   20.00
   2  -5  11   94.49   15.80
   1   4 -11   17.10    8.60
   1   4 -11   20.40    5.40
   1   4 -11    9.10    7.60
  -1  -4  11   16.70    7.20
  -1  -4  11   24.10    7.10
  -1  -4  11   20.40    9.20
  -1  -4  11   22.00    9.40
  -1  -4  11   12.00    9.00
   0   4 -11   -5.00    5.10
   0   4 -11   -0.20    6.70
   0   4 -11    0.50    6.00
   0   4 -11   -9.70    6.40
   0  -4  11    0.40    7.60
   0  -4  11   -1.20    6.70
   0  -4  11   10.70    6.60
   0  -4  11    1.60    7.80
  -1   4 -11   34.70    9.20
  -1   4 -11   32.60    8.20
  -1   4 -11   22.20    7.90
   1  -4  11   32.70    5.50
   1  -4  11   15.80    9.00
   1  -4  11   44.20    8.50
   1  -4  11   39.00   12.20
  -2   4 -11  472.35   24.50
  -2   4 -11  458.75   28.00
  -2   4 -11  496.05   25.60
   2  -4  11  514.95   27.60
   2  -4  11  510.35   29.90
   2  -4  11  498.05   26.30
   2  -4  11  462.05   28.40
  -3   4 -11    0.30    6.50
  -3   4 -11    2.70    8.10
  -3   4 -11    8.40    9.30
  -3   4 -11   -4.50    7.10
   3  -4  11   -7.30   10.30
   3  -4  11    0.60    9.40
   3  -4  11   21.10   10.40
   2   3 -11    1.50    7.50
   2   3 -11    0.60    9.50
  -2  -3  11   -8.50    7.40
  -2  -3  11    1.60    9.50
   1   3 -11   -3.30    6.70
   1   3 -11   -4.00    4.00
   1   3 -11   -4.00    7.10
  -1  -3  11    6.20    9.50
  -1  -3  11    2.80    6.90
  -1  -3  11   -0.90    7.50
   0   3 -11   -1.20    5.70
   0   3 -11    6.90    4.50
   0   3 -11    2.20    6.50
   0   3 -11    3.00    6.00
   0  -3  11  -12.30   10.00
   0  -3  11    1.60    6.90
   0  -3  11   -2.60    5.90
   0  -3  11    0.30    6.20
  -1   3 -11    7.90    7.30
  -1   3 -11   10.50    5.30
  -1   3 -11   -2.80    6.20
   1  -3  11   -3.20    9.10
   1  -3  11  -11.90    7.00
   1  -3  11   -3.00    6.70
  -2   3 -11   96.19   12.20
  -2   3 -11  104.09   12.20
  -2   3 -11   86.39   13.30
  -2   3 -11  113.29   17.20
   2  -3  11   98.49   14.10
   2  -3  11  110.39   17.90
   2  -3  11   92.49   15.30
  -3   3 -11   10.40    7.60
  -3   3 -11   10.50    6.80
  -3   3 -11   20.50    9.60
  -3   3 -11   19.00   10.30
   3  -3  11   18.70    9.00
   3  -3  11    5.70    9.30
   3  -3  11   22.10    8.10
   3  -3  11   13.20    9.10
  -4   3 -11   27.50    8.90
  -4   3 -11    8.30    7.90
  -4   3 -11   20.30    9.20
   4  -3  11    2.30   10.70
   4  -3  11    9.70    7.90
   4  -3  11    8.10   10.30
   4  -3  11   20.00   10.00
   2   2 -11   33.20    7.30
   2   2 -11   44.90    8.90
   2   2 -11   30.50    4.00
   2   2 -11   32.90    9.10
   2   2 -11   34.20   11.00
  -2  -2  11   61.79   12.80
  -2  -2  11   40.20   10.70
  -2  -2  11   54.09    7.90
   1   2 -11   33.00    6.90
   1   2 -11   25.20    4.20
   1   2 -11   30.90    8.30
   1   2 -11   34.80    7.00
  -1  -2  11   25.50    5.30
  -1  -2  11   31.00    8.70
  -1  -2  11   32.60    5.30
  -1  -2  11   34.40   12.10
  -1  -2  11   35.20    6.70
   0   2 -11   -2.20    3.40
   0   2 -11    1.40    5.00
   0   2 -11   -7.10    6.20
   0   2 -11    7.10    6.00
   0  -2  11    0.30    6.00
   0  -2  11   -8.20    6.20
   0  -2  11    4.50    4.60
   0  -2  11    4.10    8.60
   0  -2  11   -7.00    5.10
  -1   2 -11   39.30    8.80
  -1   2 -11   37.10    6.80
  -1   2 -11   32.80    7.50
  -1   2 -11   54.99    8.00
   1  -2  11   37.40    8.00
   1  -2  11   50.59    7.50
   1  -2  11   36.70   11.60
   1  -2  11   32.50    8.50
  -2   2 -11  107.39   15.10
  -2   2 -11   93.79   12.20
  -2   2 -11   89.39   10.50
   2  -2  11   69.19   12.60
   2  -2  11   86.19   13.00
  -3   2 -11  342.37   22.20
  -3   2 -11  301.77   24.60
  -3   2 -11  368.86   28.20
  -3   2 -11  398.46   20.50
   3  -2  11  359.16   21.70
   3  -2  11  355.96   24.10
   3  -2  11  360.46   22.40
   3  -2  11  363.86   21.50
   3  -2  11  370.46   25.70
  -4   2 -11    7.00    8.00
  -4   2 -11   -4.60    5.30
  -4   2 -11   -7.80    3.70
  -4   2 -11   -6.50    6.60
  -4   2 -11   -0.20    8.90
   4  -2  11   15.90    8.10
   4  -2  11    7.20    5.70
   4  -2  11   -3.10   12.80
   4  -2  11   -1.10    8.10
   4  -2  11   14.10    9.40
   4  -2  11  -13.00    7.20
  -5   2 -11   -1.20    4.20
  -5   2 -11  -12.80    7.10
  -5   2 -11    3.70    8.50
   5  -2  11   -5.60    9.00
   5  -2  11   10.60    9.80
   5  -2  11   -8.20    8.70
   5  -2  11   -1.10    7.40
   2   1 -11  434.96   17.80
   2   1 -11  436.76   27.20
   2   1 -11  433.86   23.60
   2   1 -11  447.86   19.20
   2   1 -11  504.05   27.10
   2   1 -11  447.66   26.00
   2   1 -11  469.65   21.30
  -2  -1  11  526.75   30.20
  -2  -1  11  492.65   27.00
  -2  -1  11  460.25   17.40
   1   1 -11   24.00    3.80
   1   1 -11   23.30    9.10
   1   1 -11   28.90    6.60
   1   1 -11   25.60    5.90
  -1  -1  11   39.00    6.10
  -1  -1  11   28.20   11.70
  -1  -1  11   29.00    4.60
  -1  -1  11   38.00    9.10
   0   1 -11   -6.10    5.40
   0   1 -11   -1.90    2.70
   0   1 -11   -1.20    4.20
   0  -1  11   -4.20    3.80
   0  -1  11   -4.40    5.70
  -1   1 -11   -3.20    3.30
  -1   1 -11    0.10    4.20
  -1   1 -11    1.20    6.10
   1  -1  11   -1.30    6.30
   1  -1  11   -3.10    8.50
   1  -1  11    0.10    4.40
   1  -1  11   -6.00    5.40
  -2   1 -11   81.69   10.90
  -2   1 -11   70.49    8.90
  -2   1 -11   62.79   10.30
   2  -1  11   74.09   10.60
   2  -1  11   95.29   11.40
   2  -1  11   90.09   14.50
   2  -1  11   91.19   11.50
   2  -1  11   65.09   11.10
  -3   1 -11  571.94   26.00
  -3   1 -11  588.74   30.20
  -3   1 -11  579.04   26.50
   3  -1  11  531.95   20.60
   3  -1  11  598.94   29.90
   3  -1  11  577.84   26.60
   3  -1  11  592.34   28.60
  -4   1 -11   78.49    6.60
  -4   1 -11   56.89   11.90
  -4   1 -11   66.39   10.30
  -4   1 -11   68.69   10.70
   4  -1  11   66.69   11.10
   4  -1  11   69.89    9.80
   4  -1  11   79.19   11.30
   4  -1  11   77.49   12.60
   4  -1  11   83.69   12.60
  -5   1 -11   12.20    8.00
  -5   1 -11  -13.10    9.10
  -5   1 -11   -9.40    7.70
  -5   1 -11    8.30    4.80
  -5   1 -11   30.40   10.50
   5  -1  11   18.60    9.60
   5  -1  11   11.20    8.70
   5  -1  11   -6.00    9.40
   5  -1  11   -3.80    7.40
   5  -1  11   -5.60   10.00
   3   0 -11   -7.40    6.60
   3   0 -11    1.30    9.50
   3   0 -11    7.10    2.70
   3   0 -11   11.50    8.80
  -3   0  11   -3.40    4.60
  -3   0  11  -15.90    8.50
   2   0 -11  252.27   13.60
   2   0 -11  247.38   18.30
   2   0 -11  219.58   19.80
   2   0 -11  268.07   11.30
   2   0 -11  270.17   19.80
   2   0 -11  282.67   20.60
   2   0 -11  226.08   13.80
   2   0 -11  248.88   13.20
   2   0 -11  255.17   12.70
  -2   0  11  229.78   12.60
  -2   0  11  246.08   19.30
   1   0 -11   36.40    6.90
   1   0 -11   32.10    5.40
   1   0 -11   36.60    9.70
   1   0 -11   26.00    9.50
   1   0 -11   42.10    8.70
   1   0 -11   41.80   10.50
  -1   0  11   51.29    8.90
  -1   0  11   44.40   14.00
  -1   0  11   48.30    5.50
   0   0 -11   -0.90    3.50
   0   0 -11    8.30    8.00
   0   0 -11    2.60    5.40
   0   0  11    3.70    2.90
   0   0  11   -0.60    8.60
  -1   0 -11   16.10    4.40
  -1   0 -11    8.60    3.40
  -1   0 -11   16.80    7.50
   1   0  11   12.90    6.90
   1   0  11    7.50    3.30
   1   0  11    6.90    7.80
   1   0  11   21.50    4.70
  -2   0 -11    1.60    4.70
  -2   0 -11    1.50    3.60
  -2   0 -11    8.60    6.80
   2   0  11    4.20    4.90
   2   0  11    5.60    4.90
   2   0  11   -6.60    7.10
   2   0  11   -0.20    8.10
   2   0  11   -8.30    6.20
  -3   0 -11   29.70    9.70
  -3   0 -11   24.90    7.00
   3   0  11   26.70    7.00
   3   0  11   28.90    8.20
   3   0  11   25.90    7.10
   3   0  11   31.10    5.20
   3   0  11   34.10    9.50
  -4   0 -11   18.00    7.30
  -4   0 -11   17.30    9.70
   4   0  11   13.60    6.30
   4   0  11   22.70    8.90
   4   0  11   14.30    7.70
   4   0  11   29.40    9.50
   4   0  11   22.10    8.10
  -5   0 -11   -4.10    4.30
  -5   0 -11   13.70    8.70
  -5   0 -11    3.50    8.80
  -5   0 -11   -5.40    7.20
  -5   0 -11    5.90    7.40
  -5   0 -11   -4.20    8.20
   5   0  11    7.40    6.00
   5   0  11    6.20    9.00
   5   0  11   -7.40    8.00
   5   0  11    0.50    8.80
   5   0  11  -13.10    8.30
   5   0  11    5.50    8.40
  -6   0 -11  -12.20    7.80
  -6   0 -11    5.00    5.30
  -6   0 -11   -2.40    9.10
  -6   0 -11   13.70    9.40
  -6   0 -11  -12.60    9.60
   6   0  11   -2.60    6.70
   6   0  11    9.00    9.80
   3  -1 -11    8.10    8.10
   3  -1 -11   -4.40    8.40
   3  -1 -11   -1.80    8.00
  -3   1  11   -8.00    8.50
  -3   1  11   -9.10    4.50
   2  -1 -11   11.20    8.40
   2  -1 -11   12.10    7.00
   2  -1 -11   18.60    8.80
   2  -1 -11   17.10    5.30
   2  -1 -11   13.20    5.70
   2  -1 -11   20.20    9.60
  -2   1  11    5.00    4.80
   1  -1 -11  349.17   23.70
   1  -1 -11  357.16   18.80
   1  -1 -11  312.37   11.90
   1  -1 -11  342.07   22.20
   1  -1 -11  376.66   21.60
   1  -1 -11  344.97   19.90
   1  -1 -11  383.76   21.80
   1  -1 -11  338.07   16.80
  -1   1  11  331.57   15.20
   0  -1 -11   59.39   10.60
   0  -1 -11   45.10    9.10
   0  -1 -11   50.59    8.30
   0  -1 -11   71.69    9.30
   0  -1 -11   61.39    7.20
   0  -1 -11   37.50    8.20
   0  -1 -11   47.70    6.20
   0   1  11   54.59   11.00
  -1  -1 -11    1.60    6.60
  -1  -1 -11   -0.90    3.10
  -1  -1 -11    0.30    7.50
   1   1  11   -8.80    6.90
   1   1  11   -0.90    2.90
  -2  -1 -11   54.69    8.20
  -2  -1 -11   49.10    9.80
   2   1  11   54.39   10.00
   2   1  11   40.90    9.50
   2   1  11   57.79    8.60
   2   1  11   52.19    8.90
   2   1  11   39.10    8.80
  -3  -1 -11   54.29   10.40
  -3  -1 -11   79.29   10.60
   3   1  11   59.39   10.10
   3   1  11   62.19   10.90
   3   1  11   52.49    9.10
   3   1  11   76.09    8.00
   3   1  11   77.49   11.50
   3   1  11   76.39   10.80
  -4  -1 -11 1151.88   48.50
  -4  -1 -11 1086.59   44.20
  -4  -1 -11 1201.58   45.10
  -4  -1 -11 1096.49   44.90
   4   1  11 1157.98   45.60
   4   1  11 1121.89   44.10
   4   1  11 1136.39   45.40
   4   1  11 1168.98   43.80
  -5  -1 -11   40.60   10.60
  -5  -1 -11   54.89   11.90
  -5  -1 -11   26.60    8.50
  -5  -1 -11   32.20    9.60
   5   1  11   48.50    9.70
   5   1  11   70.79   18.50
   5   1  11   51.59   10.60
   5   1  11   36.60    9.20
   5   1  11   39.10    9.20
  -6  -1 -11    8.90    8.90
  -6  -1 -11   -2.60    9.40
  -6  -1 -11    5.10    9.70
  -6  -1 -11   14.30    9.20
   6   1  11    2.00   11.20
   6   1  11   -2.50   16.30
   6   1  11    7.00    9.40
   6   1  11    3.30    7.90
   6   1  11   30.40   12.50
   6   1  11    8.20    8.50
   3  -2 -11    7.90    8.50
   3  -2 -11   -7.40    3.30
   3  -2 -11   -7.50   10.00
   3  -2 -11    4.60    9.00
   3  -2 -11   -0.70    9.10
  -3   2  11   -0.50    4.60
   2  -2 -11   18.30    8.60
   2  -2 -11   12.20    5.80
   2  -2 -11   27.80    8.60
   2  -2 -11   35.60    9.30
   2  -2 -11   26.30    8.70
   2  -2 -11   21.10    7.50
   2  -2 -11   26.10    8.70
  -2   2  11   28.50    5.90
   1  -2 -11  876.01   36.00
   1  -2 -11  769.82   33.50
   1  -2 -11  763.72   35.60
   1  -2 -11  777.02   32.70
   1  -2 -11  789.52   34.10
   1  -2 -11  794.82   34.80
   1  -2 -11  764.32   32.50
  -1   2  11  786.72   30.00
   0  -2 -11  206.88   16.30
   0  -2 -11  225.48   17.00
   0  -2 -11  206.88   17.90
   0  -2 -11  256.07   17.30
   0  -2 -11  207.38   20.60
   0  -2 -11  210.58   14.10
   0   2  11  219.28   11.60
   0   2  11  229.48   18.20
  -1  -2 -11   -0.70    2.60
  -1  -2 -11    5.40    3.10
  -1  -2 -11   -5.80    5.40
  -1  -2 -11   -4.70    4.40
  -1  -2 -11    9.80    7.40
  -1  -2 -11    0.80    3.70
  -1  -2 -11   -8.90    6.40
   1   2  11   -0.40    1.70
   1   2  11   -1.20    1.50
   1   2  11   -5.60    6.90
  -2  -2 -11   35.40    5.70
  -2  -2 -11   26.40    4.60
  -2  -2 -11   23.40    7.40
  -2  -2 -11   24.20    8.20
   2   2  11   22.90    7.60
   2   2  11   13.60    7.70
   2   2  11   26.70    8.70
  -3  -2 -11   -1.60    7.70
  -3  -2 -11    2.50    4.80
  -3  -2 -11    0.60    7.30
  -3  -2 -11    6.40    4.30
   3   2  11    4.10    5.00
   3   2  11   -5.60    6.50
   3   2  11   -7.10    4.80
   3   2  11    2.80    4.70
   3   2  11   -2.40    7.50
   3   2  11    1.80    6.80
  -4  -2 -11  558.64   26.20
  -4  -2 -11  504.75   24.40
  -4  -2 -11  453.65   25.70
  -4  -2 -11  582.54   30.40
   4   2  11  531.55   25.50
   4   2  11  530.15   25.90
   4   2  11  544.55   26.40
   4   2  11  547.85   25.20
   4   2  11  520.15   25.90
  -5  -2 -11  172.48   15.00
  -5  -2 -11  192.18   16.20
  -5  -2 -11  205.78   18.20
   5   2  11  226.28   18.60
   5   2  11  226.18   18.60
   5   2  11  209.08   17.00
   5   2  11  200.88   16.70
   5   2  11  187.48   17.70
  -6  -2 -11   -5.60    8.40
  -6  -2 -11   -6.10    7.50
  -6  -2 -11    1.00    8.90
   6   2  11  -11.50    7.40
   6   2  11    2.80    9.00
   6   2  11   28.20   12.90
   6   2  11   14.10    9.00
   6   2  11    3.70    7.80
   6   2  11    2.60    9.50
   2  -3 -11   -2.20    7.20
   2  -3 -11   -0.90    6.90
   2  -3 -11   10.50    9.20
   2  -3 -11   -1.50    5.40
   2  -3 -11   -7.90    8.40
   2  -3 -11   -4.80    8.10
   2  -3 -11    7.60    6.40
  -2   3  11   -0.70    4.30
   1  -3 -11  299.77   19.00
   1  -3 -11  259.07   17.10
   1  -3 -11  318.17   19.10
   1  -3 -11  272.77   19.60
   1  -3 -11  295.97   19.40
   1  -3 -11  281.67   19.50
   1  -3 -11  312.37   18.30
  -1   3  11  268.57   14.70
   0  -3 -11   -1.50    5.80
   0  -3 -11   -0.20    7.30
   0  -3 -11   -1.20    6.20
   0  -3 -11   15.90    6.30
   0  -3 -11    6.30    5.80
   0  -3 -11   16.70    7.10
   0  -3 -11   19.40    7.50
  -1  -3 -11   -4.10    4.80
  -1  -3 -11    3.80    7.30
  -1  -3 -11    3.50    2.70
  -1  -3 -11    6.30    4.30
  -1  -3 -11   -4.90    5.10
  -1  -3 -11    4.90    7.20
  -1  -3 -11   -5.60    6.90
  -1  -3 -11    2.70    2.10
   1   3  11   -0.80    7.20
  -2  -3 -11   39.20    6.60
  -2  -3 -11   30.80    7.00
  -2  -3 -11   46.60    6.60
  -2  -3 -11   48.60    5.90
  -2  -3 -11   30.10    9.10
  -2  -3 -11   36.40    9.60
   2   3  11   38.10    6.00
   2   3  11   37.10    4.20
   2   3  11   27.90    8.20
   2   3  11   30.90    8.30
  -3  -3 -11   10.40    8.50
  -3  -3 -11    6.40    4.00
  -3  -3 -11   -1.70    8.40
  -3  -3 -11   -1.10    2.60
  -3  -3 -11    6.20    4.80
   3   3  11    4.30    4.60
   3   3  11    1.10    6.00
   3   3  11   -5.80    5.80
   3   3  11  -10.70    5.90
  -4  -3 -11   23.90    9.70
  -4  -3 -11    9.60    5.60
  -4  -3 -11   29.70   11.00
  -4  -3 -11    8.80    7.00
  -4  -3 -11    9.40    2.30
  -4  -3 -11    2.00    5.80
   4   3  11   10.10    7.00
   4   3  11   19.00    6.90
   4   3  11   10.50    6.30
   4   3  11   15.80    7.90
   4   3  11   10.20    6.70
  -5  -3 -11  180.08    7.70
  -5  -3 -11  162.18   16.10
  -5  -3 -11  185.58   20.40
  -5  -3 -11  176.98   14.60
   5   3  11  218.18   18.20
   5   3  11  189.88   15.40
   5   3  11  213.48   28.10
   5   3  11  228.98   17.00
   5   3  11  239.48   19.10
  -6  -3 -11   37.30   11.50
  -6  -3 -11   12.40    8.60
  -6  -3 -11   26.80    9.60
  -6  -3 -11   45.60    9.50
   6   3  11   27.00    9.00
   6   3  11   32.00   10.10
   6   3  11   37.90    9.30
   6   3  11   42.70   13.80
   6   3  11   33.60    8.40
   6   3  11   31.80   10.00
   2  -4 -11   52.39    8.50
   2  -4 -11   41.80    7.90
   2  -4 -11   52.79   10.70
   2  -4 -11   33.00    7.70
   2  -4 -11   41.00    9.40
   2  -4 -11   59.69   12.80
   2  -4 -11   31.20   10.00
  -2   4  11   43.60    7.60
   1  -4 -11   14.80    7.70
   1  -4 -11   20.80    8.30
   1  -4 -11   23.30    7.80
   1  -4 -11   42.70   10.80
   1  -4 -11   22.00    7.40
   1  -4 -11   23.70    6.80
  -1   4  11   34.40    6.30
   0  -4 -11  194.88   14.30
   0  -4 -11  188.28   16.10
   0  -4 -11  196.18   15.40
   0  -4 -11  215.28   14.50
   0  -4 -11  220.38   15.70
   0  -4 -11  224.38   17.60
   0  -4 -11  187.48   17.10
   0   4  11  203.98   12.70
  -1  -4 -11  172.18   15.30
  -1  -4 -11  166.48   13.20
  -1  -4 -11  167.68   16.40
  -1  -4 -11  184.18   13.40
  -1  -4 -11  205.38   16.90
   1   4  11  200.28   14.40
  -2  -4 -11   19.10    7.40
  -2  -4 -11   12.50    5.10
  -2  -4 -11   27.80    5.80
  -2  -4 -11   20.90    3.70
  -2  -4 -11    8.40    8.40
  -2  -4 -11   17.10    3.70
   2   4  11   17.50    2.90
   2   4  11   14.90    7.50
   2   4  11    9.40    7.20
   2   4  11   21.40    3.30
  -3  -4 -11    4.10    3.00
  -3  -4 -11   -2.90    4.30
  -3  -4 -11   -6.70    7.50
  -3  -4 -11    1.50    9.20
  -3  -4 -11    4.00    3.70
   3   4  11   -3.40    4.00
   3   4  11   -4.10    6.20
   3   4  11   -6.60    6.00
   3   4  11   -0.40    2.60
  -4  -4 -11  127.69   18.00
  -4  -4 -11   97.69   10.10
   4   4  11  113.19   12.20
   4   4  11  118.19   13.70
   4   4  11   91.59   22.40
  -5  -4 -11  539.45   31.00
  -5  -4 -11  556.34   25.70
  -5  -4 -11  569.44   32.70
  -5  -4 -11  528.05   26.60
  -5  -4 -11  576.24   32.00
   5   4  11  529.55   29.60
   5   4  11  563.34   28.40
   5   4  11  538.65   24.30
   5   4  11  568.64   27.60
  -6  -4 -11   34.50   11.80
  -6  -4 -11   38.70   11.20
  -6  -4 -11   55.39    9.90
  -6  -4 -11   43.20   11.00
  -6  -4 -11   53.69    9.20
   6   4  11   45.30   11.50
   6   4  11   46.60    8.90
   6   4  11   44.80    7.80
   6   4  11   25.80   14.60
   6   4  11   34.10    9.50
   2  -5 -11    4.60    7.20
   2  -5 -11   -8.50   10.60
   2  -5 -11   12.30    5.80
   2  -5 -11   16.10    7.50
   2  -5 -11    1.10    8.80
   2  -5 -11    8.30    9.00
   2  -5 -11    7.70    7.60
  -2   5  11    3.10    4.70
   1  -5 -11   99.39   15.60
   1  -5 -11  110.79   13.50
   1  -5 -11  108.09   11.40
   1  -5 -11   90.89   12.30
   1  -5 -11   93.69   14.00
   1  -5 -11   82.39   14.10
   1  -5 -11  107.09   12.20
  -1   5  11  107.39   10.10
   0  -5 -11   86.09   12.00
   0  -5 -11  119.99   11.10
   0  -5 -11   98.09   12.70
   0  -5 -11  107.69   15.20
   0  -5 -11  101.99   13.90
   0  -5 -11  104.79   13.80
   0  -5 -11  110.89   10.60
   0   5  11   90.39    9.30
  -1  -5 -11   60.59   10.50
  -1  -5 -11   55.99    9.60
  -1  -5 -11   51.99   11.80
  -1  -5 -11   45.80    7.50
  -1  -5 -11   38.10    8.40
  -1  -5 -11   47.10    9.80
   1   5  11   52.69    8.90
  -2  -5 -11   75.59    7.10
  -2  -5 -11   59.89    8.50
  -2  -5 -11   65.09   13.10
  -2  -5 -11   71.59    8.80
  -2  -5 -11   66.19   10.30
  -2  -5 -11   72.79    6.00
   2   5  11   59.59    4.30
   2   5  11   60.19    9.30
   2   5  11   63.69    3.80
  -3  -5 -11   22.90    4.90
  -3  -5 -11   18.70   10.60
  -3  -5 -11   20.20    5.80
  -3  -5 -11   16.30    4.20
  -3  -5 -11   11.20    4.00
  -3  -5 -11   17.70    9.20
   3   5  11    9.00    6.90
   3   5  11   19.80    4.90
   3   5  11   33.40    5.00
   3   5  11   25.40   11.00
  -4  -5 -11   25.30   10.20
  -4  -5 -11   38.10    8.00
  -4  -5 -11   18.10   11.60
   4   5  11    3.00    8.80
  -5  -5 -11  300.27   27.60
  -5  -5 -11  302.77   23.40
  -5  -5 -11  297.97   17.00
  -5  -5 -11  257.67   18.60
  -5  -5 -11  313.67   25.40
   5   5  11  281.97   17.80
   5   5  11  276.57   15.10
   5   5  11  298.67   22.40
   5   5  11  297.67   20.80
  -6  -5 -11   13.90    9.30
  -6  -5 -11   13.00    8.30
  -6  -5 -11   15.70    7.00
  -6  -5 -11   -1.90    9.20
   6   5  11   -1.40    8.80
   6   5  11   14.40    8.60
   6   5  11   16.90    5.40
   6   5  11    8.90    7.00
   1  -6 -11   60.99    9.30
   1  -6 -11   52.69   11.50
   1  -6 -11   49.30    9.50
   1  -6 -11   67.49   10.90
   1  -6 -11   52.19   10.40
   1  -6 -11   48.00    7.90
   1  -6 -11   60.79   14.20
  -1   6  11   67.39    9.60
   0  -6 -11   -7.60    7.30
   0  -6 -11    1.50    9.50
   0  -6 -11    1.90    4.40
   0  -6 -11   -2.60    5.90
   0  -6 -11    1.70    5.10
   0  -6 -11   -8.00    7.00
   0  -6 -11   12.30    7.60
   0   6  11   -7.20    3.90
  -1  -6 -11    4.20    4.60
  -1  -6 -11   -4.20    5.70
  -1  -6 -11    6.10    7.50
  -1  -6 -11    0.40    4.90
  -1  -6 -11    4.70    9.50
  -1  -6 -11   -0.50    7.40
  -1  -6 -11    2.70    4.70
  -2  -6 -11   -4.30    5.90
  -2  -6 -11    9.80    9.50
  -2  -6 -11   -5.50    3.50
  -2  -6 -11    0.10    2.70
  -2  -6 -11    0.00    3.70
  -2  -6 -11   -4.40    7.70
  -2  -6 -11   -1.20    5.00
   2   6  11   -0.50    1.40
   2   6  11   -7.30    5.40
   2   6  11   -2.60    1.30
  -3  -6 -11    2.50    3.30
  -3  -6 -11   -3.10    8.00
  -3  -6 -11    5.20   11.00
  -3  -6 -11    2.90    5.20
   3   6  11   -2.70    3.70
   3   6  11   -9.20    6.60
  -4  -6 -11   -2.80    4.00
  -4  -6 -11   -0.80   11.30
  -4  -6 -11    1.30    4.30
  -4  -6 -11   -8.40    7.40
  -4  -6 -11   -0.80    6.50
   4   6  11   -4.60    6.70
   4   6  11  -14.30    8.80
   4   6  11    4.90    5.90
   4   6  11   -2.60    5.40
  -5  -6 -11   10.50    9.60
  -5  -6 -11   15.80   13.10
  -5  -6 -11    5.40    5.10
  -5  -6 -11  -12.10    8.30
  -5  -6 -11   -8.90    5.70
   5   6  11    4.40    6.70
   5   6  11    3.30   10.30
   5   6  11   -2.20    7.70
   5   6  11   -5.60    7.50
  -6  -6 -11   18.40    6.60
  -6  -6 -11    2.70    9.20
  -6  -6 -11   15.30    8.40
  -6  -6 -11    2.70    8.70
   6   6  11   11.50    7.70
   6   6  11   10.20    9.20
   6   6  11   -1.00    9.10
   6   6  11   34.20   14.50
   1  -7 -11    8.20    8.60
   1  -7 -11   17.50   19.10
   1  -7 -11   -1.40    5.10
   1  -7 -11    5.70    4.80
   1  -7 -11    9.30    8.10
   1  -7 -11   13.00    9.20
   1  -7 -11   -0.30    8.60
  -1   7  11   12.40    5.20
   0  -7 -11   37.00   13.20
   0  -7 -11   30.00    9.40
   0  -7 -11   32.20    7.60
   0  -7 -11   20.00    8.30
   0  -7 -11   27.40    8.90
   0  -7 -11   55.19    8.20
   0  -7 -11   30.60    5.70
   0   7  11   33.20    6.90
  -1  -7 -11   59.09    9.50
  -1  -7 -11   84.09    9.50
  -1  -7 -11   67.09    7.90
  -1  -7 -11   61.09   11.50
  -1  -7 -11   57.89    9.30
  -1  -7 -11   54.39   10.80
   1   7  11   70.59    9.50
  -2  -7 -11   61.69    6.30
  -2  -7 -11   66.39    7.80
  -2  -7 -11   80.99   16.10
  -2  -7 -11   65.69   12.10
  -2  -7 -11   69.79    5.90
  -2  -7 -11   83.29    9.00
  -2  -7 -11   73.79   11.10
  -2  -7 -11   63.59   10.90
   2   7  11   68.29    9.90
   2   7  11   65.09    4.20
   2   7  11   83.29    4.30
  -3  -7 -11   96.99   11.60
  -3  -7 -11   79.99   15.40
  -3  -7 -11   93.89    7.80
  -3  -7 -11   82.39    6.60
  -3  -7 -11  119.09   18.90
   3   7  11   77.39   12.70
   3   7  11  106.79   16.30
   3   7  11   66.89    8.60
  -4  -7 -11   -9.80    7.60
  -4  -7 -11    0.20    6.40
  -4  -7 -11   -4.00    3.60
  -4  -7 -11  -13.00   11.60
  -4  -7 -11   -8.60    6.30
  -4  -7 -11    5.20    4.30
   4   7  11  -15.30    8.70
   4   7  11    4.80    7.10
   4   7  11    1.70    5.80
   4   7  11  -11.50    5.50
  -5  -7 -11   32.70    9.90
  -5  -7 -11   46.30   16.60
  -5  -7 -11   41.40    7.60
  -5  -7 -11   47.40   10.60
  -5  -7 -11   46.50   11.90
  -5  -7 -11   65.19    9.30
   5   7  11   45.20    9.70
   5   7  11   40.90    9.40
   5   7  11   48.60   10.30
  -6  -7 -11    4.60    9.90
  -6  -7 -11  -10.40    8.50
  -6  -7 -11    1.20    5.90
  -6  -7 -11   15.70   16.00
  -6  -7 -11    4.80    9.20
   6   7  11  -17.60    8.40
   6   7  11   -6.00    9.40
   6   7  11   15.10   12.90
   6   7  11   -0.10    6.20
   0  -8 -11  138.29   25.30
   0  -8 -11  196.48   17.60
   0  -8 -11  162.68   25.90
   0  -8 -11  173.58   16.80
   0  -8 -11  166.58   15.90
   0  -8 -11  211.68   13.30
   0  -8 -11  201.18    9.90
   0   8  11  211.18   14.70
  -1  -8 -11   -6.30    7.90
  -1  -8 -11   19.00    5.80
  -1  -8 -11    6.50   11.40
  -1  -8 -11    8.60    2.70
  -1  -8 -11    2.50    1.70
  -1  -8 -11    5.60    2.70
  -1  -8 -11    6.00    2.00
  -1  -8 -11   -0.50    7.50
   1   8  11    4.10    5.10
  -2  -8 -11   14.20    7.60
  -2  -8 -11   16.60    3.00
  -2  -8 -11   13.20    3.00
  -2  -8 -11   17.80    4.60
  -2  -8 -11   30.40   13.90
  -2  -8 -11   21.70    3.00
  -2  -8 -11   11.20    9.30
  -2  -8 -11   10.50    6.50
  -2  -8 -11   22.10    5.50
   2   8  11   12.50    2.60
   2   8  11   20.60    7.60
   2   8  11   11.90   10.70
  -3  -8 -11   27.20    8.80
  -3  -8 -11   24.60    6.50
  -3  -8 -11   28.10   13.20
  -3  -8 -11   25.40    4.10
   3   8  11   17.50   10.50
   3   8  11   20.50    7.50
  -4  -8 -11    3.00    7.20
  -4  -8 -11   -5.50    3.20
  -4  -8 -11   -9.40    6.90
  -4  -8 -11    5.70   13.80
  -4  -8 -11   -4.10    4.50
  -4  -8 -11   -3.40    6.90
   4   8  11    0.80    6.20
   4   8  11   -0.60    7.90
   4   8  11   -4.10    7.40
  -5  -8 -11   19.60   11.00
  -5  -8 -11   22.90    9.00
  -5  -8 -11    6.60    5.80
  -5  -8 -11   17.90    9.30
  -5  -8 -11   17.60    4.60
  -5  -8 -11   36.60   17.40
   5   8  11    1.20    7.70
   5   8  11   21.20    9.00
   5   8  11   13.20   12.30
   5   8  11   25.90    8.40
  -6  -8 -11   -2.90    8.20
  -6  -8 -11    6.70    5.70
  -6  -8 -11   -1.80    9.50
  -6  -8 -11   11.50   15.40
  -6  -8 -11   16.00    9.70
  -6  -8 -11   -2.50    8.90
   6   8  11  -11.00   14.60
   6   8  11   -0.70    6.50
   6   8  11    4.50    9.80
  -1  -9 -11   47.60   10.40
  -1  -9 -11   68.49    7.90
  -1  -9 -11   59.69   11.40
  -1  -9 -11   66.39    6.40
  -1  -9 -11   65.49   10.80
  -1  -9 -11   64.89   18.10
  -1  -9 -11   37.70   11.60
   1   9  11   64.89   10.50
   1   9  11   68.19   13.70
  -2  -9 -11   31.60   15.20
  -2  -9 -11    8.50    4.50
  -2  -9 -11   10.50    3.20
  -2  -9 -11   13.20    5.70
  -2  -9 -11   16.70    9.40
  -2  -9 -11   34.90   11.30
   2   9  11   31.10    8.00
   2   9  11   19.20   10.50
   2   9  11   16.80    3.40
  -3  -9 -11   16.60   10.70
  -3  -9 -11    6.70    3.70
  -3  -9 -11   21.30   14.70
  -3  -9 -11   -4.70    8.60
  -3  -9 -11   20.30    7.10
   3   9  11    2.60    4.70
   3   9  11    4.20    7.80
   3   9  11    4.30    7.30
  -4  -9 -11   22.10   10.60
  -4  -9 -11    8.80    2.20
  -4  -9 -11   14.90    8.30
  -4  -9 -11    4.40    4.50
  -4  -9 -11    5.00    9.80
  -4  -9 -11    3.40   13.80
   4   9  11    1.40   10.30
   4   9  11   -4.30    6.20
   4   9  11   -2.00   12.50
  -5  -9 -11   64.79    7.00
  -5  -9 -11   57.29   11.50
  -5  -9 -11   77.79   20.10
  -5  -9 -11   49.00   12.70
  -5  -9 -11   54.29    8.90
   5   9  11   41.60    9.30
   5   9  11   71.59   15.20
   5   9  11   63.29   10.30
   5   9  11   56.19   16.20
  -3 -10 -11   24.00    9.30
  -3 -10 -11   22.40   15.30
  -3 -10 -11   20.20    9.90
   3  10  11   17.50    8.40
   3  10  11   28.10   12.50
   0   3 -12   -8.10    6.70
   0   3 -12    2.50    6.60
   0   3 -12    4.00    5.00
   0  -3  12    7.60    8.20
   0  -3  12    0.80    6.20
   0  -3  12  -12.90    7.50
   0  -3  12  -15.60    7.30
   0  -3  12   -2.40    6.70
  -1   3 -12    4.10    6.70
  -1   3 -12    0.80    6.50
  -1   3 -12    4.20    7.80
  -1   3 -12   17.60    5.80
   1  -3  12   -1.30    7.50
   1  -3  12   -2.90   10.80
   1  -3  12   11.40    7.40
  -2   3 -12   48.80    8.60
  -2   3 -12   43.80    8.80
  -2   3 -12   33.90   10.10
  -2   3 -12   41.60    7.40
   2  -3  12   47.70   11.60
   2  -3  12   75.79   13.70
   2  -3  12   44.90   10.10
  -3   3 -12  139.79   18.40
  -3   3 -12  121.39   14.70
  -3   3 -12  116.49   16.20
   3  -3  12  149.69   21.80
   3  -3  12  157.88   19.80
   1   2 -12   36.00    7.60
   1   2 -12   27.80    4.70
   1   2 -12   38.80    7.80
  -1  -2  12   36.30    9.70
  -1  -2  12   48.60   13.60
  -1  -2  12   30.50    5.70
   0   2 -12   25.20    4.60
   0   2 -12   30.40    8.30
   0   2 -12   26.20    6.70
   0   2 -12   31.40    8.10
   0  -2  12   39.80    7.90
   0  -2  12   14.20   10.80
  -1   2 -12   -7.60    6.30
  -1   2 -12    3.20    4.60
  -1   2 -12    3.80    6.20
   1  -2  12    3.30    6.60
   1  -2  12   -0.50    7.60
   1  -2  12   12.90    9.80
  -2   2 -12    9.60    9.90
  -2   2 -12    0.70    6.20
  -2   2 -12   -1.30    6.00
  -2   2 -12    7.50    5.30
   2  -2  12   -9.80    8.00
   2  -2  12    4.60    7.40
   2  -2  12   -7.20    9.40
   2  -2  12    7.20    6.70
  -3   2 -12   27.60    7.70
  -3   2 -12   42.70   11.50
   3  -2  12   35.70    9.60
   3  -2  12   45.00    9.80
   3  -2  12   46.30   11.70
  -4   2 -12   25.20    8.30
  -4   2 -12   11.90    8.20
  -4   2 -12   15.60   10.30
   4  -2  12   10.40    5.00
   4  -2  12    8.20    8.50
   4  -2  12    8.10   10.10
   4  -2  12   20.40   10.10
   1   1 -12   31.80   10.00
   1   1 -12   36.90   10.30
   1   1 -12   25.30    6.10
   1   1 -12   43.80    6.20
   1   1 -12   24.50    6.90
  -1  -1  12   29.00   12.50
  -1  -1  12   38.70    6.60
  -1  -1  12   33.30    4.40
  -1  -1  12   48.50    9.80
   0   1 -12   34.70    8.50
   0   1 -12   26.60    5.80
   0   1 -12   32.40    8.40
   0   1 -12   41.00    6.80
   0  -1  12   39.70    7.90
   0  -1  12   50.89    8.10
   0  -1  12   46.40   11.90
  -1   1 -12    1.40    7.20
  -1   1 -12   -5.40    4.60
  -1   1 -12    0.40    3.80
  -1   1 -12   -1.50    4.70
   1  -1  12    1.60    4.80
   1  -1  12    0.30    7.30
   1  -1  12  -10.90    9.10
  -2   1 -12   -2.50    7.60
  -2   1 -12   -2.80    5.10
  -2   1 -12    5.40    4.70
  -2   1 -12    4.20    5.90
   2  -1  12   -5.60    6.00
  -3   1 -12  220.88   20.20
  -3   1 -12  224.98   16.50
  -3   1 -12  239.78   16.20
  -3   1 -12  240.98   15.70
   3  -1  12  204.48   16.90
   3  -1  12  190.28   17.20
   3  -1  12  215.28   20.40
   3  -1  12  244.38   18.50
  -4   1 -12  316.07   23.20
  -4   1 -12  328.57   21.10
   4  -1  12  319.37   24.20
   4  -1  12  285.27   21.60
   4  -1  12  297.37   20.90
   4  -1  12  305.37   15.00
   4  -1  12  273.57   26.00
   4  -1  12  308.97   21.20
   2   0 -12   20.70   10.80
   2   0 -12   -3.40    6.70
   2   0 -12    1.30    4.80
   2   0 -12   -0.40    4.00
   2   0 -12    0.50    9.80
  -2   0  12   -7.90    3.90
  -2   0  12    1.30   10.80
   1   0 -12  224.78   11.70
   1   0 -12  251.57   19.60
   1   0 -12  218.98   12.60
   1   0 -12  204.88   17.20
   1   0 -12  252.27   20.40
   1   0 -12  247.28   15.70
   1   0 -12  213.68   19.50
  -1   0  12  239.98   22.40
   0   0 -12   17.20    3.20
   0   0 -12    6.70    4.50
   0   0 -12   10.20    5.70
   0   0 -12   23.50    9.30
   0   0 -12   15.10    7.20
   0   0  12   10.70   10.30
   0   0  12   11.60    3.20
  -1   0 -12    7.60    7.80
  -1   0 -12    6.30    9.20
  -1   0 -12    2.90    3.30
  -1   0 -12   -1.30    4.00
   1   0  12   11.40    4.60
   1   0  12   12.70    7.50
   1   0  12   -9.30    9.00
  -2   0 -12    9.60    4.30
  -2   0 -12   -2.40    5.20
  -2   0 -12   -2.30    7.80
  -2   0 -12   -3.00    4.50
   2   0  12   -3.10    8.40
   2   0  12    1.80    5.40
   2   0  12   -1.00    5.60
  -3   0 -12   17.20    6.70
  -3   0 -12   26.90    8.90
  -3   0 -12   15.90   11.60
  -3   0 -12   22.70    3.80
  -3   0 -12    7.30    6.10
   3   0  12   25.10    9.60
   3   0  12   15.60    9.10
   3   0  12    8.20    8.10
   3   0  12   12.90    6.20
  -4   0 -12   53.49   11.40
  -4   0 -12   40.50    9.10
  -4   0 -12   43.20   10.90
  -4   0 -12   63.29    6.40
   4   0  12   51.29   10.50
   4   0  12   45.60    8.60
   4   0  12   42.90    9.10
   4   0  12   30.90   10.20
   4   0  12   53.99   11.10
  -5   0 -12  149.99   17.60
  -5   0 -12  152.58   10.60
  -5   0 -12  159.18   16.60
  -5   0 -12  167.28   18.20
  -5   0 -12  126.49   18.60
   5   0  12  177.38   15.90
   5   0  12  141.49   17.70
   5   0  12  132.19   15.90
   5   0  12  135.39   23.20
   5   0  12  129.89   17.70
   2  -1 -12    0.70    4.70
   2  -1 -12   -5.20    8.70
   2  -1 -12    3.80    7.10
   2  -1 -12   10.30    9.60
   1  -1 -12  254.27   21.00
   1  -1 -12  256.37   13.80
   1  -1 -12  324.07   17.60
   1  -1 -12  276.07   21.00
   1  -1 -12  304.97   20.90
  -1   1  12  272.47   13.40
   0  -1 -12   47.70    8.70
   0  -1 -12   39.90    6.60
   0  -1 -12   45.30    9.30
   0  -1 -12   53.59    8.90
   0  -1 -12   59.49   11.60
   0   1  12   55.09   13.90
  -1  -1 -12   89.39   12.60
  -1  -1 -12   78.49    7.90
  -1  -1 -12   83.99   13.30
   1   1  12   95.09   16.30
   1   1  12   76.89    6.00
  -2  -1 -12   -3.70    7.40
  -2  -1 -12    1.10    4.10
   2   1  12   -5.00    2.60
   2   1  12   -0.20    4.50
   2   1  12  -12.60    6.50
   2   1  12   -1.90    8.00
   2   1  12  -11.50    5.80
  -3  -1 -12    5.80    5.80
  -3  -1 -12    1.20    7.00
  -3  -1 -12    7.90    8.80
  -3  -1 -12    3.70    5.60
   3   1  12    8.30    6.20
   3   1  12   -6.20    5.20
   3   1  12   -9.60    7.20
   3   1  12   -0.80    8.10
  -4  -1 -12   19.30    8.80
  -4  -1 -12    1.90    9.10
  -4  -1 -12   11.90    7.40
  -4  -1 -12   10.30    9.00
  -4  -1 -12    8.10    6.70
   4   1  12    2.70    6.90
   4   1  12   13.40    8.20
   4   1  12    5.60    8.10
   4   1  12   11.70    6.10
   4   1  12    0.40    6.80
   4   1  12   18.60    8.00
  -5  -1 -12   13.60    7.90
  -5  -1 -12    9.00    8.50
  -5  -1 -12   24.10   10.80
  -5  -1 -12   17.50   10.20
   5   1  12   19.90    8.80
   5   1  12   35.80   10.90
   5   1  12   15.20    9.00
   5   1  12   17.20    7.70
   5   1  12   27.10   10.70
   5   1  12   10.10    8.90
   2  -2 -12    5.00    9.50
   2  -2 -12   15.90    6.10
   2  -2 -12   12.40    8.80
   2  -2 -12   14.80    9.70
   2  -2 -12   15.80    9.90
  -2   2  12    7.60    4.80
   1  -2 -12   -9.70    7.60
   1  -2 -12   -1.80    8.80
   1  -2 -12   18.00    7.80
   1  -2 -12   14.80    6.70
   1  -2 -12    2.00    7.00
   1  -2 -12    8.60    6.70
   1  -2 -12   11.00    8.60
  -1   2  12    6.00    4.30
   0  -2 -12  131.09   12.10
   0  -2 -12  148.69   14.00
   0  -2 -12  147.09   15.60
   0  -2 -12  161.88   16.70
   0  -2 -12  161.98   12.90
   0  -2 -12  180.08   17.70
   0   2  12  157.58   18.40
  -1  -2 -12   11.00    4.90
  -1  -2 -12   12.40    8.30
  -1  -2 -12    8.40    6.70
  -1  -2 -12    1.40    5.70
  -1  -2 -12    3.70    3.00
   1   2  12    7.40    8.30
  -2  -2 -12    4.90    3.80
  -2  -2 -12    3.90    6.20
  -2  -2 -12    6.40    4.00
  -2  -2 -12   -3.80    8.00
  -2  -2 -12    2.40    3.60
   2   2  12   -0.50    4.40
   2   2  12    3.10    7.50
   2   2  12    5.70    4.20
  -3  -2 -12    5.60   14.10
  -3  -2 -12   -0.10    8.10
  -3  -2 -12    1.10    5.10
  -3  -2 -12    2.20    5.20
   3   2  12    3.90    7.80
   3   2  12    1.90    5.10
   3   2  12    7.60    5.40
   3   2  12   -8.60    7.60
  -4  -2 -12   63.39    9.60
  -4  -2 -12   56.09   11.80
  -4  -2 -12   62.59    9.00
  -4  -2 -12   75.99   12.50
  -4  -2 -12   78.59   12.40
   4   2  12   63.49   10.70
   4   2  12   72.89   11.40
   4   2  12   56.49   11.60
   4   2  12   86.09   12.60
   4   2  12   61.69   10.50
  -5  -2 -12  598.64   29.30
  -5  -2 -12  547.05   29.90
  -5  -2 -12  600.94   32.70
  -5  -2 -12  630.24   29.10
  -5  -2 -12  554.44   27.50
   5   2  12  552.14   31.60
   5   2  12  537.95   27.80
   5   2  12  573.04   28.90
   5   2  12  567.74   28.70
   5   2  12  547.85   29.40
   5   2  12  559.54   30.20
  -6  -2 -12    0.40    8.90
  -6  -2 -12   -0.10    8.40
  -6  -2 -12   -4.50   10.70
  -6  -2 -12   14.30   10.10
  -6  -2 -12   11.80    9.50
   6   2  12   -0.10    7.70
   6   2  12    2.10    9.20
   6   2  12   20.00   13.20
   6   2  12   -4.30    8.20
   1  -3 -12   43.80    9.70
   1  -3 -12   57.49    9.70
   1  -3 -12   48.00   10.50
   1  -3 -12   34.70    7.80
   1  -3 -12   51.09   10.70
   1  -3 -12   25.40    9.40
  -1   3  12   41.30    7.10
   0  -3 -12  112.09   10.80
   0  -3 -12  106.09   13.80
   0  -3 -12  111.39   13.60
   0  -3 -12  105.89   15.20
   0  -3 -12  114.49   13.50
   0  -3 -12  120.39   15.00
   0  -3 -12   93.19   14.40
   0   3  12   78.39    8.40
  -1  -3 -12   78.99    5.20
  -1  -3 -12   86.89   14.30
  -1  -3 -12   68.99    9.60
  -1  -3 -12   73.99    4.70
  -1  -3 -12   67.29   10.00
  -1  -3 -12   69.99   11.10
  -1  -3 -12  105.59   14.20
   1   3  12   86.69   14.00
  -2  -3 -12    0.20    3.70
  -2  -3 -12   11.30    8.30
  -2  -3 -12   -3.20    3.10
  -2  -3 -12   -0.80    3.20
  -2  -3 -12  -10.70    7.20
   2   3  12   -1.80    2.90
   2   3  12   -4.30    7.70
   2   3  12   -3.30    7.10
  -3  -3 -12   15.90    5.20
  -3  -3 -12    8.70    8.20
  -3  -3 -12   22.30    4.90
  -3  -3 -12   13.50    9.70
  -3  -3 -12    8.90    3.60
   3   3  12   23.30    5.30
   3   3  12    5.10    3.30
   3   3  12   -4.20    5.50
   3   3  12   11.40    8.40
  -4  -3 -12    0.70    6.10
  -4  -3 -12    2.10    2.20
  -4  -3 -12    0.20    5.90
  -4  -3 -12    1.70    8.30
  -4  -3 -12    3.50    9.40
  -4  -3 -12    3.40    6.20
   4   3  12   -5.20    7.10
   4   3  12   -9.60    6.90
   4   3  12    4.90    6.90
   4   3  12    0.00    5.70
  -5  -3 -12   44.80    9.30
  -5  -3 -12   44.10   10.60
  -5  -3 -12   85.99   12.60
  -5  -3 -12   57.89   10.80
  -5  -3 -12   57.09   11.10
   5   3  12   53.09    9.30
   5   3  12   33.10    9.40
   5   3  12   50.89    9.70
   5   3  12   48.90    9.60
   5   3  12   54.49   12.20
   5   3  12   37.00    9.40
  -6  -3 -12   53.09   11.60
  -6  -3 -12   50.89   10.60
  -6  -3 -12   46.70    9.80
  -6  -3 -12   52.29   11.50
  -6  -3 -12   51.79   10.40
   6   3  12   54.39   12.40
   6   3  12   49.30    9.80
   6   3  12   53.79   10.40
   6   3  12   60.99   14.20
   1  -4 -12   21.50    9.20
   1  -4 -12   -4.80    9.30
   1  -4 -12  -10.20    6.90
   1  -4 -12    2.00    8.50
   1  -4 -12  -13.00    6.30
   1  -4 -12    5.70    8.90
   1  -4 -12   -0.70    6.50
  -1   4  12   -2.60    4.40
   0  -4 -12  306.57   19.00
   0  -4 -12  284.37   17.70
   0  -4 -12  309.67   20.40
   0  -4 -12  255.17   17.20
   0  -4 -12  288.17   19.50
   0  -4 -12  282.57   19.90
   0  -4 -12  255.17   19.30
   0   4  12  287.27   15.10
  -1  -4 -12    2.10    5.20
  -1  -4 -12    7.20    8.50
  -1  -4 -12   10.00    6.40
  -1  -4 -12   16.40    8.80
  -1  -4 -12    7.90    5.90
  -1  -4 -12   20.70    8.40
  -2  -4 -12  277.77   20.60
  -2  -4 -12  259.57   14.80
  -2  -4 -12  261.17   12.00
  -2  -4 -12  295.77   14.90
  -2  -4 -12  254.97   17.00
  -2  -4 -12  261.17   19.70
   2   4  12  272.57   18.30
   2   4  12  254.87    9.80
   2   4  12  260.47    9.50
   2   4  12  261.07   19.40
  -3  -4 -12   -3.80    4.10
  -3  -4 -12   -7.60    8.20
  -3  -4 -12    3.50    4.50
  -3  -4 -12    0.00    9.60
  -3  -4 -12   12.20    4.00
   3   4  12    1.60    7.40
   3   4  12    0.90    4.60
   3   4  12   -2.70    7.10
  -4  -4 -12   22.70    7.20
  -4  -4 -12   21.20   10.30
  -4  -4 -12   12.10    5.80
  -4  -4 -12   34.10   12.10
  -4  -4 -12   20.90    5.70
  -4  -4 -12    5.20    8.60
   4   4  12   18.70    6.70
   4   4  12   -1.40    9.20
   4   4  12   18.90    6.50
   4   4  12   19.40    7.70
   4   4  12   10.30    7.20
  -5  -4 -12    4.10    2.70
  -5  -4 -12    3.30    7.70
  -5  -4 -12    9.10    6.70
  -5  -4 -12   -3.10    8.50
  -5  -4 -12   10.80    6.60
  -5  -4 -12    0.90   10.70
   5   4  12    1.50   10.30
   5   4  12    2.60    6.50
   5   4  12    3.40    7.90
   5   4  12   10.40    8.10
   5   4  12   10.30    5.70
  -6  -4 -12    7.30    7.80
  -6  -4 -12   -0.50    8.30
  -6  -4 -12    0.90    3.40
  -6  -4 -12    3.40    7.90
  -6  -4 -12   -5.30    9.60
  -6  -4 -12   12.80    9.90
   6   4  12   -2.20   11.40
   6   4  12   -1.20    6.80
   6   4  12   -5.80    9.00
   6   4  12   12.00    8.40
   1  -5 -12   -0.20    7.00
   1  -5 -12    7.70    6.60
   1  -5 -12    9.90    8.80
   1  -5 -12    0.60    9.00
   1  -5 -12   -1.10   10.40
   1  -5 -12    1.30    9.40
   1  -5 -12    5.20    7.00
  -1   5  12   -3.20    5.00
   0  -5 -12   19.00    6.90
   0  -5 -12   26.90   11.00
   0  -5 -12    9.00    8.20
   0  -5 -12   11.80    7.60
   0  -5 -12   12.20    9.30
   0  -5 -12   26.40    6.60
   0  -5 -12   16.70    8.00
   0   5  12   23.20    6.00
  -1  -5 -12    0.30    6.00
  -1  -5 -12    1.90    9.20
  -1  -5 -12   -7.20    5.90
  -1  -5 -12    2.20    7.80
  -1  -5 -12    8.40    8.80
  -2  -5 -12   -0.40    2.90
  -2  -5 -12   -3.80    5.00
  -2  -5 -12    9.30    9.30
  -2  -5 -12   -4.50    5.10
  -2  -5 -12   -1.70    7.50
  -2  -5 -12   -5.60    5.30
  -2  -5 -12   -3.90    7.90
   2   5  12   11.80    7.20
  -3  -5 -12   62.79    7.80
  -3  -5 -12   75.89   14.60
  -3  -5 -12   72.29    9.50
  -3  -5 -12   52.89   11.90
  -3  -5 -12   62.69    8.30
  -3  -5 -12   51.39    8.30
   3   5  12   69.79    8.70
   3   5  12   54.69   11.70
  -4  -5 -12   13.90    5.30
  -4  -5 -12   26.40   12.70
  -4  -5 -12   25.40    8.70
  -4  -5 -12   18.80    5.50
  -4  -5 -12   26.50    7.40
  -4  -5 -12   17.40    4.30
  -4  -5 -12    9.10    9.40
   4   5  12   14.50    6.70
   4   5  12   31.10    7.00
   4   5  12   24.30    9.40
   4   5  12   17.20    8.20
   4   5  12   21.40    6.70
  -5  -5 -12   13.70    7.90
  -5  -5 -12    9.60    8.10
  -5  -5 -12   15.00    6.40
  -5  -5 -12   41.00   14.10
  -5  -5 -12   20.40    9.50
  -5  -5 -12    9.20    7.30
   5   5  12   27.60    6.50
   5   5  12   22.60    8.60
   5   5  12   23.80    8.70
   5   5  12   23.60    8.50
   5   5  12    8.80   11.60
  -6  -5 -12   58.79   12.50
  -6  -5 -12   46.70   12.90
  -6  -5 -12   36.20    8.60
   6   5  12   53.09   12.00
   6   5  12   50.89   10.10
   6   5  12   50.49   17.80
   6   5  12   65.79   11.00
   6   5  12   39.90   12.00
   0  -6 -12   -4.20    6.60
   0  -6 -12   -1.50    8.20
   0  -6 -12  -12.10    7.20
   0  -6 -12    3.80    5.80
   0  -6 -12    3.70    5.80
   0  -6 -12  -10.30    8.90
   0   6  12    1.90    5.40
  -1  -6 -12   26.40    7.10
  -1  -6 -12   32.50    6.80
  -1  -6 -12   28.00    8.30
  -1  -6 -12   32.10    9.30
  -1  -6 -12   45.50   12.60
  -1  -6 -12   34.80    7.00
  -1  -6 -12   29.00   10.00
  -2  -6 -12  114.59    7.40
  -2  -6 -12  134.19   18.20
  -2  -6 -12  124.59    7.60
  -2  -6 -12   98.69   11.50
  -2  -6 -12  124.79   17.80
  -2  -6 -12  117.39   15.20
   2   6  12  117.99   14.60
  -3  -6 -12    8.00    4.20
  -3  -6 -12    4.90    4.90
  -3  -6 -12    3.50    5.20
  -3  -6 -12    9.70   11.60
  -3  -6 -12    0.70    8.90
  -3  -6 -12   11.60    3.40
   3   6  12    2.60    3.90
  -4  -6 -12    5.00   12.40
  -4  -6 -12    1.30    4.30
  -4  -6 -12   -8.90    7.10
  -4  -6 -12    5.30    6.10
  -4  -6 -12  -17.90    8.40
  -4  -6 -12    0.10    5.30
   4   6  12   -7.80    5.60
   4   6  12   -1.50    6.20
   4   6  12   -0.60    6.50
   4   6  12  -13.00    9.60
  -5  -6 -12   15.30    8.50
  -5  -6 -12   -7.10    5.50
  -5  -6 -12    4.80    8.90
  -5  -6 -12   10.50   13.50
  -5  -6 -12   -3.40    6.40
  -5  -6 -12    0.10    9.00
   5   6  12    3.60    6.50
   5   6  12    7.80    7.70
   5   6  12   -2.10    7.70
  -6  -6 -12   51.59   18.40
  -6  -6 -12   34.50   10.00
  -6  -6 -12   45.20   11.60
  -6  -6 -12   16.70    9.60
  -6  -6 -12   23.30    8.40
  -6  -6 -12   36.80   10.50
   6   6  12   30.50   11.20
   6   6  12   33.40   15.10
   6   6  12   28.40    9.00
   0  -7 -12  122.49   14.70
   0  -7 -12  103.39   11.00
   0  -7 -12   73.49   11.40
   0  -7 -12   88.79   17.40
   0  -7 -12   68.29   17.50
   0  -7 -12   93.89   11.10
   0  -7 -12   97.99   16.20
   0   7  12   93.19   10.70
  -1  -7 -12   -5.60    8.10
  -1  -7 -12    3.40    6.40
  -1  -7 -12    3.80    4.80
  -1  -7 -12   19.80    5.80
  -1  -7 -12   12.40   12.70
  -1  -7 -12    1.60    7.60
  -2  -7 -12   18.10   10.10
  -2  -7 -12   28.70    4.30
  -2  -7 -12   29.50    5.90
  -2  -7 -12   46.20    9.80
  -2  -7 -12   44.10    6.60
  -2  -7 -12   35.40    5.40
  -2  -7 -12   41.30    7.80
  -2  -7 -12   59.79   14.00
  -2  -7 -12   32.60    5.60
   2   7  12   51.09    9.90
  -3  -7 -12  243.58   15.00
  -3  -7 -12  257.87   22.50
  -3  -7 -12  221.58   11.50
  -3  -7 -12  247.08   23.40
  -3  -7 -12  202.78   18.00
  -3  -7 -12  211.98   11.20
  -3  -7 -12  244.08   16.20
   3   7  12  198.78   11.70
   3   7  12  226.58   10.70
  -4  -7 -12   -9.60   12.30
  -4  -7 -12    3.70    8.70
  -4  -7 -12   -5.00    9.50
  -4  -7 -12   -8.10    6.50
  -4  -7 -12    0.40    4.30
  -4  -7 -12   -7.60    4.30
   4   7  12   -8.30    5.70
   4   7  12   12.50    8.70
  -5  -7 -12    9.70    9.80
  -5  -7 -12    8.90    6.40
  -5  -7 -12   15.00   11.00
  -5  -7 -12   17.80    9.20
  -5  -7 -12   24.20    6.10
   5   7  12    1.60    7.70
   5   7  12   27.30    9.20
   5   7  12   10.50    7.20
   5   7  12    6.70   13.00
  -1  -8 -12   15.00    6.20
  -1  -8 -12   12.10    3.90
  -1  -8 -12    8.20    9.10
  -1  -8 -12   12.10   10.20
  -1  -8 -12   19.00    9.20
  -2  -8 -12   -2.80    3.00
  -2  -8 -12    4.20    3.50
  -2  -8 -12    7.30    5.10
  -2  -8 -12   -0.30    9.60
  -2  -8 -12    6.70    4.20
  -2  -8 -12    0.30    2.50
  -2  -8 -12   11.20   14.20
  -2  -8 -12    3.80   12.20
  -2  -8 -12    4.00    7.40
   2   8  12   -4.00    7.90
  -3  -8 -12    3.90   12.00
  -3  -8 -12    5.10    7.50
  -3  -8 -12   13.70    9.70
  -3  -8 -12   -4.50    5.90
  -3  -8 -12   -0.10    3.00
   3   8  12    3.00    3.40
   3   8  12   -7.10    3.70
  -4  -8 -12    3.00    4.70
  -4  -8 -12   32.60   25.00
  -4  -8 -12   -1.80    9.50
  -4  -8 -12   14.30    4.00
   4   8  12    5.90    6.70
   4   8  12   -7.40   11.60
  -5  -8 -12   38.20   12.40
  -5  -8 -12   56.49    8.40
  -5  -8 -12   63.39   17.80
  -5  -8 -12   43.80   10.00
   5   8  12   41.30    9.40
   5   8  12   42.40   10.10
   5   8  12   25.40    8.80
   5   8  12   30.10   13.90
  -3  -9 -12    0.60   13.20
  -3  -9 -12    5.80   11.00
  -3  -9 -12   10.60    6.40
   3   9  12   12.30    4.10
   3   9  12    7.50    8.00
   0   1 -13   10.80    4.10
   0   1 -13    7.40    6.00
   0   1 -13   -0.60    7.30
   0  -1  13    7.10    4.40
   0  -1  13   24.10   11.70
  -1   1 -13   -6.00    4.60
  -1   1 -13  -12.80    7.70
   1  -1  13   -1.10    9.50
  -2   1 -13   -7.30    5.30
  -2   1 -13   -7.10    8.00
   2  -1  13   -1.50    9.10
   2  -1  13    3.40   10.00
   2  -1  13   11.70    7.00
   2  -1  13   -2.50    6.90
  -3   1 -13    9.50    6.90
  -3   1 -13    7.70    9.40
   3  -1  13   -5.60    9.60
   3  -1  13   -5.50    7.80
   3  -1  13  -13.10    9.60
   3  -1  13   13.90    9.00
   0   0 -13  125.89   11.00
   0   0 -13  167.68   20.90
   0   0 -13  132.59   15.30
   0   0  13  117.59    6.30
   0   0  13  140.49   19.00
  -1   0 -13    0.40    6.40
  -1   0 -13   -3.10    4.40
  -1   0 -13    4.30    7.30
   1   0  13    3.90    3.70
   1   0  13    7.20    5.00
   1   0  13   15.80   11.30
  -2   0 -13   -1.50    6.50
  -2   0 -13   -9.00   10.00
  -2   0 -13   -5.50    5.10
   2   0  13  -17.30    8.50
   2   0  13  -12.40    9.60
  -3   0 -13   17.70   13.40
  -3   0 -13    1.50    6.50
  -3   0 -13   -0.40    9.10
  -3   0 -13    4.10    6.10
   3   0  13    5.20   11.30
   3   0  13    1.70    9.20
   3   0  13  -13.40    8.10
   3   0  13   -6.40    6.20
  -4   0 -13   17.70    8.20
  -4   0 -13   20.30   10.50
   4   0  13   14.50    5.10
   4   0  13   27.80    9.80
   4   0  13   17.90    8.90
   4   0  13   26.80   12.10
   4   0  13   41.80    9.80
   0  -1 -13   17.40    8.30
   0  -1 -13   28.60   11.30
   0  -1 -13   12.90    3.80
   0  -1 -13   19.00    4.30
   0   1  13   22.40   11.20
  -1  -1 -13   11.70    6.80
  -1  -1 -13   26.90   10.60
  -1  -1 -13   11.90    4.40
  -1  -1 -13   17.00    9.30
   1   1  13   10.40    2.90
   1   1  13   15.90   10.90
  -2  -1 -13   -5.00    4.00
  -2  -1 -13   -4.00    5.10
  -2  -1 -13    2.10    8.80
  -2  -1 -13   10.40   10.80
  -2  -1 -13   -1.40    6.80
   2   1  13   -6.10    9.20
   2   1  13   10.60    5.60
  -3  -1 -13    0.10    6.70
  -3  -1 -13   -0.40    9.40
  -3  -1 -13   17.80   10.00
   3   1  13  -19.20   10.10
   3   1  13   -1.70    5.80
   3   1  13    1.30    8.40
   3   1  13   11.50   10.20
  -4  -1 -13   -6.10    8.30
  -4  -1 -13    4.10    6.80
  -4  -1 -13   12.60   10.80
   4   1  13   13.40    6.00
   4   1  13   -1.20    9.90
   4   1  13   -4.00    6.90
   4   1  13    0.80    9.30
   4   1  13   -7.20    7.90
   0  -2 -13   29.20    9.80
   0  -2 -13   29.40    6.40
   0  -2 -13   36.30   10.00
   0  -2 -13   18.10    6.50
   0  -2 -13   27.50    7.80
   0  -2 -13   23.50    8.70
  -1  -2 -13   60.89   12.50
  -1  -2 -13   56.99    6.70
  -1  -2 -13   45.30    7.10
  -1  -2 -13   38.10    7.80
  -1  -2 -13   42.10    8.00
  -1  -2 -13   47.10    6.40
  -1  -2 -13   32.10    9.30
   1   2  13   55.99   12.60
  -2  -2 -13   39.70    9.90
  -2  -2 -13   15.90    9.50
  -2  -2 -13    8.40    6.60
  -2  -2 -13   14.70    4.50
   2   2  13   13.30    7.50
   2   2  13    7.50    3.10
   2   2  13   12.40    4.60
   2   2  13   23.50    9.90
  -3  -2 -13   10.30    5.80
  -3  -2 -13   15.70    5.90
  -3  -2 -13   18.90    8.40
  -3  -2 -13   10.70    7.30
  -3  -2 -13    7.90    9.90
   3   2  13   10.10    8.40
   3   2  13   20.30    9.20
   3   2  13   20.70    6.60
  -4  -2 -13   10.60    9.80
  -4  -2 -13    4.40    6.70
  -4  -2 -13   14.80   10.80
  -4  -2 -13   -9.20    6.10
  -4  -2 -13   -7.20    7.20
   4   2  13   -5.90    8.80
   4   2  13    9.40    7.90
   4   2  13    8.20    8.00
   4   2  13   -1.60    6.40
   4   2  13   -2.00    6.50
   4   2  13   -0.20   10.10
  -5  -2 -13  118.99   16.20
  -5  -2 -13   76.49   15.10
  -5  -2 -13   65.99   11.70
  -5  -2 -13  122.49   16.70
  -5  -2 -13   61.49   13.30
   5   2  13  133.39   18.90
   5   2  13  105.79   17.50
   5   2  13   68.89   15.50
   5   2  13  125.19   15.20
   5   2  13  105.49   17.00
   0  -3 -13   22.00    9.90
   0  -3 -13   15.20    8.30
   0  -3 -13    4.20    8.70
   0  -3 -13    4.20    8.00
   0  -3 -13    9.70    7.40
   0  -3 -13   14.40    8.30
   0  -3 -13   29.20    7.30
  -1  -3 -13   33.30    7.90
  -1  -3 -13   44.10   10.70
  -1  -3 -13   36.10    9.40
  -1  -3 -13   38.70    7.40
  -1  -3 -13   36.40    9.00
  -2  -3 -13   44.30    8.30
  -2  -3 -13   55.89   11.60
  -2  -3 -13   51.89   11.70
  -2  -3 -13   57.79    8.30
  -2  -3 -13   39.70    6.90
  -2  -3 -13   47.30   10.20
   2   3  13   45.30   10.30
   2   3  13   47.60   10.90
   2   3  13   40.00    5.30
  -3  -3 -13  -10.80    8.80
  -3  -3 -13   -0.40    9.10
  -3  -3 -13    6.20    9.60
  -3  -3 -13    6.30    4.90
  -3  -3 -13    9.40    5.30
  -3  -3 -13    6.90    3.50
   3   3  13    5.80    5.20
   3   3  13    1.10    7.70
   3   3  13    6.70    7.60
  -4  -3 -13    4.50    7.60
  -4  -3 -13    1.00    6.80
  -4  -3 -13   17.20    6.60
  -4  -3 -13   16.00    9.20
  -4  -3 -13   24.50   11.10
   4   3  13    9.20    7.80
   4   3  13   17.40    8.10
   4   3  13   25.80    8.10
   4   3  13    7.70    6.20
   4   3  13    7.00    8.80
  -5  -3 -13   14.10    8.10
  -5  -3 -13   10.50    7.70
  -5  -3 -13   23.80   10.80
  -5  -3 -13   -4.10    7.90
   5   3  13   13.60    7.20
   5   3  13   11.20    8.80
   5   3  13    7.70   10.00
   5   3  13   14.30    8.50
   5   3  13   17.10    8.80
   0  -4 -13   -2.50    6.10
   0  -4 -13    0.60    7.60
   0  -4 -13    0.40    8.70
   0  -4 -13   13.70   10.30
   0  -4 -13   18.30    9.60
   0  -4 -13    6.60    8.30
  -1  -4 -13   13.30    6.70
  -1  -4 -13    9.30    9.00
  -1  -4 -13    2.30    6.90
  -1  -4 -13   -7.50    6.70
  -1  -4 -13   12.20    8.80
  -1  -4 -13   18.90   10.10
  -2  -4 -13   -2.00    8.90
  -2  -4 -13    7.60    9.30
  -2  -4 -13    4.50    5.70
  -2  -4 -13   -4.60    6.70
  -2  -4 -13   -3.00    2.80
  -2  -4 -13   10.90    6.40
  -2  -4 -13    2.00    4.30
   2   4  13    4.20    7.30
  -3  -4 -13    0.60    9.50
  -3  -4 -13    2.70    4.30
  -3  -4 -13   10.70    4.80
  -3  -4 -13    7.10    7.20
  -3  -4 -13    1.00    4.50
  -3  -4 -13   12.30   10.00
   3   4  13   -5.70    8.10
   3   4  13    0.50    4.70
   3   4  13    1.30    3.20
   3   4  13   -2.50    7.20
  -4  -4 -13   -4.50    6.20
  -4  -4 -13    1.20    3.40
  -4  -4 -13   -0.90    9.80
  -4  -4 -13    0.60    7.70
  -4  -4 -13   19.90   12.50
  -4  -4 -13   -5.80    5.60
   4   4  13   -4.20    8.70
   4   4  13   15.20    8.10
   4   4  13   -0.10    5.00
   4   4  13    7.20    6.10
  -5  -4 -13    3.80   10.90
  -5  -4 -13    7.70    7.40
  -5  -4 -13   12.00    8.10
  -5  -4 -13   10.60    7.80
  -5  -4 -13    9.00   10.50
  -5  -4 -13    2.90    2.50
   5   4  13    3.60    7.80
   5   4  13    1.40    7.80
   5   4  13    4.00   11.20
   5   4  13   13.30    8.20
   0  -5 -13   69.39   11.70
   0  -5 -13   33.40   10.60
   0  -5 -13   42.70    9.90
   0  -5 -13   30.70   10.30
   0  -5 -13   38.30    8.60
   0  -5 -13   38.90   12.40
   0  -5 -13   48.80   11.00
   0   5  13   50.19    8.50
  -1  -5 -13   56.79    9.10
  -1  -5 -13   50.79    9.60
  -1  -5 -13   65.69   11.70
  -1  -5 -13   85.09   12.30
  -1  -5 -13   68.59   13.80
  -1  -5 -13   50.59   11.40
  -1  -5 -13   57.29    9.00
  -2  -5 -13    5.50    2.60
  -2  -5 -13    5.80    2.90
  -2  -5 -13   12.50    6.20
  -2  -5 -13   21.90    9.90
  -2  -5 -13   19.20    6.40
  -2  -5 -13    2.70   10.60
  -2  -5 -13   -8.70   12.90
   2   5  13    8.70    8.70
  -3  -5 -13   61.19   14.10
  -3  -5 -13   46.80   11.50
  -3  -5 -13   63.79    7.60
  -3  -5 -13   64.79    9.00
  -3  -5 -13   61.09    9.50
  -3  -5 -13   50.09   12.00
   3   5  13   52.39    7.90
   3   5  13   58.59   10.70
   3   5  13   48.60    5.50
  -4  -5 -13   26.80    9.60
  -4  -5 -13   26.90    7.90
  -4  -5 -13   47.80    7.70
  -4  -5 -13   32.00   11.40
  -4  -5 -13   49.90    7.30
  -4  -5 -13   41.10    6.30
  -4  -5 -13   33.70   13.60
   4   5  13   33.60    9.10
   4   5  13   40.20    8.40
   4   5  13   41.80   11.60
  -5  -5 -13   72.39   14.20
  -5  -5 -13   64.59    7.80
  -5  -5 -13   49.80   14.40
  -5  -5 -13   66.59    9.30
   5   5  13  108.29   13.40
   5   5  13   75.59   11.90
   5   5  13   87.39   15.50
   5   5  13   71.59   11.10
   5   5  13  109.09   15.80
  -1  -6 -13    7.30    6.40
  -1  -6 -13   19.90   11.90
  -1  -6 -13  -10.30    9.10
  -1  -6 -13   10.10    7.90
  -1  -6 -13   -5.60    6.60
  -1  -6 -13   13.80    6.70
  -1  -6 -13   12.60    9.30
  -2  -6 -13    1.10    6.80
  -2  -6 -13    2.00    9.90
  -2  -6 -13   -0.40    9.60
  -2  -6 -13   -2.10    1.50
  -2  -6 -13   15.40   11.20
   2   6  13    9.60    8.30
  -3  -6 -13   -0.60   10.30
  -3  -6 -13   15.80    5.00
  -3  -6 -13   -0.30    9.90
  -3  -6 -13   -0.10    3.50
  -3  -6 -13   25.80   11.80
  -3  -6 -13    2.40    5.20
  -3  -6 -13   14.60    6.30
   3   6  13    0.90    3.50
   3   6  13    5.50    2.50
   3   6  13   13.80    8.10
  -4  -6 -13    1.70   13.10
  -4  -6 -13  -11.70    8.80
  -4  -6 -13   14.20    6.60
  -4  -6 -13   -0.80    4.70
   4   6  13   -9.10   10.40
   4   6  13    5.50    4.40
   4   6  13   -5.10    7.20
  -2  -7 -13   58.09   10.20
  -2  -7 -13   43.80    7.10
  -2  -7 -13   62.99   13.30
  -2  -7 -13   68.59   16.70
   2   7  13   54.49   10.10
  -3  -7 -13   13.90   12.60
  -3  -7 -13   -6.90    3.40
  -3  -7 -13  -11.30    6.20
  -3  -7 -13    0.80    4.70
  -3  -7 -13    5.30   10.70
  -3  -7 -13    2.70    4.30
   3   7  13   -1.30    2.40
   3   7  13    0.70    7.30
  -4  -7 -13   23.20   10.40
  -4  -7 -13   57.09   16.10
  -4  -7 -13   30.80    6.80
   4   7  13    8.50    8.40
   4   7  13   34.20    5.60
  -2  -2 -14   88.69   10.50
  -2  -2 -14   76.39   13.20
  -2  -2 -14   59.79    8.70
   2   2  14   66.39    8.20
   2   2  14   70.69   14.20
  -2  -3 -14   -7.70    9.40
  -2  -3 -14    8.70    5.40
  -2  -3 -14   -0.50    9.70
  -2  -3 -14   -6.40    3.40
  -2  -3 -14   12.20    8.00
   2   3  14    6.40   16.20
  -3  -3 -14   34.70    6.00
  -3  -3 -14   44.50   11.30
  -3  -3 -14   37.20    6.40
   3   3  14   41.00    7.00
   3   3  14   53.69   11.90
   3   3  14   43.00   10.40
  -2  -4 -14    8.50   10.60
  -2  -4 -14   13.00    3.10
  -2  -4 -14   18.20   10.10
  -2  -4 -14   19.30    3.80
  -2  -4 -14   27.00    6.90
  -3  -4 -14   14.90    5.10
  -3  -4 -14   -1.60    4.40
  -3  -4 -14   25.00   10.80
  -3  -4 -14   14.50   10.80
  -3  -4 -14    1.40    5.20
   3   4  14    3.30    4.50
   3   4  14    2.70    8.60
   3   4  14    2.60    9.60
   0   0   0    0.00    0.00

_computing_structure_solution     'SHELXT 2014/5 (Sheldrick, 2014)'
;
_shelx_hkl_checksum              74011
_olex2_submission_special_instructions 'No special instructions were received'
loop_
_space_group_symop_operation_xyz
'x, y, z'
'-x, -y, -z'
loop_
_atom_site_label
_atom_site_type_symbol
_atom_site_fract_x
_atom_site_fract_y
_atom_site_fract_z
_atom_site_U_iso_or_equiv
_atom_site_adp_type
_atom_site_occupancy
_atom_site_site_symmetry_order
_atom_site_calc_flag
_atom_site_refinement_flags_posn
_atom_site_refinement_flags_adp
_atom_site_refinement_flags_occupancy
_atom_site_disorder_assembly
_atom_site_disorder_group
O1 O 1.5985(2) 0.10212(18) 0.31046(16) 0.0524(5) Uani 1 1 d . . . . .
O2 O -0.4659(2) 0.83910(18) 1.16780(15) 0.0526(5) Uani 1 1 d . . . . .
O3 O -0.5912(3) 0.8538(2) 1.01170(19) 0.0725(7) Uani 1 1 d . . . . .
O4 O 1.7734(3) 0.1535(2) 0.4141(2) 0.0746(7) Uani 1 1 d . . . . .
C1 C 1.7849(4) 0.0339(3) 0.2409(2) 0.0548(7) Uani 1 1 d . . . . .
H1A H 1.8843 0.0875 0.2174 0.082 Uiso 1 1 calc R U . . .
H1B H 1.7604 0.0179 0.1705 0.082 Uiso 1 1 calc R U . . .
H1C H 1.8338 -0.0490 0.2885 0.082 Uiso 1 1 calc R U . . .
C2 C 1.6145(3) 0.1575(2) 0.3953(2) 0.0410(6) Uani 1 1 d . . . . .
C3 C 1.4144(3) 0.2233(2) 0.46240(19) 0.0375(5) Uani 1 1 d . . . . .
C4 C 1.2342(3) 0.2068(2) 0.4505(2) 0.0431(6) Uani 1 1 d . . . . .
H4 H 1.2358 0.1545 0.3977 0.052 Uiso 1 1 calc R U . . .
C5 C 1.0521(3) 0.2672(2) 0.5165(2) 0.0447(6) Uani 1 1 d . . . . .
H5 H 0.9315 0.2555 0.5079 0.054 Uiso 1 1 calc R U . . .
C6 C 1.0472(3) 0.3460(2) 0.59608(19) 0.0394(5) Uani 1 1 d . . . . .
C7 C 0.8563(4) 0.4069(2) 0.6642(2) 0.0425(6) Uani 1 1 d . . . . .
C8 C 0.6910(4) 0.4554(2) 0.7182(2) 0.0444(6) Uani 1 1 d . . . . .
C9 C 0.5025(4) 0.5126(2) 0.7779(2) 0.0447(6) Uani 1 1 d . . . . .
C10 C 0.3352(4) 0.5631(2) 0.8286(2) 0.0447(6) Uani 1 1 d . . . . .
C11 C 0.1376(3) 0.6255(2) 0.8874(2) 0.0407(6) Uani 1 1 d . . . . .
C12 C -0.0271(4) 0.6479(2) 0.8377(2) 0.0482(6) Uani 1 1 d . . . . .
H12 H -0.0093 0.6208 0.7657 0.058 Uiso 1 1 calc R U . . .
C13 C -0.2165(4) 0.7098(2) 0.8945(2) 0.0468(6) Uani 1 1 d . . . . .
H13 H -0.3258 0.7244 0.8606 0.056 Uiso 1 1 calc R U . . .
C14 C -0.2451(3) 0.7505(2) 1.0020(2) 0.0390(5) Uani 1 1 d . . . . .
C15 C -0.4517(4) 0.8191(2) 1.0585(2) 0.0441(6) Uani 1 1 d . . . . .
C16 C -0.6601(4) 0.9090(3) 1.2266(3) 0.0631(8) Uani 1 1 d . . . . .
H16A H -0.6903 0.9968 1.1814 0.095 Uiso 1 1 calc R U . . .
H16B H -0.6570 0.9140 1.3059 0.095 Uiso 1 1 calc R U . . .
H16C H -0.7625 0.8628 1.2318 0.095 Uiso 1 1 calc R U . . .
C17 C 0.1086(3) 0.6663(2) 0.9953(2) 0.0460(6) Uani 1 1 d . . . . .
H17 H 0.2175 0.6516 1.0296 0.055 Uiso 1 1 calc R U . . .
C18 C -0.0819(4) 0.7288(2) 1.0517(2) 0.0444(6) Uani 1 1 d . . . . .
H18 H -0.1002 0.7563 1.1236 0.053 Uiso 1 1 calc R U . . .
C19 C 1.4101(3) 0.3027(2) 0.5407(2) 0.0452(6) Uani 1 1 d . . . . .
H19 H 1.5309 0.3149 0.5487 0.054 Uiso 1 1 calc R U . . .
C20 C 1.2284(4) 0.3635(2) 0.6065(2) 0.0460(6) Uani 1 1 d . . . . .
H20 H 1.2273 0.4168 0.6584 0.055 Uiso 1 1 calc R U . . .
loop_
_atom_site_aniso_label
_atom_site_aniso_U_11
_atom_site_aniso_U_22
_atom_site_aniso_U_33
_atom_site_aniso_U_23
_atom_site_aniso_U_13
_atom_site_aniso_U_12
O1 0.0377(9) 0.0618(11) 0.0618(11) -0.0308(9) -0.0117(8) 0.0001(8)
O2 0.0416(10) 0.0586(11) 0.0514(10) -0.0195(8) -0.0046(8) 0.0011(8)
O3 0.0439(11) 0.0979(17) 0.0779(14) -0.0315(12) -0.0233(10) 0.0047(10)
O4 0.0347(10) 0.1107(18) 0.0930(16) -0.0549(13) -0.0192(10) -0.0021(10)
C1 0.0434(14) 0.0555(16) 0.0621(16) -0.0262(13) -0.0058(12) 0.0017(11)
C2 0.0393(13) 0.0415(13) 0.0444(13) -0.0101(10) -0.0137(10) -0.0066(10)
C3 0.0357(12) 0.0394(12) 0.0379(12) -0.0076(9) -0.0124(9) -0.0045(9)
C4 0.0379(12) 0.0516(14) 0.0453(13) -0.0187(11) -0.0116(10) -0.0081(10)
C5 0.0317(11) 0.0580(15) 0.0489(13) -0.0157(11) -0.0104(10) -0.0106(10)
C6 0.0351(12) 0.0425(12) 0.0356(11) -0.0051(10) -0.0072(9) -0.0035(10)
C7 0.0430(13) 0.0416(13) 0.0405(12) -0.0064(10) -0.0086(10) -0.0074(10)
C8 0.0444(14) 0.0426(13) 0.0420(13) -0.0073(10) -0.0056(11) -0.0082(11)
C9 0.0460(14) 0.0415(13) 0.0434(13) -0.0084(10) -0.0049(11) -0.0094(11)
C10 0.0467(14) 0.0385(13) 0.0447(13) -0.0066(10) -0.0040(11) -0.0107(10)
C11 0.0384(12) 0.0360(12) 0.0426(12) -0.0077(9) -0.0012(10) -0.0083(9)
C12 0.0526(15) 0.0503(14) 0.0445(13) -0.0197(11) -0.0101(11) -0.0071(11)
C13 0.0440(14) 0.0494(14) 0.0516(14) -0.0123(11) -0.0185(11) -0.0069(11)
C14 0.0385(12) 0.0359(12) 0.0411(12) -0.0053(9) -0.0088(10) -0.0076(9)
C15 0.0395(13) 0.0403(13) 0.0510(14) -0.0062(10) -0.0093(11) -0.0098(10)
C16 0.0479(15) 0.0622(17) 0.0649(17) -0.0193(14) 0.0023(13) 0.0018(13)
C17 0.0364(12) 0.0540(15) 0.0481(13) -0.0118(11) -0.0113(10) -0.0072(10)
C18 0.0432(13) 0.0515(14) 0.0400(12) -0.0152(11) -0.0074(10) -0.0092(11)
C19 0.0358(12) 0.0545(14) 0.0526(14) -0.0164(11) -0.0170(10) -0.0083(10)
C20 0.0464(13) 0.0505(14) 0.0455(13) -0.0196(11) -0.0129(11) -0.0054(11)
loop_
_atom_type_symbol
_atom_type_description
_atom_type_scat_dispersion_real
_atom_type_scat_dispersion_imag
_atom_type_scat_source
C C 0.0033 0.0016 'International Tables Vol C Tables 4.2.6.8 and 6.1.1.4'
H H 0.0000 0.0000 'International Tables Vol C Tables 4.2.6.8 and 6.1.1.4'
O O 0.0106 0.0060 'International Tables Vol C Tables 4.2.6.8 and 6.1.1.4'
loop_
_exptl_crystal_face_index_h
_exptl_crystal_face_index_k
_exptl_crystal_face_index_l
_exptl_crystal_face_perp_dist
1.00 -1.00 -3.00 0.1030
-3.00 -2.00 0.00 0.0860
0.00 1.00 2.00 0.0830
2.00 3.00 3.00 0.0970
0.00 -3.00 1.00 0.0580
0.00 1.00 0.00 0.0670
0.00 -1.00 -3.00 0.1230
-3.00 -1.00 -3.00 0.1110
loop_
_geom_angle_atom_site_label_1
_geom_angle_atom_site_label_2
_geom_angle_atom_site_label_3
_geom_angle
_geom_angle_site_symmetry_1
_geom_angle_site_symmetry_3
_geom_angle_publ_flag
C2 O1 C1 116.73(19) . . ?
C15 O2 C16 115.9(2) . . ?
O1 C1 H1A 109.5 . . ?
O1 C1 H1B 109.5 . . ?
O1 C1 H1C 109.5 . . ?
H1A C1 H1B 109.5 . . ?
H1A C1 H1C 109.5 . . ?
H1B C1 H1C 109.5 . . ?
O1 C2 C3 112.41(19) . . ?
O4 C2 O1 122.7(2) . . ?
O4 C2 C3 124.9(2) . . ?
C4 C3 C2 122.2(2) . . ?
C4 C3 C19 119.3(2) . . ?
C19 C3 C2 118.44(19) . . ?
C3 C4 H4 119.8 . . ?
C5 C4 C3 120.3(2) . . ?
C5 C4 H4 119.8 . . ?
C4 C5 H5 119.7 . . ?
C4 C5 C6 120.5(2) . . ?
C6 C5 H5 119.7 . . ?
C5 C6 C7 119.5(2) . . ?
C20 C6 C5 118.9(2) . . ?
C20 C6 C7 121.7(2) . . ?
C8 C7 C6 176.5(3) . . ?
C7 C8 C9 178.9(3) . . ?
C10 C9 C8 178.7(3) . . ?
C9 C10 C11 178.8(3) . . ?
C12 C11 C10 121.0(2) . . ?
C12 C11 C17 119.1(2) . . ?
C17 C11 C10 119.9(2) . . ?
C11 C12 H12 119.8 . . ?
C13 C12 C11 120.4(2) . . ?
C13 C12 H12 119.8 . . ?
C12 C13 H13 119.8 . . ?
C12 C13 C14 120.4(2) . . ?
C14 C13 H13 119.8 . . ?
C13 C14 C15 118.2(2) . . ?
C18 C14 C13 119.4(2) . . ?
C18 C14 C15 122.3(2) . . ?
O2 C15 C14 112.7(2) . . ?
O3 C15 O2 123.0(2) . . ?
O3 C15 C14 124.3(2) . . ?
O2 C16 H16A 109.5 . . ?
O2 C16 H16B 109.5 . . ?
O2 C16 H16C 109.5 . . ?
H16A C16 H16B 109.5 . . ?
H16A C16 H16C 109.5 . . ?
H16B C16 H16C 109.5 . . ?
C11 C17 H17 119.9 . . ?
C18 C17 C11 120.1(2) . . ?
C18 C17 H17 119.9 . . ?
C14 C18 C17 120.5(2) . . ?
C14 C18 H18 119.8 . . ?
C17 C18 H18 119.8 . . ?
C3 C19 H19 119.8 . . ?
C20 C19 C3 120.5(2) . . ?
C20 C19 H19 119.8 . . ?
C6 C20 H20 119.8 . . ?
C19 C20 C6 120.5(2) . . ?
C19 C20 H20 119.8 . . ?
loop_
_geom_bond_atom_site_label_1
_geom_bond_atom_site_label_2
_geom_bond_distance
_geom_bond_site_symmetry_2
_geom_bond_publ_flag
O1 C1 1.445(3) . ?
O1 C2 1.328(3) . ?
O2 C15 1.333(3) . ?
O2 C16 1.439(3) . ?
O3 C15 1.197(3) . ?
O4 C2 1.193(3) . ?
C1 H1A 0.9600 . ?
C1 H1B 0.9600 . ?
C1 H1C 0.9600 . ?
C2 C3 1.486(3) . ?
C3 C4 1.381(3) . ?
C3 C19 1.390(3) . ?
C4 H4 0.9300 . ?
C4 C5 1.377(3) . ?
C5 H5 0.9300 . ?
C5 C6 1.396(3) . ?
C6 C7 1.429(3) . ?
C6 C20 1.386(3) . ?
C7 C8 1.201(3) . ?
C8 C9 1.368(3) . ?
C9 C10 1.204(3) . ?
C10 C11 1.428(3) . ?
C11 C12 1.390(3) . ?
C11 C17 1.392(3) . ?
C12 H12 0.9300 . ?
C12 C13 1.377(3) . ?
C13 H13 0.9300 . ?
C13 C14 1.387(3) . ?
C14 C15 1.486(3) . ?
C14 C18 1.382(3) . ?
C16 H16A 0.9600 . ?
C16 H16B 0.9600 . ?
C16 H16C 0.9600 . ?
C17 H17 0.9300 . ?
C17 C18 1.383(3) . ?
C18 H18 0.9300 . ?
C19 H19 0.9300 . ?
C19 C20 1.376(3) . ?
C20 H20 0.9300 . ?
loop_
_geom_torsion_atom_site_label_1
_geom_torsion_atom_site_label_2
_geom_torsion_atom_site_label_3
_geom_torsion_atom_site_label_4
_geom_torsion
_geom_torsion_site_symmetry_1
_geom_torsion_site_symmetry_2
_geom_torsion_site_symmetry_3
_geom_torsion_site_symmetry_4
_geom_torsion_publ_flag
O1 C2 C3 C4 10.8(3) . . . . ?
O1 C2 C3 C19 -170.1(2) . . . . ?
O4 C2 C3 C4 -169.2(3) . . . . ?
O4 C2 C3 C19 10.0(4) . . . . ?
C1 O1 C2 O4 0.7(4) . . . . ?
C1 O1 C2 C3 -179.27(19) . . . . ?
C2 C3 C4 C5 178.5(2) . . . . ?
C2 C3 C19 C20 -178.7(2) . . . . ?
C3 C4 C5 C6 0.0(4) . . . . ?
C3 C19 C20 C6 0.3(4) . . . . ?
C4 C3 C19 C20 0.5(4) . . . . ?
C4 C5 C6 C7 -179.6(2) . . . . ?
C4 C5 C6 C20 0.8(4) . . . . ?
C5 C6 C20 C19 -0.9(4) . . . . ?
C7 C6 C20 C19 179.4(2) . . . . ?
C10 C11 C12 C13 -179.1(2) . . . . ?
C10 C11 C17 C18 179.0(2) . . . . ?
C11 C12 C13 C14 -0.1(4) . . . . ?
C11 C17 C18 C14 0.4(4) . . . . ?
C12 C11 C17 C18 -0.3(4) . . . . ?
C12 C13 C14 C15 178.9(2) . . . . ?
C12 C13 C14 C18 0.2(4) . . . . ?
C13 C14 C15 O2 172.4(2) . . . . ?
C13 C14 C15 O3 -8.0(4) . . . . ?
C13 C14 C18 C17 -0.3(4) . . . . ?
C15 C14 C18 C17 -179.0(2) . . . . ?
C16 O2 C15 O3 -1.6(4) . . . . ?
C16 O2 C15 C14 178.0(2) . . . . ?
C17 C11 C12 C13 0.1(4) . . . . ?
C18 C14 C15 O2 -8.9(3) . . . . ?
C18 C14 C15 O3 170.7(3) . . . . ?
C19 C3 C4 C5 -0.7(4) . . . . ?
