#------------------------------------------------------------------------------
#$Date: 2021-11-12 02:03:43 +0200 (Fri, 12 Nov 2021) $
#$Revision: 270610 $
#$URL: file:///home/coder/svn-repositories/cod/cif/7/70/87/7708799.cif $
#------------------------------------------------------------------------------
#
# This file is available in the Crystallography Open Database (COD),
# http://www.crystallography.net/
#
# All data on this site have been placed in the public domain by the
# contributors.
#
data_7708799
loop_
_publ_author_name
'Nimax, Patrick'
'Rotthowe, Nils'
'Zoller, Florian'
'Blockhaus, Tobias'
'Wagner, Friedrich Ernst'
'Fattakhova-Rohlfing, Dina'
'S\"unkel, Karlheinz'
_publ_section_title
;
 Coordination polymers of 5-substituted
 1,2,3,4-tetracyanocyclopentadienides: structural and electrochemical
 properties of complex compounds of 5-amino- and
 5-nitro-tetracyanocyclopentadienide
;
_journal_name_full               'Dalton Transactions'
_journal_paper_doi               10.1039/D1DT02866A
_journal_year                    2021
_chemical_formula_moiety         'C9 H2 Ag N5 O3'
_chemical_formula_sum            'C9 H2 Ag N5 O3'
_chemical_formula_weight         336.03
_space_group_crystal_system      orthorhombic
_space_group_IT_number           62
_space_group_name_Hall           '-P 2ac 2n'
_space_group_name_H-M_alt        'P n m a'
_atom_sites_solution_hydrogens   difmap
_atom_sites_solution_primary     dual
_audit_creation_method           SHELXL-2018/3
_audit_update_record
;
2021-06-26 deposited with the CCDC.	2021-11-11 downloaded from the CCDC.
;
_cell_angle_alpha                90
_cell_angle_beta                 90
_cell_angle_gamma                90
_cell_formula_units_Z            4
_cell_length_a                   6.1700(3)
_cell_length_b                   10.8301(6)
_cell_length_c                   16.8422(9)
_cell_measurement_reflns_used    6302
_cell_measurement_temperature    123(2)
_cell_measurement_theta_max      26.3791
_cell_measurement_theta_min      3.9889
_cell_volume                     1125.42(10)
_computing_cell_refinement       'APEX2 v2012.4-3 (Bruker AXS)'
_computing_data_collection       'Bruker Instrument Service v3.0.21'
_computing_data_reduction        'SAINT V8.18C (Bruker AXS Inc., 2011)'
_computing_structure_refinement  'SHELXL-2018/3 (Sheldrick, 2018)'
_computing_structure_solution    'SHELXT 2014/5 (Sheldrick, 2014)'
_diffrn_ambient_temperature      123(2)
_diffrn_detector_area_resol_mean 7.3910
_diffrn_measured_fraction_theta_full 0.998
_diffrn_measured_fraction_theta_max 0.998
_diffrn_measurement_device_type  'D8 Venture'
_diffrn_measurement_method       'mix of omega and phi scans'
_diffrn_radiation_type           MoK\a
_diffrn_radiation_wavelength     0.71073
_diffrn_reflns_av_R_equivalents  0.0345
_diffrn_reflns_av_unetI/netI     0.0190
_diffrn_reflns_Laue_measured_fraction_full 0.998
_diffrn_reflns_Laue_measured_fraction_max 0.998
_diffrn_reflns_limit_h_max       7
_diffrn_reflns_limit_h_min       -7
_diffrn_reflns_limit_k_max       13
_diffrn_reflns_limit_k_min       -13
_diffrn_reflns_limit_l_max       21
_diffrn_reflns_limit_l_min       -20
_diffrn_reflns_number            10487
_diffrn_reflns_point_group_measured_fraction_full 0.998
_diffrn_reflns_point_group_measured_fraction_max 0.998
_diffrn_reflns_theta_full        25.242
_diffrn_reflns_theta_max         26.380
_diffrn_reflns_theta_min         3.517
_diffrn_source                   'rotating anode generator'
_exptl_absorpt_coefficient_mu    1.799
_exptl_absorpt_correction_T_max  0.7454
_exptl_absorpt_correction_T_min  0.6764
_exptl_absorpt_correction_type   multi-scan
_exptl_absorpt_process_details
;
 SADABS 2016/2: Krause, L., Herbst-Irmer, R., Sheldrick G.M. & Stalke D.,
 J. Appl. Cryst. 48 (2015) 3-10
;
_exptl_crystal_colour            yellow
_exptl_crystal_density_diffrn    1.983
_exptl_crystal_density_method    'not measured'
_exptl_crystal_description       block
_exptl_crystal_F_000             648
_exptl_crystal_size_max          0.030
_exptl_crystal_size_mid          0.020
_exptl_crystal_size_min          0.020
_refine_diff_density_max         0.637
_refine_diff_density_min         -0.888
_refine_diff_density_rms         0.076
_refine_ls_extinction_method     none
_refine_ls_goodness_of_fit_ref   1.100
_refine_ls_hydrogen_treatment    refxyz
_refine_ls_matrix_type           full
_refine_ls_number_parameters     107
_refine_ls_number_reflns         1219
_refine_ls_number_restraints     2
_refine_ls_restrained_S_all      1.099
_refine_ls_R_factor_all          0.0360
_refine_ls_R_factor_gt           0.0279
_refine_ls_shift/su_max          0.000
_refine_ls_shift/su_mean         0.000
_refine_ls_structure_factor_coef Fsqd
_refine_ls_weighting_details
'w=1/[\s^2^(Fo^2^)+(0.0060P)^2^+2.7273P] where P=(Fo^2^+2Fc^2^)/3'
_refine_ls_weighting_scheme      calc
_refine_ls_wR_factor_gt          0.0555
_refine_ls_wR_factor_ref         0.0617
_reflns_Friedel_coverage         0.000
_reflns_number_gt                1061
_reflns_number_total             1219
_reflns_threshold_expression     'I > 2\s(I)'
_cod_data_source_file            d1dt02866a1.cif
_cod_data_source_block           compd2b
_cod_database_code               7708799
_publcif_datablock.id            {811626d7-95d4-4140-a02e-d84f3fa7db47}
_shelx_shelxl_version_number     2018/3
_shelx_space_group_comment
;
The symmetry employed for this shelxl refinement is uniquely defined
by the following loop, which should always be used as a source of
symmetry information in preference to the above space-group names.
They are only intended as comments.
;
_shelx_estimated_absorpt_t_min   0.948
_shelx_estimated_absorpt_t_max   0.965
_shelx_res_file
;
TITL shelxt_a.res in Pnma
    shelx.res
    created by SHELXL-2018/3 at 07:31:12 on 25-Jun-2021
CELL  0.71073   6.1700  10.8301  16.8422   90.000   90.000   90.000
ZERR     4.00   0.0003   0.0006   0.0009    0.000    0.000    0.000
LATT   1
SYMM  1/2 - X, - Y, 1/2 + Z
SYMM  - X, 1/2 + Y, - Z
SYMM  1/2 + X, 1/2 - Y, 1/2 - Z
SFAC  C    H    N    O    AG
UNIT  36 8 20 12 4
MERG   2
OMIT     0   0   2
OMIT  0  1  1
DFIX 0.86 O1W H1W O1W H2W
SIZE  0.03  0.02  0.02
TEMP  -150
FMAP   2
PLAN    5
ACTA
HTAB 2
EQIV $4 -x+1, y-1/2, -z+1
HTAB O1W O2B_$4
BOND   $H
LIST   4
L.S.  32
WGHT    0.006000    2.727300
FVAR       0.52538
C1    1    0.733061    0.314383    0.642458    11.00000    0.02767    0.05372 =
         0.02093   -0.00334    0.00243   -0.00315
C2    1    0.542655    0.354931    0.605301    11.00000    0.02784    0.04770 =
         0.02362   -0.00415    0.00309   -0.00030
C3    1    0.426474    0.250000    0.581246    10.50000    0.02586    0.05142 =
         0.02415    0.00000   -0.00002    0.00000
C4    1    0.470915    0.478918    0.595810    11.00000    0.03123    0.05569 =
         0.02867   -0.00908    0.00140   -0.00176
C5    1    0.232150    0.250000    0.535235    10.50000    0.03314    0.04179 =
         0.02619    0.00000    0.00328    0.00000
PART  1
N1B   3    0.894406    0.409081    0.671348    10.50000    0.03337
O1B   4    1.060390    0.356146    0.698489    10.50000    0.03706    0.06579 =
         0.03769    0.00290   -0.00934   -0.00555
O2B   4    0.869540    0.515623    0.665888    10.50000    0.05393    0.04557 =
         0.07793   -0.00996   -0.00632   -0.00890
PART  2
N1A   3    1.019467    0.454417    0.700531    10.50000    0.03611    0.06265 =
         0.03926   -0.00102   -0.00263   -0.01042
C6A   1    0.899739    0.379346    0.675151    10.50000    0.02724
PART  0
N2    3    0.404545    0.575999    0.587617    11.00000    0.04944    0.04887 =
         0.04578   -0.00831    0.00393    0.00439
N3    3    0.079684    0.250000    0.497151    10.50000    0.03336    0.05687 =
         0.03371    0.00000   -0.00673    0.00000
AG1   5   -0.201596    0.250000    0.414498    10.50000    0.04567    0.05985 =
         0.03946    0.00000   -0.01322    0.00000
O1W   4   -0.106879    0.250000    0.275973    10.50000    0.20238    0.21848 =
         0.03938    0.00000    0.00951    0.00000
H1W   2    0.030962    0.239863    0.276037    10.50000   -1.50000
H2W   2   -0.106485    0.250000    0.225443    10.50000   -1.50000
HKLF    4




REM  shelxt_a.res in Pnma
REM wR2 = 0.0617, GooF = S = 1.100, Restrained GooF = 1.099 for all data
REM R1 = 0.0279 for 1061 Fo > 4sig(Fo) and 0.0360 for all 1219 data
REM 107 parameters refined using 2 restraints

END

WGHT      0.0068      2.7850

REM Instructions for potential hydrogen bonds
EQIV $5 x+1/2, y, -z+1/2
HTAB O1W O1W_$5

REM Highest difference peak  0.637,  deepest hole -0.888,  1-sigma level  0.076
Q1    1  -0.1588  0.1992  0.3989  11.00000  0.05    0.64
Q2    1  -0.2401  0.1963  0.2816  11.00000  0.05    0.51
Q3    1  -0.2565  0.2500  0.4500  10.50000  0.05    0.46
Q4    1  -0.3412  0.2500  0.4180  10.50000  0.05    0.39
Q5    1  -0.0855  0.2088  0.2727  11.00000  0.05    0.36
;
_shelx_res_checksum              99941
_shelx_hkl_file
;
   1   0   0   -1.32    0.82
   1   0   0   -0.74    0.91
  -1   0   0    0.29    0.94
  -1   0   0    0.31    1.07
   2   0   0  171.98    7.78
  -2   0   0  175.35    8.33
  -2   0   0  181.93    8.08
   2   0   0  170.94    8.13
  -3   0   0    2.67    2.19
  -3   0   0    1.32    2.38
   3   0   0   -1.74    2.18
   3   0   0   -0.39    2.10
   4   0   0  264.07   13.31
   4   0   0  284.19   14.50
  -4   0   0  276.76   13.72
  -4   0   0  306.72   14.91
  -5   0   0   -0.40    3.60
   5   0   0   -0.91    2.26
  -5   0   0   -2.08    3.41
  -6   0   0   65.35    9.56
  -6   0   0   57.55    9.44
   6   0   0   62.34   10.01
   7   0   0    3.57    4.18
  -7   0   0   11.62    5.77
  -1   1   0    0.07    1.10
  -1   1   0    0.38    1.39
  -1  -1   0    3.00    1.10
  -1  -1   0   -0.02    0.87
   1  -1   0   -0.27    1.18
   1  -1   0   -0.29    1.21
   1   1   0    1.39    1.18
   1   1   0    2.37    1.04
  -2   1   0  956.95   31.43
   2  -1   0  975.85   30.04
  -2  -1   0  978.31   29.37
   2   1   0  944.03   29.27
   2   1   0  977.32   28.82
  -2   1   0  986.08   30.25
  -2  -1   0  959.38   28.68
   2  -1   0  921.17   29.84
   3  -1   0   -3.79    1.76
   3   1   0   -3.44    1.52
  -3  -1   0   -4.44    1.94
  -3  -1   0    1.28    2.04
   3   1   0   -1.61    1.92
   3  -1   0   -0.31    2.17
  -3   1   0   -2.87    1.94
  -3   1   0   -2.63    2.26
  -4  -1   0 2033.21   60.65
  -4   1   0 1901.26   61.07
   4  -1   0 1938.05   60.28
   4   1   0 2016.34   60.59
  -4   1   0 1953.02   60.53
   4  -1   0 2015.74   61.36
  -4  -1   0 2003.24   59.12
   4   1   0 1933.13   58.72
  -5  -1   0   -2.60    3.45
   5  -1   0    4.42    3.81
  -5   1   0    3.66    3.94
  -5  -1   0   -2.35    2.72
   5   1   0   -1.32    2.69
   6  -1   0  143.61   11.85
  -6  -1   0  115.49   11.20
  -6  -1   0  124.41   10.47
   6   1   0  125.32   10.34
  -6   1   0  129.53   12.20
   7   1   0   -0.54    3.77
  -7   1   0   -6.40    4.63
  -7  -1   0   -4.34    3.51
   0   2   0 9373.89  249.80
   0   2   0 9025.50  249.78
  -1  -2   0    0.95    1.34
   1   2   0    0.29    1.19
  -1  -2   0    0.63    1.08
   1  -2   0   -0.02    1.69
   1  -2   0   -0.41    1.53
   1   2   0    0.41    1.17
  -1   2   0    1.99    1.48
  -1   2   0    2.32    1.69
   2   2   0 7036.67  234.65
   2  -2   0 6733.08  244.50
  -2   2   0 6907.18  248.74
   3  -2   0   -0.91    2.12
  -3   2   0    1.87    2.35
   3   2   0    0.75    2.28
  -3  -2   0   -1.22    1.93
   3  -2   0   -0.58    2.38
   3   2   0   -0.62    2.02
  -3   2   0   -1.25    2.40
  -3  -2   0    0.67    2.02
   4   2   0  400.53   16.45
   4   2   0  419.69   18.07
  -4  -2   0  408.96   17.81
  -4   2   0  439.91   19.31
   4  -2   0  405.79   18.64
  -4  -2   0  425.76   16.71
   4  -2   0  378.56   18.34
  -5   2   0    2.56    4.03
   5   2   0    3.19    3.64
  -5   2   0   -2.50    3.15
  -5  -2   0   -2.49    3.04
   5   2   0    8.08    3.25
  -5  -2   0   -4.18    2.61
  -6   2   0   19.19    6.48
   6  -2   0   12.62    5.39
   6   2   0   20.88    4.96
  -6  -2   0    9.84    4.62
  -6  -2   0    5.65    4.67
   7  -2   0    0.86    4.48
  -7  -2   0   -1.42    4.58
  -7   2   0   -3.79    3.96
   7   2   0   -4.06    3.63
  -7  -2   0   -6.83    5.53
   0   3   0    1.69    1.41
   0   3   0    3.23    1.65
   0  -3   0    2.98    2.05
   0   3   0    3.10    2.37
   1   3   0   -0.60    1.11
  -1  -3   0    2.04    1.57
   1  -3   0    0.31    1.70
   1  -3   0   -0.77    1.92
   1   3   0    0.16    1.18
   1   3   0    0.95    1.44
  -1   3   0   -0.45    1.89
  -1   3   0    0.07    1.71
   2  -3   0 2216.63   67.49
   2  -3   0 2452.28   67.51
  -2  -3   0 2317.27   64.84
   2   3   0 2245.31   64.83
  -2   3   0 2384.64   67.95
   2   3   0 2194.59   64.81
  -2   3   0 2317.57   67.14
  -2  -3   0 2296.44   65.11
   3   3   0    0.52    1.98
  -3  -3   0    0.03    1.78
   3   3   0   -0.19    1.81
  -3  -3   0    2.81    2.25
   3  -3   0    2.93    2.35
  -3   3   0   -0.10    1.74
  -3   3   0    3.13    3.00
   3  -3   0    2.70    3.16
   4   3   0  755.77   26.40
   4  -3   0  791.76   30.15
  -4  -3   0  773.09   27.79
  -4   3   0  781.03   32.70
   4   3   0  784.98   27.94
   4  -3   0  748.52   29.33
  -4   3   0  724.70   29.60
  -4  -3   0  782.68   26.32
  -5   3   0    0.77    3.24
  -5  -3   0   -5.49    2.27
   5  -3   0   -1.46    3.28
  -5  -3   0   -2.24    2.35
   5   3   0    2.15    3.06
   5   3   0   -4.93    2.48
  -6   3   0  389.05   22.30
  -6  -3   0  377.68   20.21
  -6  -3   0  375.66   17.68
   6  -3   0  397.63   21.53
   6   3   0  382.66   17.89
  -7   3   0    0.91    4.89
  -7  -3   0  -14.78    5.25
  -7  -3   0   -5.18    4.21
   0   4   0 6865.55  196.31
   0   4   0 7034.37  196.03
  -1   4   0    2.41    2.33
  -1   4   0    1.15    2.01
  -1  -4   0   -2.86    1.30
   1   4   0    1.62    1.57
   1   4   0    0.45    1.70
   1  -4   0    0.37    1.86
   1   4   0   -0.50    1.45
   1  -4   0    0.08    1.77
   2  -4   0 2528.56   75.74
   2   4   0 2556.96   72.68
  -2   4   0 2523.27   74.68
  -2  -4   0 2533.41   72.29
  -2  -4   0 2580.55   72.59
   2  -4   0 2543.47   74.41
  -2   4   0 2666.79   76.15
   2   4   0 2519.24   72.16
   3   4   0    1.09    2.14
  -3  -4   0    0.09    1.96
  -3   4   0   -0.21    2.87
   3  -4   0    2.48    2.39
  -3  -4   0   -0.45    1.88
   3   4   0    2.42    2.06
  -3   4   0    1.01    2.95
   3  -4   0   -1.34    2.67
   4  -4   0  286.27   16.25
  -4   4   0  251.50   15.44
  -4  -4   0  269.63   12.68
   4   4   0  277.15   13.09
   4   4   0  270.46   13.79
  -4  -4   0  283.09   14.07
  -4   4   0  273.41   15.86
   5   4   0    4.84    3.41
   5   4   0    4.51    3.19
  -5   4   0    0.69    3.15
  -5  -4   0   -2.02    2.50
  -5  -4   0    5.24    3.32
   5  -4   0   -2.98    3.66
  -6  -4   0   25.80    6.01
  -6   4   0   49.05    9.56
  -6  -4   0   51.53    8.67
   6   4   0   35.38    6.27
   6  -4   0   34.04    7.70
   7  -4   0   -8.33    3.24
  -7  -4   0  -11.82    5.72
   7   4   0    7.08    3.84
  -7   4   0   -7.31    4.62
  -7  -4   0    9.71    6.09
   0   5   0   11.30    3.50
   0  -5   0   16.15    3.88
   0   5   0   15.51    3.11
   0   5   0   14.63    3.01
  -1   5   0    1.35    2.22
   1   5   0   -0.16    2.03
  -1  -5   0    3.83    2.31
   1   5   0   -1.42    1.32
   1   5   0   -0.75    2.04
   1  -5   0   -0.63    1.80
   1  -5   0   -2.83    2.53
  -1   5   0    3.58    2.74
   2   5   0  719.60   24.80
   2  -5   0  667.06   27.68
   2   5   0  774.04   25.81
   2   5   0  777.50   26.05
  -2   5   0  786.64   27.59
  -2  -5   0  777.14   25.27
  -2   5   0  694.62   28.02
   2  -5   0  756.31   27.13
   3  -5   0    0.96    3.75
   3  -5   0    4.12    3.07
   3   5   0    1.38    2.31
  -3  -5   0    1.05    2.10
  -3  -5   0   -1.44    2.03
  -3   5   0   -0.38    2.64
   3   5   0   -0.58    2.21
  -3   5   0    6.61    3.54
  -4  -5   0  478.91   18.53
   4   5   0  436.52   19.05
  -4  -5   0  476.88   19.71
   4   5   0  430.88   18.37
   4  -5   0  427.64   22.23
  -4   5   0  455.15   22.11
   5   5   0    3.47    3.37
  -5   5   0    4.85    4.46
   5  -5   0    6.57    4.79
  -5  -5   0    2.27    3.15
  -5  -5   0    3.60    3.77
  -6   5   0  422.46   29.17
   6  -5   0  498.78   26.52
   6   5   0  499.81   20.94
  -6  -5   0  517.78   23.97
  -6  -5   0  465.06   20.33
  -7  -5   0   -4.02    3.65
   7  -5   0   -1.74    4.97
  -7   5   0    0.21    4.54
   7   5   0    4.09    3.47
   0   6   0 2913.52   83.44
   0   6   0 2953.89   83.96
   0  -6   0 2967.17   85.65
   0   6   0 2815.94   85.54
   1   6   0   -0.67    1.90
   1   6   0   -3.02    1.63
  -1  -6   0   -1.07    2.02
   1  -6   0   -3.83    2.71
  -1   6   0   -1.49    1.95
   1   6   0   -3.01    1.64
   1  -6   0    0.48    2.03
  -1   6   0   -0.58    3.10
   2   6   0 1097.11   36.24
  -2   6   0 1046.76   37.01
   2   6   0 1113.25   36.05
   2   6   0 1044.72   34.61
  -2   6   0 1020.00   38.55
   2  -6   0 1187.57   39.75
   2  -6   0 1069.06   36.87
  -2  -6   0 1052.98   34.84
   3   6   0    3.38    2.20
   3  -6   0    3.27    4.10
  -3  -6   0    1.42    2.40
   3   6   0   -1.00    2.71
   3   6   0    5.48    2.82
  -3   6   0   -1.55    3.32
   4   6   0    2.24    2.73
  -4  -6   0    0.38    3.23
   4   6   0    1.93    3.20
   4  -6   0    0.01    3.57
  -4  -6   0    1.57    2.85
  -4   6   0    5.32    3.87
  -5   6   0    3.06    4.63
  -5  -6   0    4.14    3.87
   5  -6   0    2.50    4.43
   5   6   0   -1.11    2.99
  -5  -6   0    5.04    3.52
  -6  -6   0    3.60    4.77
   6  -6   0   12.36    5.94
   6   6   0   10.29    3.93
  -6  -6   0   16.80    5.67
  -6   6   0   15.24    6.16
   0   7   0    9.65    3.05
   0   7   0    4.00    2.50
   0  -7   0    6.67    3.74
   1   7   0    0.32    2.63
   1   7   0   -2.39    2.72
  -1   7   0    1.00    2.53
   1   7   0   -0.02    2.40
   1   7   0    1.72    2.19
  -1   7   0   -2.96    2.63
   2   7   0  725.94   27.24
   2   7   0  688.96   25.29
   2   7   0  704.28   26.77
   2  -7   0  679.13   27.16
   2  -7   0  626.61   28.53
  -2  -7   0  691.94   25.56
  -2   7   0  755.78   28.55
  -3  -7   0    4.08    2.84
   3   7   0    2.15    2.70
   3  -7   0   -3.17    3.09
  -3   7   0    2.10    3.25
   3   7   0    0.87    2.81
   3   7   0   -1.80    2.14
   4   7   0  435.84   18.99
   4   7   0  411.96   19.17
  -4   7   0  438.19   22.89
   4  -7   0  435.62   23.95
  -4  -7   0  437.56   19.98
   4   7   0  413.59   18.98
   5   7   0    0.39    3.39
  -5   7   0   -0.21    4.95
  -5  -7   0   -1.92    3.63
   5   7   0   -2.32    2.66
   5  -7   0    0.04    4.09
  -6   7   0   85.70   12.87
   6   7   0   86.72    8.51
   6  -7   0   95.09   13.79
  -6  -7   0   81.96   10.97
   0   8   0 1602.57   53.06
   0   8   0 1687.46   53.38
   0   8   0 1817.27   57.19
   0  -8   0 1646.80   55.58
   0   8   0 1658.26   56.04
  -1   8   0   -3.19    2.37
   1   8   0   -0.69    2.41
   1   8   0   -1.98    3.34
   1  -8   0   -2.23    3.47
   1   8   0   -4.90    1.53
   1   8   0    2.70    3.15
  -1   8   0   -4.30    2.56
  -2  -8   0  212.43   12.40
   2   8   0  221.87   13.43
   2   8   0  213.65   11.98
  -2   8   0  204.24   13.59
   2  -8   0  200.00   14.98
   2   8   0  248.76   14.26
  -3  -8   0    2.43    3.39
   3  -8   0    4.99    5.00
   3   8   0    0.63    3.64
   3   8   0    4.50    3.42
   3   8   0    6.74    3.46
  -3   8   0    2.51    4.07
   4   8   0   15.84    4.83
   4   8   0    8.74    4.50
  -4   8   0   17.22    6.53
   4  -8   0   19.17    7.21
   4   8   0   22.91    5.80
  -4  -8   0   26.45    6.01
  -5   8   0   -0.39    4.98
  -5  -8   0    0.00    3.33
   5   8   0    8.16    4.10
   5   8   0   -1.19    3.69
   6  -8   0    2.39    5.70
  -6  -8   0    5.01    4.83
   6   8   0   -9.06    4.73
  -6   8   0   -2.25    5.59
   0   9   0    2.48    3.00
   0   9   0   -1.10    2.60
   0   9   0    3.24    4.39
   1   9   0   -0.18    3.20
   1   9   0    1.90    2.75
  -1   9   0   -4.25    3.37
   1  -9   0   -1.64    2.34
   1   9   0   -0.37    2.57
   2   9   0   88.45    8.48
   2   9   0   98.89    8.50
  -2   9   0   89.99    9.71
  -2  -9   0   97.81   10.70
   2  -9   0   93.00   11.19
   2   9   0  100.99   10.10
   3  -9   0    4.64    4.45
   3   9   0   -3.52    3.27
  -3  -9   0    0.90    3.30
  -3   9   0   -6.30    3.06
   3   9   0   -2.75    2.93
   3   9   0    0.80    3.61
   4  -9   0  178.90   16.73
  -4  -9   0  198.82   13.16
   4   9   0  183.66   12.64
   4   9   0  177.77   13.29
  -4   9   0  209.29   16.37
   5   9   0   -4.20    4.41
  -5  -9   0   13.25    5.82
   5   9   0   -3.53    3.82
   5  -9   0    0.41    5.04
  -5   9   0    1.23    5.12
   0  10   0  533.73   23.62
   0  10   0  477.39   25.67
  -1  10   0    4.14    4.18
   1  10   0   -1.12    2.91
   1 -10   0   -1.43    3.83
   1  10   0   -3.06    3.35
  -2  10   0   91.99   10.06
   2  10   0   99.97    9.12
   2  10   0   88.69    9.95
   2 -10   0   68.51   11.08
  -3 -10   0   -1.47    3.54
   3  10   0    0.86    4.24
  -3  10   0   -2.87    3.81
   3 -10   0    6.08    5.42
   4 -10   0   37.59    9.41
  -4 -10   0   58.55    8.79
  -4  10   0   59.46   10.82
   4  10   0   57.61    9.31
   5 -10   0   -5.14    4.63
   5  10   0    0.25    4.08
  -5  10   0    8.05    6.20
  -5 -10   0   -1.31    4.59
   0  11   0   11.60    4.85
   0  11   0    8.99    5.59
   1  11   0   -5.63    3.46
   1  11   0    1.44    3.94
  -1  11   0    4.98    3.53
   1 -11   0   -2.61    4.21
  -1  11   0   -4.77    4.75
   2  11   0   -2.77    3.00
  -2  11   0   -1.63    3.80
   2  11   0   -3.11    4.79
   3  11   0    0.92    4.10
  -3  11   0   -2.72    3.95
   3  11   0   -4.68    2.91
   3 -11   0   -2.40    4.30
  -4 -11   0  132.06   12.23
   4 -11   0  137.05   15.46
  -4  11   0  138.36   14.95
   0  12   0  200.32   17.63
   0  12   0  178.26   14.17
   1  12   0   -2.74    3.48
  -1  12   0    3.62    4.89
  -1  12   0  -10.28    3.79
   1  12   0  -10.55    3.51
  -2  12   0   59.58   11.61
   2  12   0   65.96   11.19
   2 -12   0   66.99   11.77
   2  12   0   71.98    9.84
   3  12   0    4.59    4.30
   3  12   0   -9.51    3.71
  -3  12   0   -1.74    4.45
   3 -12   0    1.72    5.26
   0  13   0    8.86    5.30
   0  13   0    5.46    6.18
   1  13   0   -2.26    4.72
  -1  13   0   -4.87    4.54
  -1  13   0   -1.66    6.07
   2 -13   0   12.91    7.96
  -2  13   0   -2.34    6.17
  -2  13   0    6.99    6.44
   2  13   0    9.31    4.97
   2  13   0    0.01    5.84
  -1   0  -1   10.37    2.06
  -1   0   1   12.51    2.04
   1   0   1   12.14    1.72
   1   0  -1   13.19    2.02
  -1   0  -1   12.40    1.72
   1   0  -1   12.02    1.44
  -1   0   1   11.02    1.48
   1   0   1   12.94    2.15
  -2   0  -1   73.26    4.87
  -2   0   1   64.12    4.26
   2   0  -1   78.52    5.33
  -2   0  -1   80.00    6.05
   2   0   1   71.37    4.75
  -2   0   1   61.49    4.92
   2   0   1   55.04    4.84
   3   0   1 2794.60   80.74
   3   0   1 2859.36   81.21
   3   0  -1 2833.30   81.55
   3   0  -1 2838.32   79.70
  -3   0   1 2827.94   79.79
  -3   0  -1 2844.43   81.22
  -3   0   1 2931.62   81.87
  -3   0  -1 2731.95   80.70
   4   0   1  482.57   20.01
  -4   0   1  465.95   20.70
  -4   0  -1  489.00   20.27
   4   0   1  461.29   19.78
   4   0  -1  473.96   20.61
   4   0  -1  500.52   19.06
  -4   0  -1  473.84   20.17
  -4   0   1  498.48   19.24
   5   0   1  483.33   21.37
   5   0  -1  506.41   20.56
  -5   0   1  461.70   20.26
  -5   0  -1  459.15   23.48
  -5   0  -1  459.66   21.73
  -5   0   1  482.17   22.45
  -6   0  -1  438.10   24.11
  -6   0   1  422.98   22.24
   6   0   1  435.62   21.33
  -6   0   1  417.89   20.13
  -6   0  -1  409.42   21.92
  -7   0  -1   74.90   11.14
   7   0  -1   87.20    9.66
   7   0   1   86.55   10.08
   0  -1   1    0.00    0.54
   0   1   1    0.54    0.74
   0   1   1    0.21    0.30
   1  -1   1 5934.36  188.62
  -1   1   1 5363.99  184.20
   1   1  -1 6104.54  181.53
   1  -1  -1 5653.58  186.52
  -1   1  -1 5748.43  188.08
   1   1   1 5615.91  182.43
  -2   1   1 1281.19   38.00
  -2  -1  -1 1240.53   36.99
  -2   1   1 1238.67   37.11
   2   1  -1 1259.72   37.37
   2  -1   1 1278.47   38.11
  -2  -1  -1 1240.22   36.51
   2  -1   1 1243.05   37.34
   2   1  -1 1228.95   35.30
  -2  -1   1 1288.41   37.49
  -2  -1   1 1228.81   35.33
  -2   1  -1 1231.23   37.93
  -2   1  -1 1230.20   37.43
   2   1   1 1234.17   36.46
   2  -1  -1 1254.52   37.15
   2  -1  -1 1247.49   37.76
   2   1   1 1222.59   36.96
   3  -1   1 1075.86   35.32
   3   1  -1 1053.17   34.73
  -3   1   1 1080.21   35.51
  -3  -1  -1 1031.93   33.99
  -3  -1  -1 1109.84   34.47
   3  -1   1 1082.04   35.00
  -3   1   1 1072.93   34.41
   3   1  -1 1051.78   32.57
  -3   1  -1 1091.25   35.54
   3  -1  -1 1123.01   35.90
   3   1   1 1093.14   34.40
  -3   1  -1 1051.96   35.04
  -3  -1   1 1093.22   34.96
   3   1   1 1068.74   34.06
   3  -1  -1 1085.51   34.38
  -3  -1   1 1119.56   32.99
  -4  -1  -1    1.97    2.60
  -4  -1  -1    5.53    3.31
  -4   1   1    0.91    2.87
   4   1  -1    2.77    2.47
  -4   1   1    5.02    3.17
   4  -1   1    2.63    2.87
   4  -1   1    2.25    2.72
   4   1   1    2.13    2.65
  -4   1  -1   -0.73    2.51
   4   1   1    2.39    2.88
   4  -1  -1    4.41    2.62
   4  -1  -1    1.86    2.94
  -4  -1   1    0.69    2.89
  -4  -1   1    5.12    2.65
  -4   1  -1   -2.02    2.50
  -5   1   1   -0.30    3.50
  -5  -1  -1    2.33    3.73
   5  -1   1    3.93    3.61
  -5   1   1   -0.10    2.83
   5   1  -1   -2.16    2.36
  -5  -1  -1    5.98    4.10
   5  -1  -1   -0.05    3.02
   5   1   1   -1.52    3.09
  -5  -1   1   -0.89    3.17
   5   1   1   -0.11    2.92
  -5   1  -1    5.23    3.96
  -5  -1   1   -1.49    2.88
  -5   1  -1   -1.74    3.30
  -6  -1  -1   65.46    9.71
  -6   1   1   73.19   10.73
  -6   1   1   64.45    9.43
   6  -1   1   76.79   10.80
  -6  -1  -1   75.84   10.43
   6   1  -1   92.95    8.44
  -6  -1   1   57.17    8.01
  -6   1  -1   74.56   10.72
   6  -1  -1   72.16    8.66
  -6  -1   1   71.63   10.77
   6   1   1   96.43    9.33
   7  -1   1   50.24    8.86
   7   1  -1   49.11    7.65
  -7  -1  -1   58.83   10.55
  -7   1   1   56.43   10.23
  -7  -1   1   23.08    7.52
   7  -1  -1   52.63    9.04
   7   1   1   54.77    8.85
  -7  -1   1   45.97    8.86
   0   2   1    1.20    1.39
   0   2   1   -0.02    0.88
   0  -2  -1    0.51    1.00
   0   2  -1    0.36    1.37
   0   2  -1   -0.76    1.14
   0  -2   1    0.88    1.32
   0   2   1    1.24    1.49
   1   2  -1 1414.90   38.48
   1   2  -1 1451.40   38.45
  -1   2   1 1408.72   40.65
   1  -2   1 1424.71   40.95
   1  -2   1 1299.96   41.11
   1   2  -1 1402.70   39.58
  -1   2   1 1396.64   40.02
  -1  -2  -1 1361.09   39.76
  -1  -2  -1 1409.15   38.27
   1   2   1 1361.65   39.77
   1   2   1 1402.19   38.22
  -1   2  -1 1408.84   41.00
  -1  -2   1 1357.09   39.49
   1  -2  -1 1328.09   39.75
  -1   2  -1 1359.78   40.07
   1  -2  -1 1330.81   40.35
  -2  -2  -1 2332.71   64.18
  -2   2   1 2366.04   66.36
   2   2  -1 2405.05   65.45
   2  -2   1 2317.58   66.86
  -2  -2  -1 2305.29   66.46
   2  -2   1 2340.55   66.06
   2   2  -1 2273.82   63.17
  -2   2   1 2258.45   66.21
   2   2   1 2264.78   64.09
  -2   2  -1 2206.40   66.50
  -2   2  -1 2274.95   66.13
   2  -2  -1 2351.40   66.37
   2   2   1 2324.78   65.12
   2  -2  -1 2196.79   65.97
  -2  -2   1 2262.48   63.09
  -2  -2   1 2332.91   65.28
   3   2  -1  984.25   32.17
  -3   2   1  933.07   33.10
   3  -2   1 1007.40   32.94
   3  -2   1  996.94   33.63
   3   2  -1  992.98   29.84
  -3  -2  -1  983.81   31.24
  -3  -2  -1  941.22   31.24
  -3   2   1  954.31   32.63
   3   2   1  976.29   31.56
   3   2   1 1000.45   31.40
   3  -2  -1  938.17   32.89
   3  -2  -1  999.52   32.83
  -3  -2   1  976.41   32.13
  -3   2  -1 1016.26   33.68
  -3   2  -1  996.31   33.19
  -3  -2   1  968.26   29.66
  -4  -2  -1  290.65   14.17
  -4   2   1  289.27   17.97
  -4   2   1  302.24   15.10
   4  -2   1  304.68   15.35
   4   2  -1  308.47   15.19
   4   2  -1  303.03   12.83
   4  -2   1  298.00   15.63
  -4  -2  -1  310.26   14.27
   4   2   1  300.64   14.07
  -4  -2   1  289.19   12.60
  -4  -2   1  263.52   14.28
   4  -2  -1  301.93   15.71
  -4   2  -1  324.38   16.21
   4   2   1  291.79   14.16
   4  -2  -1  313.38   15.27
  -4   2  -1  321.56   16.29
  -5   2   1  612.19   27.19
   5   2  -1  614.36   22.85
  -5   2   1  615.47   26.18
  -5  -2  -1  640.43   24.71
  -5  -2  -1  633.94   25.41
   5  -2   1  641.71   26.97
  -5   2  -1  641.71   27.14
  -5  -2   1  620.16   25.93
   5   2   1  598.30   24.49
   5   2   1  572.16   24.62
  -5   2  -1  613.57   26.81
   5  -2  -1  624.94   25.78
  -5  -2   1  609.93   22.82
  -6   2   1   88.58   12.30
  -6  -2  -1   99.45   10.02
   6   2  -1   84.29    7.75
   6  -2   1  106.08   10.82
  -6  -2  -1   97.49    9.51
  -6  -2   1   97.86   10.45
   6  -2  -1  100.84   10.49
   6   2   1   93.12    9.13
  -6  -2   1   82.59    8.01
  -6   2  -1   88.40   12.00
  -7  -2  -1  119.55   12.22
   7  -2   1  100.07   11.21
   7   2  -1  125.26    9.59
  -7   2   1   93.32   13.45
  -7   2  -1   93.96   12.93
  -7  -2   1   92.89   10.15
   7  -2  -1  113.23   11.39
   7   2   1  105.82   10.57
  -7  -2   1   88.40   12.15
   0  -3   1 4099.66  117.65
   0  -3  -1 4044.96  125.71
   0   3  -1 4084.63  117.42
   0   3   1 4007.38  125.81
  -1   3   1 1340.89   41.29
  -1   3   1 1418.82   40.41
   1   3  -1 1227.77   38.93
   1   3  -1 1338.26   39.22
   1  -3   1 1438.20   41.78
   1  -3   1 1373.77   40.47
   1   3   1 1348.93   40.37
  -1   3  -1 1319.24   40.45
  -1  -3   1 1346.49   39.72
  -1   3  -1 1354.02   41.42
   1  -3  -1 1393.48   40.25
   1   3   1 1338.71   38.40
   1  -3  -1 1471.13   41.66
   2  -3   1   59.14    6.12
  -2  -3  -1   55.47    4.90
  -2   3   1   60.26    5.80
   2   3  -1   53.88    4.06
  -2  -3  -1   60.94    4.41
   2  -3   1   58.29    5.41
   2   3  -1   57.89    5.01
  -2   3   1   56.28    5.75
  -2  -3   1   57.49    4.94
  -2  -3   1   56.10    4.04
   2  -3  -1   55.31    5.26
   2   3   1   58.47    4.94
  -2   3  -1   55.79    5.90
  -2   3  -1   60.97    5.69
   2   3   1   55.18    4.66
   2  -3  -1   53.24    5.67
   3   3  -1 2097.90   61.47
   3  -3   1 2024.29   63.44
  -3  -3  -1 2048.60   60.53
   3   3  -1 2102.45   58.96
  -3  -3  -1 2075.93   60.10
   3  -3   1 2082.26   62.69
  -3   3   1 2035.42   63.01
  -3   3   1 2054.40   63.01
  -3   3  -1 2033.79   63.54
  -3   3  -1 2108.42   63.13
  -3  -3   1 2067.37   58.74
  -3  -3   1 2115.97   61.43
   3  -3  -1 2056.80   63.07
   3   3   1 2061.00   60.79
   3   3   1 2098.67   60.25
   3  -3  -1 2063.94   62.71
  -4   3   1   35.30    6.34
  -4  -3  -1   33.20    5.14
   4  -3   1   32.63    6.56
   4   3  -1   45.63    6.61
   4  -3   1   36.27    6.52
  -4  -3  -1   43.96    6.03
  -4   3   1   46.45    7.92
   4   3  -1   34.03    4.70
  -4  -3   1   34.41    4.50
   4  -3  -1   35.20    6.97
   4  -3  -1   39.89    6.78
   4   3   1   40.56    5.97
  -4  -3   1   39.75    6.37
  -4   3  -1   37.95    6.69
  -4   3  -1   33.20    6.56
   4   3   1   52.71    5.78
  -5   3   1   11.44    5.13
  -5  -3  -1    8.71    4.07
  -5  -3  -1   10.51    4.86
   5   3  -1    8.45    3.11
  -5   3   1    5.76    4.51
   5  -3   1    1.79    3.76
  -5  -3   1   10.68    3.35
   5   3   1   11.56    4.11
  -5  -3   1    4.98    4.29
   5  -3  -1    4.44    4.57
  -5   3  -1    4.89    4.32
   5   3   1    9.83    4.05
  -6   3   1   16.85    6.68
  -6  -3  -1   15.95    5.55
  -6  -3  -1   19.36    5.73
   6   3  -1   17.25    4.56
   6  -3   1   16.82    6.26
  -6  -3   1   17.52    4.77
   6  -3  -1    9.66    5.42
  -6   3  -1   20.97    7.19
  -6  -3   1   18.30    5.77
   6   3   1    8.09    4.38
  -7  -3  -1   90.88   11.64
   7   3  -1  102.85    8.36
  -7   3   1   93.91   13.96
   7  -3   1   99.89   11.62
   7   3   1   90.99    9.24
  -7  -3   1  116.84   11.97
  -7  -3   1   85.66    9.62
  -7   3  -1   85.77   13.17
   7  -3  -1   77.49   11.26
   0   4  -1   -0.09    2.22
   0  -4  -1    2.71    2.59
   0   4   1    1.13    1.71
   0   4   1    1.23    1.75
   0   4   1   -0.89    2.18
   0   4  -1   -1.20    1.89
   0   4   1   -2.68    1.58
   0  -4   1   -0.24    2.11
   0   4  -1    0.73    2.13
   1   4  -1  429.75   15.87
   1  -4   1  424.34   17.61
  -1   4   1  452.84   17.96
   1   4  -1  452.23   16.01
   1  -4   1  445.28   16.75
  -1   4   1  425.46   16.31
  -1  -4  -1  439.48   15.09
   1   4  -1  418.18   15.85
  -1   4  -1  442.91   16.89
  -1  -4   1  466.28   16.40
  -1   4  -1  476.60   18.15
   1  -4  -1  443.54   16.41
   1  -4  -1  437.71   17.60
   1   4   1  427.99   14.84
   1   4   1  412.93   16.51
   1   4   1  420.22   16.45
   2  -4   1  210.68   10.81
   2  -4   1  175.38   10.77
  -2  -4  -1  180.34    8.38
   2   4  -1  183.94    9.11
  -2  -4  -1  187.16    9.58
  -2   4   1  175.58   10.19
  -2   4   1  170.18   10.69
   2   4  -1  183.29    8.65
   2  -4  -1  169.34    9.78
   2   4   1  186.07    9.64
  -2   4  -1  170.58   10.09
  -2   4  -1  161.95   10.35
   2   4   1  174.09    8.17
   2  -4  -1  186.84   10.79
  -2  -4   1  166.93    9.13
   3   4  -1 1151.65   35.00
   3  -4   1 1107.91   38.40
  -3   4   1 1114.54   39.28
  -3   4   1 1188.82   39.30
   3  -4   1 1131.34   39.83
  -3  -4  -1 1161.97   36.66
   3   4  -1 1140.50   36.88
  -3  -4  -1 1141.66   35.82
   3   4   1 1182.67   36.90
  -3  -4   1 1139.41   34.80
   3   4   1 1127.15   35.73
  -3   4  -1 1137.75   38.98
  -3   4  -1 1098.52   39.72
   3  -4  -1 1097.46   39.11
   3  -4  -1 1153.35   38.85
  -3  -4   1 1182.89   37.27
  -4   4   1  473.91   22.02
   4   4  -1  464.73   17.65
  -4  -4  -1  458.14   19.01
  -4  -4  -1  478.20   19.35
  -4   4   1  474.47   22.27
   4  -4   1  464.08   22.42
  -4   4  -1  468.67   21.90
   4   4   1  494.47   19.88
  -4  -4   1  479.99   20.31
  -4  -4   1  464.42   17.51
   4   4   1  477.80   19.16
  -4   4  -1  481.16   22.72
   5   4  -1  446.41   17.69
   5  -4   1  420.25   22.62
  -5  -4  -1  445.02   19.25
  -5  -4  -1  454.34   22.77
  -5   4   1  454.08   23.17
   5   4   1  478.24   20.28
   5   4   1  411.78   19.52
  -5   4  -1  427.72   22.61
  -5  -4   1  448.83   20.91
  -5  -4   1  436.17   17.56
   5  -4  -1  486.26   23.29
  -6  -4  -1    5.57    4.55
   6   4  -1    8.41    3.66
  -6  -4  -1    6.48    3.95
   6  -4   1    4.67    4.62
  -6   4   1    2.50    4.37
   6  -4  -1    6.43    5.13
   6   4   1   12.76    4.74
  -6  -4   1    3.88    3.58
  -6   4  -1    7.01    5.45
  -6  -4   1    6.98    4.71
  -7  -4  -1  100.22   11.14
   7   4  -1  109.67    8.34
   7  -4   1  125.83   13.17
  -7   4   1   90.98   13.93
   7   4   1   96.86    9.82
  -7   4  -1   87.61   13.85
  -7  -4   1  108.10   11.35
  -7  -4   1   78.72    9.09
   0   5  -1 2302.11   70.13
   0   5  -1 2372.19   69.02
   0   5   1 2359.92   70.63
   0   5  -1 2497.75   69.61
   0   5   1 2396.66   68.45
   0  -5   1 2524.30   70.56
   0  -5  -1 2525.90   70.95
   0   5   1 2361.91   68.20
   0   5   1 2209.21   70.19
  -1   5   1 1055.36   33.69
   1  -5   1 1042.80   33.96
   1  -5   1  998.46   35.04
   1   5  -1 1016.95   33.38
  -1   5   1 1171.08   36.52
   1   5  -1 1059.52   33.09
   1   5  -1 1054.38   33.52
  -1  -5  -1 1057.80   32.25
   1  -5  -1 1063.71   33.53
   1   5   1 1022.05   34.24
   1  -5  -1  997.95   35.12
  -1   5  -1 1083.28   35.70
  -1   5  -1 1007.93   33.95
  -1  -5   1 1005.78   33.17
   1   5   1 1040.92   31.94
   1   5   1  949.87   33.72
   2  -5   1  373.72   16.81
   2   5  -1  386.12   15.51
   2  -5   1  374.83   18.21
  -2   5   1  401.13   17.41
  -2  -5  -1  386.24   16.28
  -2  -5  -1  393.13   14.83
   2   5  -1  389.32   15.74
  -2   5   1  379.84   18.10
   2   5  -1  380.70   15.28
   2  -5  -1  383.94   18.09
  -2  -5   1  392.42   15.85
   2  -5  -1  395.39   16.96
   2   5   1  413.50   14.88
   2   5   1  365.38   16.15
  -2   5  -1  407.28   18.58
  -2   5  -1  383.06   17.23
   3   5  -1  591.85   21.05
   3   5  -1  599.65   21.42
  -3  -5  -1  595.20   22.60
  -3  -5  -1  610.78   21.67
   3   5  -1  576.28   22.38
   3  -5   1  622.98   25.01
  -3   5   1  592.79   25.12
  -3   5   1  612.76   25.76
   3  -5  -1  618.08   25.76
   3   5   1  624.24   23.08
  -3   5  -1  624.37   26.13
  -3   5  -1  574.92   24.69
   3   5   1  559.94   21.15
  -3  -5   1  622.90   22.93
   3  -5  -1  595.18   24.30
   4   5  -1    2.72    2.47
  -4   5   1   -2.95    3.19
  -4  -5  -1   -4.72    1.88
  -4  -5  -1    1.05    2.56
   4   5  -1   -0.14    2.46
   4  -5   1   -2.69    3.23
   4   5   1   -0.26    2.28
   4   5   1    4.00    3.23
   4  -5  -1   -0.43    2.96
  -4  -5   1   -2.70    2.23
  -4   5  -1    2.48    3.09
  -4  -5   1    0.68    2.09
  -5  -5  -1   57.86    7.80
  -5   5   1   53.72    9.57
   5  -5   1   59.98   10.00
   5   5  -1   59.53    5.99
  -5  -5  -1   46.77    7.02
   5   5   1   64.21    7.11
  -5   5  -1   42.36    8.85
   5  -5  -1   65.40   10.48
  -5  -5   1   50.12    5.62
   5   5   1   58.97    7.13
  -5  -5   1   60.34    8.84
   6  -5   1   13.11    5.84
  -6  -5  -1   11.47    4.77
  -6  -5  -1   -4.38    3.98
  -6   5   1   -1.15    3.70
  -6  -5   1    6.31    4.89
   6   5   1    6.77    4.05
   6  -5  -1    7.87    5.77
  -6  -5   1   -1.04    3.12
   7   5  -1    7.45    3.52
   7  -5   1    1.00    5.16
  -7   5   1   -6.49    5.15
  -7  -5  -1   20.31    6.36
  -7  -5   1    7.98    6.04
  -7   5  -1    6.19    5.95
   7   5   1    9.48    4.13
   0   6  -1   -4.04    2.44
   0   6   1   -0.69    2.96
   0  -6  -1   -0.16    2.43
   0   6  -1   -2.89    2.76
   0   6   1    2.03    2.80
   0   6   1   -4.27    2.39
   0   6   1    0.97    2.32
   0  -6   1   -1.11    3.18
   0   6  -1   -0.43    3.07
   1  -6   1  232.93   13.39
  -1   6   1  206.83   11.52
   1   6  -1  236.81   11.62
   1   6  -1  228.72   12.10
  -1   6   1  233.60   13.73
   1   6  -1  202.57   11.51
  -1   6  -1  216.65   12.20
  -1   6  -1  231.61   13.47
  -1  -6   1  234.12   11.90
  -1   6  -1  222.12   12.40
   1  -6  -1  228.80   13.55
   1   6   1  258.03   13.10
   1   6   1  220.07   10.67
   1  -6  -1  236.44   11.93
   1   6   1  220.66   12.51
   1   6   1  234.09   10.78
   2   6  -1   30.44    4.78
   2   6  -1   19.47    4.38
  -2  -6  -1   28.15    4.27
  -2   6   1   28.25    5.96
   2   6  -1   24.25    4.54
   2  -6   1   25.73    6.16
  -2   6   1   22.98    5.00
   2  -6   1   27.63    5.14
  -2   6  -1   19.34    4.73
  -2   6  -1   24.23    5.78
  -2  -6   1   25.54    4.64
   2   6   1   28.74    4.97
   2   6   1   18.79    3.57
   2  -6  -1   24.33    5.01
   2  -6  -1   19.17    5.19
   2   6   1   23.41    4.74
  -3  -6  -1  305.18   15.19
  -3   6   1  288.77   16.56
   3  -6   1  355.59   19.03
   3   6  -1  306.27   15.01
   3   6  -1  318.96   14.28
   3   6  -1  335.17   14.73
  -3  -6  -1  309.58   14.10
   3   6   1  346.47   14.42
  -3   6  -1  308.08   17.15
   3  -6  -1  358.19   18.82
  -3  -6   1  315.35   15.32
   3   6   1  330.21   15.97
   4   6  -1  302.61   14.27
   4  -6   1  312.79   19.15
  -4  -6  -1  318.15   15.01
   4   6  -1  268.91   14.90
   4   6  -1  311.37   13.85
  -4   6   1  304.60   18.07
  -4  -6  -1  327.03   15.64
   4   6   1  298.28   14.49
   4  -6  -1  294.90   18.07
   4   6   1  305.68   15.71
  -4   6  -1  306.67   18.12
  -4  -6   1  276.37   17.29
   5  -6   1  477.27   25.63
  -5   6   1  503.71   25.69
   5   6  -1  453.45   18.42
   5   6  -1  445.29   18.77
  -5  -6  -1  492.46   21.25
   5  -6  -1  442.92   24.44
   5   6   1  468.83   21.19
   5   6   1  459.75   20.65
  -5   6  -1  450.28   24.52
  -5  -6   1  498.19   22.33
  -6   6   1   23.55    7.67
   6  -6   1   25.78    8.11
  -6  -6  -1   20.93    6.23
  -6  -6  -1   21.34    6.75
   6   6  -1   27.47    4.70
   6   6  -1   20.98    4.08
  -6  -6   1   28.88    6.51
   6  -6  -1   24.79    7.21
  -6   6  -1   42.48    9.11
   0   7  -1  478.63   19.89
   0   7   1  448.34   21.23
   0   7   1  430.98   18.57
   0   7   1  520.93   22.17
   0   7  -1  514.70   24.03
   0   7  -1  466.86   19.61
   0  -7   1  480.30   21.16
   0   7   1  477.84   19.44
   1   7  -1  653.00   24.05
  -1   7   1  623.48   24.72
  -1   7   1  659.88   24.75
   1   7  -1  645.91   25.18
   1  -7   1  625.72   29.61
   1   7  -1  593.49   24.62
  -1   7   1  564.86   26.08
  -1   7  -1  629.89   26.71
  -1  -7   1  636.61   24.46
  -1   7  -1  664.28   25.59
   1   7   1  642.45   25.84
   1  -7  -1  571.68   28.83
   1   7   1  645.66   23.08
   1  -7  -1  648.22   24.45
   1   7   1  639.59   25.76
   1   7   1  658.33   23.13
  -1   7  -1  656.83   25.37
   2   7  -1  182.52   11.30
   2   7  -1  184.04   10.79
   2   7  -1  167.91   10.71
  -2   7   1  174.85   11.79
   2  -7   1  164.27   11.53
  -2  -7  -1  180.68   10.09
   2  -7   1  165.13   12.38
   2  -7  -1  139.40   12.07
   2   7   1  184.50    9.86
   2   7   1  163.40   11.00
   2  -7  -1  160.63   11.06
  -2   7  -1  192.59   12.40
   2   7   1  167.80   11.35
  -2  -7   1  164.22   10.70
   3   7  -1  105.03    8.34
  -3  -7  -1   96.33    7.68
   3   7  -1  107.80    8.17
   3  -7   1   87.10   10.24
  -3   7   1  111.56   10.22
   3   7  -1   93.44    8.22
   3   7   1   91.90    8.85
   3  -7  -1  106.28   10.91
  -3   7  -1  104.69   10.26
   3   7   1  106.38    8.80
  -3  -7   1  120.68    9.35
   3   7   1   79.37    7.12
   4  -7   1  128.80   13.01
  -4  -7  -1  170.15   10.93
  -4   7   1  138.51   12.74
   4   7  -1  150.38   10.27
   4   7  -1  181.40   10.57
   4   7  -1  145.72   10.92
   4   7   1  156.74   11.62
   4  -7  -1  153.53   13.89
  -4   7  -1  140.74   12.79
  -4  -7   1  167.29   11.81
   5  -7   1    5.20    4.67
   5   7  -1    2.16    3.42
  -5   7   1    5.38    5.27
  -5  -7  -1   -2.44    3.86
   5   7  -1    8.30    3.59
  -5  -7  -1   11.44    4.48
   5   7   1    2.68    3.98
  -5   7  -1   -2.68    4.90
   5  -7  -1    8.32    5.43
   5   7   1    4.13    4.28
  -5  -7   1    5.65    4.44
   6  -7   1    6.99    6.26
  -6  -7  -1   18.79    5.72
   6   7  -1   11.40    3.84
  -6  -7  -1    0.04    5.94
  -6   7   1    3.67    5.61
   6   7  -1   18.38    4.19
   6  -7  -1    3.63    5.50
  -6   7  -1   19.68    8.23
  -6  -7   1   -1.78    4.48
   6   7   1   11.91    4.66
   0   8   1    1.27    3.94
   0   8  -1    3.89    4.04
   0   8   1    1.91    4.17
   0   8   1    3.57    3.37
   0   8   1   -0.02    2.31
   0   8  -1   -1.83    2.44
   0  -8   1    0.74    3.46
   0   8  -1   -1.14    3.08
   1  -8   1   98.26   10.04
   1   8  -1   89.32    8.88
   1   8  -1  106.72    9.35
   1   8  -1   92.88    7.98
   1   8  -1  112.16    8.52
  -1   8   1   98.89    8.53
   1   8   1   89.65    7.56
   1   8   1   99.61    9.51
   1   8   1   92.08    7.70
  -1   8  -1   84.03    8.48
   1   8   1   98.60    9.50
  -1   8  -1   93.21    8.95
   1  -8  -1  100.89   10.31
   2   8  -1   31.32    6.17
  -2   8   1   30.42    6.28
   2  -8   1   25.42    6.96
   2   8  -1   27.54    5.08
  -2  -8  -1   23.06    4.86
   2  -8  -1   26.98    6.73
   2   8   1   23.63    5.71
  -2  -8   1   22.89    5.46
  -2   8  -1   47.55    7.76
   2   8   1   30.22    5.01
  -3   8   1  435.78   22.21
   3   8  -1  407.74   18.92
   3  -8   1  365.71   22.44
   3   8  -1  408.63   19.00
   3   8  -1  429.67   19.59
  -3  -8  -1  436.26   18.81
  -3   8  -1  417.95   21.97
   3   8   1  392.62   17.66
   3  -8  -1  457.54   23.75
   3   8   1  416.91   20.07
  -3  -8   1  447.58   22.71
   4  -8   1   51.39   10.06
  -4  -8  -1   67.05    7.35
   4   8  -1   55.23    7.59
   4   8  -1   62.07    7.06
  -4   8   1   66.85   10.43
   4   8   1   45.73    7.31
  -4  -8   1   56.34    8.26
  -4   8  -1   54.13    9.64
   4   8   1   57.39    8.76
   4  -8  -1   72.21   11.86
   4   8   1   43.83    6.76
   5   8  -1   91.16    8.49
   5  -8   1   78.91   14.76
  -5   8   1   97.54   13.74
   5   8  -1   86.83    8.28
  -5  -8  -1   90.16    9.10
  -5   8  -1   94.49   13.66
   5   8   1   94.47   10.33
   5   8   1   94.61    9.25
  -5  -8   1   85.89    9.77
   6   8  -1   23.63    4.90
   6  -8   1   21.93    8.18
  -6  -8  -1   16.36    5.76
  -6   8   1   15.83    7.41
   6   8   1   18.70    5.74
  -6   8  -1   14.04    7.42
  -6  -8   1   14.50    5.50
   6  -8  -1   19.80    8.04
   0  -9   1   36.88    7.18
   0   9   1   35.85    7.73
   0   9   1   39.61    7.45
   0   9   1   43.60    7.05
   0   9  -1   45.28    7.32
   1   9  -1  108.85    9.14
   1   9  -1  112.63    9.14
  -1   9   1  119.66    9.89
   1  -9   1   88.46   10.64
   1   9  -1  116.37   10.60
   1   9   1  112.64    8.87
   1   9   1  101.46    8.36
   1   9   1  112.72   10.91
   1  -9  -1   95.37   10.95
  -1   9  -1   99.25    9.55
   2  -9   1  324.55   20.04
   2   9  -1  291.26   17.07
   2   9  -1  315.71   16.50
  -2   9   1  321.09   18.16
   2   9  -1  293.64   17.58
   2  -9  -1  339.56   20.71
  -2   9  -1  296.92   17.89
   2   9   1  322.68   18.38
   2   9   1  328.10   17.56
  -2  -9   1  278.34   16.31
   2   9   1  308.29   15.28
   3   9  -1  168.57   14.30
   3  -9   1  179.41   15.48
   3   9  -1  171.12   12.20
  -3   9   1  182.65   14.15
  -3  -9  -1  189.30   11.98
   3  -9  -1  194.14   16.06
  -3  -9   1  191.39   12.71
   3   9   1  207.67   14.29
  -3   9  -1  191.38   14.77
   3   9   1  170.63   11.19
  -4   9   1    7.30    5.30
   4   9  -1   -0.31    3.55
  -4  -9  -1    6.03    3.84
   4  -9   1    8.88    5.52
   4   9   1   -2.48    4.10
   4  -9  -1   -2.45    4.04
  -4   9  -1    5.75    5.57
  -4  -9   1    5.61    4.33
   5   9  -1   -8.24    3.42
  -5   9   1    2.26    4.71
   5   9  -1   -4.32    3.49
   5  -9   1    4.07    5.85
  -5  -9  -1    7.53    4.69
   5  -9  -1    5.28    5.58
  -5   9  -1    1.29    5.45
   5   9   1   -6.24    4.09
  -5  -9   1    2.24    4.84
   0  10  -1   -4.38    3.41
   0 -10   1    5.16    4.84
   0  10   1   -1.65    4.58
   0  10  -1   -1.14    4.65
   0  10   1   -1.14    3.34
   1 -10   1    6.52    5.00
   1  10  -1    7.18    5.08
  -1  10   1    9.04    5.47
  -1  10   1   12.67    5.15
   1  10  -1    9.05    4.35
   1  10   1   -0.34    3.86
   1  10   1    9.89    4.52
   1  10   1   15.41    4.15
  -1  10  -1   12.69    5.16
   1 -10  -1    8.92    5.48
   2  10  -1   85.64    8.75
   2  10  -1   86.33    9.67
   2 -10   1   89.59   12.95
  -2  10   1   97.86   10.25
   2  10   1   77.66    8.21
   2  10   1   99.53   10.65
   2 -10  -1   68.08   11.20
  -2  10  -1   79.20   10.93
   2  10   1   90.63    8.39
  -3  10   1   96.64   10.91
   3 -10   1   88.99   13.58
   3  10  -1  105.19   10.67
  -3  10  -1   95.03   12.87
   3  10   1   80.47    8.12
   3  10   1   92.41   10.22
   3  10   1   85.59    8.41
  -3 -10   1   83.45    9.53
   3 -10  -1   90.08   13.56
  -4  10   1    7.45    5.45
  -4 -10  -1    4.31    4.42
   4  10  -1    0.86    4.25
   4 -10   1    8.08    6.07
   4 -10  -1    4.45    5.62
   4  10   1   -1.09    4.40
  -4 -10   1    1.32    4.23
  -4  10  -1   -4.47    4.36
  -5  10   1   89.35   14.08
  -5 -10  -1   80.01   10.24
   5 -10   1   67.41   12.94
   5  10  -1   82.83    9.85
  -5  10  -1   83.63   13.30
   5  10   1   55.01    9.93
  -5 -10   1   84.35   11.29
   5 -10  -1   61.42   12.41
   0  11   1   45.49    7.99
   0  11  -1   36.96    8.07
   0  11   1   32.51    8.59
   0  11  -1   44.09    9.46
  -1  11   1  104.70   12.09
   1  11  -1  105.83   10.09
   1 -11   1  106.48   12.32
   1  11  -1   93.94   11.37
  -1  11   1   99.10   10.17
   1  11   1  129.48   13.04
  -1  11  -1   81.84   11.52
   1  11   1  118.57   10.31
   2  11  -1   15.46    5.18
  -2  11   1   14.08    5.90
   2  11  -1   19.77    7.04
  -2  11  -1   22.50    6.67
   2  11   1   21.17    6.64
   2  11   1   13.48    4.47
  -3  11   1    6.74    5.32
   3 -11   1   11.41    5.74
   3  11  -1   12.74    4.96
   3  11  -1   18.50    6.75
   3 -11  -1   28.90    8.71
  -3 -11   1   18.48    6.08
  -3  11  -1   36.76    8.50
   3  11   1   13.69    6.54
   3  11   1   12.81    4.59
  -4  11   1   12.73    7.10
   4 -11   1    5.82    6.43
  -4 -11  -1    9.99    5.00
   4  11  -1    0.08    4.50
   4  11   1    2.74    3.89
  -4 -11   1   -3.41    4.82
  -4  11  -1   12.50    6.59
   4 -11  -1   -4.23    5.64
   4  11   1   11.50    6.27
   0  12  -1   -0.22    3.21
   0  12  -1   -3.44    5.37
   0  12   1    3.94    3.86
   1  12  -1  -10.00    3.65
   1 -12   1    4.28    4.95
  -1  12   1   -9.50    3.48
   1  12  -1   -0.94    3.40
  -1  12   1    4.25    4.97
  -1  12  -1    4.50    5.10
   1  12   1  -12.89    4.31
  -1  12  -1    6.19    5.33
   1  12   1   -5.35    3.86
   2  12  -1    0.25    4.25
   2 -12   1    5.68    4.94
  -2  12   1   -6.69    4.83
   2  12  -1    3.55    5.07
   2  12   1    5.22    4.30
   2 -12  -1    1.55    4.40
  -2  12  -1   -2.73    3.81
   2  12   1   -2.28    4.19
   3  12  -1   25.62    7.43
   3  12  -1   26.65    6.56
   3 -12   1   22.14    8.70
  -3  12   1   24.18    7.40
   3  12   1   14.30    5.50
   3  12   1    9.56    6.43
  -3  12  -1   35.97    8.87
   3 -12  -1   27.14    9.28
   0  13   1    3.45    4.27
   0  13  -1   -1.96    3.78
   0  13  -1   -3.15    6.03
   0  13   1   11.25    7.19
   1  13  -1   11.18    4.92
  -1  13   1   26.34    8.98
   1  13  -1   13.76    7.17
  -1  13  -1    3.59    4.55
   1  13   1   12.07    5.14
   1  13   1    9.81    6.17
  -1  13  -1   30.94    9.83
   2  13  -1   -2.72    3.94
   2 -13   1    9.52    7.33
  -2  13   1    1.04    6.12
  -2  13   1    0.65    4.91
  -2  13  -1    0.02    5.07
   2  13   1    5.51    5.00
   2  13   1    7.45    5.50
   0   0   2   -0.35    0.37
   0   0  -2    0.05    0.64
   0   0  -2   -0.35    0.58
   0   0   2   -0.23    0.53
  -1   0   2 3217.44  118.42
  -1   0   2 3161.50  118.45
   1   0   2 3183.79  120.67
  -1   0  -2 3331.67  120.99
  -2   0  -2 1057.27   31.71
  -2   0   2 1063.58   32.88
   2   0  -2 1057.46   30.54
  -2   0  -2 1059.31   33.05
   2   0   2 1071.27   33.07
  -2   0   2 1044.75   30.56
   2   0  -2 1037.76   32.66
  -3   0  -2  245.78   11.47
  -3   0  -2  255.12   12.42
   3   0  -2  237.00   10.26
   3   0   2  237.37   11.29
  -3   0   2  250.36   12.45
   3   0  -2  240.57   12.24
   3   0   2  239.29   12.11
   4   0   2  142.23    9.35
  -4   0   2  127.49    9.84
  -4   0  -2  116.07    8.92
   4   0   2  136.42    9.74
   4   0  -2  141.79   10.08
  -4   0  -2  140.81   10.29
   4   0  -2  136.64    8.32
  -4   0   2  154.25    8.74
   5   0  -2   12.40    3.87
   5   0   2   11.66    4.22
  -5   0  -2   10.71    5.34
  -5   0  -2   12.34    4.67
  -5   0   2   12.19    4.30
   5   0   2    9.82    4.71
  -5   0   2   10.42    4.84
  -6   0   2   -1.48    4.40
  -6   0   2    5.47    4.26
   6   0   2   -1.56    3.95
  -6   0  -2    7.65    4.71
   6   0  -2    5.69    3.72
   7   0   2  133.62   12.72
  -7   0   2  115.16   12.22
   7   0  -2  138.48   11.07
  -7   0  -2  121.01   12.25
  -7   0   2  137.68   14.55
   0   1  -2   -0.82    0.75
   0   1   2    0.33    0.51
   0   1  -2    0.55    0.80
   0  -1  -2   -0.67    0.53
   0  -1   2    1.57    0.99
   0  -1   2   -0.51    0.84
   0   1   2   -0.17    0.91
   0  -1  -2   -0.21    0.75
  -1   1   2  858.87   25.61
  -1  -1  -2  875.74   26.34
   1   1  -2  887.82   26.07
   1  -1   2  860.36   26.69
  -1   1   2  870.10   25.99
  -1  -1  -2  871.42   23.98
   1  -1   2  857.84   25.63
   1  -1  -2  881.05   25.64
  -1  -1   2  872.39   26.02
   1   1   2  814.46   23.89
   1  -1  -2  883.24   26.05
  -1   1  -2  864.20   26.66
  -1   1  -2  859.19   25.68
   1   1   2  885.86   26.40
  -2   1   2    0.08    1.49
   2   1  -2   -0.22    0.88
   2  -1   2    4.61    2.46
  -2  -1  -2   -0.01    1.85
   2   1  -2    1.17    1.54
  -2   1   2    0.33    1.54
   2  -1   2   -0.36    1.62
  -2  -1  -2    1.88    1.61
  -2   1  -2    0.36    2.18
  -2   1  -2    0.84    1.87
   2   1   2    1.03    1.40
   2  -1  -2    1.39    2.10
  -2  -1   2   -0.19    1.86
  -2  -1   2    0.99    1.10
   2  -1  -2   -0.82    1.53
   2   1   2    2.38    2.22
   3  -1   2 1162.93   36.66
   3   1  -2 1168.72   37.30
   3  -1   2 1177.06   37.92
  -3   1   2 1149.44   35.94
   3   1  -2 1137.29   33.76
  -3   1   2 1183.24   37.91
  -3  -1  -2 1151.29   35.76
  -3  -1  -2 1186.40   37.10
   3  -1  -2 1176.04   36.03
   3   1   2 1106.32   35.47
  -3   1  -2 1168.01   37.94
   3  -1  -2 1125.45   37.42
  -3   1  -2 1071.66   36.51
  -3  -1   2 1151.24   33.86
   3   1   2 1153.35   37.05
  -3  -1   2 1147.26   37.23
  -4  -1  -2  394.22   17.84
   4   1  -2  393.66   18.23
  -4  -1  -2  395.10   17.34
  -4   1   2  385.42   16.74
   4  -1   2  401.33   18.60
   4   1  -2  402.62   15.30
  -4   1   2  367.73   20.55
  -4   1  -2  432.43   18.60
   4  -1  -2  390.96   18.46
   4   1   2  398.52   17.12
  -4  -1   2  364.53   17.82
   4   1   2  409.70   17.89
   4  -1  -2  428.68   17.27
  -4   1  -2  410.14   18.76
  -4  -1   2  391.11   15.28
  -5   1   2 1098.50   40.72
  -5  -1  -2 1097.27   42.11
  -5  -1  -2 1115.49   38.81
   5  -1   2 1081.57   40.08
  -5   1   2 1105.74   37.96
   5   1  -2 1130.04   35.80
   5   1   2 1096.35   38.81
  -5   1  -2 1093.42   40.27
  -5   1  -2 1098.04   39.67
   5  -1  -2 1083.89   37.66
  -5  -1   2 1060.35   39.63
  -5  -1   2 1103.82   35.82
   6  -1   2  121.47   11.81
  -6   1   2  125.32   10.91
   6   1  -2  137.17    9.55
  -6   1   2  138.37   12.91
  -6  -1  -2  134.85   11.48
  -6  -1   2  112.73    9.33
  -6  -1   2  121.62   11.66
   6   1   2  153.31   12.32
  -6   1  -2  121.64   11.72
   6  -1  -2  131.24   10.81
  -7   1   2  133.86   13.87
   7   1  -2  131.30   10.20
   7  -1   2  156.26   13.51
  -7  -1  -2  164.52   14.20
  -7  -1   2  115.89   12.61
   7   1   2  141.75   12.80
  -7   1  -2  194.17   15.86
   7  -1  -2  164.02   12.33
  -7  -1   2  163.33   16.98
   0   2  -2 2449.85   70.56
   0  -2  -2 2688.25   69.34
   1  -2   2 3888.02  146.50
  -1   2   2 4187.21  149.78
  -1   2   2 4108.74  148.89
  -1  -2  -2 4037.94  140.81
  -1   2  -2 4496.84  150.41
  -1  -2   2 3715.23  133.72
  -1  -2   2 4072.95  146.90
   1   2   2 4087.81  142.75
   2   2  -2  720.80   20.49
   2   2  -2  721.85   23.89
   2  -2   2  718.69   24.01
  -2  -2  -2  720.20   23.91
  -2  -2  -2  730.55   21.88
  -2   2   2  722.44   24.52
   2  -2   2  713.07   25.15
  -2   2   2  735.49   24.15
  -2   2  -2  736.72   25.27
  -2  -2   2  705.24   23.76
   2   2   2  718.48   24.06
  -2  -2   2  706.34   20.43
   2  -2  -2  712.97   24.28
   2  -2  -2  703.42   23.90
  -2   2  -2  691.22   23.95
   2   2   2  700.57   21.79
   3  -2   2  613.82   23.73
   3   2  -2  632.62   19.86
  -3  -2  -2  602.08   20.72
  -3   2   2  593.04   22.18
  -3   2   2  608.48   23.21
   3  -2   2  601.91   22.46
  -3  -2  -2  616.41   22.16
   3   2  -2  576.83   22.16
  -3   2  -2  597.16   23.50
  -3  -2   2  598.80   22.35
   3   2   2  598.93   22.31
   3   2   2  608.03   20.73
  -3  -2   2  585.64   18.70
  -3   2  -2  579.06   22.53
   3  -2  -2  605.12   22.28
   3  -2  -2  610.22   23.08
   4   2  -2   61.54    7.87
   4   2  -2   60.62    4.71
  -4  -2  -2   54.92    6.61
   4  -2   2   50.09    7.48
  -4  -2  -2   71.07    6.26
   4  -2   2   56.13    7.52
  -4   2   2   66.41    6.85
  -4   2   2   79.42    8.11
   4   2   2   64.35    6.66
   4  -2  -2   71.43    7.36
  -4   2  -2   60.65    8.12
   4  -2  -2   61.92    7.74
   4   2   2   56.52    5.86
  -4  -2   2   51.35    7.21
  -5  -2  -2   59.60    9.28
   5   2  -2   56.76    5.49
  -5  -2  -2   51.58    8.86
  -5   2   2   55.78    8.56
  -5   2   2   67.80    9.68
   5  -2   2   66.45    9.37
   5  -2  -2   59.32    8.29
   5   2   2   46.11    6.92
  -5  -2   2   55.98    8.11
  -5  -2   2   52.58    5.36
   5   2   2   56.46    8.27
  -5   2  -2   68.61    9.77
  -6  -2  -2    0.45    3.95
  -6   2   2   -6.84    3.91
   6   2  -2    2.29    2.92
   6  -2   2    2.95    3.92
  -6  -2  -2   -2.70    4.17
   6   2   2   -1.16    3.35
   6  -2  -2    2.62    3.80
  -6  -2   2    5.01    4.40
  -6   2  -2    0.30    3.94
  -7   2   2   16.48    7.23
   7  -2   2   14.41    5.66
   7   2  -2   19.70    4.73
  -7  -2  -2   17.10    5.96
  -7  -2   2    9.25    5.10
   7   2   2   12.91    5.54
   7  -2  -2   21.94    6.46
  -7   2  -2   16.11    5.94
   0  -3   2   -1.23    1.45
   0   3  -2    0.60    1.62
   0   3  -2   -1.41    1.65
   0  -3   2    0.71    1.88
   0   3   2    0.40    1.92
   0   3   2    0.46    1.53
   0  -3  -2    1.09    1.30
  -1   3   2 2205.09   59.93
  -1  -3  -2 2048.68   57.28
  -1  -3  -2 2031.35   60.28
   1   3  -2 2115.56   59.87
   1  -3   2 2097.87   60.31
  -1   3   2 2045.58   60.91
   1  -3   2 2177.29   61.43
   1   3  -2 1981.62   58.18
  -1  -3   2 2140.80   60.01
   1   3   2 2104.41   60.51
   1  -3  -2 2188.19   61.21
  -1   3  -2 2081.23   61.17
   1  -3  -2 2093.66   59.59
  -1   3  -2 2048.70   60.28
   1   3   2 2136.99   57.23
   2  -3   2  215.01   10.85
   2  -3   2  231.52   12.22
  -2   3   2  223.75   11.16
   2   3  -2  224.11    8.21
   2   3  -2  204.21   10.18
  -2  -3  -2  214.89   10.64
   2   3  -2  217.91    8.26
  -2  -3  -2  224.79    8.75
  -2   3   2  222.11   11.41
   2   3   2  211.47   10.62
  -2  -3   2  215.18   10.49
   2   3   2  226.24    8.75
  -2   3  -2  227.94   11.19
  -2   3  -2  229.27   11.75
   2  -3  -2  235.04   11.57
   2  -3  -2  201.62   10.51
   3   3  -2 1595.81   50.09
  -3   3   2 1671.30   51.42
  -3  -3  -2 1626.60   49.83
   3  -3   2 1629.72   50.96
   3  -3   2 1637.44   52.49
  -3   3   2 1624.01   51.67
  -3  -3  -2 1686.32   48.13
   3  -3  -2 1692.50   51.84
   3  -3  -2 1631.37   51.17
  -3  -3   2 1645.99   50.32
  -3   3  -2 1727.06   52.09
  -3  -3   2 1618.49   46.09
   3   3   2 1583.97   47.85
   3   3   2 1604.52   50.03
  -3   3  -2 1521.63   51.85
  -4  -3  -2  257.69   12.61
   4   3  -2  259.89   10.68
  -4   3   2  265.66   15.15
   4  -3   2  265.42   14.55
   4   3  -2  257.60   13.87
   4  -3   2  230.19   16.69
  -4   3   2  248.60   14.08
  -4  -3  -2  267.89   13.43
  -4  -3   2  243.85   13.50
   4   3   2  244.22   12.34
   4  -3  -2  277.76   14.91
  -4  -3   2  257.88   13.92
   4   3   2  250.18   13.48
  -4   3  -2  269.73   15.55
  -4   3  -2  282.33   15.27
  -5  -3  -2  186.46   12.07
  -5   3   2  213.75   14.87
  -5  -3  -2  180.40   11.81
   5   3  -2  175.19    9.25
   5  -3   2  189.32   13.99
  -5   3   2  189.06   12.88
  -5  -3   2  191.96    9.52
   5  -3  -2  188.21   13.22
  -5  -3   2  206.48   13.24
   5   3   2  228.40   13.30
   5   3   2  182.64   11.69
  -5   3  -2  197.68   14.01
  -6  -3  -2   19.98    5.85
  -6   3   2   25.16    7.46
  -6  -3  -2   27.41    6.48
   6  -3   2   27.26    7.55
   6   3  -2   27.93    4.58
   6   3   2   31.18    6.63
  -6  -3   2   26.78    4.65
  -6   3  -2   29.02    7.74
  -6  -3   2   27.77    6.65
   6  -3  -2   26.80    6.58
   7  -3   2  143.26   13.99
  -7   3   2  160.95   15.35
   7   3  -2  140.58    9.24
  -7  -3  -2  176.19   13.60
  -7   3  -2  154.02   14.46
  -7  -3   2  139.53   10.01
   7  -3  -2  160.71   13.56
   7   3   2  165.92   13.25
   0   4   2 2373.08   67.81
   0  -4   2 2510.13   67.20
   0   4  -2 2112.16   66.38
   0  -4  -2 2410.63   65.09
   0   4  -2 2294.57   66.65
   0  -4   2 2281.53   66.88
   0   4   2 2233.38   64.67
   0   4   2 2355.40   67.76
   1  -4   2 3597.01  104.58
  -1  -4  -2 3792.11  103.98
  -1   4   2 3807.45  104.99
   1   4  -2 3502.32  102.58
   1  -4   2 3736.76  103.61
  -1  -4  -2 3630.93  100.49
  -1   4   2 3653.27  102.78
  -1  -4   2 3747.20  101.93
  -1   4  -2 3772.71  104.20
   1   4   2 3712.64  100.33
   1  -4  -2 3635.25  102.55
   1  -4  -2 3726.36  104.73
  -1   4  -2 3679.55  103.69
  -1   4  -2 3715.60  104.75
   1   4   2 3836.71  104.28
  -1  -4   2 3654.52  102.98
  -2   4   2  366.66   16.65
   2  -4   2  386.46   16.07
   2  -4   2  309.72   16.25
   2   4  -2  374.33   13.37
   2   4  -2  373.77   13.26
  -2  -4  -2  379.28   13.12
   2   4  -2  364.75   15.00
  -2   4   2  344.94   15.59
  -2  -4  -2  380.07   15.72
  -2   4  -2  365.97   16.03
   2  -4  -2  336.86   16.18
   2  -4  -2  374.54   15.71
  -2  -4   2  377.66   15.29
   2   4   2  356.85   12.88
   2   4   2  352.85   15.47
  -2   4  -2  416.73   17.71
   3  -4   2  249.91   13.40
   3   4  -2  255.76   12.78
   3  -4   2  248.01   14.39
  -3  -4  -2  254.68   12.72
   3   4  -2  244.24    9.93
  -3   4   2  263.87   14.08
   3   4  -2  247.34   10.15
  -3   4   2  265.88   14.28
  -3  -4  -2  250.75   11.11
   3   4   2  252.99   11.01
   3  -4  -2  261.49   13.66
  -3   4  -2  262.97   14.05
  -3   4  -2  248.91   16.01
   3   4   2  256.15   12.89
  -3  -4   2  246.61   12.74
   3  -4  -2  247.41   13.88
  -4   4   2   65.08    9.24
   4  -4   2   74.93    8.73
   4   4  -2   65.18    5.04
   4   4  -2   64.69    7.20
  -4  -4  -2   71.99    7.08
  -4  -4  -2   63.97    6.13
  -4   4   2   84.15    8.50
   4  -4  -2   58.14    9.72
  -4   4  -2   81.20    8.61
   4   4   2   57.44    5.78
   4   4   2   52.39    7.41
  -4  -4   2   68.15    7.13
   5   4  -2   81.53    5.96
   5  -4   2   71.34   11.05
  -5   4   2   72.55   10.57
  -5  -4  -2   87.85    8.14
  -5   4  -2   69.58   10.09
   5  -4  -2   70.23    9.92
   5   4   2  101.85    8.31
  -5  -4   2   80.53    6.06
  -5  -4   2   93.62    9.16
   5   4   2   87.26    8.96
  -6   4   2   20.71    6.94
  -6  -4  -2   12.64    5.30
  -6  -4  -2   13.12    5.22
   6   4  -2   26.41    4.13
   6  -4   2   27.12    7.22
   6   4   2   14.65    5.30
  -6   4  -2   29.15    7.66
  -6  -4   2   19.07    3.99
  -6  -4   2   16.28    5.38
   6  -4  -2   27.30    7.33
  -7  -4  -2   71.00   10.24
   7   4  -2   78.92    6.22
  -7   4   2   74.27   12.83
  -7   4  -2   60.48   11.23
   7   4   2   77.84    9.03
  -7  -4   2   46.45    6.79
   7  -4  -2   84.91   12.05
   0   5  -2    0.52    2.42
   0   5   2    1.80    3.03
   0  -5   2   -2.87    2.32
   0   5   2   -0.55    2.01
   0   5  -2   -0.09    2.38
   0   5  -2   -1.24    2.35
   0   5   2   -1.26    2.54
   0   5   2   -2.15    1.85
   1   5  -2  128.52    8.02
  -1   5   2  132.04    9.44
   1  -5   2  126.10    9.22
   1   5  -2  129.28    7.96
  -1   5   2  145.05    8.32
   1  -5  -2  133.16    9.42
  -1  -5   2  136.32    8.10
   1   5   2  140.80    6.91
  -1   5  -2  134.68    9.46
   1   5   2  135.91    6.89
   1  -5  -2  134.79    8.18
  -1   5  -2  132.78    8.81
   1   5   2  146.06    9.05
  -1  -5   2  131.13    8.42
   1   5   2  123.57    8.76
  -1   5  -2  133.05    8.90
   2  -5   2   29.21    5.02
   2  -5   2   22.60    5.59
  -2  -5  -2   24.66    3.52
  -2   5   2   17.72    4.83
   2   5  -2   25.19    4.01
   2   5  -2   23.76    4.24
   2   5  -2   20.49    3.61
  -2  -5  -2   22.59    4.58
  -2   5   2   25.22    4.95
  -2  -5   2   25.98    4.55
  -2   5  -2   25.82    5.47
   2   5   2   27.04    4.92
   2  -5  -2   16.54    4.93
   2   5   2   27.96    3.62
  -2   5  -2   23.59    4.72
   2  -5  -2   25.57    4.75
   3   5  -2  784.38   24.97
   3   5  -2  743.56   24.92
  -3   5   2  769.15   29.50
   3  -5   2  713.28   30.25
  -3   5   2  767.64   30.35
  -3  -5  -2  785.18   25.51
   3  -5   2  757.35   29.13
  -3  -5  -2  751.60   27.71
   3   5  -2  777.53   27.87
   3  -5  -2  816.82   30.67
  -3   5  -2  749.40   29.53
   3   5   2  780.23   25.48
  -3   5  -2  759.82   30.53
   3   5   2  751.22   27.96
   3  -5  -2  759.79   29.13
  -3  -5   2  771.47   27.91
  -4  -5  -2  194.96   10.92
   4   5  -2  199.53    9.60
  -4   5   2  208.20   14.08
  -4  -5  -2  185.77   11.70
   4   5  -2  201.24   12.54
   4  -5   2  200.59   14.65
   4   5  -2  202.20    9.32
   4   5   2  218.50   12.86
   4  -5  -2  199.62   13.90
  -4   5  -2  189.36   13.58
   4   5   2  187.75   10.57
   5  -5   2  278.94   18.54
  -5  -5  -2  275.67   15.39
  -5   5   2  287.05   18.36
  -5  -5  -2  288.42   15.05
   5   5  -2  278.90   12.12
  -5  -5   2  276.25   12.12
   5   5   2  293.00   14.85
  -5  -5   2  296.82   16.73
   5   5   2  291.76   16.01
   5  -5  -2  308.28   18.37
  -5   5  -2  289.61   18.44
  -6   5   2   56.64   10.31
  -6  -5  -2   53.02    8.38
   6   5  -2   64.69    5.40
  -6  -5  -2   54.96    8.08
   6  -5   2   52.63    9.73
   6   5   2   63.03    8.93
  -6  -5   2   63.89    9.46
  -6  -5   2   49.69    5.24
   6  -5  -2   59.24   10.43
   7   5  -2   49.74    4.51
   7  -5   2   50.04   10.79
  -7   5   2   51.75   10.70
  -7  -5  -2   52.64    9.32
  -7  -5   2   45.98   11.31
   7  -5  -2   42.37   11.08
  -7   5  -2   37.16    9.17
   7   5   2   58.89    8.51
   0   6   2 1196.96   41.72
   0  -6   2 1280.19   41.46
   0   6  -2 1287.81   41.64
   0   6  -2 1249.71   40.63
   0   6   2 1264.68   42.21
   0   6  -2 1264.55   40.61
   0   6   2 1261.33   39.06
   0   6   2 1222.64   38.70
   1   6  -2 2683.78   79.03
  -1   6   2 2773.26   78.98
   1  -6   2 2729.77   81.49
   1   6  -2 2675.65   78.88
  -1   6   2 2949.54   86.28
   1   6  -2 2370.28   78.23
  -1   6  -2 2649.56   79.86
   1  -6  -2 2651.66   78.42
   1   6   2 2706.28   76.50
  -1   6  -2 2740.33   80.38
  -1   6  -2 2728.82   81.66
   1   6   2 2770.95   80.98
  -1  -6   2 2706.77   78.93
   1   6   2 2650.22   76.52
   1   6   2 2802.20   80.99
   1  -6  -2 2761.23   81.74
  -1  -6   2 2808.13   79.65
  -2  -6  -2  352.53   14.01
   2   6  -2  339.88   14.87
  -2  -6  -2  342.33   16.46
   2   6  -2  364.68   15.40
  -2   6   2  369.46   17.09
   2   6  -2  353.54   15.91
   2  -6   2  355.67   17.03
  -2   6   2  359.44   18.30
  -2   6  -2  374.76   17.90
   2  -6  -2  336.44   19.88
   2   6   2  351.31   16.85
   2   6   2  360.88   13.98
   2  -6  -2  354.82   18.50
  -2  -6   2  349.71   16.05
   2   6   2  373.65   16.80
  -2   6  -2  339.55   18.08
   3  -6   2  273.12   17.07
   3   6  -2  270.58   12.59
  -3  -6  -2  270.79   14.37
  -3  -6  -2  269.80   12.21
   3   6  -2  284.42   12.55
  -3   6   2  301.05   16.21
  -3  -6   2  298.92   14.78
   3  -6  -2  273.59   16.61
  -3   6  -2  284.14   16.07
   3   6   2  268.75   12.17
   3   6   2  267.72   14.79
   4   6  -2   21.75    5.20
   4   6  -2   22.97    3.86
  -4   6   2   26.25    6.81
  -4  -6  -2   30.21    5.26
   4   6  -2   24.33    4.24
   4  -6   2   13.52    5.21
   4  -6  -2   22.44    6.64
   4   6   2   34.87    5.20
  -4   6  -2   24.06    6.47
   4   6   2   29.93    6.33
  -4  -6   2   29.60    5.95
   5   6  -2   21.89    4.12
   5  -6   2   22.43    6.77
  -5  -6  -2   28.90    5.60
  -5   6   2   19.33    6.61
   5   6  -2   16.63    3.59
  -5  -6  -2   26.91    5.96
  -5   6  -2   16.84    6.50
   5   6   2   27.97    5.45
  -5  -6   2   27.63    6.61
   5  -6  -2   27.07    7.10
   6   6  -2   11.87    3.18
  -6  -6  -2   24.74    5.92
   6   6  -2   14.71    2.90
  -6   6   2   16.03    7.01
   6  -6  -2   16.55    6.50
  -6   6  -2   19.85    7.19
   6   6   2    8.46    4.91
  -6  -6   2   18.52    6.17
   0   7  -2   -2.26    2.60
   0  -7   2    4.69    3.67
   0   7  -2   -3.65    2.20
   0   7   2   -0.33    3.05
   0   7   2    1.18    2.63
   0   7   2   -5.33    2.20
   0   7   2    0.55    3.57
  -1   7   2    1.72    2.47
   1   7  -2    1.95    2.68
  -1   7   2    2.63    2.19
   1   7  -2    0.82    2.41
   1   7  -2    1.50    2.43
  -1   7  -2    1.61    3.26
   1   7   2    3.92    2.37
  -1  -7   2    2.33    3.16
   1   7   2    6.05    3.75
   1   7   2    3.09    3.04
  -1   7  -2   -0.21    2.83
   1  -7  -2    2.11    2.74
  -1   7  -2    1.56    3.30
  -1  -7   2    5.23    3.53
   1   7   2   -2.58    1.69
   1  -7  -2   -1.23    3.18
   2   7  -2    0.36    3.12
   2  -7   2    2.99    3.29
  -2  -7  -2    1.53    2.28
   2   7  -2    1.08    2.54
  -2   7   2   -0.79    2.32
   2  -7  -2    0.42    2.99
   2   7   2    5.27    2.36
   2   7   2    6.94    3.53
   2  -7  -2   -1.74    2.28
   2   7   2    4.28    3.20
  -2  -7   2    2.14    3.29
  -2   7  -2    2.05    3.29
  -3   7   2  264.81   15.84
  -3  -7  -2  230.17   11.99
   3  -7   2  291.36   17.95
   3   7  -2  266.74   12.90
   3   7  -2  239.44   13.67
   3   7  -2  265.54   13.10
   3   7   2  270.65   15.16
   3  -7  -2  205.14   15.49
   3   7   2  254.88   12.00
  -3  -7   2  278.67   17.24
  -3   7  -2  249.44   15.62
   3   7   2  241.54   13.99
   4  -7   2  145.59   13.68
  -4  -7  -2  145.50   11.27
  -4  -7  -2  141.74    9.64
  -4   7   2  151.51   12.94
   4   7  -2  142.45    8.96
   4   7  -2  143.55    9.32
  -4  -7   2  132.55   11.15
  -4   7  -2  168.55   13.65
   4   7   2  141.74    9.42
   4  -7  -2  141.80   13.24
   5  -7   2  172.04   15.90
   5   7  -2  180.41    9.98
  -5   7   2  179.75   15.34
   5   7  -2  189.51    9.91
  -5  -7  -2  144.50   12.02
   5  -7  -2  196.94   16.00
   5   7   2  164.70   10.91
  -5  -7   2  179.28   13.76
  -5   7  -2  203.66   16.09
   5   7   2  168.49   12.92
  -6  -7  -2   31.26    6.85
   6   7  -2   28.71    4.05
   6   7  -2   22.00    3.92
  -6   7   2   25.67    8.48
   6  -7   2   27.85    8.92
   6   7   2   14.65    5.62
  -6   7  -2   19.81    7.74
   6  -7  -2   30.80    8.29
  -6  -7   2   18.38    6.62
   0   8   2  377.33   16.81
   0   8  -2  374.47   18.14
   0   8  -2  365.73   19.01
   0  -8   2  337.19   18.62
   0   8   2  368.18   16.89
   0   8   2  360.03   19.62
   0   8  -2  359.33   17.88
   1   8  -2  670.29   27.30
   1   8  -2  672.51   28.94
  -1   8   2  617.79   26.07
   1   8  -2  664.65   26.33
  -1   8   2  689.67   29.78
   1   8  -2  677.05   27.38
  -1   8   2  708.31   26.65
   1  -8   2  718.39   29.64
   1   8   2  702.42   24.88
   1   8   2  676.29   28.52
  -1  -8   2  656.29   30.12
   1  -8  -2  615.24   28.17
  -1   8  -2  667.66   27.49
   1   8   2  650.27   24.44
   1   8   2  729.76   29.01
   2  -8   2  125.35   11.88
   2   8  -2  128.47    9.92
   2   8  -2  140.10   10.44
  -2   8   2  138.11   10.87
   2   8  -2  147.77   10.40
   2   8   2  154.84   12.02
  -2  -8   2  166.71   13.12
   2   8   2  147.41    9.04
   2  -8  -2  177.82   13.74
   2   8   2  148.29   11.29
  -2   8  -2  134.76   11.35
   2   8   2  148.60    8.94
  -3   8   2  436.21   22.19
   3   8  -2  403.29   18.46
  -3  -8  -2  411.10   17.68
   3  -8   2  388.35   22.49
   3   8  -2  424.39   19.11
   3   8   2  387.40   17.04
   3   8   2  435.79   21.49
  -3   8  -2  429.76   22.14
   3   8   2  443.31   20.99
   3  -8  -2  425.32   23.42
  -3  -8   2  430.42   20.29
   4  -8   2   72.26   11.72
   4   8  -2   84.69    7.23
  -4   8   2   73.22   11.24
   4   8  -2   67.18    7.42
  -4  -8  -2   83.90    7.66
   4  -8  -2   81.86   12.27
  -4   8  -2   58.74   10.47
   4   8   2   77.92    7.17
  -4  -8   2   82.33    9.29
   4   8   2   72.28    9.95
  -5   8   2   14.09    6.82
   5   8  -2   18.36    4.56
   5   8  -2   12.71    3.95
  -5  -8  -2   23.44    5.47
   5  -8   2   17.02    6.45
   5   8   2    5.33    5.23
  -5   8  -2   17.87    6.66
   5   8   2   11.35    4.78
  -5  -8   2   22.83    6.32
   6   8  -2   -1.83    2.46
  -6  -8  -2   -4.32    3.97
  -6   8   2   -3.82    5.38
   6  -8   2    0.76    5.21
  -6  -8   2    3.72    5.11
   6   8   2   -3.18    4.54
  -6   8  -2   -1.35    5.74
   6  -8  -2    0.24    4.89
   0   9   2   -4.32    2.24
   0   9   2   -3.14    1.68
   0   9   2   -4.46    3.30
   0   9  -2   -1.52    3.01
   0  -9   2    4.22    3.80
  -1   9   2  283.99   18.50
   1   9  -2  290.36   18.77
   1  -9   2  306.30   18.48
   1   9  -2  289.29   15.80
  -1   9   2  275.47   15.43
   1   9  -2  283.47   16.70
   1  -9  -2  288.17   18.27
   1   9   2  300.81   17.90
  -1   9  -2  279.36   16.56
   1   9   2  300.88   14.64
   1   9   2  261.31   13.84
   2  -9   2   75.94   11.56
   2   9  -2   64.88    7.88
  -2   9   2   95.05    9.96
   2   9  -2   74.72   11.57
   2   9   2   68.69    9.99
   2   9   2   77.28    7.32
  -2  -9   2   56.52    8.55
   2  -9  -2   48.32    9.73
   2   9   2   78.42    7.13
  -2   9  -2   68.53   10.04
   3   9  -2   95.38    8.99
   3   9  -2  111.05    9.74
  -3  -9  -2   96.82    8.29
  -3   9   2  109.35   11.33
   3  -9   2   96.40   11.60
   3  -9  -2   77.21   12.02
  -3   9  -2   93.99   10.52
   3   9   2   86.73    7.56
  -3  -9   2   95.07   10.24
   3   9   2   93.85   10.07
  -4  -9  -2   12.76    4.38
  -4   9   2   15.86    6.42
   4   9  -2   17.76    5.36
  -4  -9   2   25.41    6.69
   4   9   2   24.35    6.78
   4  -9  -2   24.70    8.02
   4   9   2   19.12    4.86
  -5  -9  -2   31.17    6.28
   5  -9   2   45.36   10.99
   5   9  -2   33.24    6.04
  -5   9   2   21.14    7.67
   5   9  -2   38.21    5.91
   5  -9  -2   45.02   10.02
   5   9   2   28.69    7.42
  -5  -9   2   46.49    8.75
  -5   9  -2   54.73   10.82
   0  10   2  215.76   15.94
   0  10  -2  191.37   13.84
   0 -10   2  183.13   14.71
   0  10   2  206.38   13.31
   1  10  -2  375.16   21.15
   1  10  -2  367.75   19.30
   1 -10   2  402.33   22.56
  -1  10   2  375.11   19.28
  -1  10   2  366.04   22.54
   1  10   2  372.30   21.74
   1  10   2  368.49   17.84
  -1  10  -2  359.16   20.14
   2 -10   2   56.05   10.39
   2  10  -2   66.83    9.36
  -2  10   2  102.55   10.12
   2  10  -2   65.57    9.76
  -2 -10   2   83.94   11.04
   2  10   2   68.19   10.42
   2  10   2   84.93    7.83
  -2  10  -2   97.19   10.51
   2  10   2   68.12    7.26
   2 -10  -2   82.74   12.31
  -3  10   2   62.52   10.43
   3  10  -2   52.25    8.10
   3 -10   2   74.61   14.26
   3  10   2   64.99    7.03
   3  10   2   47.38    6.77
  -3  10  -2   71.75   11.13
   3 -10  -2   52.98   11.96
   3  10   2   50.40    9.18
  -3 -10   2   47.49    8.17
   4 -10   2   -1.87    5.01
   4  10  -2    1.23    3.98
  -4 -10  -2    0.84    3.35
  -4  10   2    0.01    4.91
   4  10  -2   -1.10    3.86
   4  10   2    5.84    5.32
  -4  10  -2   -3.68    4.33
   4 -10  -2    6.46    6.51
  -4 -10   2    2.27    4.34
   5  10  -2   -7.40    4.08
  -5 -10  -2   -6.60    3.75
   5 -10   2   -5.76    5.30
  -5  10   2    1.54    5.74
  -5  10  -2    3.34    5.65
   5  10   2  -10.42    4.13
  -5 -10   2   10.78    5.69
   5 -10  -2    4.30    5.53
   0  11   2   -1.12    3.84
   0 -11   2   -0.95    4.66
   0  11  -2   -1.21    3.19
   0  11   2   -4.14    4.33
   0  11  -2   -2.13    4.58
  -1  11   2   -3.45    4.49
   1  11  -2    0.67    3.30
   1  11  -2   -4.93    3.06
   1 -11   2    3.54    4.94
  -1  11   2   -2.70    2.85
   1  11   2    0.89    3.34
  -1  11  -2   -1.91    4.62
   1  11   2   -2.42    4.60
   2  11  -2    6.13    3.88
  -2  11   2    2.00    3.57
   2  11  -2    5.77    4.68
  -2  11   2    7.13    5.29
  -2  11  -2    2.41    4.24
   2 -11  -2    2.91    4.27
   2  11   2   -0.63    3.80
   2  11   2   15.60    5.65
   3 -11   2   41.88    9.54
   3  11  -2   50.19    8.79
   3  11   2   39.18    8.46
  -3  11  -2   41.49    9.42
   3 -11  -2   40.92   10.03
   3  11   2   30.51    5.99
  -3 -11   2   49.16    8.41
   4 -11   2   12.23    8.01
  -4  11   2    3.41    6.21
   4  11  -2    4.90    4.76
  -4  11  -2   15.35    7.29
   4 -11  -2   11.12    6.36
  -4 -11   2   11.31    5.47
   4  11   2   15.61    4.61
   4  11   2   14.90    6.94
   0  12   2  106.70   10.38
   0  12  -2  108.69   12.93
   0  12  -2   80.35   11.73
   0  12   2   79.15   15.01
   1  12  -2   85.72    9.56
  -1  12   2   72.71   10.26
  -1  12   2   69.57   12.51
   1  12  -2   65.98   11.32
   1 -12   2   81.30   12.81
  -1  12  -2   71.37   11.00
   1  12   2   81.21   12.63
   1  12   2   84.17    9.40
   2  12  -2    1.83    3.97
  -2  12   2   11.71    5.77
   2  12  -2   -1.64    4.14
   2 -12   2   -2.92    5.49
  -2  12   2   -1.91    5.88
  -2  12  -2    1.09    5.15
   2  12   2    7.38    5.99
   2  12   2    6.31    4.09
  -3  12   2    4.77    5.26
  -3  12   2    3.03    6.51
   3 -12   2   11.88    7.19
   3  12  -2    6.81    4.69
   3  12  -2    0.43    4.42
   3  12   2    6.36    4.23
   3 -12  -2    6.41    6.41
   3  12   2    2.72    6.28
  -3  12  -2    8.01    6.53
   0  13   2   -6.66    2.88
   0  13   2    0.81    6.07
   0  13  -2   -5.68    5.11
   0  13  -2   -2.23    4.14
   1 -13   2    3.60    4.75
  -1  13   2   18.57    5.83
   1  13  -2    7.78    5.45
  -1  13   2    8.95    6.97
   1  13  -2    3.85    5.00
  -1  13  -2    7.91    5.18
   1  13   2   -5.03    6.28
   1  13   2    8.31    4.23
  -1  13  -2   -0.01    5.99
   2  13  -2    4.46    4.50
  -2  13   2    4.16    4.89
   2 -13   2   -5.97    5.24
   2  13  -2   -1.61    5.64
  -2  13   2    5.78    6.95
  -2  13  -2   -2.16    5.16
   2  13   2   -3.66    4.26
   2  13   2    1.04    4.82
   0   0   3    0.48    0.99
   0   0  -3   -0.16    1.17
   0   0  -3    2.39    1.17
   0   0   3    0.40    1.24
   1   0  -3  703.06   22.85
  -1   0  -3  746.15   21.69
  -1   0   3  725.09   22.95
   1   0   3  751.70   21.69
  -1   0   3  759.72   21.40
   1   0   3  746.18   23.77
  -1   0  -3  778.47   23.88
  -1   0   3  737.64   21.33
   2   0  -3  107.33    6.82
  -2   0  -3  105.88    5.78
   2   0   3  100.79    7.05
  -2   0  -3  115.69    7.46
  -2   0   3  104.66    5.02
  -2   0   3  112.60    7.05
   2   0  -3  103.62    4.95
   3   0   3   48.11    6.50
  -3   0   3   54.80    5.97
  -3   0  -3   52.50    5.29
  -3   0   3   45.74    4.18
   3   0  -3   54.93    4.37
   3   0  -3   51.05    6.57
   3   0   3   51.23    4.62
  -3   0  -3   50.94    6.05
   4   0  -3 2938.89   82.23
   4   0  -3 2842.69   86.39
   4   0   3 2801.97   84.03
  -4   0  -3 2933.71   84.70
  -4   0   3 2909.08   82.33
  -4   0  -3 2995.56   86.80
   4   0   3 2886.38   86.46
   5   0  -3   52.08    6.01
  -5   0  -3   75.68    7.74
  -5   0  -3   42.51    7.78
   5   0   3   61.03    8.10
  -5   0   3   47.59    6.72
  -5   0   3   60.38    8.89
   5   0   3   56.65    8.54
   6   0  -3  452.86   19.44
  -6   0   3  447.84   19.88
  -6   0  -3  457.71   22.96
   6   0   3  472.61   23.53
  -6   0   3  430.76   23.47
   7   0  -3   21.34    5.30
  -7   0   3    7.06    5.75
   7   0   3   15.73    6.22
  -7   0   3   18.95    7.53
  -7   0  -3   24.73    7.03
   0   1  -3 2403.31   65.91
  -1   1   3 1682.63   46.39
   1  -1   3 1716.84   47.50
  -1  -1  -3 1687.91   47.31
  -1   1   3 1581.25   45.76
   1  -1   3 1566.85   45.72
  -1  -1  -3 1626.04   43.67
   1   1  -3 1547.20   43.32
   1  -1  -3 1642.65   46.20
   1   1   3 1591.33   43.62
  -1  -1   3 1544.77   46.33
  -1   1  -3 1607.43   45.81
   1   1   3 1647.47   47.13
  -2  -1  -3 2930.87   84.26
  -2   1   3 3003.64   85.24
   2   1  -3 3165.76   87.10
  -2   1   3 3151.12   87.27
   2   1  -3 3108.34   82.15
   2  -1   3 3106.20   85.98
   2  -1   3 3185.04   88.11
  -2  -1  -3 3135.36   87.35
   2   1   3 3062.84   87.42
  -2  -1   3 3037.55   86.87
  -2   1  -3 3107.67   87.88
  -2   1  -3 2996.87   85.94
   2   1   3 3113.72   84.31
  -2  -1   3 3118.68   82.23
   2  -1  -3 3129.71   85.36
   2  -1  -3 3066.19   87.09
   3  -1   3    1.57    2.04
   3  -1   3   -2.85    2.55
  -3  -1  -3    1.52    2.08
  -3  -1  -3    0.94    2.78
   3   1  -3    4.98    2.80
   3   1  -3   -0.80    1.23
  -3   1   3    0.07    2.81
  -3   1   3    0.79    2.21
   3   1   3   -0.83    1.66
  -3   1  -3   -0.42    3.01
  -3   1  -3    1.07    2.40
  -3  -1   3    1.33    1.66
   3  -1  -3    0.51    2.43
   3   1   3   -0.49    2.53
   3  -1  -3   -1.02    1.82
  -3  -1   3    3.22    2.87
   4  -1   3   32.02    5.48
  -4   1   3   31.76    5.04
  -4   1   3   34.33    6.30
   4  -1   3   31.05    6.14
   4   1  -3   29.21    3.43
  -4  -1  -3   28.26    5.72
  -4  -1  -3   27.48    4.83
   4   1  -3   43.99    6.81
   4   1   3   31.89    6.11
   4  -1  -3   32.01    5.88
  -4   1  -3   40.59    6.29
   4  -1  -3   33.44    5.24
  -4  -1   3   28.21    5.95
   4   1   3   31.93    5.15
  -4   1  -3   33.67    7.30
  -5   1   3   16.97    5.81
  -5  -1  -3   21.14    5.76
  -5   1   3   19.41    5.17
   5  -1   3   20.76    5.75
   5   1  -3   21.60    4.07
   5   1   3   19.64    4.52
  -5  -1   3   19.04    5.57
   5  -1  -3   24.07    5.16
   5   1   3   25.41    6.33
  -5  -1   3   20.52    4.16
  -5   1  -3   22.51    7.22
  -5   1  -3   21.95    5.71
   6  -1   3   69.35   10.43
  -6  -1  -3   56.49    8.87
   6   1  -3   65.01    6.71
  -6   1   3   64.46    9.11
  -6   1   3   54.63    9.53
  -6  -1   3   44.47    8.75
  -6  -1   3   56.72    7.10
  -6   1  -3   64.36    9.77
   6  -1  -3   64.66    7.51
   6   1   3   49.30    8.73
   7   1  -3   14.37    4.45
  -7   1   3    6.01    6.38
   7  -1   3   15.84    6.63
  -7  -1  -3   11.21    6.02
  -7  -1   3   14.32    6.16
   7  -1  -3   22.65    5.88
  -7   1  -3   15.56    6.16
  -7  -1   3    1.58    5.14
   7   1   3   17.90    6.22
   0   2   3    0.82    1.89
   0   2  -3   -0.16    1.74
   0  -2   3   -1.27    1.12
   0   2  -3   -1.48    1.56
   0  -2  -3    0.40    0.95
   0   2   3    0.24    0.92
   0  -2   3   -1.88    1.39
   0  -2  -3   -0.40    1.44
  -1  -2  -3  332.35   13.46
  -1   2   3  350.64   13.31
   1   2  -3  353.98   13.25
   1  -2   3  341.25   12.99
  -1   2   3  343.82   12.77
   1   2  -3  347.00   10.74
   1  -2   3  367.63   14.24
  -1   2   3  326.87   14.22
   1   2   3  366.01   13.82
   1  -2  -3  356.18   13.34
  -1   2  -3  346.68   13.34
  -1   2  -3  351.75   13.08
  -1  -2   3  336.14   10.68
  -1  -2   3  344.60   13.18
  -1   2  -3  380.93   14.25
   2  -2   3 1775.20   53.38
  -2   2   3 1732.21   52.01
  -2  -2  -3 1745.36   52.15
   2  -2   3 1717.16   51.47
  -2  -2  -3 1807.45   49.74
  -2   2   3 1743.02   51.52
   2   2  -3 1726.18   51.76
  -2  -2   3 1724.79   51.80
   2   2   3 1772.26   52.36
   2  -2  -3 1881.34   51.91
   2   2   3 1660.90   48.42
  -2   2  -3 1795.51   53.32
  -2   2  -3 1695.11   51.52
   2  -2  -3 1698.63   51.82
  -3   2   3   14.28    3.43
  -3  -2  -3   13.08    2.91
   3  -2   3   12.80    4.28
   3   2  -3   16.58    4.04
   3  -2   3   16.59    3.83
  -3  -2  -3   14.99    3.82
   3   2  -3   14.51    1.83
  -3   2   3   21.73    4.72
  -3   2  -3   11.35    4.19
   3   2   3   13.70    2.94
  -3  -2   3   14.26    1.80
   3   2   3   13.13    4.02
   3  -2  -3   11.35    3.62
   3  -2  -3   11.66    3.38
  -3  -2   3   14.38    3.87
  -3   2  -3   14.40    3.98
  -4   2   3 1139.91   40.89
   4  -2   3 1195.85   41.71
  -4  -2  -3 1139.09   39.62
   4   2  -3 1209.43   34.47
  -4   2   3 1184.56   39.07
  -4  -2  -3 1180.19   37.74
   4   2  -3 1212.31   40.55
   4  -2   3 1160.51   39.73
  -4   2  -3 1160.65   40.15
   4  -2  -3 1204.51   39.06
   4  -2  -3 1096.36   40.36
   4   2   3 1201.02   40.24
  -4  -2   3 1218.62   40.96
   4   2   3 1173.00   37.60
  -4  -2   3 1153.51   34.24
  -4   2  -3 1144.68   41.33
   5  -2   3    5.38    3.81
  -5   2   3    9.77    5.05
  -5  -2  -3    2.28    4.39
  -5  -2  -3    2.65    3.63
   5   2  -3    7.45    2.34
  -5   2   3   11.88    4.42
  -5   2  -3    5.49    3.96
  -5  -2   3    2.57    4.07
   5   2   3    3.62    3.36
  -5  -2   3    3.48    2.33
   5   2   3    5.80    3.98
   5  -2  -3    8.31    3.74
   6   2  -3  516.69   19.64
  -6   2   3  541.27   27.30
  -6  -2  -3  596.69   25.14
   6  -2   3  527.98   26.64
  -6   2   3  496.18   23.77
  -6   2  -3  538.98   26.13
   6  -2  -3  530.38   23.89
   6   2   3  556.89   25.50
  -6  -2   3  550.94   26.30
  -6  -2   3  537.17   19.83
   7  -2   3   -5.75    4.59
   7   2  -3   10.96    3.31
  -7  -2  -3    7.36    4.74
  -7   2   3    7.34    5.96
  -7   2  -3   10.91    6.54
   7  -2  -3    1.85    4.46
   7   2   3    2.67    5.04
  -7  -2   3   -3.29    4.11
  -7  -2   3    2.62    4.96
   0  -3  -3  972.58   27.81
   0  -3   3  922.30   29.66
   0   3   3  944.52   27.81
   0  -3   3  983.25   30.44
   0  -3  -3  929.53   30.58
   0   3   3  986.00   30.92
   0   3  -3 1005.45   30.34
   1   3  -3  194.60    9.41
  -1   3   3  202.92    9.93
  -1  -3  -3  193.83    9.70
   1  -3   3  196.77   10.09
  -1   3   3  197.08    9.01
  -1   3   3  205.15   10.21
   1   3  -3  193.12    7.84
   1  -3  -3  189.78    8.75
   1   3   3  213.01    6.48
  -1  -3   3  190.49    7.78
  -1   3  -3  211.46   10.06
  -1   3  -3  202.02    9.68
   1   3   3  193.37    9.96
  -1  -3   3  207.64    9.65
   1   3   3  209.59    6.50
  -1   3  -3  173.85    9.82
   1  -3  -3  179.42    9.49
   2  -3   3 2579.50   75.56
   2   3  -3 2629.84   75.49
   2  -3   3 2818.57   78.02
  -2   3   3 2767.89   76.44
   2   3  -3 2394.84   70.69
  -2   3   3 2709.81   76.48
   2   3  -3 2509.63   70.82
  -2  -3  -3 2629.74   75.83
  -2  -3  -3 2732.02   71.71
  -2   3  -3 2554.47   75.75
  -2   3  -3 2596.19   77.25
   2   3   3 2597.59   75.98
   2  -3  -3 2810.17   76.53
   2  -3  -3 2571.23   75.63
   2   3   3 2571.06   71.50
  -2  -3   3 2567.60   75.45
  -3  -3  -3   34.55    5.14
   3   3  -3   35.58    5.48
  -3   3   3   33.19    5.46
   3   3  -3   41.37    2.47
   3   3  -3   39.53    2.53
  -3   3   3   43.35    6.16
   3  -3   3   33.90    5.36
  -3  -3  -3   37.35    3.75
   3  -3   3   39.84    6.32
   3  -3  -3   46.48    6.51
  -3   3  -3   41.05    6.05
   3   3   3   40.81    3.89
  -3   3  -3   37.35    6.19
   3   3   3   30.83    5.32
   3  -3  -3   39.21    5.81
  -3  -3   3   35.22    5.43
  -4   3   3  327.97   17.66
   4  -3   3  335.97   17.05
   4   3  -3  382.41   14.59
   4   3  -3  339.99   17.07
   4  -3   3  361.19   18.98
  -4  -3  -3  355.53   15.02
  -4   3   3  349.03   17.21
  -4  -3  -3  340.59   16.71
   4  -3  -3  338.36   16.75
   4   3   3  359.43   17.14
  -4   3  -3  380.96   19.23
   4   3   3  323.91   14.44
  -4  -3   3  347.47   11.83
  -4   3  -3  319.20   17.07
  -5  -3  -3   15.80    5.15
   5  -3   3   21.98    6.38
  -5   3   3   20.34    5.60
  -5  -3  -3   18.87    4.71
  -5   3   3    9.88    5.39
   5   3  -3   19.88    3.07
   5   3   3   19.71    4.74
  -5  -3   3    9.24    4.67
  -5   3  -3   13.42    5.08
   5   3   3   24.40    6.08
  -5  -3   3   19.28    3.35
   6  -3   3  126.83   12.48
   6   3  -3  133.61    7.21
  -6  -3  -3  118.34   10.65
  -6   3   3  123.45   12.96
   6  -3  -3  135.44   11.69
   6   3   3  132.79   11.72
  -6   3  -3  118.54   11.95
  -6  -3   3  131.27   11.96
  -6  -3   3  118.28    7.30
   7  -3   3    9.60    6.06
  -7  -3  -3    9.67    4.38
  -7   3   3    0.65    4.19
   7   3  -3   10.06    2.57
  -7  -3   3    3.11    5.27
   7   3   3    0.46    4.46
   7  -3  -3    7.52    4.89
  -7   3  -3   -0.74    5.18
  -7  -3   3   -0.43    3.50
   0   4  -3   -2.20    1.43
   0  -4  -3    0.02    1.41
   0   4   3   -0.65    1.29
   0  -4   3    1.45    1.92
   0   4   3    1.47    2.38
   0  -4   3   -0.73    2.08
   0   4   3    1.98    1.89
   0   4  -3    0.28    2.05
   1   4  -3   84.25    6.07
   1  -4   3   71.49    6.76
  -1   4   3   64.27    6.59
   1   4  -3   58.53    5.36
  -1  -4  -3   73.47    6.43
  -1   4   3   62.54    5.18
   1   4   3   57.07    3.60
  -1   4  -3   58.59    5.64
   1   4   3   68.64    6.34
  -1   4  -3   54.25    5.85
   1  -4  -3   64.39    5.13
   1  -4  -3   55.18    6.30
  -1   4  -3   62.84    6.37
  -1  -4   3   56.27    5.55
   1   4   3   56.34    3.60
  -1  -4   3   72.77    5.17
  -2  -4  -3  392.45   16.88
   2   4  -3  423.43   13.84
   2  -4   3  408.53   17.07
   2  -4   3  375.07   18.02
  -2   4   3  402.35   16.97
   2   4  -3  396.99   16.49
  -2   4   3  383.42   17.57
  -2  -4  -3  397.20   13.28
   2   4  -3  407.36   13.91
  -2   4  -3  395.92   18.17
   2   4   3  380.13   13.07
   2  -4  -3  423.36   17.94
   2  -4  -3  392.17   16.52
   2   4   3  430.71   17.59
  -2  -4   3  398.41   16.65
  -2   4  -3  395.15   17.18
   3  -4   3    7.13    2.98
   3   4  -3    9.65    1.83
  -3   4   3    8.30    3.93
  -3  -4  -3    4.70    3.40
   3   4  -3    9.63    1.93
   3  -4   3    7.48    4.30
   3   4  -3    8.70    2.95
  -3  -4  -3    5.68    2.14
  -3   4   3   11.43    3.87
  -3   4  -3    7.84    3.74
   3  -4  -3   11.20    3.93
  -3  -4   3    7.20    3.39
  -3   4  -3    7.74    4.02
   3  -4  -3    8.08    3.78
   3   4   3   11.15    2.58
   3   4   3    5.64    3.18
   4   4  -3 1537.42   50.85
  -4   4   3 1563.77   51.90
   4  -4   3 1573.52   53.64
  -4  -4  -3 1526.82   49.96
  -4  -4  -3 1585.72   47.36
   4   4  -3 1551.56   43.51
  -4   4   3 1532.89   52.27
   4   4   3 1530.82   47.08
  -4  -4   3 1568.67   50.95
   4   4   3 1530.96   50.58
  -4   4  -3 1571.14   52.23
   4  -4  -3 1509.52   51.71
  -5  -4  -3   29.91    6.33
  -5   4   3   35.06    7.77
  -5  -4  -3   28.75    5.33
   5  -4   3   29.64    7.49
  -5   4  -3   32.24    7.31
  -5  -4   3   28.32    3.25
  -5  -4   3   30.72    6.57
   5  -4  -3   49.64    8.23
  -6  -4  -3  163.08   11.84
   6  -4   3  128.66   13.36
  -6   4   3  131.73   17.41
   6  -4  -3  155.17   13.09
  -6  -4   3  157.30   12.77
   6   4   3  135.72   11.85
  -6   4  -3  200.05   15.49
  -7   4   3   16.15    7.37
   7  -4   3   12.50    6.97
  -7  -4  -3   16.35    5.54
   7  -4  -3   15.75    6.17
   7   4   3   23.60    6.46
  -7  -4   3   15.74    6.72
  -7   4  -3    0.78    5.67
   0   5  -3 3309.64   93.67
   0   5   3 3245.60   94.82
   0   5  -3 3275.02   93.66
   0  -5  -3 3228.65   90.70
   0   5   3 3306.21   90.88
   0   5   3 3285.75   94.95
   0  -5   3 3132.12   93.20
   0  -5   3 3447.37   94.47
  -1   5   3    5.78    3.61
  -1  -5  -3    6.34    3.22
   1  -5   3    7.99    3.39
   1   5  -3    8.86    3.13
  -1   5   3    9.82    2.76
  -1   5   3    8.04    3.88
   1   5  -3    8.49    3.03
   1   5   3    6.97    2.09
   1  -5  -3   11.69    3.87
   1   5   3    8.54    3.44
  -1  -5   3    4.97    2.66
  -1   5  -3    3.84    3.13
  -1  -5   3    9.03    3.35
  -1   5  -3    4.98    3.13
   1   5   3    7.12    1.96
   1   5   3    6.08    3.39
   1  -5  -3    7.58    2.84
  -1   5  -3    5.61    3.39
   2   5  -3 1319.80   38.38
   2  -5   3 1279.72   43.42
   2   5  -3 1250.10   40.72
  -2  -5  -3 1231.42   36.87
  -2   5   3 1255.79   41.21
  -2  -5  -3 1289.76   41.70
   2   5  -3 1206.12   37.92
  -2   5   3 1301.13   43.34
   2  -5  -3 1324.91   41.32
   2   5   3 1297.64   41.96
   2   5   3 1230.18   36.65
  -2  -5   3 1325.74   41.26
   2  -5  -3 1139.79   41.98
  -2   5  -3 1273.62   42.03
   3  -5   3    3.51    3.18
   3   5  -3    5.33    2.14
  -3  -5  -3   11.51    2.57
   3   5  -3   13.75    2.55
  -3  -5  -3    7.87    3.59
  -3   5   3   12.75    4.49
   3  -5   3   13.17    5.29
  -3   5   3   10.51    4.50
   3  -5  -3   19.29    4.78
  -3  -5   3   10.92    3.90
   3  -5  -3    6.09    3.47
   3   5   3   10.23    2.56
   3   5   3   11.80    4.03
  -3   5  -3    9.92    4.09
  -3   5  -3    6.68    4.19
   4   5  -3   97.82    5.33
   4   5  -3   97.41    5.56
  -4  -5  -3   89.04    6.87
   4  -5   3   85.07   10.22
  -4   5   3   82.53    9.29
   4   5  -3   82.62    8.22
   4  -5  -3  111.69   10.25
  -4  -5   3   77.91    8.33
   4   5   3   82.24    8.61
   4   5   3   93.11    6.92
  -4   5  -3  105.44   10.04
  -5  -5  -3    2.21    4.02
   5  -5   3   -2.93    3.60
  -5  -5  -3    5.20    3.46
   5   5  -3    2.92    1.64
  -5   5   3    5.02    4.84
  -5  -5   3    5.51    4.15
   5  -5  -3    4.16    4.90
   5   5   3    3.08    3.89
  -5   5  -3    3.62    4.09
   5   5   3    1.85    3.21
  -6  -5  -3   32.62    6.25
  -6   5   3   27.40    8.11
   6  -5   3    8.37    6.27
   6   5  -3   24.95    2.30
   6  -5  -3   18.45    6.64
  -6  -5   3   24.07    6.75
   6   5   3   27.37    6.67
   7  -5   3    2.82    5.89
  -7  -5  -3   -2.31    4.44
  -7   5  -3   -2.09    5.21
   7  -5  -3    6.17    5.51
   7   5   3    4.16    4.70
  -7  -5   3   -7.85    4.24
   0   6  -3    1.01    2.16
   0   6  -3   -2.53    2.17
   0   6   3   -0.33    2.39
   0  -6   3   -2.65    1.96
   0   6   3   -1.37    2.81
   0   6  -3   -2.43    2.54
   0   6   3   -3.14    1.46
   0   6   3   -2.44    1.62
  -1   6   3    2.23    2.46
   1  -6   3    1.45    2.45
   1   6  -3    2.84    2.72
  -1   6   3    4.66    2.47
   1   6  -3    4.19    2.67
  -1   6   3   -1.30    2.77
   1   6   3   -0.10    2.08
   1   6   3    1.25    2.21
  -1   6  -3   -0.10    3.00
  -1   6  -3    6.41    3.58
  -1  -6   3    2.37    2.66
   1   6   3    8.90    4.07
   1  -6  -3    0.16    3.28
   1  -6  -3    5.27    2.89
  -1  -6   3    1.80    2.80
   1   6   3    3.03    2.79
  -2  -6  -3  119.61    9.28
   2  -6   3  103.83    8.79
   2  -6   3  123.49   12.35
   2   6  -3  123.20    7.89
  -2   6   3  112.67   10.11
   2   6  -3  122.62    7.88
  -2  -6  -3  124.20    6.71
   2   6  -3  128.47    9.04
  -2   6   3  117.57    9.15
   2  -6  -3  114.36    9.92
  -2   6  -3  127.48   11.53
  -2   6  -3  101.98    9.05
  -2   6  -3  122.78   10.03
   2   6   3  124.66    9.67
   2   6   3  127.80    6.65
  -2  -6   3  115.52    8.82
   3   6  -3    3.90    2.18
  -3   6   3    1.88    3.24
   3   6  -3    3.07    2.12
   3   6  -3    5.97    2.95
   3  -6   3    5.12    3.87
  -3  -6  -3    2.56    2.04
   3   6   3    1.07    1.84
  -3   6  -3    7.40    3.50
  -3  -6   3    3.95    3.19
   3  -6  -3    3.66    3.31
   3   6   3    4.49    3.76
  -4  -6  -3  777.72   26.71
   4   6  -3  757.12   25.01
  -4  -6  -3  749.77   30.00
   4   6  -3  770.70   25.71
  -4   6   3  791.03   32.82
   4  -6   3  824.82   34.67
   4  -6  -3  779.49   32.95
   4   6   3  748.98   26.30
  -4  -6   3  787.91   30.59
   4   6   3  785.12   33.86
  -4   6  -3  768.65   32.54
  -5  -6  -3    8.57    3.84
   5   6  -3    5.37    1.95
  -5   6   3    2.42    4.75
   5  -6   3    8.21    5.41
  -5   6  -3    5.80    4.79
   5   6   3    9.92    4.10
   5   6   3    2.66    5.02
  -5  -6   3    2.65    4.47
   5  -6  -3   13.86    5.97
  -6  -6  -3  172.90   12.36
   6  -6   3  174.67   16.28
  -6   6   3  179.66   16.11
  -6  -6   3  192.33   15.06
  -6   6  -3  209.25   17.08
   6   6   3  196.67   14.59
   6  -6  -3  216.86   16.56
   0   7   3 1560.24   48.33
   0   7   3 1552.32   48.15
   0  -7   3 1603.01   51.56
   0   7  -3 1606.93   51.07
   0   7  -3 1603.76   51.76
   0   7  -3 1555.13   50.75
   0   7   3 1576.77   52.80
  -1   7   3   37.26    7.30
   1   7  -3   53.98    7.32
  -1   7   3   34.36    6.92
   1   7  -3   52.35    7.18
  -1   7   3   59.99    7.37
  -1   7  -3   31.82    6.50
  -1   7  -3   41.36    7.27
  -1  -7   3   42.87    6.80
   1   7   3   42.90    4.57
   1  -7  -3   52.20    8.30
   1  -7  -3   50.94    5.65
   1   7   3   49.16    7.71
  -1   7  -3   42.09    7.19
   1   7   3   48.68    7.57
   1   7   3   40.51    4.50
  -1  -7   3   47.66    6.66
   2  -7   3  620.92   28.28
   2   7  -3  677.36   26.40
   2   7  -3  703.01   25.26
  -2   7   3  659.77   29.15
   2   7  -3  699.86   25.47
   2  -7  -3  629.87   28.43
   2  -7  -3  671.65   26.39
   2   7   3  681.78   27.35
   2   7   3  692.99   28.25
   2   7   3  688.51   22.84
  -2   7  -3  693.46   27.99
   2   7   3  633.71   22.48
  -2  -7   3  694.08   26.87
  -3  -7  -3  138.72    7.97
   3   7  -3  120.83    8.27
  -3  -7  -3  121.93   10.56
   3   7  -3  116.51    9.79
  -3   7   3  123.41   10.70
   3   7  -3  113.90    8.09
   3  -7   3  111.38   11.66
  -3  -7   3  144.93   10.93
   3  -7  -3  118.48   11.19
  -3   7  -3  114.68   10.71
   3   7   3  141.71   13.26
   3   7   3  120.73    7.50
   4  -7   3  120.73   12.04
   4   7  -3   99.60    7.08
  -4  -7  -3  104.37    9.62
  -4   7   3   81.87   11.49
  -4  -7  -3  100.09    7.53
   4   7  -3   99.18    7.11
   4   7   3  112.71   11.03
  -4  -7   3  100.62    9.89
   4   7   3   97.37    7.48
   4  -7  -3   98.12   13.03
  -4   7  -3  112.79   11.60
   5  -7   3    5.53    5.19
  -5   7   3    5.70    5.35
   5   7  -3    0.02    2.04
  -5  -7  -3    5.22    3.57
  -5   7  -3   -6.34    3.87
   5  -7  -3    6.17    5.39
  -5  -7   3    1.39    4.26
   5   7   3   -2.81    3.98
  -6  -7  -3    2.80    4.36
  -6   7   3    0.25    5.39
   6  -7   3   10.91    7.30
   6   7   3   12.62    5.90
  -6   7  -3   12.17    6.72
   6  -7  -3   12.97    6.53
  -6  -7   3   11.21    5.56
   0   8   3   -5.33    2.08
   0   8  -3   -2.26    2.45
   0   8   3    1.22    2.43
   0   8   3    0.22    3.33
   0   8  -3   -0.65    2.34
   0   8  -3   -3.97    2.64
   0  -8   3   -0.43    3.26
   1  -8   3    6.21    3.88
   1   8  -3   -1.28    3.45
  -1   8   3    3.57    3.11
   1   8  -3    3.99    3.58
  -1   8   3   -3.27    3.68
   1   8  -3    1.43    2.95
   1   8   3    4.52    3.84
  -1  -8   3    4.53    4.20
  -1  -8   3    4.56    3.59
   1   8   3    2.11    2.98
   1   8   3    0.86    2.47
  -1   8  -3   -0.94    3.71
   1  -8  -3    8.22    3.75
   2   8  -3  247.94   14.12
   2   8  -3  244.59   13.67
   2  -8   3  243.16   16.49
   2   8  -3  235.11   15.77
  -2   8   3  273.77   15.24
   2   8   3  262.18   15.92
  -2   8  -3  228.24   15.24
   2   8   3  243.49   11.62
  -2  -8   3  259.24   15.14
   2   8   3  248.78   11.81
   2  -8  -3  246.40   16.68
  -3   8   3   23.08    6.14
   3   8  -3   25.93    5.29
  -3  -8  -3   18.82    4.21
   3   8  -3   24.51    5.01
   3  -8   3   32.60    8.26
  -3   8  -3   28.54    6.86
  -3  -8   3   23.79    6.23
   3  -8  -3   21.54    6.98
   3   8   3   28.73    6.72
   3   8   3   27.24    4.43
  -4   8   3  244.01   17.29
  -4  -8  -3  247.74   12.73
   4   8  -3  245.63   12.82
   4  -8   3  258.78   19.15
   4   8  -3  236.18   12.29
  -4   8  -3  277.32   18.49
   4   8   3  232.82   12.06
   4  -8  -3  262.78   18.62
   4   8   3  220.54   15.54
  -4  -8   3  289.73   16.78
   5   8  -3    3.48    2.78
   5  -8   3   -1.46    5.36
   5   8  -3   -0.88    2.41
  -5   8   3    0.76    4.07
  -5  -8  -3    8.50    4.12
   5   8   3   -5.90    4.19
   5   8   3    8.04    4.13
  -5  -8   3    1.13    4.25
  -6   8   3   60.33   11.74
   6  -8   3   81.95   13.60
  -6  -8  -3   85.49    8.78
  -6   8  -3   80.11   13.49
   6   8   3   54.02    9.74
  -6  -8   3   75.11   11.14
   6  -8  -3   71.04   12.42
   0   9   3  183.70   11.38
   0   9  -3  184.13   12.81
   0   9   3  191.61   11.63
   0   9   3  199.92   15.01
   0  -9   3  169.23   13.34
   1   9  -3   11.32    4.29
  -1   9   3   13.40    4.55
   1   9  -3    2.18    4.24
  -1   9   3   22.38    5.17
   1  -9   3   10.10    5.04
  -1   9   3    8.21    5.45
   1   9  -3   12.07    5.30
  -1   9  -3    8.26    4.83
   1   9   3    2.73    4.42
   1   9   3    4.03    3.47
   1   9   3    7.75    3.64
   2  -9   3  576.72   28.26
  -2   9   3  561.76   28.75
   2   9  -3  611.59   25.82
  -2   9   3  590.06   25.85
   2   9  -3  579.54   24.82
  -2  -9   3  566.51   25.68
   2   9   3  566.80   21.84
   2   9   3  587.62   27.24
  -2   9  -3  565.91   26.71
   2   9   3  582.88   21.84
   2  -9  -3  499.70   26.72
  -3   9   3    7.19    4.62
   3   9  -3   -4.53    3.28
   3  -9   3    3.57    4.51
  -3  -9   3    5.52    4.01
  -3   9  -3    1.10    4.05
   3   9   3    1.60    2.64
   3   9   3   -0.67    4.09
   3  -9  -3    2.38    4.83
   3   9   3    5.19    2.54
   4   9  -3   33.43    5.98
  -4   9   3   35.54    8.88
   4   9  -3   36.82    5.61
   4  -9   3   25.94    9.94
  -4  -9  -3   33.75    5.63
  -4  -9   3   34.26    7.39
  -4   9  -3   28.82    9.33
   4   9   3   24.36    4.85
   4   9   3   31.18    7.53
   4  -9  -3   32.93    9.51
  -5  -9  -3    2.86    3.53
  -5   9   3   -6.06    3.69
   5   9  -3    0.20    3.37
   5  -9   3    2.42    5.96
   5   9  -3    6.92    3.34
   5  -9  -3   -3.68    5.23
  -5  -9   3   -5.38    2.95
   5   9   3    8.45    5.86
   5   9   3   -3.47    3.21
  -5   9  -3   -5.33    4.18
   0  10   3   -5.98    3.75
   0  10   3   -3.57    2.66
   0  10  -3   -6.16    3.01
   0  10   3    1.62    3.44
   0 -10   3    3.13    4.58
   1 -10   3   15.13    6.28
   1  10  -3   11.78    5.31
  -1  10   3   14.61    5.61
  -1  10   3   16.90    5.12
   1  10  -3   11.37    4.95
   1  10   3   14.46    4.48
   1  10   3   13.53    4.64
  -1  10  -3   15.49    5.80
   1  10   3   21.35    6.89
  -2  10   3   69.38    9.83
   2 -10   3   66.33   11.29
  -2  10   3   52.21   10.99
   2  10  -3   74.99   10.23
   2  10   3   68.12    6.89
   2  10   3   56.13    7.59
   2 -10  -3   59.88   10.98
  -2  10  -3   71.22   10.85
  -2 -10   3   65.99    9.88
   2  10   3   72.12   10.97
  -3  10   3    0.69    3.68
   3  10  -3    4.98    4.61
   3  10  -3   -1.77    3.69
   3  10   3    0.86    2.64
  -3 -10   3    8.29    4.76
   3  10   3    4.14    3.45
  -3  10  -3   -1.04    4.25
   3  10   3    7.48    5.33
   4  10  -3   86.86    8.92
   4 -10   3   76.71   13.17
  -4  10   3   93.44   13.18
   4  10  -3   94.40    8.82
   4  10   3  107.12   12.28
   4  10   3   94.79    7.95
  -4 -10   3   81.27   11.43
  -4  10  -3  123.81   13.29
   4 -10  -3   83.87   13.62
   5  10  -3   -1.49    3.99
  -5  10   3   11.85    7.20
   5 -10   3    6.75    6.15
   5  10   3    0.56    5.38
  -5 -10   3    8.97    5.96
  -5  10  -3   13.73    7.34
   5 -10  -3   -2.73    4.63
   0  11   3  261.41   19.46
   0  11   3  284.31   16.12
   0 -11   3  265.96   18.17
  -1  11   3   -5.89    4.74
   1  11  -3   -4.13    3.44
   1 -11   3    0.26    4.56
   1  11  -3   -4.61    2.92
  -1  11   3   -5.84    2.73
  -1  11  -3   -0.12    4.27
   1  11   3   -5.10    3.15
   1  11   3    0.12    4.50
   2  11  -3   69.97    9.95
  -2  11   3   87.73   10.00
  -2  11   3   62.81   11.94
   2  11  -3   76.27   11.21
   2  11   3   74.74   11.85
   2  11   3   84.62    8.40
  -2  11  -3   79.51   11.56
  -3  11   3    1.23    5.92
   3 -11   3   -0.18    4.78
   3  11  -3    6.53    4.77
   3  11   3   -3.76    2.52
   3  11   3    2.71    4.10
   3 -11  -3    1.62    5.09
  -3  11  -3    3.13    4.38
  -3 -11   3   15.09    6.03
   3  11   3   -5.50    3.57
   4  11  -3   11.53    5.24
  -4  11   3   14.38    6.76
   4 -11   3   16.18    8.46
  -4  11  -3   18.27    6.79
  -4 -11   3   13.77    6.59
   4 -11  -3    8.08    6.31
   4  11   3    7.76    6.32
   0  12  -3   -7.17    3.89
   0  12  -3    2.82    4.40
   0  12   3   -2.07    4.85
   0 -12   3    0.68    4.21
   0  12   3   -4.09    3.91
   1  12  -3   -1.06    3.92
  -1  12   3   12.22    4.47
  -1  12   3   -0.75    5.96
   1  12  -3   -1.34    4.15
   1 -12   3    8.20    5.35
   1  12   3    1.93    4.16
   2  12  -3    1.06    5.28
   2  12  -3    2.56    4.35
   2 -12   3   17.39    6.61
  -2  12   3   -6.33    3.30
  -2  12   3    9.33    7.03
  -2  12  -3    5.56    5.50
   2  12   3    9.77    4.76
   3  12  -3   -1.45    4.32
   3  12  -3  -10.33    4.00
   3 -12   3   -4.56    3.59
  -3  12   3    1.42    5.00
  -3  12   3    1.75    6.12
  -3  12  -3    4.81    5.43
   3  12   3   -4.30    3.31
   0  13   3   31.75    6.99
   0  13  -3   33.81    8.26
   0  13   3   20.20    8.92
   0  13  -3   21.09    7.97
   1  13  -3  -10.48    4.73
   1  13  -3    9.09    4.55
  -1  13   3   -2.63    5.44
  -1  13   3   -1.91    4.63
   1 -13   3    5.42    5.96
   1  13   3   -8.02    3.21
  -1  13  -3   -7.18    5.23
   1  13   3    7.99    6.42
   0   0   4 7461.35  244.01
   0   0  -4 7798.09  245.80
  -1   0   4 9777.50  311.59
  -1   0  -4 9999.00  316.22
   1   0   4 9878.71  314.94
  -2   0   4  483.00   15.05
  -2   0   4  466.60   17.95
   2   0   4  487.05   18.87
  -2   0  -4  487.40   18.79
  -2   0   4  448.09   14.96
   2   0  -4  491.28   18.20
  -2   0  -4  481.17   16.28
  -3   0   4  423.68   14.61
  -3   0   4  398.67   17.82
   3   0  -4  419.92   17.94
  -3   0  -4  407.25   16.20
   3   0   4  415.79   18.53
   3   0  -4  423.72   14.50
  -3   0  -4  433.32   18.65
   3   0   4  424.69   16.16
   4   0  -4   86.79    5.85
  -4   0  -4   84.82    7.42
   4   0   4   82.12    6.85
   4   0   4   82.37    8.43
   4   0  -4   88.56    8.37
  -4   0   4   80.90    8.24
  -4   0   4   75.29    5.87
  -5   0  -4   -2.74    2.72
   5   0   4    1.73    3.98
  -5   0   4   -1.22    2.61
   5   0  -4   -2.05    1.88
   5   0   4   -6.58    2.48
  -5   0   4   -2.82    3.08
   6   0   4    4.88    4.89
  -6   0   4    3.46    4.21
   6   0  -4    8.36    3.71
  -6   0  -4    8.09    4.52
  -6   0   4    4.55    4.78
   7   0  -4    0.83    3.21
  -7   0  -4    4.91    5.72
  -7   0   4    1.58    5.33
  -7   0   4  -10.98    4.83
   7   0   4    6.75    5.27
   0   1   4    1.42    1.08
   0   1  -4    1.11    1.72
   0  -1  -4    1.89    1.09
   0  -1   4   -1.41    1.41
   0  -1   4   -0.47    1.82
   0   1   4    3.73    2.02
   0   1  -4   -0.01    1.47
   0  -1  -4    1.25    1.72
  -1  -1  -4 1574.47   47.36
   1   1  -4 1587.91   43.85
  -1  -1  -4 1573.41   43.47
  -1  -1  -4 1617.90   43.58
   1  -1   4 1454.01   47.19
  -1   1   4 1628.11   46.27
  -1   1   4 1608.63   45.88
   1   1  -4 1646.00   46.72
  -1   1  -4 1664.29   46.10
  -1   1  -4 1600.95   45.75
  -1  -1   4 1592.28   46.71
   1   1   4 1633.71   47.60
   1  -1  -4 1607.01   45.89
   1  -1  -4 1543.01   47.52
  -1  -1   4 1637.31   43.97
  -1   1  -4 1679.92   47.71
   2   1  -4  443.22   17.09
  -2  -1  -4  442.61   17.64
  -2   1   4  430.91   15.43
  -2   1   4  443.59   17.16
   2  -1   4  451.86   18.11
  -2  -1  -4  451.37   14.51
   2  -1   4  444.94   15.92
  -2  -1   4  433.18   17.00
  -2   1  -4  424.40   17.73
   2  -1  -4  447.05   15.41
  -2   1  -4  446.75   16.06
   2   1   4  443.56   14.35
   2   1   4  420.44   17.61
   2  -1  -4  420.14   16.79
  -3   1   4  611.96   23.34
   3   1  -4  591.07   17.52
  -3  -1  -4  619.27   20.49
   3  -1   4  599.26   21.51
  -3  -1  -4  566.01   22.86
   3  -1   4  605.18   23.97
   3   1  -4  589.60   22.82
  -3   1   4  585.39   20.47
  -3   1  -4  615.05   21.95
  -3   1  -4  577.12   23.57
  -3  -1   4  558.36   22.55
  -3  -1   4  575.46   17.60
   3   1   4  596.92   23.31
   3  -1  -4  587.00   20.42
   3  -1  -4  593.78   23.13
   3   1   4  572.80   20.01
   4   1  -4  343.72   12.32
  -4   1   4  336.62   17.39
   4  -1   4  323.34   17.44
  -4  -1  -4  345.01   15.22
   4   1  -4  325.68   16.79
  -4   1   4  377.45   15.26
   4  -1   4  332.10   15.97
  -4  -1  -4  353.71   17.53
   4  -1  -4  319.92   16.92
  -4  -1   4  340.67   12.43
  -4   1  -4  347.14   18.07
   4   1   4  317.22   14.53
  -4  -1   4  326.61   16.95
  -4   1  -4  356.96   16.53
   4  -1  -4  356.01   14.78
   4   1   4  324.95   17.06
   5   1  -4  387.25   14.57
  -5   1   4  385.20   17.29
  -5   1   4  382.72   20.36
  -5  -1  -4  375.91   17.90
   5  -1   4  360.34   19.96
  -5  -1  -4  356.36   19.45
   5  -1  -4  394.47   17.12
  -5  -1   4  373.08   14.70
  -5  -1   4  368.74   19.80
  -5   1  -4  386.84   19.16
   5   1   4  389.76   17.77
   5   1   4  400.93   20.20
   6  -1   4   61.08   10.19
  -6  -1  -4   44.93    7.84
  -6   1   4   59.86   10.04
  -6   1   4   47.15    7.60
   6   1  -4   60.21    5.73
  -6  -1   4   45.49    8.73
   6  -1  -4   39.15    6.45
   6   1   4   46.49    9.10
  -6  -1   4   49.04    5.91
  -6   1  -4   61.56    9.67
  -7   1   4   92.16   11.72
   7   1  -4  115.93    8.17
  -7   1   4  133.24   14.03
   7  -1   4  136.95   13.55
  -7   1  -4  147.02   13.69
  -7  -1   4  132.47   13.59
  -7  -1   4  120.29    9.44
   7   1   4  132.75   13.14
   7  -1  -4  128.23   10.46
   0  -2  -4   79.91    5.67
   0   2   4   77.48    3.78
   0   2  -4   65.44    4.90
   0  -2  -4   77.49    3.77
   0  -2   4   68.08    4.80
   0   2  -4   72.64    5.13
   0   2   4   76.43    5.59
   0  -2   4   70.64    5.22
  -1   2   4 2748.43   75.83
   1   2  -4 2710.14   72.60
   1  -2   4 2567.55   76.48
   1   2  -4 2766.97   75.94
  -1  -2  -4 2514.92   76.17
  -1   2   4 2558.60   74.73
  -1   2   4 2719.60   75.75
  -1  -2   4 2618.06   72.61
   1   2   4 2789.43   76.85
  -1   2  -4 2713.89   76.63
  -1   2  -4 2692.73   75.35
   1  -2  -4 2677.26   74.86
  -1   2  -4 2788.05   75.78
  -1  -2   4 2717.28   75.84
  -2  -2  -4 1729.87   52.68
  -2  -2  -4 1654.17   47.76
   2   2  -4 1799.15   52.43
   2  -2   4 1681.11   51.16
   2  -2   4 1935.28   54.25
  -2   2   4 1704.42   52.01
  -2   2   4 1727.05   51.33
   2   2   4 1732.37   52.82
   2   2   4 1753.73   47.79
   2  -2  -4 1687.31   51.03
  -2   2  -4 1698.01   51.44
   2  -2  -4 1769.59   52.11
  -2   2  -4 1696.91   53.28
  -2  -2   4 1732.39   52.18
   3  -2   4 1986.10   61.41
  -3   2   4 1899.13   58.08
  -3   2   4 2074.22   60.98
  -3  -2  -4 1920.58   59.84
  -3  -2  -4 1988.30   55.99
   3  -2   4 1953.44   58.77
   3   2  -4 1929.51   59.70
   3   2   4 1964.77   55.81
  -3   2  -4 1889.98   60.83
   3   2   4 2054.71   60.69
  -3   2  -4 1952.62   59.15
  -3  -2   4 1962.70   59.67
   3  -2  -4 1917.41   59.79
   3  -2  -4 1867.89   57.86
   4  -2   4  161.74   13.84
   4   2  -4  133.84   10.24
   4   2  -4  133.41    5.37
  -4   2   4  155.12    9.84
   4  -2   4  137.88    9.90
  -4  -2  -4  149.39    8.82
  -4   2   4  131.34   10.70
  -4  -2  -4  144.69   10.62
   4   2   4  124.32    8.11
  -4  -2   4  132.11    5.40
  -4   2  -4  158.88   11.74
   4   2   4  139.67   10.61
  -4   2  -4  156.01   10.58
   4  -2  -4  146.34    9.57
  -4  -2   4  134.27   10.31
   5  -2   4   42.25    8.37
  -5   2   4   40.94    8.41
   5   2  -4   41.45    4.70
  -5  -2  -4   32.66    6.80
  -5  -2  -4   34.66    6.11
  -5   2   4   32.24    6.01
   5   2   4   35.66    5.94
  -5  -2   4   37.11    3.53
  -5  -2   4   36.97    7.33
   5   2   4   31.75    6.70
   5  -2  -4   40.23    6.51
  -5   2  -4   37.19    7.34
   6   2  -4   29.95    3.62
   6  -2   4   27.91    7.48
  -6  -2  -4   31.63    6.76
  -6   2   4   29.72    7.81
  -6   2   4   25.56    6.24
   6   2   4   28.83    7.16
   6  -2  -4   29.26    7.26
  -6  -2   4   30.05    7.33
  -6   2  -4   37.04    8.11
  -7  -2  -4   11.17    5.53
   7  -2   4   14.33    6.05
  -7   2   4   17.05    7.19
   7   2  -4   17.02    3.26
   7   2   4   16.43    5.73
   7  -2  -4   18.02    5.83
  -7   2  -4   28.11    9.35
  -7  -2   4   14.06    4.09
  -7  -2   4   18.83    6.96
   0  -3   4   -0.91    1.97
   0  -3   4   -0.43    1.64
   0   3   4    0.56    1.08
   0  -3  -4   -1.52    1.57
   0  -3  -4   -1.32    0.95
   0   3  -4   -1.03    1.47
   0   3  -4   -1.57    1.69
   0   3   4   -0.33    2.16
   1   3  -4   25.66    2.65
  -1   3   4   19.75    3.81
  -1   3   4   27.28    4.43
   1   3  -4   29.13    4.43
   1  -3   4   26.11    4.90
  -1   3   4   20.02    3.38
  -1  -3  -4   18.99    3.96
  -1   3  -4   25.97    4.38
  -1   3  -4   26.80    4.22
  -1  -3   4   18.72    3.94
   1   3   4   22.84    4.32
   1  -3  -4   22.42    3.43
  -1   3  -4   28.27    4.43
  -2  -3  -4  753.60   22.39
   2   3  -4  800.67   21.72
   2   3  -4  763.60   21.64
  -2   3   4  813.37   27.67
  -2  -3  -4  774.03   27.64
  -2   3   4  783.06   27.13
   2  -3   4  787.88   27.10
   2  -3   4  782.78   28.73
   2   3  -4  781.29   27.19
  -2  -3   4  771.09   27.24
  -2   3  -4  787.12   27.29
  -2   3  -4  801.94   28.78
   2   3   4  784.20   22.41
   2   3   4  803.70   28.11
   2  -3  -4  770.81   26.92
   2  -3  -4  831.38   27.57
  -3  -3  -4 1195.63   35.55
  -3   3   4 1205.98   40.51
  -3  -3  -4 1199.59   40.00
   3   3  -4 1191.31   39.87
   3  -3   4 1211.53   41.95
   3  -3   4 1182.95   39.53
  -3   3   4 1139.43   39.30
  -3   3  -4 1194.85   39.94
  -3  -3   4 1195.50   39.97
   3   3   4 1221.09   36.93
   3  -3  -4 1269.80   39.89
   3  -3  -4 1214.89   43.51
   3   3   4 1207.07   40.45
  -4   3   4  193.42   11.82
  -4   3   4  196.12   13.20
  -4  -3  -4  184.64    9.67
   4  -3   4  174.57   13.39
   4   3  -4  185.25   12.14
   4  -3   4  186.81   11.86
   4  -3  -4  191.68   11.80
   4   3   4  187.82    9.81
  -4  -3   4  177.22   12.05
   4   3   4  200.94   12.79
  -4   3  -4  172.43   14.56
  -4   3  -4  185.78   12.34
  -5  -3  -4  302.64   17.27
  -5  -3  -4  308.90   14.94
   5   3  -4  303.62    9.04
   5  -3   4  296.37   18.69
  -5   3   4  279.77   17.98
  -5   3   4  314.21   16.65
  -5  -3   4  289.61    9.41
  -5  -3   4  310.97   17.89
   5   3   4  307.13   17.41
  -5   3  -4  330.46   18.28
   5   3   4  310.17   14.94
   5  -3  -4  298.46   18.54
  -6   3   4  100.70   13.45
  -6  -3  -4   88.71    8.97
   6  -3   4   95.01   11.27
   6   3  -4   84.85    3.70
  -6  -3   4   76.96   10.87
   6  -3  -4   86.97    9.58
  -6   3  -4   96.20   10.64
   6   3   4   90.18    9.91
  -6  -3   4   90.21    4.24
  -7  -3  -4   84.93   11.04
  -7   3   4   90.63   13.52
   7  -3   4   85.37   14.92
  -7   3  -4   79.82   12.33
   7  -3  -4   87.93   10.40
   7   3   4  100.56   11.44
  -7  -3   4   93.04   12.77
   0   4  -4  201.37   10.96
   0   4  -4  239.83   11.66
   0  -4   4  268.34   12.46
   0   4   4  225.10   12.04
   0   4   4  262.89    9.63
   0  -4   4  231.77   11.41
   0  -4  -4  268.74   12.64
   0  -4  -4  249.49    9.47
   0   4   4  257.06   12.55
  -1  -4  -4 2812.71   82.44
  -1   4   4 2824.66   82.60
   1   4  -4 2890.98   81.61
  -1   4   4 2732.68   79.95
  -1   4   4 2537.97   82.02
   1   4  -4 2921.80   80.96
   1  -4   4 2790.14   82.65
  -1   4  -4 2914.12   81.85
  -1  -4   4 2845.45   79.10
  -1   4  -4 3025.04   83.04
  -1   4  -4 2744.82   81.81
   1   4   4 2952.94   82.99
   1   4   4 2841.19   76.34
   1  -4  -4 2870.39   80.02
  -1  -4   4 2887.04   81.74
   1   4   4 2823.26   76.32
   2   4  -4  545.50   21.38
   2  -4   4  557.90   21.84
   2   4  -4  562.56   17.65
  -2  -4  -4  588.70   22.48
  -2   4   4  599.02   22.96
   2  -4   4  581.87   23.48
   2   4  -4  532.38   17.46
  -2   4   4  546.29   21.45
  -2  -4  -4  563.51   16.73
  -2  -4   4  566.73   21.74
   2   4   4  544.92   16.62
  -2   4  -4  563.25   23.32
   2   4   4  550.95   22.32
   2  -4  -4  583.26   21.52
  -2   4  -4  554.71   21.93
   2  -4  -4  553.88   22.20
  -3   4   4  429.96   19.61
   3   4  -4  443.88   21.63
   3  -4   4  442.89   19.26
   3   4  -4  428.31   12.50
   3  -4   4  431.12   23.54
  -3  -4  -4  428.12   19.08
  -3   4   4  460.33   19.92
  -3  -4  -4  444.61   15.05
   3   4  -4  416.29   12.49
  -3   4  -4  438.16   20.75
   3   4   4  415.24   19.23
  -3   4  -4  439.58   19.50
   3  -4  -4  437.25   19.42
  -3  -4   4  411.69   18.84
   3  -4  -4  443.04   19.61
   4  -4   4   21.05    6.06
  -4  -4  -4   24.89    4.03
  -4  -4  -4   26.30    5.75
  -4   4   4   23.45    5.98
  -4   4   4   32.40    6.32
   4   4   4   30.53    4.50
   4  -4  -4   23.87    5.84
   4   4   4   34.93    6.81
  -4   4  -4   34.04    6.68
  -4  -4   4   24.93    5.69
   5  -4   4   93.05   12.73
  -5  -4  -4   82.47   11.60
  -5   4   4   70.85   10.57
  -5  -4  -4   81.23    7.44
   5   4   4   96.51   10.27
   5   4   4   75.38    6.92
  -5  -4   4   86.04   10.97
  -5   4  -4   86.31    9.90
   5  -4  -4  101.42   10.25
  -6  -4  -4   60.59    8.20
   6  -4   4   58.01   10.66
  -6   4  -4   56.63    9.94
   6   4   4   57.55    9.27
   6  -4  -4   59.07    9.18
  -6  -4   4   61.44   10.03
   7  -4   4   43.08   10.33
  -7   4   4   49.34   10.90
  -7  -4  -4   69.63    9.67
   7   4   4   61.49    9.68
  -7   4  -4   55.03   11.09
   7  -4  -4   91.86   10.80
  -7  -4   4   59.84   10.88
   0   5  -4    0.15    2.19
   0   5   4   -1.01    1.48
   0  -5   4    1.09    2.16
   0   5  -4   -1.71    1.82
   0  -5  -4    1.50    1.71
   0   5   4    2.56    2.62
   0   5   4    1.27    2.32
   0  -5   4    0.42    2.41
  -1   5   4   17.16    4.67
  -1   5   4   33.87    4.76
  -1  -5  -4   29.36    5.35
   1   5  -4   29.20    4.96
   1   5  -4   26.79    4.26
   1  -5   4   26.15    5.04
  -1   5   4   28.53    5.61
   1   5   4   35.67    5.98
   1  -5  -4   31.24    4.80
   1   5   4   24.02    3.16
  -1  -5   4   25.86    4.13
   1   5   4   23.59    2.63
  -1   5  -4   22.49    5.00
  -1   5  -4   26.95    5.07
  -1  -5   4   27.46    5.17
  -1   5  -4   22.31    4.88
  -2  -5  -4  342.25   16.58
   2   5  -4  367.47   16.33
  -2   5   4  375.96   18.05
   2   5  -4  350.66   13.30
  -2   5   4  339.18   15.89
   2  -5   4  362.52   18.14
   2  -5   4  347.64   16.61
  -2  -5   4  359.35   16.41
   2  -5  -4  350.76   17.17
  -2   5  -4  340.21   16.85
   2   5   4  358.14   11.70
  -2   5  -4  280.37   16.40
   2  -5  -4  354.42   15.81
  -2   5  -4  349.41   16.83
   2   5   4  349.03   17.07
   3  -5   4  274.17   17.36
  -3  -5  -4  335.12   18.67
  -3  -5  -4  344.04   12.32
   3   5  -4  304.34   15.92
  -3   5   4  350.86   17.99
   3  -5   4  333.85   18.74
   3   5  -4  343.22   11.67
  -3   5   4  328.14   17.06
  -3  -5   4  326.17   16.37
   3   5   4  363.13   17.50
   3  -5  -4  305.87   18.81
   3  -5  -4  329.32   16.56
  -3   5  -4  332.52   17.22
   4   5  -4   93.24    3.55
  -4  -5  -4   92.75    6.39
   4   5  -4   82.83    3.36
   4  -5   4   81.69    9.61
  -4  -5  -4  106.66    9.38
  -4   5   4   88.32    9.10
  -4  -5   4   89.70    8.93
  -4   5  -4   92.39    9.77
   4   5   4   86.15    6.41
   4  -5  -4   92.78    9.51
  -5  -5  -4  438.03   18.32
   5  -5   4  460.28   24.92
  -5   5   4  423.52   23.38
   5   5   4  424.08   17.89
  -5   5  -4  439.96   23.26
   5  -5  -4  380.91   21.64
   5   5   4  437.35   21.91
  -5  -5   4  471.48   22.90
  -6  -5  -4  211.37   13.00
  -6   5   4  186.82   16.21
   6  -5   4  219.33   17.73
  -6   5  -4  182.19   19.07
   6  -5  -4  230.96   16.32
   6   5   4  212.10   15.53
  -6  -5   4  184.01   14.92
   6   5   4  189.60   12.34
  -7  -5  -4   38.29    7.59
  -7   5   4   40.82   10.52
   7  -5   4   28.42    9.01
   7  -5  -4   46.24    9.03
   7   5   4   28.56    7.08
  -7  -5   4   31.59    7.98
  -7   5  -4   28.60    8.52
   0  -6  -4   67.02    5.22
   0   6   4   64.52    5.45
   0   6   4   71.20    5.46
   0   6  -4   55.27    7.23
   0   6  -4   68.58    6.70
   0   6   4   73.12    7.36
   0   6  -4   59.57    6.35
   0  -6   4   73.90    7.33
   0  -6   4   78.81    7.10
   1  -6   4 1637.94   53.25
  -1   6   4 1648.60   53.60
  -1   6   4 1532.84   53.16
   1   6  -4 1662.08   50.37
  -1   6   4 1637.25   50.02
   1   6  -4 1669.08   51.69
  -1   6  -4 1645.28   52.80
   1  -6  -4 1646.35   49.87
  -1  -6   4 1497.45   51.46
   1   6   4 1738.72   48.39
   1   6   4 1641.80   53.34
  -1   6  -4 1607.51   55.51
  -1  -6   4 1568.24   49.76
   1   6   4 1706.50   47.08
  -1   6  -4 1608.97   51.95
   2   6  -4  253.42   13.59
   2  -6   4  253.69   15.36
  -2   6   4  210.00   14.08
   2   6  -4  239.22   11.26
  -2  -6  -4  265.78   14.54
  -2   6   4  234.98   13.04
   2   6  -4  216.70   10.83
   2  -6  -4  229.67   14.53
   2   6   4  237.66    9.25
  -2   6  -4  227.31   14.46
  -2   6  -4  225.53   13.73
   2   6   4  232.08    9.17
  -2  -6   4  232.44   13.27
  -2   6  -4  246.54   14.11
   2  -6  -4  199.48   13.47
   2   6   4  249.29   14.36
  -3   6   4   81.90    8.64
   3   6  -4   85.78    6.16
  -3  -6  -4   77.61    5.14
  -3  -6  -4   80.96    8.18
   3   6  -4   75.94    5.47
   3  -6   4   66.10   10.30
   3   6  -4   93.11    8.16
   3   6   4   72.21    8.29
   3  -6  -4   63.12    9.19
   3   6   4   73.09    4.95
  -3   6  -4   70.79    9.48
  -3  -6   4   87.23    8.39
   4  -6   4   15.69    5.64
  -4   6   4   12.48    5.66
  -4  -6  -4   14.49    3.28
  -4  -6  -4    4.94    4.05
   4   6  -4   17.61    2.52
  -4   6  -4   14.65    5.51
   4  -6  -4   13.92    5.70
   4   6   4   23.72    6.50
  -4  -6   4   12.42    4.93
   4   6   4   12.70    3.25
   5  -6   4   25.07    7.88
  -5  -6  -4   30.70    5.17
  -5   6   4   23.94    7.08
  -5  -6   4   23.95    6.55
  -5   6  -4   25.64    7.23
   5   6   4   33.96    5.07
   5  -6  -4   30.69    7.37
   5   6   4   25.30    7.01
  -6   6   4    1.24    5.51
   6  -6   4   11.75    6.64
  -6  -6  -4   11.99    4.30
   6   6   4    5.53    5.49
  -6  -6   4   11.02    5.95
  -6   6  -4   11.13    6.60
   6  -6  -4   14.26    6.48
   0  -7   4   -3.03    2.84
   0   7   4    1.05    3.31
   0   7  -4    0.57    3.08
   0   7   4   -0.58    2.74
   0   7   4    1.42    2.30
   0   7  -4    3.30    3.18
   0   7   4    1.13    2.37
  -1   7   4   95.90   10.33
   1  -7   4   91.53   10.70
  -1   7   4   82.44    9.22
   1   7  -4   94.05    8.16
  -1   7   4   98.72    7.83
   1   7  -4  100.92    8.29
   1   7   4   82.09    5.95
   1   7   4   86.70    5.99
   1   7   4   88.40    9.18
  -1   7  -4   79.39    8.36
  -1   7  -4   83.69    8.56
  -1   7  -4   84.77    8.45
   1  -7  -4   90.26    7.24
  -1  -7   4   91.35    7.90
   1   7   4   82.49    8.22
  -2  -7  -4  243.52   14.82
   2   7  -4  250.42   14.25
  -2   7   4  271.36   16.71
   2   7  -4  236.21   12.52
   2   7  -4  237.16   12.41
  -2   7   4  257.03   16.42
   2  -7   4  276.01   16.88
   2   7   4  250.31   10.41
   2   7   4  268.29   15.18
   2  -7  -4  246.77   15.55
  -2  -7   4  281.50   15.22
   2   7   4  257.83   15.55
   2   7   4  252.37   10.46
   2  -7  -4  236.29   13.63
  -2   7  -4  229.30   14.71
   3  -7   4  440.92   24.64
  -3  -7  -4  466.32   24.95
  -3   7   4  510.91   23.51
  -3  -7  -4  525.00   17.82
   3   7  -4  498.23   18.90
   3   7  -4  483.57   18.70
   3  -7  -4  538.01   25.33
  -3   7  -4  517.52   24.14
  -3  -7   4  505.91   22.79
   3   7   4  486.55   23.38
   3   7   4  477.67   17.31
  -4   7   4  119.66   11.85
  -4  -7  -4  117.84    7.60
   4   7  -4  121.85    9.48
   4  -7   4  122.53   13.03
   4   7  -4  115.42    6.94
   4  -7  -4  112.93   11.88
  -4  -7   4  129.00   11.21
  -4   7  -4  145.14   12.81
   4   7   4  105.06    7.17
   4   7   4  131.32   11.73
  -5  -7  -4   58.57    6.40
   5  -7   4   64.04   11.75
   5   7   4   64.59    6.23
  -5  -7   4   55.27    9.20
   5  -7  -4   72.14   11.46
   5   7   4   53.79    9.29
   6  -7   4   46.66   11.17
  -6   7   4   16.37    7.30
  -6   7  -4   30.56    9.30
   6   7   4   30.16    7.42
   6  -7  -4   29.09    8.31
   6   7   4   39.34    6.10
  -6  -7   4   26.33    6.80
   0   8  -4  120.37   10.22
   0   8   4  115.54    8.28
   0   8   4  109.38   10.71
   0  -8   4  119.43   10.39
   0   8  -4  111.51    9.95
   0   8   4  112.51    8.15
  -1   8   4  611.87   28.20
  -1   8   4  595.74   24.21
   1  -8   4  619.64   27.43
   1   8   4  604.24   21.88
  -1  -8   4  619.75   25.15
  -1   8  -4  625.82   26.64
  -1  -8   4  578.19   25.82
   1  -8  -4  596.12   23.92
   1   8   4  624.67   27.74
   1   8   4  635.27   22.05
   2   8  -4   17.44    4.47
   2  -8   4   18.43    6.13
  -2   8   4   18.73    5.11
   2   8  -4   19.52    5.39
  -2   8   4   23.04    6.98
  -2  -8   4   25.77    6.47
   2  -8  -4   29.76    7.20
   2   8   4   23.14    6.56
   2   8   4   25.23    3.95
  -2   8  -4   14.81    5.77
   2   8   4   22.05    3.78
   3  -8   4  115.98   12.63
  -3   8   4  122.27   11.20
   3   8  -4  118.14    8.91
   3   8  -4  121.67    8.72
   3   8   4  108.27   11.53
  -3  -8   4  120.42   10.95
   3   8   4  105.47    6.87
   3  -8  -4  115.61   12.13
  -3   8  -4  112.50   11.14
   3   8   4  121.77    7.17
   4   8  -4    1.41    2.63
   4   8  -4    2.38    2.74
   4  -8   4    2.10    5.41
  -4   8   4    9.61    5.68
  -4  -8  -4    5.36    2.80
   4   8   4   -1.43    4.60
  -4   8  -4    4.27    4.65
   4  -8  -4   -0.84    4.51
  -4  -8   4   10.31    5.15
   4   8   4    8.08    3.13
  -5  -8  -4    1.34    2.97
   5  -8   4   12.45    6.87
  -5   8   4   14.37    6.22
   5   8  -4    8.90    2.82
  -5   8  -4    1.53    5.11
   5   8   4    4.92    3.27
   5   8   4   -0.92    5.00
  -5  -8   4    8.81    5.23
   6  -8   4   33.89   10.54
  -6   8   4   11.30    8.30
  -6   8  -4   38.04   10.03
  -6  -8   4   30.31    7.72
   6   8   4   24.41    7.62
   6  -8  -4   22.75    7.68
   0   9   4    4.60    4.67
   0   9   4   -3.57    2.30
   0   9  -4   -4.49    2.86
   0  -9   4    5.77    4.18
   0   9   4   -0.50    2.68
  -1   9   4  199.66   15.91
  -1   9   4  224.41   13.10
  -1   9   4  168.14   11.71
   1  -9   4  216.19   15.35
   1   9  -4  197.67   13.32
   1   9  -4  203.50   13.80
   1   9   4  213.07   15.52
  -1  -9   4  212.19   14.83
  -1   9  -4  166.63   13.54
   1   9   4  184.36   10.69
  -1  -9   4  194.56   13.20
   1   9   4  188.59   10.93
   2  -9   4   73.81   11.18
   2   9  -4   86.56    8.59
   2   9  -4   77.83    8.51
  -2   9   4   89.89    9.60
  -2   9   4   85.75   12.61
  -2   9  -4   60.09    9.72
   2   9   4   89.96   10.75
   2   9   4   72.08    6.36
  -2  -9   4  105.83   10.20
   2   9   4   77.75    6.75
   3  -9   4   22.91    7.96
  -3   9   4   33.47    7.37
   3   9  -4   31.88    6.32
   3   9  -4   21.62    5.33
  -3  -9   4   36.14    7.55
  -3   9  -4   31.88    7.70
   3   9   4   32.09    8.27
   3   9   4   38.75    5.01
   3   9   4   22.71    4.25
   3  -9  -4   32.42    8.45
  -4   9   4   49.80    9.68
   4  -9   4   49.95   10.46
   4   9  -4   39.26    5.72
   4   9  -4   43.38    6.23
   4  -9  -4   36.93   10.81
   4   9   4   30.01    4.53
  -4   9  -4   31.99    8.44
  -4  -9   4   29.47    7.11
   4   9   4   36.51    8.40
   5   9  -4   71.70    5.66
  -5  -9  -4   61.70    6.98
   5  -9   4   59.51   11.18
  -5   9   4   70.77   12.35
   5   9  -4   86.82    7.95
   5   9   4   69.49    6.91
   5   9   4   67.70   10.79
  -5   9  -4   62.17   11.26
   5  -9  -4   56.92   11.11
  -5  -9   4   71.63   11.11
   0  10   4   48.51    9.81
   0  10   4   41.87    7.80
   0 -10   4   48.92    9.03
   0  10   4   44.07    6.88
   0  10  -4   46.75    8.52
   1  10  -4  147.91   12.19
  -1  10   4  176.68   12.17
   1  10  -4  126.73   11.56
  -1  10   4  159.18   14.83
   1 -10   4  162.92   14.40
  -1  10  -4  146.73   12.67
   1  10   4  135.05   13.36
   1  10   4  136.50    9.77
   1  10   4  134.29   10.84
  -2  10   4    8.10    6.64
   2  10  -4   20.62    5.86
   2 -10   4    9.05    5.44
  -2  10   4   18.26    5.54
   2  10   4   23.90    6.93
  -2 -10   4   14.75    6.43
   2  10   4   16.87    4.39
  -2  10  -4   13.46    6.10
   2  10   4   18.21    4.15
   3  10  -4  164.94   11.76
   3 -10   4  149.82   17.73
  -3  10   4  167.62   14.41
   3  10   4  160.56    9.55
   3  10   4  157.56   14.38
   3  10   4  155.49    9.39
  -3 -10   4  171.97   14.17
   4 -10   4    2.56    4.28
  -4  10   4    9.24    5.76
   4  10  -4    0.95    3.66
   4  10  -4    0.21    3.76
   4  10   4    0.37    2.95
  -4 -10   4    4.55    4.57
   4  10   4   -2.02    4.70
  -4  10  -4    3.00    5.23
   4  10   4    1.29    2.61
   4 -10  -4    3.04    4.60
   0  11  -4    1.66    4.82
   0 -11   4   -0.48    3.83
   0  11   4    0.77    5.41
   1 -11   4    5.11    4.98
  -1  11   4   13.98    5.28
   1  11  -4    2.51    3.49
  -1  11   4   -2.30    5.32
   1  11  -4    9.96    5.15
   1  11   4    3.67    5.33
  -1  11  -4    7.83    5.65
   1  11   4    1.48    4.09
   1  11   4    6.86    4.01
  -2  11   4   13.30    5.35
  -2  11   4    1.79    4.73
   2  11  -4   12.27    5.82
   2  11  -4   10.79    5.12
  -2 -11   4   13.20    5.92
   2  11   4    4.24    5.42
   2  11   4    7.19    3.69
   3  11  -4   50.84    8.89
  -3  11   4   32.89    9.30
   3 -11   4   29.32    9.12
  -3  11  -4   37.96    9.11
   3  11   4   36.95    8.79
  -3 -11   4   47.45    8.79
   3  11   4   39.95    5.77
   3  11   4   43.36    6.04
   4  11  -4   36.28    7.80
  -4  11   4    6.61    8.11
   4 -11   4   30.12    8.91
  -4  11   4   41.65    9.73
   4 -11  -4   30.89    9.47
   4  11   4   25.91    4.62
  -4  11  -4   44.69    9.23
   4  11   4   25.05    8.47
  -4 -11   4   23.87    8.83
   0 -12   4   42.53    8.76
   0  12  -4   35.41    9.26
   0  12   4   37.04    9.85
   0  12   4   35.36    7.16
   0  12  -4   24.57    8.66
   1 -12   4  147.62   14.97
  -1  12   4  104.98   15.72
   1  12  -4  103.72   11.45
   1  12  -4  125.17   13.52
  -1  12   4  144.83   12.38
   1  12   4  131.28   10.68
   1  12   4  133.94   14.58
  -1  12  -4  124.63   12.89
   2  12  -4    3.28    4.54
   2  12  -4    7.82    5.14
  -2  12   4   17.92    6.11
   2 -12   4   12.81    7.32
  -2  12   4   11.75    7.03
   2  12   4    0.63    4.91
   2  12   4   12.80    4.71
  -2  12  -4    7.22    5.98
   2  12   4    9.14    4.00
   3 -12   4    9.32    7.21
  -3  12   4    7.13    7.37
  -3  12   4    6.09    5.89
   3  12  -4    6.11    5.45
   3  12   4   -4.13    3.10
  -3 -12   4    1.06    5.62
   3  12   4   15.66    6.18
  -3  12  -4    5.37    5.79
   0  13   4   -2.36    4.96
   0  13   4    6.61    4.17
   0  13  -4   11.20    6.46
   0  13  -4   -5.09    4.65
   1  13  -4   -1.16    4.30
   1 -13   4   11.90    8.03
  -1  13   4   -6.10    5.27
  -1  13   4  -10.87    4.18
   1  13   4    4.99    6.71
   1  13   4    8.55    4.95
  -1  13  -4   -5.25    4.49
   0   0  -5    4.70    1.78
   0   0   5    4.07    1.85
   0   0   5    4.55    2.13
   0   0  -5    3.50    2.02
  -1   0   5 6737.82  242.99
   1   0  -5 7312.00  248.62
   1   0   5 6780.85  245.44
  -1   0  -5 7316.39  249.77
  -2   0   5  542.74   17.67
  -2   0   5  552.40   20.81
   2   0   5  588.81   22.19
  -2   0  -5  557.01   21.64
   2   0  -5  557.99   20.91
  -2   0   5  561.44   17.80
  -2   0  -5  605.30   18.91
   2   0   5  559.39   18.59
  -3   0   5 2836.92   81.57
  -3   0  -5 2807.79   78.57
  -3   0   5 2718.69   76.03
  -3   0   5 2722.66   76.20
  -3   0  -5 2673.63   81.97
   3   0  -5 2716.23   81.26
   3   0   5 2722.50   82.43
   3   0   5 2856.70   78.39
  -4   0   5  258.05   14.96
  -4   0  -5  260.54   13.08
   4   0   5  271.86   12.89
  -4   0   5  239.59   10.79
   4   0  -5  252.40   10.72
  -4   0  -5  256.30   15.27
   4   0   5  249.48   15.39
  -5   0  -5  963.09   34.56
  -5   0   5  955.11   30.96
   5   0  -5  929.26   30.52
   5   0   5  925.57   37.28
   5   0   5  939.82   33.96
  -5   0   5  976.54   37.49
   6   0   5    7.91    5.46
   6   0  -5    4.48    3.01
  -6   0   5    8.64    4.09
  -6   0   5   12.08    5.81
  -6   0  -5   14.57    5.81
  -7   0  -5    4.25    5.63
  -7   0   5   -0.39    5.42
  -7   0   5   10.51    6.66
   7   0  -5   16.27    4.19
   7   0   5   19.88    7.36
   0  -1   5 3887.22  171.96
   0   1   5 3650.89  148.77
   0   1  -5 3779.63  147.10
   0  -1  -5 3758.09  149.50
   1   1  -5 5634.43  203.86
  -1   1   5 5282.90  204.37
   1  -1   5 5628.06  228.26
  -1  -1  -5 5801.00  208.63
  -1  -1   5 5220.41  198.61
   1  -1  -5 5566.04  208.00
  -1   1  -5 5411.54  205.23
   1   1   5 5827.53  209.02
   2  -1   5  704.18   23.68
   2  -1   5  751.28   26.83
   2   1  -5  723.28   25.36
  -2   1   5  728.90   25.30
  -2  -1  -5  741.36   22.01
  -2   1   5  731.71   23.31
  -2  -1  -5  706.93   25.98
   2  -1  -5  704.91   25.05
  -2  -1   5  711.20   20.22
  -2   1  -5  739.83   23.98
  -2  -1   5  716.45   25.30
   2   1   5  717.72   21.83
  -2  -1   5  696.53   20.24
  -2   1  -5  724.84   26.38
   2   1   5  751.26   26.51
  -3   1   5  361.42   16.90
  -3  -1  -5  371.02   17.42
  -3  -1  -5  367.35   14.14
   3  -1   5  326.90   16.97
   3  -1   5  373.96   15.38
  -3   1   5  359.29   14.29
   3   1  -5  380.34   17.05
   3   1   5  376.58   13.98
  -3  -1   5  371.97   11.21
  -3   1  -5  372.27   15.57
   3   1   5  362.28   17.49
  -3  -1   5  377.35   17.05
   3  -1  -5  363.07   16.87
   3  -1  -5  367.21   14.23
  -3  -1   5  363.21   11.07
  -3   1  -5  380.28   17.99
  -4  -1  -5   54.75    5.67
  -4   1   5   54.04    5.35
   4  -1   5   65.61    9.42
  -4   1   5   61.83    8.53
  -4  -1  -5   61.53    8.75
   4  -1   5   57.56    6.06
   4   1  -5   65.76    9.54
  -4   1  -5   61.88    9.05
   4   1   5   71.28    6.14
   4  -1  -5   56.30    5.24
  -4  -1   5   53.28    7.85
  -4  -1   5   62.46    4.04
  -4   1  -5   58.63    6.55
   4   1   5   56.38    8.47
   5   1  -5   53.41    4.29
  -5   1   5   50.46    6.10
  -5  -1  -5   53.01    7.42
  -5   1   5   51.64    8.86
   5  -1   5   38.66    8.27
  -5   1  -5   45.31    7.55
   5   1   5   51.00    6.94
  -5  -1   5   55.61    7.06
  -5  -1   5   46.12    8.43
   5  -1  -5   57.91    6.14
   5   1   5   45.64    8.27
   6   1  -5   10.16    2.67
  -6   1   5   11.07    5.70
   6  -1   5   17.69    6.66
  -6  -1  -5   13.46    4.75
  -6   1   5   12.99    4.69
  -6  -1   5    9.67    3.38
   6   1   5    8.97    5.23
   6  -1  -5    9.40    3.91
  -6   1  -5    3.91    4.48
  -6  -1   5   11.69    5.67
  -7  -1  -5   98.33   10.75
  -7   1   5   75.97   10.14
  -7   1   5   93.50   13.90
   7   1  -5   89.35    6.06
   7  -1   5   76.18   11.95
  -7   1  -5   92.21   12.32
  -7  -1   5   71.70    6.91
   7  -1  -5   88.80    8.47
  -7  -1   5   88.64   12.82
   7   1   5   73.56   11.55
   0  -2   5   -0.86    1.99
   0  -2   5   -1.75    1.74
   0   2  -5   -0.78    1.63
   0  -2  -5   -1.05    1.77
   0  -2  -5    0.83    1.11
   0   2   5    0.26    1.11
   0   2   5   -1.50    1.77
   1   2  -5  807.90   26.30
   1   2  -5  788.27   23.32
  -1   2   5  770.87   25.94
  -1  -2  -5  786.53   26.92
   1  -2   5  756.71   26.79
  -1   2   5  800.08   26.03
  -1   2   5  795.04   25.24
  -1   2  -5  779.43   25.68
   1  -2  -5  796.42   25.24
  -1  -2   5  771.93   26.13
  -1   2  -5  757.35   25.79
  -1  -2   5  799.53   23.44
   1  -2  -5  799.65   26.10
   1   2   5  797.62   27.15
  -1   2  -5  799.98   26.96
  -2  -2  -5   39.49    2.67
   2   2  -5   50.68    6.12
  -2   2   5   40.59    5.55
  -2   2   5   42.60    4.67
   2  -2   5   38.30    6.16
   2  -2   5   45.65    4.66
  -2  -2  -5   48.12    5.75
  -2   2   5   42.05    4.93
  -2   2  -5   40.98    4.64
   2  -2  -5   52.92    5.13
  -2   2  -5   43.54    6.54
   2   2   5   41.40    6.29
   2   2   5   38.98    2.57
  -2  -2   5   47.72    5.44
   3   2  -5  963.48   34.40
   3  -2   5  896.98   30.11
  -3  -2  -5  871.94   31.64
  -3  -2  -5  876.22   26.94
  -3   2   5  857.38   29.36
  -3   2   5  866.58   31.46
   3  -2   5  767.86   31.62
  -3   2  -5  873.22   30.32
   3  -2  -5  893.30   29.37
   3   2   5  844.52   26.70
  -3  -2   5  847.47   30.96
  -3   2  -5  873.90   32.62
   3   2   5  887.31   32.20
   4  -2   5  195.62   11.84
  -4   2   5  200.77   11.29
  -4   2   5  211.00   13.65
  -4  -2  -5  196.36   13.21
  -4  -2  -5  211.73   10.51
   4  -2   5  185.53   13.67
  -4   2  -5  205.59   12.60
   4   2   5  205.17   10.29
   4  -2  -5  204.21   11.32
  -4   2  -5  182.86   13.45
  -4  -2   5  180.27   12.40
   4   2   5  211.77   13.53
  -5   2   5  732.89   28.48
  -5  -2  -5  744.70   27.74
   5  -2   5  739.88   32.67
  -5   2   5  746.28   32.08
  -5  -2   5  737.37   31.18
   5   2   5  757.90   29.39
   5  -2  -5  782.39   28.66
  -5   2  -5  778.09   31.06
   5   2   5  798.97   32.16
   6  -2   5   87.80   12.42
  -6   2   5   90.92    9.07
  -6  -2  -5   90.23    9.04
  -6   2   5   79.32   11.81
  -6  -2   5   84.73    3.95
   6   2   5   95.54   12.63
  -6  -2   5   75.67   11.19
   6  -2  -5   76.90    8.43
  -6   2  -5  107.14   10.84
  -7   2   5   19.95    7.96
  -7  -2  -5    9.01    4.82
  -7  -2   5    9.87    5.58
  -7   2  -5   14.68    7.71
   7  -2  -5    4.24    4.36
   7   2   5    4.55    5.34
   0   3  -5  263.04   12.18
   0  -3   5  272.18   11.95
   0  -3  -5  288.12   13.15
   0  -3   5  296.10   12.90
   0   3  -5  266.03   11.70
   0  -3  -5  277.70    9.80
   0   3   5  280.83   13.11
  -1   3   5 2507.28   73.09
   1  -3   5 2659.73   74.12
   1   3  -5 2398.62   72.45
   1   3  -5 2349.97   69.35
  -1   3   5 2394.92   70.95
  -1   3   5 2554.74   73.20
  -1  -3  -5 2430.17   73.54
   1  -3  -5 2491.25   71.01
  -1   3  -5 2403.58   73.15
  -1   3  -5 2524.92   72.70
  -1  -3   5 2567.57   72.98
   1   3   5 2542.93   74.01
  -1   3  -5 2615.60   73.12
  -1  -3   5 2749.59   69.95
  -2   3   5  663.47   23.52
   2   3  -5  643.95   23.47
  -2  -3  -5  616.29   23.94
   2  -3   5  559.05   24.20
   2  -3   5  636.77   23.05
  -2  -3  -5  533.81   17.14
  -2   3   5  653.09   23.31
  -2   3   5  657.61   23.60
  -2   3  -5  596.32   22.88
  -2   3  -5  656.98   23.70
   2  -3  -5  647.05   23.04
   2   3   5  641.46   17.23
   2   3   5  626.77   24.27
  -2   3  -5  657.76   25.05
  -2  -3   5  596.04   23.17
  -3   3   5 1049.35   36.92
  -3  -3  -5 1033.36   36.85
   3   3  -5 1027.36   36.55
   3  -3   5 1035.90   36.07
  -3   3   5 1064.88   36.09
  -3  -3  -5 1084.66   31.46
   3  -3   5 1083.54   38.85
  -3  -3   5 1118.60   37.26
  -3   3  -5 1087.11   36.48
  -3   3  -5 1049.10   38.41
   3  -3  -5 1087.50   35.95
   3   3   5 1038.12   37.33
   3  -3  -5 1094.65   37.03
   3   3   5 1050.31   31.25
  -4   3   5  146.18   10.18
  -4  -3  -5  142.47   11.00
  -4  -3  -5  138.99    7.97
   4  -3   5  147.36   12.33
   4  -3   5  153.48   10.64
  -4   3   5  154.34   11.75
  -4   3  -5  131.89   10.50
  -4  -3   5  155.07   11.31
   4  -3  -5  138.72   10.27
   4   3   5  136.45    7.84
   4   3   5  146.18   11.58
  -5   3   5   10.73    4.59
  -5  -3  -5    9.26    3.92
  -5   3   5   10.01    5.12
   5  -3   5    9.14    5.73
   5  -3  -5   17.63    4.74
   5   3   5    4.79    3.24
   5   3   5    8.86    5.27
  -5  -3   5   11.77    5.14
  -5   3  -5    6.84    4.68
  -6  -3  -5   17.52    5.11
  -6   3   5    1.41    5.55
   6  -3   5    4.63    4.56
  -6   3  -5   12.31    5.16
   6  -3  -5   12.94    4.69
  -6  -3   5   14.45    6.28
   6   3   5   14.42    7.04
  -7  -3  -5   28.91    6.66
   7  -3   5    6.90    5.72
  -7   3   5    8.76    6.68
   7  -3  -5    7.68    5.15
  -7  -3   5   11.44    6.04
   7   3   5   17.11    6.63
  -7   3  -5   19.56    6.92
   0  -4   5    4.18    2.49
   0   4  -5   -1.10    2.04
   0   4   5    1.46    1.45
   0  -4   5   -2.83    2.14
   0   4   5    1.61    2.61
   0  -4  -5    1.92    1.47
   0  -4  -5   -2.13    2.17
   0   4  -5   -0.59    1.94
  -1   4   5  170.39   10.60
  -1   4   5  168.02   10.62
  -1  -4  -5  181.40   10.68
  -1   4   5  169.99    8.95
   1   4  -5  184.08   10.31
   1  -4   5  192.01   11.23
  -1   4  -5  199.67   11.27
  -1   4  -5  183.42   10.42
   1   4   5  175.94    5.62
   1   4   5  177.56    5.63
   1   4   5  175.70   11.02
  -1  -4   5  190.24    8.68
  -1  -4   5  177.78   10.30
   1  -4  -5  164.80    8.77
  -1   4  -5  176.78   10.46
  -2  -4  -5  154.46   10.38
   2   4  -5  150.75    9.71
  -2   4   5  138.50    9.26
   2   4  -5  161.07    6.44
   2   4  -5  147.71    6.27
  -2   4   5  157.75   10.36
   2  -4   5  156.14   11.22
  -2   4   5  153.18   10.19
   2  -4  -5  149.97    9.30
  -2   4  -5  142.99    9.75
  -2   4  -5  143.27    9.85
  -2  -4   5  162.10   10.20
   2   4   5  181.89   11.31
  -2   4  -5  134.26   10.04
  -3  -4  -5  914.95   26.53
   3  -4   5  907.63   32.44
   3   4  -5  907.51   32.57
   3  -4   5  829.13   34.04
  -3   4   5  902.56   32.85
  -3   4  -5  927.14   35.88
   3  -4  -5  850.79   32.16
   3  -4  -5  902.50   32.65
   3   4   5  887.49   26.33
   3   4   5  909.50   33.40
  -3   4  -5  868.00   34.26
  -3  -4   5  897.96   32.65
   4  -4   5  217.69   15.72
  -4   4   5  219.72   14.14
  -4  -4  -5  233.00   10.49
  -4  -4  -5  226.01   14.16
  -4   4   5  254.91   15.47
   4   4   5  228.61   14.92
  -4   4  -5  248.76   15.01
   4   4   5  236.77   10.56
  -4  -4   5  230.31   14.52
   4  -4  -5  248.62   14.67
  -5  -4  -5  296.17   13.99
  -5   4   5  327.28   19.47
   5  -4   5  307.21   19.78
  -5   4  -5  310.56   18.57
   5  -4  -5  299.35   17.11
   5   4   5  280.73   17.50
   5   4   5  308.43   13.94
  -5  -4   5  291.09   17.84
  -6  -4  -5   73.20    7.71
  -6   4   5   59.58   11.41
   6  -4   5   66.50   11.64
   6  -4  -5   57.92    9.08
  -6  -4   5   51.28    9.14
  -6   4  -5   56.15    9.76
   6   4   5   55.18    9.98
   6   4   5   52.27    7.41
  -7   4   5   87.45   14.28
  -7  -4  -5   61.22    8.70
   7  -4   5   82.24   13.59
  -7   4  -5   66.74   11.22
  -7  -4   5   72.33   12.25
   7  -4  -5   72.00   11.32
   7   4   5   73.27   11.03
   0  -5  -5  117.47    6.41
   0   5   5  136.57    9.48
   0  -5   5  124.01    9.11
   0  -5   5  144.63    9.12
   0   5   5  132.54    9.75
   0   5  -5  135.54    8.98
   0   5  -5  124.19    8.44
   0   5   5  122.53    6.56
   1   5  -5 1670.23   51.72
   1  -5   5 1724.70   55.34
  -1  -5  -5 1740.53   55.48
  -1   5   5 1775.99   52.37
  -1   5   5 1759.31   55.85
  -1   5   5 1734.06   55.57
   1   5  -5 1790.98   54.38
   1  -5  -5 1722.72   51.96
   1   5   5 1704.66   48.17
  -1  -5   5 1712.99   54.43
  -1   5  -5 1749.67   54.46
   1   5   5 1794.58   48.29
  -1   5  -5 1850.76   55.77
   1   5   5 1757.07   55.72
  -1  -5   5 1755.97   51.85
  -1   5  -5 1728.56   54.82
   2  -5   5  131.22   10.76
   2   5  -5  146.58   11.15
  -2   5   5  128.12    9.06
  -2   5   5  128.12   10.16
   2   5  -5  139.08    7.03
  -2  -5  -5  105.36   10.31
   2   5  -5  132.58    6.89
  -2   5  -5  131.10   10.57
   2   5   5  146.22   10.75
  -2   5  -5  126.66    9.74
   2  -5  -5  135.12    8.95
   2   5   5  134.26    4.69
  -2  -5   5  141.85    9.91
   2   5   5  124.49    4.63
  -2   5  -5  135.97    9.99
   3   5  -5  495.01   14.96
  -3   5   5  514.29   23.12
  -3   5   5  514.19   22.44
   3  -5   5  526.00   24.44
   3   5  -5  493.54   14.98
   3   5  -5  494.67   21.85
  -3  -5  -5  479.45   22.14
   3  -5  -5  499.16   21.84
   3   5   5  508.94   15.90
  -3   5  -5  497.49   22.44
   3   5   5  506.28   22.86
  -3  -5   5  513.54   22.19
  -4  -5  -5   11.22    2.80
   4  -5   5   16.63    6.05
  -4   5   5    5.75    4.70
  -4  -5  -5   13.58    5.18
  -4   5  -5   17.19    5.43
   4  -5  -5    6.35    4.30
  -4  -5   5   13.08    5.20
   4   5   5   11.36    5.22
   4   5   5   11.68    2.85
  -5  -5  -5   30.63    5.15
  -5   5   5   24.43    7.11
   5  -5   5   22.44    7.18
  -5   5  -5   29.79    7.38
   5  -5  -5   47.24    8.56
   5   5   5   38.38    5.45
   5   5   5   26.33    7.05
  -5  -5   5   33.79    7.27
  -6   5   5    8.50    6.22
   6  -5   5   12.50    7.18
  -6  -5  -5    7.65    4.11
  -6   5  -5    4.21    5.10
   6   5   5   14.27    6.02
   6  -5  -5   -0.28    3.76
  -6  -5   5   10.38    5.79
   6   5   5   -0.57    3.23
   0  -6   5   -5.70    2.08
   0   6   5    2.53    2.96
   0  -6  -5   -0.10    1.70
   0   6   5   -1.21    2.63
   0   6   5    2.18    1.83
   0   6  -5   -3.07    2.01
   0   6  -5    5.81    2.93
   0  -6   5    7.06    3.58
  -1   6   5   71.15    8.03
   1  -6   5   72.76    8.05
  -1   6   5   65.80    7.97
  -1   6   5   69.56    6.10
  -1  -6  -5   68.56    7.60
   1   6  -5   79.94    7.43
   1   6  -5   78.30    6.61
   1   6   5   63.92    4.28
   1   6   5   64.14    8.78
  -1  -6   5   65.01    6.18
   1   6   5   71.74    4.44
  -1   6  -5   72.64    9.94
  -1  -6   5   66.74    7.06
   1  -6  -5   67.43    6.01
  -1   6  -5   71.73    7.69
  -1   6  -5   68.90    7.31
   2   6  -5   54.77    5.05
   2   6  -5   55.91    7.68
   2  -6   5   57.06    8.51
  -2   6   5   57.79    8.77
   2   6  -5   57.97    5.30
  -2  -6  -5   61.81    7.38
  -2   6   5   64.34    6.83
  -2   6   5   73.03    8.34
  -2   6  -5   53.80    7.82
  -2   6  -5   45.08    8.19
   2   6   5   63.19   10.17
   2   6   5   57.76    3.43
   2   6   5   57.83    3.49
   2  -6  -5   58.98    6.60
  -2   6  -5   52.82    8.31
   3   6  -5  251.74    9.96
  -3   6   5  249.56   15.03
  -3  -6  -5  229.11   14.56
  -3  -6  -5  249.54    9.32
   3  -6   5  241.97   16.52
   3   6  -5  246.83    9.94
  -3   6  -5  239.99   15.15
   3   6   5  239.12    9.13
  -3  -6   5  238.46   14.58
   3  -6  -5  273.36   16.16
   3   6   5  244.84   15.45
   4  -6   5  132.13   12.91
  -4   6   5  108.27   11.31
  -4  -6  -5  115.58    6.68
  -4   6  -5  135.83   11.95
   4   6   5  126.42    7.03
   4  -6  -5  126.62   12.19
   4   6   5  120.69   11.47
  -4  -6   5  122.38   11.42
   5  -6   5  577.33   29.78
  -5   6   5  519.15   27.18
  -5  -6  -5  527.47   19.92
  -5  -6   5  552.19   26.10
   5   6   5  543.35   26.65
  -5   6  -5  553.74   27.56
   5  -6  -5  507.83   26.31
   5   6   5  500.34   19.56
  -6  -6  -5   75.91    7.65
  -6   6   5   62.65   11.23
   6  -6   5   70.19   12.38
  -6   6  -5   73.79   12.19
   6   6   5   58.40    7.98
  -6  -6   5   77.02   13.47
   6  -6  -5   38.30    9.08
   6   6   5   61.11    9.83
   0   7  -5  229.72   13.57
   0   7   5  222.13   10.86
   0   7  -5  231.63   15.21
   0   7  -5  225.23   13.70
   0  -7   5  227.07   14.23
   0  -7   5  227.95   13.48
   0   7   5  217.48   10.80
   0   7   5  224.84   14.67
   0   7   5  202.42   15.37
  -1   7   5  660.37   28.70
   1   7  -5  670.93   25.92
   1  -7   5  685.90   28.64
   1   7  -5  666.73   27.05
  -1   7   5  711.04   25.54
   1   7   5  705.73   29.19
  -1  -7   5  689.46   25.91
  -1   7  -5  688.13   27.82
   1   7   5  658.28   22.15
   1  -7  -5  691.74   25.10
   1   7   5  637.08   27.98
  -1  -7   5  719.51   28.16
   1   7   5  679.29   22.20
  -1   7  -5  675.62   28.25
  -2   7   5   10.71    5.01
  -2   7   5   13.14    5.62
   2   7  -5   25.34    4.71
   2   7  -5   21.99    4.36
   2  -7   5   25.59    6.94
   2   7   5   17.05    5.68
   2  -7  -5   21.08    4.97
  -2   7  -5   22.23    5.67
  -2  -7   5   30.92    6.50
   2   7   5   26.13    2.85
   2   7   5   20.78    2.78
   3   7  -5  229.80   10.69
   3  -7   5  201.68   15.89
   3   7  -5  231.14   10.77
  -3   7   5  197.84   14.10
   3   7   5  215.30   11.11
  -3  -7   5  214.68   14.22
   3   7   5  239.55    9.06
   3  -7  -5  189.17   14.75
  -3   7  -5  224.31   15.04
   3   7   5  263.30   16.42
  -4   7   5    5.94    4.50
   4  -7   5    7.37    5.94
   4   7  -5   11.01    2.00
  -4  -7  -5   11.50    2.68
   4   7   5    9.25    2.67
  -4   7  -5    8.74    4.72
   4  -7  -5    1.17    4.86
  -4  -7   5    6.38    4.74
   4   7   5    5.18    5.11
  -5  -7  -5    0.59    2.46
   5   7   5    1.09    2.66
  -5   7  -5    4.27    6.39
  -5  -7   5   -7.35    4.48
   5   7   5    9.16    6.25
   5  -7  -5    8.90    4.89
  -6  -7  -5   -0.80    3.53
   6  -7   5    3.09    6.28
  -6   7   5   -3.84    4.98
  -6  -7   5   11.37    6.64
   6  -7  -5   -6.25    3.98
  -6   7  -5   -4.79    4.35
   6   7   5   -1.46    4.35
   0  -8   5   -4.31    2.57
   0   8   5    0.93    2.26
   0   8  -5    6.27    3.46
   0   8   5    2.67    3.79
   0   8  -5    1.69    3.87
   0   8   5   -2.13    2.30
  -1   8   5    3.83    4.31
  -1   8   5    5.44    3.01
   1  -8   5    0.84    3.96
  -1   8  -5   -2.82    2.76
   1  -8  -5    2.77    2.71
  -1  -8   5    5.26    3.67
   1   8   5    0.87    1.96
   1   8   5   -1.81    1.80
  -1  -8   5    1.91    3.55
   1   8   5    2.95    3.94
  -2   8   5   72.69   10.95
  -2   8   5   90.07    9.05
   2   8  -5  102.72    8.32
   2   8  -5   89.10    8.27
   2  -8   5   80.29    9.69
   2   8   5   86.23    5.59
  -2  -8   5   86.79    9.62
  -2   8  -5   86.34   11.00
   2   8   5   80.03   10.85
   2   8   5   90.29    5.82
   3   8  -5  273.08   13.07
   3  -8   5  307.49   19.98
   3   8  -5  270.20   13.30
  -3   8   5  301.54   17.72
  -3   8   5  267.23   18.70
  -3  -8   5  285.12   17.24
   3   8   5  252.26   10.76
   3   8   5  309.08   18.64
   3  -8  -5  264.96   17.77
   3   8   5  265.71   10.72
  -3   8  -5  287.37   17.94
   4  -8   5   77.33   12.43
   4   8  -5   67.53    5.27
   4   8  -5   59.98    5.27
  -4   8   5   67.90   10.80
   4   8   5   71.86    5.51
  -4   8  -5   76.72   11.90
   4   8   5   76.62   11.44
  -4  -8   5   65.29    9.45
   4  -8  -5   75.23   11.49
  -5  -8  -5  155.27    8.84
   5  -8   5  173.20   16.99
  -5   8   5  130.08   13.77
  -5  -8   5  150.15   14.21
   5   8   5  137.64   13.43
  -5   8  -5  148.77   14.67
   5   8   5  152.39    8.73
   0   9   5   -5.36    3.13
   0  -9   5   -0.37    3.78
   0   9   5   -2.14    2.44
   0   9  -5   -5.23    3.06
   0   9   5   -2.48    2.24
   1   9  -5  347.90   18.79
   1  -9   5  353.20   20.68
  -1   9   5  368.67   21.65
  -1   9   5  348.40   17.57
  -1   9   5  403.44   18.56
   1  -9  -5  358.22   17.45
  -1  -9   5  383.23   19.27
  -1  -9   5  367.31   20.36
  -1   9  -5  366.92   20.28
   1   9   5  370.74   21.45
   1   9   5  358.65   15.54
   1   9   5  353.78   15.33
   2   9  -5   13.27    4.93
   2   9  -5   14.68    4.65
   2  -9   5   23.42    6.93
  -2   9   5   21.05    5.99
  -2   9   5   14.45    6.76
   2   9   5   20.02    6.96
  -2   9  -5   15.03    6.06
  -2  -9   5   15.15    5.76
   2   9   5   27.11    4.13
   2   9   5   19.71    3.66
  -3   9   5   83.13   11.16
   3   9  -5   58.96    6.91
  -3   9   5   62.52   11.97
   3  -9   5   81.80   12.78
   3   9  -5   70.99    7.93
   3   9   5   70.32    5.37
  -3   9  -5   86.80   12.13
   3   9   5   85.14    5.68
   3   9   5   72.89   11.29
  -3  -9   5   74.49   10.53
   4  -9   5    6.40    5.25
  -4   9   5   15.98    6.34
   4   9  -5    8.65    2.94
   4   9  -5   -1.30    2.77
   4   9   5    4.13    2.45
   4   9   5    6.66    5.77
  -4   9  -5    7.36    4.70
  -4  -9   5    8.94    5.56
   4   9   5    3.45    2.34
  -5   9   5    5.47    5.54
   5   9   5    1.27    3.02
  -5   9  -5  -11.55    4.21
   5  -9  -5    7.87    5.70
   5   9   5   -3.34    5.58
   0  10   5    8.26    3.68
   0  10   5    3.74    4.61
   0  10  -5   -3.91    3.89
   0  10   5    3.26    3.19
   0 -10   5    2.01    4.34
  -1  10   5    0.90    3.30
   1  10  -5   -1.50    3.11
   1 -10   5   -2.90    3.84
  -1  10   5   -2.21    3.45
   1  10  -5    8.05    4.11
   1  10   5   -2.89    2.64
  -1 -10   5   -0.47    3.75
  -1  10  -5    0.02    4.41
   1  10   5    2.10    2.70
   1  10   5   -0.61    4.08
   2 -10   5   -5.80    4.22
   2  10  -5   -8.36    3.13
   2  10  -5    3.19    4.30
  -2  10   5    2.09    4.64
  -2  10   5   -3.13    4.81
   2  10   5   -1.89    2.51
  -2 -10   5   -3.81    3.76
  -2  10  -5  -10.24    3.38
   2  10   5    1.06    2.55
   2  10   5   -4.64    3.54
  -3  10   5  160.18   14.13
  -3  10   5  161.09   15.98
   3 -10   5  156.69   15.35
   3  10  -5  141.98   10.63
   3  10  -5  162.22   11.81
   3  10   5  125.83    7.82
   3  10   5  144.53    8.29
  -3  10  -5  155.09   14.38
   3  10   5  154.19   14.49
  -3 -10   5  149.06   13.53
  -4  10   5   25.48    7.60
   4 -10   5   49.81   11.09
   4  10  -5   53.91    5.82
  -4  10   5   43.73   10.27
   4  10  -5   60.61    6.92
  -4 -10   5   51.80   10.22
   4  10   5   39.39    9.34
   4  10   5   32.23    4.33
   4 -10  -5   39.03    9.36
   4  10   5   32.00    4.30
  -4  10  -5   31.49    7.63
   0 -11   5   27.20    7.20
   0  11   5   21.67    5.52
   0  11  -5   14.85    6.13
   0  11   5   19.10    7.36
  -1  11   5  185.57   19.97
   1  11  -5  196.69   15.57
   1 -11   5  212.26   17.13
  -1  11   5  233.23   14.69
   1  11  -5  213.55   15.54
  -1  11  -5  194.83   15.80
   1  11   5  193.98   12.17
   1  11   5  197.91   16.95
   1  11   5  202.31   12.08
   2  11  -5    3.34    4.66
  -2  11   5    8.48    6.41
  -2  11   5   11.29    6.02
   2  11  -5   15.04    6.37
   2 -11   5    5.68    6.00
  -2  11  -5   17.43    6.57
  -2 -11   5   16.38    6.89
   2  11   5   18.19    4.09
   2  11   5   -2.13    5.41
   2  11   5    9.69    3.54
   3 -11   5   -1.85    5.47
   3  11  -5   -1.62    4.04
  -3  11   5   -0.53    4.32
  -3  11   5   -3.97    5.18
  -3 -11   5   -7.92    3.76
   3  11   5   -0.86    2.94
   3  11   5   -9.83    4.82
  -3  11  -5   -4.00    4.20
   3  11   5   -6.84    2.13
   4 -11   5    0.94    4.78
  -4  11   5    0.61    6.13
  -4  11   5   -0.33    4.61
   4  11  -5    0.70    4.06
  -4 -11   5    2.76    6.04
   4  11   5  -12.40    4.79
  -4  11  -5    0.43    4.79
   4  11   5   -1.90    2.49
   0  12   5   -1.36    3.65
   0  12  -5   -2.23    4.58
   0  12   5   -7.79    4.72
   0 -12   5    2.98    5.39
   1  12  -5   -5.15    3.59
  -1  12   5    3.22    3.29
   1  12  -5    4.56    5.84
  -1  12   5  -10.62    4.74
   1 -12   5   -1.62    5.00
   1  12   5    3.34    5.39
   1  12   5   -2.85    3.50
  -1  12  -5    1.90    5.04
   2 -12   5   -2.74    4.63
  -2  12   5   -5.85    5.41
   2  12  -5    5.76    5.35
  -2  12   5   -4.74    3.60
   2  12  -5    5.05    4.78
   2  12   5    1.88    3.20
   2  12   5    6.14    5.94
  -2  12  -5    1.98    4.95
   2  12   5    2.92    4.51
   3 -12   5   13.16    7.91
  -3  12   5   13.86    6.25
  -3  12   5    3.87    6.19
   3  12  -5   10.08    5.61
   3  12   5   14.20    3.76
   3  12   5    8.62    6.80
  -3  12  -5   23.50    8.25
  -3 -12   5   21.87    6.59
   0  13   5   -6.40    4.06
   0 -13   5    2.57    5.28
   0  13  -5    7.69    6.09
   0  13  -5   10.25    5.59
   0  13   5    2.85    4.34
  -1  13   5   25.48    7.39
  -1  13   5   32.72    9.81
   1  13  -5   44.39    9.62
   1 -13   5   35.23    9.51
   1  13   5   36.61    7.16
  -1  13  -5   23.17    7.51
   1  13   5   12.31    6.85
   0   0  -6 5920.29  215.32
   0   0   6 5701.86  213.21
   1   0   6  444.07   15.19
   1   0  -6  431.44   15.42
  -1   0  -6  437.49   14.88
  -1   0   6  435.47   16.42
  -1   0   6  436.82   15.44
  -1   0  -6  462.59   17.89
   1   0   6  421.51   17.63
   1   0  -6  478.80   16.77
  -2   0  -6  643.37   21.70
  -2   0  -6  723.80   26.02
  -2   0   6  675.21   21.19
  -2   0   6  664.67   21.11
   2   0   6  729.80   26.04
   2   0  -6  654.28   24.25
  -2   0  -6  648.52   21.92
  -2   0   6  680.65   24.44
  -3   0   6   26.46    3.15
  -3   0   6   26.44    5.22
   3   0   6   18.75    5.38
   3   0   6   27.91    4.16
  -3   0  -6   27.60    4.13
   3   0  -6   16.26    4.97
  -3   0  -6   18.48    5.23
  -3   0   6   30.35    3.21
  -4   0  -6  352.99   19.07
  -4   0   6  355.30   13.31
   4   0   6  359.04   15.82
  -4   0  -6  360.80   16.18
  -4   0   6  363.65   18.50
   4   0   6  357.52   19.26
  -5   0  -6  266.03   14.81
   5   0   6  247.13   14.05
  -5   0   6  245.08   16.17
  -5   0   6  262.01   11.66
   5   0   6  243.11   16.93
  -6   0   6   80.00    7.22
  -6   0   6   59.27   10.37
   6   0   6   79.18   11.81
  -6   0  -6   89.49    9.53
  -7   0  -6    6.40    5.44
  -7   0   6    4.96    5.91
  -7   0   6   -0.51    3.12
   7   0   6   -5.46    4.15
   0  -1   6    0.88    1.77
   0   1  -6    7.18    2.57
   0   1   6   -0.12    1.41
   0  -1  -6   -1.53    1.23
   0   1   6    1.14    1.99
   0  -1  -6    1.48    2.05
   0  -1   6   -2.36    1.67
   0   1  -6    2.05    1.89
  -1  -1  -6  317.62   10.29
  -1   1   6  286.18   12.17
  -1  -1  -6  286.82   13.44
  -1   1   6  304.75   12.45
   1   1  -6  318.18   12.98
   1   1  -6  288.03   10.99
   1  -1   6  297.30   13.83
   1  -1   6  303.66   12.41
   1  -1  -6  305.83   12.44
   1   1   6  312.87   10.40
  -1   1  -6  305.54   13.76
  -1  -1   6  290.03   12.79
  -1   1  -6  301.41   12.12
  -1  -1   6  309.49   11.28
   1   1   6  301.14   13.89
   1  -1  -6  291.59   12.36
  -2  -1  -6 1362.01   44.17
   2  -1   6 1366.13   44.69
  -2   1   6 1365.51   40.83
  -2   1   6 1410.89   40.86
  -2  -1  -6 1337.50   39.08
  -2  -1  -6 1332.76   38.92
   2   1  -6 1375.32   43.19
  -2   1   6 1299.84   42.54
  -2  -1   6 1321.34   37.83
  -2   1  -6 1345.48   41.10
   2   1   6 1362.86   44.44
  -2   1  -6 1360.81   44.38
   2  -1  -6 1350.71   42.77
  -2   1  -6 1401.89   41.64
  -2  -1   6 1407.79   37.97
  -2  -1   6 1405.81   43.28
  -3   1   6    5.57    2.27
   3   1  -6    2.15    2.71
  -3   1   6    4.21    2.25
   3  -1   6    3.10    2.39
  -3  -1  -6    2.62    3.35
  -3  -1  -6    5.17    2.22
   3  -1   6    2.16    3.54
  -3   1   6    7.68    3.42
  -3   1  -6    4.01    2.79
   3   1   6    8.37    2.39
  -3  -1   6    4.10    1.06
   3   1   6    2.89    3.51
   3  -1  -6    0.03    2.40
  -3  -1   6    4.35    0.96
  -3  -1   6    1.93    2.95
  -4  -1  -6 1104.24   36.47
  -4   1   6 1120.02   36.08
   4  -1   6 1133.64   38.29
  -4   1   6 1169.77   36.13
   4  -1   6 1170.12   42.43
  -4   1   6 1130.66   40.91
  -4  -1  -6 1058.68   40.76
  -4   1  -6 1195.57   38.80
  -4   1  -6 1238.58   46.19
   4   1   6 1177.25   42.01
  -4  -1   6 1078.80   40.21
  -4  -1   6 1094.69   31.81
  -4  -1   6 1129.16   31.77
   4   1   6 1159.44   36.57
  -5   1   6   47.07    8.94
  -5   1   6   28.57    5.12
   5  -1   6   38.43    8.56
  -5  -1  -6   47.79    7.05
  -5   1  -6   34.78    6.85
   5   1   6   30.46    7.73
   5  -1  -6   51.88    5.35
  -5  -1   6   43.11    8.06
  -5  -1   6   32.39    3.20
   5   1   6   38.24    6.10
  -6   1   6  432.14   18.98
  -6  -1  -6  466.01   21.62
   6  -1   6  407.15   24.19
  -6   1   6  444.07   24.53
  -6  -1   6  466.90   24.76
  -6   1  -6  445.37   22.42
   6   1   6  451.86   24.45
  -6  -1   6  415.80   14.60
   6  -1  -6  428.90   18.38
  -7   1   6  -14.13    9.45
  -7  -1  -6   17.53    5.93
  -7   1   6    7.15    6.28
  -7  -1   6   -2.04    3.22
   7   1   6    7.77    6.03
  -7   1  -6    3.02    4.72
   7  -1  -6   12.05    3.67
  -7  -1   6    8.67    5.34
   0   2   6 3385.94   94.38
   0   2  -6 3479.60   97.24
   0  -2   6 3491.72   97.48
   0  -2  -6 3375.70   98.15
   0   2  -6 3551.49   97.11
   0  -2   6 3488.27   97.13
   0   2   6 3657.20   98.66
   0  -2  -6 3410.04   94.45
  -1  -2  -6  233.26   12.04
  -1   2   6  245.80   11.38
   1  -2   6  237.08   11.28
  -1  -2  -6  222.49    7.14
  -1  -2  -6  220.59    7.17
   1   2  -6  238.01    9.22
   1  -2   6  233.58   12.04
  -1   2   6  231.66   10.46
   1   2  -6  227.34   11.19
   1  -2  -6  235.95   10.38
   1  -2  -6  236.20   11.30
  -1   2  -6  224.59   10.69
   1   2   6  236.31   12.05
  -1   2  -6  218.43   10.63
  -1  -2   6  238.73   11.44
  -1  -2   6  241.50    9.35
  -1   2  -6  202.12   11.34
   2   2  -6 2350.41   68.15
  -2   2   6 2357.94   67.57
   2  -2   6 2101.02   68.92
  -2  -2  -6 2299.08   69.10
  -2  -2  -6 2338.94   62.06
  -2   2   6 2300.61   66.69
  -2  -2  -6 2317.45   62.00
  -2   2   6 2295.23   66.51
   2   2   6 2243.36   69.10
  -2   2  -6 2307.50   67.10
   2  -2  -6 2341.19   67.59
  -2   2  -6 2267.40   69.20
  -2   2  -6 2247.29   66.57
  -2  -2   6 2220.23   67.88
   3   2  -6   16.38    4.16
  -3   2   6   13.56    3.32
  -3  -2  -6   19.42    5.32
  -3  -2  -6   12.19    2.67
   3  -2   6   16.90    3.99
   3  -2   6   15.93    5.28
  -3   2   6   22.75    5.19
  -3   2   6   14.16    3.68
   3   2   6   12.21    4.80
  -3   2  -6   18.88    5.18
  -3  -2   6   13.14    4.34
   3  -2  -6   15.73    4.48
  -3   2  -6   17.59    4.32
  -4  -2  -6   19.35    3.75
   4  -2   6   17.68    5.85
   4  -2   6   20.63    4.92
  -4  -2  -6   19.85    5.61
  -4   2   6   12.45    4.92
  -4   2   6   25.05    4.80
   4  -2  -6   18.32    4.08
   4   2   6   16.58    3.69
   4   2   6   24.48    6.49
  -4  -2   6   14.04    4.95
  -4   2  -6   15.85    4.60
  -5   2   6   76.03   10.97
  -5   2   6   95.26    8.63
   5  -2   6  103.59   11.73
  -5  -2  -6  106.21    8.38
   5   2   6  105.74    8.08
  -5   2  -6  125.25   11.01
   5   2   6   93.11   10.64
  -5  -2   6  123.32   10.85
   5  -2  -6  107.52    8.65
  -6   2   6   43.45    8.70
   6  -2   6   44.37    9.01
  -6  -2  -6   30.91    6.53
  -6   2   6   41.06    7.42
   6  -2  -6   37.69    6.31
   6   2   6   46.70    9.27
  -6  -2   6   34.84    8.03
  -6   2  -6   46.42    8.70
  -7  -2  -6   23.73    6.66
  -7   2   6   22.86    8.19
   7  -2   6   21.64    7.50
  -7   2  -6   27.91    9.17
   7   2   6   11.92    5.95
  -7  -2   6   29.81    8.41
   7  -2  -6    9.27    4.45
   0  -3  -6   -0.44    1.30
   0  -3  -6    4.75    2.99
   0  -3   6   -2.58    2.30
   0   3   6    0.54    2.88
   0   3  -6    2.21    2.41
   0  -3   6    2.61    2.60
   0   3  -6    2.12    2.21
   0   3   6    2.42    1.43
  -1  -3  -6  245.75   12.64
   1   3  -6  235.95    9.67
  -1   3   6  206.89   11.45
  -1   3   6  239.40   12.15
  -1   3   6  240.44   10.68
   1  -3   6  229.48   12.42
   1   3  -6  230.16   11.73
  -1  -3   6  234.05    9.73
  -1   3  -6  252.89   12.72
  -1   3  -6  227.24   11.53
   1   3   6  232.40   12.81
   1  -3  -6  226.47   10.44
  -1   3  -6  241.74   11.82
  -1  -3   6  226.45   11.83
   2   3  -6 3190.64   86.52
  -2   3   6 3198.41   93.19
   2  -3   6 2953.30   94.94
  -2   3   6 3312.97   93.75
  -2  -3  -6 3239.15   95.08
   2   3  -6 3289.87   94.06
  -2   3   6 3447.53   93.96
  -2   3  -6 3305.99   93.44
  -2   3  -6 3371.16   93.98
  -2  -3   6 3286.04   94.20
   2   3   6 3365.97   95.68
   2  -3  -6 3267.22   93.11
  -2   3  -6 3525.79   96.36
  -2  -3   6 2828.80   86.46
   3  -3   6  153.43   11.64
  -3  -3  -6  155.38    7.08
   3   3  -6  163.66   10.83
  -3   3   6  156.55   10.13
  -3   3   6  145.51    9.91
  -3   3   6  154.65   10.92
  -3  -3  -6  143.00   10.80
   3   3   6  165.75    6.70
  -3  -3   6  153.61   12.48
  -3   3  -6  156.80   10.38
   3   3   6  156.29   11.68
  -3   3  -6  151.89   11.43
   3  -3  -6  149.26   10.36
  -4   3   6  361.03   17.63
  -4   3   6  417.33   20.54
  -4  -3  -6  360.94   14.33
  -4  -3  -6  357.68   19.06
   4  -3   6  387.40   21.12
   4   3   6  377.74   14.49
   4   3   6  361.36   19.62
  -4  -3   6  370.99   19.13
   4  -3  -6  395.13   17.73
  -4   3  -6  375.03   18.62
  -5  -3  -6    3.21    3.02
  -5   3   6   -4.42    3.89
   5  -3   6    2.02    4.70
  -5   3   6   15.57    4.64
   5   3   6    5.43    4.99
  -5  -3   6    3.95    4.26
   5  -3  -6    9.45    4.01
   5   3   6    9.30    3.58
  -5   3  -6    9.24    4.28
  -6   3   6  214.17   17.33
   6  -3   6  200.83   16.83
  -6  -3  -6  197.64   12.74
  -6  -3   6  213.64   16.13
  -6   3  -6  250.69   17.21
   6  -3  -6  224.49   14.11
   6   3   6  215.15   12.88
   6   3   6  205.07   15.88
  -7   3   6    3.26    5.52
   7  -3   6    2.09    5.31
  -7  -3  -6   -7.40    3.61
  -7  -3   6   -1.51    4.27
   7   3   6   -6.10    4.76
  -7   3  -6   -1.77    4.08
   7  -3  -6    4.77    3.81
   0   4   6 3389.81   96.63
   0   4  -6 3335.31   94.30
   0  -4   6 3295.97   95.61
   0   4  -6 3260.90   95.10
   0   4   6 3448.93   90.88
   0  -4  -6 3339.42   90.67
   0  -4   6 3230.12   94.31
   0  -4  -6 3239.19   96.15
   1   4  -6    0.37    2.21
   1   4  -6   -2.31    1.47
  -1   4   6    3.94    2.67
   1  -4   6    0.74    2.72
  -1   4   6    0.07    2.01
  -1  -4  -6   -1.10    1.64
  -1   4   6    2.96    2.59
  -1  -4   6    1.22    2.87
   1   4   6    2.34    3.08
  -1   4  -6   -4.61    2.25
  -1   4  -6   -1.19    2.40
  -1   4  -6   -1.07    2.10
  -1  -4   6    2.16    1.92
   1  -4  -6    5.34    2.37
  -2  -4  -6 1153.44   39.71
  -2   4   6 1176.23   39.18
  -2   4   6 1140.24   37.71
  -2   4   6 1110.22   38.67
   2   4  -6 1123.95   32.42
   2  -4   6 1063.64   39.69
   2  -4  -6 1208.92   37.89
  -2  -4   6 1141.44   32.46
   2   4   6 1171.99   40.07
  -2   4  -6 1126.50   38.73
  -2   4  -6 1160.50   38.50
  -2  -4   6 1142.59   38.81
  -2   4  -6 1084.13   42.33
  -3   4   6   89.69    8.57
   3  -4   6   77.47    7.56
  -3  -4  -6   76.71    3.67
   3  -4   6   67.27    9.60
  -3   4   6   67.11    8.89
   3   4  -6   73.65    7.67
  -3  -4  -6   71.26    7.91
  -3   4   6   78.76    8.22
   3   4   6   82.97    8.93
  -3   4  -6   83.86   11.74
   3   4   6   73.26    3.61
  -3   4  -6   68.65    7.45
   3  -4  -6   74.79    7.62
  -3  -4   6   79.83    8.13
   4  -4   6  117.36   11.82
  -4  -4  -6  111.89    6.43
  -4   4   6  120.59   10.97
  -4   4   6  104.07    9.95
   4  -4  -6  114.73   11.21
   4   4   6  124.98   11.41
  -4  -4   6  105.99   10.09
   4   4   6  112.61    6.50
  -4   4  -6  110.26   10.05
   5  -4   6   10.34    5.64
  -5   4   6   -2.24    3.54
  -5  -4  -6    4.58    2.55
  -5  -4   6    3.98    4.00
   5   4   6   -1.70    4.67
   5  -4  -6   -0.27    3.90
   5   4   6   -1.37    2.43
  -5   4  -6    1.05    3.66
   6  -4   6    6.91    5.25
  -6  -4  -6    7.79    3.52
  -6   4   6    6.54    4.81
   6   4   6   15.31    6.42
  -6  -4   6    0.48    4.84
   6   4   6    4.21    3.96
   6  -4  -6    8.40    4.73
  -6   4  -6   13.45    5.78
  -7   4   6   24.91    8.51
  -7  -4  -6   36.88    6.52
   7  -4   6   46.04   10.03
  -7   4  -6   29.19    8.04
   7  -4  -6   26.46    6.72
  -7  -4   6   38.04    9.77
   7   4   6   36.59    8.40
   0  -5  -6    1.29    2.68
   0  -5   6   -1.77    2.04
   0   5  -6   -0.29    2.07
   0  -5  -6    0.45    1.51
   0  -5   6   -0.56    1.91
   0   5   6   -0.45    2.58
   0   5   6   -0.14    2.60
   0   5  -6   -0.99    2.11
   0   5   6    0.74    1.30
   1   5  -6   32.96    4.82
  -1   5   6   31.50    6.08
   1  -5   6   39.57    6.74
  -1   5   6   32.72    4.65
   1   5   6   34.73    6.24
   1   5   6   29.89    2.19
  -1  -5   6   37.40    4.42
   1  -5  -6   34.29    4.75
   1   5   6   30.99    2.18
  -1   5  -6   34.41    6.08
  -1   5  -6   32.72    6.80
  -1   5  -6   27.42    5.35
  -1  -5   6   29.96    5.72
  -2   5   6  954.82   32.85
  -2   5   6  974.06   35.18
   2   5  -6  942.74   28.65
  -2  -5  -6  951.49   34.88
  -2   5   6  930.80   34.72
   2   5  -6  929.86   33.70
   2   5   6  926.96   35.14
   2  -5  -6  981.93   32.81
  -2   5  -6  907.99   35.04
  -2  -5   6  945.76   28.60
  -2   5  -6  917.74   34.03
  -2  -5   6  897.03   34.13
  -3   5   6   14.87    4.70
  -3   5   6    8.78    4.47
   3  -5   6   15.33    5.37
  -3   5   6    9.92    4.31
  -3  -5  -6   14.92    4.92
   3   5   6   12.50    1.21
   3   5   6   15.73    5.32
   3  -5  -6   11.19    4.49
  -3   5  -6    7.49    4.01
  -3  -5   6    9.59    4.19
  -4  -5  -6  308.15   11.71
   4  -5   6  304.34   19.73
  -4   5   6  299.37   18.08
   4  -5  -6  318.82   17.90
  -4  -5   6  323.59   17.95
  -4   5  -6  341.80   18.69
   4   5   6  314.18   18.67
  -5  -5  -6   23.76    4.24
  -5   5   6   20.01    7.04
   5  -5   6   17.45    7.60
   5   5   6   22.82    7.39
  -5   5  -6   20.08    7.00
   5  -5  -6   24.56    6.44
  -5  -5   6   31.38    7.62
   5   5   6   29.03    4.65
  -6  -5  -6  308.55   14.88
   6  -5   6  297.83   21.57
  -6   5   6  279.82   20.63
   6   5   6  306.43   19.83
  -6   5  -6  303.08   20.25
   6  -5  -6  303.98   18.58
   0   6  -6 2121.40   60.83
   0   6   6 1810.15   61.35
   0  -6   6 1941.44   60.21
   0   6   6 1968.45   55.95
   0  -6  -6 1873.25   55.53
   0   6  -6 1891.21   60.54
   1   6  -6   31.23    5.81
  -1  -6  -6   25.13    5.91
  -1   6   6   27.20    6.05
   1  -6   6   22.67    5.83
  -1   6   6   27.26    4.67
  -1   6   6   26.33    6.09
   1   6  -6   24.19    4.50
   1   6   6   25.89    6.11
  -1  -6   6   25.73    4.78
  -1   6  -6   24.72    5.65
   1  -6  -6   27.57    4.64
  -1   6  -6   23.48    5.45
  -1   6  -6   29.70    6.25
   1   6   6   24.26    2.52
  -1  -6   6   35.13    7.47
  -2   6   6 1093.45   41.16
   2   6  -6 1155.86   35.42
   2   6  -6 1132.55   40.25
  -2  -6  -6 1063.80   40.48
  -2   6   6 1159.99   45.09
  -2   6   6 1162.64   38.99
   2  -6   6 1052.97   41.38
   2   6  -6 1116.56   35.14
  -2   6  -6 1151.99   40.82
   2   6   6 1180.44   41.99
   2  -6  -6 1128.48   38.37
  -2  -6   6 1193.70   40.56
   3  -6   6   20.43    6.17
  -3   6   6   21.78    5.59
   3   6  -6   22.97    2.67
  -3   6   6   19.06    5.96
  -3  -6   6   20.70    5.60
   3   6   6   15.98    5.87
  -3   6  -6   24.06    6.02
   4  -6   6   22.21    7.23
  -4   6   6   15.22    6.45
  -4  -6  -6   20.05    2.85
   4  -6  -6   20.87    6.39
  -4   6  -6   27.90    6.56
   4   6   6   21.36    2.79
  -4  -6   6   20.76    6.51
   4   6   6   24.39    6.73
  -5  -6  -6    2.60    2.39
  -5   6   6   11.15    5.30
   5  -6   6   -0.33    3.94
   5   6   6    0.96    2.33
  -5   6  -6    7.65    5.16
   5   6   6   10.45    6.25
   5  -6  -6    5.67    4.72
  -5  -6   6    3.21    4.00
  -6  -6  -6   -4.30    2.83
   6  -6   6    0.40    5.34
  -6   6   6   -1.29    5.42
   6   6   6    1.30    3.20
  -6  -6   6   -8.44    3.58
   6  -6  -6    6.31    4.82
  -6   6  -6    0.44    5.00
   6   6   6   -4.06    3.57
   0  -7   6    5.60    3.76
   0   7  -6    1.05    2.90
   0   7   6   -0.24    1.72
   0   7   6    0.12    1.87
   0   7   6    3.14    3.55
   0   7  -6    0.59    2.64
   0  -7  -6    1.37    2.00
   0  -7   6    4.23    3.58
   1  -7   6    9.12    4.59
   1   7  -6   13.85    4.16
  -1   7   6   16.21    3.87
  -1   7   6    9.48    4.58
  -1   7  -6   11.50    4.67
  -1  -7   6   15.32    4.94
   1  -7  -6   14.55    3.72
   1   7   6   15.33    5.38
  -1  -7   6   17.38    4.46
   1   7   6   14.34    2.94
  -1   7  -6   11.48    4.56
  -2   7   6  122.80   11.34
   2   7  -6  124.06    8.28
   2  -7   6  119.50   11.80
   2   7  -6  114.75    8.18
  -2   7   6  130.67   10.29
  -2   7  -6  129.27   11.03
   2   7   6  126.89    5.07
   2   7   6  124.26    5.02
  -2  -7   6  124.56   10.79
   2  -7  -6  120.99    9.41
   2   7   6  134.39   11.90
   3   7  -6   28.15    3.98
   3   7  -6   33.19    3.95
  -3   7   6   37.57    7.29
  -3   7   6   28.27    7.47
   3  -7   6   27.42    6.95
  -3   7  -6   23.88    6.46
   3   7   6   23.03    7.15
  -3  -7   6   41.38    7.69
  -4   7   6  288.09   18.49
   4  -7   6  333.33   21.77
  -4   7   6  328.96   20.49
  -4   7  -6  326.20   19.78
   4   7   6  292.78   10.59
   4   7   6  290.32   19.47
   4  -7  -6  323.43   19.80
  -4  -7   6  325.93   19.03
  -5  -7  -6   -1.48    1.86
  -5   7   6   -6.43    3.76
   5  -7   6    2.89    5.63
   5  -7  -6    0.09    4.38
   5   7   6    1.24    2.27
  -5  -7   6    2.60    4.68
  -5   7  -6   -1.75    4.87
   5   7   6   -7.07    4.54
  -6   7   6   92.71   14.39
   6  -7   6  107.69   15.79
  -6  -7  -6  104.99    7.98
   6  -7  -6  125.68   13.21
  -6  -7   6  131.08   13.47
   6   7   6  124.55   13.98
  -6   7  -6   98.51   14.69
   0   8   6  587.77   21.52
   0   8   6  582.07   27.32
   0   8  -6  583.15   25.79
   0   8  -6  549.17   24.95
   0  -8   6  577.21   25.19
   0   8   6  551.75   21.11
   1  -8   6    5.15    4.08
  -1   8   6   -2.15    2.10
  -1   8   6    7.57    5.18
  -1   8  -6   -0.06    3.66
  -1  -8   6    5.36    4.28
   1   8   6   -1.06    3.55
   1   8   6    5.40    2.71
   1   8   6    1.62    2.03
  -1  -8   6    4.44    3.59
   2   8  -6  387.02   17.41
   2   8  -6  408.66   17.97
  -2   8   6  403.34   22.64
   2  -8   6  322.69   20.91
  -2   8   6  390.11   19.48
  -2   8  -6  402.40   21.27
   2   8   6  384.41   13.16
  -2  -8   6  404.02   21.08
   2   8   6  367.13   21.29
   2   8   6  397.49   13.39
   3   8  -6    4.78    2.61
   3  -8   6   -1.21    4.25
  -3   8   6    2.16    3.91
  -3   8   6   -2.98    4.62
   3   8  -6   -0.96    2.57
  -3   8  -6    1.85    4.59
   3   8   6    3.04    1.32
   3   8   6    2.29    1.18
  -3  -8   6   12.69    5.49
   3   8   6    4.11    4.91
   4   8  -6  159.54    6.71
   4  -8   6  147.96   15.06
  -4   8   6  171.02   14.37
  -4   8   6  165.22   15.23
  -4  -8   6  153.10   13.41
   4   8   6  163.71    6.41
  -4   8  -6  171.44   14.76
   4   8   6  168.56   14.81
   4  -8  -6  163.99   14.89
   5  -8   6    8.06    6.05
  -5   8   6   -1.91    4.37
   5   8   6    7.16    5.85
  -5  -8   6    3.28    6.75
  -5   8  -6   10.17    5.76
   0  -9   6   -2.13    3.40
   0   9   6   -0.77    2.36
   0   9   6   -2.31    4.16
   0   9   6   -0.49    2.69
   0   9  -6   -4.74    3.39
  -1   9   6   55.96   10.30
  -1   9   6   67.12    9.25
   1   9  -6   57.39    8.45
   1  -9   6   78.78   11.18
  -1  -9   6   47.91    8.06
   1   9   6   58.51    5.83
   1   9   6   53.27    5.58
  -1   9  -6   55.00    9.26
  -1  -9   6   59.77    9.76
   1   9   6   68.24   11.02
   1  -9  -6   68.90    7.50
   2   9  -6  340.11   17.41
  -2   9   6  346.44   21.92
  -2   9   6  353.62   18.65
   2  -9   6  266.37   19.56
  -2   9  -6  338.73   20.24
   2   9   6  335.09   20.65
   2   9   6  342.10   12.87
   2   9   6  330.63   12.65
  -2  -9   6  337.00   19.69
   3   9  -6   17.96    4.03
   3  -9   6   12.03    5.92
  -3   9   6   17.33    5.73
  -3   9   6   10.12    6.07
   3   9  -6    8.03    4.05
  -3   9  -6    6.00    4.73
  -3  -9   6   12.02    5.88
   3   9   6    4.82    1.72
   3   9   6    8.16    5.83
   4   9  -6   46.66    5.00
   4   9  -6   59.35    5.07
  -4   9   6   51.25   10.15
  -4   9   6   46.04   10.34
   4  -9   6   54.71   11.43
   4   9   6   41.21    8.89
   4   9   6   40.56    2.86
  -4  -9   6   51.35   10.11
  -4   9  -6   56.73   10.58
   5  -9   6    5.24    6.03
  -5   9   6   -9.99    5.71
  -5   9   6   -0.08    5.45
  -5   9  -6   -6.80    4.15
   5  -9  -6    1.23    5.13
   5   9   6    0.23    4.76
  -5  -9   6    5.83    5.84
   0  10  -6  419.23   22.58
   0 -10   6  465.49   23.45
   0  10   6  391.73   24.08
   0  10   6  380.03   18.01
   0  10   6  430.04   19.02
  -1  10   6    0.13    3.73
   1 -10   6    1.53    4.86
  -1  10   6   -2.02    4.50
   1  10  -6    1.87    3.95
  -1 -10   6   -1.68    4.20
  -1  10  -6   -3.80    3.82
   1  10   6    2.57    4.81
   1  10   6    0.15    2.89
   1  10   6   -4.54    2.08
  -1 -10   6   -2.44    3.57
  -2  10   6  156.05   12.52
  -2  10   6  131.98   14.58
   2  10  -6  135.68   11.54
   2  10  -6  167.80   11.89
   2 -10   6  168.24   15.24
   2  10   6  143.91    8.14
   2  10   6  138.61   14.12
   2  10   6  143.22    8.09
  -2 -10   6  145.72   13.31
  -2  10  -6  158.16   13.99
  -3  10   6   15.26    8.18
   3  10  -6   -0.25    3.86
   3 -10   6   11.70    6.24
  -3  10   6    6.70    5.43
  -3  10  -6    4.88    5.04
  -3 -10   6    8.86    5.86
   3  10   6    7.40    2.12
   3  10   6    3.95    5.12
   4 -10   6    0.79    6.23
   4  10  -6   11.41    3.27
  -4  10   6    7.34    5.85
   4  10  -6    5.47    3.73
  -4  10   6   -1.56    6.20
  -4  10  -6   20.00    6.83
   4  10   6    9.99    6.20
  -4 -10   6   16.47    7.19
   0  11   6   -3.80    3.25
   0 -11   6    3.53    4.34
   0  11  -6   -3.14    3.75
   0  11   6    1.30    3.51
   1  11  -6    3.13    3.96
   1 -11   6    9.46    5.45
  -1  11   6    4.87    4.04
  -1  11   6   -3.69    4.33
   1  11  -6    5.00    5.04
   1  11   6    1.31    5.30
   1  11   6   -3.50    2.58
  -1 -11   6    6.74    4.98
   1  11   6    6.20    4.10
   2  11  -6   24.54    6.72
   2 -11   6   17.70    7.35
  -2  11   6   19.71    8.66
  -2  11   6   19.20    6.48
  -2  11  -6   29.56    8.25
   2  11   6   19.65    3.95
  -2 -11   6   19.90    7.45
   2  11   6   17.59    3.65
   3  11  -6   -1.53    3.93
   3 -11   6   -1.30    3.25
  -3  11   6   -5.68    4.66
  -3  11   6   -0.24    5.91
   3  11   6   -3.46    3.35
   3  11   6   -1.81    5.22
  -3 -11   6    8.12    5.62
  -3  11  -6   -3.79    5.30
   3  11   6   -0.76    2.07
   0  12   6   87.68   14.22
   0 -12   6  118.05   12.72
   0  12  -6  119.58   12.83
   0  12   6  113.91   10.32
  -1  12   6   -4.37    3.73
   1 -12   6   -1.75    3.97
   1  12  -6    0.44    4.77
   1  12  -6   -6.25    4.05
  -1  12   6   -6.95    4.95
   1  12   6   -3.42    3.81
   1  12   6   -3.08    5.01
  -1  12  -6   -6.60    4.17
   2  12  -6   27.70    7.54
   2 -12   6   34.42    9.45
   2  12  -6   22.92    6.94
  -2  12   6   35.12    7.61
  -2  12   6   30.97    9.52
  -2  12  -6   18.76    7.89
   2  12   6   32.15    9.80
   2  12   6   30.81    5.20
   0   0  -7    2.24    1.87
   0   0   7    2.79    1.86
   0   0  -7    3.04    2.38
   0   0   7    5.13    2.66
   1   0  -7    2.56    2.30
  -1   0   7    2.24    2.32
   1   0  -7    1.98    2.11
   1   0   7    5.88    3.59
  -1   0  -7    0.91    1.80
   1   0   7    0.39    1.62
  -1   0   7    3.57    2.48
  -1   0  -7    1.64    2.89
  -2   0  -7  854.98   30.63
  -2   0  -7  818.94   26.31
   2   0   7  777.97   30.17
   2   0  -7  800.62   28.82
  -2   0   7  835.28   28.99
  -2   0   7  802.07   25.66
  -2   0   7  847.80   25.77
  -2   0  -7  867.39   26.35
   3   0   7  632.11   22.01
  -3   0  -7  571.53   25.41
  -3   0   7  657.95   20.30
  -3   0   7  632.24   25.16
  -3   0   7  638.47   20.34
   3   0  -7  619.65   25.01
  -3   0  -7  646.00   22.21
   3   0   7  590.13   26.06
   4   0   7  449.94   22.80
  -4   0   7  469.51   22.24
  -4   0   7  453.96   20.05
  -4   0  -7  503.11   19.70
   4   0   7  470.96   19.03
  -4   0   7  485.49   16.42
  -5   0   7  948.23   37.79
   5   0   7  935.89   33.66
  -5   0   7  911.05   29.47
   5   0   7  972.63   39.04
  -5   0   7  927.68   29.20
  -6   0   7   28.89    8.48
  -6   0  -7   27.08    6.46
   6   0   7   22.23    7.21
  -6   0   7   20.45    4.18
  -7   0  -7   77.80   11.34
   7   0   7   75.04   12.61
  -7   0   7   60.28    7.31
  -7   0   7   71.15    5.84
  -7   0   7   93.20   13.93
   0   1  -7 2619.30   77.94
   0  -1  -7 2881.77   79.78
   0   1  -7 2733.90   78.66
   0   1   7 2744.96   76.67
   0   1   7 2765.68   79.57
   0  -1   7 2750.89   78.86
   0  -1   7 2860.09   78.39
  -1   1   7 1850.69   54.24
  -1  -1  -7 1767.62   51.51
   1   1  -7 1843.30   53.08
  -1  -1  -7 1865.68   56.63
   1  -1   7 1857.31   56.50
  -1   1   7 1835.34   54.51
   1   1  -7 1802.30   54.85
   1  -1   7 1842.08   54.18
   1  -1  -7 1848.17   54.33
   1   1   7 1853.65   51.79
  -1  -1   7 1832.11   53.09
  -1   1  -7 1874.22   53.86
  -1   1  -7 1945.26   56.70
  -1  -1   7 1883.50   55.27
   1  -1  -7 1817.07   54.38
   1   1   7 1891.64   56.88
  -2  -1  -7 1063.58   30.90
  -2   1   7 1084.68   34.96
  -2   1   7 1023.18   32.58
   2  -1   7 1043.58   36.71
  -2  -1  -7 1043.72   36.33
   2   1  -7 1037.63   30.18
   2   1  -7 1014.78   34.88
  -2   1   7 1026.96   32.68
  -2  -1  -7 1020.15   30.62
   2  -1  -7 1047.29   34.72
   2   1   7 1013.47   36.26
  -2   1  -7 1050.15   33.22
  -2   1  -7 1084.71   33.10
  -2  -1   7 1019.55   30.25
  -2   1  -7 1041.26   36.25
  -2  -1   7 1033.46   35.02
  -3   1   7  249.85   11.19
  -3  -1  -7  254.71   10.82
  -3  -1  -7  232.28   14.41
   3  -1   7  255.17   12.13
  -3   1   7  247.12   13.89
   3  -1   7  241.19   15.01
  -3   1   7  276.96   11.76
   3   1  -7  266.37   14.33
   3  -1  -7  262.49   14.00
  -3   1  -7  230.72   14.68
  -3   1  -7  245.85   12.26
  -3  -1   7  249.87   14.25
  -3  -1   7  251.02    8.19
   3   1   7  254.67   15.19
   3   1   7  241.91   10.60
  -3  -1   7  250.19    8.12
  -4   1   7    5.49    2.59
  -4   1   7    2.20    2.22
  -4  -1  -7    3.97    2.72
   4  -1   7    3.22    4.35
  -4   1   7    4.78    3.88
   4   1   7    2.37    1.96
  -4  -1   7    5.66    4.02
  -4   1  -7    4.70    3.13
   4   1   7    3.74    4.31
   5  -1   7   -2.41    4.50
  -5   1   7    2.56    2.82
  -5   1   7    6.33    2.97
  -5   1   7    5.17    4.74
  -5  -1  -7    7.95    3.70
  -5  -1   7    1.36    4.02
   5   1   7    1.70    4.73
  -5   1  -7    5.65    4.12
   5   1   7    2.31    3.09
   6  -1   7   -0.14    4.51
  -6   1   7    6.11    3.97
  -6   1   7    3.36    3.13
  -6  -1  -7    1.09    3.83
   6   1   7    5.85    5.15
  -6  -1   7    7.26    5.79
  -6   1  -7    9.86    4.15
   7  -1   7   24.08    7.14
  -7   1   7   27.12    9.06
  -7   1   7   23.51    5.31
  -7  -1  -7   30.68    7.08
  -7   1  -7   23.51    7.59
  -7  -1   7   25.30    7.97
   7   1   7   26.84    9.28
   0   2   7    2.65    2.77
   0  -2  -7    1.15    1.62
   0  -2   7   -4.09    1.80
   0   2  -7   -2.40    1.71
   0   2  -7    1.38    2.60
   0   2   7   -0.08    1.39
   0  -2  -7    0.00    2.31
   0  -2   7    1.21    2.44
   1   2  -7  331.38   12.65
  -1  -2  -7  337.75   10.67
   1  -2   7  353.63   15.96
  -1   2   7  341.80   13.73
  -1   2   7  343.20   14.95
   1   2  -7  360.52   15.13
  -1  -2  -7  322.56   15.62
   1  -2   7  346.74   14.75
   1   2   7  357.63   16.06
  -1   2  -7  307.22   13.99
   1  -2  -7  327.54   14.59
  -1  -2   7  350.51   12.97
  -1  -2   7  323.83   14.71
   1   2   7  334.79   10.71
  -1   2  -7  329.71   15.53
   1  -2  -7  337.52   13.71
   2   2  -7  423.13   12.80
  -2  -2  -7  412.97   12.82
   2  -2   7  391.78   19.03
  -2  -2  -7  415.57   12.83
  -2   2   7  405.08   16.76
   2   2  -7  422.43   18.12
  -2   2   7  397.17   16.68
  -2   2   7  401.13   17.50
  -2  -2  -7  428.42   19.26
  -2   2  -7  426.19   17.25
  -2  -2   7  440.23   18.65
  -2   2  -7  428.66   17.14
   2  -2  -7  429.37   17.66
  -2  -2   7  416.52   12.88
   2   2   7  427.72   19.32
  -2   2  -7  411.05   19.15
  -3  -2  -7  974.25   28.97
   3   2  -7  946.72   34.57
   3  -2   7  998.60   40.41
   3  -2   7  980.86   33.00
  -3   2   7  924.51   32.16
  -3   2   7  949.30   32.11
  -3  -2  -7  969.44   35.84
  -3   2   7  954.28   34.95
  -3  -2   7 1045.09   39.01
  -3   2  -7  905.79   35.76
  -3   2  -7  978.54   33.13
   3   2   7  888.31   32.02
   3  -2  -7  977.00   34.67
   3   2   7  998.50   36.48
  -4  -2  -7  186.12    9.34
   4  -2   7  168.31   13.84
   4  -2   7  186.53   11.35
  -4   2   7  187.90   13.21
  -4   2   7  180.24   10.58
  -4   2   7  177.28   10.60
   4   2   7  181.55    9.26
   4   2   7  177.39   13.46
  -4  -2   7  165.91   12.29
  -5   2   7  466.29   23.82
   5  -2   7  415.20   23.83
  -5   2   7  412.98   18.82
  -5  -2  -7  420.51   18.32
  -5   2   7  449.40   19.31
   5   2   7  446.04   23.85
  -5   2  -7  452.29   21.48
   5   2   7  437.39   18.22
  -5  -2   7  402.00   22.05
  -6  -2  -7  162.62   11.50
   6  -2   7  146.17   14.44
  -6   2   7  148.47   10.93
  -6   2   7  166.54   15.38
  -6   2  -7  154.02   12.92
   6   2   7  154.58   14.37
  -6  -2   7  164.83   14.79
  -7   2   7   81.89   12.86
  -7  -2  -7   62.38    9.77
   7  -2   7   65.17   12.34
  -7   2   7   52.57    8.90
  -7   2  -7   66.22   13.32
  -7  -2   7   68.22   11.74
   0   3  -7  629.37   22.39
   0  -3   7  579.05   22.23
   0   3  -7  610.34   22.82
   0  -3  -7  624.41   23.95
   0  -3   7  608.63   23.16
   0   3   7  614.94   23.82
   0  -3  -7  622.00   19.60
   0   3   7  672.32   19.82
   1  -3   7 1690.65   51.84
   1  -3   7 1629.06   50.76
   1   3  -7 1637.47   50.70
  -1   3   7 1735.53   48.77
  -1   3   7 1595.84   50.84
  -1  -3  -7 1579.76   51.54
  -1   3  -7 1607.79   51.07
  -1  -3   7 1664.20   47.68
   1   3   7 1708.90   52.45
   1  -3  -7 1580.16   48.27
  -1   3  -7 1594.02   50.07
  -1  -3   7 1619.02   50.73
   1  -3  -7 1569.20   50.58
  -1   3  -7 1578.71   49.95
  -2   3   7  829.34   29.78
  -2  -3  -7  877.42   32.26
   2  -3   7  886.00   32.48
  -2   3   7  853.65   30.35
   2   3  -7  841.64   24.26
  -2   3   7  866.64   30.32
  -2   3  -7  823.37   29.95
  -2  -3   7  870.77   31.25
  -2   3  -7  880.86   34.80
   2   3   7  844.69   32.00
  -2   3  -7  837.66   29.94
   2  -3  -7  884.60   30.01
  -2  -3   7  833.51   24.32
  -3   3   7  365.17   16.55
  -3   3   7  345.84   16.41
   3  -3   7  307.81   17.88
  -3   3   7  360.86   20.13
  -3  -3  -7  342.38   11.26
   3  -3   7  333.75   16.11
  -3  -3  -7  319.01   17.42
   3   3  -7  345.97   17.35
  -3   3  -7  347.22   18.42
  -3  -3   7  344.28   17.46
   3  -3  -7  339.45   16.94
  -3   3  -7  332.41   16.59
  -3   3  -7  340.81   16.43
  -4  -3  -7  167.33    8.28
   4  -3   7  176.85   14.28
  -4   3   7  177.18   11.53
  -4   3   7  155.23   12.41
  -4   3   7  165.85   11.32
  -4  -3   7  168.84   12.70
   4   3   7  155.24   13.11
  -4   3  -7  141.11   11.21
   4   3   7  175.16    8.46
  -5   3   7   15.14    5.05
   5  -3   7   11.99    6.23
  -5  -3  -7    6.73    3.07
  -5   3   7   12.61    5.51
  -5   3   7    9.46    4.52
  -5  -3   7   20.70    6.24
  -5   3  -7   16.08    5.77
   5   3   7   15.48    6.12
   5   3   7    7.96    3.49
   6  -3   7   91.88   13.44
  -6   3   7   63.26   11.06
  -6   3   7   85.21    9.54
  -6   3  -7   79.02   11.20
   6   3   7   69.31    7.84
   6   3   7   75.06   11.71
  -7   3   7   34.03    9.36
   7  -3   7   38.41    9.81
  -7  -3  -7   27.23    6.44
  -7   3   7   23.94    6.52
  -7  -3   7   22.79    7.82
  -7   3  -7   38.84    9.30
   0   4   7   -2.00    2.68
   0  -4  -7    2.95    1.51
   0  -4   7    4.08    3.21
   0   4  -7    1.95    2.60
   0  -4   7   -0.47    2.16
   0  -4  -7    0.63    2.67
   0   4   7    1.55    1.43
   0   4  -7    1.43    2.25
  -1   4   7    5.01    3.20
  -1  -4  -7    0.95    2.95
   1   4  -7    2.20    2.33
   1  -4   7    2.05    2.96
  -1   4   7    3.39    2.23
   1   4  -7    2.72    2.08
  -1   4   7    7.36    3.41
   1   4   7    2.80    2.82
  -1  -4   7    4.42    2.31
   1  -4  -7    1.49    2.01
  -1  -4   7    2.44    2.88
  -1   4  -7    5.96    3.31
  -1   4  -7    7.68    3.10
  -1   4  -7    0.82    2.80
  -2   4   7  123.19    9.41
  -2   4   7  122.89    9.35
   2   4  -7  119.99    5.51
   2  -4   7  114.15   10.29
  -2  -4  -7  109.64    9.50
  -2   4   7  106.83    8.32
   2   4  -7  121.54    9.14
   2  -4  -7  130.29    8.94
   2   4   7  119.20   10.13
  -2  -4   7  108.87    9.21
  -2   4  -7  118.32    8.94
  -2  -4   7  115.14    5.41
  -2   4  -7  110.15    8.91
  -2   4  -7  117.33   10.13
  -3   4   7  579.81   24.36
  -3  -4  -7  574.70   25.33
  -3   4   7  592.67   24.71
   3  -4   7  626.57   27.43
  -3  -4   7  560.85   24.55
  -3   4  -7  582.08   24.53
  -3   4  -7  561.57   24.11
   3  -4  -7  549.19   23.79
   3   4   7  565.97   25.78
  -4   4   7  506.81   24.21
  -4  -4  -7  501.08   16.49
   4  -4   7  481.57   25.52
  -4   4   7  480.24   22.46
   4   4   7  494.16   24.58
  -4  -4   7  476.53   23.26
  -4   4  -7  500.31   23.23
  -5   4   7  348.97   18.90
  -5  -4  -7  365.18   14.66
   5  -4   7  359.83   22.62
  -5   4   7  346.34   20.98
   5  -4  -7  330.79   18.24
  -5  -4   7  334.08   20.19
   5   4   7  371.85   21.58
  -5   4  -7  354.68   20.13
   5   4   7  351.84   14.58
   6  -4   7    5.32    6.07
  -6  -4  -7    4.61    3.33
  -6   4   7   11.02    5.63
  -6   4   7    7.69    5.42
  -6   4  -7   11.27    5.87
   6   4   7    8.93    5.92
  -6  -4   7    4.76    5.32
   6  -4  -7   11.62    5.04
   0   5  -7 1067.81   36.56
   0   5   7 1126.15   39.26
   0  -5   7 1068.51   36.79
   0   5   7 1085.40   32.77
   0  -5  -7 1099.86   38.93
   0  -5   7 1098.20   38.52
   0  -5  -7 1116.17   32.92
   0   5  -7 1082.51   37.63
  -1   5   7 1808.06   53.80
  -1   5   7 1846.11   58.18
   1  -5   7 1804.42   57.77
  -1   5   7 1827.36   58.08
  -1  -5  -7 1740.16   57.87
   1   5  -7 1790.10   56.80
   1   5  -7 1790.72   53.59
  -1   5  -7 1851.65   57.21
   1  -5  -7 1800.49   53.47
   1   5   7 1763.31   58.22
  -1  -5   7 1830.39   53.85
  -1   5  -7 1752.09   57.14
  -1  -5   7 1724.61   56.80
  -1   5  -7 1807.95   56.98
   2   5  -7  281.57   15.57
  -2   5   7  314.52   16.76
  -2  -5  -7  310.88   17.04
   2   5  -7  309.62   11.71
  -2   5   7  319.25   15.32
   2  -5   7  339.75   18.28
  -2   5   7  282.42   16.19
  -2   5  -7  282.88   16.77
  -2  -5   7  311.56   16.38
  -2   5  -7  294.80   15.96
   2   5   7  317.85   17.62
   2  -5  -7  311.76   14.98
  -2   5  -7  296.07   16.28
  -2  -5   7  304.80   11.70
  -3   5   7  222.15   14.08
   3  -5   7  202.37   15.27
  -3   5   7  197.72   13.50
  -3   5   7  197.64   13.03
   3   5   7  202.35   14.43
  -3  -5   7  212.28   13.78
  -3   5  -7  208.71   13.66
  -4   5   7   26.09    6.42
   4  -5   7   34.20    8.31
  -4   5   7   32.64    7.69
   4   5   7   37.10    2.88
  -4   5  -7   40.01    7.92
   4   5   7   39.02    8.37
  -4  -5   7   40.57    7.96
  -5  -5  -7   17.04    3.09
  -5   5   7   10.86    5.43
  -5   5   7    7.85    5.76
   5  -5   7    8.24    6.73
  -5  -5   7    9.55    5.39
   5  -5  -7   15.05    5.45
  -5   5  -7    8.94    5.92
   5   5   7    9.87    2.94
   5   5   7   -1.16    6.21
  -6   5   7    7.43    5.44
  -6  -5  -7    9.19    3.90
   6  -5   7   22.62    8.20
  -6   5   7   21.40    7.20
   6   5   7   11.98    4.02
  -6   5  -7   15.85    6.54
  -6  -5   7   17.01    6.91
   6  -5  -7   20.51    5.81
   6   5   7    9.78    6.63
   0  -6   7   -1.60    2.97
   0   6   7    2.11    1.79
   0   6   7   -2.49    1.70
   0   6   7    3.93    3.47
   0   6  -7    0.19    2.28
   0  -6   7    3.67    3.22
   0   6  -7    2.33    2.73
   0  -6  -7    1.08    1.87
   1   6  -7    1.60    2.58
   1   6  -7    2.14    2.35
   1  -6   7    0.24    3.12
  -1  -6  -7    1.70    2.53
  -1   6   7   -1.13    2.15
  -1   6   7   -0.12    1.80
  -1   6   7    0.12    1.95
  -1   6  -7    1.22    3.18
  -1  -6   7    1.17    2.35
  -1  -6   7   -0.87    2.80
   1   6   7    4.41    4.08
   1  -6  -7   -1.33    2.31
   1   6   7    1.23    1.07
   1   6   7    0.97    1.02
  -1   6  -7   -4.96    2.61
   2   6  -7   71.33    5.73
   2  -6   7   90.59   10.06
  -2   6   7   89.61    9.62
  -2   6   7   90.34    8.17
  -2  -6   7   86.40    5.96
   2   6   7   89.67    9.95
   2  -6  -7   77.59    7.21
  -2   6  -7   78.62   10.10
  -2  -6   7   97.91    9.40
   3   6  -7  202.57    7.11
  -3   6   7  212.85   14.88
   3   6  -7  196.82    7.04
   3  -6   7  217.33   16.30
  -3   6   7  208.34   14.02
  -3   6  -7  192.75   14.03
   3   6   7  204.44   15.04
  -3  -6   7  196.17   13.99
  -4   6   7  164.48   13.61
  -4   6   7  126.02   11.99
   4  -6   7  122.45   13.43
   4   6   7  162.30   14.06
  -4  -6   7  149.65   12.77
  -4   6  -7  149.18   12.74
  -5   6   7  310.39   19.81
  -5  -6  -7  297.52   11.11
  -5   6   7  303.75   20.62
  -5  -6   7  320.90   20.07
  -5   6  -7  261.29   18.70
   5   6   7  312.66   20.93
   6  -6   7   12.82    7.93
  -6   6   7   20.89    7.36
  -6  -6  -7   21.56    4.15
  -6   6   7   20.39    7.24
   6   6   7    6.22    6.31
   6   6   7   24.55    4.52
  -6   6  -7   16.93    7.26
  -6  -6   7   18.30    7.72
   0   7   7  866.27   28.87
   0   7   7  872.10   35.75
   0  -7  -7  890.90   28.86
   0  -7   7  929.30   35.38
   0   7  -7  863.56   33.32
   0  -7   7  936.78   33.89
   1  -7   7  793.13   32.68
   1   7  -7  793.33   29.64
  -1   7   7  798.50   33.54
  -1   7   7  791.08   28.70
   1   7   7  813.53   24.49
   1  -7  -7  816.16   28.58
  -1   7  -7  832.89   32.43
  -1  -7   7  882.85   33.44
  -1  -7   7  790.76   29.40
   1   7   7  804.48   24.42
   1   7   7  821.28   33.81
  -2   7   7  110.97   11.50
  -2   7   7  145.33   10.55
   2   7  -7  123.07    8.29
   2  -7   7  152.85   13.12
  -2  -7   7  124.96    8.09
  -2   7  -7  112.02   10.71
  -2  -7   7  123.37   11.12
   2  -7  -7  110.33    9.10
   2   7   7  126.91   12.06
   3   7  -7  213.54    9.27
   3  -7   7  224.78   16.93
  -3   7   7  211.90   16.15
  -3   7   7  227.81   14.72
   3   7   7  205.44   15.88
  -3  -7   7  202.82   14.63
  -3   7  -7  200.73   14.87
   4  -7   7    2.53    5.03
  -4   7   7   -2.53    3.89
  -4   7   7   -8.78    3.79
   4   7   7    9.83    5.83
  -4   7  -7   -0.20    3.76
  -4  -7   7   -3.07    3.58
  -5   7   7   40.55    9.28
   5  -7   7   31.08    8.75
  -5   7   7   45.26    9.40
  -5   7  -7   35.85    8.14
   5   7   7   36.88    9.47
  -5  -7   7   33.41    8.54
  -6   7   7   16.75    7.88
   6  -7   7   -5.18    5.87
  -6  -7  -7   -6.95    2.46
  -6   7   7   -0.48    5.13
  -6  -7   7  -11.81    4.61
   6   7   7    4.82    5.56
  -6   7  -7   -1.21    5.29
   0   8   7    3.65    2.42
   0   8   7    5.80    2.63
   0  -8   7    1.88    3.39
   0   8  -7    0.90    3.10
   0   8   7    1.54    2.82
   0  -8   7    1.70    2.99
   0   8  -7   -1.00    2.93
  -1   8   7    5.02    4.50
  -1   8   7    1.97    2.90
   1  -8   7   -0.13    3.67
   1   8  -7    7.87    3.70
  -1   8  -7    5.52    3.92
   1  -8  -7    4.46    2.99
  -1  -8   7    2.34    3.97
  -1  -8   7    1.24    2.92
   1   8   7    3.99    4.52
   1   8   7    2.88    1.80
   1   8   7    0.31    1.82
  -2   8   7  164.16   14.30
   2   8  -7  159.33   10.60
   2  -8   7  165.84   14.50
   2   8  -7  163.21   10.43
  -2   8   7  159.25   11.60
   2   8   7  165.02   14.30
  -2  -8   7  180.88   13.84
  -2   8  -7  139.88   12.55
  -3   8   7  128.81   13.73
   3   8  -7  125.58    8.01
   3  -8   7  149.65   14.62
   3   8  -7  137.74    8.42
  -3   8   7  146.05   12.34
   3   8   7  138.75   13.54
  -3  -8   7  144.45   13.04
  -3   8  -7  138.73   12.91
   4  -8   7   30.89    9.65
  -4   8   7   32.93    8.10
  -4   8   7   28.81    8.81
  -4  -8   7   35.22    7.98
   4   8   7   32.28    8.29
  -5   8   7   58.31   11.32
  -5   8   7   73.61   11.75
   5  -8   7   69.62   13.37
  -5   8  -7   57.83   11.41
   5   8   7   54.78   10.90
  -5  -8   7   87.68   12.83
   0   9  -7   11.24    5.20
   0   9   7   13.74    3.78
   0   9   7    0.45    5.04
   0  -9   7    9.71    5.04
   0   9   7   14.55    3.76
   1   9  -7  285.80   16.15
  -1   9   7  273.65   19.29
   1  -9   7  279.19   18.30
  -1   9  -7  293.19   18.22
   1   9   7  283.69   18.86
  -1  -9   7  317.03   19.30
   1   9   7  262.89   11.99
  -1  -9   7  295.90   16.58
   1  -9  -7  302.95   15.31
   1   9   7  283.05   12.24
   2  -9   7  157.45   15.09
   2   9  -7  175.64   11.99
  -2   9   7  193.02   16.44
  -2   9   7  217.07   14.12
   2   9   7  174.22    7.04
  -2   9  -7  166.27   14.71
   2   9   7  204.70   16.12
  -2  -9   7  188.02   14.78
   3   9  -7  173.63   10.44
  -3   9   7  187.16   16.60
  -3   9   7  195.98   14.84
   3   9  -7  170.08   10.74
   3  -9   7  172.11   16.25
  -3   9  -7  192.75   16.12
   3   9   7  185.45   15.82
  -3  -9   7  205.24   16.03
   4  -9   7   11.14    6.82
  -4   9   7    5.00    6.13
   4   9  -7    8.49    2.10
  -4  -9   7    3.17    5.29
   4   9   7   10.55    6.26
  -4   9  -7   -2.67    4.33
  -5   9   7   -6.96    5.13
   5  -9   7   -1.37    6.06
  -5   9   7   -6.90    5.06
  -5  -9   7   -4.24    4.54
   5   9   7  -12.44    5.75
  -5   9  -7   12.18    6.42
   0  10   7    5.34    4.36
   0  10  -7   -1.98    3.72
   0  10   7    5.52    3.62
   0 -10   7   -4.72    3.46
  -1  10   7   17.50    4.96
  -1  10   7   22.03    7.00
   1  10  -7   16.36    5.98
   1 -10   7   11.82    6.04
   1  10   7   19.91    7.43
  -1 -10   7    7.87    4.59
   1  10   7    7.02    3.30
  -1 -10   7   23.51    7.54
   1  10   7    5.22    3.28
  -1  10  -7   18.44    6.72
   2 -10   7   -0.81    4.65
   2  10  -7    3.08    3.83
   2  10  -7    4.37    3.73
  -2  10   7    7.50    4.77
   2  10   7    0.58    4.42
  -2 -10   7    3.08    5.48
   2  10   7    4.15    1.92
  -3  10   7   36.21    9.51
   3  10  -7   33.08    6.07
  -3  10   7   51.36    9.42
   3  10  -7   28.70    6.00
   3 -10   7   22.28    7.45
  -3 -10   7   25.05    8.41
  -3  10  -7   34.02    8.82
   3  10   7   38.96    9.35
  -4  10   7    6.60    7.31
   4  10  -7   20.82    3.79
   4  10  -7   22.33    3.90
  -4  10   7   35.50    8.61
   4 -10   7   23.04    8.91
  -4  10  -7   15.00    6.39
  -4 -10   7   30.67    8.32
   4  10   7   15.61    7.73
   0  11   7   82.95   13.48
   0 -11   7   62.91   10.43
   0  11   7   62.11    8.14
  -1  11   7   87.40   13.42
   1 -11   7   85.48   13.07
  -1  11   7  107.18    9.89
   1  11   7   88.35    7.40
  -1  11  -7   89.26   12.77
   1  11   7   78.34   12.33
  -1 -11   7  106.34   11.37
   1  11   7   89.19    7.47
   2  11  -7   32.93    6.66
   2 -11   7   33.67    9.27
  -2  11   7   25.06    7.50
  -2  11   7   24.63    6.54
   2  11   7   18.05    7.50
  -2  11  -7   26.80    8.23
  -2 -11   7   25.00    7.93
   2  11   7   16.64    3.25
   2  11   7   22.38    3.61
  -3  11   7   19.57    8.56
   3 -11   7   31.78    9.76
  -3  11   7   39.63    8.99
   3  11  -7   23.94    5.72
   3  11  -7   24.36   10.05
   3  11   7   20.28    7.39
  -3 -11   7   13.27    7.25
  -3  11  -7   13.66    6.53
   0  12   7    2.06    6.01
   0  12   7   -2.30    3.33
   0  12  -7   -5.35    3.87
   0 -12   7   -1.76    5.11
  -1  12   7    8.02    4.57
   1 -12   7    4.81    5.76
   1  12  -7   -2.97    4.32
   1  12  -7    2.30    5.02
  -1  12   7    0.14    5.96
   1  12   7    4.68    5.92
  -1  12  -7   14.50    6.20
   1  12   7   -3.77    3.15
   2 -12   7   -0.89    5.20
  -2  12   7    5.09    5.26
   2  12  -7   -4.60    4.66
   2  12  -7    9.10    5.56
  -2  12   7   -5.19    4.95
  -2  12  -7   -0.27    4.96
   2  12   7   -1.99    2.54
   2  12   7   -3.01    6.15
   0   0   8 1204.61   39.11
   0   0  -8 1208.52   39.01
   0   0   8 1237.20   37.51
   0   0  -8 1246.59   37.47
  -1   0  -8 6326.38  174.48
  -1   0   8 6264.87  171.48
   2   0  -8   95.81    7.80
  -2   0   8  102.71    6.27
   2   0   8   96.93    8.61
  -2   0  -8   95.17    6.11
  -2   0  -8   98.93    8.84
  -2   0   8  103.32    7.97
  -2   0  -8  101.58    6.38
   2   0  -8   96.28    6.13
   3   0  -8    7.00    3.23
  -3   0  -8    3.02    2.38
  -3   0   8    2.28    1.79
  -3   0  -8   -2.38    2.96
  -3   0   8    2.35    2.03
  -3   0  -8    6.08    2.63
   3   0   8    0.59    3.85
  -3   0   8    3.24    3.52
  -4   0   8    0.60    3.32
   4   0   8    2.16    4.27
  -4   0   8   -1.58    1.64
   4   0   8    4.83    2.61
  -4   0  -8    4.74    2.88
  -4   0   8    2.19    2.16
   5   0   8    4.68    5.29
  -5   0   8    5.08    4.77
  -5   0  -8    7.44    4.55
   5   0   8    5.59    3.49
  -5   0   8    4.68    2.24
  -6   0   8   -0.55    1.85
  -6   0  -8    2.00    4.18
  -6   0   8   10.46    4.52
   6   0   8   -2.10    4.70
  -7   0  -8    9.26    5.70
  -7   0   8   -3.41    4.51
   7   0   8   17.02    7.05
   0   1  -8   -0.98    1.58
   0  -1   8   -2.52    1.72
   0   1   8   -0.28    2.34
   0  -1   8    3.03    2.54
   0  -1  -8   -2.29    1.55
   0   1   8   -0.90    1.57
   0   1  -8    0.84    2.22
   0  -1  -8    0.62    2.17
   1  -1   8  858.16   30.22
  -1   1   8  816.08   28.25
   1   1  -8  834.12   26.93
   1   1  -8  847.08   28.69
  -1  -1  -8  800.58   25.35
   1  -1   8  844.53   27.84
  -1   1   8  827.24   27.80
  -1  -1  -8  844.69   30.28
   1  -1  -8  817.24   28.05
  -1  -1   8  840.85   28.75
  -1   1  -8  802.73   29.65
   1   1   8  846.83   25.70
   1  -1  -8  867.01   28.08
  -1  -1   8  850.45   27.21
  -1   1  -8  821.35   27.36
   1   1   8  849.02   30.53
   2   1  -8  251.32   10.01
   2  -1   8  271.43   15.09
   2   1  -8  259.09   13.51
  -2  -1  -8  245.62    9.94
  -2   1   8  262.05   11.84
  -2   1   8  257.30   11.67
  -2   1   8  254.70   13.29
  -2  -1  -8  243.78   14.32
  -2  -1  -8  256.96   10.17
  -2   1  -8  255.57   11.78
  -2   1  -8  268.79   14.82
   2   1   8  276.64   15.29
  -2  -1   8  267.86   13.68
  -2   1  -8  265.13   12.07
   2  -1  -8  249.43   13.00
  -2  -1   8  251.94   10.07
  -3  -1  -8  838.65   26.94
  -3  -1  -8  823.36   26.72
   3   1  -8  831.22   31.63
  -3   1   8  896.02   31.96
  -3   1   8  811.82   27.60
  -3  -1  -8  790.25   32.32
   3  -1   8  893.15   33.99
  -3   1   8  877.59   28.08
  -3  -1   8  820.70   31.38
  -3  -1   8  823.35   24.12
  -3   1  -8  790.45   32.52
  -3   1  -8  878.37   29.47
   3   1   8  818.52   32.94
   3  -1  -8  865.49   31.62
  -3  -1   8  829.50   24.23
  -3   1  -8  791.24   28.45
  -4   1   8   55.53    5.38
  -4  -1  -8   48.47    5.43
   4  -1   8   53.22    8.05
  -4   1   8   63.13    5.70
   4  -1   8   74.77   10.73
  -4   1   8   51.85    8.46
   4   1   8   63.10    9.94
  -4   1  -8   61.53    6.58
   4   1   8   63.10    5.56
  -4  -1   8   64.79    9.32
  -5   1   8  461.16   23.86
   5  -1   8  491.47   25.98
  -5   1   8  450.60   17.98
  -5   1   8  453.00   18.27
  -5  -1  -8  428.69   19.32
  -5  -1   8  459.18   23.72
  -5   1  -8  454.64   21.29
   5   1   8  480.46   25.12
  -6  -1  -8   77.14    8.65
  -6   1   8   66.22    6.92
  -6   1   8   71.17   11.33
  -6   1   8   71.15    6.67
   6  -1   8   90.80   13.25
  -6  -1   8   63.76   10.51
   6   1   8   79.38   12.31
  -6   1  -8   80.82   10.47
  -7   1   8   68.79    7.36
  -7  -1  -8   94.84   10.32
  -7   1   8   67.63   11.87
   7  -1   8   90.83   14.35
   7   1   8   76.81   12.30
  -7  -1   8   78.66   12.28
  -7   1  -8   75.65   11.34
   0   2   8    8.91    3.51
   0  -2   8   14.21    3.82
   0   2  -8   15.59    3.98
   0   2   8    9.19    2.43
   0   2  -8    8.86    3.28
   0  -2   8   11.48    3.59
   0  -2  -8    5.59    3.19
   0  -2  -8    9.79    2.55
  -1  -2  -8 1860.72   58.50
  -1   2   8 1916.24   57.16
   1  -2   8 1921.10   58.46
   1  -2   8 1823.61   56.46
   1   2  -8 1873.97   54.35
   1   2  -8 1853.32   56.95
  -1   2   8 1849.58   55.29
  -1  -2  -8 1820.58   51.78
   1  -2  -8 1907.08   55.50
  -1  -2   8 1908.32   54.63
   1  -2  -8 1887.38   56.98
   1   2   8 1879.19   51.93
  -1   2  -8 1910.84   56.18
   1   2   8 1816.98   58.53
  -1  -2   8 1896.92   57.34
  -1   2  -8 1880.71   58.02
  -2  -2  -8  362.82   11.80
   2   2  -8  374.20   19.58
   2   2  -8  397.90   12.58
  -2  -2  -8  369.73   20.45
  -2  -2  -8  360.17   11.76
  -2   2   8  363.47   16.46
  -2   2   8  378.66   16.19
   2  -2   8  382.41   18.81
  -2   2   8  389.75   16.20
  -2   2  -8  348.19   15.80
   2   2   8  366.36   18.50
  -2  -2   8  349.01   12.42
  -2  -2   8  384.14   17.47
   2  -2  -8  352.93   16.19
  -2   2  -8  365.08   15.94
  -3  -2  -8  766.59   24.19
   3   2  -8  795.45   32.73
  -3   2   8  778.84   30.10
  -3   2   8  784.29   27.88
  -3   2   8  800.15   27.86
  -3  -2  -8  739.71   31.16
   3  -2   8  781.01   32.29
  -3  -2  -8  772.13   24.17
  -3   2  -8  813.94   28.68
   3   2   8  788.28   32.10
  -3  -2   8  820.90   30.98
  -3   2  -8  766.26   28.53
  -3   2  -8  846.30   35.72
   3  -2  -8  765.68   29.92
  -4  -2  -8   89.13    6.15
   4  -2   8   82.69   11.60
  -4   2   8   76.06    7.07
   4  -2   8   86.34    7.88
  -4   2   8  110.64    8.27
  -4   2   8   86.30    9.39
   4   2   8   74.78    6.00
  -4   2  -8   75.47    7.66
   4   2   8   61.82   10.13
  -4  -2   8   87.21    9.47
  -5  -2  -8    0.73    2.94
  -5   2   8    5.99    3.66
   5  -2   8    7.80    5.48
  -5   2   8    1.33    3.14
  -5   2   8    4.13    4.68
   5   2   8   10.35    5.78
  -5  -2   8    5.97    4.98
   5   2   8    4.72    3.02
  -5   2  -8    1.86    3.90
  -6   2   8   -2.66    6.25
  -6   2   8    2.34    3.50
  -6  -2  -8    3.78    3.40
  -6   2   8   -4.75    3.74
   6  -2   8    9.28    6.05
   6   2   8    2.50    5.00
   6   2   8   -5.45    3.42
  -6   2  -8    4.74    4.41
  -6  -2   8   -1.28    4.67
  -7   2   8   29.74    8.40
  -7   2   8   25.79    8.10
  -7  -2  -8   28.04    6.47
   7  -2   8   33.49    9.29
   7   2   8   26.39    8.20
  -7   2  -8   19.86    7.79
  -7  -2   8   23.70    7.39
   0  -3   8    2.77    2.59
   0   3  -8   -1.75    1.77
   0   3   8    0.33    1.50
   0  -3  -8    1.72    2.03
   0  -3   8    2.63    2.73
   0   3   8    0.77    2.93
   0   3  -8   -0.39    2.17
   1  -3   8  502.93   21.18
  -1  -3  -8  529.15   22.50
   1   3  -8  498.74   21.09
   1   3  -8  535.37   18.86
  -1  -3  -8  506.56   15.15
   1  -3   8  567.41   22.79
  -1   3   8  521.77   21.58
  -1   3   8  550.11   19.62
   1   3   8  533.94   22.67
  -1  -3   8  525.81   21.51
  -1  -3   8  598.46   19.47
   1   3   8  525.05   15.21
   1  -3  -8  525.40   19.43
   1  -3  -8  534.58   21.64
  -1   3  -8  502.89   21.63
  -1   3  -8  519.85   20.74
   2   3  -8  126.51    5.57
  -2   3   8  126.76    9.14
  -2   3   8  133.90    9.42
  -2  -3  -8  146.29   10.89
  -2   3   8  136.92    9.27
   2  -3   8  129.34   10.78
   2   3  -8  115.65    9.09
  -2  -3   8  121.71    5.60
  -2   3  -8  125.70    9.09
  -2  -3   8  122.55    9.51
   2  -3  -8  120.71    8.82
   2   3   8  119.00   10.46
  -2   3  -8  128.86   10.50
  -2   3  -8  126.83    9.04
  -3  -3  -8  922.02   25.95
  -3   3   8  923.62   34.04
  -3  -3  -8  944.25   38.69
  -3   3   8  907.21   32.63
  -3   3   8  931.79   33.05
   3  -3   8  854.82   35.73
  -3  -3  -8  921.69   25.97
  -3   3  -8  927.74   33.26
   3  -3  -8  947.72   34.17
  -3   3  -8  859.28   32.86
   3   3   8  939.75   36.19
  -3  -3   8  943.35   34.85
  -4   3   8   33.67    6.55
   4  -3   8   36.27    8.26
  -4   3   8   33.97    6.07
  -4  -3  -8   32.44    3.91
  -4   3   8   30.91    6.81
   4   3   8   32.43    7.87
  -4  -3   8   26.76    6.75
   4   3   8   32.87    3.63
  -4   3  -8   25.01    5.77
  -5   3   8  326.92   20.07
  -5   3   8  337.81   17.32
   5  -3   8  357.94   22.33
  -5  -3  -8  331.78   14.29
  -5   3   8  327.04   17.16
  -5  -3   8  324.66   19.84
  -5   3  -8  299.41   18.13
   5   3   8  304.52   13.81
   5   3   8  343.08   21.41
   6  -3   8   86.24   13.69
  -6   3   8   64.52   10.73
  -6   3   8   73.06    8.80
  -6   3   8   82.62   12.47
  -6  -3  -8   96.53    8.56
   6   3   8  100.86    8.49
  -6   3  -8   99.83   10.93
   6   3   8   91.86   12.89
  -6  -3   8  122.55   12.59
   0  -4   8  155.96   10.66
   0   4  -8  161.50    9.91
   0   4   8  154.61    7.26
   0  -4   8  150.59    9.89
   0   4   8  162.13   11.01
   1   4  -8 1524.91   50.07
  -1   4   8 1603.32   50.73
   1  -4   8 1491.00   50.27
  -1   4   8 1519.73   50.73
   1  -4   8 1538.34   50.93
  -1  -4  -8 1574.07   51.61
   1   4  -8 1540.52   46.76
  -1   4   8 1582.42   47.26
   1  -4  -8 1576.56   47.19
  -1  -4   8 1580.28   47.06
  -1   4  -8 1625.51   50.26
   1  -4  -8 1518.07   50.59
   1   4   8 1560.35   51.90
  -1  -4   8 1549.69   50.26
  -1   4  -8 1569.09   50.66
   2  -4   8  253.78   16.38
   2   4  -8  315.02   16.49
  -2   4   8  337.02   15.75
  -2   4   8  339.93   16.80
   2   4  -8  324.74   11.46
  -2  -4  -8  315.32   17.11
   2   4   8  346.53   18.23
  -2   4  -8  334.32   17.81
  -2   4  -8  312.77   16.17
  -2   4  -8  327.43   16.27
  -2  -4   8  331.23   16.90
   2  -4  -8  331.55   15.53
   3  -4   8   90.47    9.94
  -3   4   8   97.38    9.16
  -3   4   8   91.73    8.63
  -3   4   8   96.63    8.95
  -3   4  -8  107.54    9.70
  -3  -4   8   93.56    9.36
   3   4   8   94.26   10.52
   4  -4   8  152.90   14.30
  -4   4   8  161.20   12.22
  -4   4   8  163.33   12.55
  -4   4   8  168.30   13.35
  -4  -4   8  155.70   12.79
  -4   4  -8  162.79   12.29
   4   4   8  181.70   14.56
   5  -4   8    2.72    5.19
  -5  -4  -8    9.17    2.77
  -5   4   8    2.32    3.87
  -5   4   8    2.68    4.23
  -5   4  -8    3.29    4.55
  -5  -4   8   -7.37    3.45
   5   4   8    5.76    2.63
   5   4   8   10.55    5.97
   6  -4   8   -0.85    5.00
  -6  -4  -8    4.27    3.28
  -6   4   8    0.99    4.63
  -6   4   8    5.39    5.23
  -6  -4   8    3.99    5.00
   6   4   8    5.09    5.42
  -6   4  -8    1.38    5.00
   6   4   8    2.80    3.09
   0  -5  -8    4.52    1.88
   0   5  -8   -2.27    2.15
   0   5   8    1.64    1.65
   0  -5   8   -1.86    2.72
   0   5  -8    2.55    2.96
   0  -5  -8    4.07    3.10
  -1  -5  -8   63.56    8.86
  -1   5   8   78.26    8.02
   1   5  -8   63.72    5.83
   1  -5   8   66.55    8.98
   1   5  -8   72.60    7.23
  -1   5   8   63.86    5.95
  -1   5  -8   64.81    7.55
  -1  -5   8   65.48    5.96
  -1  -5   8   65.39    8.56
   1   5   8   70.89    9.66
  -1   5  -8   66.14    7.51
  -1   5  -8   62.50    7.14
   1  -5  -8   74.44    6.10
   2   5  -8   36.19    4.24
  -2   5   8   37.98    6.25
  -2   5   8   37.68    6.97
  -2   5   8   43.65    7.60
   2  -5   8   50.08    8.39
  -2  -5   8   41.80    7.35
   2   5   8   51.15    8.44
  -2   5  -8   43.35    7.24
  -2  -5   8   48.55    4.13
  -3   5   8  521.17   22.95
   3  -5   8  472.60   24.86
  -3   5   8  532.59   23.69
  -3   5   8  472.27   25.76
   3   5   8  498.13   24.57
  -3   5  -8  448.50   22.23
  -3  -5   8  452.07   22.65
  -4   5   8   23.54    7.02
   4  -5   8   26.03    7.80
  -4   5   8   34.38    7.29
   4   5   8   23.30    7.62
  -4  -5   8   29.77    7.37
  -4   5  -8   28.41    6.72
   5  -5   8  353.72   23.25
  -5  -5  -8  338.09   12.27
  -5   5   8  331.48   21.12
  -5   5   8  348.57   20.34
  -5  -5   8  361.45   21.12
   5   5   8  359.02   22.50
  -5   5  -8  349.21   20.77
  -6   5   8   18.71    6.53
   6  -5   8   17.20    7.63
  -6  -5  -8   15.69    3.89
  -6   5   8   27.45    8.13
  -6   5  -8   18.44    7.08
  -6  -5   8   21.40    7.97
   6   5   8   25.70    7.94
   6   5   8   11.87    3.90
   0   6   8  411.11   15.28
   0   6  -8  391.07   18.80
   0   6   8  421.91   21.35
   0  -6   8  453.09   19.85
   0  -6  -8  415.36   15.20
   0  -6   8  417.04   20.49
   1   6  -8  785.41   27.88
  -1   6   8  768.09   31.91
  -1   6   8  793.41   27.47
   1  -6   8  806.84   32.03
  -1  -6   8  815.77   28.28
   1   6   8  746.40   31.96
   1  -6  -8  818.00   27.45
   1   6   8  764.94   21.58
   1   6   8  750.61   21.51
  -1   6  -8  779.06   30.95
  -1  -6   8  804.69   31.53
  -1   6  -8  738.31   30.66
   2  -6   8  149.21   13.21
  -2   6   8  186.23   13.50
   2   6  -8  169.20    8.98
  -2   6   8  182.66   11.47
  -2   6  -8  165.62   12.46
  -2  -6   8  164.95   12.56
  -2  -6   8  187.68    9.08
   2   6   8  184.16   13.82
   2  -6  -8  172.54   10.93
  -3   6   8    5.05    4.15
   3  -6   8    2.45    3.48
  -3   6   8    4.61    5.12
   3   6   8    9.48    4.72
  -3   6  -8    5.12    4.31
  -3  -6   8    1.35    4.06
  -4   6   8   51.59    9.57
   4  -6   8   62.33   11.32
  -4   6   8   47.69    8.83
   4   6   8   58.37   10.54
  -4   6  -8   45.35    8.45
  -4  -6   8   54.18    9.52
  -5   6   8    9.46    5.29
   5  -6   8    4.68    4.36
  -5   6  -8    7.83    5.96
  -5  -6   8   14.20    6.71
   5   6   8    7.27    7.22
  -6   6   8    1.78    4.16
   6  -6   8   12.44    6.40
  -6  -6  -8    0.74    2.35
  -6   6   8   -0.79    5.12
  -6  -6   8   -1.00    5.12
  -6   6  -8    7.20    6.29
   0  -7   8   -1.61    2.43
   0   7   8    8.92    4.87
   0   7   8    4.68    2.28
   0  -7  -8   -0.56    1.90
   0   7  -8    2.04    3.43
   0  -7   8    6.87    3.83
   1  -7   8  104.76   10.58
  -1   7   8  112.38   11.23
  -1   7   8  107.06    8.26
   1   7  -8  106.22    8.56
  -1  -7   8  110.37    8.95
   1  -7  -8  107.17    8.01
   1   7   8  112.04    5.31
  -1  -7   8  109.57   10.73
   1   7   8  117.00   11.73
  -1   7  -8   95.25    9.84
   1   7   8  113.14    5.03
  -2   7   8  104.90    8.99
   2   7  -8   87.06    6.91
  -2   7   8   90.63   10.77
   2  -7   8   73.29   10.98
  -2   7  -8   94.97   10.28
   2   7   8  115.01   11.95
  -2  -7   8   96.37   10.37
   2  -7  -8   88.21    8.48
  -2  -7   8  103.23    7.30
  -3   7   8  445.93   23.59
   3   7  -8  374.89   13.67
   3  -7   8  400.26   23.78
  -3   7   8  427.01   21.18
  -3  -7   8  413.91   22.07
  -3   7  -8  405.11   22.22
   3   7   8  405.34   23.26
  -4   7   8   -3.56    4.07
  -4   7   8   -7.18    3.72
   4  -7   8   -0.16    5.18
  -4   7  -8   -4.90    3.49
   4   7   8   -8.86    3.37
  -4  -7   8    4.48    5.15
  -5   7   8  140.97   14.03
  -5   7   8  120.27   14.05
   5  -7   8  108.74   15.88
   5   7   8  125.34   14.00
  -5   7  -8  132.04   13.84
  -5  -7   8  133.27   13.73
   0   8   8  179.75    9.50
   0  -8   8  194.61   13.74
   0   8   8  152.37    9.15
   0  -8   8  168.06   13.80
   0   8  -8  173.17   13.19
   0   8   8  190.62   15.29
  -1   8   8  226.41   12.71
   1  -8   8  253.24   16.86
   1   8  -8  234.86   13.99
  -1   8   8  245.42   17.14
  -1  -8   8  267.94   16.88
  -1  -8   8  255.97   14.31
   1   8   8  222.20   16.23
  -1   8  -8  218.13   15.56
   1   8   8  215.21    9.70
   1  -8  -8  238.96   14.01
   1   8   8  237.27    9.20
   2   8  -8  136.31    9.52
   2  -8   8  149.61   13.77
  -2   8   8  151.97   11.32
  -2   8   8  159.66   14.44
  -2  -8   8  141.50    9.49
   2   8   8  144.76   14.11
  -2  -8   8  151.60   13.33
  -2   8  -8  151.17   13.06
   3   8  -8   22.90    3.88
  -3   8   8   19.74    5.82
   3  -8   8   15.80    7.11
  -3   8   8   17.30    6.94
   3   8  -8   16.16    3.76
  -3   8  -8   16.02    5.95
   3   8   8   32.91    8.75
  -3  -8   8   20.37    6.55
  -4   8   8   23.23    7.19
  -4   8   8   14.28    6.61
   4  -8   8   18.46    7.43
  -4  -8   8   18.16    6.73
  -4   8  -8   17.12    6.77
   4   8   8   25.64    8.42
  -5   8   8   15.26    6.70
  -5   8   8    0.33    5.74
   5  -8   8    1.69    5.68
  -5   8  -8    7.14    6.09
  -5  -8   8    1.77    5.21
   0   9   8   -3.43    2.27
   0  -9   8    6.45    3.99
   0   9   8   -4.11    1.99
   0   9   8    2.96    4.75
   0   9  -8   -1.57    3.37
   1   9  -8  107.68   10.34
  -1   9   8  110.30   12.54
   1  -9   8  122.00   12.30
  -1   9   8  121.38   11.12
   1   9   8  109.03    6.63
   1   9   8  115.22   12.71
  -1   9  -8   99.09   11.15
  -1  -9   8  110.29   12.15
  -1  -9   8  138.70   11.11
   1  -9  -8  122.23    9.40
   1   9   8  103.63    6.24
   2   9  -8   27.83    6.03
  -2   9   8   16.98    5.74
   2  -9   8   25.97    7.72
  -2   9   8   26.55    7.77
   2   9  -8   18.34    5.22
   2   9   8   27.87    8.21
  -2  -9   8   18.86    6.64
  -2   9  -8   28.20    8.04
   3   9  -8   50.86    6.09
  -3   9   8   61.42    9.87
   3   9  -8   54.82    5.80
  -3   9   8   61.72   11.80
   3   9   8   43.75    9.96
  -3   9  -8   39.44    9.15
  -3  -9   8   60.75   10.42
   4  -9   8   -1.55    5.07
  -4   9   8   -4.80    5.05
  -4   9   8    0.65    5.82
  -4   9  -8  -10.78    3.33
  -4  -9   8    0.35    4.91
   0  10  -8   16.54    6.25
   0  10   8   24.86    4.83
   0  10   8   13.26    6.76
   0 -10   8   19.82    6.57
   0  10   8   31.62    5.55
   1 -10   8   56.40   10.52
   1  10  -8   61.91   10.59
  -1  10   8   55.52    7.95
  -1  10   8   69.10   14.40
  -1 -10   8   50.26    8.37
   1  10   8   58.64   10.57
   1  10   8   69.93    5.62
   1  10   8   66.64    5.63
  -1 -10   8   66.08   11.56
  -1  10  -8   74.45   11.81
  -2  10   8   48.41    8.44
  -2  10   8   39.03    9.88
   2  10  -8   47.85    7.57
   2 -10   8   36.62    9.61
   2  10  -8   53.51    8.32
  -2 -10   8   41.79    9.43
  -2  10  -8   44.40    9.25
   2  10   8   43.71    9.64
   3  10  -8   33.47    5.00
  -3  10   8   25.60    9.32
  -3  10   8   31.42    7.43
   3  10  -8   26.97    5.46
   3 -10   8   28.66    8.87
  -3 -10   8   39.26    9.09
  -3  10  -8   43.35    9.68
   3  10   8   19.12    8.23
  -4  10   8    9.69    7.12
  -4  10   8    9.43    7.51
   4 -10   8   25.82    9.45
  -4  10  -8   20.58    8.28
  -4 -10   8   32.97    9.02
   4  10   8   22.76    8.56
   0  11   8    1.77    3.40
   0 -11   8   10.91    5.55
   0  11   8   12.34    6.79
   0  11   8   -1.63    2.49
   0  11  -8   -2.42    4.32
  -1  11   8   -7.08    3.80
  -1  11   8    5.02    3.92
   1  11  -8    9.07    5.18
   1 -11   8    3.20    4.72
  -1 -11   8   -2.15    3.92
  -1  11  -8   -4.07    4.34
   1  11   8   -6.22    4.91
   1  11   8   -1.43    2.76
   1  11   8   -4.67    2.30
   2 -11   8    3.93    5.78
  -2  11   8    6.93    6.32
  -2  11   8    5.19    4.57
   2  11  -8    0.26    4.22
   2  11   8   -3.36    4.83
  -2  11  -8   -0.37    4.94
  -2 -11   8   16.04    7.85
  -3  11   8   57.05   12.48
   3 -11   8   72.72   12.84
   3  11  -8   55.18   11.21
   3  11   8   47.20   10.30
  -3 -11   8   36.59    9.09
  -3  11  -8   42.96    9.93
   0 -12   8   12.41    5.81
   0  12  -8    0.42    4.23
   0  12   8    5.58    6.57
   0  12   8   24.85    5.61
   1  12  -8   35.22    8.36
   1  12  -8   41.25    9.19
  -1  12   8   39.16   10.90
   1 -12   8   48.30   10.30
  -1  12   8   49.91    8.13
  -1 -12   8   39.46    7.90
   1  12   8   51.12   11.89
  -1  12  -8   52.80   11.20
   1  12   8   34.46    5.24
   2 -12   8   11.90    7.12
   2  12  -8   19.57    6.45
  -2  12   8    6.61    4.90
   2  12  -8    4.94    4.89
  -2  12   8    8.40    7.94
  -2  12  -8   14.93    6.51
  -2 -12   8   17.08    8.16
   2  12   8   10.49    7.77
   0   0   9    6.43    2.55
   0   0  -9    4.89    2.25
   0   0  -9    7.38    3.20
   0   0   9    7.32    3.64
   1   0  -9  123.72    8.22
  -1   0   9  124.39    8.37
  -1   0  -9  112.07    6.89
   1   0  -9  118.57    7.87
  -1   0  -9  130.26    9.64
  -1   0   9  134.59    8.25
   1   0   9  124.72    9.80
   1   0   9  125.93    7.45
  -2   0   9  173.85    9.02
  -2   0  -9  173.08   12.34
  -2   0  -9  173.53    8.89
   2   0  -9  191.97   12.88
  -2   0   9  188.91   11.37
   2   0   9  168.14   12.09
  -2   0  -9  196.62    9.31
   2   0  -9  186.54    9.33
  -3   0  -9   76.02    6.14
  -3   0   9   69.88    5.17
  -3   0  -9   76.03    5.98
  -3   0   9   67.06    7.59
  -3   0   9   63.89    5.09
   3   0   9   68.16   10.16
  -4   0   9  757.24   24.27
   4   0   9  815.07   34.28
  -4   0   9  737.85   31.38
  -4   0  -9  806.04   27.94
  -4   0  -9  733.23   27.59
  -5   0  -9   18.00    6.09
  -5   0   9   28.75    7.64
   5   0   9   21.47    7.07
  -5   0   9   24.72    3.69
  -5   0   9   22.28    3.10
   5   0   9   20.31    5.04
  -6   0  -9  230.82   14.90
   6   0   9  277.05   20.17
  -6   0   9  244.27   18.17
  -6   0   9  219.34    8.23
   0  -1   9 2779.24   81.99
   0   1  -9 2867.41   82.00
   0   1  -9 2890.14   81.17
   0  -1  -9 2850.55   79.53
   0  -1   9 2771.37   80.90
   0  -1  -9 2603.52   82.07
   0   1   9 2932.41   79.60
   0   1   9 2844.60   82.84
   1  -1   9   39.79    6.50
   1  -1   9   44.91    5.75
  -1  -1  -9   35.32    3.66
  -1  -1  -9   41.80    6.65
   1   1  -9   47.86    4.88
  -1   1   9   44.95    5.82
   1   1  -9   43.73    5.93
  -1   1   9   37.72    5.59
  -1  -1   9   53.15    5.32
   1  -1  -9   45.09    5.15
  -1   1  -9   42.67    6.72
  -1   1  -9   43.10    5.32
   1   1   9   39.22    6.59
  -1  -1   9   43.32    6.21
   1  -1  -9   36.74    5.22
   1   1   9   41.28    3.98
  -2  -1  -9 3382.99   99.94
  -2   1   9 3415.66   95.41
   2  -1   9 3259.44   99.79
  -2   1   9 3349.25   97.10
  -2  -1  -9 3382.23   92.51
   2   1  -9 3416.64   98.09
  -2   1   9 3257.56   94.82
  -2  -1  -9 3347.97   92.46
  -2  -1   9 3419.25   93.03
  -2  -1   9 3304.71   97.84
  -2   1  -9 3410.02   99.95
   2  -1  -9 3411.48   95.35
   2  -1  -9 3363.31   97.40
   2   1   9 3234.13   99.84
  -2   1  -9 3341.19   95.02
  -2   1  -9 3421.82   95.28
  -3  -1  -9    5.57    2.12
   3  -1   9    2.32    3.36
  -3   1   9    0.04    3.21
  -3   1   9   -0.12    2.31
  -3   1   9   -2.09    2.14
  -3  -1  -9    1.56    1.91
  -3  -1   9    1.97    2.38
  -3  -1   9    0.37    1.33
  -3   1  -9    2.62    2.62
   3   1   9    6.63    4.91
   3  -1  -9    6.46    4.58
  -3   1  -9    1.79    2.59
  -4   1   9  271.41   16.73
   4  -1   9  274.06   18.29
  -4   1   9  274.39   12.75
  -4  -1  -9  281.43   12.96
  -4  -1  -9  281.39   13.10
  -4   1   9  265.05   12.37
  -4   1  -9  257.64   14.14
  -4  -1   9  261.89   16.46
   4   1   9  280.51   18.39
  -4   1  -9  260.71   14.29
  -5   1   9   12.20    3.59
  -5   1   9   16.17    6.05
  -5   1   9    9.63    3.43
  -5  -1  -9   13.75    4.40
   5  -1   9    8.98    5.83
   5   1   9   10.28    5.90
  -5  -1   9   13.50    5.27
  -5   1  -9   15.56    4.93
  -6   1   9    5.93    3.12
  -6  -1  -9    3.31    4.33
  -6   1   9    7.25    5.83
  -6   1   9    6.15    3.88
  -6   1  -9    2.87    4.29
   6   1   9    4.56    5.82
  -6  -1   9   13.58    6.91
   0  -2   9   -3.21    2.22
   0   2  -9    0.64    2.12
   0   2   9    2.86    2.65
   0   2  -9    0.14    2.40
   0   2   9    2.34    1.72
   0  -2  -9   -0.20    1.63
   0  -2   9   -0.50    2.35
   0  -2  -9    0.71    2.05
  -1   2   9  520.36   20.95
   1   2  -9  491.98   20.52
   1   2  -9  485.60   18.51
  -1  -2  -9  523.33   16.50
   1  -2   9  514.47   21.91
  -1   2   9  496.04   19.12
   1  -2   9  489.03   20.15
  -1  -2  -9  500.14   21.92
  -1  -2   9  518.86   19.00
   1  -2  -9  526.47   19.51
  -1   2  -9  521.71   21.78
   1   2   9  510.02   16.53
   1   2   9  534.63   22.66
   1  -2  -9  517.08   20.77
  -1   2  -9  506.19   19.89
  -1  -2   9  498.07   20.73
   2   2  -9  731.24   22.78
  -2  -2  -9  706.17   21.56
   2   2  -9  690.32   27.53
  -2  -2  -9  668.71   28.74
  -2   2   9  768.30   26.93
  -2   2   9  689.64   26.03
   2  -2   9  726.76   29.88
  -2   2   9  722.70   26.98
  -2   2  -9  704.17   29.03
  -2   2  -9  799.07   26.99
  -2  -2   9  713.55   22.79
  -2   2  -9  724.58   26.19
   2  -2  -9  757.07   27.19
  -2  -2   9  758.97   28.33
  -3   2   9   80.02    7.31
  -3  -2  -9   80.51    4.98
   3  -2   9   67.43   10.46
  -3   2   9   80.39    7.13
  -3  -2  -9   80.39    4.90
  -3   2   9   84.44    8.46
  -3  -2   9   84.83    8.92
   3   2   9   80.56   10.86
  -3   2  -9   76.13    7.22
  -3   2  -9   77.15    8.36
   3  -2  -9   84.08    9.36
  -4   2   9  503.78   20.80
  -4   2   9  528.56   24.62
  -4  -2  -9  526.15   18.49
   4  -2   9  452.53   25.09
  -4  -2  -9  519.95   18.55
  -4   2   9  511.06   20.76
  -4   2  -9  474.00   21.88
  -4   2  -9  505.50   22.30
  -4  -2   9  495.34   24.27
   4   2   9  534.17   26.15
  -5   2   9    0.24    2.86
  -5  -2  -9    1.44    2.72
  -5   2   9   -2.79    4.00
   5  -2   9   -5.63    3.94
  -5   2   9    7.19    3.58
   5   2   9   -4.12    4.10
   5   2   9   -5.84    2.01
  -5   2  -9   -5.46    2.66
  -5  -2   9    4.35    3.18
   6  -2   9  202.74   17.77
  -6  -2  -9  200.87   14.04
  -6   2   9  178.23   11.79
  -6   2   9  167.26   11.39
  -6   2   9  203.77   16.93
   6   2   9  199.36   17.22
   6   2   9  159.71   11.13
  -6   2  -9  187.88   14.31
  -6  -2   9  176.44   15.49
   0  -3  -9 2755.45   83.35
   0  -3   9 2803.20   82.44
   0   3  -9 2845.56   82.09
   0   3   9 2705.87   77.53
   0   3  -9 2805.82   81.36
   0  -3   9 2795.63   81.82
   0  -3  -9 2801.58   77.68
   0   3   9 2776.79   83.66
  -1   3   9   82.94    7.94
   1   3  -9   82.85    6.27
  -1   3   9   80.71    6.50
   1   3  -9   83.53    7.65
   1  -3   9   86.84    8.53
  -1  -3  -9   75.76    3.79
   1  -3   9   72.48    7.24
  -1  -3  -9   81.79    8.23
  -1  -3   9   76.97    6.16
  -1   3  -9   83.43    8.20
   1  -3  -9   75.79    6.28
   1  -3  -9   87.41    7.71
   1   3   9   83.88    3.95
  -1   3  -9   87.22    7.25
   1   3   9   79.94    8.10
  -1  -3   9   87.64    7.73
  -2  -3  -9 1336.95   46.18
  -2   3   9 1327.82   43.64
   2  -3   9 1177.00   45.49
  -2   3   9 1292.61   42.79
  -2   3   9 1384.27   44.00
   2   3  -9 1346.61   37.92
   2   3  -9 1328.78   44.90
   2  -3  -9 1352.30   43.17
  -2   3  -9 1351.48   43.33
  -2  -3   9 1297.11   38.01
   2   3   9 1285.37   46.01
  -2  -3   9 1213.55   43.81
  -2   3  -9 1300.06   45.74
  -3   3   9    5.34    3.42
  -3  -3  -9    6.55    1.02
  -3  -3  -9    4.33    0.92
  -3   3   9    2.39    3.25
   3  -3   9   10.12    4.89
  -3   3   9    7.52    3.96
  -3   3  -9    5.77    3.35
   3   3   9    1.62    3.86
  -3  -3   9    4.49    3.83
  -3   3  -9    7.17    4.42
  -4  -3  -9  364.48   13.10
  -4   3   9  354.18   20.05
   4  -3   9  379.00   22.31
  -4   3   9  360.80   17.75
  -4  -3   9  365.59   20.28
   4   3   9  357.55   21.10
  -4   3  -9  375.54   18.86
  -5   3   9   21.84    5.19
  -5   3   9   32.59    6.43
  -5   3   9   33.51    8.20
   5  -3   9   24.12    8.17
  -5  -3  -9   29.10    4.37
  -5   3  -9   21.95    6.22
   5   3   9   17.95    3.98
  -5  -3   9   27.86    7.32
   5   3   9   22.29    7.78
  -6  -3  -9   28.24    5.31
  -6   3   9   22.10    7.41
  -6   3   9   25.56    6.35
  -6   3   9   30.45    8.44
   6  -3   9   20.51    8.09
   6   3   9   33.19    8.97
  -6  -3   9   28.76    8.12
  -6   3  -9   26.61    7.10
   0   4   9    2.35    3.18
   0   4  -9   -2.21    2.12
   0  -4  -9   -1.25    1.48
   0  -4  -9   -0.14    2.66
   0   4  -9    3.08    2.87
   0  -4   9    1.56    2.89
   0   4   9   -1.49    1.32
   0  -4   9   -1.62    2.39
   1   4  -9  195.04   12.13
   1  -4   9  179.25   12.16
  -1   4   9  180.05    9.91
   1  -4   9  184.53   12.59
   1   4  -9  176.08    9.76
  -1   4   9  181.45   12.36
  -1   4   9  178.02   11.88
  -1  -4  -9  182.18   12.69
  -1  -4   9  191.90   12.50
  -1   4  -9  198.48   11.90
  -1  -4   9  200.48   10.43
   1   4   9  197.29   13.56
  -1   4  -9  176.57   11.54
   1  -4  -9  179.96    9.84
   1  -4  -9  191.57   12.39
   2  -4   9  281.02   17.23
   2   4  -9  291.80   11.18
  -2   4   9  330.42   16.86
  -2   4   9  268.87   15.32
  -2   4   9  311.98   15.14
  -2  -4   9  284.67   16.12
  -2   4  -9  298.59   15.73
   2   4   9  300.94   17.66
  -2  -4   9  287.48   11.18
  -2   4  -9  296.51   15.58
  -2   4  -9  313.04   19.53
  -3   4   9   19.73    5.41
  -3   4   9   22.46    5.93
  -3   4   9   13.59    4.87
   3  -4   9   26.34    7.55
  -3  -4   9   16.85    5.45
   3   4   9   19.70    7.10
  -3   4  -9   17.58    5.42
  -4   4   9  755.90   30.15
  -4   4   9  697.06   30.91
   4  -4   9  767.01   34.67
  -4  -4   9  746.25   31.93
  -4   4  -9  725.67   30.37
   4   4   9  724.92   33.27
  -5  -4  -9    5.02    2.23
   5  -4   9   10.90    5.35
  -5   4   9    2.66    4.02
  -5   4   9    5.15    5.06
  -5  -4   9    4.04    4.26
   5   4   9    4.97    5.16
  -5   4  -9    5.26    4.28
   6  -4   9   44.77   10.13
  -6  -4  -9   56.01    6.17
  -6   4   9   56.87    9.28
  -6   4   9   57.86   11.23
   6   4   9   63.46    6.32
  -6  -4   9   38.77    8.96
   0   5  -9 1557.14   48.47
   0  -5  -9 1564.22   51.43
   0  -5   9 1376.79   47.94
   0   5   9 1502.32   43.36
   0  -5  -9 1463.06   43.23
   0  -5   9 1473.48   49.91
   0   5  -9 1407.57   49.13
   0   5   9 1528.36   51.20
  -1   5   9   29.82    6.18
   1   5  -9   29.47    4.82
  -1   5   9   29.94    4.80
  -1   5   9   23.88    6.20
   1  -5   9   35.52    6.99
  -1   5  -9   36.25    7.13
  -1  -5   9   34.15    6.59
   1   5   9   44.59    8.30
  -1   5  -9   27.17    8.18
  -1   5  -9   22.40    5.43
  -1  -5   9   38.93    5.50
   1  -5  -9   31.24    4.99
   2   5  -9  838.13   30.31
  -2   5   9  825.80   29.91
   2  -5   9  769.91   33.00
  -2   5   9  687.03   30.95
  -2   5   9  824.52   32.26
   2   5   9  841.35   33.88
  -2  -5   9  809.16   25.40
  -2   5  -9  829.90   31.54
   2  -5  -9  774.01   29.19
  -2  -5   9  743.85   31.22
  -3   5   9   11.75    4.87
  -3   5   9   18.66    5.51
   3  -5   9   16.97    6.56
  -3  -5   9   17.96    5.49
   3   5   9    9.54    5.59
  -3   5  -9   13.11    5.29
  -4   5   9   23.91    6.80
   4  -5   9   26.05    7.56
  -4   5   9   34.02    7.44
  -4  -5   9   30.61    7.23
   4   5   9   31.09    7.73
  -4   5  -9   29.42    6.95
  -5   5   9   63.40   12.86
  -5   5   9   53.12    9.72
   5  -5   9   59.75   13.36
  -5  -5   9   63.34   10.69
   5   5   9   69.37   11.74
  -5   5  -9   61.27   10.15
  -6  -5  -9   -3.51    2.17
  -6   5   9   -2.38    4.63
   6  -5   9    9.27    6.19
  -6   5   9   -9.37    4.25
   6   5   9   -2.00    5.10
  -6   5  -9   -5.07    5.24
  -6  -5   9    0.27    5.95
   0   6   9    2.00    1.89
   0  -6   9   -0.50    2.94
   0   6   9   -3.88    3.38
   0  -6  -9    0.69    1.85
   0  -6   9    3.70    4.22
   1  -6   9   79.74    9.37
  -1   6   9   83.50    9.77
  -1   6   9   79.50    6.83
   1   6  -9   83.05    7.46
   1   6   9   88.30   10.32
  -1   6  -9   76.44    8.77
  -1  -6   9   80.27    7.48
  -1   6  -9   75.85    8.51
   1  -6  -9   97.54    7.34
  -1  -6   9   87.39    9.55
  -2   6   9   75.56   10.40
   2   6  -9   60.10    5.68
   2  -6   9   70.10   10.81
  -2  -6   9   68.25    5.72
   2  -6  -9   76.63    7.24
  -2  -6   9   75.54    9.88
  -2   6  -9   84.93    9.22
   2   6   9   76.24   11.35
  -3   6   9   -0.17    3.42
   3  -6   9   -0.51    4.12
  -3   6   9   -3.09    3.76
  -3  -6   9    3.89    4.52
  -3   6  -9   -0.86    3.31
   3   6   9    0.29    4.63
  -4   6   9  519.79   26.11
   4  -6   9  497.68   27.91
  -4   6   9  488.17   24.99
  -4   6  -9  481.51   24.93
  -4  -6   9  466.72   25.22
   4   6   9  508.82   27.17
   5  -6   9   -1.15    5.17
  -5   6   9   13.56    6.60
  -5   6   9    1.82    4.86
   5   6   9    5.80    6.95
  -5  -6   9   12.56    5.67
  -6   6   9  145.64   15.59
  -6   6   9  160.80   15.24
   6  -6   9  152.59   17.36
   6   6   9  138.96   14.65
  -6   6  -9  139.29   14.79
  -6  -6   9  131.12   14.93
   0   7   9  703.86   23.02
   0   7  -9  664.36   27.74
   0  -7  -9  682.20   22.74
   0  -7   9  661.78   29.67
   0   7   9  650.54   30.18
  -1   7   9    8.00    4.95
   1  -7   9    4.20    4.98
  -1   7   9    2.04    2.91
   1   7  -9    2.24    2.90
  -1  -7   9   -1.59    3.78
   1   7   9   -3.91    3.60
  -1  -7   9   -2.36    2.55
   1  -7  -9   -0.43    2.45
  -1   7  -9   -4.88    2.92
   2   7  -9  233.23   11.74
  -2   7   9  256.91   14.53
   2  -7   9  262.58   17.75
  -2   7   9  223.71   16.35
   2  -7  -9  215.78   13.58
  -2  -7   9  236.39   11.73
  -2  -7   9  218.21   15.67
  -2   7  -9  243.03   16.14
   2   7   9  222.31   16.98
  -3   7   9   23.73    6.08
   3   7  -9   24.52    2.82
  -3   7   9   20.83    6.81
   3  -7   9   18.95    6.42
  -3  -7   9   23.18    7.16
  -3   7  -9   19.65    6.69
   3   7   9   25.79    7.41
  -4   7   9   59.47    9.96
  -4   7   9   40.11    9.05
   4   7   9   66.90   11.55
  -4   7  -9   70.05   10.76
  -4  -7   9   65.37   10.65
   5  -7   9    6.35    6.39
  -5   7   9   -7.47    4.41
  -5   7   9   -6.94    3.85
  -5  -7   9   13.14    6.13
  -5   7  -9    3.51    4.87
   0  -8   9   -2.33    2.82
   0   8   9   -2.94    1.78
   0  -8   9   -0.45    3.91
   0   8   9    2.24    2.40
   0   8   9   -6.58    3.67
   0   8  -9    4.28    3.95
   1   8  -9    4.15    3.26
  -1   8   9    0.71    3.22
   1  -8   9   -3.30    4.34
  -1   8   9    2.32    3.08
   1   8   9    2.49    4.32
   1   8   9    2.61    1.37
   1  -8  -9   -2.58    2.80
  -1  -8   9   -5.44    3.60
  -1  -8   9   -1.97    2.80
  -1   8  -9   -0.82    3.96
   2  -8   9  122.36   13.05
  -2   8   9  114.60   12.58
  -2   8   9  133.50   10.82
   2   8  -9  119.97    8.84
   2   8   9  118.93   13.20
  -2  -8   9  129.79   12.72
  -2   8  -9  118.88   12.09
  -2  -8   9  135.28    9.24
   3   8  -9    5.25    2.54
  -3   8   9   -1.17    4.24
   3  -8   9    4.25    5.64
  -3   8   9   10.85    5.61
  -3  -8   9    1.58    5.05
   3   8   9    7.88    6.15
  -3   8  -9    0.39    4.35
   4  -8   9  197.09   17.54
  -4   8   9  181.13   16.17
  -4   8   9  180.83   14.99
  -4  -8   9  188.22   15.86
   4   8   9  170.54   16.50
  -4   8  -9  139.88   14.28
  -5   8   9    0.23    6.29
   5  -8   9   -6.18    3.23
   5   8   9  -12.86    4.83
  -5  -8   9    0.06    5.39
  -5   8  -9   -3.19    4.98
   0   9   9   42.60    5.55
   0   9  -9   47.49    9.29
   0  -9   9   41.75    8.06
   0   9   9   34.33    8.44
   0   9   9   54.29    5.68
  -1   9   9   11.43    6.26
  -1   9   9    5.26    4.17
   1   9  -9    5.28    5.00
   1  -9   9   15.11    5.82
   1   9   9    7.27    6.04
   1   9   9    6.22    2.63
  -1  -9   9   13.40    5.54
  -1   9  -9    2.68    4.49
  -1  -9   9   13.60    5.51
   1  -9  -9   14.01    4.48
   2   9  -9  306.50   22.03
   2  -9   9  345.24   22.25
  -2   9   9  343.78   18.50
  -2   9   9  322.19   21.91
   2   9   9  343.41   22.66
  -2  -9   9  341.92   16.64
  -2  -9   9  330.41   21.20
  -2   9  -9  338.96   21.01
   3   9  -9    1.64    2.88
   3  -9   9   11.71    6.89
   3   9  -9   -0.66    2.77
  -3   9   9   -0.92    3.40
   3   9   9    6.09    6.54
  -3   9  -9   -3.22    4.92
  -4   9   9   18.84    6.29
  -4   9   9   10.20    7.29
   4  -9   9   15.98    7.20
  -4  -9   9   -2.52    4.84
  -4   9  -9   16.58    7.42
   4   9   9    2.59    6.68
   0  10   9    5.17    2.88
   0 -10   9   -1.56    3.26
   0  10   9   -2.15    2.62
   1 -10   9   -2.88    3.77
  -1  10   9    0.91    4.98
  -1  10   9    3.33    3.81
   1  10   9    2.97    1.93
   1  10   9   -7.40    4.88
  -1  10  -9    2.31    4.93
   1 -10  -9   -1.59    4.56
  -1 -10   9    2.53    4.50
   1  10   9    6.68    3.40
   2  10  -9   63.14    8.62
  -2  10   9   69.69   12.36
   2  10  -9   62.12    8.91
  -2  10   9   76.40   10.39
   2  10   9   57.93   11.60
  -2  10  -9   54.82   10.62
  -2 -10   9   55.84    9.94
  -3  10   9   -8.07    4.53
   3  10  -9    8.22    4.02
   3 -10   9   17.05    6.76
  -3  10   9    9.18    5.68
  -3  10  -9   14.47    6.75
   3  10   9    3.09    6.66
  -3 -10   9   -1.61    4.66
   4 -10   9   38.64    9.78
  -4  10   9   40.48    8.92
  -4  10   9   33.65    9.43
  -4  10  -9   23.41    8.72
   4  10   9   35.23    9.99
  -4 -10   9   45.33    9.66
   0  11  -9  165.42   15.25
   0 -11   9  153.44   14.16
   0  11   9  208.43   18.13
   0  11   9  166.71   10.64
   1 -11   9    1.56    5.63
  -1  11   9    5.22    5.47
   1  11  -9    6.76    5.24
  -1  11   9   -1.59    4.00
  -1 -11   9    0.37    4.48
   1  11   9   -1.51    2.14
  -1  11  -9   -2.90    4.22
   1  11   9    6.24    2.92
   1  11   9   -8.63    5.14
   2  11  -9   48.53    8.25
   2 -11   9   46.75   10.03
  -2  11   9   51.02    8.67
  -2  11   9   42.47   10.47
  -2  11  -9   38.16    9.40
   2  11   9   51.16   11.57
  -2 -11   9   46.46   10.04
  -3  11   9    5.39    5.93
   3  11  -9    3.63    4.18
   3 -11   9    1.78    6.38
  -3 -11   9   11.78    5.50
   3  11   9    5.19    6.76
  -3  11  -9    1.56    5.19
   0  12   9   -3.19    4.54
   0  12  -9   -7.27    4.37
  -1  12   9   10.92    4.90
   1 -12   9   11.10    6.44
  -1  12   9    1.54    5.74
   1  12  -9  -11.28    3.87
  -1 -12   9    3.26    4.88
   1  12   9    0.82    5.63
  -1  12  -9    2.59    6.09
   1  12   9   -1.38    2.41
   0   0  10 3798.69  104.78
   0   0 -10 3753.00  104.61
   0   0 -10 3722.60  106.96
   0   0  10 3600.53  106.69
   1   0 -10 1114.49   36.09
  -1   0 -10 1091.78   38.73
  -1   0  10 1134.24   36.33
  -1   0  10 1116.86   36.55
   1   0 -10 1057.26   36.20
   1   0  10 1066.90   34.72
  -1   0 -10 1124.02   34.66
   1   0  10 1068.03   38.60
  -2   0  10  265.87   14.31
   2   0 -10  236.41   11.71
   2   0 -10  243.09   13.71
   2   0  10  267.89   15.79
  -2   0  10  263.80   12.21
  -2   0 -10  259.40   11.64
  -2   0 -10  248.97   15.23
  -2   0 -10  270.08   11.80
  -3   0  10  340.49   13.57
  -3   0  10  359.22   18.26
  -3   0 -10  335.88   14.50
  -3   0  10  328.87   13.52
  -3   0 -10  335.88   14.53
   3   0  10  309.56   18.75
  -4   0 -10    7.13    3.30
  -4   0 -10    7.40    3.30
  -4   0  10   13.03    5.25
  -4   0  10    6.24    2.52
   4   0  10    8.79    4.94
  -5   0 -10   89.46    8.53
   5   0  10   90.95   13.18
  -5   0  10   84.39    4.95
  -5   0  10   64.91   10.57
  -5   0 -10   89.46    8.62
   6   0  10   56.51   11.86
  -6   0  10   59.08   11.14
  -6   0 -10   61.35    8.96
   0  -1 -10    3.07    2.88
   0   1 -10    2.85    2.65
   0  -1 -10    0.03    1.82
   0   1  10    0.87    2.17
   0  -1  10    0.26    2.81
   0   1  10    0.61    3.10
   0  -1  10    2.76    2.48
   0   1 -10   -0.22    2.84
   1   1 -10    5.34    2.72
  -1   1  10    3.63    2.76
  -1   1  10   -0.26    2.54
  -1  -1 -10   -1.27    1.44
  -1  -1 -10    0.76    2.57
   1  -1  10   -0.53    3.22
   1  -1  10   -1.31    2.22
   1   1 -10   -1.33    1.94
  -1  -1  10   -2.44    2.10
   1   1  10   -0.71    1.65
   1  -1 -10    0.71    2.43
  -1   1 -10    0.09    3.09
  -1  -1  10   -1.33    2.15
   1   1  10   -1.36    3.11
  -1   1 -10   -2.45    1.62
   1  -1 -10   -0.83    2.06
  -2  -1 -10   75.22    8.57
   2   1 -10   89.30    8.14
  -2   1  10   79.72    7.62
  -2  -1 -10   75.81    5.19
  -2  -1 -10   73.21    5.13
   2  -1  10   73.22    9.96
  -2   1  10   69.87    6.43
   2   1 -10   78.49    5.83
   2  -1 -10   82.30    7.80
  -2   1 -10   76.22    6.30
  -2   1 -10   73.98    6.38
  -2  -1  10   73.48    5.85
   2  -1 -10   80.46    6.77
   2   1  10   90.52    9.91
  -2   1 -10   80.59    8.79
  -3   1  10  299.82   16.76
  -3  -1 -10  319.53   12.93
  -3  -1 -10  305.90   12.77
  -3   1  10  309.44   14.14
   3  -1  10  280.54   18.25
  -3   1  10  313.78   14.02
  -3  -1  10  295.72   11.50
  -3   1 -10  339.83   15.28
  -3  -1  10  315.53   11.64
  -3  -1  10  328.44   17.58
   3   1  10  313.36   18.91
  -3   1 -10  323.24   14.92
   4  -1  10  800.80   35.35
  -4   1  10  826.29   27.71
  -4  -1 -10  757.80   27.06
  -4   1  10  800.78   27.25
  -4   1  10  820.96   33.34
  -4  -1 -10  792.53   27.35
  -4   1 -10  829.38   29.89
   4   1  10  704.61   33.89
  -4   1 -10  782.48   29.46
  -4  -1  10  803.84   33.23
  -5  -1 -10  400.02   19.20
  -5   1  10  418.54   23.03
  -5   1  10  375.89   15.95
  -5  -1 -10  430.07   18.05
   5  -1  10  402.68   24.69
  -5   1  10  368.66   15.73
  -5  -1  10  381.32   22.31
  -5   1 -10  401.72   19.72
   5   1  10  372.85   23.60
  -6   1  10   45.56    5.40
  -6   1  10   50.31   10.16
  -6  -1 -10   50.17    7.81
  -6   1  10   42.74    5.71
   6  -1  10   56.55   11.36
  -6  -1  10   32.91    8.23
   6   1  10   57.15   11.57
   0   2  10  364.22   14.24
   0  -2  10  352.58   16.80
   0  -2 -10  359.58   14.25
   0   2 -10  372.81   16.71
   0   2  10  373.85   18.01
   0  -2 -10  382.66   18.02
   0   2 -10  349.34   16.23
   0  -2  10  367.98   16.83
   1   2 -10 1250.26   41.45
  -1   2  10 1238.91   41.00
   1   2 -10 1248.13   38.54
  -1  -2 -10 1171.27   39.65
  -1   2  10 1185.95   38.55
  -1  -2 -10 1228.73   42.52
   1  -2  10 1216.58   40.05
   1  -2  10 1191.30   41.77
  -1  -2  10 1223.02   40.78
   1  -2 -10 1195.60   38.73
  -1   2 -10 1174.68   39.27
   1   2  10 1194.85   42.34
   1   2  10 1235.13   35.82
   1  -2 -10 1222.33   40.69
  -1   2 -10 1124.52   43.71
  -1  -2  10 1236.92   38.66
  -2  -2 -10  284.36   10.50
  -2  -2 -10  289.96   10.50
   2   2 -10  303.30   12.87
  -2   2  10  302.23   14.82
   2   2 -10  292.79   15.66
  -2   2  10  293.05   14.95
   2  -2  10  315.06   17.62
  -2  -2 -10  297.04   17.17
  -2   2  10  287.08   14.28
  -2  -2  10  303.83   12.10
   2   2  10  288.14   17.33
  -2   2 -10  274.78   16.32
  -2   2 -10  305.14   14.61
  -2  -2  10  307.00   16.08
   2  -2 -10  284.48   14.92
  -2   2 -10  312.36   14.77
  -3   2  10  263.82   13.47
  -3   2  10  246.20   13.11
  -3   2  10  262.89   15.43
   3  -2  10  221.99   16.18
  -3  -2 -10  240.26   12.00
  -3  -2 -10  237.41    9.69
  -3   2 -10  235.22   13.23
   3   2  10  278.19   17.24
  -3  -2  10  258.98   15.64
  -3   2 -10  244.75   13.62
  -3  -2  10  242.70    7.69
  -4  -2 -10   63.02    5.27
  -4   2  10   78.44   10.59
  -4   2  10   60.81    6.76
  -4  -2 -10   66.33    5.57
   4  -2  10   61.86   11.10
  -4   2  10   67.54    7.04
   4   2  10   57.32   10.36
  -4   2 -10   65.81    7.54
  -4   2 -10   66.90    7.66
  -4  -2  10   57.50    9.18
  -5   2  10   10.65    3.71
  -5  -2 -10    8.97    3.35
   5  -2  10   14.86    7.26
  -5   2  10   17.80    4.39
  -5  -2 -10   13.51    3.77
  -5   2  10    8.20    5.91
  -5   2 -10   11.22    5.22
  -5  -2  10    7.54    5.50
   5   2  10    4.83    5.29
  -6   2  10   24.58    5.64
  -6   2  10   21.82    5.20
   6  -2  10    9.45    6.80
  -6  -2 -10   23.06    5.72
  -6   2  10   20.02    8.01
  -6   2 -10   22.45    6.46
   6   2  10   21.60    7.94
   6   2  10   10.66    4.38
  -6  -2  10   16.40    6.52
   0   3 -10    5.81    3.12
   0  -3  10    5.79    3.27
   0  -3  10    0.86    2.84
   0  -3 -10    0.99    2.86
   0  -3 -10   -0.53    1.64
   0   3  10    2.05    2.93
   0   3 -10   -0.46    2.27
   0   3  10   -1.68    1.54
  -1  -3 -10  336.67   18.11
  -1   3  10  394.26   15.70
  -1  -3 -10  364.63   11.94
   1  -3  10  343.63   17.09
  -1   3  10  341.88   17.37
   1   3 -10  349.82   15.11
   1  -3  10  362.50   18.33
   1   3 -10  370.77   17.74
  -1   3 -10  370.23   17.12
  -1  -3  10  343.18   15.29
   1   3  10  364.43   18.92
  -1   3 -10  357.15   17.94
   1  -3 -10  339.75   15.13
  -2   3  10  451.57   20.61
  -2   3  10  511.77   20.69
   2  -3  10  480.32   23.03
  -2   3  10  451.99   20.54
  -2   3 -10  486.35   20.57
   2  -3 -10  450.99   20.08
  -2   3 -10  472.79   20.40
  -2  -3  10  455.83   21.39
  -2  -3  10  450.02   16.34
   2   3  10  461.18   23.04
  -3   3  10  406.42   19.75
  -3   3  10  360.37   20.52
  -3   3  10  383.61   18.50
   3  -3  10  399.03   22.31
  -3   3 -10  384.81   19.01
   3   3  10  415.56   22.39
  -3  -3  10  382.26   20.19
  -3   3 -10  400.16   19.09
  -4  -3 -10  183.81    7.81
  -4   3  10  170.02   11.83
   4  -3  10  176.48   15.51
  -4   3  10  192.70   12.43
  -4  -3 -10  172.74    7.41
  -4   3  10  177.03   14.04
  -4   3 -10  167.33   12.60
   4   3  10  188.16   15.88
  -4  -3  10  180.37   14.25
  -5   3  10   87.76    9.21
  -5   3  10   86.73   11.81
  -5  -3 -10   81.35    6.09
   5  -3  10   70.24   12.16
  -5  -3 -10   89.47    6.47
  -5   3 -10  111.78   11.10
   5   3  10   65.02   11.58
  -5  -3  10   93.77   12.88
  -6   3  10   78.76   10.43
   6  -3  10  103.61   15.37
  -6   3  10   75.09   12.26
  -6  -3 -10   68.82    7.12
  -6  -3 -10   84.13    8.18
  -6   3  10   75.28    8.89
  -6   3 -10   86.88   12.33
  -6  -3  10   70.48   11.90
   6   3  10   82.34   13.37
   0   4  10  495.03   22.86
   0   4  10  449.78   16.45
   0  -4 -10  488.39   16.78
   0  -4 -10  499.91   22.57
   0   4 -10  465.59   20.84
   0   4 -10  473.67   20.50
   0  -4  10  460.82   21.45
   0  -4  10  445.85   20.38
  -1  -4 -10  684.59   19.36
   1  -4  10  730.46   28.84
   1  -4  10  661.59   27.65
  -1   4  10  660.05   24.37
   1   4 -10  708.61   24.84
  -1  -4  10  663.43   27.64
   1   4  10  693.36   19.33
   1   4  10  687.69   29.48
   1  -4 -10  670.06   27.94
  -1   4 -10  675.08   28.00
   1  -4 -10  705.02   24.74
  -1   4 -10  694.56   27.31
  -1  -4  10  707.17   25.15
  -2   4  10  183.20   12.32
   2  -4  10  157.00   12.65
  -2   4  10  188.83   11.44
  -2  -4  10  164.74   12.34
  -2  -4  10  172.99    8.19
  -2   4 -10  150.02   11.16
   2  -4 -10  147.96   10.29
  -2   4 -10  174.56   12.99
   2   4  10  157.72   13.34
  -3   4  10  140.75   11.28
  -3   4  10  107.57   10.21
  -3   4  10  129.87   10.72
   3  -4  10  102.52   11.72
  -3   4 -10  106.51    9.91
  -3  -4  10  115.60   10.98
   3   4  10  119.69   12.68
  -4   4  10    4.88    4.38
   4  -4  10    5.87    5.91
  -4   4  10    3.18    4.27
   4   4  10    3.01    5.57
  -4   4 -10    4.18    4.58
  -4  -4  10    7.14    4.57
  -5   4  10   14.45    6.53
  -5   4  10   15.20    5.51
  -5  -4 -10    9.08    2.20
   5   4  10   24.76    8.02
  -5   4 -10    7.18    5.35
  -6   4  10   55.08   11.15
   6  -4  10   55.91   11.37
  -6  -4 -10   38.27    4.80
  -6  -4 -10   41.62    6.01
  -6   4  10   40.46    8.34
  -6   4 -10   29.98    9.54
   6   4  10   33.79    9.46
  -6  -4  10   35.05    9.09
   0   5  10    0.13    3.79
   0  -5 -10   -0.82    1.81
   0   5  10    1.32    1.89
   0   5 -10    1.60    2.91
   0  -5  10   -1.46    2.97
   0  -5  10   -3.11    2.92
   1  -5  10  112.52   10.52
  -1   5  10  110.93    7.85
   1   5 -10  110.69    8.23
  -1   5  10  103.39   10.28
   1  -5  10   94.69    9.81
   1   5  10   98.58   10.59
   1  -5 -10  114.42    7.74
  -1   5 -10  100.48    9.53
  -1   5 -10  110.14    9.86
  -1  -5  10  108.10    8.32
  -1  -5  10  110.42   10.29
  -2   5  10  184.30   13.72
   2  -5  10  187.45   14.69
  -2   5  10  193.84   12.02
   2   5 -10  194.04    9.36
  -2  -5  10  197.16    9.44
  -2   5 -10  198.74   13.42
   2  -5 -10  193.32   11.98
   2   5  10  208.17   15.43
  -2  -5  10  204.51   13.98
  -3   5  10  188.58   14.02
  -3   5  10  208.69   13.83
   3  -5  10  199.64   15.90
  -3  -5  10  188.44   14.40
  -3   5 -10  191.21   13.81
   3   5  10  201.93   15.99
  -4   5  10   82.89   11.40
  -4   5  10  101.39   10.43
   4  -5  10   69.81   12.08
  -4  -5  10   78.56   11.46
  -4   5 -10   88.88   11.69
   4   5  10   80.48   12.78
  -5   5  10  192.24   16.28
   5  -5  10  220.64   18.53
  -5   5  10  209.62   15.52
   5   5  10  164.82   16.15
  -5  -5  10  173.76   15.26
  -5   5 -10  198.27   15.53
  -6   5  10  126.33   13.89
  -6   5  10   75.15   11.22
   6  -5  10   88.04   14.63
   6   5  10   88.68   13.64
  -6   5 -10  105.67   14.26
  -6  -5  10   86.27   13.80
   0  -6  10  348.49   18.33
   0  -6  10  341.23   19.27
   0  -6 -10  358.81   13.76
   0   6  10  354.54   13.60
   0   6 -10  364.59   18.03
   0   6  10  368.55   20.52
  -1   6  10  397.34   21.44
   1  -6  10  400.55   21.14
  -1   6  10  418.74   17.14
   1   6 -10  417.37   17.94
  -1   6 -10  388.77   20.40
  -1  -6  10  349.03   17.16
  -1  -6  10  390.73   20.87
   1   6  10  411.18   22.43
   1  -6 -10  378.95   16.50
  -2   6  10  273.69   17.48
   2   6 -10  261.08   11.85
   2  -6  10  213.84   16.50
  -2   6  10  259.28   14.51
  -2  -6  10  243.96   16.37
  -2  -6  10  261.67   11.79
   2  -6 -10  247.71   14.17
  -2   6 -10  260.82   16.35
   2   6  10  261.55   18.07
  -3   6  10   70.17   10.35
   3  -6  10   61.16   11.03
  -3   6  10   72.89   10.07
   3   6  10   72.07   11.81
  -3  -6  10   76.50   11.01
  -3   6 -10   87.90    9.85
  -4   6  10   12.37    5.96
   4  -6  10    3.83    4.04
  -4   6  10   12.48    5.55
  -4  -6  10    3.83    5.08
  -4   6 -10    2.83    4.77
   4   6  10    6.50    6.52
   5  -6  10   -3.63    5.62
  -5   6  10    4.03    5.34
  -5   6  10   -1.69    3.93
  -5  -6  10   -2.61    5.59
  -5   6 -10    4.01    4.28
   0  -7  10   -5.63    2.98
   0  -7  10   -1.30    2.89
   0   7  10   -0.51    1.91
   0   7  10   -3.88    3.62
   0   7 -10   -4.81    3.53
   0  -7 -10    0.35    2.03
  -1   7  10    1.71    3.98
   1   7 -10    4.63    3.16
   1  -7  10    4.04    4.61
  -1   7  10    4.38    3.22
  -1   7 -10    3.74    3.96
  -1  -7  10    5.23    3.32
  -1  -7  10    7.11    5.26
   1   7  10    7.70    5.37
   1  -7 -10    3.53    3.01
  -2   7  10   36.64    6.94
   2   7 -10   25.40    4.89
   2  -7  10   26.23    7.73
  -2   7  10   40.30    8.17
   2   7  10   34.75    8.71
  -2  -7  10   31.13    7.29
  -2   7 -10   23.58    7.15
  -2  -7  10   28.43    4.90
   3   7 -10   88.27    3.91
   3   7 -10   88.98    3.91
   3  -7  10  105.39   14.79
  -3   7  10   87.18   12.27
  -3   7  10  104.48   10.55
  -3   7 -10   82.97   11.24
  -3  -7  10   98.02   12.61
   3   7  10   91.97   13.54
  -4   7  10  100.00   11.58
  -4   7  10  114.84   12.92
   4  -7  10  130.10   14.88
   4   7  10  130.59   14.65
  -4  -7  10   97.24   15.58
  -5   7  10  205.92   17.38
  -5   7  10  150.31   15.69
   5  -7  10  169.39   17.57
   5   7  10  157.37   16.64
  -5  -7  10  181.77   16.15
  -5   7 -10  175.71   15.82
   0  -8  10  309.53   19.64
   0  -8  10  305.85   18.01
   0   8 -10  246.26   17.13
   0   8  10  289.25   12.37
   0  -8 -10  286.26   12.47
   0   8  10  269.65   19.33
  -1   8  10  112.91   12.89
   1  -8  10  134.37   12.98
   1   8 -10  134.40   10.57
  -1   8  10  120.10    9.21
  -1  -8  10  131.42   10.75
   1   8  10  110.84   12.71
  -1   8 -10  138.15   12.55
  -1  -8  10  139.28   12.94
   2  -8  10   46.69    9.42
  -2   8  10   42.75    7.80
  -2   8  10   34.53    8.79
   2   8 -10   36.67    5.91
  -2  -8  10   45.27    6.43
   2   8  10   35.97    8.94
  -2   8 -10   41.22    8.68
  -2  -8  10   39.15    8.41
  -3   8  10   44.18    9.64
  -3   8  10   61.31    9.63
   3  -8  10   60.97   11.45
   3   8 -10   61.40    4.79
   3   8  10   56.83   11.18
  -3   8 -10   57.60   11.77
  -3  -8  10   69.63   11.77
  -4   8  10   17.89    6.65
   4  -8  10   18.26    6.85
  -4   8 -10   11.17    6.33
   4   8  10   14.90    7.56
  -4  -8  10   11.22    6.75
  -5   8  10   -2.22    4.52
  -5   8  10   11.68    7.05
   5  -8  10    8.49    7.01
   5   8  10  -10.52    5.52
  -5  -8  10    2.84    5.71
  -5   8 -10   -3.62    5.03
   0   9  10    1.69    2.74
   0  -9  10    0.03    3.99
   0   9 -10    6.46    4.49
   0   9  10    0.03    2.42
   0   9  10    2.57    5.45
  -1   9  10   46.78    9.78
   1  -9  10   58.96   10.17
  -1   9  10   53.02    7.29
   1  -9 -10   49.35    7.24
   1   9  10   43.36    9.72
  -1   9 -10   47.80    9.84
  -1  -9  10   45.84    7.98
  -1  -9  10   51.53    9.96
  -2   9  10   32.29   10.60
  -2   9  10   30.49    6.53
   2  -9  10   37.27    8.99
  -2  -9  10   25.02    9.14
  -2   9 -10   43.71    9.62
  -2  -9  10   36.26    6.04
   2   9  10   35.23   10.73
   3   9 -10   84.92    6.58
  -3   9  10   64.23   12.21
  -3   9  10  101.76   11.38
   3  -9  10   89.03   13.91
   3   9 -10   62.95    6.30
  -3  -9  10   74.93   11.88
  -3   9 -10   74.48   12.06
   3   9  10   78.38   13.58
   4  -9  10   43.20   10.25
  -4   9  10   37.66    8.67
  -4   9  10   42.38   11.29
  -4  -9  10   38.13   10.02
  -4   9 -10   29.57    9.01
   4   9  10   41.96   10.84
   0  10 -10  193.05   16.08
   0  10  10  193.88   10.51
   0  10  10  162.19    9.85
   0 -10  10  191.80   15.28
   0  10  10  199.97   17.85
  -1  10  10  103.59   14.74
  -1  10  10  159.39   11.09
   1 -10  10  129.61   13.60
  -1 -10  10  142.68   14.76
   1 -10 -10  132.34   10.74
   1  10  10  127.99   14.73
  -1  10 -10  139.93   13.71
  -1 -10  10  154.71   12.52
   1  10  10  119.71    5.31
  -2  10  10    5.30    5.09
   2  10 -10    2.59    4.10
  -2  10  10   12.37    7.40
   2  10 -10    4.49    3.80
   2 -10  10    1.86    5.43
  -2  10 -10    2.68    4.46
   2  10  10   -9.27    5.23
  -2 -10  10    4.22    5.59
  -3  10  10   -1.99    4.38
   3  10 -10   -8.65    3.05
  -3  10  10   -1.86    5.86
   3  10 -10    4.64    3.34
   3 -10  10    0.91    5.61
  -3  10 -10   -1.17    6.47
  -3 -10  10   -4.52    5.51
   3  10  10   -2.62    5.64
   0  11  10    8.82    3.80
   0 -11  10    3.37    5.72
   0  11  10    7.97    6.93
   0  11 -10    3.81    5.03
   0  11  10    5.22    3.24
  -1  11  10    8.07    4.50
  -1  11  10    6.09    5.55
   1  11 -10    5.10    5.35
   1 -11  10   13.60    7.34
   1  11  10    3.03    5.85
  -1  11 -10    5.01    5.80
  -1 -11  10    2.40    4.15
   2 -11  10   -0.03    5.10
   2  11 -10   -4.20    3.85
  -2  11  10   -2.25    4.15
  -2  11  10    3.67    4.87
   2  11  10   -2.19    5.89
  -2  11 -10   -4.40    5.06
  -2 -11  10   -2.75    4.61
   0   0  11    9.27    2.90
   0   0 -11   13.51    3.58
   0   0  11   15.32    5.01
   0   0 -11   10.74    3.48
   1   0 -11   14.23    3.92
   1   0  11    7.86    3.00
   1   0  11   13.02    5.20
  -1   0  11    9.93    3.74
   1   0 -11   14.27    4.05
  -1   0 -11    9.78    4.22
  -1   0 -11    9.60    3.13
  -1   0  11   12.59    3.97
  -2   0 -11  141.15    8.24
   2   0 -11  128.21    9.82
  -2   0  11  129.07   10.13
   2   0 -11  139.03    8.68
   2   0  11  123.12   11.47
  -2   0  11  131.66    8.74
  -2   0 -11  124.68    7.87
  -3   0  11 1155.62   41.25
  -3   0  11 1123.87   35.51
   3   0  11 1054.74   42.69
  -3   0 -11 1085.41   36.03
  -3   0 -11 1159.48   36.45
  -3   0  11 1133.65   35.44
  -4   0 -11  255.10   13.51
  -4   0 -11  277.77   13.87
  -4   0  11  257.49   11.14
  -4   0  11  257.57   11.20
   4   0  11  291.76   19.66
  -4   0  11  266.94   17.17
  -5   0  11  253.40    9.65
  -5   0  11  296.96   19.17
  -5   0 -11  270.40   14.69
   5   0  11  282.25   20.60
  -5   0 -11  254.46   14.61
   6   0  11   13.80    7.61
  -6   0 -11   18.68    5.68
  -6   0  11   12.60    6.19
   0  -1 -11  363.96   18.09
   0   1 -11  379.87   17.84
   0  -1  11  395.88   18.18
   0   1  11  385.16   15.81
   0   1  11  392.20   18.68
   0  -1  11  393.88   17.15
   0  -1 -11  366.02   15.57
   0   1 -11  382.43   16.82
   1  -1  11 1043.70   38.05
  -1   1  11 1099.91   35.59
   1   1 -11 1040.41   36.36
  -1  -1 -11 1024.74   38.01
   1   1 -11 1033.64   34.84
  -1  -1 -11 1078.38   32.93
   1  -1  11 1043.03   35.09
  -1   1  11 1008.75   35.98
   1  -1 -11 1029.94   35.19
   1   1  11 1048.17   33.08
   1  -1 -11 1029.39   35.97
  -1   1 -11 1032.46   34.56
  -1  -1  11 1060.42   35.27
  -1  -1  11 1009.62   35.91
  -1   1 -11 1073.70   38.03
   2   1 -11   62.13    8.29
  -2  -1 -11   48.33    4.47
  -2  -1 -11   51.84    4.57
  -2   1  11   53.62    6.26
   2   1 -11   56.01    5.39
   2  -1  11   61.47    9.59
  -2   1 -11   50.75    5.64
   2  -1 -11   43.43    6.82
  -2  -1  11   46.92    7.36
   2  -1 -11   60.17    6.24
  -2   1 -11   47.09    5.36
   2   1  11   45.75    8.77
  -2  -1  11   50.66    5.37
   3  -1  11  242.11   16.72
  -3  -1 -11  247.69   10.97
  -3   1  11  246.70   12.51
  -3   1  11  258.84   15.40
  -3  -1 -11  240.65   11.05
  -3   1  11  244.59   12.52
  -3  -1  11  242.68   15.40
  -3   1 -11  247.54   13.07
  -3  -1  11  243.78   10.40
   3   1  11  239.41   17.19
  -3   1 -11  229.78   12.72
  -4  -1 -11  126.35    8.34
  -4   1  11  134.04    8.73
  -4   1  11  114.66   11.44
  -4  -1 -11  135.49    8.27
   4  -1  11  121.48   13.22
  -4   1  11  117.47    8.40
  -4   1 -11  118.40   10.31
   4   1  11  138.52   13.87
  -4   1 -11  124.31    9.77
  -4  -1  11  131.76   12.25
  -5   1  11   24.03    4.35
  -5  -1 -11   25.18    5.07
  -5  -1 -11   27.91    5.31
   5  -1  11   26.72    9.15
  -5   1  11   24.19    4.59
  -5   1  11   38.30    8.70
  -5  -1  11   25.11    7.45
  -5   1 -11   23.51    5.94
   5   1  11   25.19    8.63
  -6  -1 -11    2.11    3.75
  -6   1  11    1.74    3.51
  -6   1  11   -4.40    4.70
   6  -1  11    0.96    4.95
   6   1  11   -0.72    5.98
  -6   1 -11    3.14    4.43
  -6  -1  11    6.76    5.83
   0  -2 -11   -3.59    2.17
   0  -2  11    2.37    2.94
   0   2 -11   -3.02    2.12
   0   2  11    0.85    3.50
   0  -2  11   -1.13    2.87
   0   2  11   -3.61    1.56
   0  -2 -11    1.75    2.03
   1   2 -11  282.55   15.15
   1  -2  11  292.36   16.66
   1  -2  11  289.40   14.88
  -1   2  11  302.89   15.88
  -1   2  11  336.61   14.85
   1   2 -11  298.73   14.05
  -1  -2 -11  317.20   11.97
  -1  -2 -11  308.33   17.06
  -1   2 -11  299.47   16.30
   1   2  11  281.84   11.71
   1   2  11  310.34   17.50
  -1   2 -11  290.50   14.41
   1  -2 -11  285.21   15.30
  -1  -2  11  305.01   14.39
   1  -2 -11  291.81   14.13
  -2   2  11   30.48    5.89
  -2   2  11   42.33    6.64
   2   2 -11   40.23    4.63
   2  -2  11   29.33    7.29
  -2   2  11   37.57    6.24
  -2  -2 -11   35.35    3.41
  -2  -2 -11   36.04    3.35
  -2  -2  11   30.96    6.41
  -2   2 -11   37.69    6.66
  -2   2 -11   35.84    6.01
  -2  -2  11   37.94    4.55
   2  -2 -11   44.98    7.10
   2   2  11   38.90    7.85
   2  -2 -11   38.77    6.46
   3  -2  11  388.90   22.69
  -3   2  11  469.26   21.56
  -3  -2 -11  420.35   14.70
  -3   2  11  414.30   18.81
  -3  -2  11  411.58   13.64
  -3   2 -11  429.16   19.24
  -3  -2  11  412.85   21.37
  -3   2 -11  458.04   20.07
   3   2  11  448.27   24.01
  -3  -2  11  422.20   13.68
  -4   2  11   73.27    7.65
  -4  -2 -11   74.50    5.70
  -4   2  11   73.64    7.61
   4  -2  11   58.90   11.17
  -4  -2 -11   70.27    5.37
  -4   2  11   85.37   11.22
   4   2  11   85.36   12.60
  -4  -2  11   70.39   10.96
  -4   2 -11   84.19    8.76
   5  -2  11  326.44   22.92
  -5   2  11  343.19   16.64
  -5   2  11  362.72   16.76
  -5  -2 -11  336.78   15.06
  -5   2  11  376.95   22.11
  -5  -2 -11  345.16   15.05
  -5   2 -11  370.71   19.56
   5   2  11  339.07   22.94
  -6   2  11   12.87    6.06
  -6   2  11    1.96    4.89
  -6  -2 -11   11.32    4.32
  -6  -2 -11    8.57    7.81
  -6   2  11    1.11    3.70
   6  -2  11    7.58    6.86
   6   2  11    2.19    5.79
  -6  -2  11   -3.25    5.12
  -6   2 -11    6.40    4.43
   0  -3 -11   15.20    5.08
   0   3  11   22.17    3.67
   0  -3 -11   25.27    3.82
   0   3  11   21.21    6.08
   0   3 -11   18.34    4.71
   0  -3  11   26.17    5.19
   0   3 -11   17.03    4.99
   1   3 -11  555.60   23.56
  -1   3  11  568.61   24.20
  -1   3  11  509.46   20.50
  -1  -3 -11  533.85   17.26
   1   3 -11  509.09   20.51
   1  -3  11  529.81   23.31
  -1   3 -11  530.41   23.74
   1  -3 -11  536.29   20.80
  -1  -3  11  543.41   21.18
   1   3  11  539.42   25.11
   1  -3 -11  556.95   23.72
  -1  -3  11  513.03   22.94
   1   3  11  527.89   17.28
  -1   3 -11  553.79   22.63
  -2   3  11  381.93   18.59
  -2   3  11  395.42   18.63
   2  -3  11  386.23   21.32
   2   3 -11  406.32   15.17
  -2   3  11  409.11   19.35
  -2  -3  11  419.36   20.32
   2  -3 -11  399.63   18.60
  -2   3 -11  393.03   19.06
   2   3  11  375.65   21.36
  -2   3 -11  373.13   18.18
  -2  -3  11  416.94   15.39
  -3   3  11  728.28   30.60
  -3   3  11  815.02   30.48
  -3   3  11  755.60   29.83
   3  -3  11  703.34   33.49
   3   3  11  848.91   35.30
  -3   3 -11  798.12   30.51
  -3  -3  11  771.99   32.24
  -4  -3 -11   22.30    2.47
  -4   3  11   25.19    6.65
  -4   3  11   13.08    4.86
  -4   3  11   17.82    5.32
   4  -3  11   21.07    6.97
  -4  -3  11   20.24    6.15
  -4   3 -11   13.71    5.14
   4   3  11   20.23    8.00
  -5  -3 -11   10.86    3.05
  -5  -3 -11    6.84    2.68
  -5   3  11    6.57    4.97
  -5   3  11   10.40    5.42
   5  -3  11    5.06    6.17
  -5  -3  11    8.70    5.27
   5   3  11    5.75    5.91
  -5   3 -11    5.13    4.78
  -6  -3 -11   -1.42    5.65
  -6   3  11   10.63    6.28
  -6   3  11    3.71    4.31
  -6   3  11    1.83    8.23
   6  -3  11   18.50    7.99
  -6  -3 -11    4.51    3.53
  -6  -3  11   13.30    7.09
  -6   3 -11   16.12    5.63
   6   3  11    0.36    5.81
   0   4  11   -0.66    3.52
   0  -4  11    1.39    3.32
   0  -4 -11    1.10    1.96
   0   4  11    1.03    1.91
   0   4 -11   -0.62    3.23
   0  -4  11   -0.32    2.68
   1  -4  11   27.47    6.66
  -1  -4 -11   29.37    2.33
  -1   4  11   25.93    6.34
   1  -4  11   36.80    6.86
   1   4 -11   16.64    4.40
  -1   4  11   31.13    5.25
  -1  -4  11   31.16    5.62
   1   4  11   23.11    2.10
   1  -4 -11   31.01    5.00
   1   4  11   28.00    7.06
  -1   4 -11   29.26    6.53
   1  -4 -11   20.48    5.57
  -1  -4  11   19.70    5.33
   2  -4  11   70.35   10.48
  -2   4  11   71.67    9.53
  -2   4  11   64.51    9.17
   2   4 -11   59.40    5.18
  -2  -4  11   67.33    5.57
  -2   4 -11   67.45    9.02
   2  -4 -11   67.82    8.50
   2   4  11   58.47   10.29
  -2  -4  11   50.59    8.31
  -3   4  11  460.57   21.58
   3  -4  11  422.59   23.88
  -3   4  11  380.46   22.65
  -3   4  11  440.62   21.25
  -3   4 -11  457.28   21.52
   3   4  11  391.30   23.32
  -3  -4  11  404.33   21.78
  -4   4  11    3.43    3.81
   4  -4  11  -10.04    3.60
  -4   4  11   -4.76    2.96
  -4  -4  11    0.32    3.09
   4   4  11    0.40    5.30
  -4   4 -11    0.00    4.14
  -5   4  11  234.04   17.58
   5  -4  11  227.89   18.96
  -5   4 -11  272.38   17.71
   5   4  11  253.48   22.66
  -5  -4  11  254.31   18.42
  -6   4  11   53.09    8.73
   6  -4  11   62.80   12.84
  -6   4  11   48.03    9.73
  -6  -4 -11   44.45    4.70
  -6   4 -11   71.04   11.79
   6   4  11   40.87   10.79
  -6  -4  11   59.78   11.07
   0  -5 -11   98.72    6.29
   0   5  11   94.33    6.06
   0   5 -11   85.28    8.95
   0   5  11   95.89   10.59
   0  -5  11  108.36    9.52
   0  -5  11   95.73    9.85
  -1   5  11  850.21   28.79
   1  -5  11  778.51   32.92
   1   5 -11  822.91   29.34
   1  -5  11  841.03   33.50
  -1   5  11  822.01   33.65
  -1   5 -11  815.21   32.49
   1   5  11  804.60   34.48
  -1  -5  11  802.52   32.94
  -1  -5  11  807.85   29.45
   1  -5 -11  800.23   28.34
  -2   5  11  247.78   14.23
  -2   5  11  271.02   16.84
   2  -5  11  233.05   16.77
   2   5 -11  234.39   10.92
  -2   5 -11  222.52   14.75
  -2  -5  11  232.58   10.90
   2   5  11  227.82   16.49
  -2  -5  11  256.06   16.37
   2  -5 -11  221.49   13.28
  -3   5  11  397.54   20.59
   3  -5  11  397.85   23.86
  -3   5  11  380.49   21.10
  -3  -5  11  446.87   23.14
   3   5  11  410.71   24.05
  -3   5 -11  410.12   21.46
   4  -5  11   54.94   11.29
  -4   5  11   77.06   11.32
  -4   5  11   54.46    9.22
  -4   5 -11   59.23   10.02
   4   5  11   57.09   11.40
  -4  -5  11   69.15   10.85
  -5   5  11   17.76    6.50
  -5   5  11    5.41    5.56
   5  -5  11   14.71    7.76
  -5   5 -11    8.66    5.29
   5   5  11    2.64    6.10
  -5  -5  11    9.94    6.57
   0  -6 -11   -2.06    1.87
   0  -6  11    3.05    4.53
   0   6 -11   -4.03    2.81
   0   6  11    1.98    3.51
   0   6  11    7.24    2.24
   1   6 -11   72.00    7.72
   1  -6  11   70.01   10.36
  -1   6  11   60.50    6.37
  -1   6  11   62.89    9.96
  -1  -6  11   54.33    7.55
  -1   6 -11   63.39    9.37
   1  -6 -11   71.80    6.57
  -1  -6  11   50.82    8.90
   1   6  11   77.61   11.55
  -2   6  11    6.76    4.08
  -2   6  11    9.56    5.41
   2   6 -11    4.57    3.05
   2  -6  11    4.18    4.63
  -2   6 -11    6.39    4.87
  -2  -6  11    5.07    2.64
   2   6  11    9.38    5.57
   2  -6 -11    6.19    3.90
  -2  -6  11    0.86    3.83
   3  -6  11  111.94   13.06
  -3   6  11  127.08   12.22
  -3   6  11  120.61   11.51
  -3   6 -11  116.06   12.02
  -3  -6  11  111.58   11.62
   3   6  11  119.66   13.73
  -4   6  11   10.70    5.65
  -4   6  11   16.80    6.54
   4  -6  11   14.91    6.15
  -4   6 -11    5.15    5.07
   4   6  11   12.42    7.25
   5  -6  11  162.30   17.35
  -5   6  11  169.23   15.29
  -5   6  11  127.68   13.76
  -5  -6  11  166.94   16.00
   5   6  11  160.58   17.84
  -5   6 -11  163.60   15.03
   0   7  11    9.11    5.48
   0  -7  11   11.03    5.21
   0   7  11   12.52    2.96
   0  -7  11   18.75    5.60
   0  -7 -11   16.63    3.34
  -1   7  11  671.70   31.36
   1  -7  11  650.26   30.01
  -1   7  11  674.78   25.03
  -1  -7  11  724.00   27.39
   1   7  11  644.77   31.60
  -1   7 -11  637.59   29.75
   1  -7 -11  658.64   24.84
  -1  -7  11  622.92   30.09
   2   7 -11  191.76   10.90
  -2   7  11  187.97   12.70
   2  -7  11  196.05   16.30
  -2   7  11  195.94   15.92
  -2   7 -11  187.04   14.88
   2   7  11  172.02   15.35
  -2  -7  11  189.42   10.73
  -2  -7  11  210.60   15.93
   3  -7  11  125.81   14.22
  -3   7  11  123.98   12.89
  -3   7  11  115.78   11.37
  -3  -7  11  167.93   14.24
   3   7  11  156.82   15.77
  -3   7 -11  129.21   13.02
  -4   7  11   34.93    8.32
   4  -7  11   53.37   11.40
  -4   7  11   52.36   10.49
   4   7  11   60.50   11.70
  -4   7 -11   51.65   10.11
  -4  -7  11   30.62    8.15
   5  -7  11   -0.77    6.13
  -5   7  11    9.72    6.07
  -5  -7  11    3.56    5.13
  -5   7 -11    7.11    5.46
   5   7  11   -9.09    5.30
   0   8  11    2.76    2.15
   0   8  11   -4.02    2.87
   0  -8  11    5.63    4.93
   0  -8  11   -0.31    4.36
   0  -8 -11   -1.79    2.31
  -1   8  11   38.83    6.22
  -1   8  11   30.17    8.70
   1   8 -11   39.94    7.57
   1  -8  11   41.49    9.15
  -1   8 -11   43.20    8.35
  -1  -8  11   50.86    9.44
   1   8  11   35.89    9.38
  -1  -8  11   42.57    8.35
   2  -8  11   -2.07    3.78
  -2   8  11    1.54    4.42
  -2   8  11   -3.32    3.42
   2   8 -11   -0.52    3.12
  -2  -8  11    2.84    2.95
  -2  -8  11   -0.89    4.47
  -2   8 -11   -5.05    3.29
   2   8  11   -0.40    4.92
   3   8 -11  150.24    8.89
  -3   8  11  157.16   15.19
   3  -8  11  161.38   16.27
  -3   8  11  161.42   13.77
  -3   8 -11  174.49   15.15
  -3  -8  11  150.35   15.08
   3   8  11  154.02   18.06
  -4   8  11   21.63    7.91
   4  -8  11   25.29    8.10
  -4  -8  11   16.70    7.28
   4   8  11   14.86    7.48
  -4   8 -11   33.38    8.95
   0   9  11  176.12    9.36
   0   9  11  179.56    9.55
   0  -9  11  194.56   14.89
  -1   9  11  179.79   11.63
   1  -9  11  164.78   14.88
   1   9  11  161.05   18.38
   1  -9 -11  157.59   10.98
  -1  -9  11  175.32   12.83
  -1   9 -11  162.23   17.03
  -1  -9  11  166.38   17.60
   2  -9  11   16.06    7.07
  -2   9  11   24.40    6.09
  -2   9  11    7.88    6.31
   2   9  11   17.57    6.89
  -2  -9  11   25.98    5.42
  -2  -9  11   10.44    6.39
  -2   9 -11   11.71    6.52
  -3   9  11  181.89   14.08
   3  -9  11  184.86   17.06
   3   9 -11  157.65    8.95
  -3   9  11  165.09   16.56
   3   9 -11  191.13    9.36
  -3  -9  11  218.28   17.56
  -3   9 -11  185.67   16.11
   3   9  11  216.42   18.62
  -4   9  11   19.03    6.80
  -4   9  11   31.43    9.77
   4  -9  11   43.19   10.85
  -4   9 -11   37.69    9.79
  -4  -9  11   16.79    7.81
   4   9  11   15.36    8.26
   0  10  11    6.89    3.08
   0  10 -11    5.62    5.67
   0  10  11   -9.19    4.27
   0 -10  11    4.09    4.78
  -1  10  11    0.58    5.01
   1 -10  11    0.46    5.87
  -1  10  11    0.43    3.71
   1 -10 -11   -0.72    4.89
  -1 -10  11   19.18    7.83
  -1 -10  11    0.10    4.30
   1  10  11    5.26    6.52
  -1  10 -11   -2.49    4.02
   2 -10  11    8.81    4.80
   2  10 -11   -9.25    3.78
  -2  10  11   -5.83    3.65
  -2  10  11    3.85    6.25
  -2 -10  11    2.49    4.09
  -2  10 -11   10.36    6.20
   2  10  11    3.10    7.07
  -2 -10  11    4.34    6.27
   3  10 -11   33.44    5.20
  -3  10  11   34.04    8.23
  -3  10  11   36.05   10.46
   3 -10  11   23.44    8.38
  -3 -10  11   19.96    7.59
  -3  10 -11   23.14    8.49
   3  10  11   16.92    9.58
   0  11 -11   36.51    8.91
   0 -11  11   18.30    7.03
   0  11  11   32.30   10.14
   0  11  11   34.35    5.05
  -1  11  11   85.24    8.70
   1  11 -11   74.14   12.53
  -1  11  11   73.60   12.81
   1 -11  11   73.09   12.16
  -1  11 -11   69.90   12.16
  -1 -11  11   65.53   12.75
   1  11  11   84.32   14.54
  -1 -11  11  102.93   11.06
   2  11 -11    9.10    5.42
   2 -11  11   15.66    7.97
  -2  11  11   10.69    8.38
   2  11  11    6.61    7.57
   0   0 -12 2869.59   83.62
   0   0  12 2823.35   83.59
   0   0 -12 2879.56   86.55
   0   0  12 2924.42   86.79
  -1   0 -12  133.86    8.44
  -1   0  12  113.97    9.17
  -1   0 -12  111.22   10.32
   1   0 -12  127.82    9.24
   1   0  12  122.36   11.30
   1   0  12  119.40    8.38
  -1   0  12  121.03    9.38
   1   0 -12  125.77    9.23
   2   0 -12  380.89   16.78
  -2   0 -12  356.32   15.72
  -2   0 -12  405.63   16.17
  -2   0  12  364.64   16.75
  -2   0  12  411.43   19.37
   2   0  12  384.83   21.27
  -3   0 -12   58.03    5.82
  -3   0  12   63.33    8.98
  -3   0  12   55.53    5.89
  -3   0  12   66.46    6.25
  -3   0 -12   57.59    6.02
   3   0  12   67.33   10.76
  -4   0 -12   10.35    3.65
  -4   0  12   10.08    2.96
  -4   0 -12    8.63    3.85
  -4   0  12    8.16    2.85
  -4   0  12   13.36    5.10
   4   0  12    6.33    5.85
  -5   0 -12    3.94    3.77
  -5   0  12    0.46    1.58
  -5   0 -12   -0.85    3.94
  -5   0  12   -7.01    3.70
  -6   0 -12    0.28    4.00
  -6   0  12   -9.18    3.54
   6   0  12    2.64    6.76
   0  -1  12   -1.27    3.44
   0  -1  12    0.43    2.82
   0   1  12   -0.75    2.18
   0  -1 -12    1.96    2.40
   0   1 -12   -1.32    2.00
   0  -1 -12   -1.36    3.04
   0   1  12    3.06    3.56
   1   1 -12    5.93    3.29
  -1   1  12    1.15    2.52
  -1   1  12    6.47    4.05
   1   1 -12    4.46    2.69
   1  -1  12    2.93    3.09
  -1  -1 -12    6.63    4.14
   1  -1  12    5.62    4.61
  -1  -1 -12    8.83    2.74
   1   1  12   -1.27    3.96
  -1   1 -12    2.52    2.92
  -1   1 -12    2.29    3.58
   1  -1 -12    0.10    2.78
  -1  -1  12   -0.42    2.99
   1   1  12    1.29    1.90
   1  -1 -12    4.44    3.03
  -2  -1 -12  472.15   17.57
  -2   1  12  495.93   20.69
   2  -1  12  508.28   24.74
  -2   1  12  461.22   21.38
  -2  -1 -12  477.73   17.65
   2   1 -12  467.29   18.71
   2  -1 -12  483.28   20.43
   2   1  12  466.50   24.20
  -2  -1  12  500.66   22.35
  -2  -1  12  468.42   18.95
  -2   1 -12  470.39   19.45
  -2   1 -12  508.81   20.09
   2  -1 -12  448.30   21.17
  -3  -1 -12    4.13    2.39
  -3  -1 -12    1.87    2.22
   3  -1  12   -0.11    3.03
  -3   1  12    2.54    3.05
  -3   1  12    0.32    3.08
  -3   1  12    1.33    2.78
  -3   1 -12    0.72    2.81
   3   1  12    6.94    5.41
  -3  -1  12    1.86    2.56
  -3  -1  12    3.12    3.82
  -3   1 -12    4.16    3.07
  -3  -1  12    1.17    2.31
  -4  -1 -12  403.15   16.99
   4  -1  12  455.22   25.82
  -4  -1 -12  452.02   17.62
  -4   1  12  439.63   23.07
  -4   1  12  432.55   18.01
  -4   1  12  432.88   17.88
  -4  -1  12  416.33   12.91
  -4   1 -12  441.39   19.65
   4   1  12  412.42   24.87
  -4   1 -12  423.26   19.98
  -4  -1  12  484.48   24.34
  -4  -1  12  388.50   12.78
  -5   1  12   17.82    6.90
   5  -1  12   21.64    9.48
  -5   1  12   12.50    3.76
  -5  -1 -12   18.24    4.28
  -5   1  12    9.95    3.49
  -5  -1 -12   20.83    4.75
  -5   1 -12    7.55    4.46
  -5  -1  12   14.28    6.45
  -6   1  12  248.96   19.00
  -6   1  12  202.02    9.72
  -6  -1 -12  230.58   13.76
   6  -1  12  257.34   20.77
  -6  -1  12  251.58   19.25
  -6   1 -12  229.42   15.30
   6   1  12  222.42   19.71
   0   2  12  834.78   27.46
   0   2 -12  774.25   32.55
   0  -2 -12  785.14   31.51
   0   2 -12  811.58   29.96
   0   2  12  811.59   31.98
   0  -2  12  836.36   30.95
   0  -2  12  770.66   29.89
   0  -2 -12  755.85   26.94
  -1   2  12   56.86    6.28
  -1  -2 -12   49.70    4.66
   1   2 -12   41.19    6.88
  -1   2  12   56.66    8.35
   1  -2  12   43.77    6.83
   1   2 -12   53.35    6.23
   1  -2  12   58.33    8.98
  -1  -2  12   54.38    6.42
   1   2  12   50.09    4.77
   1   2  12   49.31    8.55
   1  -2 -12   53.51    6.02
  -1  -2  12   55.23    7.91
   1  -2 -12   49.01    7.72
  -1   2 -12   57.95    6.38
  -1   2 -12   46.99    8.13
   2  -2  12  511.63   25.83
  -2   2  12  543.95   23.22
  -2  -2 -12  536.07   21.40
   2   2 -12  523.66   20.00
  -2  -2 -12  551.16   18.06
  -2   2  12  586.45   23.88
  -2   2 -12  546.91   22.60
  -2  -2  12  587.46   25.03
  -2  -2  12  516.44   20.12
  -2   2 -12  536.39   22.26
   2   2  12  533.09   26.48
   2  -2 -12  540.66   23.28
  -3   2  12   63.71    7.58
  -3   2  12   69.07    9.43
  -3  -2 -12   75.05    4.92
  -3   2  12   64.54    7.26
   3  -2  12   79.39   12.01
  -3   2 -12   63.63    7.15
  -3  -2  12   73.49   10.23
  -3  -2  12   62.27    4.47
   3   2  12   71.02   11.68
  -3  -2  12   77.69    5.05
  -3   2 -12   76.26    8.08
  -4   2  12   52.69    7.37
  -4   2  12   61.86    7.98
  -4  -2 -12   58.58    5.03
  -4   2  12   52.91    9.33
  -4  -2 -12   62.32    4.99
   4  -2  12   62.76   11.52
  -4  -2  12   54.63    9.77
  -4   2 -12   71.19    8.96
   4   2  12   67.55   11.40
  -5  -2 -12   33.83    4.90
  -5   2  12   30.55    5.98
   5  -2  12   35.29    8.94
  -5   2  12   18.96    5.34
  -5   2  12   38.71    9.02
  -5  -2 -12   27.81    4.73
  -5   2 -12   38.01    7.78
   5   2  12   19.12    7.97
  -5  -2  12   25.07    7.82
  -6   2  12    4.10    5.40
   6  -2  12    4.83    6.27
  -6  -2 -12    6.50    3.94
  -6   2  12   -1.09    3.84
   6   2  12   11.82    7.66
  -6   2 -12   11.31    5.39
  -6  -2  12    6.61    6.05
   0  -3  12   -2.07    2.79
   0  -3 -12    0.19    2.21
   0   3  12    3.72    2.24
   0  -3  12   -6.69    2.21
   0   3 -12    4.18    3.19
   0   3  12   -2.90    3.38
   1  -3  12    9.24    4.95
   1   3 -12    8.86    3.51
  -1   3  12   14.18    4.06
  -1   3  12   13.46    4.95
   1  -3  12    8.84    3.93
  -1  -3  12    8.91    4.38
   1  -3 -12   13.41    4.62
   1   3  12   13.02    2.53
   1   3  12    7.58    5.23
  -1   3 -12    8.26    3.50
   1  -3 -12    7.35    3.33
  -1   3 -12    8.24    4.77
  -1  -3  12    8.38    3.82
   2  -3  12  237.70   17.01
  -2   3  12  266.09   15.08
  -2   3  12  270.01   14.96
  -2  -3 -12  273.17    8.45
   2   3 -12  276.00   12.12
  -2  -3 -12  253.60    8.26
  -2   3  12  255.05   17.62
  -2   3 -12  251.65   14.64
  -2  -3  12  276.87   12.24
   2   3  12  256.35   17.83
  -2  -3  12  258.93   16.08
  -2   3 -12  244.45   14.57
   2  -3 -12  263.12   14.61
   3  -3  12   92.98   12.82
  -3   3  12   68.70    9.54
  -3   3  12   50.26    7.61
  -3  -3  12   54.97    2.79
  -3   3 -12   65.63    9.19
   3   3  12   52.32   10.16
  -3  -3  12   65.73    3.01
  -3  -3  12   67.31    9.76
  -4   3  12  540.40   25.67
  -4  -3 -12  434.71   14.99
  -4   3  12  473.22   22.25
   4  -3  12  500.58   27.73
  -4   3  12  540.13   25.72
  -4  -3  12  484.94   25.62
   4   3  12  484.65   27.07
  -4   3 -12  490.63   23.14
   5  -3  12   -4.24    4.48
  -5   3  12    0.61    4.47
  -5   3  12    1.96    5.03
  -5   3  12   -3.41    3.71
  -5  -3 -12   -0.16    1.78
  -5  -3  12   10.75    6.92
  -5   3 -12    2.48    4.67
   5   3  12    2.34    6.16
  -6   3  12  150.28   12.00
  -6   3  12  143.64   15.23
  -6  -3 -12  141.80    8.61
   6  -3  12  146.28   16.73
  -6  -3  12  128.26   14.61
  -6   3 -12  138.68   13.11
   6   3  12  157.55   16.41
   0   4  12 1229.91   45.53
   0   4  12 1232.88   37.99
   0  -4  12 1262.41   43.35
   0   4 -12 1185.15   42.44
   0  -4  12 1212.90   44.31
   0  -4 -12 1313.60   38.40
  -1   4  12   33.38    7.49
   1  -4  12   30.13    6.88
  -1  -4 -12   36.18    2.92
   1   4 -12   36.85    5.95
   1  -4  12   48.47    8.42
  -1   4  12   27.56    5.22
   1   4  12   31.44    7.61
  -1  -4  12   36.77    6.01
   1  -4 -12   37.96    5.75
  -1  -4  12   25.55    6.39
  -2   4  12  270.25   16.96
   2  -4  12  276.87   18.29
  -2   4  12  277.63   15.33
   2   4 -12  286.31   12.60
   2   4  12  293.49   19.31
   2  -4 -12  299.44   15.73
  -2  -4  12  282.93   17.41
  -2   4 -12  326.85   17.30
  -2  -4  12  287.77   12.79
  -3   4  12   11.20    5.37
  -3   4  12   11.75    5.32
   3  -4  12    9.66    6.63
  -3   4 -12    8.21    4.52
  -3  -4  12    4.27    3.77
   3   4  12   14.15    6.89
  -4   4  12   60.15    9.16
  -4   4  12   67.53   10.40
   4  -4  12   87.28   13.44
  -4  -4  12   59.56   10.36
  -4   4 -12   51.00    8.97
   4   4  12   49.88   11.04
  -5   4  12   -1.43    5.02
  -5   4  12   -4.40    4.31
   5  -4  12    2.01    5.74
  -5   4 -12   -8.49    3.37
   5   4  12    3.79    6.31
  -5  -4  12   -1.04    4.33
   0  -5 -12   -2.36    1.69
   0  -5  12   -3.96    3.06
   0   5 -12   -4.36    2.76
   0   5  12   -1.70    1.80
   0   5  12   -3.11    3.66
  -1   5  12   -0.35    3.79
   1  -5  12   -2.56    3.40
   1  -5  12    4.93    4.62
   1   5 -12   -0.03    3.32
  -1   5  12    1.86    2.58
   1   5  12    1.31    4.98
  -1   5 -12    0.28    3.15
  -1  -5  12    2.82    4.28
  -1  -5  12   -2.43    2.79
   1  -5 -12    1.72    2.54
  -2   5  12  111.45    9.20
   2   5 -12   70.34    6.22
  -2   5  12   74.30   10.40
   2  -5  12   64.65   10.53
   2  -5 -12   88.15    8.67
  -2  -5  12   91.59    9.85
  -2  -5  12   88.72    6.64
   2   5  12   84.45   12.74
  -2   5 -12   68.74    9.85
  -3   5  12   32.41    7.05
   3  -5  12   32.30    8.66
  -3   5  12   43.85    8.20
  -3   5 -12   48.36    8.50
  -3  -5  12   44.24    8.88
   3   5  12   24.73    8.14
  -4   5  12  290.70   18.83
   4  -5  12  262.37   23.33
  -4   5  12  341.02   19.91
   4   5  12  278.55   21.21
  -4  -5  12  314.92   23.97
  -4   5 -12  314.05   19.22
  -5   5  12   -0.88    4.75
  -5   5  12    7.29    5.65
   5  -5  12    8.75    6.03
   5   5  12  -10.78    5.89
  -5  -5  12    0.05    5.34
   0  -6  12 1083.26   39.44
   0  -6  12 1071.07   41.12
   0  -6 -12 1004.62   32.15
   0   6 -12  989.08   38.18
   0   6  12 1044.15   32.23
   0   6  12 1052.83   42.28
   1   6 -12   -1.26    3.23
  -1   6  12   -5.35    2.60
   1  -6  12   -1.34    4.92
  -1   6  12   -2.77    3.78
  -1   6 -12   -0.76    2.94
   1   6  12    4.89    4.70
  -1  -6  12   -0.58    3.90
   1  -6 -12   -6.97    2.51
  -1  -6  12    0.56    3.41
   2  -6  12  187.67   15.82
  -2   6  12  195.89   15.23
  -2   6  12  197.26   12.48
   2   6 -12  184.66   10.33
   2   6  12  176.29   15.89
  -2   6 -12  183.98   14.19
  -2  -6  12  207.12   15.67
  -2  -6  12  186.03   10.29
  -3   6  12   10.87    6.38
  -3   6  12    4.71    4.25
   3  -6  12    4.47    5.25
  -3  -6  12   10.45    5.64
  -3   6 -12   -2.08    3.74
   3   6  12   -0.34    4.16
  -4   6  12    7.13    5.01
   4  -6  12   -0.81    4.51
  -4   6  12    4.91    4.72
   4   6  12   -5.02    5.91
  -4   6 -12   -0.84    4.45
  -4  -6  12    1.78    4.95
  -5   6  12   14.12    6.20
   5  -6  12    6.33    6.51
  -5   6  12   25.64    7.87
   5   6  12   10.12    7.91
  -5   6 -12   21.45    7.31
  -5  -6  12   12.38    6.86
   0   7  12    2.09    4.40
   0  -7 -12   -2.22    1.98
   0  -7  12    2.63    3.87
   0  -7  12    3.22    4.69
   0   7  12   -4.58    1.69
   1   7 -12    2.43    3.89
   1  -7  12    1.64    4.96
  -1   7  12   -2.52    3.41
  -1   7  12   -0.95    2.47
  -1  -7  12    2.03    3.66
   1  -7 -12    6.27    3.84
  -1   7 -12    4.29    4.63
  -1  -7  12   -2.27    3.22
   1   7  12    0.73    3.97
  -2   7  12  136.64   10.90
  -2   7  12  147.75   13.96
   2   7 -12  118.94    8.91
   2  -7  12  152.00   14.64
   2   7  12  126.85   14.36
  -2  -7  12  148.45    9.20
  -2   7 -12  120.82   12.29
  -2  -7  12  157.96   13.85
   3  -7  12   28.55    9.70
  -3   7  12   28.85    6.83
  -3   7  12   30.26    7.90
  -3  -7  12   25.60    6.53
  -3   7 -12   16.07    6.61
  -4   7  12  142.40   15.35
   4  -7  12  195.29   18.23
  -4   7  12  169.24   15.59
  -4  -7  12  165.47   15.53
  -4   7 -12  181.08   15.64
   4   7  12  157.43   15.87
   0   8  12  460.81   16.95
   0  -8 -12  476.50   17.37
   0  -8  12  444.95   25.62
   0   8  12  463.08   26.63
   0  -8  12  508.22   24.46
  -1   8  12    3.07    5.23
   1   8 -12    4.90    4.80
  -1   8  12    2.91    3.14
   1  -8  12    1.40    4.12
  -1  -8  12    6.27    4.17
  -1   8 -12    6.54    5.00
   1   8  12   -1.77    4.82
  -1  -8  12   -0.96    4.07
  -2   8  12   89.03   13.20
   2  -8  12   99.04   14.23
  -2   8  12   96.69    9.38
   2   8 -12   78.15    7.93
  -2  -8  12   94.24   13.70
   2   8  12   64.04   11.92
  -2  -8  12  102.83    8.47
   3   8 -12   -2.60    1.48
  -3   8  12    1.32    3.38
   3  -8  12    3.75    6.27
  -3   8 -12   -5.42    4.82
  -3  -8  12    3.69    6.06
   3   8  12  -10.23    4.23
   4  -8  12   13.79    7.59
  -4   8  12   14.08    7.39
  -4   8  12   20.19    6.77
   4   8  12   15.04    8.13
  -4  -8  12   20.22    7.26
  -4   8 -12   16.22    7.14
   0  -9  12    0.10    4.03
   0   9  12   -0.90    2.31
   0  -9  12    5.49    5.43
   0   9  12   -9.35    3.89
   0   9 -12   -4.86    2.74
   0   9  12    6.95    2.89
   1  -9  12   34.89    8.45
  -1   9  12   26.92    5.94
  -1   9  12   26.43    8.56
  -1  -9  12   38.18    7.36
  -1  -9  12   24.69    7.81
  -1   9 -12   19.11    6.97
   1  -9 -12   15.42    5.60
   1   9  12   16.41    8.06
  -2   9  12   83.08   13.39
  -2   9  12   69.81    9.11
   2  -9  12   56.58   13.00
  -2   9 -12   78.09   12.21
  -2  -9  12   63.86    7.62
   2   9  12   51.38   11.06
  -2  -9  12   74.41   12.14
  -3   9  12    4.80    4.67
   3   9 -12    0.66    3.17
   3  -9  12    0.30    5.22
   3   9 -12   -1.13    2.34
  -3   9  12    6.16    6.04
  -3   9 -12    3.87    5.63
  -3  -9  12   -1.51    5.52
   0  10  12   62.63   12.57
   0  10  12   71.46    5.83
   0 -10  12   78.94   11.39
   0  10 -12   48.33   11.04
   0  10  12   59.78    5.90
   1 -10  12   -1.25    5.13
  -1  10  12   -6.84    4.28
  -1  10  12    4.05    3.64
  -1  10 -12   -3.30    4.72
  -1 -10  12    1.42    5.20
   1  10  12    8.24    7.12
  -1 -10  12   -1.26    3.96
   1 -10 -12  -14.71    5.26
  -2  10  12   73.71   13.63
  -2  10  12   69.71    9.42
   2 -10  12   77.60   13.84
  -2 -10  12   78.22    8.59
  -2  10 -12   68.79   11.79
  -2 -10  12   91.51   13.69
   2  10  12   90.61   14.57
   0  11  12   -5.31    5.36
   0  11  12   -1.43    2.39
   0 -11  12    0.84    5.83
   0  11 -12   -8.34    3.84
   0   0  13    9.66    3.47
   0   0 -13   13.49    4.15
   0   0 -13    8.70    4.12
   1   0  13   23.36    4.84
  -1   0  13   20.01    5.48
   1   0 -13   12.79    4.64
   1   0  13   18.60    6.31
   1   0 -13   12.87    4.87
  -1   0 -13   19.38    4.35
  -2   0  13   -0.39    3.06
   2   0 -13    0.34    2.60
  -2   0 -13   -0.76    2.53
  -2   0  13    0.41    3.76
  -2   0 -13    0.20    2.44
   2   0  13   -3.69    3.75
  -3   0 -13  169.99   10.58
  -3   0 -13  199.72   10.88
  -3   0  13  189.18   10.89
  -3   0  13  173.40   13.66
  -3   0  13  177.44   10.27
   3   0  13  187.53   15.98
  -4   0 -13  410.95   18.07
  -4   0  13  378.15   15.58
  -4   0  13  374.28   22.15
   4   0  13  434.70   25.75
  -4   0  13  399.66   15.62
  -5   0  13  133.73    5.45
  -5   0 -13  150.83   10.73
   5   0  13  166.51   15.85
  -5   0  13  100.88    6.24
  -5   0 -13  129.15   10.77
  -5   0  13  141.61   14.02
  -6   0  13   66.66   11.61
  -6   0 -13   50.33    8.34
   6   0  13   38.00   10.75
   0  -1 -13  416.18   17.65
   0   1 -13  385.26   18.19
   0  -1 -13  394.52   20.04
   0   1  13  427.50   17.82
   0  -1  13  411.05   20.36
   0  -1  13  438.92   19.26
   0   1 -13  410.64   19.91
   0   1  13  409.38   20.86
   1  -1  13  975.60   34.48
  -1   1  13  970.79   36.02
  -1  -1 -13 1004.38   32.29
   1   1 -13  955.34   35.78
   1   1 -13 1003.80   34.92
  -1   1  13  977.74   34.44
   1  -1  13  922.34   37.29
  -1  -1  13 1041.65   35.38
   1  -1 -13  997.99   34.81
  -1  -1  13  960.85   35.52
   1  -1 -13  940.78   35.51
   1   1  13  953.80   32.35
   1   1  13 1001.88   38.59
   2  -1  13  454.84   24.08
  -2  -1 -13  459.62   17.44
  -2   1  13  465.75   20.61
  -2   1  13  459.65   21.32
   2   1 -13  449.25   18.78
  -2  -1 -13  434.34   17.15
  -2  -1  13  426.16   18.72
   2   1  13  472.38   24.66
  -2   1 -13  443.47   21.00
  -2  -1  13  437.02   21.41
  -2   1 -13  484.20   19.83
   2  -1 -13  439.36   19.90
  -3  -1 -13  480.33   18.04
  -3   1  13  500.27   23.98
  -3   1  13  439.87   19.65
  -3   1  13  487.15   20.43
  -3  -1 -13  464.97   17.78
   3  -1  13  498.61   26.18
  -3  -1  13  459.50   23.61
  -3   1 -13  466.65   20.24
  -3  -1  13  479.35   18.00
   3   1  13  479.18   25.76
  -3   1 -13  472.99   20.19
  -3  -1  13  466.24   17.82
  -4   1  13   10.68    5.78
  -4  -1 -13    8.14    3.37
   4  -1  13    4.60    5.97
  -4   1  13   11.70    3.87
  -4  -1 -13    6.17    3.23
  -4   1  13    4.71    3.37
  -4   1 -13    0.40    3.70
   4   1  13    7.12    6.50
  -4  -1  13    1.83    4.31
  -4   1 -13   11.33    4.44
  -4  -1  13    8.52    1.82
   5  -1  13   22.77    8.76
  -5  -1 -13    9.44    4.11
  -5   1  13   10.98    3.55
  -5   1  13   13.57    6.51
  -5  -1 -13   13.80    4.76
  -5   1  13   17.58    3.97
  -5   1 -13   21.90    5.57
  -5  -1  13   34.65    8.60
   5   1  13   15.63    7.92
  -6   1  13   19.45    7.92
  -6  -1 -13   30.96    6.45
   6  -1  13   11.87    7.77
  -6   1 -13   15.44    6.25
   6   1  13   32.17   10.34
  -6  -1  13   31.54    9.33
   0   2  13   -5.99    3.39
   0   2 -13    6.40    3.46
   0   2  13    1.37    2.42
   0  -2  13    0.06    3.68
   0  -2 -13   -0.89    2.17
   0   2 -13   -0.54    3.46
   0  -2  13    3.07    3.63
  -1   2  13   97.64    9.86
   1  -2  13  122.25   11.61
  -1   2  13  107.37    8.74
   1   2 -13   99.04    8.57
  -1  -2 -13  112.66    7.10
  -1   2 -13  102.77    8.71
   1  -2 -13  101.35    9.90
   1   2  13  119.05   11.96
   1   2  13  107.23    7.12
   1  -2 -13   97.72    9.31
  -1  -2  13  108.60    9.94
  -1  -2  13  116.36    9.41
  -2   2  13  349.92   18.03
  -2   2  13  352.26   17.78
   2  -2  13  315.55   19.95
  -2  -2 -13  341.67   12.94
  -2  -2 -13  339.70   12.81
   2   2 -13  303.35   14.53
  -2  -2  13  336.23   15.28
  -2   2 -13  306.17   16.24
  -2   2 -13  343.30   16.89
   2   2  13  316.61   20.16
   2  -2 -13  329.32   17.33
  -2  -2  13  348.68   18.72
  -3  -2 -13  114.34    6.44
  -3   2  13  107.01    9.42
  -3   2  13  122.97   10.29
  -3  -2 -13  118.23    6.65
  -3   2  13  118.24   11.14
   3  -2  13  122.83   13.29
  -3   2 -13  136.39   10.58
  -3   2 -13  139.95   10.25
  -3  -2  13  130.68   10.13
   3   2  13   92.39   13.39
  -3  -2  13  119.34    6.82
  -3  -2  13  137.65   12.42
  -4  -2 -13  108.19    6.60
   4  -2  13   90.88   13.80
  -4   2  13  126.56    9.96
  -4  -2 -13  112.22    6.78
  -4   2  13  110.34   11.56
   4   2  13  117.90   13.14
  -4  -2  13  129.82   12.78
  -4   2 -13  125.43   10.58
  -5   2  13  124.14   10.01
  -5  -2 -13  111.06    7.84
  -5   2  13  115.23   13.05
  -5  -2 -13  135.82    8.22
   5  -2  13  149.87   15.88
  -5   2  13  119.82    9.76
  -5  -2  13  106.30   14.76
   5   2  13  139.68   15.63
  -5   2 -13  129.35   11.70
   0   3 -13  495.75   22.59
   0   3  13  519.77   19.40
   0   3  13  527.74   25.08
   0  -3  13  499.91   23.25
   0  -3 -13  515.89   19.47
   0  -3  13  495.52   23.22
   1  -3  13  530.68   23.98
  -1   3  13  527.12   21.56
   1  -3  13  518.72   25.15
  -1  -3 -13  549.44   18.47
   1   3 -13  507.39   21.86
  -1   3  13  550.96   25.30
  -1  -3  13  572.52   22.82
   1   3  13  516.41   26.16
   1  -3 -13  536.08   21.68
  -1  -3  13  510.35   24.01
   1   3  13  556.13   18.53
  -2   3  13  139.27   13.11
   2   3 -13  169.00    9.68
  -2   3  13  171.88   12.13
  -2   3  13  151.77   12.63
   2  -3  13  197.09   15.38
  -2  -3 -13  175.96    6.58
  -2  -3 -13  176.05    6.91
   2   3  13  174.57   15.19
  -2   3 -13  182.67   12.49
  -2  -3  13  184.85   13.86
  -2  -3  13  164.77    9.86
   3  -3  13  500.11   27.42
  -3   3  13  488.12   23.73
  -3   3  13  504.43   23.26
  -3   3  13  558.60   24.12
  -3  -3  13  494.25   25.18
  -3  -3  13  466.44   15.77
  -3   3 -13  513.75   23.56
   3   3  13  535.92   28.26
   4  -3  13    1.39    4.42
  -4   3  13   -3.92    3.13
  -4   3  13    1.07    4.44
  -4   3  13    2.98    4.41
   4   3  13    9.04    7.25
  -4   3 -13    8.05    4.79
  -4  -3  13   -0.01    4.15
  -5   3  13    5.87    6.70
  -5   3  13   -1.52    3.81
   5  -3  13    2.58    4.92
  -5  -3 -13    1.61    2.11
  -5  -3 -13    5.44    1.85
  -5   3  13   12.13    4.97
  -5   3 -13    1.49    4.15
  -5  -3  13   11.92    5.61
   5   3  13   10.40    7.44
   0   4  13   -0.48    4.26
   0  -4 -13    1.36    2.39
   0  -4  13   -0.84    3.95
   0  -4  13   -0.02    4.19
   0   4  13    5.15    2.37
   0   4 -13   -5.47    2.54
  -1  -4 -13   40.78    3.39
   1   4 -13   28.26    5.97
  -1   4  13   46.74    8.56
   1  -4  13   39.79    7.42
   1  -4  13   36.36    7.99
  -1   4  13   44.89    6.17
   1  -4 -13   43.14    6.17
  -1  -4  13   41.63    8.12
  -1  -4  13   35.82    6.30
   1   4  13   27.67    8.01
   2  -4  13   97.25   11.31
   2   4 -13  123.16    7.99
  -2   4  13  105.12    9.29
  -2   4  13  120.41   11.39
  -2   4 -13  115.88   10.54
  -2  -4  13  110.42   11.12
   2   4  13  105.53   12.42
  -2  -4  13  110.02    7.79
  -3   4  13  195.05   14.01
   3  -4  13  184.66   16.16
  -3   4  13  188.58   14.27
  -3  -4  13  180.94   14.85
  -3   4 -13  181.52   13.66
   3   4  13  219.25   17.74
  -4   4  13  214.46   14.92
   4  -4  13  202.94   18.22
  -4   4  13  201.35   15.68
  -4   4 -13  226.89   15.58
  -4  -4  13  215.30   17.31
  -5   4  13   44.47    8.50
   5  -4  13   54.88   11.08
  -5   4  13   42.18    9.29
  -5  -4  13   46.85   10.03
  -5   4 -13   71.78   11.08
   5   4  13   37.67   10.20
   0  -5  13  322.60   18.14
   0   5  13  324.33   20.08
   0   5 -13  307.38   17.58
   0  -5 -13  306.20   13.07
   0   5  13  320.60   13.11
   0  -5  13  293.60   18.34
   1  -5  13  420.07   22.01
   1  -5  13  373.02   21.07
   1   5 -13  362.53   17.75
  -1   5  13  354.34   21.32
  -1   5  13  374.46   16.74
   1  -5 -13  390.47   17.12
  -1   5 -13  365.24   20.19
  -1  -5  13  387.23   21.19
   1   5  13  344.10   21.67
  -1  -5  13  390.51   18.45
   2  -5  13   37.88    8.75
  -2   5  13   67.68   10.61
   2   5 -13   54.78    5.83
  -2   5  13   47.94    7.24
  -2   5 -13   50.67    8.68
   2   5  13   55.24   10.31
  -2  -5  13   60.74   10.13
  -2  -5  13   51.18    5.75
   3  -5  13  165.95   15.85
  -3   5  13  174.28   13.37
  -3   5  13  191.27   14.65
  -3   5 -13  170.04   13.81
   3   5  13  146.46   15.34
  -3  -5  13  163.96   14.52
   4  -5  13   10.29    6.37
  -4   5  13    6.08    4.93
  -4   5  13    8.30    5.66
   4   5  13    6.28    7.19
  -4  -5  13   11.52    6.56
  -4   5 -13   13.12    5.65
  -5   5  13   11.50    6.36
  -5   5  13    7.75    5.09
   5  -5  13    8.92    7.06
  -5  -5  13    0.81    5.07
  -5   5 -13    3.19    5.93
   5   5  13   11.70    8.84
   0  -6  13    3.46    4.29
   0  -6  13    3.72    3.67
   0  -6 -13    4.28    2.68
   0   6  13    0.33    1.94
   0   6  13   -0.51    4.30
   1   6 -13    3.18    4.05
  -1   6  13    9.10    5.14
  -1   6  13    1.88    3.30
   1  -6  13    7.07    6.08
  -1  -6  13    5.30    4.09
   1   6  13    5.15    4.82
  -1   6 -13    0.98    3.84
   1  -6 -13    2.87    3.19
  -1  -6  13    9.14    5.54
  -2   6  13   23.70    5.55
   2  -6  13   37.18    8.43
  -2   6  13   23.83    7.45
   2   6 -13   18.52    4.61
   2   6  13   34.59    9.37
  -2  -6  13   25.20    4.72
  -2   6 -13   18.35    6.30
  -2  -6  13   23.90    7.44
  -3   6  13   80.80   11.77
  -3   6  13  100.58   10.53
   3  -6  13   81.37   13.58
  -3   6 -13   80.69   11.55
  -3  -6  13  104.46   16.31
   4  -6  13  165.66   17.03
  -4   6  13  182.76   15.23
  -4   6  13  176.31   15.52
  -4  -6  13  148.93   14.74
  -4   6 -13  184.30   15.70
   4   6  13  149.99   16.88
  -5   6  13   86.89   12.86
  -5   6  13   59.34   11.31
   5  -6  13   65.60   12.78
  -5  -6  13   93.23   13.98
   5   6  13   64.80   13.72
  -5   6 -13   96.79   13.79
   0  -7  13   41.10    8.14
   0  -7 -13   35.55    4.50
   0  -7  13   45.88    9.10
   0   7  13   39.06    8.95
   0   7  13   44.82    4.63
  -1   7  13  155.44   14.84
  -1   7  13  165.77   10.38
   1   7 -13  154.29   11.99
   1  -7  13  156.20   14.28
  -1  -7  13  204.77   16.32
   1   7  13  170.88   15.41
  -1   7 -13  188.93   15.14
  -2   7  13   10.41    6.35
   2   7 -13   12.08    4.19
   2  -7  13   18.26    6.74
  -2   7  13   24.98    5.86
  -2  -7  13   16.60    4.21
  -2   7 -13   17.74    6.85
  -3   7  13  123.39   13.86
  -3   7  13  105.17   11.23
   3  -7  13  101.65   14.82
  -3  -7  13   88.43   12.96
  -3   7 -13   97.34   13.29
   3   7  13   95.88   14.49
   4  -7  13    5.83    6.04
  -4   7  13    4.94    5.24
  -4  -7  13   -0.21    4.37
   4   7  13   -5.24    5.57
  -4   7 -13    6.71    6.41
   0  -8  13   -4.35    4.19
   0   8  13   -2.72    1.89
   0  -8 -13   -4.29    2.33
  -1   8  13   18.21    4.63
   1  -8  13   22.56    7.49
  -1   8 -13    5.99    4.38
   1   8  13    5.77    6.57
  -1  -8  13   18.20    5.61
  -1  -8  13   16.93    7.14
   1  -8 -13    5.09    4.40
  -2   8  13   31.56   10.22
  -2   8  13   23.90    6.18
   2  -8  13   29.05    8.86
   2   8 -13   27.90    5.93
  -2   8 -13   21.51    7.16
  -2  -8  13   34.94    9.22
   2   8  13   35.36   10.06
  -2  -8  13   24.63    5.09
  -3   8  13   50.81   10.74
  -3   8  13   56.01    9.12
   3  -8  13   35.63    9.71
  -3   8 -13   40.59   10.22
  -3  -8  13   36.80    9.10
   3   8  13   34.48   10.74
  -4   8  13   57.89   11.48
   4  -8  13   40.51   11.28
  -4   8  13   83.77   11.87
  -4   8 -13   47.83   10.37
   4   8  13   44.41   11.44
   0   9  13    2.79    2.36
   0   9 -13   11.72    6.06
   0  -9  13    1.22    4.97
   0   9  13    5.94    2.90
   0  -9  13    3.65    4.43
   0   9  13    1.71    5.40
  -1   9  13   40.28   10.17
   1  -9  13   64.23   11.44
  -1   9 -13   42.83    9.54
   1  -9 -13   37.98    6.68
  -1  -9  13   50.22    8.66
   1   9  13   45.88   10.91
  -1  -9  13   42.04    9.63
  -2   9  13   39.24   10.15
   2   9 -13   25.92    9.61
   2  -9  13   41.34    9.91
  -2   9  13   46.17    8.13
  -2  -9  13   35.75    9.36
  -2  -9  13   35.92    6.36
  -2   9 -13   56.91   11.47
   2   9  13   36.06   10.69
  -3   9  13   73.79   10.88
  -3   9  13   97.73   14.82
   3  -9  13   92.16   15.43
  -3   9 -13   96.72   14.24
  -3  -9  13   83.12   13.22
   3   9  13   77.80   14.50
   0 -10  13    1.40    5.08
   0  10  13    1.50    4.48
   0  10  13   -2.11    2.06
   0  10  13    0.70    2.79
   0  10 -13   -4.87    4.29
  -1  10  13   -2.13    5.87
  -1  10  13   17.65    4.38
   1 -10  13    3.24    6.23
  -1 -10  13    3.20    5.01
  -1 -10  13   -1.83    5.12
   1  10  13   10.45    7.02
  -1  10 -13    3.02    5.59
  -2  10  13   18.10    5.79
  -2  10  13   24.34    9.00
   2 -10  13   24.45    8.26
   2  10  13   26.50    9.92
  -2 -10  13   22.26    7.27
  -2 -10  13   23.01    5.73
  -2  10 -13   13.65    7.40
   0   0  14   82.07    9.74
   0   0 -14   63.90    6.94
   0   0  14   78.39    7.70
  -1   0  14  794.46   32.28
   1   0  14  842.14   35.01
  -1   0 -14  842.07   29.83
   1   0 -14  824.25   32.08
   1   0  14  842.74   30.34
  -1   0  14  870.02   32.11
  -2   0 -14  247.57   12.95
   2   0 -14  237.69   13.54
  -2   0 -14  260.83   13.05
  -2   0  14  250.76   14.19
  -2   0  14  243.69   15.31
   2   0  14  235.21   17.43
  -3   0 -14  129.86    9.19
  -3   0 -14  153.49    9.87
  -3   0  14  138.27    9.75
  -3   0  14  136.95   12.39
  -3   0  14  140.56    9.45
   3   0  14  112.92   13.53
  -4   0  14   79.92    6.69
  -4   0  14   68.89   10.94
  -4   0  14   76.09    6.62
   4   0  14   82.80   15.24
  -4   0 -14   76.27    7.76
  -4   0 -14   75.92    7.60
  -5   0  14   -3.60    4.80
   5   0  14    2.62    5.51
  -5   0 -14   -7.45    4.95
  -5   0 -14    0.47    3.62
   0   1 -14   -0.97    2.94
   0  -1  14    5.28    4.01
   0   1  14    3.00    2.90
   0   1  14   -4.15    4.07
   0  -1  14    0.89    3.00
   0   1 -14   -0.23    3.04
   0  -1 -14   -0.93    2.48
  -1   1  14  218.00   14.43
  -1   1  14  220.78   13.04
   1  -1  14  213.00   13.16
  -1  -1 -14  220.37   11.56
   1   1 -14  215.08   13.40
   1  -1  14  238.99   16.29
  -1  -1  14  234.96   14.31
   1   1  14  233.90   16.53
   1   1  14  247.96   12.25
   1  -1 -14  210.33   13.67
   1  -1 -14  205.67   13.02
  -1  -1  14  198.54   13.11
  -1   1 -14  211.06   12.80
  -2   1  14   -1.19    3.20
   2   1 -14    3.83    3.16
  -2  -1 -14   -1.67    2.30
  -2   1  14   -5.60    3.02
  -2  -1 -14   -0.89    2.18
   2  -1  14   -6.93    3.98
  -2  -1  14    4.10    4.12
   2  -1 -14    3.56    3.52
  -2   1 -14   -2.20    2.40
  -2  -1  14   -0.47    3.14
   2   1  14   -1.52    4.04
  -2   1 -14   -1.22    2.81
  -3  -1 -14  290.56   12.95
   3  -1  14  264.84   18.95
  -3   1  14  286.70   15.36
  -3  -1 -14  281.35   12.77
  -3   1  14  286.07   15.22
  -3   1  14  300.40   18.09
  -3   1 -14  279.12   14.89
  -3  -1  14  274.58   12.87
   3   1  14  288.70   20.35
  -3  -1  14  269.07   12.92
  -3  -1  14  278.54   17.87
  -4  -1 -14    9.23    3.16
  -4   1  14    8.66    3.79
  -4  -1 -14    8.08    3.54
  -4   1  14    1.22    3.77
  -4   1  14   14.31    5.71
  -4  -1  14   -4.72    3.89
  -4  -1  14    4.72    2.21
  -4   1 -14    2.05    3.42
  -5  -1 -14  211.46   11.99
  -5   1  14  205.92   11.45
  -5   1  14  209.44   11.26
   5  -1  14  239.54   20.24
  -5   1  14  210.00   17.46
  -5  -1 -14  212.30   13.21
  -5   1 -14  226.71   14.27
   5   1  14  193.69   18.74
  -5  -1  14  236.70   18.50
   0   2  14  441.49   22.44
   0   2  14  403.94   17.38
   0   2 -14  392.58   19.99
   0  -2 -14  410.44   17.54
   0  -2  14  402.06   20.83
   0  -2  14  397.82   20.04
  -1   2  14  701.03   28.28
   1  -2  14  779.28   32.62
  -1  -2 -14  713.51   25.40
   1  -2  14  767.53   30.02
  -1   2  14  727.01   30.75
   1  -2 -14  726.37   28.32
   1   2  14  752.71   25.79
  -1   2 -14  787.83   32.26
  -1  -2  14  745.93   29.10
  -1  -2  14  779.27   30.66
   1   2  14  725.46   32.71
  -2  -2 -14   41.82    4.34
   2   2 -14   44.39    6.38
   2  -2  14   61.13   10.48
  -2   2  14   47.73    8.22
  -2   2  14   42.37    7.25
  -2  -2 -14   42.37    4.55
  -2   2 -14   52.37    8.62
   2  -2 -14   57.68    8.47
  -2  -2  14   46.33    6.63
  -2  -2  14   53.37    8.70
  -2   2 -14   47.62    7.31
   2   2  14   34.54    8.69
   3  -2  14  167.73   15.42
  -3   2  14  146.41   11.32
  -3  -2 -14  151.21    7.53
  -3  -2 -14  147.42    7.49
  -3   2  14  138.15   12.24
  -3   2 -14  154.67   11.44
  -3  -2  14  152.71   13.31
  -3  -2  14  146.51    8.01
  -3  -2  14  132.86    7.90
   3   2  14  143.61   15.09
  -4   2  14   29.73    6.30
  -4  -2 -14   34.09    4.19
  -4   2  14   20.06    6.97
  -4   2  14   34.59    6.75
  -4  -2 -14   37.34    4.39
   4  -2  14   20.99    9.07
   4   2  14   40.15   12.46
  -4   2 -14   33.08    6.75
  -5   2  14    3.73    5.29
  -5  -2 -14   14.20    3.47
  -5   2  14   13.20    4.81
   5  -2  14    8.62    5.26
  -5  -2 -14   -0.56    3.33
  -5  -2  14   10.33    6.06
  -5   2 -14    0.06    4.27
   5   2  14    3.02    6.36
   0  -3  14   -6.75    3.00
   0   3 -14    1.43    3.31
   0   3  14   -1.23    2.21
   0  -3 -14   -0.84    2.48
   0   3  14    1.37    4.33
   0  -3  14   -1.81    3.43
  -1  -3 -14  144.83    8.07
   1  -3  14  137.01   11.49
   1   3 -14  167.30   12.84
  -1   3  14  165.67   13.71
   1  -3  14  134.19   12.64
  -1   3  14  157.21   10.62
  -1  -3  14  148.18   12.23
   1   3  14  158.17   13.61
  -1  -3  14  147.20   10.98
   1  -3 -14  154.50   10.38
   1   3  14  148.39    8.01
  -2  -3 -14   38.87    3.18
  -2   3  14   36.64    6.70
  -2   3  14   42.38    8.24
   2  -3  14   41.86    8.85
   2   3 -14   30.60    5.42
  -2  -3  14   37.36    8.24
   2   3  14   33.47    8.10
  -2  -3  14   38.05    5.76
  -2   3 -14   35.39    7.05
   3  -3  14  451.69   26.39
  -3   3  14  435.83   22.22
  -3   3  14  489.69   23.51
  -3   3 -14  449.93   22.05
  -3  -3  14  440.82   15.53
  -3  -3  14  453.50   24.21
   3   3  14  474.19   26.86
   4  -3  14   -0.09    5.80
  -4   3  14   12.17    5.65
  -4   3  14    9.96    5.31
  -4  -3  14   12.68    6.43
   4   3  14   18.37    7.66
  -4   3 -14    9.53    5.23
  -5   3  14   54.65    8.67
  -5   3  14   58.91   11.29
   5  -3  14   89.77   14.50
  -5  -3  14   58.67   10.95
   5   3  14   85.13   14.55
   0  -4  14  232.11   16.36
   0   4  14  257.17   11.87
   0   4  14  220.41   16.80
   0  -4  14  273.29   16.15
   0  -4 -14  227.66   11.56
  -1   4  14  612.42   28.60
  -1   4  14  581.58   23.57
   1  -4  14  603.17   27.58
   1  -4  14  570.35   27.78
  -1  -4  14  610.45   28.03
   1   4  14  590.10   29.53
   1   4  14  590.15   19.19
  -1  -4  14  640.84   25.46
  -2   4  14   -3.49    3.64
  -2   4  14    5.83    4.40
   2  -4  14    3.94    5.49
   2   4 -14    0.70    2.66
  -2  -4  14   -1.96    2.26
  -2   4 -14    7.31    4.87
  -2  -4  14    2.45    3.86
   2   4  14   -3.68    5.09
   3  -4  14   30.84    9.16
  -3   4  14   28.42    6.87
  -3   4  14   38.94    7.97
  -3  -4  14   40.00    8.65
  -3   4 -14   32.89    7.61
   3   4  14   27.50    8.96
   4  -4  14    1.87    5.06
  -4   4  14   -0.64    4.77
  -4   4  14    5.49    5.33
  -4   4 -14    0.99    4.86
   4   4  14    5.57    6.75
  -4  -4  14    1.37    5.02
  -5   4  14    9.12    6.06
   5  -4  14    6.66    7.14
  -5   4  14    0.95    5.02
  -5  -4  14    4.26    5.96
   5   4  14   16.27    8.11
  -5   4 -14   10.65    6.15
   0   5  14    0.57    2.15
   0  -5  14   -1.72    3.63
   0  -5  14   -1.01    4.20
   0   5  14    0.58    4.51
   0  -5 -14   -1.62    2.25
  -1   5  14   74.92    7.20
   1  -5  14   72.81   11.11
   1   5 -14   68.10    8.11
  -1   5  14   70.67   10.86
   1  -5  14   67.09   10.58
  -1  -5  14   81.33    8.61
  -1   5 -14   80.45   11.21
   1   5  14   70.25   12.14
  -1  -5  14   72.46   10.70
   2   5 -14   -0.51    2.70
  -2   5  14    6.40    5.37
   2  -5  14    3.06    4.63
  -2   5  14   -0.32    3.76
  -2   5 -14   -6.37    3.46
   2   5  14    4.20    6.41
  -2  -5  14   -0.78    2.56
  -2  -5  14    1.55    4.86
  -3   5  14  188.73   13.81
  -3   5  14  166.97   14.10
   3  -5  14  174.73   16.51
  -3   5 -14  186.00   14.98
   3   5  14  139.20   20.24
  -4   5  14   54.14   10.95
  -4   5  14   46.21    8.96
   4  -5  14   57.31   12.27
  -4  -5  14   41.03    9.22
  -4   5 -14   53.81   10.40
   4   5  14   61.34   13.34
  -5   5  14  163.57   15.49
  -5   5  14  178.43   15.30
   5  -5  14  168.09   17.06
  -5   5 -14  157.52   14.46
  -5  -5  14  173.20   16.64
   5   5  14  144.42   19.49
   0   6  14   52.19   10.55
   0   6  14   74.52    5.69
   0  -6  14   58.73    9.44
   0  -6 -14   66.34    5.75
   0  -6  14   68.12   11.00
  -1   6  14  385.13   23.21
   1   6 -14  351.22   18.31
   1  -6  14  372.92   22.06
  -1   6  14  377.02   16.95
   1   6  14  352.58   23.12
  -1  -6  14  396.89   22.96
  -1   6 -14  386.08   21.93
  -2   6  14    4.20    3.53
   2   6 -14   -3.93    3.04
   2  -6  14    6.00    4.64
  -2   6  14   -8.68    3.73
  -2  -6  14    1.41    4.39
   2   6  14    0.33    4.71
  -2   6 -14    3.23    4.41
  -2  -6  14    0.58    2.84
   3  -6  14   30.42    9.38
  -3   6  14   26.22    7.52
  -3   6  14   27.92    7.19
   3   6  14   30.36    9.35
  -3  -6  14   27.84    7.80
  -3   6 -14   33.50    8.46
  -4   6  14   10.30    5.72
   4  -6  14   -8.62    3.71
  -4   6  14    2.71    5.63
   4   6  14   -1.45    7.01
  -4   6 -14   -1.19    5.23
  -4  -6  14    1.47    4.43
   0   7  14   -3.15    1.90
   0  -7  14    6.67    4.95
   0  -7 -14    2.91    2.51
   0  -7  14    6.16    5.01
   0   7  14   -1.70    5.20
   1  -7  14    4.93    4.89
  -1   7  14    0.07    3.49
  -1   7  14    6.78    5.88
   1   7 -14    5.63    4.63
  -1  -7  14   -0.22    3.75
   1  -7 -14    9.08    4.52
  -1   7 -14    7.72    5.62
   2  -7  14   -4.32    4.23
  -2   7  14   -7.51    4.86
  -2   7  14   -1.58    3.47
  -2  -7  14    1.71    2.90
  -2   7 -14   -9.52    3.47
   2   7  14    7.02    5.55
  -2  -7  14    5.90    5.16
  -3   7  14  143.84   12.41
  -3   7  14  167.28   18.67
   3  -7  14  135.43   15.74
   3   7  14  143.54   16.24
  -3   7 -14  138.83   13.97
  -3  -7  14  139.26   14.76
  -4   7  14   20.52    6.06
  -4   7  14   25.19    8.57
   4  -7  14   26.11    9.64
  -4  -7  14   12.53    7.20
  -4   7 -14   20.72    7.90
   4   7  14   29.52    9.38
   0   8  14   -7.54    4.35
   0  -8  14    8.74    5.42
   0  -8  14   -0.26    4.56
   0   8  14    2.07    2.14
   0  -8 -14   -3.63    2.74
  -1   8  14  124.58   14.33
  -1   8  14  128.60    9.18
   1  -8  14  139.28   13.69
  -1  -8  14  134.18   11.92
   1   8  14  103.29   15.43
  -1   8 -14  144.93   14.35
  -1  -8  14  134.67   14.18
   1  -8 -14  118.37   10.48
  -2   8  14   -6.22    3.30
   2  -8  14    2.75    5.80
   2   8 -14   -7.61    3.76
  -2   8  14   -2.82    4.84
  -2   8 -14   -3.11    4.22
  -2  -8  14   -7.20    4.88
   2   8  14    2.27    7.60
  -2  -8  14    1.87    3.40
   3  -8  14   52.33   12.32
  -3   8  14   38.81    7.80
  -3   8  14   49.19   10.81
  -3  -8  14   45.81   10.49
  -3   8 -14   52.21   10.91
   3   8  14   42.53   11.11
   0  -9  14   -0.21    3.86
   0   9  14   -1.64    5.25
   0  -9  14   16.61    7.60
   0   9  14   -6.03    3.07
   0   9 -14    4.15    4.87
   0   9  14   -0.63    2.02
   1  -9  14  125.06   13.28
  -1   9  14   89.87   14.33
  -1  -9  14   90.07   13.40
  -1  -9  14   98.64   10.30
  -1   9 -14   89.16   13.48
   1  -9 -14   86.89    9.79
   1   9  14   98.46   15.37
  -2   9  14    4.14    7.34
   2  -9  14    7.86    7.21
  -2   9  14   12.91    5.14
  -2  -9  14    0.59    5.85
  -2   9 -14    2.11    5.04
   2   9  14    5.38    5.02
  -2  -9  14    9.23    4.74
   0  10 -14  -10.38    4.18
   0 -10  14    2.41    5.79
   0  10  14   -3.82    2.89
   0  10  14   -7.64    5.81
   0   0  15   -2.54    4.83
   0   0 -15    1.88    3.25
   0   0  15    9.79    4.32
  -1   0 -15   50.71    6.85
  -1   0  15   48.48    8.07
  -1   0  15   62.85    9.13
   1   0  15   44.33    7.08
   1   0 -15   47.90    8.09
   1   0  15   53.60    9.95
  -2   0 -15  100.60    8.46
   2   0 -15   91.73    8.91
  -2   0  15  108.99    9.96
  -2   0  15   87.14    9.71
  -2   0 -15  103.28    9.52
   2   0  15  107.59   12.45
  -3   0 -15  399.24   17.50
  -3   0  15  373.47   17.72
   3   0  15  388.12   24.34
  -3   0  15  362.37   16.97
  -3   0  15  384.24   21.53
  -4   0 -15  479.51   20.52
  -4   0  15  477.05   18.99
  -4   0  15  501.80   19.10
  -4   0  15  378.17   27.49
  -4   0 -15  544.59   21.58
   4   0  15  455.99   27.85
  -5   0 -15   -0.15    4.00
   5   0  15    0.31    4.87
  -5   0  15    2.45    5.51
   0  -1  15  971.29   37.34
   0  -1 -15  926.38   33.67
   0  -1  15  938.85   35.37
   0   1  15  986.40   38.44
   0   1  15  936.71   33.66
  -1  -1 -15   29.75    5.32
  -1   1  15   44.75    7.40
   1  -1  15   31.50    6.35
   1  -1  15   38.68    8.75
  -1   1  15   27.35    6.96
   1   1 -15   36.57    7.12
  -1   1 -15   21.43    5.19
   1   1  15   33.61    8.44
   1   1  15   31.61    5.84
  -1  -1  15   25.81    6.73
  -1  -1  15   25.70    6.37
  -2   1  15  236.80   15.30
  -2  -1 -15  243.17   12.27
   2   1 -15  267.76   14.55
  -2  -1 -15  245.39   12.25
  -2   1  15  268.19   15.91
   2  -1  15  257.57   18.62
  -2  -1  15  256.69   14.37
   2  -1 -15  240.31   14.98
  -2  -1  15  251.61   16.55
   2   1  15  218.66   17.16
  -2   1 -15  211.55   13.25
  -2   1 -15  272.10   14.65
  -3   1  15  189.91   14.63
  -3  -1 -15  171.46   10.07
  -3   1  15  193.97   12.52
  -3  -1 -15  195.13   10.54
   3  -1  15  171.09   16.42
  -3   1  15  188.12   12.84
  -3  -1  15  168.45   10.43
  -3  -1  15  191.42   10.65
  -3   1 -15  228.17   13.13
   3   1  15  202.04   17.34
  -3  -1  15  214.15   15.66
  -4  -1 -15   -2.21    3.05
   4  -1  15   20.39    8.29
  -4  -1 -15    9.32    3.29
  -4   1  15    0.85    4.01
  -4   1  15    7.32    4.39
  -4  -1  15    6.05    2.23
   4   1  15    6.85    6.63
  -4   1 -15    7.37    4.15
  -4  -1  15   13.25    5.70
  -5   1  15   13.98    6.72
   5  -1  15   10.45    7.30
  -5   1  15   -3.65    3.65
  -5  -1 -15    9.52    4.15
  -5  -1  15    4.79    6.03
  -5   1 -15   14.47    5.31
   5   1  15    9.01    7.33
   0  -2  15    2.77    4.46
   0   2  15   -1.16    2.55
   0  -2 -15   -4.72    2.45
   0  -2  15    0.04    3.66
   0   2  15   -2.13    4.70
  -1   2  15   56.08    7.83
   1  -2  15   37.78    7.31
  -1   2  15   46.55    9.34
   1   2 -15   31.66    6.33
   1  -2  15   37.19    8.83
  -1  -2 -15   40.57    5.46
   1   2  15   44.09    9.66
   1   2  15   30.95    5.13
  -1  -2  15   42.41    8.09
  -1  -2  15   42.96    8.80
   1  -2 -15   44.68    7.07
  -2   2  15  215.85   14.09
   2  -2  15  183.38   15.89
  -2  -2 -15  182.56    9.30
  -2  -2 -15  189.08    9.51
   2   2 -15  190.68   11.50
  -2   2  15  174.21   13.69
   2   2  15  186.63   16.49
  -2  -2  15  181.19   14.11
  -2  -2  15  192.89   11.77
  -2   2 -15  185.77   12.93
  -3   2  15   11.63    5.99
  -3   2  15    9.81    4.81
  -3   2  15    2.95    4.62
  -3  -2 -15   13.04    2.96
   3  -2  15   15.82    7.86
  -3  -2 -15   18.81    3.39
  -3   2 -15   17.02    5.40
  -3  -2  15    9.51    5.71
  -3  -2  15   13.87    3.48
   3   2  15   11.80    6.88
  -3  -2  15   15.42    3.74
  -4  -2 -15  275.13   11.37
  -4   2  15  267.57   15.75
   4  -2  15  307.41   22.48
  -4   2  15  298.45   18.25
  -4  -2 -15  256.02   11.23
  -4   2 -15  288.90   16.91
   4   2  15  281.67   21.07
  -4  -2  15  307.40   20.32
  -5   2  15   48.05   10.07
  -5  -2 -15   46.23    5.12
   5  -2  15   77.52   14.32
  -5   2  15   31.69    6.48
   5   2  15   55.01   12.35
  -5   2 -15   73.09   10.13
  -5  -2  15   54.47   11.10
   0  -3  15  310.29   18.20
   0   3  15  291.11   19.42
   0  -3 -15  312.48   14.77
   0  -3  15  310.51   18.32
   0   3  15  317.83   14.68
  -1  -3 -15   -1.74    2.22
   1  -3  15    2.71    4.39
  -1   3  15    2.22    4.63
   1  -3  15    1.35    4.70
  -1   3  15    2.82    3.65
   1   3 -15    0.44    3.37
   1  -3 -15    3.38    3.61
  -1  -3  15    2.22    3.58
   1   3  15   -1.45    5.06
   1   3  15   -2.09    1.99
  -1  -3  15   -3.37    3.85
  -2   3  15  411.55   21.78
   2   3 -15  410.78   17.90
  -2   3  15  412.65   20.33
  -2  -3 -15  411.02   13.78
   2  -3  15  386.22   23.16
  -2  -3 -15  389.03   13.54
  -2   3 -15  427.19   21.09
   2   3  15  391.05   24.09
  -2  -3  15  413.74   22.64
  -2  -3  15  374.82   17.71
  -3   3  15    4.22    4.73
  -3   3  15    9.90    5.09
   3  -3  15    4.76    6.43
   3   3  15    8.71    6.81
  -3  -3  15    4.60    5.06
  -3  -3  15    4.92    2.30
  -3   3 -15    3.36    4.34
  -4   3  15   70.84    9.90
   4  -3  15   52.88   11.72
  -4  -3  15   78.31   12.25
  -4   3 -15   57.76    8.85
   4   3  15   75.02   13.52
  -5   3  15   43.26    9.60
  -5   3  15   42.46    8.41
   5  -3  15   35.17   10.12
  -5  -3  15   39.86    9.50
   5   3  15   47.92   11.87
  -5   3 -15   48.54    9.26
   0  -4  15    3.10    4.65
   0  -4  15   -2.15    3.95
   0   4  15   -2.33    2.32
   0   4  15   -1.00    4.85
   1   4 -15    0.09    3.90
  -1  -4 -15    5.14    3.61
   1  -4  15    6.22    5.39
   1  -4  15    9.83    5.63
  -1   4  15   -0.62    2.94
  -1   4  15    0.71    4.92
  -1  -4  15    2.20    4.04
   1   4  15    7.21    2.08
   1   4  15    4.12    5.82
   1  -4 -15    2.00    3.72
  -1  -4  15   14.99    6.17
   2   4 -15   76.18    7.42
  -2   4  15   97.77   11.35
   2  -4  15  102.96   12.17
  -2   4  15  104.78    9.81
  -2   4 -15   95.59   12.22
  -2  -4  15  102.02    8.22
  -2  -4  15   78.54   11.48
   2   4  15   84.37   12.95
  -3   4  15   29.97    8.09
  -3   4  15   27.79    7.39
   3   4  15   32.39   10.02
  -3  -4  15   47.92   11.44
  -3   4 -15   33.34    7.85
  -4   4  15  206.94   15.84
   4  -4  15  200.39   18.80
  -4   4  15  174.82   18.29
  -4  -4  15  243.56   18.47
   4   4  15  224.55   20.28
  -4   4 -15  234.61   16.30
   0   5  15  400.30   24.13
   0  -5  15  417.99   21.81
   0  -5  15  388.67   22.33
   0   5  15  385.55   15.96
   0  -5 -15  410.43   16.35
   1   5 -15    0.22    3.98
  -1   5  15    8.48    5.92
  -1   5  15    4.78    3.59
   1  -5  15    7.13    6.07
   1  -5  15   10.15    5.97
   1  -5 -15    2.55    3.72
   1   5  15   -7.71    4.82
  -1  -5  15    3.98    5.21
  -1   5 -15    6.89    5.37
  -1  -5  15    5.30    4.80
   2   5 -15  355.59   16.20
   2  -5  15  331.74   22.05
  -2   5  15  377.20   18.91
  -2   5  15  335.54   21.09
  -2  -5  15  368.31   22.10
  -2  -5  15  360.00   16.43
  -2   5 -15  360.37   20.81
   3  -5  15    1.01    4.30
  -3   5  15    1.53    4.87
  -3   5  15   -1.49    4.14
  -3   5 -15    1.69    4.19
  -3  -5  15    3.82    4.96
   3   5  15   -7.52    5.08
  -4   5  15   26.83    7.62
   4  -5  15   28.48    9.85
  -4   5  15   17.35    6.80
   4   5  15   18.02    8.98
  -4  -5  15   28.16    8.59
   0   6  15   -0.98    2.14
   0  -6  15   -3.95    4.07
   0   6  15   -9.50    4.63
   0  -6 -15   -1.46    2.59
   0  -6  15   -5.70    3.40
  -1   6  15   36.14    5.82
  -1   6  15   34.08    9.09
   1  -6  15   37.94    8.62
   1   6 -15   30.35    6.78
  -1  -6  15   34.18    7.26
  -1   6 -15   37.47    8.66
  -1  -6  15   40.06    9.22
   1   6  15   33.33   10.72
   1  -6 -15   32.21    6.09
  -2   6  15   54.41   10.96
   2  -6  15   47.43   10.79
   2   6 -15   47.99    6.83
  -2   6  15   50.52    8.19
  -2  -6  15   50.08   10.26
  -2  -6  15   48.57    6.59
   2   6  15   35.61    9.78
  -2   6 -15   59.98   10.28
  -3   6  15    1.35    4.13
   3  -6  15    6.43    6.97
  -3   6  15   -3.48    4.21
  -3   6 -15   -5.25    4.57
   3   6  15    5.34    6.58
  -3  -6  15    0.83    4.85
   4  -6  15  101.14   16.57
  -4   6  15  113.99   12.93
  -4   6  15  117.73   12.91
   4   6  15   84.04   15.08
  -4   6 -15  110.86   14.64
  -4  -6  15   75.02   12.71
   0  -7  15  337.32   22.60
   0  -7  15  381.78   21.73
   0  -7 -15  343.62   13.95
   0   7  15  421.44   25.41
   0   7  15  350.10   13.73
  -1   7  15   21.52    4.59
  -1   7  15   11.77    8.26
   1  -7  15   16.27    6.92
   1   7  15   32.94    9.88
  -1  -7  15   40.01    9.77
  -1  -7  15   31.14    6.86
   1  -7 -15   20.78    5.73
  -1   7 -15   23.36    7.58
  -2   7  15  167.46   12.47
   2   7 -15  173.41   11.45
  -2   7  15  204.37   17.32
  -2  -7  15  176.27   11.22
   2   7  15  170.21   17.49
  -2  -7  15  195.75   17.01
  -2   7 -15  178.57   15.67
  -3   7  15   18.46    7.19
   3  -7  15   19.50    8.73
  -3   7  15   21.24    5.97
   3   7  15   18.80    8.72
  -3   7 -15    4.10    6.39
  -3  -7  15   21.26    7.23
   0  -8  15    4.08    5.26
   0   8  15    3.41    6.10
   0  -8  15   -2.66    3.83
   0  -8 -15   -8.78    4.07
   0   8  15   -2.20    1.93
  -1   8  15    8.91    3.70
   1  -8  15    4.25    5.54
  -1   8  15   -1.39    5.79
  -1  -8  15    5.67    5.34
  -1  -8  15   -1.57    4.44
   1  -8 -15   -5.88    4.64
   1   8  15   -6.71    5.30
  -1   8 -15    0.28    5.25
  -2   8  15   24.29    8.84
  -2   8  15   30.81    6.69
   2  -8  15   42.63   10.76
   2   8  15   29.41    8.80
  -2   8 -15   49.56   10.26
  -2  -8  15   24.92    8.66
  -2  -8  15   33.38    6.43
   0  -9  15  109.14   11.96
   0   9 -15  145.67   14.90
   0   9  15   91.33   14.67
  -1   9  15   -3.74    5.57
   1  -9  15   -3.29    5.65
  -1  -9  15   -2.44    3.89
  -1   9 -15   -7.27    3.87
   1   9  15    3.26    5.33
  -1  -9  15   -0.82    5.63
   0   0  16  837.48   32.22
   0   0  16  839.44   35.28
   1   0  16  361.31   21.31
  -1   0  16  359.68   18.94
  -1   0  16  316.70   18.60
  -1   0 -16  299.67   15.94
  -2   0  16   86.44    9.68
   2   0 -16   70.88    9.39
  -2   0  16   99.33   10.50
  -2   0 -16   90.76    7.80
   2   0  16   61.27   11.06
  -2   0 -16   83.87    8.24
  -3   0 -16   11.58    4.29
  -3   0 -16   17.42    4.90
  -3   0  16   17.36    6.32
  -3   0  16   17.65    5.63
  -4   0 -16   12.33    5.02
  -4   0  16    7.99    3.89
  -4   0  16    6.51    5.07
   4   0  16   -0.80    5.88
  -4   0  16   12.97    4.68
  -5   0  16   10.93    7.75
  -5   0 -16   10.16    4.81
   5   0  16   19.04    8.67
   0  -1  16   -3.78    4.60
   0   1  16   -1.71    4.59
   0  -1 -16   -3.49    2.93
   0  -1  16   -1.61    3.52
   0   1  16   -0.68    3.08
  -1   1  16    4.40    3.93
  -1   1  16   -3.26    4.35
   1  -1  16    5.98    5.38
   1  -1  16    5.95    4.11
   1   1  16   -0.01    2.83
  -1  -1  16    1.10    4.25
  -1  -1  16    4.16    4.09
   1   1  16    5.93    5.88
   2   1 -16  161.15   11.62
  -2   1  16  166.33   13.15
  -2   1  16  158.49   13.12
  -2  -1 -16  149.19    9.74
  -2  -1 -16  180.73   10.35
   2  -1  16  180.26   16.14
   2   1  16  148.18   14.20
  -2  -1  16  165.78   13.93
  -2  -1  16  153.78   11.42
  -2   1 -16  164.02   11.82
  -3   1  16  185.55   13.46
  -3  -1 -16  186.38   10.55
  -3  -1 -16  191.21   10.62
  -3   1  16  193.08   15.36
  -3  -1  16  192.30   11.49
  -3  -1  16  165.06   14.58
  -3  -1  16  185.20   11.07
  -3   1 -16  177.72   12.19
   4  -1  16   78.96   13.40
  -4   1  16   98.95   13.57
  -4   1  16   78.98    8.64
  -4  -1 -16   78.46    7.37
  -4  -1 -16   74.45    7.68
   4   1  16   97.06   15.55
  -4  -1  16   81.73   12.24
  -4   1 -16   95.20    9.60
  -4  -1  16   86.70    9.64
  -4  -1  16   82.91    5.62
   0   2  16  210.47   16.14
   0   2  16  209.45   12.05
   0  -2 -16  185.99   11.53
   0  -2  16  210.77   14.76
   0  -2  16  153.10   13.35
  -1  -2 -16  114.64    8.26
   1   2 -16  109.94   12.02
   1  -2  16  120.19   12.55
  -1   2  16  111.12    9.61
   1  -2  16  101.41   10.56
  -1   2  16  121.88   12.05
   1   2  16  112.69    8.28
  -1  -2  16  142.20   12.17
   1   2  16  125.91   13.48
  -1  -2  16  128.86   11.30
  -2  -2 -16  285.39   12.39
  -2  -2 -16  275.12   12.36
  -2   2  16  243.08   16.28
   2  -2  16  273.31   19.75
  -2   2  16  270.47   17.41
  -2  -2  16  288.92   18.23
  -2  -2  16  274.34   14.96
   2   2  16  247.70   19.11
  -2   2 -16  279.58   16.14
  -3   2  16   50.79    8.79
  -3   2  16   36.32    8.29
  -3  -2 -16   45.61    4.66
  -3  -2 -16   49.91    5.04
  -3   2 -16   61.17    9.07
   3   2  16   44.08   10.78
  -3  -2  16   49.75   10.12
  -3  -2  16   40.09    5.35
  -3  -2  16   58.01    6.02
  -4  -2 -16   -0.52    1.99
  -4   2  16    3.13    5.54
  -4   2  16   -0.31    4.76
   4  -2  16    4.41    6.74
  -4  -2 -16    1.82    3.01
   4   2  16   17.15    8.66
  -4   2 -16    3.82    4.58
  -4  -2  16   -2.44    4.95
   0  -3  16    8.27    4.91
   0  -3 -16   -2.02    2.87
   0   3  16   -3.58    4.46
   0   3  16   -1.28    2.60
   0  -3  16    4.44    4.16
   1  -3  16   81.60   10.81
  -1   3  16   74.57   11.79
  -1  -3 -16   68.91    6.34
   1   3 -16   71.58    8.58
   1  -3  16   75.22   11.25
  -1   3  16   85.63    8.42
   1   3  16   70.92    6.05
  -1  -3  16   75.20    8.94
   1  -3 -16   72.45   10.19
  -1  -3  16   84.62   11.77
   1   3  16   69.37   12.14
  -2   3  16  230.55   15.07
   2   3 -16  189.66   12.41
  -2   3  16  270.22   17.65
  -2  -3 -16  211.53    8.74
   2  -3  16  232.87   17.99
  -2  -3  16  223.57   16.43
  -2   3 -16  205.23   14.57
   2   3  16  195.46   17.69
  -2  -3  16  219.86   12.93
  -3   3  16   23.21    6.68
  -3   3  16   22.88    7.12
   3  -3  16   27.05    8.88
  -3  -3  16   25.96    4.13
  -3  -3  16   17.02    6.28
   3   3  16   42.66   10.44
  -3   3 -16   29.25    7.20
  -4   3  16   73.72   11.44
   4  -3  16   36.90   10.54
  -4   3  16   46.41    8.65
  -4  -3  16   46.71   10.18
   4   3  16   48.20   12.03
  -4   3 -16   47.41    8.93
   0  -4  16  349.65   20.70
   0  -4  16  358.29   20.21
   0   4  16  349.52   22.15
   0  -4 -16  323.70   15.19
   0   4  16  330.78   15.08
   1   4 -16  113.33   10.35
   1  -4  16  127.93   12.67
  -1  -4 -16  127.72    7.01
  -1   4  16  116.92   12.63
  -1   4  16  109.34    9.19
   1  -4  16   98.45   11.65
   1   4  16  110.03    6.41
  -1  -4  16  111.91   11.89
   1  -4 -16   91.74    9.37
  -1  -4  16  122.94   10.54
   1   4  16  112.88   12.81
   2  -4  16   90.85   13.47
   2   4 -16   87.23    8.25
  -2   4  16   90.63   12.40
  -2   4  16   89.91    9.39
  -2   4 -16  105.11   11.57
  -2  -4  16   82.66    8.24
  -2  -4  16   90.52   12.44
  -3   4  16  212.35   15.16
  -3   4  16  179.00   14.95
   3  -4  16  172.21   16.32
  -3  -4  16  162.30    7.91
  -3   4 -16  184.21   14.40
  -3  -4  16  212.85   17.07
   3   4  16  157.21   16.40
   4  -4  16    8.28    7.35
  -4   4  16   -2.49    5.36
  -4   4  16    2.09    5.07
  -4  -4  16    4.29    5.75
   4   4  16  -11.14    5.12
  -4   4 -16    2.48    4.82
   0   5  16    3.24    5.87
   0  -5  16    4.63    5.26
   0  -5 -16   -2.34    2.62
   0  -5  16    5.21    5.04
  -1  -5 -16   37.02    2.54
  -1  -5 -16   28.09    2.87
   1  -5  16   29.42    8.35
  -1   5  16   26.45    8.28
  -1   5  16   32.62    7.16
   1  -5  16   37.53    8.69
  -1  -5  16   26.05    6.48
  -1   5 -16   46.52    8.96
   1  -5 -16   30.24    6.07
  -1  -5  16   27.85    8.07
   2  -5  16   75.29   12.46
  -2   5  16   98.52    9.82
  -2   5  16   70.13   11.61
   2   5 -16   85.08    8.37
  -2   5 -16   92.48   12.48
  -2  -5  16   82.77   12.64
  -2  -5  16  101.07    8.71
   2   5  16   98.44   14.70
  -3   5  16   21.82    7.43
   3  -5  16   24.90    8.66
  -3   5  16   18.87    6.93
  -3  -5  16   21.32    3.14
  -3  -5  16   24.72    7.43
   3   5  16   34.41   11.30
  -3   5 -16   30.87    7.80
  -4   5  16   43.99    9.26
   4  -5  16   41.01   11.41
  -4   5  16   17.41    7.39
   4   5  16   36.75   11.78
  -4   5 -16   34.74    8.48
  -4  -5  16   25.03    7.64
   0   6  16  106.75   17.45
   0   6  16  116.97    7.38
   0  -6 -16  106.57    7.85
   0  -6  16  117.72   12.00
  -1   6  16  230.24   21.56
   1  -6  16  206.66   16.59
   1  -6 -16  186.61   12.67
  -1  -6  16  181.05   16.36
  -1  -6  16  235.50   14.99
   1   6  16  209.19   18.59
  -2   6  16   83.02   13.02
   2   6 -16   92.87    8.62
   2  -6  16   78.86   14.86
  -2   6  16  112.38   10.23
  -2   6 -16   90.39   12.88
  -2  -6  16   87.79    8.04
   2   6  16   81.03   13.99
  -2  -6  16   60.67   11.14
   3  -6  16   54.47   11.60
  -3   6  16   39.77    8.27
  -3   6  16   60.78   13.69
   3   6  16   50.40   11.28
  -3  -6  16   76.73   12.57
  -3   6 -16   53.93   11.05
   0  -7  16    2.36    4.83
   0  -7  16    1.86    5.65
   0   7  16   -1.99    6.47
   0  -7 -16   -6.08    2.64
   0   7  16    2.12    2.25
  -1   7  16   27.61    9.46
   1  -7  16   43.06    9.19
  -1  -7  16   44.00    8.07
   1   7  16   51.58   11.60
  -1   7 -16   50.51   10.49
   1  -7 -16   34.12    7.13
  -1  -7  16   56.40   11.35
  -2   7  16   51.14    8.13
   2  -7  16   27.72    8.96
  -2   7  16   58.88   12.19
   2   7 -16   17.70    8.49
  -2   7 -16   52.31   10.05
  -2  -7  16   37.93    9.70
   2   7  16   36.82   10.76
  -2  -7  16   37.66    6.52
  -3   7  16   11.97    6.95
  -3   7  16   24.77    7.07
   3  -7  16   21.62    8.19
  -3  -7  16   24.01    8.62
   3   7  16   10.34    8.37
  -3   7 -16   14.04    7.51
   0   8  16   41.22    5.06
   0   8 -16   53.87   10.93
   0  -8  16   53.66   11.33
   0   8  16   46.33   11.08
   0  -8  16   42.29    8.95
  -1   8  16  135.08   15.99
  -1  -8  16  130.62   12.02
  -1   8 -16  154.58   15.24
   1   8  16  146.75   16.89
  -1  -8  16  151.01   15.87
   2  -8  16   13.57    7.23
  -2   8  16   29.66    9.13
  -2   8  16   26.37    6.59
  -2  -8  16   14.42    6.72
  -2  -8  16   16.05    4.54
  -2   8 -16   14.80    6.94
   2   8  16   27.28    9.69
   0   0  17    5.44    5.19
   0   0  17    9.78    4.57
   1   0  17   -6.85    3.63
  -1   0  17    4.85    4.90
  -1   0  17   -7.49    4.08
   1   0  17   -1.36    3.18
  -2   0 -17   -2.42    3.36
   2   0  17   -4.49    3.30
  -2   0  17   -3.97    3.96
  -2   0  17   -6.38    4.40
  -2   0 -17    5.02    3.83
  -3   0 -17  114.24    9.74
   3   0  17  135.83   15.20
  -3   0  17  119.14   12.39
  -3   0  17  121.84   16.70
  -3   0 -17  139.61   12.25
  -3   0  17  113.91   10.41
  -4   0  17    4.77    3.94
  -4   0 -17   10.72    6.04
  -4   0 -17   10.12    4.41
  -4   0  17   11.83    6.10
  -4   0  17   -2.54    5.55
   4   0  17    4.94    6.50
   0   1  17   38.59    6.54
   0  -1  17   25.45    7.78
   0  -1  17   34.01    7.41
  -1  -1 -17  351.59   17.29
   1  -1  17  394.93   20.04
   1  -1  17  357.39   22.35
  -1   1  17  396.51   21.78
  -1   1  17  386.96   19.67
  -1  -1  17  395.21   20.93
  -1  -1  17  393.55   20.66
   1   1  17  376.53   17.73
   1   1  17  333.25   22.29
  -2  -1 -17   13.01    4.21
   2   1 -17    6.26    4.65
  -2  -1 -17   12.05    4.17
  -2   1  17   16.50    5.57
   2  -1  17    8.20    6.26
  -2  -1  17   17.03    5.71
   2   1  17   17.03    8.14
  -2  -1  17   -0.05    4.16
  -2   1 -17   19.57    5.71
   3  -1  17  154.62   16.27
  -3   1  17  160.11   12.59
  -3  -1 -17  171.97   10.16
  -3   1  17  175.49   14.42
  -3  -1 -17  152.93    9.89
  -3  -1  17  122.81   17.34
  -3   1 -17  163.13   11.97
  -3  -1  17  133.87   10.37
  -3  -1  17  150.44   10.71
   3   1  17  188.51   17.51
  -4  -1 -17   33.38    5.49
   4  -1  17   45.81   11.06
  -4   1  17   30.14    7.68
  -4  -1 -17   40.01    9.26
  -4   1  17   25.49   10.54
  -4   1  17   49.61   10.26
  -4  -1  17   26.54    4.24
  -4  -1  17   34.59    9.28
   4   1  17   22.06    8.54
  -4   1 -17   44.09    7.16
  -4  -1  17   33.40    5.40
   0   2  17    2.55    3.82
   0  -2 -17   -3.41    3.13
   0  -2  17   -3.84    3.90
   0   2  17    7.43    5.50
   0  -2  17   -0.36    4.65
  -1   2  17   52.88    9.76
   1  -2  17   44.03    8.61
   1  -2  17   59.06   10.82
  -1  -2 -17   53.55    6.88
  -1   2  17   52.31    8.18
  -1  -2  17   45.85    8.28
  -1  -2  17   57.25    9.46
   1   2  17   70.15    6.94
   1   2  17   62.40   11.54
   2  -2  17   14.24    7.05
  -2  -2 -17   10.07    3.45
   2   2 -17   22.46    5.80
  -2   2  17   25.33    7.41
  -2   2  17   24.36    6.54
  -2  -2 -17   17.67    3.90
  -2  -2  17    6.89    7.15
  -2   2 -17   19.00    6.25
  -2  -2  17   19.65    6.59
  -3   2  17  170.36   13.91
  -3   2  17  207.31   15.46
   3  -2  17  159.02   16.45
  -3  -2 -17  162.44    9.02
  -3  -2 -17  178.52    8.90
  -3  -2  17  161.24   10.49
  -3  -2  17  199.89   11.03
   3   2  17  212.42   18.88
  -3   2 -17  178.35   13.51
  -3  -2  17  171.62   15.28
  -4   2  17   23.29    6.85
  -4  -2 -17   21.82    3.45
   4  -2  17   11.76    7.43
  -4   2  17   23.67    7.06
   4   2  17   28.91   10.44
  -4  -2  17   28.27    7.82
  -4   2 -17   43.57    7.83
   0   3  17    1.55    3.00
   0  -3  17    3.20    4.91
   0  -3  17   -0.40    4.67
   0   3  17    6.24    5.37
   0  -3 -17   -4.32    3.62
  -1   3  17  324.04   20.67
  -1   3  17  330.75   17.07
   1  -3  17  340.41   20.83
  -1  -3 -17  320.89   14.33
   1  -3  17  319.44   19.69
  -1  -3  17  304.92   17.97
   1   3  17  313.71   14.19
   1   3  17  289.76   21.34
  -1  -3  17  338.53   20.22
  -2  -3 -17   60.54    4.59
  -2   3  17   73.81   10.15
   2   3 -17   85.00    8.86
  -2   3  17   71.81   10.68
   2  -3  17   83.97   13.19
  -2  -3  17   93.05   13.06
   2   3  17   54.61   11.79
  -2  -3  17   81.12    8.37
  -2   3 -17   65.28   10.07
   3  -3  17   39.10   10.48
  -3   3  17   43.97    8.74
  -3   3  17   46.28    9.08
   3   3  17   48.53   10.99
  -3   3 -17   30.09    7.55
  -3  -3  17   40.54    5.33
  -3  -3  17   44.31    9.65
  -4   3  17   12.58    6.51
   4  -3  17   24.11    8.58
  -4   3  17   18.96    7.81
   4   3  17   25.98   10.32
  -4   3 -17   31.79    7.88
  -4  -3  17   19.42    8.14
   0  -4 -17   -4.58    2.88
   0   4  17   -0.59    2.40
   0   4  17    1.13    5.43
   0  -4  17    0.91    4.66
   0  -4  17   -2.05    3.81
  -1  -4 -17    8.32    3.16
   1  -4  17   11.80    6.12
   1  -4  17    6.84    5.03
  -1   4  17    4.15    6.05
  -1   4  17    7.37    4.25
  -1  -4  17   14.52    6.43
  -1  -4  17   11.77    5.23
  -1   4 -17   -2.49    4.08
  -2   4  17   -7.65    4.44
  -2   4  17    3.30    4.02
  -2  -4  17    2.03    4.87
  -2   4 -17   -7.01    3.22
  -2  -4  17   -3.01    3.18
   2   4  17   -8.41    4.97
  -3   4  17  217.20   16.99
  -3   4  17  190.73   15.48
   3  -4  17  200.83   18.56
  -3  -4  17  204.68    9.55
  -3  -4  17  201.62   17.27
  -3   4 -17  237.43   16.95
   3   4  17  224.21   20.70
   0   5  17   11.29    3.42
   0  -5  17    6.68    6.08
   0  -5 -17    9.19    4.04
   0  -5  17    6.18    5.46
   1  -5  17  205.63   16.50
  -1   5  17  139.89   15.06
   1  -5  17  186.26   16.03
  -1  -5 -17  178.70    6.52
  -1   5  17  189.92   12.13
   1   5  17  176.76   17.64
  -1  -5  17  200.47   16.48
  -1  -5  17  199.15   14.06
   1  -5 -17  181.85   14.79
   2  -5  17   56.00   10.84
  -2   5  17   74.68   12.74
  -2   5  17   94.19    9.98
  -2  -5  17   53.90    7.43
   2   5  17   56.56   11.79
  -2  -5  17   74.70   12.38
  -2   5 -17   70.71   13.06
   3  -5  17    4.39    6.85
  -3   5  17   -1.35    5.34
  -3   5  17    4.44    4.73
  -3  -5  17    6.08    5.28
  -3   5 -17    7.01    4.65
   3   5  17   -3.58    6.95
   0   6  17    5.15    2.56
   0  -6  17    0.44    4.63
   0  -6 -17   -5.88    3.11
   0   6  17   -1.53    6.35
   0  -6  17   -1.70    4.60
  -1   6  17   -6.22    2.81
  -1   6  17   -2.18    5.63
   1  -6  17   -1.75    4.37
   1   6  17   -5.28    5.99
  -1  -6  17   -1.93    4.90
  -1  -6  17   -7.23    3.25
   1  -6 -17   -4.28    4.74
  -1   6 -17   -2.60    4.72
   2  -6  17   -5.63    4.35
  -2   6  17   -1.99    3.93
  -2   6  17    0.34    5.84
  -2  -6  17   -5.42    4.98
  -2  -6  17    1.88    3.86
  -2   6 -17   -3.96    5.07
   2   6  17   -7.58    5.37
  -3   6  17   70.47   12.18
   3  -6  17  100.35   15.64
  -3   6 -17   69.31   12.14
   3   6  17   78.72   14.86
   0   7  17   32.33    3.82
   0  -7  17   27.98    8.07
   0   7  17   23.51    8.79
   0  -7 -17   25.67    4.67
   0  -7  17   31.94    9.11
  -1   7  17   48.78   10.71
  -1   7  17   33.14    9.22
  -1   7 -17   47.66    9.97
  -1  -7  17   55.03    8.42
   1   7  17   39.64   11.81
  -1  -7  17   51.34   10.68
  -2   7  17   48.15   11.30
   2  -7  17   49.56   11.33
  -2   7  17   42.28    7.36
  -2  -7  17   36.12   10.30
  -2   7 -17   50.01   10.91
   2   7  17   38.72   11.60
  -2  -7  17   42.36    6.56
   0   8  17   -4.54    6.92
   0  -8  17   -1.55    5.56
   0   0  18  486.03   23.04
   0   0  18  459.47   25.58
  -1   0  18   36.82    8.29
   1   0  18   29.06    6.68
   1   0  18   42.43    9.60
  -1   0  18   28.90    6.84
  -2   0  18  321.97   19.12
   2   0  18  351.78   23.70
  -2   0  18  377.95   21.21
  -2   0 -18  327.90   17.38
  -3   0  18   14.72    6.22
  -3   0  18   17.69    5.92
  -3   0 -18   20.24    5.44
  -3   0 -18   21.81    7.11
   3   0  18   11.42    7.91
  -3   0  18   16.61    7.40
  -4   0 -18   68.21    8.28
  -4   0  18   78.00    8.31
   4   0  18   54.01   12.20
   0   1  18   -1.11    5.10
   0   1  18   -1.74    3.08
   0  -1  18    4.76    4.25
   0  -1  18   -2.38    4.06
  -1  -1 -18   18.44    5.54
  -1   1  18   23.03    6.09
   1  -1  18   17.72    6.98
   1  -1  18   13.59    5.32
  -1   1  18   19.59    7.24
   1   1  18   23.65    5.79
  -1  -1  18    8.78    5.33
  -1  -1  18   13.33    6.28
   1   1  18   11.53    6.40
  -2   1  18   53.89    9.25
  -2  -1 -18   56.23    7.36
  -2   1  18   51.19    9.69
   2  -1  18   62.56   12.07
  -2  -1 -18   50.89    7.42
   2   1  18   45.22   10.06
  -2  -1  18   40.49    7.89
  -2   1 -18   60.05    8.87
  -3  -1 -18   11.77    5.32
  -3  -1 -18   12.22    4.25
  -3   1  18   18.77    6.23
   3  -1  18   16.33    8.11
  -3   1  18   34.25    8.20
   3   1  18   39.72   10.68
  -3   1 -18   16.20    5.45
  -3  -1  18   21.43    5.57
  -3  -1  18   16.50    6.35
  -3  -1  18    6.69    6.42
   0  -2  18  342.47   20.54
   0   2  18  348.00   17.49
   0   2  18  317.61   22.01
   1  -2  18    5.59    4.73
  -1   2  18    9.04    6.10
  -1   2  18    7.98    4.16
   1  -2  18    6.78    5.95
   1   2  18   10.15    7.82
   1   2  18    8.51    3.66
  -1  -2  18   16.53    5.88
  -1  -2  18    7.28    5.42
  -2   2  18  318.25   20.16
  -2  -2 -18  347.97   15.16
  -2  -2 -18  343.34   15.45
   2   2 -18  342.30   26.85
  -2   2  18  355.95   20.03
   2  -2  18  341.27   23.16
   2   2  18  369.75   24.97
  -2  -2  18  424.80   35.09
  -2   2 -18  347.95   19.66
  -2  -2  18  372.67   18.97
   3  -2  18   15.18    7.76
  -3   2  18    0.02    5.11
  -3  -2 -18   -5.41    3.20
  -3  -2 -18    2.31    2.65
  -3   2 -18    2.49    4.73
  -3  -2  18   -4.01    4.48
  -3  -2  18    5.05    3.76
   3   2  18   -0.74    6.44
  -3  -2  18   -2.10    4.70
   0  -3 -18   -5.24    3.48
   0   3  18   -1.41    4.86
   0  -3  18    4.77    4.84
   0  -3  18    8.67    6.13
   1  -3  18    1.24    5.09
  -1  -3 -18   -3.87    3.35
   1  -3  18    0.59    4.29
  -1   3  18   -2.01    3.71
  -1   3  18   -1.29    4.82
   1   3  18  -10.65    4.57
  -1  -3  18    0.66    4.26
  -1  -3  18   -3.08    4.09
   1   3  18   -4.44    2.39
   2   3 -18  164.78   12.59
  -2   3  18  166.55   15.42
  -2   3  18  146.24   12.76
  -2  -3 -18  162.22    7.95
  -2  -3  18  187.45   12.69
  -2   3 -18  169.92   14.46
  -2  -3  18  197.83   15.88
   2   3  18  204.62   19.33
  -3   3  18   16.26    6.92
   3  -3  18   23.61    9.11
  -3  -3  18   13.92    6.83
  -3  -3  18   15.98    4.29
   3   3  18   18.76    7.77
  -3   3 -18   30.38    7.85
   0   4  18  286.01   14.70
   0  -4  18  329.04   21.24
   0  -4  18  326.33   19.85
  -1  -4 -18    9.26    3.67
  -1   4  18   11.94    7.78
   1  -4  18   27.62    8.76
   1  -4  18   13.19    6.79
  -1   4  18   20.66    5.42
  -1   4 -18    1.78    5.39
  -1  -4  18   20.85    6.41
   1   4  18   28.25    9.81
  -1  -4  18   29.67    8.89
  -2   4  18  106.54   14.43
   2  -4  18  111.27   15.74
   2   4 -18  103.88   10.36
  -2   4  18  111.11   10.63
  -2  -4  18  131.24   13.94
  -2   4 -18  109.32   11.79
   2   4  18  103.62   16.42
   3  -4  18   -9.25    5.12
  -3   4  18   -4.80    7.05
  -3   4  18   -4.68    5.44
  -3  -4  18   -4.89    2.73
   3   4  18   -8.59    7.03
  -3  -4  18    3.77    5.56
   0  -5  18   -5.72    4.42
   0  -5  18   -1.88    4.81
   0  -5 -18   -8.13    3.79
   0   5  18    3.26    2.86
   0   5  18   -3.97    5.32
  -1   5  18   -1.38    6.58
   1  -5  18   -0.51    5.51
  -1   5  18    2.80    3.58
   1   5  18    0.55    6.48
  -1  -5  18   -2.83    3.59
  -1  -5  18   -9.64    4.25
  -1   5 -18    9.79    5.58
   2  -5  18   61.40   12.24
  -2   5  18   50.51   10.99
  -2   5  18   60.15    8.74
  -2  -5  18   49.50   10.38
  -2   5 -18   49.08    9.88
   2   5  18   46.08   11.47
   0   6  18  148.42   16.92
   0  -6  18  159.31   15.68
   0  -6  18  186.53   15.22
   0  -6 -18  137.36   12.90
   0   6  18  158.23    8.85
  -1   6  18   25.41    5.39
  -1   6  18   25.54    9.82
  -1  -6  18   30.44    8.50
  -1  -6  18   20.67    6.16
   1   6  18   21.64    9.24
  -1   6 -18   17.40    7.29
  -2   6  18   43.46    8.02
  -2   6  18   71.53   13.55
   2  -6  18   48.16   10.46
  -2   6 -18   62.68   11.67
   2   6  18   74.24   14.83
  -2  -6  18   84.24   13.72
   0   7  18    0.26    6.96
   0   7  18   -1.58    2.10
   0  -7  18    2.08    4.68
   0  -7  18    2.91    6.06
   0   0  19    2.66    4.75
   0   0  19    6.86    5.43
  -1   0  19    4.16    4.66
   1   0  19    7.98    4.53
  -1   0  19    5.34    6.00
  -2   0  19   94.60   11.12
   2   0  19  112.40   15.85
  -2   0 -19   98.58    9.78
  -2   0  19   94.68   12.77
   3   0  19    3.85    6.68
  -3   0  19   14.53    5.99
  -3   0  19   20.62    6.87
  -3   0 -19    9.68    5.29
   0   1  19   28.93    8.75
   0  -1  19   18.20    6.82
   0   1  19   25.02    6.33
   0  -1  19   43.79    9.48
  -1   1  19  141.07   11.95
  -1   1  19  113.12   13.71
   1  -1  19  117.57   14.03
   1  -1  19  125.28   11.95
  -1  -1  19  136.45   13.28
   1   1  19  120.90   10.29
  -1  -1  19  112.21   12.30
   1   1  19  116.77   16.09
  -2   1  19   18.95    8.00
  -2  -1 -19   12.28    5.61
  -2   1  19   21.90    6.52
   2  -1  19   29.09    8.92
  -2   1 -19   17.58    6.34
   2   1  19   19.67    7.89
  -2  -1  19   24.52    7.44
  -2  -1  19   21.32    6.66
  -3   1  19   72.84   11.18
  -3   1  19   65.46   10.46
  -3  -1 -19   64.56    7.36
   3  -1  19   77.57   14.24
  -3  -1  19   83.37   12.62
   3   1  19   35.83   11.05
  -3   1 -19   59.59    8.86
  -3  -1  19   54.54    8.78
   0  -2  19   -2.27    4.04
   0   2  19    1.92    3.88
   0   2  19   -5.12    5.02
   0  -2  19    5.88    5.29
   1  -2  19   -7.82    4.73
  -1   2  19   -1.42    4.26
  -1   2  19   -4.09    4.84
   1  -2  19    6.78    4.68
  -1  -2 -19   -4.48    4.77
   1   2  19   -0.72    3.44
  -1  -2  19    9.55    5.36
   1   2  19  -10.16    5.85
  -1  -2  19   -1.54    4.96
  -2  -2 -19   47.68    6.77
  -2   2  19   48.36   10.54
  -2  -2 -19   57.98    6.54
   2  -2  19   66.85   11.74
  -2   2  19   48.61    8.93
  -2  -2  19   45.22    9.10
  -2  -2  19   60.16    9.06
  -2   2 -19   62.32    9.67
   2   2  19   53.13   12.20
  -3   2  19   39.20    7.92
   3  -2  19   29.85    8.50
  -3   2  19   34.04    8.55
  -3  -2 -19   44.74    5.13
  -3  -2  19   44.77    6.78
  -3   2 -19   46.46    9.29
  -3  -2  19   46.97    9.48
   3   2  19   44.99   11.27
   0   3  19   13.22    4.86
   0  -3  19   20.21    6.76
   0  -3  19   27.63    7.76
   0  -3 -19    7.54    6.16
   0   3  19   22.96    9.05
  -1  -3 -19   65.62    7.61
  -1   3  19   64.40   11.44
   1  -3  19   72.14   13.87
  -1   3  19   77.03    9.76
   1  -3  19   74.89   11.40
   1   3  19   74.25   13.71
  -1  -3  19   76.18   10.95
  -1  -3  19   79.09   12.33
  -1   3 -19   60.33   10.59
  -2   3  19   24.16    6.28
  -2  -3 -19   10.81    3.11
  -2  -3 -19   14.09    4.60
  -2   3  19   31.87    8.16
   2  -3  19   12.36    7.49
   2   3  19   12.03    8.47
  -2   3 -19   14.48    6.13
  -2  -3  19   18.01    5.94
  -2  -3  19   29.30    7.95
   0   4  19    0.53    3.83
   0   4  19    4.52    6.67
   0  -4  19    4.92    4.73
   0  -4 -19   -7.96    4.77
   0  -4  19    0.38    5.02
   1  -4  19    0.91    6.85
  -1   4  19    2.73    5.51
  -1  -4 -19   -5.11    4.16
  -1   4  19    7.50    4.26
  -1  -4 -19   -1.99    2.67
  -1  -4  19    9.03    5.28
  -1  -4  19    3.93    5.76
  -1   4 -19    6.12    5.03
   1   4  19   -4.06    6.31
   2  -4  19    4.89    5.74
  -2   4  19   17.01    5.45
  -2   4 -19   13.98    7.29
  -2  -4  19   15.84    7.32
  -2  -4  19   13.22    5.35
   2   4  19   -1.23    7.59
   0  -5  19   40.42    9.10
   0   5  19   46.45    6.14
   0  -5  19   69.20   11.31
   0   5  19   46.89   11.67
  -1   5  19   67.69   12.83
   1  -5  19   66.99   12.05
  -1   5  19   84.67    8.50
  -1  -5  19   74.35   12.39
  -1  -5  19   82.99   11.15
  -1   5 -19   73.65   12.50
   1   5  19   92.00   15.05
   0   0  20   -1.69    4.06
   0   0  20    3.34    5.31
   1   0  20  227.79   19.35
  -1   0  20  240.41   17.85
  -1   0  20  222.68   16.09
   1   0  20  238.98   15.53
  -2   0 -20   59.42    8.78
  -2   0  20   59.25   10.26
   2   0  20   78.13   13.89
  -2   0  20   67.97   10.46
   0  -1  20    1.93    4.49
   0   1  20  -10.28    5.07
   0   1  20    1.24    4.27
   0  -1  20   -5.36    4.54
   1  -1  20   10.67    5.66
  -1   1  20   11.14    6.63
   1  -1  20    9.00    6.56
  -1   1  20    7.36    5.34
   1   1  20   18.62    8.29
   1   1  20    8.88    4.61
  -1  -1  20    2.26    4.84
  -1  -1  20   11.16    6.05
  -2   1  20   30.55    8.46
   2  -1  20   23.19    9.25
  -2  -1 -20   32.04    6.68
  -2  -1  20   41.10    8.70
   2   1  20   13.89    9.00
  -2  -1  20   42.86    8.22
  -2   1 -20   48.42    8.63
   0   2  20   21.70    5.83
   0  -2  20   35.92    8.25
   0  -2  20   27.83    7.63
   0   2  20    9.54    8.15
  -1   2  20  134.24   11.70
  -1   2  20  114.19   13.74
   1  -2  20  145.06   13.53
   1  -2  20  148.52   15.01
  -1  -2  20  145.30   13.83
   1   2  20  141.84   16.56
  -1  -2  20  140.16   13.31
  -1   2 -20  133.50   12.70
  -2   2  20  -10.50    5.53
  -2  -2 -20   -7.04    3.40
  -2   2  20   -7.54    4.29
   2  -2  20   10.86    7.01
  -2  -2  20   10.84    5.80
  -2   2 -20  -10.87    4.41
   2   2  20   -2.83    5.76
  -2  -2  20   -2.68    3.69
   0  -3  20    3.17    5.74
   0  -3  20   -4.91    4.16
   0   3  20    0.38    3.86
   0   3  20   -5.16    6.14
   1  -3  20   21.54    7.62
  -1   3  20   20.44    5.30
  -1  -3 -20   22.42    5.03
  -1   3  20   23.69    8.31
  -1  -3  20   37.84    8.94
  -1  -3  20   27.58    7.61
   1   3  20   26.76    9.59
   0   4  20   10.10    6.72
   0  -4  20    5.86    6.14
   0   4  20   -0.48    6.24
   0  -4  20    9.77    6.64
   0   0  21   -0.03    6.49
   0   0  21    5.60    4.92
   0   1  21  193.17   18.30
   0   0   0    0.00    0.00


 _exptl_absorpt_process_details
)
 SADABS 2016/2: Krause, L., Herbst-Irmer, R., Sheldrick G.M. & Stalke D.,
 J. Appl. Cryst. 48 (2015) 3-10
)
 _exptl_absorpt_correction_type   multi-scan
 _exptl_absorpt_correction_T_max  0.7454
 _exptl_absorpt_correction_T_min  0.6764
 _exptl_special_details
)
 The following wavelength and cell were deduced by SADABS from the
 direction cosines etc. They are given here for emergency use only:
 CELL 0.71073    6.170   10.834   16.844   90.001   89.998   90.005
)

_computing_structure_solution     'SHELXT 2014/5 (Sheldrick, 2014)'
;
_shelx_hkl_checksum              80682
_publcif_funding_html
;
;
loop_
_space_group_symop_operation_xyz
'x, y, z'
'-x+1/2, -y, z+1/2'
'-x, y+1/2, -z'
'x+1/2, -y+1/2, -z+1/2'
'-x, -y, -z'
'x-1/2, y, -z-1/2'
'x, -y-1/2, z'
'-x-1/2, y-1/2, z-1/2'
loop_
_atom_site_label
_atom_site_type_symbol
_atom_site_fract_x
_atom_site_fract_y
_atom_site_fract_z
_atom_site_U_iso_or_equiv
_atom_site_adp_type
_atom_site_occupancy
_atom_site_site_symmetry_order
_atom_site_calc_flag
_atom_site_refinement_flags_posn
_atom_site_refinement_flags_adp
_atom_site_refinement_flags_occupancy
_atom_site_disorder_assembly
_atom_site_disorder_group
C1 C 0.7331(4) 0.3144(3) 0.64246(15) 0.0341(7) Uani 1 1 d . . . . .
C2 C 0.5427(5) 0.3549(3) 0.60530(16) 0.0331(7) Uani 1 1 d . . . . .
C3 C 0.4265(7) 0.250000 0.5812(2) 0.0338(9) Uani 1 2 d S T P . .
C4 C 0.4709(5) 0.4789(3) 0.59581(17) 0.0385(7) Uani 1 1 d . . . . .
C5 C 0.2322(7) 0.250000 0.5352(2) 0.0337(9) Uani 1 2 d S T P . .
N1B N 0.8944(13) 0.4091(8) 0.6713(4) 0.033(2) Uiso 0.5 1 d . . P A 1
O1B O 1.0604(8) 0.3561(6) 0.6985(3) 0.0468(12) Uani 0.5 1 d . . P A 1
O2B O 0.8695(9) 0.5156(5) 0.6659(3) 0.0591(14) Uani 0.5 1 d . . P A 1
N1A N 1.0195(10) 0.4544(7) 0.7005(3) 0.0460(14) Uani 0.5 1 d . . P A 2
C6A C 0.8997(15) 0.3793(8) 0.6752(5) 0.027(2) Uiso 0.5 1 d . . P A 2
N2 N 0.4045(5) 0.5760(3) 0.58762(17) 0.0480(7) Uani 1 1 d . . . . .
N3 N 0.0797(6) 0.250000 0.4972(2) 0.0413(9) Uani 1 2 d S T P . .
Ag1 Ag -0.20160(6) 0.250000 0.41450(2) 0.04833(14) Uani 1 2 d S T P . .
O1W O -0.1069(16) 0.250000 0.2760(3) 0.153(3) Uani 1 2 d DS T P . .
H1W H 0.031(12) 0.24(5) 0.276(9) 0.230 Uiso 0.5 1 d D U P . .
H2W H -0.11(2) 0.250000 0.2254(13) 0.230 Uiso 1 2 d DS U P . .
loop_
_atom_site_aniso_label
_atom_site_aniso_U_11
_atom_site_aniso_U_22
_atom_site_aniso_U_33
_atom_site_aniso_U_23
_atom_site_aniso_U_13
_atom_site_aniso_U_12
C1 0.0277(14) 0.0537(18) 0.0209(12) -0.0033(13) 0.0024(11) -0.0031(13)
C2 0.0278(14) 0.0477(18) 0.0236(13) -0.0041(13) 0.0031(11) -0.0003(14)
C3 0.026(2) 0.051(3) 0.0241(19) 0.000 0.0000(17) 0.000
C4 0.0312(15) 0.056(2) 0.0287(15) -0.0091(15) 0.0014(13) -0.0018(15)
C5 0.033(2) 0.042(2) 0.026(2) 0.000 0.0033(18) 0.000
O1B 0.037(3) 0.066(4) 0.038(2) 0.003(3) -0.009(2) -0.006(3)
O2B 0.054(3) 0.046(3) 0.078(4) -0.010(3) -0.006(3) -0.009(3)
N1A 0.036(3) 0.063(4) 0.039(3) -0.001(3) -0.003(3) -0.010(3)
N2 0.0494(17) 0.0489(18) 0.0458(16) -0.0083(15) 0.0039(14) 0.0044(15)
N3 0.033(2) 0.057(3) 0.0337(19) 0.000 -0.0067(17) 0.000
Ag1 0.0457(2) 0.0599(3) 0.0395(2) 0.000 -0.01322(17) 0.000
O1W 0.202(9) 0.218(9) 0.039(3) 0.000 0.010(4) 0.000
loop_
_atom_type_symbol
_atom_type_description
_atom_type_scat_dispersion_real
_atom_type_scat_dispersion_imag
_atom_type_scat_source
C C 0.0033 0.0016 'International Tables Vol C Tables 4.2.6.8 and 6.1.1.4'
H H 0.0000 0.0000 'International Tables Vol C Tables 4.2.6.8 and 6.1.1.4'
N N 0.0061 0.0033 'International Tables Vol C Tables 4.2.6.8 and 6.1.1.4'
O O 0.0106 0.0060 'International Tables Vol C Tables 4.2.6.8 and 6.1.1.4'
Ag Ag -0.8971 1.1015 'International Tables Vol C Tables 4.2.6.8 and 6.1.1.4'
loop_
_geom_angle_atom_site_label_1
_geom_angle_atom_site_label_2
_geom_angle_atom_site_label_3
_geom_angle
_geom_angle_site_symmetry_1
_geom_angle_site_symmetry_3
_geom_angle_publ_flag
C6A C1 C2 130.6(5) . . ?
C1 C1 C2 108.26(19) 7_565 . ?
C1 C1 N1B 132.8(3) 7_565 . ?
C2 C1 N1B 118.9(4) . . ?
C1 C2 C3 107.7(3) . . ?
C1 C2 C4 127.3(3) . . ?
C3 C2 C4 125.0(3) . . ?
C2 C3 C2 108.1(4) 7_565 . ?
C2 C3 C5 125.85(18) 7_565 . ?
C2 C3 C5 125.85(18) . . ?
N2 C4 C2 176.9(3) . . ?
N3 C5 C3 178.6(4) . . ?
O2B N1B O1B 125.8(9) . . ?
O2B N1B C1 124.0(7) . . ?
O1B N1B C1 110.1(7) . . ?
N1A C6A C1 167.4(10) . . ?
C4 N2 Ag1 166.3(3) . 5_566 ?
C5 N3 Ag1 175.6(4) . . ?
N3 Ag1 N2 116.20(8) . 3_546 ?
N3 Ag1 N2 116.20(8) . 5_566 ?
N2 Ag1 N2 112.77(15) 3_546 5_566 ?
N3 Ag1 O1W 114.7(3) . . ?
N2 Ag1 O1W 96.85(15) 3_546 . ?
N2 Ag1 O1W 96.85(15) 5_566 . ?
Ag1 O1W H1W 104(10) . . ?
Ag1 O1W H2W 166(10) . . ?
H1W O1W H2W 90(10) . . ?
Ag1 O1W H1W 104(10) . 7_565 ?
H1W O1W H1W 15(10) . 7_565 ?
H2W O1W H1W 90(10) . 7_565 ?
loop_
_geom_bond_atom_site_label_1
_geom_bond_atom_site_label_2
_geom_bond_distance
_geom_bond_site_symmetry_2
_geom_bond_publ_flag
C1 C6A 1.362(9) . ?
C1 C1 1.395(7) 7_565 ?
C1 C2 1.402(4) . ?
C1 N1B 1.510(9) . ?
C2 C3 1.403(4) . ?
C2 C4 1.423(5) . ?
C3 C5 1.428(6) . ?
C4 N2 1.137(4) . ?
C5 N3 1.139(5) . ?
N1B O2B 1.168(9) . ?
N1B O1B 1.260(9) . ?
N1A C6A 1.179(11) . ?
N2 Ag1 2.263(3) 5_566 ?
N3 Ag1 2.225(4) . ?
Ag1 O1W 2.405(6) . ?
O1W H1W 0.86(2) . ?
O1W H2W 0.85(2) . ?
O1W H1W 0.86(2) 7_565 ?
loop_
_geom_hbond_atom_site_label_D
_geom_hbond_atom_site_label_H
_geom_hbond_atom_site_label_A
_geom_hbond_distance_DH
_geom_hbond_distance_HA
_geom_hbond_distance_DA
_geom_hbond_angle_DHA
_geom_hbond_site_symmetry_A
_geom_hbond_publ_flag
O1W H1W O2BA 0.86(2) 2.7(5) 3.090(7) 110(39) 3_646 yes
