#------------------------------------------------------------------------------
#$Date: 2021-10-29 02:32:06 +0300 (Fri, 29 Oct 2021) $
#$Revision: 270115 $
#$URL: file:///home/coder/svn-repositories/cod/cif/7/70/85/7708597.cif $
#------------------------------------------------------------------------------
#
# This file is available in the Crystallography Open Database (COD),
# http://www.crystallography.net/
#
# All data on this site have been placed in the public domain by the
# contributors.
#
data_7708597
loop_
_publ_author_name
'Perez, Hiram'
'Di Santo, Alejandro'
'Piro, Oscar E.'
'Echeverr\'ia, Gustavo A.'
'Gonz\'alez M., Marlene'
'Ben Altabef, Aida'
'Gomila, Rosa Maria'
'Frontera, Antonio'
'Gil, Diego M.'
_publ_section_title
;
 A novel 'main-part' isostructuralism in metal complexes with
 1-methylimidazole: crystal structures, energy calculations and magnetic
 properties
;
_journal_name_full               'Dalton Transactions'
_journal_paper_doi               10.1039/D1DT03159G
_journal_year                    2021
_chemical_formula_sum            'C16 H24 Co N14'
_chemical_formula_weight         471.42
_chemical_name_systematic        diazido-tetrakis(1-methylimidazole)cobalt(II)
_space_group_crystal_system      triclinic
_space_group_IT_number           2
_space_group_name_Hall           '-P 1'
_space_group_name_H-M_alt        'P -1'
_atom_sites_solution_hydrogens   mixed
_atom_sites_solution_primary     dual
_atom_sites_solution_secondary   difmap
_audit_creation_method           SHELXL-2014/7
_audit_update_record
;
2021-08-30 deposited with the CCDC.	2021-10-27 downloaded from the CCDC.
;
_cell_angle_alpha                83.382(7)
_cell_angle_beta                 77.031(7)
_cell_angle_gamma                73.001(7)
_cell_formula_units_Z            1
_cell_length_a                   7.9088(7)
_cell_length_b                   8.9979(8)
_cell_length_c                   9.1722(8)
_cell_measurement_reflns_used    1263
_cell_measurement_temperature    297(2)
_cell_measurement_theta_max      24.7440
_cell_measurement_theta_min      4.4880
_cell_volume                     607.41(10)
_computing_cell_refinement       'CrysAlisPro 1.171.38.41 (Rigaku OD, 2015)'
_computing_data_collection       'CrysAlisPro 1.171.38.41 (Rigaku OD, 2015)'
_computing_data_reduction        'CrysAlisPro 1.171.38.41 (Rigaku OD, 2015)'
_computing_molecular_graphics    'ORTEP for Windows (Farrugia, 2012)'
_computing_publication_material  'SHELXL-2014/7 (Sheldrick, 2014)'
_computing_structure_refinement  'SHELXL-2014/7 (Sheldrick, 2014)'
_computing_structure_solution    'SHELXT (Sheldrick, 2015)'
_diffrn_ambient_temperature      297(2)
_diffrn_detector                 'CCD plate'
_diffrn_detector_area_resol_mean 16.0604
_diffrn_detector_type            Eos
_diffrn_measured_fraction_theta_full 0.998
_diffrn_measured_fraction_theta_max 0.818
_diffrn_measurement_device       'four-circle diffractometer'
_diffrn_measurement_device_type  'Xcalibur, Eos, Gemini'
_diffrn_radiation_monochromator  graphite
_diffrn_radiation_probe          x-ray
_diffrn_radiation_type           'Mo K\a'
_diffrn_radiation_wavelength     0.71073
_diffrn_reflns_av_R_equivalents  0.0318
_diffrn_reflns_av_unetI/netI     0.0601
_diffrn_reflns_Laue_measured_fraction_full 0.998
_diffrn_reflns_Laue_measured_fraction_max 0.818
_diffrn_reflns_limit_h_max       10
_diffrn_reflns_limit_h_min       -10
_diffrn_reflns_limit_k_max       10
_diffrn_reflns_limit_k_min       -11
_diffrn_reflns_limit_l_max       12
_diffrn_reflns_limit_l_min       -12
_diffrn_reflns_number            4539
_diffrn_reflns_point_group_measured_fraction_full 0.998
_diffrn_reflns_point_group_measured_fraction_max 0.818
_diffrn_reflns_theta_full        25.242
_diffrn_reflns_theta_max         28.816
_diffrn_reflns_theta_min         3.097
_diffrn_source                   'fine-focus sealed X-ray tube'
_diffrn_source_type              'Enhance (Mo) X-ray Source'
_exptl_absorpt_coefficient_mu    0.738
_exptl_absorpt_correction_T_max  1.00000
_exptl_absorpt_correction_T_min  0.90791
_exptl_absorpt_correction_type   multi-scan
_exptl_absorpt_process_details
;
CrysAlisPro 1.171.38.41 (Rigaku Oxford Diffraction, 2015)
Empirical absorption correction using spherical harmonics,
implemented in SCALE3 ABSPACK scaling algorithm.
;
_exptl_crystal_colour            violet
_exptl_crystal_density_diffrn    1.289
_exptl_crystal_description       paralelepiped
_exptl_crystal_F_000             245
_exptl_crystal_recrystallization_method
'Re-crystallisation from solvent: Methanol'
_exptl_crystal_size_max          0.390
_exptl_crystal_size_mid          0.332
_exptl_crystal_size_min          0.088
_refine_diff_density_max         0.330
_refine_diff_density_min         -0.404
_refine_diff_density_rms         0.063
_refine_ls_extinction_method     none
_refine_ls_goodness_of_fit_ref   1.069
_refine_ls_hydrogen_treatment    mixed
_refine_ls_matrix_type           full
_refine_ls_number_parameters     167
_refine_ls_number_reflns         2600
_refine_ls_number_restraints     0
_refine_ls_restrained_S_all      1.069
_refine_ls_R_factor_all          0.0573
_refine_ls_R_factor_gt           0.0442
_refine_ls_shift/su_max          0.004
_refine_ls_shift/su_mean         0.000
_refine_ls_structure_factor_coef Fsqd
_refine_ls_weighting_details
'w=1/[\s^2^(Fo^2^)+(0.0441P)^2^+0.0138P] where P=(Fo^2^+2Fc^2^)/3'
_refine_ls_weighting_scheme      calc
_refine_ls_wR_factor_gt          0.0964
_refine_ls_wR_factor_ref         0.1051
_reflns_Friedel_coverage         0.000
_reflns_number_gt                2149
_reflns_number_total             2600
_reflns_threshold_expression     'I > 2\s(I)'
_cod_data_source_file            d1dt03159g2.cif
_cod_data_source_block           shelx
_cod_database_code               7708597
_shelx_shelxl_version_number     2014/7
_shelx_space_group_comment
;
The symmetry employed for this shelxl refinement is uniquely defined
by the following loop, which should always be used as a source of
symmetry information in preference to the above space-group names.
They are only intended as comments.
;
_shelx_estimated_absorpt_t_min   0.762
_shelx_estimated_absorpt_t_max   0.938
_oxdiff_exptl_absorpt_empirical_full_min 0.880
_oxdiff_exptl_absorpt_empirical_full_max 1.249
_oxdiff_exptl_absorpt_empirical_details
;
Empirical correction (ABSPACK) includes:
- Absorption correction using spherical harmonics
- Frame scaling
;
_shelx_res_file
;

    shelx.res created by SHELXL-2014/7


TITL shelxt_a.res in P-1
CELL  0.71073   7.9088   8.9979   9.1722   83.382   77.031   73.001
ZERR     1.00   0.0007   0.0008   0.0008    0.007    0.007    0.007
LATT   1
SFAC  C   H   N   CO
UNIT  16  24  14  1
MERG   2
SIZE  0.088 0.332 0.390
TEMP  24
REM   Crystal shape/color: paralelepiped/violet
CONF
ABIN
FMAP   2
PLAN  -3
ACTA
EQIV $1 -x+2, -y+1, -z+1
HTAB C14 N3_$1
EQIV $2 x, y, z+1
HTAB C13 N3_$2
L.S.  5
WGHT    0.044100    0.013800
FVAR      12.65993
C11   1    0.631208    0.380049    0.778758    11.00000    0.03247    0.03127 =
         0.03148   -0.00505   -0.00340   -0.00858
C12   1    0.678554    0.603601    0.709298    11.00000    0.04619    0.03503 =
         0.04320    0.00107   -0.01609   -0.01800
C13   1    0.742347    0.555325    0.835823    11.00000    0.04858    0.04470 =
         0.04396   -0.00372   -0.01877   -0.01862
C14   1    0.761635    0.316560    1.011194    11.00000    0.05399    0.05589 =
         0.03461    0.00536   -0.01483   -0.01141
AFIX 137
H14A  2    0.728414    0.221494    1.015344    11.00000   -1.50000
H14B  2    0.699068    0.371597    1.099945    11.00000   -1.50000
H14C  2    0.889460    0.293128    1.004837    11.00000   -1.50000
AFIX   0
C21   1    0.300520    0.806084    0.618615    11.00000    0.03494    0.03543 =
         0.04753   -0.01110   -0.00744   -0.00664
C22   1    0.115337    0.682946    0.594676    11.00000    0.03314    0.03719 =
         0.06568   -0.00843   -0.00816   -0.00791
C23   1    0.016219    0.819466    0.650241    11.00000    0.03392    0.04208 =
         0.06543   -0.00803   -0.00409    0.00211
C24   1    0.088489    1.052237    0.726120    11.00000    0.07732    0.04711 =
         0.09250   -0.03536   -0.02650    0.00804
AFIX 123
H24A  2   -0.040348    1.093199    0.751003    10.50000   -1.50000
H24B  2    0.137496    1.043099    0.814528    10.50000   -1.50000
H24C  2    0.138323    1.121106    0.652563    10.50000   -1.50000
H24D  2    0.197328    1.078403    0.727726    10.50000   -1.50000
H24E  2    0.019485    1.128503    0.664201    10.50000   -1.50000
H24F  2    0.018658    1.050496    0.826166    10.50000   -1.50000
AFIX   0
N1    3    0.626320    0.653979    0.401793    11.00000    0.04412    0.03239 =
         0.03261   -0.00561    0.00132   -0.01788
N2    3    0.724239    0.638108    0.280552    11.00000    0.03724    0.03216 =
         0.03950   -0.00155   -0.00558   -0.01540
N3    3    0.818385    0.631860    0.164620    11.00000    0.06578    0.07250 =
         0.04740   -0.01156    0.01526   -0.03309
N11   3    0.606996    0.492696    0.673602    11.00000    0.03109    0.02918 =
         0.02994   -0.00470   -0.00454   -0.00934
N12   3    0.712912    0.413077    0.879571    11.00000    0.03457    0.04359 =
         0.02834    0.00021   -0.00847   -0.00843
N21   3    0.295107    0.673621    0.574941    11.00000    0.03083    0.02750 =
         0.03022   -0.00321   -0.00413   -0.00696
N22   3    0.134369    0.898227    0.665344    11.00000    0.04510    0.03009 =
         0.04721   -0.01159   -0.01038    0.00144
CO    4    0.500000    0.500000    0.500000    10.50000    0.02983    0.02554 =
         0.02638   -0.00312   -0.00375   -0.00868
H11   2    0.597427    0.288265    0.788021    11.00000    0.02772
H12   2    0.676314    0.700235    0.647387    11.00000    0.04071
H13   2    0.791300    0.602630    0.891847    11.00000    0.05763
H21   2    0.404288    0.833863    0.621184    11.00000    0.04538
H22   2    0.080205    0.588554    0.569582    11.00000    0.04932
H23   2   -0.107308    0.874844    0.667479    11.00000    0.06209
HKLF    4

REM  shelxt_a.res in P-1
REM R1 =  0.0442 for    2149 Fo > 4sig(Fo)  and  0.0573 for all    2600 data
REM    167 parameters refined using      0 restraints

END

WGHT      0.0417      0.0239

REM Highest difference peak  0.330,  deepest hole -0.404,  1-sigma level  0.063
Q1    1   0.2135  0.6632  0.6016  11.00000  0.05    0.33
Q2    1   0.6143  0.5578  0.6971  11.00000  0.05    0.28
Q3    1   0.8969  0.5965  0.2439  11.00000  0.05    0.26
;
_shelx_res_checksum              50505
_shelx_hkl_file
;
 -10  -3  -4 10168.7 2083.53   2
 -10  -3  -3 2171.10 1154.76   2
 -10  -2  -5 6018.89 1695.53   2
 -10  -2  -4 4558.23 1437.72   2
 -10  -2  -3 1563.20 1082.25   2
 -10  -2  -2-949.344 869.892   2
 -10  -1  -5 5293.75 1575.33   2
 -10  -1  -4 810.000 817.657   2
 -10  -1  -3 2854.24 1170.27   2
 -10  -1  -2 1170.22 939.006   2
 -10  -1  -1 1184.41 968.885   2
 -10   0  -3 442.140 460.313   2
 -10   0  -2 1905.90 1168.15   2
 -10   0  -1 6168.28 1728.44   2
  -9  -7   1 4328.94 1378.28   4
  -9  -6  -5 3520.65 1368.63   2
  -9  -6  -4 4633.01 1485.06   2
  -9  -6  -3 84.5275 388.199   2
  -9  -6  -2 7941.17 1855.24   2
  -9  -6  -1 3942.84 1349.18   2
  -9  -6   1 17498.7 2479.89   4
  -9  -5  -6 455.585 854.110   2
  -9  -5  -5 5330.16 1627.08   2
  -9  -5  -4 5290.88 1522.69   2
  -9  -5  -3 809.258 899.746   2
  -9  -5  -2 4452.25 1469.13   2
  -9  -5  -1 10720.8 2206.65   2
  -9  -5   0 2467.32 1164.20   2
  -9  -4  -6 2387.32 1173.73   2
  -9  -4  -5 7429.60 1784.50   2
  -9  -4  -4 5282.74 1515.01   2
  -9  -4  -3 824.226 761.929   2
  -9  -4  -2 2933.50 1280.59   2
  -9  -4  -1 13619.0 2336.26   2
  -9  -4   0 1704.84 1142.04   2
  -9  -3  -6 11159.6 2079.21   2
  -9  -3  -5 6473.78 1639.86   2
  -9  -3  -4 3841.24 1299.66   2
  -9  -3  -3 1119.48 920.403   2
  -9  -3  -2 775.993 812.419   2
  -9  -3  -1 12393.7 2252.78   2
  -9  -3   0 4501.04 1461.64   2
  -9  -2  -6 8060.15 1722.32   2
  -9  -2  -5 4387.23 1409.32   2
  -9  -2  -4 7437.30 1700.34   2
  -9  -2  -3 3479.46 1259.94   2
  -9  -2  -2 5405.02 1546.51   2
  -9  -2  -1 14827.2 2388.12   2
  -9  -1  -5 9307.85 1862.46   2
  -9  -1  -4 1819.41 946.436   2
  -9  -1  -3 3687.67 1179.58   2
  -9  -1  -2 189.043 732.334   2
  -9  -1  -1 7609.39 1766.72   2
  -9   0  -5 3054.21 977.000   2
  -9   0  -4 782.496 823.999   2
  -9   0  -3 8606.14 1745.86   2
  -9   0  -2 5383.60 1412.50   2
  -9   0  -1 3540.84 1247.14   2
  -9   1  -3 2820.74 967.253   2
  -9   1  -2 1289.67 759.656   2
  -9   1  -1 221.603 592.782   2
  -8  -9  -3 6829.34 1813.18   2
  -8  -9  -2 5454.99 1625.90   2
  -8  -9  -1 6495.51 1651.04   2
  -8  -8  -5 3790.72 1227.48   2
  -8  -8  -4 8336.00 1973.90   2
  -8  -8  -3 11287.9 2215.03   2
  -8  -8  -2 11054.0 2170.31   2
  -8  -8  -1 2250.62 1101.27   2
  -8  -8   0 9590.98 1929.99   4
  -8  -8   0 8969.34 1905.77   2
  -8  -8   1 5169.41 1467.38   4
  -8  -8   1 6581.57 1701.54   2
  -8  -8   2 1316.19 741.156   4
  -8  -8   3-737.836 546.445   4
  -8  -7  -5 7494.98 1737.90   2
  -8  -7  -4 3495.10 1286.59   2
  -8  -7  -3 6009.92 1641.41   2
  -8  -7  -2 8039.36 1823.64   2
  -8  -7  -1-60.2074 355.101   2
  -8  -7   0 8130.93 1827.52   2
  -8  -7   1 11760.8 2190.54   2
  -8  -7   1 9112.44 1774.86   4
  -8  -7   2 1154.01 730.331   4
  -8  -7   2-771.756 587.146   2
  -8  -7   3 89.5493 256.531   4
  -8  -6  -5 1490.63 955.499   2
  -8  -6  -4 2561.40 1098.91   2
  -8  -6  -3 388.383 771.268   2
  -8  -6  -2 14188.0 2367.09   2
  -8  -6  -1-1226.33 894.771   2
  -8  -6   0 9756.11 2029.76   2
  -8  -6   1 14580.6 2139.50   4
  -8  -6   1 14691.3 2383.94   2
  -8  -6   2 6649.45 1434.74   4
  -8  -5  -5 5705.87 1522.40   2
  -8  -5  -4 723.398 825.186   2
  -8  -5  -3 688.516 807.672   2
  -8  -5  -2 15045.5 2348.27   2
  -8  -5  -1 16032.7 2435.79   2
  -8  -5   0 16239.0 2440.73   2
  -8  -5   2 6039.54 1272.47   4
  -8  -4  -6 8088.80 1762.53   2
  -8  -4  -5 11323.3 2011.32   2
  -8  -4  -4 1753.08 942.918   2
  -8  -4  -3 3537.69 1174.62   2
  -8  -4  -2 25599.9 2984.89   2
  -8  -4  -1 18377.1 2572.62   2
  -8  -4   0 1748.15 799.839   2
  -8  -4   2 1707.64 705.096   4
  -8  -3  -6 30014.7 3184.23   2
  -8  -3  -5 39008.6 3603.99   2
  -8  -3  -4 2772.87 1142.15   2
  -8  -3  -3 1715.85 1061.94   2
  -8  -3  -2 2548.89 1007.94   2
  -8  -3  -1 16950.6 2388.14   2
  -8  -2  -5 5063.94 1319.67   2
  -8  -2  -4 3184.25 1175.67   2
  -8  -2  -3 1534.45 830.989   2
  -8  -2  -2 16530.1 2343.30   2
  -8  -2  -1 44818.0 3812.21   2
  -8  -1  -5 34.4653 614.520   2
  -8  -1  -4 16839.5 2258.10   2
  -8  -1  -3 15454.2 2197.65   2
  -8  -1  -2 8125.08 1646.91   2
  -8  -1  -1 7845.70 1652.99   2
  -8   0  -5 1785.55 824.672   2
  -8   0  -4 4293.15 1211.83   2
  -8   0  -3 4195.33 1175.38   2
  -8   0  -2 751.554 663.797   2
  -8   0  -1 5047.46 1312.13   2
  -8   1  -5 813.173 563.900   2
  -8   1  -4-380.799 529.309   2
  -8   1  -3 15064.9 2021.94   2
  -8   1  -2 660.120 579.975   2
  -8   1  -1 9920.12 1708.96   2
  -8   2  -2 3951.09 1070.92   2
  -8   2  -1 5767.58 1272.37   2
  -7 -11  -1 3796.86 1332.68   2
  -7 -10  -3 2727.02 1114.40   2
  -7 -10  -2 6231.63 1602.10   2
  -7 -10  -1 1956.34 878.928   2
  -7 -10   0-625.759 632.253   2
  -7 -10   1 1878.92 851.188   2
  -7 -10   2 1902.89 962.226   2
  -7  -9  -4 8338.67 1798.78   2
  -7  -9  -3 8582.66 1835.32   2
  -7  -9  -2 2241.35 1033.86   2
  -7  -9  -2 1035.67 783.954   4
  -7  -9  -1 7326.70 1776.31   2
  -7  -9  -1 9964.39 1911.41   4
  -7  -9   0 5845.34 1597.43   2
  -7  -9   0 7759.48 1779.54   4
  -7  -9   1 6058.81 1660.86   4
  -7  -9   1 8564.33 1817.92   2
  -7  -9   2 4017.63 1222.43   2
  -7  -9   2 3166.07 1143.38   4
  -7  -9   3-490.324 585.303   2
  -7  -8  -4 3364.45 1195.84   2
  -7  -8  -3 24819.7 3019.34   2
  -7  -8  -2 10898.1 1991.26   2
  -7  -8  -1 16180.8 2434.27   2
  -7  -8   0 23501.7 2905.41   4
  -7  -8   0 21978.5 2816.27   2
  -7  -8   1 6679.77 1680.06   4
  -7  -8   1 6844.20 1629.10   2
  -7  -8   2 943.284 668.252   4
  -7  -8   2 2747.14 1163.34   2
  -7  -8   3-174.738 260.901   4
  -7  -8   4 1479.71 810.219   4
  -7  -7  -5 2935.83 1013.53   2
  -7  -7  -4 1935.55 927.196   2
  -7  -7  -3 43096.2 3879.85   2
  -7  -7  -2 7549.95 1672.57   2
  -7  -7  -1 21323.5 2717.16   2
  -7  -7   0 14410.5 2228.12   2
  -7  -7   1 2285.70 979.722   2
  -7  -7   1 3843.24 1223.63   4
  -7  -7   2-1294.74 811.198   4
  -7  -7   3 4898.06 1347.01   4
  -7  -7   4 88.8403 451.046   4
  -7  -6  -5 6349.17 1575.91   2
  -7  -6  -4-485.572 536.904   2
  -7  -6  -3 20561.8 2588.65   2
  -7  -6  -2 25976.1 2902.42   2
  -7  -6  -1 914.466 691.569   2
  -7  -6   0 4949.34 1405.98   2
  -7  -6   1 422.976 555.537   4
  -7  -6   2 1788.45 809.025   4
  -7  -6   3 24797.2 2769.52   4
  -7  -6   4 13816.9 2063.56   4
  -7  -5  -5 17044.1 2397.80   2
  -7  -5  -4 1620.48 868.687   2
  -7  -5  -3 583.653 658.950   2
  -7  -5  -2 1847.67 848.631   2
  -7  -5  -1 1856.50 936.986   2
  -7  -5   0 15870.1 2232.85   2
  -7  -5   2 7995.99 1481.99   4
  -7  -5   3 34104.8 3060.46   4
  -7  -4  -5 4412.33 1196.03   2
  -7  -4  -4 476.442 661.816   2
  -7  -4  -3 1146.47 901.610   2
  -7  -4  -2 47491.4 3749.08   2
  -7  -4  -1 10434.8 1808.65   2
  -7  -4   2 1496.39 643.217   4
  -7  -4   3 11453.6 1648.36   4
  -7  -3  -5 12351.7 1946.63   2
  -7  -3  -4 5283.95 1341.54   2
  -7  -3  -3 20035.1 2383.05   2
  -7  -3  -2 53508.8 3892.96   2
  -7  -3  -1 44909.5 3612.57   2
  -7  -2  -5 8751.77 1604.07   2
  -7  -2  -4 37813.7 3196.74   2
  -7  -2  -3 19361.5 2305.35   2
  -7  -2  -2 26757.1 2677.38   2
  -7  -2  -1 25402.8 2646.01   2
  -7  -1  -5 205.326 581.455   2
  -7  -1  -4 15883.3 2029.21   2
  -7  -1  -3 9162.14 1553.42   2
  -7  -1  -2 23045.4 2423.31   2
  -7   0  -5-80.7527 518.304   2
  -7   0  -4 49764.4 3465.44   2
  -7   0  -3 18568.7 2099.31   2
  -7   0  -2 7819.76 1413.05   2
  -7   1  -4 6351.82 1235.15   2
  -7   1  -3-759.004 586.946   2
  -7   1  -2 2624.05 907.358   2
  -7   2  -4 1047.80 574.691   2
  -7   2  -3 1190.89 635.221   2
  -7   2  -2 7744.34 1312.65   2
  -7   2  -1 27506.7 2490.70   2
  -7   3  -2 10766.6 1461.31   2
  -7   3  -1 21997.0 2159.67   2
  -6 -10  -4 16810.6 2712.86   4
  -6 -10  -3 11595.3 2325.88   4
  -6 -10  -2 5339.38 1404.18   2
  -6 -10  -2 7172.92 1753.47   4
  -6 -10  -1 1425.53 993.127   4
  -6 -10  -1 447.061 478.759   2
  -6 -10   0 406.334 617.394   4
  -6 -10   0 1043.44 708.601   2
  -6 -10   1 1948.80 803.657   2
  -6  -9  -3 7254.49 1594.92   2
  -6  -9  -2 4580.49 1330.89   2
  -6  -9  -2 2835.23 1190.45   4
  -6  -9  -1 6305.23 1462.74   2
  -6  -9  -1 8790.57 1799.24   4
  -6  -9   0 3055.46 1084.31   2
  -6  -9   0 1989.39 954.092   4
  -6  -9   1-14.2611 390.036   4
  -6  -9   1 1699.68 828.498   2
  -6  -9   2 8524.25 1839.69   4
  -6  -9   2 7762.34 1708.51   2
  -6  -9   3 8824.91 1989.11   4
  -6  -9   3 5378.85 1402.68   2
  -6  -9   4 3242.24 1116.32   2
  -6  -8  -4 212.672 633.780   2
  -6  -8  -3 671.050 625.445   2
  -6  -8  -2 5465.22 1368.70   2
  -6  -8  -1 19986.2 2578.75   4
  -6  -8  -1 18660.8 2445.64   2
  -6  -8   0 26472.5 3000.09   4
  -6  -8   0 27199.4 2905.85   2
  -6  -8   1 3149.08 1124.47   4
  -6  -8   1 3174.22 1091.08   2
  -6  -8   2 20934.7 2741.13   4
  -6  -8   2 21937.3 2668.05   2
  -6  -8   3 19915.1 2722.17   4
  -6  -8   4 6112.54 1483.75   4
  -6  -7  -4 39.1325 635.875   2
  -6  -7  -3 18107.2 2365.67   2
  -6  -7  -2 10847.4 1868.38   2
  -6  -7  -1 59142.7 4197.64   2
  -6  -7   0 19837.2 2495.56   4
  -6  -7   0 20322.1 2474.69   2
  -6  -7   1 6626.50 1435.20   4
  -6  -7   1 5247.10 1352.58   2
  -6  -7   2 9772.31 1804.05   4
  -6  -7   3 23526.1 2790.44   4
  -6  -7   4 15139.1 2286.71   4
  -6  -6  -4 9391.75 1725.26   2
  -6  -6  -3 26319.1 2726.76   2
  -6  -6  -2 17094.6 2183.07   2
  -6  -6  -1 37023.6 3225.85   2
  -6  -6   0 13825.2 1996.20   2
  -6  -6   1 2880.68 1001.19   4
  -6  -6   2 2759.07 985.018   4
  -6  -6   2 2794.84 669.451   5
  -6  -6   3 12095.5 1481.11   5
  -6  -6   3 13550.1 1986.40   4
  -6  -6   4 14849.3 2136.90   4
  -6  -6   4 15652.0 1822.25   5
  -6  -6   5 3798.73 956.039   5
  -6  -6   6 1008.76 669.581   5
  -6  -5  -5 11772.3 1855.58   2
  -6  -5  -4 21892.4 2486.67   2
  -6  -5  -3 43343.1 3433.92   2
  -6  -5  -2 12357.8 1789.99   2
  -6  -5  -1 26162.1 1705.37   3
  -6  -5  -1 26477.6 2603.76   2
  -6  -5  -1 23249.3 1616.47   6
  -6  -5   0-56.3302 554.953   2
  -6  -5   0-196.668 180.470   5
  -6  -5   1 508.902 290.223   5
  -6  -5   2 1540.46 710.846   4
  -6  -5   3 7341.24 1395.46   4
  -6  -5   4 28127.2 2703.16   4
  -6  -4  -5 10973.2 1751.59   2
  -6  -4  -4 39826.8 3266.80   2
  -6  -4  -3 41990.7 3316.41   2
  -6  -4  -2 20784.8 2281.32   2
  -6  -4  -1 451.005 346.061   3
  -6  -4  -1-713.307 633.783   2
  -6  -4   0 235.230 194.562   6
  -6  -4   0-27.3005 130.753   5
  -6  -4   2 31301.8 2593.58   4
  -6  -4   3 7321.14 1302.18   4
  -6  -4   4 11165.0 1572.41   4
  -6  -3  -5 1139.38 730.069   2
  -6  -3  -4 10767.3 1661.28   2
  -6  -3  -3 15756.5 1980.56   2
  -6  -3  -2 24933.2 2441.09   2
  -6  -3  -1 13353.8 626.405   5
  -6  -3  -1 13292.8 1802.92   2
  -6  -3   0 24381.4 1274.26   5
  -6  -3   1 13161.6 1112.64   5
  -6  -3   3 1143.63 502.450   4
  -6  -3   4 3100.44 771.866   4
  -6  -2  -5 930.766 730.096   2
  -6  -2  -4 2206.27 845.489   2
  -6  -2  -3 36160.3 2872.11   2
  -6  -2  -2 104064. 2581.38   5
  -6  -2  -2 109846. 5092.93   2
  -6  -2  -1 15641.4 989.031   5
  -6  -2   0 8231.60 830.980   5
  -6  -2   1 15409.0 1270.91   5
  -6  -2   3 33697.6 2274.17   4
  -6  -1  -5 21263.0 2185.49   2
  -6  -1  -4 8087.43 1357.98   2
  -6  -1  -3 16487.5 1878.33   2
  -6  -1  -2 32057.3 1636.67   5
  -6  -1  -2 31523.0 2588.85   2
  -6  -1  -1 43065.2 2067.27   5
  -6  -1   0 40312.5 2121.50   5
  -6  -1   1 43204.4 2364.55   5
  -6  -1   3 28876.0 1860.75   4
  -6   0  -4 5505.41 1142.56   2
  -6   0  -3 8854.35 1011.11   5
  -6   0  -3 11872.4 1562.87   2
  -6   0  -2 70586.1 3002.86   5
  -6   0  -2 82107.6 4125.12   2
  -6   0  -1 52819.3 2622.34   5
  -6   1  -4 43309.1 2875.40   2
  -6   1  -3 3419.92 834.337   2
  -6   1  -2 13003.2 1546.22   2
  -6   2  -4 20290.3 1812.13   2
  -6   2  -3 146.045 395.215   2
  -6   2  -2 9112.72 1266.90   2
  -6   3  -3 168.667 303.665   2
  -6   3  -2 12478.8 1408.49   2
  -6   4  -1 15368.5 1537.64   2
  -5 -10  -5 5115.97 1525.67   4
  -5 -10  -4 435.926 744.810   4
  -5 -10  -3 21421.9 2944.99   4
  -5 -10  -2 17989.1 2759.54   4
  -5 -10  -1 12382.2 2380.21   4
  -5 -10  -1 10625.0 1795.57   2
  -5 -10   0 5517.01 1354.72   2
  -5 -10   0 5010.52 1467.06   4
  -5 -10   1 4738.23 1430.91   4
  -5 -10   2 5085.13 1514.85   4
  -5  -9  -3 6547.84 1541.94   4
  -5  -9  -2 40522.9 3787.69   4
  -5  -9  -2 36423.9 3277.11   2
  -5  -9  -1 27635.0 3171.43   4
  -5  -9  -1 33654.7 3112.36   2
  -5  -9   0 251.577 444.987   2
  -5  -9   0 1857.71 948.852   4
  -5  -9   1-1104.16 834.335   4
  -5  -9   1 745.313 504.529   2
  -5  -9   2-881.230 686.493   4
  -5  -9   2 709.002 498.669   2
  -5  -9   3 9422.73 1662.96   2
  -5  -9   3 10238.6 2053.13   4
  -5  -8  -3 1117.18 712.578   2
  -5  -8  -2 11455.6 1821.12   2
  -5  -8  -1 4502.09 1258.63   4
  -5  -8  -1 1851.25 732.809   2
  -5  -8   0 1510.29 831.993   2
  -5  -8   0-200.198 550.781   4
  -5  -8   1 3107.44 777.002   5
  -5  -8   1 3627.40 1233.74   4
  -5  -8   1 3229.22 1001.02   2
  -5  -8   2 27062.0 2762.38   2
  -5  -8   2 23513.4 2146.83   5
  -5  -8   2 27159.3 3058.49   4
  -5  -8   3 30034.4 3242.91   4
  -5  -8   3 27834.9 2468.73   5
  -5  -8   4 14786.2 1940.25   5
  -5  -8   5-393.153 577.632   5
  -5  -8   6 432.224 591.380   5
  -5  -7  -3 10686.3 1733.49   2
  -5  -7  -2 3513.74 1053.21   2
  -5  -7  -2 3485.74 536.434   5
  -5  -7  -1 41483.3 3266.09   2
  -5  -7  -1 46471.7 2158.12   5
  -5  -7   0 4641.46 1261.32   4
  -5  -7   0 5050.43 1200.74   2
  -5  -7   0 6293.47 884.947   5
  -5  -7   1 11304.0 1293.47   5
  -5  -7   1 8393.87 1485.47   2
  -5  -7   1 10398.9 1800.88   4
  -5  -7   2 26261.9 2097.15   5
  -5  -7   2 23515.7 2722.40   4
  -5  -7   3 23757.0 2706.21   4
  -5  -7   3 24717.1 2195.01   5
  -5  -7   4 36633.6 3456.28   4
  -5  -7   4 22612.4 2271.08   5
  -5  -7   5 1740.06 805.210   5
  -5  -7   6 1734.75 782.377   5
  -5  -7   7 545.387 574.360   5
  -5  -6  -4 64013.2 4149.45   2
  -5  -6  -3 36863.4 1841.59   1
  -5  -6  -3 35696.0 3037.47   2
  -5  -6  -2 16111.5 1279.13   1
  -5  -6  -2 17223.8 2032.20   2
  -5  -6  -2 15731.9 1069.12   3
  -5  -6  -1 17930.9 1093.13   5
  -5  -6  -1 15270.6 1936.70   2
  -5  -6  -1 16131.5 1383.16   1
  -5  -6  -1 17768.5 1341.21   3
  -5  -6   0 1750.99 667.693   2
  -5  -6   0 1084.89 348.710   5
  -5  -6   1 18197.6 1479.74   5
  -5  -6   1 17322.5 2108.47   4
  -5  -6   2 44970.1 2578.06   5
  -5  -6   2 39575.9 3315.58   4
  -5  -6   3 16624.4 1718.23   5
  -5  -6   3 19161.7 2309.20   4
  -5  -6   4 29024.2 2476.54   5
  -5  -6   4 27545.0 2808.29   4
  -5  -6   5 5652.20 1201.99   5
  -5  -6   6 719.916 601.291   5
  -5  -6   7 4319.10 1167.48   5
  -5  -5  -4 95714.7 4957.37   2
  -5  -5  -4 91522.9 2338.50   1
  -5  -5  -3 75107.6 4299.04   2
  -5  -5  -3 75385.0 2252.97   1
  -5  -5  -2 8957.60 793.667   1
  -5  -5  -2 8426.68 730.294   3
  -5  -5  -2 8225.03 1409.32   2
  -5  -5  -1 38209.5 1932.78   3
  -5  -5  -1 40260.4 3001.33   2
  -5  -5  -1 38264.3 1292.29   5
  -5  -5  -1 37087.4 2107.22   6
  -5  -5  -1 39438.3 1962.14   1
  -5  -5   0 3614.51 685.387   1
  -5  -5   0 3167.80 622.784   3
  -5  -5   0 2201.50 841.715   2
  -5  -5   0 2613.46 591.104   6
  -5  -5   0 3416.98 489.800   5
  -5  -5   1 26269.8 1798.49   6
  -5  -5   1 29921.4 1740.11   5
  -5  -5   2 31216.3 2035.80   5
  -5  -5   2 29662.7 2600.40   4
  -5  -5   3 2046.21 769.906   4
  -5  -5   4 5616.03 1228.87   4
  -5  -4  -4 34761.1 2856.06   2
  -5  -4  -3 229250. 7761.54   2
  -5  -4  -2 51993.8 1907.06   3
  -5  -4  -2 49226.9 2314.35   6
  -5  -4  -2 50625.5 3323.36   2
  -5  -4  -1 21800.9 2132.81   2
  -5  -4  -1 20931.4 1373.14   3
  -5  -4  -1 22918.7 1441.48   6
  -5  -4   0 5227.05 659.687   6
  -5  -4   0 4825.24 529.462   5
  -5  -4   0 5013.43 748.586   3
  -5  -4   1 22745.4 1409.62   6
  -5  -4   2 8650.49 1317.84   4
  -5  -4   2 9132.08 976.966   6
  -5  -4   3 1255.57 625.877   4
  -5  -4   4 1180.40 642.962   4
  -5  -3  -4 25638.6 2368.47   2
  -5  -3  -1 2562.79 502.147   3
  -5  -3   0 434.647 203.112   6
  -5  -3   0-7.96014 243.396   3
  -5  -3   1 4691.39 488.466   6
  -5  -3   2 36054.9 1606.87   6
  -5  -3   3 12212.0 1446.50   4
  -5  -3   4 6410.84 1147.51   4
  -5  -2  -4 696.752 637.262   2
  -5  -2  -3 23346.1 2133.17   2
  -5  -2  -2 26817.2 2256.71   2
  -5  -2  -1 5002.93 465.231   5
  -5  -2   0 23357.0 1253.50   5
  -5  -2   0 26073.3 1770.42   3
  -5  -2   2 45011.0 1278.99   6
  -5  -2   3 34281.1 2219.82   4
  -5  -2   4 27487.7 1954.43   4
  -5  -1  -4 11096.2 1462.21   2
  -5  -1  -3 1244.89 581.958   2
  -5  -1  -2 72760.4 2364.34   5
  -5  -1  -2 75613.9 3695.99   2
  -5  -1  -1 12318.9 940.044   5
  -5  -1   0 44771.5 2025.90   5
  -5  -1   1 20611.8 1454.83   5
  -5  -1   2 80625.0 3414.25   7
  -5  -1   3 83182.0 2017.03   6
  -5  -1   3 81746.0 3410.49   7
  -5  -1   3 88389.8 3238.27   4
  -5  -1   4 72544.1 2371.48   6
  -5  -1   4 77224.8 3209.80   7
  -5  -1   4 76931.1 2884.70   4
  -5   0  -4 1047.35 559.857   2
  -5   0  -3 2255.88 685.599   2
  -5   0  -3 2992.43 563.895   5
  -5   0  -2 50870.2 2888.43   2
  -5   0  -2 47232.6 2195.81   5
  -5   0  -1 32785.1 1843.18   5
  -5   0   0 71933.8 2938.48   5
  -5   0   1 70841.7 3074.61   5
  -5   0   3 54594.4 2109.41   4
  -5   0   3 55266.4 1465.95   6
  -5   1  -4 26518.5 2033.46   2
  -5   1  -3 48975.9 2756.97   2
  -5   1  -3 49252.7 2567.66   5
  -5   1  -2 90584.3 3813.74   2
  -5   1  -2 77571.9 3298.98   5
  -5   1  -1 82087.8 3415.57   5
  -5   2  -3 60343.2 2903.85   2
  -5   2  -2 34439.9 2183.54   2
  -5   3  -3 28709.5 1780.81   2
  -5   3  -2 25081.4 1726.80   2
  -5   4  -2 30931.5 1727.54   2
  -5   4  -1 279.211 286.240   2
  -4 -11  -5 6152.42 1642.64   4
  -4 -11  -4 2538.81 1198.95   4
  -4 -11  -3 9407.40 2104.39   4
  -4 -11  -2 14237.7 2559.22   4
  -4 -11  -1 8029.81 1962.55   4
  -4 -10  -8 113.724 782.967   4
  -4 -10  -7 1323.18 762.759   4
  -4 -10  -6 929.043 834.980   4
  -4 -10  -5 15318.6 2393.10   4
  -4 -10  -4 1057.36 936.366   4
  -4 -10  -3 5156.53 1529.13   4
  -4 -10  -2 9948.66 2043.28   4
  -4 -10  -1 5817.99 1597.91   4
  -4 -10   0 6191.46 1723.67   4
  -4 -10   1 7666.46 1363.52   5
  -4 -10   1 11554.1 2140.23   4
  -4 -10   2 15765.2 2039.13   5
  -4 -10   2 19603.2 2820.08   4
  -4 -10   3 5102.27 1271.71   5
  -4 -10   4 2625.57 1011.50   5
  -4  -9  -4 908.504 757.978   4
  -4  -9  -3 94.6358 444.985   5
  -4  -9  -3 502.916 745.999   4
  -4  -9  -2 20432.6 2632.06   4
  -4  -9  -2 18800.8 1807.52   5
  -4  -9  -1 28440.9 2666.34   2
  -4  -9  -1 29709.6 2344.54   5
  -4  -9  -1 31137.3 3315.06   4
  -4  -9   0 9833.35 1428.62   5
  -4  -9   0 9894.63 1901.20   4
  -4  -9   0 10282.6 1611.37   2
  -4  -9   1 24321.2 2433.08   2
  -4  -9   1 22701.0 2840.45   4
  -4  -9   1 23094.0 2222.53   5
  -4  -9   2 10753.2 1663.47   2
  -4  -9   2 11757.6 2098.82   4
  -4  -9   2 7598.37 1361.58   5
  -4  -9   3 3497.00 1080.46   5
  -4  -9   4 425.319 634.990   5
  -4  -9   5 978.418 582.235   5
  -4  -8  -2 26671.8 2801.18   4
  -4  -8  -2 22182.0 2323.92   2
  -4  -8  -2 27458.6 1950.73   5
  -4  -8  -1 11801.5 1707.81   2
  -4  -8  -1 13930.1 2076.14   4
  -4  -8  -1 13180.6 1414.64   5
  -4  -8   0 1080.04 498.558   5
  -4  -8   0 87.4509 470.485   4
  -4  -8   1 3448.42 1095.85   4
  -4  -8   1 4826.89 1068.96   2
  -4  -8   1 3243.94 822.773   5
  -4  -8   2 10559.3 1552.31   5
  -4  -8   2 9775.97 1893.74   4
  -4  -8   2 8833.13 1454.44   2
  -4  -8   3 12349.2 1707.96   5
  -4  -8   3 14317.4 2240.53   4
  -4  -8   3 12591.1 1735.89   2
  -4  -8   4 5229.67 1235.16   5
  -4  -8   5 8664.61 1604.41   5
  -4  -8   6 2013.82 859.346   5
  -4  -7  -2 3397.13 634.136   5
  -4  -7  -2 4009.93 1086.16   2
  -4  -7  -1 5492.37 837.862   5
  -4  -7  -1 5683.79 1300.18   4
  -4  -7  -1 4705.99 1107.77   2
  -4  -7   0-824.096 579.051   2
  -4  -7   0-962.410 692.505   4
  -4  -7   0 76.8164 327.661   5
  -4  -7   1 21127.8 2138.64   2
  -4  -7   1 23360.1 1914.22   5
  -4  -7   1 21728.9 2443.20   4
  -4  -7   2 41699.0 3032.93   2
  -4  -7   2 40247.4 2675.40   5
  -4  -7   2 41207.8 3458.99   4
  -4  -7   3 26929.8 2353.22   5
  -4  -7   3 31053.2 3050.91   4
  -4  -7   4 7904.17 1365.31   5
  -4  -7   5 4946.92 1219.35   5
  -4  -7   6 10846.7 1802.06   5
  -4  -7   7 3000.35 1070.18   5
  -4  -6  -3 23313.1 2273.04   2
  -4  -6  -3 20766.1 992.593   3
  -4  -6  -2 18108.8 1958.14   2
  -4  -6  -2 15987.5 1376.57   1
  -4  -6  -2 19672.3 1234.87   5
  -4  -6  -2 16184.4 1094.77   3
  -4  -6  -1 140.829 222.652   1
  -4  -6  -1 77.6693 205.802   5
  -4  -6  -1 902.261 311.478   3
  -4  -6  -1 893.773 571.561   2
  -4  -6   0 24203.1 2368.98   4
  -4  -6   0 24843.5 1628.40   5
  -4  -6   0 22592.2 1673.97   3
  -4  -6   0 22331.7 2134.96   2
  -4  -6   1 39059.9 2265.90   5
  -4  -6   1 38819.0 3058.47   4
  -4  -6   1 39991.9 2862.28   2
  -4  -6   2 22676.7 1841.35   5
  -4  -6   2 18700.9 2210.56   4
  -4  -6   3 16560.5 1706.88   5
  -4  -6   3 15093.8 2033.24   4
  -4  -6   4 3638.94 915.443   5
  -4  -6   5 3339.89 1020.37   5
  -4  -6   6 37547.2 3181.77   5
  -4  -6   7 15158.6 2212.02   5
  -4  -6   8 2054.57 980.158   5
  -4  -5  -3 131672. 5501.36   2
  -4  -5  -2 124798. 2993.10   5
  -4  -5  -2 120919. 3654.82   1
  -4  -5  -2 120539. 5104.69   2
  -4  -5  -2 116464. 3064.67   3
  -4  -5  -1 789.534 356.232   1
  -4  -5  -1 1245.43 334.165   3
  -4  -5  -1 962.170 276.490   5
  -4  -5   0 8118.16 992.047   6
  -4  -5   0 10991.7 1120.61   1
  -4  -5   0 10636.0 930.755   5
  -4  -5   0 9747.28 1366.23   2
  -4  -5   0 10068.1 1031.48   3
  -4  -5   1 21185.6 1474.68   5
  -4  -5   1 22179.9 2142.28   4
  -4  -5   2 17324.1 1492.39   5
  -4  -5   2 13687.0 1748.55   4
  -4  -5   3 28441.9 2138.70   5
  -4  -5   3 29019.4 2561.28   4
  -4  -5   4 32432.8 2790.16   4
  -4  -4  -7 3996.13 644.710   1
  -4  -4  -6 6472.53 708.270   1
  -4  -4  -3 141941. 3270.49   1
  -4  -4  -3 140746. 4521.66   6
  -4  -4  -2 27874.6 1260.09   1
  -4  -4  -2 27726.1 1689.16   6
  -4  -4  -2 26433.5 1097.22   3
  -4  -4  -1 2374.85 493.904   6
  -4  -4  -1 2609.21 442.935   3
  -4  -4  -1 2480.57 286.719   5
  -4  -4  -1 2549.77 449.487   1
  -4  -4  -1 3052.21 818.303   2
  -4  -4   0 17818.6 1274.02   6
  -4  -4   0 19103.0 1075.34   5
  -4  -4   0 20485.6 1391.28   1
  -4  -4   0 19430.4 1380.73   3
  -4  -4   1 216709. 6060.00   3
  -4  -4   1 218830. 5713.76   6
  -4  -4   1 223929. 6037.82   1
  -4  -4   1 225400. 5486.10   5
  -4  -4   2 32988.7 2477.08   4
  -4  -4   2 28828.9 1846.01   6
  -4  -4   3 38833.2 2750.79   4
  -4  -4   4 7995.24 1271.03   4
  -4  -3  -8 14803.0 1329.87   1
  -4  -3  -7 10814.2 1003.72   1
  -4  -3  -6 33840.1 1531.73   1
  -4  -3  -5 10395.8 637.073   1
  -4  -3  -1 161294. 4043.80   3
  -4  -3  -1 161638. 4073.98   6
  -4  -3   0 103509. 3386.87   3
  -4  -3   0 101778. 2905.69   6
  -4  -3   1 101628. 2993.63   6
  -4  -3   1 95976.8 3590.67   3
  -4  -3   2 4110.54 840.865   4
  -4  -3   3 5755.78 969.616   4
  -4  -3   4 38236.2 2550.32   4
  -4  -2  -8 3521.60 699.139   1
  -4  -2  -7 1587.72 425.433   1
  -4  -2  -6 25024.1 1337.73   1
  -4  -2  -4 29812.4 2309.01   2
  -4  -2  -1 32966.7 1574.77   3
  -4  -2  -1 29823.0 919.460   5
  -4  -2   0 555.578 365.210   7
  -4  -2   0 526.261 156.248   6
  -4  -2   0 111.400 230.574   3
  -4  -2   1 80080.5 3173.40   3
  -4  -2   1 77969.1 2005.01   6
  -4  -2   3 16571.5 1456.07   4
  -4  -2   4 36450.1 2215.54   4
  -4  -1  -4 71534.1 3460.84   2
  -4  -1  -3 409.959 434.345   2
  -4  -1  -2 1188.95 545.358   2
  -4  -1  -2 580.348 195.534   5
  -4  -1  -1 17008.3 933.553   5
  -4  -1   0 17371.6 1413.59   7
  -4  -1   0 14670.5 1232.97   3
  -4  -1   0 15644.3 1001.54   5
  -4  -1   1 6867.04 763.490   5
  -4  -1   1 6472.05 857.941   7
  -4  -1   1 6291.24 860.040   3
  -4  -1   2 65660.0 2737.83   7
  -4  -1   3 29630.8 1697.26   4
  -4   0  -3 81075.5 3420.01   2
  -4   0  -2 376.738 221.147   5
  -4   0  -2 370.007 392.116   2
  -4   0  -1 6829.21 728.800   5
  -4   0   0 10119.4 936.015   5
  -4   0   1 14492.1 1205.48   7
  -4   0   1 11946.6 1090.75   5
  -4   0   2 216120. 4052.51   6
  -4   0   2 229622. 5628.97   7
  -4   0   2 223528. 6071.17   5
  -4   0   3 77990.3 2259.71   6
  -4   0   3 78838.8 2431.83   4
  -4   0   3 83254.6 2854.21   7
  -4   0   4 20337.0 1253.07   6
  -4   0   4 20522.9 1285.49   7
  -4   0   5 48311.9 1956.68   7
  -4   0   5 47014.6 2273.06   6
  -4   0   6 11742.9 1250.46   6
  -4   0   7-354.243 342.475   6
  -4   1  -3 69997.7 3000.82   2
  -4   1  -3 67260.6 2874.09   5
  -4   1  -2 32410.4 1941.66   2
  -4   1  -2 34611.4 1937.56   5
  -4   1  -1 87449.8 3271.56   5
  -4   1   0 122823. 4057.17   5
  -4   1   1 380.086 271.734   5
  -4   1   3 52115.9 1905.33   6
  -4   1   4-13.3658 204.093   6
  -4   1   5 16469.3 1319.49   6
  -4   1   6 29483.2 1977.87   6
  -4   2  -3 307752. 7229.44   2
  -4   2  -2 81715.7 3047.09   2
  -4   2   3 81550.6 2848.65   6
  -4   2   4 4568.93 690.537   6
  -4   2   5 3521.63 661.162   6
  -4   2   6 14285.9 1424.72   6
  -4   3  -2 23584.8 1402.06   2
  -4   3   2 44338.2 1920.50   4
  -4   3   3 85297.4 3325.77   6
  -4   3   4 2851.10 640.942   6
  -4   3   5 6079.35 921.019   6
  -4   4  -2 29530.9 1327.24   2
  -4   4   1 27159.1 1917.13   4
  -4   4   4 5180.78 940.852   6
  -4   4   5 3518.83 830.937   6
  -4   5  -1 935.609 224.901   2
  -3 -11  -6 3093.64 1170.27   4
  -3 -11  -5 2566.70 1122.85   4
  -3 -11  -4 6285.99 1645.98   4
  -3 -11  -3-137.392 788.977   4
  -3 -11  -2 3897.48 1448.51   4
  -3 -11  -1 14603.0 2510.31   4
  -3 -11  -1 12140.2 1828.74   5
  -3 -11   0 6963.26 1785.10   4
  -3 -11   0 9429.52 1719.78   5
  -3 -11   1 7780.93 1556.57   5
  -3 -11   2 1275.59 813.224   5
  -3 -11   3 1134.94 732.800   5
  -3 -10  -7 2381.09 1072.82   4
  -3 -10  -6 5791.19 1494.65   4
  -3 -10  -5 406.849 720.577   4
  -3 -10  -4 5032.12 1492.65   4
  -3 -10  -3 8378.44 1805.98   4
  -3 -10  -3 7551.10 1359.99   5
  -3 -10  -2 5017.19 1121.71   5
  -3 -10  -2 5559.23 1498.11   4
  -3 -10  -1 4971.89 1171.12   5
  -3 -10  -1 4875.78 1547.91   4
  -3 -10   0 19787.5 2739.98   4
  -3 -10   0 15139.6 1958.66   5
  -3 -10   1 10540.5 2084.04   4
  -3 -10   1 9162.61 1600.54   5
  -3 -10   2 8461.77 1630.10   5
  -3 -10   3-221.496 583.468   5
  -3 -10   4 7567.82 1621.77   5
  -3  -9  -7 342.725 723.960   4
  -3  -9  -6 13803.1 2059.01   4
  -3  -9  -5 8888.59 1676.29   4
  -3  -9  -4 9406.91 1700.21   4
  -3  -9  -3 18538.1 1925.62   5
  -3  -9  -3 20895.7 2584.02   4
  -3  -9  -2 5010.65 1449.45   4
  -3  -9  -2 3741.40 940.328   5
  -3  -9  -1 432.839 500.596   5
  -3  -9  -1-63.2827 744.192   4
  -3  -9   0 7815.46 1681.65   4
  -3  -9   0 8521.59 1414.35   5
  -3  -9   0 9614.09 1435.51   2
  -3  -9   1 18937.0 2075.32   5
  -3  -9   1 18938.0 2545.08   4
  -3  -9   2 28623.4 2720.79   5
  -3  -9   3 12516.8 1882.54   5
  -3  -9   4 5101.63 1302.25   5
  -3  -9   5 2073.67 1013.25   5
  -3  -9   6 766.347 656.973   5
  -3  -8  -4 11187.6 1770.54   4
  -3  -8  -3 55788.4 3872.53   4
  -3  -8  -3 46778.2 2823.80   5
  -3  -8  -2-234.288 402.153   5
  -3  -8  -2 980.987 751.386   4
  -3  -8  -1 1712.73 670.189   5
  -3  -8  -1 2233.35 698.851   2
  -3  -8  -1 2070.40 966.877   4
  -3  -8   0 28059.3 2256.63   5
  -3  -8   0 27606.7 2340.87   2
  -3  -8   0 30018.2 2989.25   4
  -3  -8   1 50884.6 3207.34   5
  -3  -8   1 47855.8 3064.80   2
  -3  -8   1 49663.7 3882.93   4
  -3  -8   2 23086.1 2223.57   5
  -3  -8   2 22210.9 2083.07   2
  -3  -8   2 25952.6 2849.74   4
  -3  -8   3 2243.51 753.320   2
  -3  -8   3 3186.70 958.480   5
  -3  -8   4 671.905 636.547   5
  -3  -8   5 9424.06 1668.48   5
  -3  -8   6 8884.23 1767.37   5
  -3  -7  -4 8205.80 826.027   3
  -3  -7  -3 76145.0 3335.01   5
  -3  -7  -2 50624.4 2647.81   5
  -3  -7  -2 52306.8 3560.92   4
  -3  -7  -1 191.716 635.928   4
  -3  -7  -1-799.535 462.314   5
  -3  -7  -1 695.079 472.417   2
  -3  -7   0-283.454 402.339   2
  -3  -7   0 257.522 390.688   5
  -3  -7   0 620.971 609.841   4
  -3  -7   1 7085.24 1148.94   2
  -3  -7   1 5677.50 981.540   5
  -3  -7   1 4192.98 1217.85   4
  -3  -7   2 9487.12 1357.42   5
  -3  -7   2 9127.58 1626.10   4
  -3  -7   2 6548.60 1127.15   2
  -3  -7   3 24834.7 2280.40   5
  -3  -7   4 227.876 525.078   5
  -3  -7   5 15182.2 1999.48   5
  -3  -7   6 23245.4 2586.11   5
  -3  -7   7 9274.37 1764.40   5
  -3  -6  -5 80760.4 2366.84   3
  -3  -6  -4 51973.8 1842.69   3
  -3  -6  -2 4574.72 970.012   2
  -3  -6  -2 5936.62 806.821   5
  -3  -6  -1 12312.9 1613.92   4
  -3  -6  -1 12920.3 1198.97   5
  -3  -6  -1 14034.3 1567.71   2
  -3  -6   0 17867.9 1484.09   5
  -3  -6   0 14271.7 1535.77   2
  -3  -6   0 15642.5 1856.05   4
  -3  -6   1 70235.2 3196.54   5
  -3  -6   1 66564.2 3395.29   2
  -3  -6   1 68024.5 4007.15   4
  -3  -6   2 23402.4 1911.59   5
  -3  -6   2 22960.9 2359.91   4
  -3  -6   3 50136.0 3028.91   5
  -3  -6   3 52926.8 3678.80   4
  -3  -6   4-94.1126 553.914   5
  -3  -6   5 3146.43 989.921   5
  -3  -6   6 19198.9 2270.81   5
  -3  -6   7 18094.5 2344.37   5
  -3  -6   8 4741.59 1433.32   5
  -3  -5  -9 4604.39 1011.60   1
  -3  -5  -4 6580.59 429.204   3
  -3  -5  -2 138807. 5167.99   2
  -3  -5  -2 141372. 3808.01   5
  -3  -5  -1 60785.8 3145.98   2
  -3  -5  -1 61540.5 2345.12   5
  -3  -5   0 131813. 4769.38   2
  -3  -5   0 128128. 4288.47   1
  -3  -5   0 129210. 3923.71   5
  -3  -5   1 36636.3 2673.61   4
  -3  -5   1 29867.7 1835.29   5
  -3  -5   2 20250.0 1634.01   5
  -3  -5   2 21823.6 2118.74   4
  -3  -5   3 19615.6 1770.65   5
  -3  -5   3 17747.8 1986.14   4
  -3  -5   4 6498.60 1160.34   5
  -3  -5   5 457.983 600.588   5
  -3  -4  -9 14935.8 1678.87   1
  -3  -4  -8 775.500 450.949   1
  -3  -4  -3 18628.0 1478.60   6
  -3  -4  -2 41616.3 2122.64   6
  -3  -4  -2 40392.5 1311.67   3
  -3  -4  -2 38790.2 2473.77   2
  -3  -4  -1 92233.0 2936.29   1
  -3  -4  -1 88989.8 2457.78   5
  -3  -4  -1 86831.0 3126.01   6
  -3  -4  -1 86563.1 3685.51   2
  -3  -4  -1 85190.1 2592.18   3
  -3  -4   0 141919. 3664.34   5
  -3  -4   0 139242. 3988.66   3
  -3  -4   0 142646. 4826.78   2
  -3  -4   0 139751. 4097.52   1
  -3  -4   0 132652. 4131.74   6
  -3  -4   1 52273.9 2463.54   3
  -3  -4   1 52985.1 2500.52   6
  -3  -4   1 52919.2 2230.34   5
  -3  -4   1 54427.7 2512.12   1
  -3  -4   1 50892.2 2888.24   4
  -3  -4   2 7214.32 935.089   5
  -3  -4   2 6343.32 1107.48   4
  -3  -4   3 71384.9 3683.24   4
  -3  -3  -9 9735.69 1329.41   1
  -3  -3  -8 710.748 455.476   1
  -3  -3  -7 27144.2 1822.78   1
  -3  -3  -6 33771.0 1829.88   1
  -3  -3  -4 176770. 5416.67   7
  -3  -3  -3 838.947 367.169   7
  -3  -3  -2 66.7498 67.5340   3
  -3  -3  -2 78.0486 199.323   6
  -3  -3  -1 65410.6 1560.83   5
  -3  -3  -1 65929.7 2331.28   6
  -3  -3  -1 66850.4 1996.17   3
  -3  -3  -1 66546.4 2053.11   1
  -3  -3   0 118815. 3345.62   1
  -3  -3   0 117907. 3334.12   6
  -3  -3   0 120053. 3398.27   3
  -3  -3   0 119939. 2915.23   5
  -3  -3   1 69853.2 2569.52   6
  -3  -3   1 71126.5 2764.39   3
  -3  -3   1 77595.7 2820.54   1
  -3  -3   2 148381. 4688.28   3
  -3  -3   2 147624. 4940.17   4
  -3  -3   2 142733. 4561.23   1
  -3  -3   3 76473.3 3485.63   4
  -3  -2 -10 10465.6 1484.75   1
  -3  -2  -9 33803.3 2434.29   1
  -3  -2  -8 171.742 327.666   1
  -3  -2  -7 72680.8 3056.72   1
  -3  -2  -6 43138.5 2033.24   1
  -3  -2  -5 30191.2 1432.60   1
  -3  -2  -4 100762. 2466.58   1
  -3  -2  -1 150238. 3448.94   3
  -3  -2  -1 149214. 3509.39   6
  -3  -2   0 143588. 3231.66   6
  -3  -2   0 145996. 3764.77   3
  -3  -2   1 205699. 5200.81   3
  -3  -2   1 194544. 4337.82   6
  -3  -2   2 19373.1 1431.24   4
  -3  -2   2 19565.4 1507.38   3
  -3  -2   3 74253.5 3049.29   4
  -3  -1 -10 7463.76 1276.11   1
  -3  -1  -9 25279.2 2156.32   1
  -3  -1  -8 2458.71 688.534   1
  -3  -1  -7 34876.6 2098.18   1
  -3  -1  -6 50951.5 2303.58   1
  -3  -1  -5 2171.89 443.830   1
  -3  -1  -1 25894.3 932.262   5
  -3  -1   0 960.281 238.270   5
  -3  -1   0 654.471 281.823   3
  -3  -1   1 25650.1 1550.00   3
  -3  -1   3 11067.6 945.969   4
  -3   0 -10 5378.50 1169.05   1
  -3   0  -9 10631.2 1482.32   1
  -3   0  -8 3438.87 810.890   1
  -3   0  -7 9532.47 1165.43   1
  -3   0  -3 260120. 6576.24   2
  -3   0  -2 35624.3 1895.70   2
  -3   0  -2 38404.1 1578.89   5
  -3   0  -1 497.015 234.656   5
  -3   0   0 11744.4 870.200   5
  -3   0   1 18836.7 1214.67   5
  -3   0   1 19298.4 1192.29   7
  -3   0   2 80943.9 2564.68   7
  -3   0   2 81468.3 2051.87   6
  -3   0   3 29148.7 1368.82   6
  -3   0   3 30926.2 1415.25   7
  -3   0   3 28475.4 1180.22   4
  -3   0   9 6697.17 1246.57   6
  -3   1  -3 120179. 3848.03   5
  -3   1  -2 119798. 3560.88   2
  -3   1  -2 119072. 3629.86   5
  -3   1  -1 2574.28 497.987   5
  -3   1   0 2844.89 523.585   5
  -3   1   1 31441.7 1783.73   5
  -3   1   2 470652. 10245.1   5
  -3   1   2 474485. 8703.01   6
  -3   1   3 18492.5 1124.59   6
  -3   1   4 4088.83 615.893   6
  -3   1   5 354.224 304.733   6
  -3   1   6 18348.8 1603.17   6
  -3   1   7 25694.5 2076.51   6
  -3   1   8 18509.9 1933.04   6
  -3   1   9 7174.55 1313.59   6
  -3   2  -3 32651.8 2035.40   5
  -3   2  -2 75627.1 3175.11   5
  -3   2  -2 90766.5 2726.22   2
  -3   2  -1 93759.5 3529.18   5
  -3   2   0 61655.6 2774.07   5
  -3   2   1 95072.6 3622.90   5
  -3   2   2 184546. 3903.63   4
  -3   2   2 174452. 4512.46   6
  -3   2   3 1708.32 428.570   6
  -3   2   4 470.067 365.383   6
  -3   2   5 1275.24 442.476   6
  -3   2   6 19483.6 1689.05   6
  -3   2   7 44640.9 2808.69   6
  -3   2   8 12471.1 1568.17   6
  -3   3  -2 26480.2 1168.76   2
  -3   3   2 84231.7 3167.53   6
  -3   3   2 82100.4 2623.80   4
  -3   3   3 52894.2 2512.61   6
  -3   3   4 37402.7 2162.04   6
  -3   3   5 19325.8 1634.34   6
  -3   3   6 349.284 399.980   6
  -3   3   7 2830.01 752.863   6
  -3   3   8 2038.70 660.360   6
  -3   4  -1 1229.64 247.583   2
  -3   4   0 24036.9 1870.56   4
  -3   4   1 99694.3 3764.53   4
  -3   4   2 98345.7 3324.26   4
  -3   4   3 61598.3 3055.71   6
  -3   4   4 1248.70 497.131   6
  -3   4   5 2225.73 665.716   6
  -3   4   6 1180.66 607.951   6
  -3   4   7 10384.5 1431.22   6
  -3   5   1 17184.3 1660.33   4
  -3   5   4 11644.2 1475.39   6
  -3   5   5 35247.7 2631.64   6
  -3   5   6 10320.6 1492.27   6
  -3   5   7 12549.4 1703.12   6
  -3   6   5 21469.9 2222.51   6
  -3   6   6 12790.6 1767.81   6
  -3   7   6 1258.98 680.816   6
  -2 -11  -5 539.018 686.008   4
  -2 -11  -4 3498.69 1246.91   4
  -2 -11  -3 4322.02 1289.24   4
  -2 -11  -3 4197.84 1159.33   5
  -2 -11  -2 1893.36 927.348   5
  -2 -11  -2 1590.69 1011.31   4
  -2 -11  -1 1967.45 778.399   5
  -2 -11   0 6210.36 1464.61   5
  -2 -11   1 6875.60 1589.42   5
  -2 -11   2 340.030 615.195   5
  -2 -10  -6 6180.35 1489.83   4
  -2 -10  -5 1895.83 1038.10   4
  -2 -10  -4 6846.20 1519.44   4
  -2 -10  -3 7046.46 1662.01   4
  -2 -10  -3 5765.29 1281.73   5
  -2 -10  -2 74.3792 391.099   5
  -2 -10  -2 2761.95 1057.11   4
  -2 -10  -1 513.997 603.133   4
  -2 -10  -1-1400.78 803.813   5
  -2 -10   0 16762.5 2155.48   5
  -2 -10   1 29065.5 2883.14   5
  -2 -10   2 11704.7 1872.48   5
  -2 -10   3 5125.03 1292.26   5
  -2 -10   4 3278.00 1164.76   5
  -2  -9  -7 6952.04 1420.29   4
  -2  -9  -6 15750.4 2110.01   4
  -2  -9  -5 427.047 619.285   4
  -2  -9  -4 11684.5 1877.89   4
  -2  -9  -3 18042.6 2297.66   4
  -2  -9  -3 9732.19 1455.70   5
  -2  -9  -2 598.253 760.996   4
  -2  -9  -2 2729.88 815.420   5
  -2  -9  -1 1178.14 1006.97   4
  -2  -9  -1 13.7988 464.719   5
  -2  -9   0 23998.0 2800.65   4
  -2  -9   0 24142.4 2370.40   5
  -2  -9   1 41070.4 3185.97   5
  -2  -9   2 15731.1 2046.68   5
  -2  -9   3 2729.49 926.512   5
  -2  -9   4 5539.22 1395.93   5
  -2  -9   5 5222.35 1359.05   5
  -2  -8  -7 61.2150 555.701   4
  -2  -8  -6 16609.8 2080.65   4
  -2  -8  -5 8266.57 1465.48   4
  -2  -8  -4 22976.5 2383.19   4
  -2  -8  -4 18812.3 1647.55   3
  -2  -8  -3 55600.2 3295.86   5
  -2  -8  -3 55399.7 3786.95   4
  -2  -8  -2 24523.9 2534.34   4
  -2  -8  -2 20879.9 1972.49   5
  -2  -8  -1 2805.32 826.919   5
  -2  -8  -1-147.131 660.893   4
  -2  -8   0 14757.9 1722.50   5
  -2  -8   0 10692.4 1793.92   4
  -2  -8   1 23011.8 1868.02   2
  -2  -8   1 23139.8 2629.32   4
  -2  -8   1 21447.1 2128.23   5
  -2  -8   2 33698.8 2251.93   2
  -2  -8   2 35414.1 2843.60   5
  -2  -8   3 1480.05 749.820   5
  -2  -8   4 2881.12 1043.44   5
  -2  -8   5 5050.76 1256.44   5
  -2  -8   6 9182.80 1824.28   5
  -2  -7  -5 56202.6 2663.16   3
  -2  -7  -4 50633.2 2500.13   3
  -2  -7  -3 43005.7 2645.19   5
  -2  -7  -3 43428.8 3086.50   4
  -2  -7  -2 23363.5 1880.35   5
  -2  -7  -2 23986.9 2323.66   4
  -2  -7  -1 31613.5 2243.62   5
  -2  -7  -1 35414.2 2908.24   4
  -2  -7   0 13861.3 1526.03   5
  -2  -7   0 16344.4 2050.41   4
  -2  -7   0 13470.9 1417.13   2
  -2  -7   1 11892.6 1775.63   4
  -2  -7   1 9083.35 1156.47   2
  -2  -7   1 9299.01 1310.34   5
  -2  -7   2 15915.3 1496.09   2
  -2  -7   2 15258.7 1770.44   5
  -2  -7   2 17724.1 2187.86   4
  -2  -7   3-153.765 377.404   2
  -2  -7   3 1077.74 666.041   5
  -2  -7   4 431.707 564.619   5
  -2  -7   5 13068.3 1858.82   5
  -2  -7   6 13782.0 2031.63   5
  -2  -7   7 10270.8 1902.05   5
  -2  -6  -6 35166.0 1962.72   3
  -2  -6  -5 76477.9 2882.59   3
  -2  -6  -4 20799.8 1375.87   3
  -2  -6  -3 33629.3 2116.50   5
  -2  -6  -2 12586.6 1263.49   5
  -2  -6  -2 12724.2 1595.48   4
  -2  -6  -1 92359.5 4407.06   4
  -2  -6  -1 88122.1 3701.40   2
  -2  -6  -1 89633.6 3541.61   5
  -2  -6   0 16371.7 1498.11   5
  -2  -6   0 17310.9 1523.72   2
  -2  -6   1 265.293 314.829   2
  -2  -6   1 117.484 556.584   4
  -2  -6   1 734.912 443.368   5
  -2  -6   2 14511.1 1550.66   5
  -2  -6   2 13578.9 1801.57   4
  -2  -6   3 11044.3 1455.49   5
  -2  -6   4 268.075 522.236   5
  -2  -6   5 44164.6 3227.37   5
  -2  -6   6 3099.73 994.678   5
  -2  -6   7 8020.85 1579.03   5
  -2  -6   8 8002.67 1661.21   5
  -2  -5 -10 24655.9 2502.42   1
  -2  -5  -7 4970.62 781.960   3
  -2  -5  -6 18377.1 1304.03   3
  -2  -5  -6 18604.6 1550.68   7
  -2  -5  -5 87322.5 2865.20   3
  -2  -5  -5 80006.6 3388.36   7
  -2  -5  -4 28515.8 1437.72   3
  -2  -5  -2 10229.4 1005.50   5
  -2  -5  -1 137593. 4141.09   5
  -2  -5  -1 139559. 4655.95   2
  -2  -5   0 103960. 3790.22   2
  -2  -5   0 103415. 3605.51   5
  -2  -5   1 8740.44 1034.26   5
  -2  -5   1 10813.6 1119.50   2
  -2  -5   2 83679.5 3521.18   5
  -2  -5   2 86718.5 4247.42   4
  -2  -5   3 60510.1 3142.40   5
  -2  -5   4 1302.16 679.394   5
  -2  -5   5 24868.6 2303.17   5
  -2  -5   6 2296.67 807.926   5
  -2  -5   7 1899.72 922.608   5
  -2  -5   8 19554.9 2510.01   5
  -2  -5   9 12598.2 2157.21   5
  -2  -4 -10 32020.5 2818.99   1
  -2  -4  -9 11490.6 1588.74   1
  -2  -4  -6 8702.07 864.825   3
  -2  -4  -5 13467.6 945.773   3
  -2  -4  -5 13705.6 1260.73   7
  -2  -4  -4 19331.1 991.560   3
  -2  -4  -4 18630.3 1449.79   7
  -2  -4  -3 2559.00 347.423   3
  -2  -4  -3 2073.47 518.284   6
  -2  -4  -2 7844.01 746.124   5
  -2  -4  -2 6767.86 842.919   6
  -2  -4  -2 7148.96 1010.11   2
  -2  -4  -1 85827.1 3317.56   2
  -2  -4  -1 82817.5 3068.78   6
  -2  -4  -1 83696.9 2672.66   5
  -2  -4   0 488801. 10313.7   6
  -2  -4   0 484049. 9665.65   5
  -2  -4   0 481978. 10281.7   2
  -2  -4   1 72824.0 2958.95   1
  -2  -4   1 69989.4 2699.44   5
  -2  -4   1 70551.8 3016.72   6
  -2  -4   2 84270.2 3281.07   5
  -2  -4   2 81154.4 3770.24   4
  -2  -4   2 86811.4 3484.70   1
  -2  -4   3 77590.9 3402.43   5
  -2  -3 -11 3924.49 1088.04   1
  -2  -3 -10 16521.5 1972.24   1
  -2  -3  -9 2984.51 891.970   1
  -2  -3  -8 12236.2 1479.70   1
  -2  -3  -7 5590.79 974.189   1
  -2  -3  -4 100520. 3511.48   7
  -2  -3  -4 102199. 2498.35   3
  -2  -3  -3 3851.27 295.839   3
  -2  -3  -3 4307.18 673.897   6
  -2  -3  -3 2660.78 550.161   7
  -2  -3  -2 18600.9 1254.78   6
  -2  -3  -1 52595.0 1632.69   5
  -2  -3  -1 49924.9 2323.19   2
  -2  -3  -1 49047.0 2014.06   6
  -2  -3   0 266656. 5476.01   5
  -2  -3   0 260810. 6004.36   6
  -2  -3   0 264209. 5858.53   1
  -2  -3   1 5539.98 649.620   5
  -2  -3   1 5598.92 711.755   1
  -2  -3   2 143970. 4414.29   1
  -2  -3   2 143523. 4779.78   4
  -2  -3   3 142247. 4892.66   4
  -2  -2 -11 2312.12 878.840   1
  -2  -2 -10 2331.98 849.275   1
  -2  -2  -9 1066.92 649.150   1
  -2  -2  -8 8258.22 1221.22   1
  -2  -2  -7 56223.9 2884.55   1
  -2  -2  -6 18922.4 1461.53   1
  -2  -2  -5 48158.7 2138.96   1
  -2  -2  -3 152803. 4287.36   7
  -2  -2  -2 26723.5 1360.72   6
  -2  -2  -1 147425. 3077.99   1
  -2  -2  -1 149654. 2940.54   3
  -2  -2  -1 148362. 3506.44   6
  -2  -2   0 219155. 4626.82   3
  -2  -2   0 218822. 4623.53   6
  -2  -2   0 217967. 4223.28   5
  -2  -2   0 218567. 4595.56   1
  -2  -2   1 300310. 6416.34   1
  -2  -2   1 300635. 6511.68   3
  -2  -2   2 51424.2 2324.91   4
  -2  -1 -11 4694.40 1157.61   1
  -2  -1 -10 2872.02 902.252   1
  -2  -1  -9 1419.08 631.338   1
  -2  -1  -8 5355.19 1013.69   1
  -2  -1  -7 71578.1 3294.86   1
  -2  -1  -6 6022.94 860.557   1
  -2  -1  -5 76485.6 2770.81   1
  -2  -1  -4 86207.1 2591.06   1
  -2  -1  -3 323539. 6047.71   1
  -2  -1   0 210954. 4456.57   3
  -2  -1   0 209554. 3779.32   6
  -2  -1   2 26221.5 1347.99   4
  -2   0 -11 5481.36 1321.41   1
  -2   0 -10 9566.47 1606.18   1
  -2   0  -9 3172.37 885.967   1
  -2   0  -8 496.771 506.860   1
  -2   0  -7 41538.7 2538.37   1
  -2   0  -6 16967.9 1448.29   1
  -2   0  -5 115334. 3699.33   1
  -2   0  -4 249153. 5675.17   1
  -2   0  -1 41068.6 1378.34   5
  -2   0   0 39674.2 1393.44   5
  -2   0   1 985202. 15971.6   6
  -2   0   1 997097. 16804.5   7
  -2   0   2 18028.8 817.896   4
  -2   0  11 5041.20 1227.95   6
  -2   1 -12 4210.80 1248.74   1
  -2   1 -11 981.211 688.119   1
  -2   1 -10 18226.6 2173.46   1
  -2   1  -9 13609.8 1793.89   1
  -2   1  -8 10461.3 1476.46   1
  -2   1  -7 26377.0 2112.29   1
  -2   1  -6 31163.6 2116.72   1
  -2   1  -2 248175. 5694.07   5
  -2   1  -2 254832. 5391.38   2
  -2   1  -1 375698. 7606.39   5
  -2   1   0 107865. 3086.71   5
  -2   1   1 269331. 5218.29   6
  -2   1   2 202453. 4383.50   6
  -2   1   3 1857.54 382.918   6
  -2   1   4 78665.2 2889.48   6
  -2   1   5 18635.0 1493.46   6
  -2   1   6 7535.69 1039.27   6
  -2   1   7 36941.7 1163.16   7
  -2   1   7 36672.6 2534.89   6
  -2   1   8 9022.12 1417.23   6
  -2   1   9 6616.66 1284.17   6
  -2   1  10 809.343 616.269   6
  -2   1  11 5413.01 1338.01   6
  -2   2  -3 17055.2 1391.88   5
  -2   2  -2 18749.0 1362.70   5
  -2   2   1 433849. 8591.99   6
  -2   2   2 291167. 6194.82   6
  -2   2   2 276663. 5171.41   4
  -2   2   3 298.644 319.062   6
  -2   2   4 34929.7 1925.34   6
  -2   2   5 9835.54 1131.33   6
  -2   2   6-945.907 469.357   6
  -2   2   7 11303.4 1424.00   6
  -2   2   8 17136.0 1881.74   6
  -2   2   9 13259.8 1773.07   6
  -2   2  10 5241.97 1214.01   6
  -2   2  11-481.683 580.033   6
  -2   3  -1 217641. 4083.97   2
  -2   3   1 78924.9 2794.52   4
  -2   3   2 184002. 5046.68   6
  -2   3   3 2.72192 365.443   6
  -2   3   4 9637.34 1092.70   6
  -2   3   5 18825.6 1620.75   6
  -2   3   6 34689.6 2383.92   6
  -2   3   7 12461.8 1542.73   6
  -2   3   8 3173.11 884.181   6
  -2   3   9 1256.39 636.863   6
  -2   3  10 1713.06 873.060   6
  -2   4  -1 11076.3 1306.80   4
  -2   4   0 99150.8 3888.71   4
  -2   4   1 8064.41 988.796   4
  -2   4   2 5925.18 909.613   6
  -2   4   3 33406.6 2170.42   6
  -2   4   4 56180.2 2907.96   6
  -2   4   5 56049.7 3025.39   6
  -2   4   6 9376.48 1330.34   6
  -2   4   7 803.511 545.541   6
  -2   4   8 420.333 497.736   6
  -2   4   9 2543.49 836.146   6
  -2   4  10 5936.45 1333.23   6
  -2   5   1 30998.0 2148.77   4
  -2   5   3 54077.1 3076.52   6
  -2   5   4 295.949 472.561   6
  -2   5   5 3086.93 822.635   6
  -2   5   6 14277.6 1732.46   6
  -2   5   7 24890.8 2389.48   6
  -2   5   8 5732.48 1194.35   6
  -2   5   9 6709.16 1395.48   6
  -2   6   0 62103.9 1793.54   2
  -2   6   4 3027.63 870.602   6
  -2   6   5 9607.78 1513.44   6
  -2   6   6 18596.6 2142.36   6
  -2   6   7 34549.7 2952.20   6
  -2   6   8 10192.9 1677.70   6
  -2   6   9 836.002 569.678   6
  -2   7   5 1330.46 692.858   6
  -2   7   6 7104.21 1422.92   6
  -2   7   7 11550.7 1899.24   6
  -2   7   8 3891.73 1147.45   6
  -2   8   6-189.693 489.181   6
  -2   8   7 6460.61 1439.95   6
  -1 -11  -3-1322.59 762.589   5
  -1 -11  -2 850.529 733.073   5
  -1 -11  -1 2469.11 1016.75   5
  -1 -11   0 7972.42 1704.56   5
  -1 -11   1 10690.1 1987.27   5
  -1 -10  -5 5721.37 1420.11   4
  -1 -10  -4 14433.5 2129.83   4
  -1 -10  -3 7773.37 1482.03   5
  -1 -10  -3 9495.27 1771.01   4
  -1 -10  -2-766.718 584.939   5
  -1 -10  -1 2714.16 952.461   5
  -1 -10   0 3651.72 1146.02   5
  -1 -10   1 5404.37 1326.17   5
  -1 -10   2 1677.34 891.000   5
  -1 -10   3 4074.55 1151.24   5
  -1 -10   4 1375.17 916.196   5
  -1  -9  -5 11043.2 1718.83   4
  -1  -9  -4 19074.4 1963.75   3
  -1  -9  -4 22850.3 2478.99   4
  -1  -9  -3 4488.45 1152.71   5
  -1  -9  -3 2842.94 1028.49   4
  -1  -9  -2 100.084 777.776   4
  -1  -9  -2 184.919 253.621   5
  -1  -9  -1-663.747 558.093   5
  -1  -9   0 422.805 632.451   5
  -1  -9   1 14852.0 1985.95   5
  -1  -9   2 12293.8 1865.14   5
  -1  -9   3 14470.4 2086.97   5
  -1  -9   4 10158.4 1839.09   5
  -1  -9   5 10091.9 1896.58   5
  -1  -8  -6 20103.5 2121.41   4
  -1  -8  -5 6558.33 1291.25   4
  -1  -8  -5 7029.15 1183.37   3
  -1  -8  -4 14728.0 1607.20   3
  -1  -8  -4 13574.9 1793.75   4
  -1  -8  -3 432.406 469.524   5
  -1  -8  -3 528.072 642.380   4
  -1  -8  -2-110.198 718.950   4
  -1  -8  -2-253.807 492.770   5
  -1  -8  -1 44440.2 3399.81   4
  -1  -8  -1 40805.3 2975.05   5
  -1  -8   0 50681.5 3362.99   5
  -1  -8   1 25015.2 2395.47   5
  -1  -8   2 11082.1 1647.16   5
  -1  -8   3 1937.18 805.149   5
  -1  -8   4 20557.2 2420.33   5
  -1  -8   5 17917.2 2354.40   5
  -1  -8   6 4322.57 1276.49   5
  -1  -7  -7 892.884 550.551   4
  -1  -7  -6 8701.66 1192.78   3
  -1  -7  -6 11941.0 1524.37   4
  -1  -7  -5-106.991 432.201   4
  -1  -7  -5-695.658 440.269   3
  -1  -7  -4 15930.5 1528.58   3
  -1  -7  -4 18876.6 1952.19   4
  -1  -7  -3 12498.5 1459.31   5
  -1  -7  -3 14496.2 1753.03   4
  -1  -7  -2 70453.4 3595.75   5
  -1  -7  -2 68637.5 3882.44   4
  -1  -7  -1 142612. 5315.00   5
  -1  -7  -1 134904. 5752.57   4
  -1  -7   0 44713.0 3232.52   4
  -1  -7   0 44943.0 2888.44   5
  -1  -7   1 20308.4 1413.05   2
  -1  -7   1 17546.0 1865.92   5
  -1  -7   2 27728.8 1665.99   2
  -1  -7   2 26843.8 2372.19   5
  -1  -7   3 176.005 217.308   2
  -1  -7   3 283.402 573.870   5
  -1  -7   4 12868.3 1775.60   5
  -1  -7   5 5781.59 1350.56   5
  -1  -7   6 2703.83 934.553   5
  -1  -7   7 1904.69 852.879   5
  -1  -6  -7 395.272 425.541   3
  -1  -6  -6 29654.8 2086.91   3
  -1  -6  -5 51210.5 2667.30   3
  -1  -6  -5 50975.6 2526.65   7
  -1  -6  -4 65260.1 2950.90   3
  -1  -6  -4 69482.1 3441.21   4
  -1  -6  -3 12574.4 1478.75   4
  -1  -6  -3 10773.8 1281.35   5
  -1  -6  -2 9872.89 1219.25   5
  -1  -6  -2 10046.4 1375.59   4
  -1  -6  -1 173835. 5620.40   5
  -1  -6  -1 178750. 6276.57   4
  -1  -6   0 164087. 5509.94   5
  -1  -6   0 171153. 6215.70   4
  -1  -6   1 7602.49 1376.42   4
  -1  -6   1 7567.17 1133.65   5
  -1  -6   1 7421.96 850.777   2
  -1  -6   2 6665.02 805.892   2
  -1  -6   2 8025.37 1227.49   5
  -1  -6   3 5558.45 1087.81   5
  -1  -6   4 7853.18 1319.99   5
  -1  -6   5 21743.3 2271.58   5
  -1  -6   6 2812.37 980.484   5
  -1  -6   7 2928.05 1042.45   5
  -1  -6   8 14021.7 2206.04   5
  -1  -5 -11 3205.01 1141.44   1
  -1  -5 -10-1879.64 938.309   1
  -1  -5  -8 8662.05 1258.68   3
  -1  -5  -7 17446.7 1623.37   3
  -1  -5  -6 59433.7 2874.32   3
  -1  -5  -5 60178.1 2560.17   7
  -1  -5  -5 61270.4 2734.33   3
  -1  -5  -4 16957.3 1317.84   3
  -1  -5  -2 8236.66 1118.16   4
  -1  -5  -2 6862.67 935.157   5
  -1  -5  -1 55696.7 3005.93   4
  -1  -5  -1 54437.2 2608.78   5
  -1  -5   0 1885.34 475.960   2
  -1  -5   0 2657.14 657.492   5
  -1  -5   1 49200.7 2607.54   5
  -1  -5   1 49352.5 2141.13   2
  -1  -5   2 63329.1 3139.24   5
  -1  -5   3 10078.9 1286.42   5
  -1  -5   4 8187.98 1274.95   5
  -1  -5   5 28726.1 2482.49   5
  -1  -5   6 5684.91 1238.21   5
  -1  -5   7 3262.80 1050.47   5
  -1  -5   8 7422.45 1619.11   5
  -1  -5   9 6844.36 1616.22   5
  -1  -4 -11 9700.49 1788.75   1
  -1  -4 -10 2659.12 958.204   1
  -1  -4  -9 9079.48 1533.38   1
  -1  -4  -7 32170.7 2141.19   3
  -1  -4  -6 58390.4 2734.66   3
  -1  -4  -5 145188. 4141.39   7
  -1  -4  -5 147859. 4361.60   3
  -1  -4  -4 1221.59 347.777   7
  -1  -4  -4 1773.04 418.046   3
  -1  -4  -3 2699.76 484.858   3
  -1  -4  -2 28424.1 1617.94   5
  -1  -4  -2 29241.0 1773.87   6
  -1  -4  -1 7348.94 845.023   5
  -1  -4  -1 7725.21 898.435   6
  -1  -4   0 148796. 4018.14   2
  -1  -4   0 149954. 4576.71   6
  -1  -4   0 145489. 4234.74   5
  -1  -4   1 133167. 3658.62   2
  -1  -4   1 131700. 4119.52   5
  -1  -4   2 86298.9 3387.07   5
  -1  -4   3 36967.3 2293.88   5
  -1  -4   4 4246.41 900.868   5
  -1  -4   5 54441.3 3288.12   5
  -1  -4   6 22431.7 2241.75   5
  -1  -3 -11 18493.4 2372.97   1
  -1  -3 -10 2107.81 965.385   1
  -1  -3  -9 2181.17 831.067   1
  -1  -3  -8 86727.0 4302.78   1
  -1  -3  -6 7836.05 976.184   3
  -1  -3  -5 45534.3 2083.48   3
  -1  -3  -4 157.662 205.486   3
  -1  -3  -4 328.490 196.112   7
  -1  -3  -3 86768.1 2516.87   3
  -1  -3  -3 91179.3 3223.56   6
  -1  -3  -2 99370.1 3200.33   6
  -1  -3  -1 968.051 335.104   6
  -1  -3  -1 1432.67 362.118   5
  -1  -3   0 51200.2 2174.20   6
  -1  -3   0 51572.2 1961.65   5
  -1  -3   0 54819.7 2001.49   2
  -1  -3   1 205754. 5005.25   5
  -1  -3   2 138623. 4147.79   5
  -1  -2 -12 4220.01 1442.53   1
  -1  -2 -11 17161.0 2333.18   1
  -1  -2 -10 13442.2 1913.53   1
  -1  -2  -9 4147.05 1017.60   1
  -1  -2  -8 22140.5 2107.73   1
  -1  -2  -7 6657.11 1079.23   1
  -1  -2  -6 12826.0 1339.77   1
  -1  -2  -4 145576. 3766.94   3
  -1  -2  -3 303.160 251.172   7
  -1  -2  -3 25.0460 178.607   3
  -1  -2  -2 260481. 4748.38   3
  -1  -2  -2 251474. 5620.22   6
  -1  -2  -1 93061.6 2222.93   5
  -1  -2  -1 86403.1 2504.01   6
  -1  -2   0 230596. 4926.85   6
  -1  -2   0 227784. 4569.40   5
  -1  -2   1 115012. 3033.99   5
  -1  -1 -12 4505.13 1369.14   1
  -1  -1 -11 10837.2 1774.57   1
  -1  -1 -10 10590.1 1651.73   1
  -1  -1  -9 2570.26 846.245   1
  -1  -1  -8 10957.3 1465.52   1
  -1  -1  -7 16268.7 1632.89   1
  -1  -1  -6 3104.25 717.956   1
  -1  -1  -5 77686.3 3026.44   1
  -1  -1  -4 52353.9 2146.63   1
  -1  -1  -1 335753. 6151.68   6
  -1  -1   0 498258. 8481.01   6
  -1   0 -11 6142.99 1397.39   1
  -1   0 -10 21470.1 2399.99   1
  -1   0  -9 2883.43 894.252   1
  -1   0  -8 110.816 504.689   1
  -1   0  -7 9832.94 1314.78   1
  -1   0  -6 954.901 505.555   1
  -1   0  -5 65031.7 2798.18   1
  -1   0  -4 208316. 5199.20   1
  -1   0  -3 244901. 5307.70   1
  -1   0  -2 814809. 13764.2   1
  -1   1 -11 1311.57 861.359   1
  -1   1 -10 11285.1 1834.15   1
  -1   1  -9 18536.3 2111.41   1
  -1   1  -8 1173.88 718.252   1
  -1   1  -7 12715.5 1515.18   1
  -1   1  -6 43323.0 2556.55   1
  -1   1  -5 404900. 9287.74   1
  -1   1  -4 107478. 3570.80   1
  -1   1  -3 72391.3 2558.86   1
  -1   1   1 802720. 13533.4   6
  -1   1   2 22532.6 1101.54   6
  -1   1   3 38977.8 1756.38   6
  -1   1   8 25738.8 1487.78   7
  -1   1  10 788.440 626.597   6
  -1   1  11 3838.87 1160.03   6
  -1   2 -11-1329.16 874.336   1
  -1   2 -10 8161.64 1649.50   1
  -1   2  -9 32821.2 2923.93   1
  -1   2  -8 9595.46 1532.83   1
  -1   2  -7 45572.1 3011.28   1
  -1   2  -6 114518. 4602.14   1
  -1   2  -5 47785.1 2676.15   1
  -1   2   1 488509. 9287.50   6
  -1   2   1 485881. 8984.18   4
  -1   2   2 1832.86 415.325   6
  -1   2   3 46361.4 2051.27   6
  -1   2   4 64382.5 2702.99   6
  -1   2   4 62815.7 2828.55   3
  -1   2   5 109703. 4000.07   6
  -1   2   6 78407.6 3571.65   6
  -1   2   7 2280.14 715.401   6
  -1   2   8-505.414 502.616   6
  -1   2   9 23431.7 2393.07   6
  -1   2  10-236.262 508.101   6
  -1   2  11 8457.77 1609.94   6
  -1   3  -1 19397.8 1478.99   4
  -1   3   0 39563.2 2002.42   4
  -1   3   1 188318. 5085.27   6
  -1   3   1 196311. 4877.22   4
  -1   3   2 101347. 3378.45   6
  -1   3   3 149851. 4431.70   6
  -1   3   4 116989. 4065.48   6
  -1   3   5 17452.7 1584.89   6
  -1   3   6 51145.9 2916.18   6
  -1   3   7 1050.00 572.805   6
  -1   3   8 811.064 696.035   6
  -1   3   9 26111.9 2545.62   6
  -1   3  10 2042.15 930.873   6
  -1   3  11 813.394 588.977   6
  -1   4  -1 72.9816 350.794   4
  -1   4   0 166886. 5296.67   4
  -1   4   0 176555. 3778.58   2
  -1   4   1 171193. 4997.42   4
  -1   4   2 102715. 3833.17   6
  -1   4   3 4440.42 793.212   6
  -1   4   4 11762.7 1295.81   6
  -1   4   5 10357.8 1295.04   6
  -1   4   6 89549.3 4150.08   6
  -1   4   7 26921.0 2345.17   6
  -1   4   8 93.3136 512.335   6
  -1   4   9 283.153 471.580   6
  -1   4  10 1960.62 765.971   6
  -1   5   0 7344.16 585.244   2
  -1   5   1 328.340 293.149   4
  -1   5   2 46379.9 2744.97   6
  -1   5   3 29150.4 2163.29   6
  -1   5   4 19380.9 1805.11   6
  -1   5   5 237.761 503.518   6
  -1   5   6 16802.4 1834.62   6
  -1   5   7 21804.1 2190.91   6
  -1   5   8 4328.86 1126.24   6
  -1   5   9 3904.16 1133.88   6
  -1   5  10 7306.91 1544.89   6
  -1   6   1 14647.7 1158.91   2
  -1   6   3 1622.56 732.027   6
  -1   6   4 2768.90 860.657   6
  -1   6   5 1160.68 680.106   6
  -1   6   6 15133.9 1903.30   6
  -1   6   7 52066.6 3632.65   6
  -1   6   8 20035.6 2348.93   6
  -1   6   9 2858.00 914.287   6
  -1   7   1-43.7252 173.104   2
  -1   7   2 14725.0 1406.72   2
  -1   7   4 5458.66 1203.56   6
  -1   7   5 11127.3 1758.64   6
  -1   7   6 2978.90 1008.86   6
  -1   7   7 28053.7 2865.21   6
  -1   7   8 11756.7 1926.41   6
  -1   7   9 296.251 526.288   6
  -1   8   5 17952.6 2320.27   6
  -1   8   6-272.858 532.160   6
  -1   8   7 2143.49 872.455   6
  -1   8   8 6896.49 1573.43   6
  -1   9   6 4157.75 1271.50   6
   0 -10  -4 3345.78 1096.43   3
   0 -10  -3-2854.40 1043.38   5
   0 -10  -2 2637.74 1061.26   5
   0 -10  -1 14584.7 2113.35   5
   0 -10   0 14347.9 2131.16   5
   0 -10   1 2948.90 1136.45   5
   0 -10   2 26.6398 615.916   5
   0 -10   3 1203.53 770.667   5
   0  -9  -5 17207.5 1998.86   3
   0  -9  -4 16766.3 2005.95   3
   0  -9  -3 6046.45 1355.54   5
   0  -9  -2 15710.3 2029.74   5
   0  -9  -1 27295.7 2713.47   5
   0  -9   0 4889.49 1266.45   5
   0  -9   1-451.462 609.830   5
   0  -9   2 5613.71 1309.74   5
   0  -9   3 4570.97 1306.95   5
   0  -9   4 12824.0 2131.72   5
   0  -9   5 9717.24 1873.40   5
   0  -8  -6 11066.8 1594.51   3
   0  -8  -5 27210.1 2406.75   3
   0  -8  -5 31342.6 2494.28   4
   0  -8  -4 16070.6 1864.29   3
   0  -8  -4 16559.6 1874.35   4
   0  -8  -3 4483.74 1032.63   4
   0  -8  -3 4878.63 1107.61   5
   0  -8  -2 1802.52 794.556   5
   0  -8  -1 7762.04 1373.65   5
   0  -8   0 11561.7 1687.88   5
   0  -8   1 5997.03 1310.55   5
   0  -8   2 94.0563 668.509   5
   0  -8   3 10888.0 1755.18   5
   0  -8   4 27075.1 2840.00   5
   0  -8   5 15064.0 2194.55   5
   0  -8   6 6423.16 1630.31   5
   0  -7  -7 11668.1 1606.38   3
   0  -7  -6 19655.7 1788.17   4
   0  -7  -6 15515.7 1796.66   3
   0  -7  -5 5039.26 999.322   3
   0  -7  -5 5955.08 1041.87   4
   0  -7  -4-78.4447 372.959   4
   0  -7  -4 924.589 576.319   3
   0  -7  -3 2614.97 800.213   4
   0  -7  -3 2385.67 808.744   5
   0  -7  -2 8328.44 1329.35   4
   0  -7  -2 8623.75 1325.31   5
   0  -7  -1 29419.9 2424.95   5
   0  -7   0 46970.6 3094.36   5
   0  -7   1 84440.1 4303.68   5
   0  -7   2 2454.95 903.292   5
   0  -7   3 18740.8 2161.06   5
   0  -7   4 41995.7 3313.05   5
   0  -7   5 8716.50 1679.19   5
   0  -7   6 2473.48 1088.29   5
   0  -7   7 2611.66 1005.49   5
   0  -6  -8 10915.3 1597.89   3
   0  -6  -7 3901.52 985.464   3
   0  -6  -6 2528.07 810.085   3
   0  -6  -6 3315.98 721.863   4
   0  -6  -5 569.994 447.193   4
   0  -6  -5 41.5051 356.170   3
   0  -6  -4 333.391 331.768   3
   0  -6  -4 321.971 366.162   4
   0  -6  -3 6167.86 1019.02   4
   0  -6  -3 6752.75 1113.11   5
   0  -6  -2 60166.6 3213.59   5
   0  -6  -2 61060.6 3230.31   4
   0  -6  -1 25138.0 2051.31   5
   0  -6  -1 25278.2 2109.74   4
   0  -6   0 148295. 5373.66   5
   0  -6   1 197516. 6509.32   5
   0  -6   2 38042.6 2718.68   5
   0  -6   3 555.098 238.354   2
   0  -6   3-16.2361 458.895   5
   0  -6   4 25179.0 2385.13   5
   0  -6   5 874.881 739.963   5
   0  -6   6 4717.35 1216.55   5
   0  -6   7 5763.85 1354.65   5
   0  -6   8-107.546 598.653   5
   0  -5  -9 1614.22 718.218   3
   0  -5  -8 3621.92 947.374   3
   0  -5  -7 4245.75 944.516   3
   0  -5  -6 37788.9 2503.00   3
   0  -5  -5 13354.0 1407.16   3
   0  -5  -5 13246.0 951.311   7
   0  -5  -5 15576.6 1349.18   4
   0  -5  -4 6559.30 911.665   4
   0  -5  -4 7380.79 1034.12   3
   0  -5  -3 12723.6 1295.53   4
   0  -5  -3 11027.7 1199.86   3
   0  -5  -2 199161. 5889.31   5
   0  -5  -2 191746. 5794.67   4
   0  -5  -1 90005.1 3620.03   5
   0  -5  -1 82318.8 3591.81   4
   0  -5   0 1327.50 647.184   4
   0  -5   0 3069.36 721.656   5
   0  -5   1 144593. 5019.92   5
   0  -5   2 41885.7 2621.82   5
   0  -5   2 38917.4 1454.66   2
   0  -5   3 224.763 518.747   5
   0  -5   4 34902.9 2625.80   5
   0  -5   5 5540.17 1198.75   5
   0  -5   6 19368.2 2210.99   5
   0  -5   7 6542.37 1369.59   5
   0  -5   8-153.345 587.858   5
   0  -5   9 921.728 718.231   5
   0  -4 -11 252.793 649.340   1
   0  -4 -10-752.905 771.723   1
   0  -4  -8 15394.4 1749.06   3
   0  -4  -7 38878.2 2620.07   3
   0  -4  -6 47303.7 2724.59   3
   0  -4  -5 64305.2 2991.59   3
   0  -4  -4 72360.5 3013.83   3
   0  -4  -3 85665.4 3195.80   3
   0  -4  -3 101087. 3327.71   4
   0  -4  -2 68081.5 2890.87   5
   0  -4  -2 69036.6 2828.34   4
   0  -4  -2 72013.3 2927.27   6
   0  -4  -1 1752.36 460.701   6
   0  -4  -1 1249.82 455.249   5
   0  -4  -1 574.377 426.370   4
   0  -4   0 693.711 367.386   6
   0  -4   0 947.514 451.761   5
   0  -4   1 59154.3 1762.43   2
   0  -4   1 62091.2 2804.28   5
   0  -4   2 149616. 4877.90   5
   0  -4   3 532.318 397.371   5
   0  -4   4 40763.0 2635.05   5
   0  -4   5 11038.4 1497.98   5
   0  -4   6 26321.8 2409.97   5
   0  -4   7 23313.6 2440.50   5
   0  -4   8 2927.50 1067.39   5
   0  -4   9 3947.45 1220.37   5
   0  -3 -11 6838.35 1571.88   1
   0  -3 -10-1104.82 822.909   1
   0  -3  -9 4316.47 1172.52   1
   0  -3  -8 9536.45 1397.39   3
   0  -3  -7 32147.3 2346.03   3
   0  -3  -6 105846. 4127.10   3
   0  -3  -5 132167. 4394.00   3
   0  -3  -4 8597.68 941.948   3
   0  -3  -4 9639.21 651.261   7
   0  -3  -3 31101.2 1652.65   3
   0  -3  -3 33933.4 1851.78   6
   0  -3  -2 20705.8 1368.03   5
   0  -3  -2 21340.2 1356.80   6
   0  -3  -1 337890. 7232.02   6
   0  -3  -1 325167. 7164.80   5
   0  -3  -1 334614. 7285.34   4
   0  -3   0 154783. 4329.61   6
   0  -3   0 156754. 4214.03   5
   0  -3   1 57758.6 1576.02   2
   0  -3   1 56321.1 2369.46   5
   0  -3   2 38114.9 2024.19   5
   0  -3   3 13349.2 1299.35   5
   0  -3   4 1375.76 564.020   5
   0  -2 -11 11367.2 2026.93   1
   0  -2 -10 2370.42 892.441   1
   0  -2  -9 9339.94 1544.73   1
   0  -2  -8 14184.7 1810.48   1
   0  -2  -7 14176.6 1649.54   1
   0  -2  -6 42776.7 2473.46   3
   0  -2  -5 59386.3 2701.05   3
   0  -2  -4 71491.2 2713.92   3
   0  -2  -3 62774.4 2282.82   3
   0  -2  -3 64054.7 1722.91   7
   0  -2  -2 3938.68 519.018   6
   0  -2  -2 4167.89 514.690   3
   0  -2  -1 127026. 3204.02   6
   0  -2  -1 124481. 3181.87   5
   0  -2   0 377756. 7527.50   6
   0  -2   0 385300. 7403.79   5
   0  -2   1 205937. 4732.89   5
   0  -2   2 3285.18 621.390   5
   0  -1 -11 11718.7 1986.73   1
   0  -1 -10 15511.0 2118.84   1
   0  -1  -9 11237.6 1711.42   1
   0  -1  -8 9311.96 1430.65   1
   0  -1  -7 2593.51 829.344   1
   0  -1  -6 49606.1 2809.32   1
   0  -1  -5 49309.9 2563.74   1
   0  -1  -4 21602.6 1422.10   3
   0  -1  -3 69699.0 2353.06   3
   0  -1  -2 86222.9 2336.23   3
   0  -1  -1 114030. 2458.19   3
   0   0 -11 10183.4 1842.07   1
   0   0 -10 12158.6 1854.92   1
   0   0  -9 7032.78 1398.27   1
   0   0  -8 11607.5 1606.28   1
   0   0  -7 283.771 495.552   1
   0   0  -6 51892.3 2885.78   1
   0   0  -5 8362.88 1065.33   1
   0   0  -4 1109.74 491.324   1
   0   0  -3 54997.2 2151.90   1
   0   0  -2 14491.5 885.890   1
   0   0   4 1365.45 442.489   3
   0   0   5 8918.51 1045.44   3
   0   1 -11 4578.77 1440.45   1
   0   1 -10 8046.47 1562.39   1
   0   1  -9 10046.1 1632.32   1
   0   1  -8 10091.6 1553.15   1
   0   1  -7 1717.61 649.838   1
   0   1  -6 8007.62 1198.62   1
   0   1  -5 20080.4 1631.75   1
   0   1  -4 45.5181 384.187   1
   0   1  -3 748135. 13928.5   1
   0   1  -2 419973. 8142.83   1
   0   1   2 86936.7 1905.54   7
   0   1   3 70990.0 2367.79   3
   0   1   4 21746.3 1419.39   3
   0   1   5 50271.3 2462.91   3
   0   1   8 10685.3 1136.79   7
   0   1   9 10485.3 1198.39   7
   0   1  11 7739.52 1573.67   6
   0   2 -11 2304.03 1222.74   1
   0   2 -10 2229.10 980.466   1
   0   2  -9 736.414 694.857   1
   0   2  -8-89.1323 530.395   1
   0   2  -7 33303.8 2629.83   1
   0   2  -6 90227.7 4108.07   1
   0   2  -5 296543. 7917.71   1
   0   2  -4 89709.1 3528.34   1
   0   2  -3 68318.7 2777.11   1
   0   2  -1 198801. 4925.05   4
   0   2   0 384179. 7877.86   4
   0   2   0 405000. 7023.98   2
   0   2   3 67473.5 2355.57   3
   0   2   4 72724.5 2724.07   3
   0   2   4 72103.3 2905.10   6
   0   2   5 67741.2 2862.66   3
   0   2   5 61962.7 2929.26   6
   0   2   6 44967.2 1794.19   7
   0   2   6 40553.5 2564.40   6
   0   2   7 11819.6 1491.76   6
   0   2   7 14622.2 1084.70   7
   0   2   8 13420.8 1734.81   6
   0   2   8 17460.2 1258.83   7
   0   2   9 10728.3 1641.26   6
   0   2  10 2428.16 922.344   6
   0   2  11 9104.67 1722.72   6
   0   3 -10-2068.36 938.579   1
   0   3  -9 1254.59 710.898   1
   0   3  -8 10421.2 1687.08   1
   0   3  -7 108155. 5087.84   1
   0   3  -6 94278.0 4447.39   1
   0   3  -5 86430.5 3972.04   1
   0   3  -3 15837.9 1501.20   4
   0   3  -2 38353.4 2220.98   4
   0   3  -1 56515.9 2583.82   4
   0   3   0 157748. 4507.29   4
   0   3   0 164752. 3549.30   2
   0   3   3 33018.3 1866.54   6
   0   3   4 10720.9 1151.43   6
   0   3   5 146233. 4616.43   3
   0   3   5 139053. 4843.45   6
   0   3   6 112802. 4527.09   6
   0   3   7 38062.5 2681.64   6
   0   3   8 9516.77 1477.66   6
   0   3   9 5423.16 1133.76   6
   0   3  10-188.266 567.100   6
   0   3  11 8408.75 1639.70   6
   0   4  -1 67051.3 3185.04   4
   0   4   0 1323.81 290.253   2
   0   4   0 987.236 403.969   4
   0   4   1 1047.01 333.616   2
   0   4   3 91740.1 3571.84   6
   0   4   4 70511.7 3216.97   6
   0   4   5 66526.0 3303.99   6
   0   4   6 49604.0 2994.16   6
   0   4   7 38471.6 2801.71   6
   0   4   8 16706.7 1967.05   6
   0   4   9 2339.52 880.312   6
   0   4  10 1469.39 788.764   6
   0   5   1 100449. 3299.71   2
   0   5   2 204985. 6335.58   6
   0   5   2 218553. 5934.29   2
   0   5   3 13602.5 1471.95   6
   0   5   4 6625.99 1091.18   6
   0   5   5 12150.3 1540.84   6
   0   5   6 37760.6 2741.41   6
   0   5   7 5726.06 1174.36   6
   0   5   8 5002.92 1175.53   6
   0   5   9 1734.45 913.548   6
   0   5  10 1393.77 687.783   6
   0   6   1 25988.0 1619.45   2
   0   6   2 62698.9 3509.68   6
   0   6   2 62640.9 2952.88   2
   0   6   3 5219.78 1052.72   6
   0   6   4 2639.78 829.968   6
   0   6   5 94.7088 544.259   6
   0   6   6 3285.83 936.650   6
   0   6   7 6885.62 1376.85   6
   0   6   8 12106.0 1810.59   6
   0   6   9 7376.58 1476.03   6
   0   7   1 33286.3 1897.73   2
   0   7   2 9430.92 1160.69   2
   0   7   3 2567.97 867.380   6
   0   7   4 30.9995 501.055   6
   0   7   5 4628.15 1160.75   6
   0   7   6 20459.7 2315.61   6
   0   7   7 10210.9 1726.44   6
   0   7   8 3992.27 1123.85   6
   0   7   9 7610.06 1651.33   6
   0   8   4 17427.3 2215.55   6
   0   8   5 32422.3 3061.69   6
   0   8   6 14890.9 2149.10   6
   0   8   7 11263.3 1911.54   6
   0   8   8 843.338 598.327   6
   0   9   5 16928.4 2399.79   6
   0   9   6 4604.53 1295.10   6
   1 -10  -4 2681.41 1026.41   3
   1 -10  -3 600.110 658.106   5
   1 -10  -3 202.473 404.621   3
   1 -10  -2 3743.56 1188.59   5
   1 -10  -1 11617.0 2001.88   5
   1 -10   0 11659.2 1998.23   5
   1 -10   1 748.160 892.987   5
   1  -9  -5 5217.00 1268.74   3
   1  -9  -4 1402.06 729.481   3
   1  -9  -3 5544.38 1276.08   3
   1  -9  -3 4368.73 1243.89   5
   1  -9  -2 19927.3 2390.61   5
   1  -9  -1 17806.4 2306.70   5
   1  -9   0 29932.4 3017.24   5
   1  -9   1 5417.54 1352.43   5
   1  -9   2 110.983 741.401   5
   1  -9   3 2553.43 1034.67   5
   1  -9   4 255.575 572.746   5
   1  -8  -7 1039.11 658.311   3
   1  -8  -6 727.386 618.040   3
   1  -8  -5 11424.4 1742.60   3
   1  -8  -4 3607.43 995.099   3
   1  -8  -3 13705.1 1920.46   5
   1  -8  -2 25595.5 2534.65   5
   1  -8  -1 22511.0 2391.28   5
   1  -8   0 33412.1 2936.72   5
   1  -8   1-67.2070 713.822   5
   1  -8   2 2103.81 888.564   5
   1  -8   3 3622.26 1140.62   5
   1  -8   4 7376.24 1566.24   5
   1  -8   5 2601.47 1066.55   5
   1  -8   6 6432.59 1566.14   5
   1  -7  -8 10139.7 1744.32   3
   1  -7  -7 24601.5 2525.99   3
   1  -7  -6 4267.09 1116.73   3
   1  -7  -5 7933.30 1388.60   3
   1  -7  -4 2659.96 833.843   3
   1  -7  -3 19658.1 2140.21   5
   1  -7  -3 22034.5 2129.58   3
   1  -7  -2 12235.9 1683.83   5
   1  -7  -1-430.108 666.154   5
   1  -7   0 6698.78 1269.19   5
   1  -7   1 59871.9 3720.09   5
   1  -7   2 1112.56 697.366   5
   1  -7   3 18786.2 2192.23   5
   1  -7   4 7230.11 1511.11   5
   1  -7   5 10713.7 1849.96   5
   1  -7   6 11384.6 1936.80   5
   1  -7   7 7567.59 1687.21   5
   1  -6  -8 16548.1 2092.11   3
   1  -6  -7 49741.3 3462.75   3
   1  -6  -6 14633.9 1781.35   3
   1  -6  -5 2501.02 747.349   3
   1  -6  -4 1151.48 515.675   3
   1  -6  -3 1010.25 501.562   3
   1  -6  -2 20867.0 1979.19   5
   1  -6  -1 15037.3 1694.68   5
   1  -6   0 22915.4 2086.70   5
   1  -6   1 37527.6 2697.29   5
   1  -6   2 20086.3 2040.20   5
   1  -6   3 60820.9 3698.02   5
   1  -6   4 34846.0 2922.84   5
   1  -6   5 12389.8 1827.84   5
   1  -6   6 9402.09 1732.55   5
   1  -6   7 6587.99 1481.45   5
   1  -6   8 205.427 565.589   5
   1  -5  -9 3737.78 1065.97   3
   1  -5  -8 4688.29 1129.98   3
   1  -5  -7 23645.0 2293.32   3
   1  -5  -6 15896.9 1825.38   3
   1  -5  -6 18416.5 1153.36   4
   1  -5  -5-427.550 445.032   3
   1  -5  -5 148.052 239.273   4
   1  -5  -4 16674.7 1664.20   3
   1  -5  -4 19696.5 1378.41   4
   1  -5  -3 26414.5 2028.89   3
   1  -5  -2 44179.3 2663.69   5
   1  -5  -1-79.2807 398.135   5
   1  -5   0 5430.05 947.642   5
   1  -5   1 167659. 5699.93   5
   1  -5   2 65836.6 3449.18   5
   1  -5   3 56487.2 3324.59   5
   1  -5   4 17091.3 1905.59   5
   1  -5   5 13893.5 1806.15   5
   1  -5   6 18677.9 2191.31   5
   1  -5   7 4633.10 1215.10   5
   1  -5   8 1741.94 917.869   5
   1  -5   9 610.845 893.272   5
   1  -4 -10 735.143 647.584   1
   1  -4  -9 514.046 702.558   3
   1  -4  -8 377.844 557.878   3
   1  -4  -7 25804.8 2318.26   3
   1  -4  -6 90602.9 4240.40   3
   1  -4  -6 94753.1 2671.21   4
   1  -4  -5 9443.19 769.374   4
   1  -4  -5 10348.0 1329.01   3
   1  -4  -4 11172.6 603.463   7
   1  -4  -4 9778.86 834.289   4
   1  -4  -4 10980.0 1271.22   3
   1  -4  -3 3946.14 585.945   4
   1  -4  -3 4791.33 850.811   3
   1  -4  -2 98992.6 3862.11   5
   1  -4  -2 105722. 3696.77   6
   1  -4  -1 169336. 4955.90   6
   1  -4  -1 165646. 5157.24   5
   1  -4   0 168527. 5064.37   6
   1  -4   0 161460. 5088.54   5
   1  -4   1 525.972 457.911   5
   1  -4   2 28669.1 2052.87   5
   1  -4   3 4811.66 930.713   5
   1  -4   4 65351.6 3477.01   5
   1  -4   5 25304.3 2262.66   5
   1  -4   6 49087.8 3341.87   5
   1  -4   7-656.518 648.800   5
   1  -4   8 318.046 635.401   5
   1  -4   9 2504.75 1140.03   5
   1  -3 -10-516.664 683.262   1
   1  -3  -9 23334.0 2562.61   1
   1  -3  -8 111.931 541.148   3
   1  -3  -7 552.832 552.826   3
   1  -3  -6 45184.5 2836.99   3
   1  -3  -5 16133.5 1571.85   3
   1  -3  -4 112376. 4118.64   3
   1  -3  -4 118508. 2875.58   4
   1  -3  -3 148230. 3485.18   4
   1  -3  -3 146784. 4360.26   6
   1  -3  -3 138810. 4464.47   3
   1  -3  -2 99512.9 3547.04   5
   1  -3  -2 98562.3 3439.69   3
   1  -3  -2 92979.3 2753.53   4
   1  -3  -2 104055. 3289.67   6
   1  -3  -1 192601. 4887.25   6
   1  -3  -1 189863. 5171.74   5
   1  -3   0 39512.8 1952.79   6
   1  -3   0 39245.2 2033.65   5
   1  -3   1 18123.5 1397.94   5
   1  -3   2 4078.53 818.355   5
   1  -3   3 8597.12 1068.90   5
   1  -3   4 24836.6 1928.88   5
   1  -3   5 17447.8 1756.68   5
   1  -3   6 20316.6 2071.33   5
   1  -3   7 158.501 497.328   5
   1  -3   8 17017.9 2144.32   5
   1  -3   9 39033.8 3462.63   5
   1  -3  10 8733.45 1848.68   5
   1  -2 -10 1786.06 1007.00   1
   1  -2  -9 19533.0 2363.13   1
   1  -2  -8-365.418 588.529   1
   1  -2  -7 2131.78 707.894   3
   1  -2  -6 68765.4 3482.27   3
   1  -2  -5 113504. 4276.38   3
   1  -2  -4 59608.2 2758.13   3
   1  -2  -3 46273.5 2213.39   3
   1  -2  -3 47533.7 1283.44   4
   1  -2  -2 1237.32 225.589   4
   1  -2  -2 971.269 317.485   6
   1  -2  -2 1240.05 437.462   3
   1  -2  -1 502822. 9399.60   6
   1  -2  -1 502308. 9860.93   5
   1  -2   0 533422. 10043.0   6
   1  -2   0 531149. 10240.7   5
   1  -2   1 7730.54 829.606   5
   1  -2   2 6194.55 807.236   5
   1  -2   3 75823.3 3004.14   5
   1  -2   4 185.911 284.949   1
   1  -2   4 291.631 425.266   5
   1  -1 -10-234.979 561.807   1
   1  -1  -9 26995.3 2710.03   1
   1  -1  -8 24355.1 2408.66   1
   1  -1  -7 10221.5 1465.07   1
   1  -1  -6 39384.6 2587.02   3
   1  -1  -6 38249.6 2619.14   1
   1  -1  -5 47995.1 2637.27   3
   1  -1  -4 13951.9 1269.71   3
   1  -1  -3 35677.6 1862.76   3
   1  -1  -2 26560.0 1412.08   3
   1  -1  -1 851419. 14793.9   3
   1  -1  -1 840227. 14195.6   6
   1  -1   0 56071.2 1760.32   5
   1  -1   1 20664.9 1040.49   5
   1  -1   1 20429.2 714.717   2
   1  -1   2 231098. 5204.61   5
   1  -1   4 105697. 3469.54   1
   1  -1   5 395555. 9121.88   1
   1   0 -10 6957.04 1570.18   1
   1   0  -9 5758.99 1378.66   1
   1   0  -8 40222.7 3117.65   1
   1   0  -7 29385.4 2452.62   1
   1   0  -6 23254.4 2039.76   1
   1   0  -5 10397.4 1244.52   1
   1   0  -4 21114.2 1582.52   3
   1   0  -4 21559.6 1621.50   1
   1   0  -3 90.0524 378.596   1
   1   0  -3 349.167 382.602   3
   1   0  -2 67745.9 2311.39   3
   1   0  -2 62797.4 1654.16   4
   1   0  -1 2405.65 386.282   3
   1   0   1 71419.1 1915.96   2
   1   0   3 227614. 5051.61   1
   1   0   4 208973. 5191.43   1
   1   0   5 68957.5 2864.87   3
   1   1 -10 3733.99 1225.53   1
   1   1  -9 637.066 625.713   1
   1   1  -8 31834.7 2766.83   1
   1   1  -7 39818.2 2897.03   1
   1   1  -6 67067.9 3526.73   1
   1   1  -6 63930.2 3057.86   4
   1   1  -5-14.0401 452.068   1
   1   1  -5 558.344 369.135   4
   1   1  -4 19.6303 355.663   1
   1   1  -4-8.23772 242.295   4
   1   1  -3 27509.2 1652.25   1
   1   1  -3 27092.5 1463.36   4
   1   1  -2 8602.28 813.441   1
   1   1  -2 6771.33 661.131   4
   1   1  -1 539816. 9706.17   1
   1   1   2 390191. 6744.09   3
   1   1   2 392241. 7446.64   7
   1   1   3 43529.4 1772.24   7
   1   1   3 44072.1 1538.20   3
   1   1   4 53874.0 2057.03   3
   1   1   5 77017.5 2874.09   3
   1   1   6 3471.76 675.431   3
   1   1   8 11262.0 1287.23   7
   1   1   9 3514.41 854.646   7
   1   2 -10 3847.49 1225.27   1
   1   2  -9 2724.04 974.746   1
   1   2  -8 6719.98 1357.02   1
   1   2  -7 67226.0 3912.65   1
   1   2  -6 29538.2 2360.11   1
   1   2  -5 1360.27 552.360   4
   1   2  -5 1194.30 614.289   1
   1   2  -4 30568.3 1955.80   4
   1   2  -4 29133.6 1983.51   1
   1   2  -3 127119. 4084.18   4
   1   2  -3 125811. 4088.44   1
   1   2  -2 420425. 8731.64   1
   1   2  -2 422501. 8949.07   4
   1   2  -1 110659. 3161.37   1
   1   2  -1 121980. 3465.03   4
   1   2   1 98286.7 2865.07   2
   1   2   2 270607. 6147.88   2
   1   2   2 255421. 5353.01   5
   1   2   3 383.202 184.247   3
   1   2   4 148606. 3798.17   3
   1   2   4 147691. 3922.84   7
   1   2   5 112781. 3495.62   3
   1   2   5 108335. 3403.29   7
   1   2   6 13843.9 1232.80   3
   1   2   6 10187.7 1000.97   7
   1   2   7 6220.75 863.194   7
   1   2   8 21613.2 1671.46   7
   1   2   8 22645.6 2217.58   6
   1   2   9 4722.34 1112.84   6
   1   2   9 3190.26 754.261   7
   1   2  10 13768.7 2003.68   6
   1   2  11 16268.0 2260.58   6
   1   3 -10 2058.84 1053.84   1
   1   3  -9 379.582 722.627   1
   1   3  -8-582.286 813.288   1
   1   3  -7 37157.6 2986.26   1
   1   3  -6 64394.5 3704.82   1
   1   3  -5 83741.0 3976.58   1
   1   3  -4 39602.0 2475.48   1
   1   3  -3 128852. 4561.99   4
   1   3  -3 122425. 4299.42   1
   1   3  -2 144676. 4679.16   4
   1   3  -1 206209. 5574.92   4
   1   3   1 1327.35 361.262   2
   1   3   1 1366.76 326.547   5
   1   3   2 111880. 3204.75   5
   1   3   2 110849. 3654.48   2
   1   3   3 93516.5 3064.66   5
   1   3   5 46314.7 2098.42   3
   1   3   6 7203.72 1106.24   6
   1   3   6 7119.34 903.650   3
   1   3   7 27933.8 2315.02   6
   1   3   8 90560.5 4592.32   6
   1   3   9 1603.89 822.421   6
   1   3  10 1081.43 642.889   6
   1   3  11 14969.6 2158.47   6
   1   4  -9 1490.90 878.422   1
   1   4  -8 657.165 686.008   1
   1   4  -7 47397.6 3532.81   1
   1   4  -6 22029.5 2273.54   1
   1   4  -2 95366.8 4019.90   4
   1   4  -1 129728. 4084.64   5
   1   4  -1 131120. 4613.99   4
   1   4   0 144767. 4201.97   5
   1   4   1 6459.89 789.779   5
   1   4   1 6055.21 751.589   2
   1   4   2 29502.5 1851.53   2
   1   4   2 33710.6 1807.15   5
   1   4   3 2248.48 515.639   5
   1   4   3 3272.70 688.793   2
   1   4   4 1899.97 516.926   5
   1   4   5 142506. 5089.14   6
   1   4   6 66282.1 3507.50   6
   1   4   7 32827.0 2602.07   6
   1   4   8 47413.5 3334.82   6
   1   4   9 16927.5 2128.89   6
   1   4  10 3241.32 1072.85   6
   1   5   0 2114.35 550.285   5
   1   5   1 57897.9 2527.87   2
   1   5   1 54367.3 2636.71   5
   1   5   2 9735.72 1094.38   5
   1   5   2 7425.10 987.015   2
   1   5   3 63473.5 3191.66   2
   1   5   4 17627.6 1737.64   6
   1   5   5 68041.2 3524.49   6
   1   5   6 60583.0 3499.50   6
   1   5   7 18423.3 2028.01   6
   1   5   8 12222.4 1759.95   6
   1   5   9 13031.9 1916.82   6
   1   5  10-172.741 482.659   6
   1   6   1 186935. 5340.13   2
   1   6   2 12457.5 1322.88   2
   1   6   2 10496.6 1433.70   6
   1   6   3 14923.6 1669.62   6
   1   6   4 62248.4 3499.59   6
   1   6   5 58926.0 3497.38   6
   1   6   6 26618.9 2415.77   6
   1   6   7 312.512 653.053   6
   1   6   8 5149.40 1245.17   6
   1   6   9 6052.21 1342.52   6
   1   6  10 10497.7 1957.88   6
   1   7   3 11560.6 1669.23   6
   1   7   4 17059.9 1973.46   6
   1   7   5 339.451 556.916   6
   1   7   6 13003.7 1845.44   6
   1   7   7-453.351 604.607   6
   1   7   8 554.836 540.574   6
   1   7   9 5234.09 1364.88   6
   1   8   4 13672.1 1942.30   6
   1   8   5 9139.11 1636.29   6
   1   8   6 20378.9 2437.76   6
   1   8   7 11849.9 1942.38   6
   1   8   8 1152.61 844.922   6
   1   9   5 11994.7 1999.75   6
   1   9   6 17256.0 2409.19   6
   1   9   7 15520.9 2330.36   6
   2  -9  -6 279.259 691.934   3
   2  -9  -5 1412.41 722.299   3
   2  -9  -4 916.144 782.707   3
   2  -9  -3 2457.86 998.187   3
   2  -9  -2 8709.73 1700.84   5
   2  -9  -1 7159.54 1587.33   5
   2  -9   0 7994.87 1686.69   5
   2  -9   1 5724.03 1462.19   5
   2  -9   2 14231.1 2245.74   5
   2  -9   3 5842.76 1501.85   5
   2  -8  -7 4462.15 1287.43   3
   2  -8  -6-717.374 669.311   3
   2  -8  -5 15.2781 607.152   3
   2  -8  -4 1558.95 786.272   3
   2  -8  -3 19061.2 2308.54   3
   2  -8  -2 14435.3 2073.66   5
   2  -8  -1 22130.6 2492.62   5
   2  -8   0 22600.4 2529.33   5
   2  -8   1 1304.01 816.308   5
   2  -8   2 11455.5 1900.95   5
   2  -8   3 2038.63 963.100   5
   2  -8   4 627.937 729.308   5
   2  -8   5 2270.52 1053.73   5
   2  -7  -8 5999.96 1544.62   3
   2  -7  -7 9757.86 1753.34   3
   2  -7  -6 6034.00 1430.79   3
   2  -7  -5 522.358 513.276   3
   2  -7  -4 7912.94 1428.90   3
   2  -7  -3 28306.4 2619.55   3
   2  -7  -2 12052.0 1761.01   5
   2  -7  -1 5041.84 1161.29   5
   2  -7   0 4525.75 1116.98   5
   2  -7   1-85.0498 629.269   5
   2  -7   2 32634.4 2895.17   5
   2  -7   3 41817.8 3381.34   5
   2  -7   4-434.274 873.428   5
   2  -7   5-63.3170 564.253   5
   2  -7   6 5699.67 1452.16   5
   2  -7   7 2246.27 1136.51   5
   2  -6  -9-644.160 715.571   3
   2  -6  -8 10611.7 1783.63   3
   2  -6  -7 34064.0 3104.47   3
   2  -6  -6 17536.1 2146.55   3
   2  -6  -5 8903.76 1521.43   3
   2  -6  -4 3720.38 991.934   3
   2  -6  -3 13619.1 1718.52   3
   2  -6  -2 801.289 532.973   5
   2  -6  -1 12105.3 1629.92   5
   2  -6   0 67575.3 3824.01   5
   2  -6   1 2797.52 911.381   5
   2  -6   2 6375.45 1169.78   5
   2  -6   3 30565.2 2715.12   5
   2  -6   4 5055.55 1177.96   5
   2  -6   5 22081.4 2529.78   5
   2  -6   6 15940.3 2188.43   5
   2  -6   7 7045.52 1590.82   5
   2  -6   8 2509.72 1036.78   5
   2  -5  -9 5393.79 1379.87   3
   2  -5  -8 5369.22 1314.95   3
   2  -5  -7 22292.0 2436.32   3
   2  -5  -6 8073.85 1408.81   3
   2  -5  -5 865.960 619.848   3
   2  -5  -4 602.980 564.854   3
   2  -5  -3 47445.8 2990.92   3
   2  -5  -2 52705.6 3137.41   5
   2  -5  -1 25826.8 2148.71   5
   2  -5   0 12565.8 1520.64   5
   2  -5   1-70.6835 562.897   5
   2  -5   2 437.005 539.788   5
   2  -5   3 91006.1 4467.41   5
   2  -5   4 27397.2 2486.40   5
   2  -5   5 61747.2 3881.80   5
   2  -5   6 14645.5 1996.17   5
   2  -5   7 4355.75 1292.17   5
   2  -5   8 5009.58 1409.29   5
   2  -5   9 4496.84 1478.10   5
   2  -4 -10 7500.87 1679.09   3
   2  -4  -9 2544.10 1033.70   3
   2  -4  -8 555.251 621.599   3
   2  -4  -7-177.616 676.244   3
   2  -4  -6 12402.0 1665.91   3
   2  -4  -5 53160.8 3275.86   3
   2  -4  -4 53696.1 3142.86   3
   2  -4  -3 32772.1 2346.50   3
   2  -4  -2 6318.23 1017.57   3
   2  -4  -2 7102.74 913.520   6
   2  -4  -2 7467.62 1087.85   5
   2  -4  -1 8642.81 981.478   6
   2  -4  -1 8734.48 1173.54   5
   2  -4   0 112998. 3984.31   6
   2  -4   0 100666. 4085.49   5
   2  -4   1 11287.2 1344.74   5
   2  -4   2-26.2405 452.689   5
   2  -4   3 52967.0 3093.32   5
   2  -4   4 94124.1 4198.89   5
   2  -4   4 54756.6 1722.40   2
   2  -4   5 60238.7 2346.74   2
   2  -4   5 61693.0 3637.31   5
   2  -4   6 8822.39 1501.37   5
   2  -4   7 617.285 556.215   5
   2  -4   8 7686.03 1562.16   5
   2  -4   9 8939.57 1716.67   5
   2  -3  -9 2721.66 987.241   3
   2  -3  -9 1930.67 938.975   1
   2  -3  -8 2356.41 952.114   3
   2  -3  -7 11387.0 1695.52   3
   2  -3  -6 31569.8 2604.51   3
   2  -3  -5 19289.0 1893.70   3
   2  -3  -4 9253.17 1257.99   3
   2  -3  -3 61.8822 279.262   6
   2  -3  -3 24.7218 401.245   3
   2  -3  -3 123.614 87.8197   7
   2  -3  -2 181961. 5587.53   3
   2  -3  -2 191847. 4954.33   6
   2  -3  -1 78242.5 2779.18   6
   2  -3  -1 80353.3 3270.16   5
   2  -3   0 123886. 3841.18   6
   2  -3   0 126465. 4241.27   5
   2  -3   1 229190. 6245.33   5
   2  -3   2 3553.53 773.551   5
   2  -3   3 899.438 201.402   2
   2  -3   3 648.999 438.672   5
   2  -3   4 53615.8 2084.78   2
   2  -3   4 58534.2 3112.54   5
   2  -3   5 56847.0 3259.87   5
   2  -3   6 18283.0 1977.00   5
   2  -3   7 435.132 571.481   5
   2  -3   8 4645.66 1214.12   5
   2  -3   9 15334.1 2209.30   5
   2  -3  10 6109.48 1511.15   5
   2  -2 -10 7513.26 1666.88   1
   2  -2  -9 13812.2 2074.21   1
   2  -2  -8 20138.7 2295.59   3
   2  -2  -8 20510.3 2384.01   1
   2  -2  -7 10337.1 1549.63   3
   2  -2  -6 147.797 509.071   3
   2  -2  -5 9710.56 1316.49   3
   2  -2  -4 32300.8 2213.58   3
   2  -2  -3-183.235 508.517   3
   2  -2  -2 297241. 7364.38   3
   2  -2  -2 299761. 5697.75   7
   2  -2  -2 313582. 6483.98   6
   2  -2  -1 467903. 8886.27   6
   2  -2  -1 476886. 9774.92   5
   2  -2  -1 458079. 9869.16   3
   2  -2   0 197248. 4649.57   6
   2  -2   0 193292. 5105.12   5
   2  -2   1 38493.0 1946.25   5
   2  -2   2 19668.4 1451.22   5
   2  -2   3 16079.0 1000.20   2
   2  -2   3 17061.8 1437.82   5
   2  -2   4 150764. 4312.29   2
   2  -2   4 163953. 5145.97   5
   2  -2   4 161791. 4805.19   1
   2  -2   5 7323.78 1138.28   5
   2  -2   6 3452.78 891.490   5
   2  -2   7 1034.93 739.511   5
   2  -2   8 13442.9 1856.41   5
   2  -2   9 40966.9 3403.95   5
   2  -2  10 28807.7 3097.23   5
   2  -1 -10 4584.66 1460.98   1
   2  -1  -9 8373.94 1703.60   1
   2  -1  -8 8235.32 1512.61   1
   2  -1  -7 36536.6 2945.06   1
   2  -1  -7 42895.8 3097.06   3
   2  -1  -6 8007.25 1284.16   3
   2  -1  -6 8623.12 1363.23   1
   2  -1  -6 7181.23 547.273   4
   2  -1  -5 18294.7 1764.08   3
   2  -1  -4 82269.9 3580.11   3
   2  -1  -3 2237.38 620.763   3
   2  -1  -2 205531. 5454.15   3
   2  -1  -1 275745. 6389.51   3
   2  -1  -1 276249. 5533.56   7
   2  -1  -1 283404. 5318.30   6
   2  -1   0 113592. 2667.00   6
   2  -1   0 109947. 3101.06   5
   2  -1   1 375678. 7576.14   5
   2  -1   2 244298. 5299.42   2
   2  -1   2 256261. 5732.10   5
   2  -1   3 13156.0 1026.92   2
   2  -1   3 16398.5 1230.64   5
   2  -1   3 13943.3 1021.94   1
   2  -1   4 6333.21 764.047   1
   2  -1   4 5258.60 824.170   5
   2  -1   5 23641.5 1607.52   1
   2   0 -10 1150.54 863.550   1
   2   0  -9 2453.86 1071.23   1
   2   0  -8 20650.4 2336.73   1
   2   0  -7 137225. 4217.53   4
   2   0  -7 131675. 5714.89   1
   2   0  -6 30692.9 2452.19   3
   2   0  -6 31453.6 1658.84   4
   2   0  -6 30419.8 2485.84   1
   2   0  -5 15590.6 1625.00   3
   2   0  -5 13986.3 1556.68   1
   2   0  -5 14809.5 997.831   4
   2   0  -4 7535.14 1069.48   1
   2   0  -4 6105.90 981.622   3
   2   0  -3 8387.51 1016.77   3
   2   0  -2 17346.6 1300.15   3
   2   0  -1 999999. 17662.4   3
   2   0   0 41477.9 1595.84   3
   2   0   0 37453.6 1343.21   5
   2   0   0 38502.0 1544.71   7
   2   0   1 47079.8 1469.30   5
   2   0   1 44159.1 1865.25   7
   2   0   2 61154.2 1919.91   5
   2   0   2 59337.1 1656.27   1
   2   0   2 57307.4 2181.60   2
   2   0   3 151990. 4320.99   2
   2   0   3 148694. 3513.62   1
   2   0   4 254715. 5727.06   1
   2   0   5 111434. 3617.14   1
   2   0  11 7838.83 1499.64   7
   2   1 -10 1401.79 837.260   1
   2   1  -9 6664.86 1565.91   1
   2   1  -8 16917.6 2123.00   1
   2   1  -7 58132.6 3716.54   1
   2   1  -7 54340.8 2844.50   4
   2   1  -6 33601.4 2582.62   1
   2   1  -6 36523.4 2130.55   4
   2   1  -5 503.692 530.672   1
   2   1  -5 106.430 233.709   4
   2   1  -4 54360.1 2823.22   1
   2   1  -4 56399.9 2300.84   4
   2   1  -4 57291.0 2936.40   3
   2   1  -3 49474.0 2469.02   3
   2   1  -3 47598.1 2384.19   1
   2   1  -2 25834.7 1592.17   3
   2   1  -2 25470.3 1520.36   1
   2   1  -1 119344. 3331.43   3
   2   1  -1 118641. 3193.70   1
   2   1   0 220155. 4633.19   3
   2   1   0 222037. 4379.94   1
   2   1   1 44046.8 1273.24   3
   2   1   1 44676.8 1363.36   6
   2   1   2 397014. 8506.02   2
   2   1   2 413800. 8385.44   7
   2   1   3 303530. 7433.70   2
   2   1   3 330968. 7251.29   7
   2   1   4 91686.2 3334.25   7
   2   1   5 78685.7 2779.71   3
   2   1   5 82387.4 3297.47   7
   2   1   6 4939.69 896.117   7
   2   1   6 5831.94 798.146   3
   2   1   7 74363.8 3515.04   7
   2   1   8 4732.80 944.195   7
   2   1   9 2138.56 770.514   7
   2   1  10 4818.09 1085.62   7
   2   2 -10 342.903 683.357   1
   2   2  -9 500.231 741.495   1
   2   2  -8 6844.81 1466.37   1
   2   2  -7 18689.0 2119.70   1
   2   2  -6 62391.5 3608.00   1
   2   2  -5 6842.93 1155.00   1
   2   2  -5 6190.96 924.496   4
   2   2  -4 14003.9 1437.32   1
   2   2  -4 12763.0 1225.40   4
   2   2  -3 42669.5 2293.30   1
   2   2  -3 46009.4 2211.16   4
   2   2  -2 53479.9 2304.49   1
   2   2  -1 313850. 6629.80   1
   2   2   0 215938. 4569.79   1
   2   2   2 25464.7 1605.72   2
   2   2   3 143697. 4626.23   2
   2   2   3 145421. 2758.05   3
   2   2   4 247487. 6947.81   2
   2   2   4 249935. 5027.84   3
   2   2   4 251204. 6268.28   7
   2   2   5 48527.4 1909.06   3
   2   2   5 51186.6 2478.70   7
   2   2   6 18761.6 1325.03   3
   2   2   6 18980.2 1582.68   7
   2   2   7 56599.9 2660.02   3
   2   2   7 61749.5 3035.25   7
   2   2   8 7718.37 1143.80   7
   2   2   9 152.730 425.366   7
   2   2  10 4219.10 1164.07   6
   2   2  10 3958.43 953.254   7
   2   2  11 5260.84 1338.99   6
   2   3  -9 444.289 619.222   1
   2   3  -8 9590.75 1698.02   1
   2   3  -7 248.479 634.979   1
   2   3  -6 35102.4 2773.28   1
   2   3  -5 6527.96 1107.15   1
   2   3  -4 39520.3 2453.91   4
   2   3  -4 40202.8 2546.50   1
   2   3  -3 143680. 4810.10   4
   2   3  -3 148265. 4843.35   1
   2   3  -2 148732. 4535.83   1
   2   3   1 49285.4 1607.02   5
   2   3   1 52574.4 2321.84   2
   2   3   2 21158.6 1030.78   5
   2   3   2 20260.6 1520.90   2
   2   3   3 5158.38 584.671   5
   2   3   3 4019.69 767.089   2
   2   3   5 39841.2 1621.39   3
   2   3   6 7727.43 1163.02   6
   2   3   6 6578.14 751.917   3
   2   3   7 7267.92 1183.61   6
   2   3   7 5445.51 758.882   3
   2   3   8 15093.0 1829.90   6
   2   3   9 3442.33 1033.52   6
   2   3  10 15698.6 2135.98   6
   2   3  11 5912.35 1442.28   6
   2   4  -9 4518.22 1339.54   1
   2   4  -8 10884.4 1924.01   1
   2   4  -7 1730.81 808.487   1
   2   4  -6 13561.5 1831.01   1
   2   4  -5 45894.9 3106.80   1
   2   4  -4 41.8993 505.369   1
   2   4   0 472476. 9443.95   5
   2   4   1 80118.6 2653.44   5
   2   4   1 86565.1 3240.02   2
   2   4   2 7579.07 759.618   5
   2   4   2 7551.10 984.913   2
   2   4   3 2271.82 618.291   2
   2   4   3 2505.03 497.238   5
   2   4   4 19084.5 1377.43   5
   2   4   5 15553.8 1371.26   5
   2   4   6 9541.35 1414.92   6
   2   4   7 12835.8 1666.55   6
   2   4   7 17594.8 1352.26   3
   2   4   8 13442.1 1775.28   6
   2   4   9 10113.1 1669.61   6
   2   4  10 33896.2 3167.22   6
   2   5   0 101226. 3540.91   5
   2   5   1 131737. 4051.15   5
   2   5   2 10326.8 1026.50   5
   2   5   2 11202.0 1247.68   2
   2   5   3 5473.61 795.281   5
   2   5   4 32343.4 1991.79   5
   2   5   5 85727.8 3999.97   6
   2   5   6 18319.3 1912.57   6
   2   5   7 2880.54 829.498   6
   2   5   8 6927.20 1348.34   6
   2   5   9 29977.0 2879.50   6
   2   5  10 27600.0 2908.37   6
   2   6   1 85166.1 3472.55   5
   2   6   2 13423.2 1331.21   5
   2   6   3 32898.9 2480.08   6
   2   6   4 20870.1 1990.83   6
   2   6   5 75897.5 3975.53   6
   2   6   6 37081.5 2838.94   6
   2   6   7 9753.36 1585.92   6
   2   6   8 1252.70 815.078   6
   2   6   9 4281.96 1155.39   6
   2   6  10 6008.61 1430.11   6
   2   7   3 43313.7 3077.43   6
   2   7   4 52604.4 3473.92   6
   2   7   5 57643.8 3689.92   6
   2   7   6 30756.8 2760.92   6
   2   7   7 600.911 693.137   6
   2   7   8 757.422 683.947   6
   2   7   9 1267.39 832.472   6
   2   8   3 53838.9 3715.14   6
   2   8   4 19769.3 2275.40   6
   2   8   5 7753.79 1486.68   6
   2   8   6 13918.4 2052.76   6
   2   8   7 979.255 815.528   6
   2   8   8-710.661 639.111   6
   2   9   4 5184.18 1344.40   6
   2   9   5-1427.56 842.119   6
   2   9   6 12798.9 2056.84   6
   2   9   7 7606.06 1600.32   6
   2  10   5 5817.41 1434.17   6
   3  -9  -2 2899.95 1096.18   3
   3  -8  -5-2529.73 1105.55   3
   3  -8  -4 2164.90 912.726   3
   3  -8  -3 1996.98 877.667   3
   3  -8  -2 4757.26 1331.07   5
   3  -8  -2 8970.77 1662.76   3
   3  -8  -1 19584.4 2451.12   5
   3  -8   0 3058.11 1050.04   5
   3  -8   1 5928.59 1408.34   5
   3  -8   2 35865.4 3380.07   5
   3  -8   3 6148.51 1512.74   5
   3  -8   4-1867.81 1123.90   5
   3  -7  -7 1587.44 983.522   3
   3  -7  -6 2379.73 1091.47   3
   3  -7  -5 1549.80 888.961   3
   3  -7  -4 10911.6 1830.89   3
   3  -7  -3 7599.28 1526.46   3
   3  -7  -2 9381.22 1640.04   3
   3  -7  -2 13888.8 1979.42   5
   3  -7  -1 21459.9 2375.05   5
   3  -7   0 12243.3 1893.24   5
   3  -7   1 199.124 526.427   5
   3  -7   2 7046.36 1422.46   5
   3  -7   3 3631.23 1168.61   5
   3  -7   4 12571.0 1996.99   5
   3  -7   5 13801.4 2130.29   5
   3  -7   6 3215.72 1226.75   5
   3  -6  -8 4817.33 1425.23   3
   3  -6  -7-331.316 761.597   3
   3  -6  -6 11009.0 1852.89   3
   3  -6  -5 16970.7 2182.93   3
   3  -6  -4 25004.7 2562.39   3
   3  -6  -3 18362.8 2150.46   3
   3  -6  -2 3203.67 1002.09   5
   3  -6  -2 6809.21 1313.86   3
   3  -6  -1 4071.35 1040.66   5
   3  -6   0 548.536 498.202   5
   3  -6   1 6260.31 1268.66   5
   3  -6   2 26282.2 2557.75   5
   3  -6   3 34562.7 2985.01   5
   3  -6   4 49871.9 3698.10   5
   3  -6   5 7225.64 1583.09   5
   3  -6   6 284.478 647.350   5
   3  -6   7 1903.65 1132.91   5
   3  -5  -8 8701.15 1779.39   3
   3  -5  -7 10615.8 1881.39   3
   3  -5  -6 11314.5 1801.87   3
   3  -5  -5 31922.8 2835.38   3
   3  -5  -4 10568.9 1587.53   3
   3  -5  -3 1560.11 754.706   3
   3  -5  -2 588.242 639.803   5
   3  -5  -2-291.507 511.877   3
   3  -5  -1 14881.9 1766.81   5
   3  -5   0 68972.8 3784.26   5
   3  -5   1 37936.2 2790.05   5
   3  -5   2 154.676 567.741   5
   3  -5   3 1975.54 773.894   5
   3  -5   4 20839.8 2229.55   5
   3  -5   5 29589.6 2776.83   5
   3  -5   6 3382.98 1099.93   5
   3  -5   7 8107.10 1623.01   5
   3  -5   8 16551.6 2384.65   5
   3  -4  -9 3119.46 1139.86   3
   3  -4  -8 15057.2 2238.53   3
   3  -4  -7 11297.9 1865.46   3
   3  -4  -6 175.380 558.588   3
   3  -4  -5 1529.79 779.593   3
   3  -4  -4 890.041 643.772   3
   3  -4  -3 51513.8 3217.17   3
   3  -4  -3 55165.7 1965.11   7
   3  -4  -2 92597.0 4286.17   3
   3  -4  -1 105451. 3744.48   6
   3  -4  -1 102576. 4373.58   5
   3  -4   0 26030.6 2088.83   5
   3  -4   0 25723.3 1798.16   6
   3  -4   1 1130.63 514.083   5
   3  -4   2 3878.42 925.238   5
   3  -4   3 7955.14 1265.53   5
   3  -4   4 54428.8 3373.21   5
   3  -4   5 76752.1 4226.01   5
   3  -4   6 2266.67 819.113   5
   3  -4   7 6120.30 1400.69   5
   3  -4   8 6839.14 1508.25   5
   3  -4   9 5160.85 1478.86   5
   3  -3  -9 894.938 855.818   3
   3  -3  -8 3066.01 1066.78   3
   3  -3  -7 2754.56 1106.90   3
   3  -3  -6 31.7454 553.151   3
   3  -3  -5 19311.2 2077.02   3
   3  -3  -4 34652.3 2619.89   3
   3  -3  -3 47276.9 2940.56   3
   3  -3  -3 55247.2 2442.54   6
   3  -3  -2 81270.3 3741.98   3
   3  -3  -2 81941.3 2938.73   6
   3  -3  -1 3087.85 530.986   6
   3  -3  -1 3501.09 823.696   3
   3  -3  -1 2895.21 739.819   5
   3  -3   0 6152.10 771.857   6
   3  -3   0 7156.96 1032.75   5
   3  -3   1 116353. 4310.31   5
   3  -3   2 26597.4 1965.33   5
   3  -3   3 57120.9 3078.37   5
   3  -3   4 34635.5 2480.87   5
   3  -3   5 37401.4 2682.94   5
   3  -3   5 36584.7 1922.03   2
   3  -3   6 743.078 633.397   5
   3  -3   7 4913.95 1167.89   5
   3  -3   8 17726.8 2248.53   5
   3  -3   9 8279.98 1693.74   5
   3  -3  10 772.091 757.864   5
   3  -2  -9 147.623 534.335   3
   3  -2  -9 92.9769 631.920   1
   3  -2  -8 12889.9 2007.83   1
   3  -2  -8 10288.5 1785.14   3
   3  -2  -7 39894.5 3265.09   3
   3  -2  -6 19152.9 2115.08   3
   3  -2  -5 2137.62 815.612   3
   3  -2  -4 691.020 504.296   3
   3  -2  -3 1413.38 546.531   3
   3  -2  -2 174641. 5583.19   3
   3  -2  -2 182063. 4359.69   6
   3  -2  -2 171141. 4138.60   7
   3  -2  -1 86890.5 3391.81   5
   3  -2  -1 83900.0 3489.64   3
   3  -2  -1 84260.0 2865.90   7
   3  -2  -1 87066.3 2577.40   6
   3  -2   0 65132.5 2273.43   6
   3  -2   0 66787.9 2834.06   5
   3  -2   1 106149. 3712.87   5
   3  -2   2 86914.1 3383.36   5
   3  -2   3 29442.9 1988.05   5
   3  -2   4 17982.2 1647.29   5
   3  -2   4 16287.4 1382.75   1
   3  -2   4 17350.7 1281.19   2
   3  -2   5 15961.8 1374.22   2
   3  -2   5 15024.1 1597.29   5
   3  -2   6 5456.36 930.030   2
   3  -2   6 5670.43 1059.15   5
   3  -2   7 1122.58 670.044   5
   3  -2   8 7120.28 1404.09   5
   3  -2   9 7631.36 1547.04   5
   3  -2  10 4735.62 1373.35   5
   3  -1  -9 10837.4 1944.49   1
   3  -1  -8 22831.2 2619.34   1
   3  -1  -8 14519.4 2078.94   3
   3  -1  -7 25908.4 2627.25   3
   3  -1  -7 33029.9 2930.70   1
   3  -1  -6 13898.5 1841.34   3
   3  -1  -5 1536.36 703.369   3
   3  -1  -4 3068.63 826.398   3
   3  -1  -3 23370.3 1875.84   3
   3  -1  -2 450627. 10260.1   3
   3  -1  -1 34092.4 1991.65   3
   3  -1  -1 29257.5 1492.42   7
   3  -1  -1 30509.3 1095.31   6
   3  -1   0 1965.48 299.096   6
   3  -1   0 3123.02 571.610   5
   3  -1   0 2769.13 600.215   3
   3  -1   0 2277.66 509.521   7
   3  -1   1 2037.61 476.273   5
   3  -1   2 123417. 3732.22   5
   3  -1   3 130327. 4050.43   5
   3  -1   3 123124. 3785.01   2
   3  -1   4 78511.5 3191.14   5
   3  -1   4 70832.1 2978.10   2
   3  -1   4 75613.0 2770.96   1
   3  -1   5 647.973 353.438   2
   3  -1   5-119.615 237.124   1
   3  -1   5-107.183 411.940   5
   3  -1   6 17866.2 1730.22   5
   3  -1   7 919.869 591.272   5
   3  -1   8 23983.9 2328.04   5
   3  -1   9 11018.7 1782.10   5
   3  -1  10 7434.66 1573.78   5
   3  -1  11 3242.53 1182.12   5
   3   0  -9 6199.32 1475.67   1
   3   0  -8 6676.89 1504.39   1
   3   0  -7 27635.7 2693.45   3
   3   0  -7 32004.5 2854.12   1
   3   0  -6 40477.5 3022.91   3
   3   0  -6 35877.2 2828.39   1
   3   0  -5 52391.8 3244.87   3
   3   0  -5 52025.5 3188.62   1
   3   0  -4 17639.8 1721.02   3
   3   0  -3 26031.6 1971.82   3
   3   0  -2 89551.2 3487.71   3
   3   0  -1 20844.2 1471.93   3
   3   0   0 12194.4 1043.43   3
   3   0   0 10992.5 983.777   7
   3   0   1 275.826 254.025   5
   3   0   1 393.819 405.100   7
   3   0   2 37849.1 1598.35   5
   3   0   2 35832.3 2082.75   7
   3   0   3 274420. 6137.49   5
   3   0   3 273252. 5534.85   1
   3   0   3 268844. 6723.15   2
   3   0   4 115294. 3164.46   1
   3   0   4 119411. 3732.10   5
   3   0   5 3236.75 736.579   2
   3   0   5 4350.55 788.240   5
   3   0   5 4350.67 619.267   1
   3   0   6 87078.9 3277.61   1
   3   0  10 3790.79 1110.06   7
   3   0  11 1817.82 955.057   7
   3   1  -9 14780.8 2283.97   1
   3   1  -8 10206.4 1746.17   1
   3   1  -7 25966.5 2590.89   1
   3   1  -6 36057.1 2798.06   1
   3   1  -5 40990.9 2860.38   3
   3   1  -5 41761.3 2804.31   1
   3   1  -4 9560.13 1262.11   1
   3   1  -4 10294.9 1299.55   3
   3   1  -3 12646.5 1355.11   3
   3   1  -3 9922.72 1168.41   1
   3   1  -2 96839.3 3590.12   3
   3   1  -2 97351.2 3454.77   1
   3   1  -1 23643.8 1510.69   3
   3   1  -1 24629.5 1427.64   1
   3   1   0 834.152 371.366   3
   3   1   1 28544.5 1307.10   3
   3   1   1 27117.0 1014.48   6
   3   1   2 7968.90 535.620   5
   3   1   2 7791.63 959.387   7
   3   1   3 298228. 6054.35   5
   3   1   3 292755. 7386.09   7
   3   1   3 294475. 7435.07   2
   3   1   4 181788. 5683.89   2
   3   1   4 181139. 5562.07   7
   3   1   5 1368.03 571.484   7
   3   1   6 46681.7 2863.46   7
   3   1   7 33617.0 2043.64   3
   3   1   7 36204.1 2628.48   7
   3   1   8 1554.37 726.194   7
   3   1   9 26302.2 2475.34   7
   3   1  10 7798.90 1490.04   7
   3   1  11 1083.86 687.025   7
   3   2  -9 9627.76 1920.07   1
   3   2  -8 19405.0 2425.20   1
   3   2  -7 4530.71 1135.56   1
   3   2  -6-130.414 706.497   1
   3   2  -5 20267.4 1983.86   1
   3   2  -4 16271.1 1628.46   1
   3   2  -3 77163.5 3343.22   1
   3   2  -2 20478.9 1602.13   3
   3   2  -2 19240.2 1446.28   1
   3   2  -1 210888. 5179.93   1
   3   2  -1 214836. 5441.74   3
   3   2   0 151006. 3632.54   1
   3   2   0 146709. 3867.81   3
   3   2   1 156368. 3625.80   6
   3   2   1 157732. 3242.23   1
   3   2   1 155371. 3569.78   3
   3   2   2 91437.9 2083.45   3
   3   2   2 91244.2 3514.78   2
   3   2   2 97384.3 2852.31   6
   3   2   3 43536.0 1093.64   3
   3   2   3 45628.9 2065.22   6
   3   2   3 42398.9 2440.47   2
   3   2   4 101114. 4170.46   2
   3   2   4 100320. 3610.10   6
   3   2   4 100003. 2324.52   3
   3   2   4 99101.4 3846.28   7
   3   2   5 28982.5 1292.20   3
   3   2   5 31266.7 2127.73   7
   3   2   6 43310.6 1880.30   3
   3   2   6 43536.4 2653.45   7
   3   2   7 76229.2 2928.16   3
   3   2   7 76253.4 3770.71   7
   3   2   8-541.208 479.839   7
   3   2   9 27947.9 2448.53   7
   3   2  10 8486.26 1430.74   7
   3   2  11-485.706 625.290   6
   3   3  -9 10035.7 1966.46   1
   3   3  -8 13135.1 2028.95   1
   3   3  -7-1446.83 826.173   1
   3   3  -6 1320.90 837.742   1
   3   3  -5 711.000 563.766   1
   3   3  -4 63296.2 3354.81   1
   3   3  -3 77469.5 3455.66   1
   3   3  -2 151748. 4732.82   1
   3   3  -1 75116.8 2830.01   1
   3   3   1 69394.9 2466.82   6
   3   3   2 51.7294 312.559   6
   3   3   2 276.309 264.788   2
   3   3   2 172.880 99.4943   5
   3   3   3 775.002 459.238   6
   3   3   3 473.852 339.041   2
   3   3   3 977.537 242.189   5
   3   3   5 45106.7 1336.11   3
   3   3   6 38295.6 1550.76   3
   3   3   6 38660.8 2600.47   6
   3   3   7 27231.8 1512.64   3
   3   3   7 28171.7 2365.02   6
   3   3   8-224.327 525.903   6
   3   3   8 598.644 330.440   3
   3   3   9 9459.84 1619.97   6
   3   3  10 15283.2 2137.33   6
   3   3  11 4606.67 1243.58   6
   3   4  -8 10095.7 1845.60   1
   3   4  -7 2715.74 1050.96   1
   3   4  -6 4152.50 1196.48   1
   3   4  -5 2338.89 950.207   1
   3   4  -4 38816.6 2718.53   1
   3   4  -3 68149.1 3409.99   1
   3   4  -2 6410.11 981.041   1
   3   4   1 91158.6 3329.47   6
   3   4   1 86648.7 2461.69   5
   3   4   2 41919.1 2173.69   6
   3   4   2 39427.8 1491.97   5
   3   4   2 41292.0 2467.49   2
   3   4   3 18065.6 1505.07   6
   3   4   3 19081.0 1082.38   5
   3   4   4 123796. 3572.32   5
   3   4   4 126642. 4463.06   6
   3   4   5 30406.8 1765.71   5
   3   4   5 31634.3 2257.66   6
   3   4   6 542.101 545.654   6
   3   4   7-320.204 490.726   6
   3   4   8 1202.52 657.071   6
   3   4   9 14271.4 1949.93   6
   3   4  10 33798.7 3183.38   6
   3   5  -8 12453.8 2122.72   1
   3   5  -7 14284.0 2205.43   1
   3   5  -6 30135.1 2888.35   1
   3   5  -5 251.283 595.559   1
   3   5   1 66776.0 3126.15   6
   3   5   1 60502.2 2346.03   5
   3   5   2 138458. 4779.61   6
   3   5   2 136086. 3806.05   5
   3   5   3 177.961 534.532   6
   3   5   3 186.008 258.982   5
   3   5   4 7535.72 1153.66   6
   3   5   4 8262.58 893.654   5
   3   5   5 17986.6 1821.04   6
   3   5   5 17995.7 1447.91   5
   3   5   6 12831.8 1621.94   6
   3   5   7 4418.95 1071.52   6
   3   5   8 13988.6 1865.96   6
   3   5   9 6689.53 1390.16   6
   3   5  10 18633.4 2415.60   6
   3   6   1 13847.2 1220.06   5
   3   6   2 5516.35 1055.00   6
   3   6   2 5451.22 771.509   5
   3   6   3 74866.1 3753.10   6
   3   6   3 77301.9 3102.00   5
   3   6   4 60353.2 3403.35   6
   3   6   4 61034.9 2812.32   5
   3   6   5 88907.5 4336.10   6
   3   6   6 1003.88 662.651   6
   3   6   7 180.193 512.126   6
   3   6   8 14828.1 1983.95   6
   3   6   9 10578.0 1776.83   6
   3   6  10 5288.25 1375.98   6
   3   7   2 50639.6 3273.31   6
   3   7   3 81735.0 4303.03   6
   3   7   4 10990.4 1606.16   6
   3   7   5 30096.2 2667.16   6
   3   7   6 15001.9 1953.45   6
   3   7   7 3283.61 1039.63   6
   3   7   8 17692.8 2287.13   6
   3   7   9 6544.16 1482.19   6
   3   8   3 56388.7 3813.31   6
   3   8   4 13668.9 1961.01   6
   3   8   5 38539.6 3254.30   6
   3   8   6 10386.7 1733.47   6
   3   8   7 3857.11 1155.73   6
   3   8   8 10201.1 1835.67   6
   3   9   4 12227.4 1956.70   6
   3   9   5 5649.92 1462.08   6
   3   9   6 12944.7 2067.83   6
   3   9   7 830.813 752.968   6
   3  10   5 76.6164 760.292   6
   4  -8  -2 2131.39 974.947   3
   4  -8  -1 9374.61 1841.74   5
   4  -8   0-2003.91 1074.52   5
   4  -8   1 7662.53 1815.69   5
   4  -8   2 11699.3 2169.63   5
   4  -8   3 12105.9 2159.43   5
   4  -7  -4 7734.68 1637.79   3
   4  -7  -3 706.303 679.323   3
   4  -7  -2 6106.37 1407.51   3
   4  -7  -1 8504.76 1690.67   5
   4  -7   0 2794.30 1034.66   5
   4  -7   1 29971.5 3010.86   5
   4  -7   2 12676.1 2050.23   5
   4  -7   3 4531.89 1257.45   5
   4  -7   4 3410.16 1159.29   5
   4  -7   5 1346.02 928.998   5
   4  -6  -6 210.443 765.591   3
   4  -6  -5 12267.0 2031.38   3
   4  -6  -4 26041.3 2785.94   3
   4  -6  -3 4320.71 1244.18   3
   4  -6  -2 17341.7 2204.25   3
   4  -6  -1 47906.4 3551.52   5
   4  -6   0 9216.24 1580.83   5
   4  -6   1 1846.88 944.420   5
   4  -6   2-333.525 590.298   5
   4  -6   3 746.102 763.081   5
   4  -6   4 29765.6 2962.88   5
   4  -6   5 12018.5 1977.42   5
   4  -6   6 3764.46 1332.97   5
   4  -6   7 5492.16 1619.52   5
   4  -5  -7 1762.67 1009.33   3
   4  -5  -6 206.954 699.048   3
   4  -5  -5 6516.83 1426.14   3
   4  -5  -4 53211.2 3848.03   3
   4  -5  -3 41786.0 3292.68   3
   4  -5  -2 13906.3 1890.67   3
   4  -5  -1 309.944 627.785   5
   4  -5  -1 539.633 542.385   3
   4  -5   0-1340.94 730.712   5
   4  -5   1 525.994 508.481   5
   4  -5   2 23903.8 2340.99   5
   4  -5   3 14148.6 1859.72   5
   4  -5   4 26269.9 2605.04   5
   4  -5   5 3548.22 1029.21   5
   4  -5   6 834.003 663.721   5
   4  -5   7 5607.02 1476.52   5
   4  -5   8 4853.45 1411.95   5
   4  -4  -7 12625.1 2105.20   3
   4  -4  -6 10906.3 1839.34   3
   4  -4  -5 5076.56 1323.85   3
   4  -4  -4 3391.06 1080.73   3
   4  -4  -3 8932.70 1481.47   3
   4  -4  -2 1036.07 742.398   3
   4  -4  -2 862.938 384.839   7
   4  -4  -1 25886.9 2281.24   5
   4  -4  -1 28814.9 2497.07   3
   4  -4   0 36563.0 2652.79   5
   4  -4   1 5709.56 1125.21   5
   4  -4   2 27821.4 2353.59   5
   4  -4   3 18404.0 1960.75   5
   4  -4   4 13290.2 1761.34   5
   4  -4   5 750.897 619.757   5
   4  -4   6 3794.95 1198.79   5
   4  -4   7 21075.8 2469.10   5
   4  -4   8 16766.2 2276.14   5
   4  -4   9 3296.93 1167.61   5
   4  -3  -8 13118.4 2159.98   3
   4  -3  -7 18521.8 2404.23   3
   4  -3  -6 3002.97 1147.59   3
   4  -3  -5 4215.97 1177.82   3
   4  -3  -4 3264.58 971.826   3
   4  -3  -3 82883.2 4288.03   3
   4  -3  -2 39828.7 2839.39   3
   4  -3  -2 44089.0 2069.35   7
   4  -3  -2 41426.9 1991.50   6
   4  -3  -1 12367.7 1476.49   5
   4  -3  -1 11567.5 1528.55   3
   4  -3  -1 13125.7 1253.76   7
   4  -3  -1 13669.4 1095.97   6
   4  -3   0 22800.2 1486.20   6
   4  -3   0 21043.2 1854.30   5
   4  -3   1 21766.8 1589.03   6
   4  -3   1 20165.2 1802.10   5
   4  -3   2 20914.3 1877.32   5
   4  -3   3 77038.1 3767.86   5
   4  -3   4 15556.3 1770.57   5
   4  -3   5 16261.5 1885.27   5
   4  -3   6 3264.08 933.996   5
   4  -3   7 15086.5 1992.58   5
   4  -3   8 8926.99 1611.94   5
   4  -3   9 1014.40 738.310   5
   4  -3  10 1547.19 957.327   5
   4  -2  -8 4559.26 1325.30   1
   4  -2  -8 6156.61 1501.70   3
   4  -2  -7 4251.50 1251.56   3
   4  -2  -6 11260.1 1801.54   3
   4  -2  -5 3176.78 995.186   3
   4  -2  -4 2965.61 880.473   3
   4  -2  -3 80737.5 4090.67   3
   4  -2  -2 43979.8 2823.47   3
   4  -2  -1 5812.40 1000.86   3
   4  -2  -1 6452.75 827.011   7
   4  -2  -1 6405.79 615.875   6
   4  -2   0 20400.8 1170.66   6
   4  -2   0 20287.0 1641.39   5
   4  -2   0 19674.2 1793.04   3
   4  -2   0 19692.3 1581.08   7
   4  -2   1 17175.0 1499.38   5
   4  -2   2 89753.4 3648.25   5
   4  -2   3 323041. 8318.57   5
   4  -2   4 27280.8 2115.14   5
   4  -2   5 1419.54 461.634   2
   4  -2   5 2607.41 743.872   5
   4  -2   6 1262.83 729.289   5
   4  -2   7 9355.24 1504.39   5
   4  -2   8 7571.55 1456.90   5
   4  -2   9 4104.86 1202.96   5
   4  -2  10 1024.63 730.933   5
   4  -1  -8 8342.91 1704.83   1
   4  -1  -8 9110.59 1797.43   3
   4  -1  -7 3258.65 1024.12   1
   4  -1  -7 2683.32 1014.66   3
   4  -1  -6 25498.1 2588.10   3
   4  -1  -5 17959.3 2071.09   3
   4  -1  -4 259.213 596.204   3
   4  -1  -3 48066.3 2987.55   3
   4  -1  -2 101016. 4251.45   3
   4  -1  -1 526.300 507.802   3
   4  -1  -1 537.355 349.390   7
   4  -1   0 115741. 2687.86   6
   4  -1   0 117379. 3881.10   5
   4  -1   0 122144. 4305.90   3
   4  -1   0 110678. 3916.34   7
   4  -1   1 93253.9 3296.89   5
   4  -1   1 84721.0 3533.22   7
   4  -1   2 33040.6 1889.77   5
   4  -1   3 82431.4 3254.32   5
   4  -1   4 13719.3 1362.31   5
   4  -1   4 13565.8 1130.80   1
   4  -1   5 10082.4 1210.68   2
   4  -1   5 7946.78 1129.68   5
   4  -1   5 9762.35 1006.71   1
   4  -1   6 7385.99 1168.65   5
   4  -1   6 7784.68 970.870   1
   4  -1   7 601.625 564.650   5
   4  -1   8 11166.3 1611.89   5
   4  -1   9 8992.76 1565.84   5
   4  -1  10 64.2469 615.545   5
   4  -1  11 5872.97 1492.56   5
   4  -1  11 3334.45 1192.97   7
   4   0  -8 12657.9 2041.69   1
   4   0  -7 1150.09 754.347   3
   4   0  -7-17.2030 603.077   1
   4   0  -6 10201.4 1673.70   3
   4   0  -6 10751.8 1679.67   1
   4   0  -5 49698.4 3379.26   3
   4   0  -5 51564.5 3363.71   1
   4   0  -4 18525.5 1952.16   3
   4   0  -3 81323.6 3889.08   3
   4   0  -2 237680. 6885.40   3
   4   0  -1 12853.0 1336.69   3
   4   0   0 8530.37 1029.73   3
   4   0   1 8102.25 781.345   5
   4   0   1 8095.75 952.607   3
   4   0   1 8807.24 1084.47   7
   4   0   2 56.5385 245.365   5
   4   0   2 385.341 448.827   7
   4   0   3 84970.5 2944.26   5
   4   0   3 82870.2 3719.52   7
   4   0   4 30271.5 1418.46   1
   4   0   4 31233.8 1819.63   5
   4   0   4 32780.8 2370.88   7
   4   0   4 31344.0 2116.52   2
   4   0   5 14191.5 1040.95   1
   4   0   5 12486.9 1270.79   5
   4   0   5 12622.7 1595.05   7
   4   0   6 40145.2 2039.60   1
   4   0   6 43654.6 2585.16   5
   4   0   7 6900.28 1142.90   5
   4   0   8 20916.2 2111.06   5
   4   0   8 21364.1 2365.72   7
   4   0   9 16015.2 1992.96   5
   4   0   9 20676.8 2400.26   7
   4   0  10 4901.65 1301.63   7
   4   0  10 2573.08 959.125   5
   4   0  11-732.280 741.434   5
   4   0  11-61.9081 706.826   7
   4   0  12 1219.83 923.902   7
   4   1  -8 9750.56 1785.93   1
   4   1  -7 1762.37 859.299   1
   4   1  -6 3784.16 1083.93   3
   4   1  -6 6716.33 1353.23   1
   4   1  -5 69981.6 4045.00   3
   4   1  -5 76174.1 4065.44   1
   4   1  -4 133341. 5388.51   3
   4   1  -4 132542. 5184.61   1
   4   1  -3 30161.5 2275.85   3
   4   1  -3 29947.5 2171.71   1
   4   1  -2 63619.7 3167.90   3
   4   1  -2 70061.0 3075.98   1
   4   1  -1 7160.75 969.779   3
   4   1   0 14087.6 1243.53   3
   4   1   1 17021.3 1221.75   3
   4   1   1 16724.3 750.494   6
   4   1   2 604.461 220.986   5
   4   1   2 418.869 274.761   3
   4   1   2 230.118 448.110   7
   4   1   3 343.080 105.009   1
   4   1   3 256.533 482.067   7
   4   1   3 398.585 212.514   5
   4   1   4 72965.4 2559.80   5
   4   1   4 68386.2 1797.44   1
   4   1   4 71565.0 3489.01   7
   4   1   5 65671.5 2721.56   5
   4   1   5 66932.7 3561.88   7
   4   1   6 142976. 4717.21   5
   4   1   6 133891. 5437.43   7
   4   1   7 283.459 473.294   7
   4   1   8 12147.7 1759.04   7
   4   1   9 15486.7 2064.90   7
   4   1  10 9171.79 1663.15   7
   4   1  11 1555.79 978.680   7
   4   2  -8 16971.6 2350.39   1
   4   2  -7 25007.2 2658.14   1
   4   2  -6-953.173 637.153   1
   4   2  -5 17310.0 1948.72   1
   4   2  -4 41476.6 2879.47   3
   4   2  -4 34442.5 2517.33   1
   4   2  -3 12530.3 1504.26   3
   4   2  -3 17307.1 1623.33   1
   4   2  -2 15176.9 1489.62   3
   4   2  -2 14845.7 1368.84   1
   4   2  -1 85899.9 3376.46   3
   4   2  -1 83476.0 3038.14   1
   4   2   0 483.696 351.808   3
   4   2   0 714.029 313.783   1
   4   2   1 34591.2 1288.18   1
   4   2   1 32486.6 1301.59   6
   4   2   1 32713.4 1610.38   3
   4   2   2 22591.1 1148.75   3
   4   2   2 23815.4 1274.25   6
   4   2   3 145054. 3257.46   3
   4   2   3 138371. 2984.22   5
   4   2   3 141411. 4099.49   6
   4   2   4 29564.6 1355.65   5
   4   2   4 28060.6 2131.51   7
   4   2   4 29348.9 1853.33   6
   4   2   5 28641.0 2250.51   7
   4   2   6 27761.7 1414.87   3
   4   2   6 26102.3 2241.59   7
   4   2   7 3500.30 591.234   3
   4   2   7 2783.47 821.299   7
   4   2   8 3319.03 998.308   7
   4   2   9 48312.8 3470.29   7
   4   2  10 19856.6 2317.37   7
   4   2  11 5221.25 1464.74   6
   4   2  11 4097.52 1190.14   7
   4   3  -8 4787.91 1313.60   1
   4   3  -7 20212.5 2445.54   1
   4   3  -6 33.0397 588.418   1
   4   3  -5 826.526 537.978   1
   4   3  -4 36903.0 2644.24   1
   4   3  -3 4213.86 906.115   1
   4   3  -2 5246.87 847.869   1
   4   3  -1 106460. 3626.50   1
   4   3   0 108491. 3485.18   3
   4   3   0 100967. 3189.93   1
   4   3   1 173942. 4385.10   6
   4   3   1 171901. 4290.75   3
   4   3   2 81354.7 2811.48   6
   4   3   3 12629.0 1154.36   6
   4   3   4 6676.46 967.098   6
   4   3   5 11534.9 1311.81   6
   4   3   6 32863.0 1130.91   3
   4   3   6 33780.3 2459.65   6
   4   3   7 9480.85 1417.27   6
   4   3   7 10590.3 788.547   3
   4   3   8 15730.4 1922.12   6
   4   3   8 13657.7 1759.82   7
   4   3   9 24671.5 2460.27   7
   4   3   9 29412.4 2775.97   6
   4   3  10 3015.93 1124.25   6
   4   4  -8 3327.17 1270.25   1
   4   4  -7 23264.4 2700.62   1
   4   4  -6 1477.83 902.458   1
   4   4  -5 6540.25 1317.20   1
   4   4  -4 7487.07 1285.02   1
   4   4  -3 41839.8 2701.09   1
   4   4  -2 30341.1 2109.57   1
   4   4  -1 231599. 6259.04   1
   4   4   1 3031.38 632.996   6
   4   4   2 28786.9 1773.99   6
   4   4   3 155578. 4665.94   6
   4   4   3 135095. 2845.75   5
   4   4   4 44538.1 1625.96   5
   4   4   4 44098.4 2505.17   6
   4   4   5 45770.5 1959.10   5
   4   4   5 41262.2 2601.18   6
   4   4   6 6739.27 1180.27   6
   4   4   7 3685.39 1037.96   6
   4   4   8-295.133 636.966   6
   4   4   9 6791.78 1514.67   6
   4   4  10 3844.61 1257.82   6
   4   5  -7 11580.5 1968.84   1
   4   5  -6 28251.9 2868.62   1
   4   5  -5-273.396 696.954   1
   4   5  -4 34536.0 2783.49   1
   4   5  -3 28326.4 2358.27   1
   4   5   2 130069. 4566.53   6
   4   5   2 121938. 3060.14   5
   4   5   3 139409. 4820.71   6
   4   5   3 134095. 3349.06   5
   4   5   4 103509. 4226.08   6
   4   5   4 105316. 3088.70   5
   4   5   5-100.945 477.391   6
   4   5   5 169.607 268.650   5
   4   5   6 2162.11 780.108   6
   4   5   6 2620.71 605.746   5
   4   5   7 509.196 672.384   6
   4   5   8 26812.8 2635.10   6
   4   5   9 13052.6 2002.86   6
   4   5  10 3136.05 1153.95   6
   4   6   2 20081.3 1876.42   6
   4   6   2 16752.8 1173.19   5
   4   6   3 22927.2 2016.79   6
   4   6   3 22557.0 1381.32   5
   4   6   4 31403.1 2418.42   6
   4   6   4 32058.7 1767.28   5
   4   6   5 12992.1 1636.27   6
   4   6   5 13825.1 1223.19   5
   4   6   6 3845.34 1112.65   6
   4   6   7 27306.9 2610.73   6
   4   6   8 24058.9 2572.02   6
   4   6   9 4022.08 1282.93   6
   4   7   2 2902.03 923.049   6
   4   7   2 3063.05 644.944   5
   4   7   3 15388.8 1815.59   6
   4   7   3 12559.9 1192.19   5
   4   7   4 86694.1 4460.27   6
   4   7   4 85188.3 3409.99   5
   4   7   5 40407.4 3059.23   6
   4   7   6 3999.66 1182.35   6
   4   7   7 8150.63 1557.80   6
   4   7   8 20112.4 2483.64   6
   4   7   9 3535.25 1225.80   6
   4   8   3 13666.2 1908.14   6
   4   8   4 11019.3 1776.99   6
   4   8   5 29175.1 2823.24   6
   4   8   6-91.5011 714.393   6
   4   8   7 6679.68 1477.36   6
   4   8   8 13697.8 2189.84   6
   4   9   4 1550.94 861.736   6
   4   9   5 13623.1 2129.72   6
   4   9   6 5212.50 1370.43   6
   4   9   7 5932.94 1608.67   6
   4  10   5 15185.7 2329.41   6
   5  -7  -1 2068.67 1121.05   5
   5  -7  -1 1930.92 1038.62   3
   5  -7   0 1192.72 781.580   5
   5  -7   1 8898.07 1773.35   5
   5  -7   2 2882.03 1166.62   5
   5  -7   3 12953.1 2211.23   5
   5  -7   4 11493.8 2035.16   5
   5  -6  -4 4461.54 1323.92   3
   5  -6  -3 11222.9 1953.36   3
   5  -6  -2 7263.06 1567.99   3
   5  -6  -1 4621.83 1336.67   5
   5  -6  -1 8262.61 1675.24   3
   5  -6   0 1406.64 896.933   5
   5  -6   1 18127.7 2323.16   5
   5  -6   2 20656.5 2497.97   5
   5  -6   3 14499.7 2145.20   5
   5  -6   4 296.962 731.589   5
   5  -6   5 328.909 758.701   5
   5  -6   6 4505.47 1368.55   5
   5  -5  -5 2147.50 1061.41   3
   5  -5  -4 8459.23 1673.35   3
   5  -5  -3 11712.5 1975.63   3
   5  -5  -2 22498.6 2618.32   3
   5  -5  -1 31424.9 2877.04   5
   5  -5  -1 32236.6 3047.50   3
   5  -5   0 13135.2 1895.00   5
   5  -5   1 2922.44 982.605   5
   5  -5   2 4058.71 1173.69   5
   5  -5   3 8382.74 1521.30   5
   5  -5   4 1872.44 929.776   5
   5  -5   5 511.992 724.056   5
   5  -5   6 3783.66 1264.06   5
   5  -5   7 6943.41 1571.60   5
   5  -5   8 2360.08 1011.69   5
   5  -4  -6 2868.71 1122.99   3
   5  -4  -5-766.505 869.789   3
   5  -4  -4 13290.2 2072.92   3
   5  -4  -3 40744.4 3364.47   3
   5  -4  -2 23790.4 2534.59   3
   5  -4  -1 7047.47 1365.83   3
   5  -4  -1 6229.46 1021.57   7
   5  -4   0 1163.38 609.463   5
   5  -4   0 634.612 599.368   3
   5  -4   1-353.804 631.963   5
   5  -4   2 33817.3 2725.24   5
   5  -4   3 22983.8 2325.24   5
   5  -4   4 5796.68 1289.99   5
   5  -4   5 3286.74 1013.37   5
   5  -4   6 5170.44 1326.50   5
   5  -4   7 8968.65 1681.94   5
   5  -4   8 7002.92 1599.38   5
   5  -4   9 6581.01 1708.95   5
   5  -3  -7 3999.32 1325.88   3
   5  -3  -6 18033.0 2423.08   3
   5  -3  -5 5699.01 1483.97   3
   5  -3  -4 11317.3 1803.40   3
   5  -3  -3 15325.8 1977.75   3
   5  -3  -2 2537.39 920.224   3
   5  -3  -2 1743.14 526.124   7
   5  -3  -1 2188.71 461.358   6
   5  -3  -1 1344.56 668.638   3
   5  -3  -1 2447.79 620.444   7
   5  -3   0 8891.73 911.746   6
   5  -3   0 12058.3 1509.00   5
   5  -3   0 11378.1 1619.55   3
   5  -3   0 11722.1 1420.85   7
   5  -3   1 3865.72 679.303   6
   5  -3   1 3245.55 880.816   5
   5  -3   2 23075.4 2091.23   5
   5  -3   3 27591.1 2328.00   5
   5  -3   4 13973.7 1687.45   5
   5  -3   5-930.775 630.912   5
   5  -3   6 7960.48 1441.85   5
   5  -3   7 29106.3 2786.64   5
   5  -3   8 16680.9 2226.99   5
   5  -3   9 1587.33 875.523   5
   5  -3  10 1434.90 910.975   5
   5  -2  -7 10892.7 1966.95   3
   5  -2  -6 8364.27 1657.90   3
   5  -2  -5 5487.55 1342.78   3
   5  -2  -4 6968.49 1379.50   3
   5  -2  -3 26150.9 2458.91   3
   5  -2  -2-3.71966 482.917   3
   5  -2  -1 2562.69 377.707   6
   5  -2  -1 2991.26 852.456   3
   5  -2  -1 1980.95 560.361   7
   5  -2   0 3298.69 466.058   6
   5  -2   0 3823.86 836.011   5
   5  -2   0 3050.79 907.864   3
   5  -2   0 2562.37 695.809   7
   5  -2   1 4616.79 639.812   6
   5  -2   1 4015.03 829.238   5
   5  -2   1 4172.40 860.765   7
   5  -2   2 37502.5 2434.59   5
   5  -2   3 64950.4 3316.29   5
   5  -2   4 77552.9 3779.36   5
   5  -2   5 34875.4 2600.90   5
   5  -2   6 2276.94 882.519   5
   5  -2   7 8372.79 1448.07   5
   5  -2   8 5907.60 1276.82   5
   5  -2   9 262.041 630.673   5
   5  -2  10 1514.97 795.808   5
   5  -1  -7 2591.55 1059.93   1
   5  -1  -7 1513.57 839.638   3
   5  -1  -6 2925.52 1197.45   3
   5  -1  -6 6435.79 1415.79   1
   5  -1  -5 8997.32 1618.84   3
   5  -1  -4 10113.8 1600.39   3
   5  -1  -3 26951.3 2456.99   3
   5  -1  -2 646.229 587.656   3
   5  -1  -1 237.604 474.138   3
   5  -1   0 17322.6 1731.51   3
   5  -1   0 15696.5 1540.05   7
   5  -1   0 18085.4 742.605   6
   5  -1   1 93794.9 3574.10   5
   5  -1   1 89047.4 3905.74   3
   5  -1   1 86348.4 3890.43   7
   5  -1   2 90879.1 3521.44   5
   5  -1   2 81243.9 3940.38   7
   5  -1   3 52648.0 2677.48   5
   5  -1   3 48977.1 3159.16   7
   5  -1   4 24597.1 1889.76   5
   5  -1   4 24862.6 2321.50   7
   5  -1   5 55094.8 3045.00   5
   5  -1   5 56832.2 2555.07   1
   5  -1   6-95.1516 287.547   1
   5  -1   6 82.9630 493.909   5
   5  -1   7 4278.76 1018.84   5
   5  -1   8 8925.78 1461.10   5
   5  -1   9 2899.45 1068.97   5
   5  -1   9-361.281 752.382   7
   5  -1  10 1377.73 816.556   5
   5  -1  10 927.187 852.790   7
   5  -1  11 2030.46 1117.49   5
   5   0  -8 4581.93 1363.98   1
   5   0  -7 2825.02 1395.00   3
   5   0  -7-738.905 640.787   1
   5   0  -6 117.954 672.738   3
   5   0  -6 213.862 596.096   1
   5   0  -5 3703.92 1099.93   3
   5   0  -5 3566.33 952.075   1
   5   0  -4 22365.2 2311.76   3
   5   0  -3 51899.8 3331.26   3
   5   0  -2 18238.6 1860.36   3
   5   0  -1 64921.5 3339.60   3
   5   0   0 73602.3 3415.08   3
   5   0   1 39883.6 1981.12   5
   5   0   1 37775.4 2271.67   3
   5   0   1 36285.4 2431.26   7
   5   0   2 49229.8 2191.24   5
   5   0   2 43331.2 2780.54   7
   5   0   3 2277.39 535.547   5
   5   0   3 1958.43 796.422   7
   5   0   4 1439.91 654.737   7
   5   0   4 1015.95 399.846   5
   5   0   4 1346.25 330.452   1
   5   0   5 81514.9 2700.42   1
   5   0   5 77433.1 4228.08   7
   5   0   6 334.257 221.178   1
   5   0   6-146.726 452.616   5
   5   0   6 472.031 665.559   7
   5   0   7 438.304 417.547   5
   5   0   7 544.548 574.876   7
   5   0   8 10961.1 1537.45   5
   5   0   8 12179.8 1915.86   7
   5   0   9 13877.1 1847.43   5
   5   0   9 15844.3 2272.91   7
   5   0  10 4327.00 1138.46   5
   5   0  10 4434.38 1450.81   7
   5   0  11 1564.55 934.222   5
   5   0  11 6001.81 1599.58   7
   5   1  -8 1939.93 929.870   1
   5   1  -7 664.816 880.519   1
   5   1  -6 1355.02 791.368   3
   5   1  -6 1708.22 783.934   1
   5   1  -5 5387.90 1235.85   3
   5   1  -5 4588.31 1080.15   1
   5   1  -4 80410.7 4361.47   3
   5   1  -4 79109.0 4102.73   1
   5   1  -3 98627.2 4576.18   3
   5   1  -3 87659.7 4109.15   1
   5   1  -2 83318.7 3967.64   3
   5   1  -2 86447.7 3733.09   1
   5   1  -1 21553.6 1850.93   3
   5   1   0 40644.3 2359.90   3
   5   1   1 12022.0 561.753   6
   5   1   1 11533.2 1176.03   3
   5   1   2 74318.7 2325.37   5
   5   1   2 76535.5 2968.68   3
   5   1   2 71559.3 3568.71   7
   5   1   2 73238.0 2303.31   6
   5   1   3 839.255 470.188   7
   5   1   3 748.863 284.989   5
   5   1   3 1025.94 426.390   3
   5   1   4 9797.91 497.352   1
   5   1   4 10093.7 932.560   5
   5   1   4 8685.29 1361.34   7
   5   1   5 23504.2 1594.79   5
   5   1   5 24811.9 2322.88   7
   5   1   6 22447.5 1712.64   5
   5   1   6 20231.8 2214.86   7
   5   1   7 1614.87 591.005   5
   5   1   7 1331.91 647.211   7
   5   1   8 50516.2 3096.10   5
   5   1   8 51398.5 3773.54   7
   5   1   9 11481.4 1582.29   5
   5   1   9 13059.4 2033.10   7
   5   1  10 6389.38 1315.21   5
   5   1  10 7114.58 1646.07   7
   5   1  11 2286.55 935.643   5
   5   1  11 2391.64 1032.10   7
   5   2  -8 4274.88 1279.77   1
   5   2  -7 7924.43 1620.20   1
   5   2  -6 8323.14 1553.69   1
   5   2  -5 15528.2 1924.75   1
   5   2  -5 15908.4 2091.21   3
   5   2  -4 26086.0 2461.96   3
   5   2  -4 26693.3 2347.24   1
   5   2  -3 35620.9 2675.65   3
   5   2  -3 38175.5 2576.45   1
   5   2  -2 50283.5 3010.37   3
   5   2  -2 54968.3 2851.16   1
   5   2  -1 48083.1 2704.11   3
   5   2  -1 49253.8 2442.47   1
   5   2   0 23113.8 1720.85   3
   5   2   0 24326.0 1465.26   1
   5   2   1 5180.65 483.492   6
   5   2   1 5460.32 583.510   1
   5   2   1 4816.80 731.186   3
   5   2   2 27102.2 1542.93   3
   5   2   2 25632.6 926.429   1
   5   2   2 27330.7 1361.17   6
   5   2   3 23884.0 870.708   5
   5   2   3 25724.8 1375.40   3
   5   2   3 24427.5 1511.13   6
   5   2   4 288.284 408.698   6
   5   2   4 407.703 501.622   7
   5   2   4 521.132 233.742   5
   5   2   4 331.138 234.858   3
   5   2   5 40106.6 1855.31   5
   5   2   5 36912.6 2787.42   7
   5   2   5 38902.3 2382.63   6
   5   2   6 32416.0 1894.30   5
   5   2   6 33251.3 2746.05   7
   5   2   7 802.291 423.408   5
   5   2   7 299.341 559.248   7
   5   2   8 27982.4 2187.15   5
   5   2   8 26852.0 2667.08   7
   5   2   9 10849.5 1501.15   5
   5   2   9 9752.75 1680.82   7
   5   2  10 9270.74 1526.16   5
   5   2  10 9743.32 1785.68   7
   5   2  11 5089.98 1345.03   7
   5   2  11 5111.19 1291.28   5
   5   3  -7 14076.7 2168.27   1
   5   3  -6 7410.68 1539.49   1
   5   3  -5 5093.61 1215.05   1
   5   3  -4 5789.25 1155.36   1
   5   3  -3 11077.8 1434.82   1
   5   3  -2 35679.6 2329.01   1
   5   3  -2 34824.3 2476.48   3
   5   3  -1 3693.39 689.075   1
   5   3  -1 4339.54 845.591   3
   5   3   0 36.7536 261.388   1
   5   3   0 368.472 368.960   3
   5   3   1 3044.84 476.547   6
   5   3   1 2969.38 580.353   3
   5   3   1 3306.90 480.033   1
   5   3   2 88914.7 2979.17   6
   5   3   2 93903.4 2874.46   3
   5   3   3 179687. 3973.48   3
   5   3   3 176272. 4944.65   6
   5   3   4 26209.8 889.114   3
   5   3   4 23747.5 789.302   5
   5   3   4 26442.5 1836.41   6
   5   3   5 1241.76 566.507   6
   5   3   5 1228.20 319.697   5
   5   3   6 15606.5 1210.00   5
   5   3   6 15260.6 1677.46   6
   5   3   7 242.110 594.873   6
   5   3   8 31201.5 2721.95   6
   5   3   9 12257.6 1847.63   6
   5   3  10 6475.53 1509.19   6
   5   4  -7 13598.0 2179.97   1
   5   4  -6 2196.69 981.339   1
   5   4  -5 14781.4 1982.67   1
   5   4  -4 1156.02 672.787   1
   5   4  -3 795.293 573.499   1
   5   4  -2 8854.38 1207.25   1
   5   4  -1 25261.7 1823.58   1
   5   4   0 5449.10 793.326   1
   5   4   2 48151.0 2333.75   6
   5   4   3 242652. 6464.42   6
   5   4   4 42120.4 2450.77   6
   5   4   5 306.137 493.492   6
   5   4   5 455.193 184.576   5
   5   4   6 844.605 609.114   6
   5   4   7 31695.2 2632.34   6
   5   4   8 18240.1 2165.56   6
   5   4   9 5445.05 1303.08   6
   5   4  10-707.604 807.926   6
   5   5  -7 9405.61 1818.64   1
   5   5  -6 1119.89 922.154   1
   5   5  -5 6078.79 1353.36   1
   5   5  -4 5053.68 1258.71   1
   5   5  -3 1107.20 653.996   1
   5   5  -2 28122.5 2251.41   1
   5   5   2 8153.32 1093.42   6
   5   5   3 78575.7 3506.68   6
   5   5   4 96996.3 4115.21   6
   5   5   5 8709.96 1296.51   6
   5   5   5 9997.17 751.904   5
   5   5   6 5870.46 1126.30   6
   5   5   6 5238.45 685.062   5
   5   5   7 8481.14 1452.20   6
   5   5   8 2081.07 980.302   6
   5   5   9 236.065 768.836   6
   5   5  10-1270.53 926.406   6
   5   6  -6 563.435 753.378   1
   5   6   2 17934.2 1764.04   6
   5   6   3 36372.2 2545.48   6
   5   6   4 68233.5 3604.05   6
   5   6   4 61300.9 1980.76   5
   5   6   5 344.953 533.925   6
   5   6   5 18.9013 193.966   5
   5   6   6 5338.37 1200.54   6
   5   6   7 18092.4 2167.00   6
   5   6   8 12904.6 1899.78   6
   5   6   9 10803.4 1906.46   6
   5   7   3 16416.8 1891.77   6
   5   7   3 13561.5 1021.33   5
   5   7   4 12558.3 1700.92   6
   5   7   5 6225.95 1300.27   6
   5   7   6 15140.6 2002.12   6
   5   7   7 27856.7 2742.94   6
   5   7   8 22045.5 2623.01   6
   5   7   9 7825.37 1692.58   6
   5   8   3-1306.05 795.750   6
   5   8   4 21038.6 2355.99   6
   5   8   5 23732.7 2590.06   6
   5   8   6 7018.61 1529.07   6
   5   8   7 13706.4 2036.14   6
   5   8   8 4889.10 1455.29   6
   5   9   4 6506.62 1511.12   6
   5   9   5 7740.07 1686.19   6
   5   9   6 3024.14 1130.50   6
   5   9   7 3164.33 1215.16   6
   5  10   5 4758.27 1337.23   6
   6  -6   0 1097.95 804.958   5
   6  -6   0-152.816 755.743   3
   6  -6   1 2995.17 1053.05   5
   6  -6   2 6003.08 1548.85   5
   6  -6   3 15315.1 2271.72   5
   6  -6   4 1299.55 1013.05   5
   6  -6   5 999.061 815.774   5
   6  -5  -3 2526.08 1153.52   3
   6  -5  -2 6277.66 1592.67   3
   6  -5  -1 2497.54 1092.30   3
   6  -5   0 2350.76 1046.36   5
   6  -5   0 2744.80 1044.34   3
   6  -5   1 23129.8 2693.54   3
   6  -5   1 21024.6 2471.05   5
   6  -5   2 17300.1 2262.56   5
   6  -5   3 18201.6 2359.83   5
   6  -5   4-2184.97 1067.10   5
   6  -5   5 1421.68 876.088   5
   6  -5   6 3214.69 1153.94   5
   6  -5   7 4539.17 1423.20   5
   6  -4  -4 3729.92 1216.37   3
   6  -4  -3 939.149 689.326   3
   6  -4  -2 5995.31 1459.04   3
   6  -4  -1 17892.0 2342.99   3
   6  -4   0 6431.36 1344.39   5
   6  -4   0 6580.57 1523.12   3
   6  -4   0 5314.51 1109.62   7
   6  -4   1 13385.6 1829.35   5
   6  -4   1 16851.7 2198.94   3
   6  -4   1 17684.6 2046.85   7
   6  -4   2 26363.3 2546.01   5
   6  -4   3 22101.2 2373.53   5
   6  -4   4 539.184 697.855   5
   6  -4   5 518.793 702.008   5
   6  -4   6 131.120 565.353   5
   6  -4   7 1203.51 865.195   5
   6  -4   8 2075.55 1082.96   5
   6  -3  -5 2686.56 1127.55   3
   6  -3  -4 36140.5 3372.57   3
   6  -3  -3 1382.72 944.629   3
   6  -3  -2 3910.02 1102.61   3
   6  -3  -1 12395.2 1861.75   3
   6  -3  -1 12324.8 1468.40   7
   6  -3   0 19022.1 2183.80   3
   6  -3   0 20092.7 1932.80   7
   6  -3   1 17542.9 1951.77   5
   6  -3   1 21954.6 2351.71   3
   6  -3   1 19647.6 2070.21   7
   6  -3   2 13167.4 1712.06   5
   6  -3   2 12275.1 1743.38   7
   6  -3   3 572.742 471.763   5
   6  -3   4 2452.49 885.317   5
   6  -3   5-590.613 695.778   5
   6  -3   6 1517.28 778.433   5
   6  -3   7 6754.43 1425.58   5
   6  -3   8 6444.17 1470.58   5
   6  -3   9 2330.22 1070.72   5
   6  -2  -6 3616.77 1360.98   3
   6  -2  -5 4313.69 1354.72   3
   6  -2  -4 57670.6 4203.12   3
   6  -2  -3 16610.5 2180.63   3
   6  -2  -2 1921.72 791.405   3
   6  -2  -1 9240.50 1513.26   3
   6  -2   0 1037.14 643.942   3
   6  -2   0 262.169 462.058   7
   6  -2   1 491.217 521.159   5
   6  -2   1 713.246 578.389   3
   6  -2   1 492.040 545.835   7
   6  -2   2 10381.8 1369.84   5
   6  -2   2 7932.17 1358.99   7
   6  -2   3 49.9985 378.767   5
   6  -2   3-135.860 645.209   7
   6  -2   4 21998.4 2049.62   5
   6  -2   4 16109.3 2072.07   7
   6  -2   5 10506.1 1497.07   5
   6  -2   5 11515.1 1849.34   7
   6  -2   6 21164.6 2176.82   5
   6  -2   7 15466.2 1984.60   5
   6  -2   8 6015.25 1365.55   5
   6  -2   8 7619.09 1776.75   7
   6  -2   9 3055.49 1132.94   5
   6  -2  10 2471.86 1033.65   5
   6  -1  -6 5241.12 1368.71   1
   6  -1  -6 4868.97 1556.69   3
   6  -1  -5 8199.31 1679.34   3
   6  -1  -4 62942.5 4296.39   3
   6  -1  -3 27941.1 2705.57   3
   6  -1  -2 2306.77 904.494   3
   6  -1  -1 1496.12 818.388   3
   6  -1   0 736.045 547.462   3
   6  -1   1 10394.7 696.063   6
   6  -1   1 13865.2 1662.37   3
   6  -1   1 10846.9 1266.37   5
   6  -1   1 12065.8 1542.13   7
   6  -1   2 13958.9 1405.00   5
   6  -1   2 13305.6 1583.33   3
   6  -1   2 10422.2 1547.49   7
   6  -1   3 3939.04 815.007   5
   6  -1   3 2597.48 857.453   7
   6  -1   4 44853.2 2698.17   5
   6  -1   4 47351.2 3416.75   7
   6  -1   5 44001.4 2769.66   5
   6  -1   5 44303.9 3452.41   7
   6  -1   6 7606.96 1270.88   5
   6  -1   6 6998.53 1579.88   7
   6  -1   7 10465.3 1570.12   5
   6  -1   7 9622.32 1857.17   7
   6  -1   8 7725.09 1418.03   5
   6  -1   8 9864.81 1852.27   7
   6  -1   9 433.655 613.416   5
   6  -1   9 1585.84 1081.99   7
   6  -1  10 2825.25 1098.96   5
   6   0  -7 5300.78 1419.20   1
   6   0  -6 9985.42 1799.59   1
   6   0  -6 5060.17 1369.71   3
   6   0  -5 971.093 706.653   1
   6   0  -5 1897.43 1037.09   3
   6   0  -4 1520.21 815.006   3
   6   0  -4 3814.71 986.433   1
   6   0  -3 27015.5 2609.13   3
   6   0  -2-5.78083 523.393   3
   6   0  -1 10432.4 1523.52   3
   6   0   0 5363.45 1075.10   3
   6   0   1 58410.2 3208.85   3
   6   0   2 81134.2 3129.01   5
   6   0   2 75011.3 3555.96   3
   6   0   2 72365.1 3961.99   7
   6   0   3 12344.1 1196.95   5
   6   0   3 11189.7 1362.51   3
   6   0   3 9464.93 1522.63   7
   6   0   4 7533.88 997.042   5
   6   0   4 6465.82 1276.95   7
   6   0   5 20437.6 1696.01   5
   6   0   5 20935.5 2341.73   7
   6   0   5 24495.5 1340.53   1
   6   0   6 2223.23 673.772   5
   6   0   6 736.094 623.076   7
   6   0   7 22875.9 2064.56   5
   6   0   7 21904.5 2559.55   7
   6   0   8 4801.36 1083.14   5
   6   0   8 8124.65 1700.49   7
   6   0   9 1638.56 767.876   5
   6   0   9 2325.67 1134.48   7
   6   0  10 2420.38 1000.39   5
   6   0  10 1618.60 1113.44   7
   6   1  -7-145.933 582.090   1
   6   1  -6 2904.75 1107.44   3
   6   1  -6 2474.55 1059.73   1
   6   1  -5-1417.42 783.500   3
   6   1  -5-792.286 705.624   1
   6   1  -4-785.048 591.872   1
   6   1  -4 87.6613 603.171   3
   6   1  -3 27821.8 2565.14   3
   6   1  -3 27223.3 2356.17   1
   6   1  -2 34609.8 2733.81   3
   6   1  -2 40428.0 2658.50   1
   6   1  -1 47070.1 3004.70   3
   6   1   0 38503.8 2560.45   3
   6   1   1 51149.6 2827.78   3
   6   1   2 28748.2 2002.22   3
   6   1   2 33786.2 1397.36   6
   6   1   3 19775.9 1225.08   5
   6   1   3 17320.3 1481.78   3
   6   1   3 16004.0 1889.95   7
   6   1   3 15182.8 1180.62   6
   6   1   4 8358.79 453.665   1
   6   1   4 9233.95 922.321   5
   6   1   4 7725.52 989.687   3
   6   1   4 7581.18 1370.78   7
   6   1   5 17653.2 1385.42   5
   6   1   5 17094.6 2098.51   7
   6   1   6 1827.72 563.454   5
   6   1   6 241.145 587.428   7
   6   1   7 9392.04 1212.51   5
   6   1   7 7143.78 1571.07   7
   6   1   8 8917.17 1327.23   5
   6   1   8 10387.7 1839.37   7
   6   1   9 5295.60 1134.46   5
   6   1   9 2697.12 995.790   7
   6   1  10 1987.61 1085.01   7
   6   2  -7 340.431 631.398   1
   6   2  -6 2386.62 1027.75   1
   6   2  -5 12161.1 1866.36   1
   6   2  -5 8374.01 1600.40   3
   6   2  -4 1155.92 674.185   1
   6   2  -4 1436.22 913.659   3
   6   2  -3 31626.5 2728.69   3
   6   2  -3 33030.1 2550.85   1
   6   2  -2 63732.3 3670.89   3
   6   2  -2 68494.4 3451.95   1
   6   2  -1 14690.7 1654.59   3
   6   2  -1 13757.1 1386.71   1
   6   2   0 8648.89 1210.07   3
   6   2   0 7605.98 919.862   1
   6   2   1 18524.2 1227.81   1
   6   2   1 17813.9 1565.44   3
   6   2   2 112184. 3052.66   6
   6   2   2 110243. 2816.20   1
   6   2   2 115619. 3969.03   3
   6   2   3 36866.0 1978.80   3
   6   2   3 37420.3 1895.13   6
   6   2   4 2756.65 615.206   6
   6   2   4 2182.42 342.624   5
   6   2   4 1993.12 471.870   3
   6   2   5 787.375 500.133   6
   6   2   5 890.444 326.161   5
   6   2   5 576.958 289.190   3
   6   2   5 1185.63 633.963   7
   6   2   6 2370.45 747.505   6
   6   2   6 2247.98 539.314   5
   6   2   6 343.653 698.012   7
   6   2   7 12280.8 1633.69   6
   6   2   7 13988.9 1362.35   5
   6   2   7 14862.5 2033.13   7
   6   2   8 16303.3 1998.82   6
   6   2   8 17614.3 1696.27   5
   6   2   8 16756.7 2276.08   7
   6   2   9 10128.7 1742.39   6
   6   2   9 6835.19 1570.44   7
   6   2  10 3515.92 1166.22   6
   6   2  10 5598.81 1524.22   7
   6   2  11-1967.05 1073.93   7
   6   3  -7 3945.43 1300.54   1
   6   3  -6 18197.9 2373.91   1
   6   3  -5 37018.0 3118.08   1
   6   3  -4 3641.57 985.389   1
   6   3  -3 516.926 588.788   3
   6   3  -3 1477.03 683.740   1
   6   3  -2 46051.9 2816.39   1
   6   3  -2 48671.4 3167.84   3
   6   3  -1 11890.6 1295.75   1
   6   3  -1 12362.1 1490.21   3
   6   3   0 22111.0 1552.24   1
   6   3   0 23976.1 1905.12   3
   6   3   1 14279.6 1373.73   3
   6   3   1 16252.1 1116.38   1
   6   3   2 19423.9 1261.23   6
   6   3   2 23489.1 1563.96   3
   6   3   3 17481.2 1343.73   6
   6   3   3 19959.8 1267.86   3
   6   3   4 13371.2 889.904   3
   6   3   4 13026.5 1312.59   6
   6   3   5 851.739 532.448   6
   6   3   5 721.738 200.312   3
   6   3   5 648.403 180.329   5
   6   3   6 2775.44 815.497   6
   6   3   6 2770.84 293.196   3
   6   3   6 3238.39 508.290   5
   6   3   7 14129.0 1746.45   6
   6   3   7 15396.2 1298.84   5
   6   3   8 25509.3 2489.50   6
   6   3   9 1570.88 943.888   6
   6   3  10 8596.11 1678.03   6
   6   4  -7 4045.41 1435.21   1
   6   4  -6 360.221 651.627   1
   6   4  -5 27681.7 2786.81   1
   6   4  -4 11267.9 1678.08   1
   6   4  -3 8546.08 1358.35   1
   6   4  -2 34428.6 2448.35   1
   6   4  -1 1421.58 574.606   1
   6   4   0-94.6979 348.663   1
   6   4   2 23407.3 1598.51   6
   6   4   3 45211.6 2376.08   6
   6   4   4 40930.7 2410.73   6
   6   4   5 9300.27 1266.17   6
   6   4   6 13876.1 1641.20   6
   6   4   6 11686.8 792.541   5
   6   4   7 16400.4 1912.60   6
   6   4   8 15726.2 1987.56   6
   6   4   9 6578.33 1470.72   6
   6   4  10 7967.89 1660.82   6
   6   5  -6 871.146 937.556   1
   6   5  -5 32012.3 3040.60   1
   6   5  -4 29045.1 2726.17   1
   6   5  -3 7682.73 1348.11   1
   6   5  -2 832.006 492.924   1
   6   5   2 10674.4 1224.74   6
   6   5   3 50830.8 2752.37   6
   6   5   4 19742.8 1779.10   6
   6   5   5 15785.0 1712.99   6
   6   5   6 33300.4 2615.11   6
   6   5   7 30618.2 2662.90   6
   6   5   8 12148.9 1836.12   6
   6   5   9 593.615 649.219   6
   6   5  10 357.228 721.727   6
   6   6  -6 172.146 700.742   1
   6   6  -5 3493.96 1199.03   1
   6   6  -4 11774.6 1874.19   1
   6   6   3 29239.7 2283.53   6
   6   6   4 14863.6 1689.28   6
   6   6   5 15240.1 1778.85   6
   6   6   6 15677.8 1942.57   6
   6   6   7 8400.73 1529.55   6
   6   6   8-2.41929 579.200   6
   6   6   9 2904.55 1090.25   6
   6   7   3 18328.0 2018.28   6
   6   7   4 424.319 705.969   6
   6   7   5 1855.24 886.395   6
   6   7   6 5549.55 1264.51   6
   6   7   7 4895.17 1251.85   6
   6   7   8 3539.56 1141.73   6
   6   7   9 7055.59 1558.37   6
   6   8   4 2297.41 1025.45   6
   6   8   5-242.012 576.706   6
   6   8   6 6395.81 1470.44   6
   6   8   7 7539.85 1595.50   6
   6   8   8 3630.30 1185.63   6
   6   9   4 10912.9 1838.53   6
   6   9   5 109.988 723.838   6
   6   9   6 6275.91 1535.93   6
   6   9   7 300.606 712.179   6
   6  10   5 1113.55 956.987   6
   7  -5   1 3868.73 1154.44   5
   7  -5   1 5987.47 1652.19   3
   7  -5   2 5949.14 1464.17   5
   7  -5   2 5419.23 1422.21   3
   7  -5   2 5754.24 1396.44   7
   7  -5   3 910.712 721.047   5
   7  -5   3 2985.95 1110.53   7
   7  -5   4 466.092 776.332   5
   7  -5   5 4437.04 1455.04   5
   7  -4  -2 972.752 943.982   3
   7  -4  -1 2172.75 1064.35   3
   7  -4   0 2334.24 1023.36   3
   7  -4   1 11943.9 1837.55   5
   7  -4   1 11453.8 2032.55   3
   7  -4   1 9660.52 1662.86   7
   7  -4   2 4699.88 1261.95   5
   7  -4   2 7278.03 1596.89   3
   7  -4   2 6681.86 1499.55   7
   7  -4   3 6018.74 1414.30   5
   7  -4   3 7070.57 1634.54   7
   7  -4   4 2328.72 863.587   5
   7  -4   4 2664.63 1134.26   7
   7  -4   5 11006.5 1803.52   5
   7  -4   5 14552.9 2367.26   7
   7  -4   6 7546.22 1596.06   5
   7  -4   7 1555.37 853.445   5
   7  -3  -3-552.552 1048.44   3
   7  -3  -2 898.015 786.239   3
   7  -3  -1 1386.66 948.520   3
   7  -3   0 5486.48 1376.52   3
   7  -3   0 5727.30 1193.64   7
   7  -3   1 22700.0 2323.94   5
   7  -3   1 22735.2 2552.91   3
   7  -3   1 21130.4 2313.31   7
   7  -3   2 12794.3 1749.75   5
   7  -3   2 15857.0 2143.09   3
   7  -3   2 13116.5 1928.60   7
   7  -3   3 17903.4 2065.27   5
   7  -3   3 16356.1 2231.72   7
   7  -3   4 3739.09 1067.07   5
   7  -3   4 1305.78 639.973   7
   7  -3   5 5582.68 1315.71   5
   7  -3   5 5581.82 1487.61   7
   7  -3   6 3266.99 1077.72   5
   7  -3   6 1572.78 818.592   7
   7  -3   7 1356.25 927.521   5
   7  -3   8-2131.62 889.277   5
   7  -2  -4 14802.5 2395.67   3
   7  -2  -3 4154.92 1352.88   3
   7  -2  -2 4577.05 1324.64   3
   7  -2  -1 6537.72 1464.50   3
   7  -2   0 17778.4 2220.05   3
   7  -2   1 29386.1 2740.38   3
   7  -2   1 26400.3 2500.95   7
   7  -2   2 3896.24 951.242   5
   7  -2   2 6458.33 1312.34   3
   7  -2   2 7948.16 1469.98   7
   7  -2   3 699.338 547.487   5
   7  -2   3 1137.36 666.818   3
   7  -2   3 1360.58 790.968   7
   7  -2   4-385.247 422.267   5
   7  -2   4 774.088 724.876   7
   7  -2   5-28.7987 511.142   5
   7  -2   5-257.077 472.279   7
   7  -2   6 7533.69 1402.50   5
   7  -2   6 8107.62 1699.13   7
   7  -2   7 8548.25 1513.50   5
   7  -2   7 7407.55 1744.76   7
   7  -2   8 296.127 547.317   5
   7  -1  -5 1381.79 810.560   1
   7  -1  -5 2653.24 1206.20   3
   7  -1  -4 16242.7 2453.94   3
   7  -1  -3 11781.5 2024.10   3
   7  -1  -2 28230.8 2815.01   3
   7  -1  -1 8622.67 1582.07   3
   7  -1   0 13200.0 1840.58   3
   7  -1   1 4418.94 1111.24   3
   7  -1   1 4861.74 1134.27   7
   7  -1   2 584.089 496.837   5
   7  -1   2-304.897 548.522   3
   7  -1   2 400.187 528.831   7
   7  -1   3 54.5959 371.940   5
   7  -1   3 635.269 656.386   3
   7  -1   3 799.781 634.705   7
   7  -1   4 8446.46 1233.92   5
   7  -1   4 8257.28 1577.68   7
   7  -1   5-267.910 360.669   5
   7  -1   5 499.752 600.407   7
   7  -1   6 25879.4 2271.02   5
   7  -1   6 29740.3 3159.86   7
   7  -1   7 22456.9 2203.58   5
   7  -1   7 20947.8 2693.97   7
   7  -1   8 2782.36 1253.62   7
   7   0  -6 4291.14 1301.78   1
   7   0  -5 7478.33 1705.21   3
   7   0  -5 7109.43 1560.45   1
   7   0  -4 9832.75 1835.44   3
   7   0  -4 8630.86 1593.03   1
   7   0  -3 14217.7 2102.86   3
   7   0  -2 15948.7 2102.42   3
   7   0  -1 2028.90 888.699   3
   7   0   0-699.838 604.119   3
   7   0   1 6055.78 1198.91   3
   7   0   2 8031.92 1285.84   3
   7   0   2 7455.36 1410.58   7
   7   0   2 7056.10 548.614   6
   7   0   3 21634.8 1651.53   5
   7   0   3 17125.2 1802.35   3
   7   0   3 16085.1 2071.41   7
   7   0   4 51304.6 2644.51   5
   7   0   4 44343.1 2892.94   3
   7   0   4 44726.4 3511.34   7
   7   0   5 554.238 370.555   5
   7   0   5-86.6294 614.492   7
   7   0   6 2981.76 738.212   5
   7   0   6 1041.71 732.161   7
   7   0   7 18895.2 1866.83   5
   7   0   7 16315.0 2369.99   7
   7   0   8 13176.4 2235.31   7
   7   1  -6 8075.57 1816.61   1
   7   1  -5 4463.57 1263.44   3
   7   1  -5 7864.48 1554.15   1
   7   1  -4-317.846 608.945   3
   7   1  -4-664.955 651.417   1
   7   1  -3 729.596 560.147   1
   7   1  -3-283.181 573.076   3
   7   1  -2 990.620 564.076   1
   7   1  -2 3129.16 1037.72   3
   7   1  -1 6464.66 1291.42   3
   7   1  -1 5991.34 1070.17   1
   7   1   0 10615.1 1520.99   3
   7   1   1 74185.2 3796.96   3
   7   1   2 21075.1 860.374   6
   7   1   2 20287.7 1894.49   3
   7   1   3 11649.9 1380.26   3
   7   1   3 12584.5 1024.93   6
   7   1   4 13400.7 1109.15   5
   7   1   4 13639.9 1436.00   3
   7   1   4 14706.1 2000.61   7
   7   1   4 12570.5 1215.83   6
   7   1   5 25.3902 283.081   5
   7   1   5 210.237 366.857   3
   7   1   5 2.48906 719.998   7
   7   1   6 2201.77 573.047   5
   7   1   6 2690.21 1089.97   7
   7   1   7 33632.9 3314.65   7
   7   1   8 10186.8 1991.01   7
   7   1   9 229.655 679.847   7
   7   2  -6 1670.79 1030.05   1
   7   2  -5 2116.52 1116.15   3
   7   2  -5 1811.98 912.865   1
   7   2  -4-449.614 621.687   1
   7   2  -4-55.1107 647.582   3
   7   2  -3 5160.18 1144.26   1
   7   2  -3 5195.92 1260.18   3
   7   2  -2 8928.63 1363.77   1
   7   2  -2 10645.4 1669.46   3
   7   2  -1 31942.4 2635.32   3
   7   2  -1 28873.0 2161.99   1
   7   2   0 4546.65 843.823   1
   7   2   0 4344.44 1029.89   3
   7   2   1 21484.7 1948.21   3
   7   2   1 22503.3 1494.35   1
   7   2   2 22697.8 1043.54   6
   7   2   2 23935.9 1250.79   1
   7   2   2 22537.5 1865.82   3
   7   2   3 17503.2 1549.33   3
   7   2   3 21120.8 1328.76   6
   7   2   4 39784.0 2215.52   3
   7   2   4 36164.7 2096.11   6
   7   2   5 11026.9 1281.34   6
   7   2   5 8367.19 969.269   3
   7   2   6 259.507 441.983   6
   7   2   6 714.324 775.305   7
   7   2   7 11753.8 1610.81   6
   7   2   7 10728.6 1862.13   7
   7   2   8 599.282 519.673   6
   7   2   8 256.081 877.970   7
   7   2   9 1734.55 903.991   6
   7   2   9 1552.53 980.473   7
   7   2  10-326.943 657.663   6
   7   3  -6 4006.29 1478.65   1
   7   3  -5 12065.5 1891.81   1
   7   3  -4 16854.8 2073.52   1
   7   3  -3 12264.9 1839.94   3
   7   3  -3 10898.6 1576.82   1
   7   3  -2 1341.31 717.061   3
   7   3  -2 2064.41 705.725   1
   7   3  -1 124.056 493.798   3
   7   3  -1 660.036 460.414   1
   7   3   0 5949.60 902.079   1
   7   3   0 5089.83 1018.42   3
   7   3   1 40252.3 2561.20   3
   7   3   1 39093.2 1915.50   1
   7   3   2 54592.4 2068.46   6
   7   3   2 55081.1 2780.45   3
   7   3   2 54648.3 1807.27   1
   7   3   3 24460.2 1544.54   6
   7   3   3 20807.5 1536.98   3
   7   3   4 6303.15 906.779   6
   7   3   4 4982.12 689.385   3
   7   3   5 10640.9 1295.04   6
   7   3   5 10231.5 859.622   3
   7   3   6 596.156 580.155   6
   7   3   7 3634.28 965.971   6
   7   3   8 423.743 604.839   6
   7   3   9 4842.43 1267.37   6
   7   3  10-884.709 832.767   6
   7   4  -6 7469.45 1691.60   1
   7   4  -5 10859.3 1856.29   1
   7   4  -4 18759.6 2224.45   1
   7   4  -3 11571.0 1638.94   1
   7   4  -2 1827.83 709.320   1
   7   4  -1 4027.86 831.160   1
   7   4   0 30318.5 2306.96   3
   7   4   0 26587.1 1871.34   1
   7   4   1 10200.7 1259.08   3
   7   4   2 46942.6 2234.78   6
   7   4   2 45912.2 2389.13   3
   7   4   3 404.031 354.072   6
   7   4   3 723.761 336.766   3
   7   4   4 750.591 495.689   6
   7   4   5 4479.77 931.455   6
   7   4   6 17933.3 1874.09   6
   7   4   7 9227.62 1502.60   6
   7   4   8 5709.57 1290.48   6
   7   4   9 6105.49 1428.95   6
   7   4  10 4461.36 1286.74   6
   7   5  -5 3368.33 1150.15   1
   7   5  -4 22324.2 2446.09   1
   7   5  -3 34044.9 2864.34   1
   7   5  -2 8212.31 1332.36   1
   7   5  -1 1548.76 583.972   1
   7   5   3 1611.62 593.911   6
   7   5   4 1374.91 607.590   6
   7   5   5 18638.5 1868.95   6
   7   5   6 49591.6 3242.90   6
   7   5   7 8690.26 1466.80   6
   7   5   8 12068.1 1858.83   6
   7   5   9 6552.38 1496.56   6
   7   6  -5 4359.88 1374.37   1
   7   6  -4 9425.05 1801.48   1
   7   6   3 21050.4 1963.63   6
   7   6   4 87.8285 494.917   6
   7   6   5 6179.23 1168.22   6
   7   6   6 46171.0 3259.89   6
   7   6   7 14880.1 1984.35   6
   7   6   8 7547.56 1553.52   6
   7   6   9 678.858 832.246   6
   7   7   3 45911.2 3141.00   6
   7   7   4 1029.28 673.731   6
   7   7   5 2888.02 1063.60   6
   7   7   6 7016.10 1406.27   6
   7   7   7 1594.82 929.998   6
   7   7   8 4819.35 1325.11   6
   7   8   4 2688.71 1000.62   6
   7   8   5-354.155 624.282   6
   7   8   6 81.4151 648.391   6
   7   8   7 1831.82 900.020   6
   7   8   8 5989.08 1453.23   6
   7   9   5 3641.35 1134.40   6
   7   9   6-147.362 825.959   6
   7  10   5-22.0528 808.028   6
   8  -4   2 6249.90 1420.94   5
   8  -4   3 1437.71 900.158   5
   8  -4   3 868.124 775.491   7
   8  -4   4 369.534 525.937   5
   8  -4   5 5345.63 1370.69   5
   8  -3   0 7856.30 1726.88   3
   8  -3   1 4773.64 1414.37   3
   8  -3   2 903.063 705.878   5
   8  -3   2 1371.86 889.278   3
   8  -3   2 1725.03 1004.19   7
   8  -3   3 2733.63 938.980   5
   8  -3   3 4567.72 1324.79   3
   8  -3   3 1699.31 848.406   7
   8  -3   4 1324.91 729.320   5
   8  -3   4 1982.94 979.573   3
   8  -3   4 2721.73 1117.78   7
   8  -3   5 8874.28 1897.18   7
   8  -2  -2 7602.74 1665.77   3
   8  -2  -1 2290.98 1048.63   3
   8  -2   0 1902.22 962.688   3
   8  -2   1 5484.56 1381.12   3
   8  -2   2 4498.42 1276.86   3
   8  -2   2 4758.33 1300.63   7
   8  -2   3 19235.1 2042.99   5
   8  -2   3 17748.6 2281.31   3
   8  -2   3 17801.6 2349.14   7
   8  -2   4 1117.72 637.391   5
   8  -2   4 2049.89 936.985   3
   8  -2   4 962.280 887.488   7
   8  -2   5 2055.13 1079.79   7
   8  -1  -4 4680.93 1467.20   1
   8  -1  -3 599.064 634.984   3
   8  -1  -2 5489.33 1535.56   3
   8  -1  -1 6719.11 1474.87   3
   8  -1   0 13130.0 2006.14   3
   8  -1   1 9875.30 1651.35   3
   8  -1   2 2064.68 1016.53   3
   8  -1   2 2374.57 962.189   7
   8  -1   3 14087.4 1600.14   5
   8  -1   3 11358.1 1721.37   3
   8  -1   3 15902.5 2202.01   7
   8  -1   4-330.941 479.124   3
   8  -1   4-31.3821 500.477   7
   8  -1   5 1880.98 715.942   3
   8  -1   5 1491.66 908.437   7
   8  -1   6 1313.98 1001.57   7
   8   0  -4 5873.04 1458.56   1
   8   0  -3 1088.64 865.872   3
   8   0  -3 1226.15 682.899   1
   8   0  -2 6084.07 1267.62   1
   8   0  -2 7096.20 1540.22   3
   8   0  -1 9968.05 1781.48   3
   8   0   0 15693.5 2014.05   3
   8   0   1 5623.67 1287.53   3
   8   0   2 1049.67 614.288   3
   8   0   3 3825.90 1006.38   3
   8   0   4 3368.13 944.141   3
   8   0   4 3651.83 1131.15   7
   8   0   5 989.479 606.851   3
   8   0   5-783.404 865.547   7
   8   0   6 15138.5 1758.42   3
   8   0   6 13306.2 2185.44   7
   8   0   7 5011.96 1451.43   7
   8   1  -5 1352.04 882.762   1
   8   1  -4 11981.4 2102.99   3
   8   1  -4 6745.18 1455.08   1
   8   1  -3-2.26388 526.681   1
   8   1  -3 502.745 633.169   3
   8   1  -2 1200.78 673.125   1
   8   1  -2 988.052 844.731   3
   8   1  -1 1208.96 684.579   3
   8   1  -1 3101.09 834.754   1
   8   1   0 8299.20 1209.41   1
   8   1   0 7791.39 1467.23   3
   8   1   1 7117.41 1004.63   1
   8   1   1 5584.25 1195.27   3
   8   1   2 6530.99 1235.99   3
   8   1   3 17814.2 1852.57   3
   8   1   4 15428.2 1666.28   3
   8   1   5-625.385 489.647   3
   8   1   5 934.644 786.093   7
   8   1   6 3543.85 872.158   6
   8   1   6 4444.99 1417.37   7
   8   1   7 1303.13 620.623   6
   8   1   7 2083.17 1138.46   7
   8   1   8 4574.34 1199.00   6
   8   1   9 4947.25 1340.25   6
   8   2  -5 2297.79 1040.37   1
   8   2  -4 7680.64 1683.16   3
   8   2  -4 6255.72 1379.96   1
   8   2  -3 2730.15 987.011   1
   8   2  -3 4601.45 1292.74   3
   8   2  -2 906.872 564.821   1
   8   2  -2 2075.31 969.482   3
   8   2  -1 538.091 569.935   1
   8   2  -1 191.325 512.630   3
   8   2   0 12436.0 1372.24   1
   8   2   0 12515.2 1719.38   3
   8   2   1 40036.1 2886.67   3
   8   2   2 14671.8 1660.60   3
   8   2   3 524.328 365.105   3
   8   2   4 1664.37 583.940   3
   8   2   5 5170.44 922.390   6
   8   2   6 18741.2 1831.82   6
   8   2   7 9091.61 1399.93   6
   8   2   8 4757.06 1209.08   6
   8   2   9 2795.25 998.013   6
   8   3  -5 2874.11 1107.00   1
   8   3  -4 8532.77 1777.44   3
   8   3  -4 4835.85 1223.06   1
   8   3  -3 15183.1 2187.22   3
   8   3  -3 12793.3 1780.67   1
   8   3  -2 1017.63 665.369   3
   8   3  -2 89.8581 444.469   1
   8   3  -1 3483.58 957.810   3
   8   3  -1 3087.86 777.202   1
   8   3   0 6863.29 1018.23   1
   8   3   0 7377.15 1319.08   3
   8   3   1 19604.6 1952.60   3
   8   3   2 3748.42 810.489   3
   8   3   3 2666.49 677.361   3
   8   3   5 33100.6 2243.09   6
   8   3   6 26939.8 2226.97   6
   8   3   7 6078.45 1235.65   6
   8   3   8-173.637 648.974   6
   8   3   9 619.978 754.561   6
   8   4  -5 2768.37 1120.86   1
   8   4  -4 11745.4 1893.68   1
   8   4  -3 19981.2 2229.58   1
   8   4  -2 1929.42 697.796   1
   8   4  -1 1593.70 740.302   3
   8   4  -1 53.9644 394.501   1
   8   4   0 1033.84 582.803   3
   8   4   0 1461.86 555.141   1
   8   4   1 18192.9 1814.13   3
   8   4   2 29463.0 2114.12   3
   8   4   4 1198.74 534.174   6
   8   4   5 15033.9 1559.23   6
   8   4   6 7378.86 1235.35   6
   8   4   7 2666.60 934.080   6
   8   4   8-84.7023 477.439   6
   8   4   9 2892.90 1069.35   6
   8   5  -5 4863.03 1410.39   1
   8   5  -4 2989.02 1018.67   1
   8   5  -3 3849.34 1065.79   1
   8   5  -2 6752.27 1270.83   1
   8   5  -1 10542.1 1443.25   1
   8   5   4 1149.64 561.013   6
   8   5   5 3957.10 915.402   6
   8   5   6 8936.72 1404.28   6
   8   5   7 6359.04 1295.18   6
   8   5   8 2092.04 912.103   6
   8   5   9 3341.40 1091.06   6
   8   6  -4 1652.19 835.289   1
   8   6  -3 190.385 643.252   1
   8   6   4 1376.31 651.571   6
   8   6   5 2241.57 799.713   6
   8   6   6 5378.98 1220.57   6
   8   6   7 7098.74 1412.42   6
   8   6   8 10900.7 1829.22   6
   8   6   9 2016.73 1011.44   6
   8   7   4 5548.93 1159.28   6
   8   7   5 8318.67 1454.33   6
   8   7   6 2690.64 982.754   6
   8   7   7 7009.59 1459.16   6
   8   7   8 8314.72 1653.68   6
   8   8   4 11986.0 1817.65   6
   8   8   5 7690.14 1544.43   6
   8   8   6-5.16734 686.913   6
   8   8   7 1123.55 825.060   6
   8   9   5 7197.33 1593.38   6
   8   9   6 2558.91 1204.49   6
   9  -2   1 1050.46 922.105   3
   9  -2   2 4581.16 1292.46   3
   9  -2   3 3085.24 1301.53   3
   9  -2   3 2883.71 1140.19   7
   9  -2   4-1602.84 902.586   3
   9  -2   5 3600.78 1255.44   3
   9  -1  -3 2216.86 966.980   1
   9  -1   0 9618.70 1915.55   3
   9  -1   1-673.898 815.309   3
   9  -1   2 3159.90 1219.39   3
   9  -1   3 5073.79 1402.01   3
   9  -1   4-404.578 678.631   3
   9  -1   4 567.259 643.147   7
   9   0  -3 2183.26 862.837   1
   9   0  -1 1878.98 1082.84   3
   9   0   0 10128.3 1814.76   3
   9   0   1 3400.07 1140.82   3
   9   0   2 4537.09 1195.62   3
   9   0   3 5896.56 1292.47   3
   9   0   4-209.793 637.127   3
   9   0   5 3595.96 1325.35   7
   9   1  -4 5020.22 1467.55   1
   9   1  -2 245.394 720.828   3
   9   1  -1-87.3157 801.288   3
   9   1   0 14983.2 2126.80   3
   9   1   1 6630.02 1435.99   3
   9   1   2 299.273 631.951   3
   9   1   3 3428.19 1007.41   3
   9   2  -2 346.392 733.102   3
   9   2  -1-1613.71 916.866   3
   9   2   0 2390.54 959.294   3
   9   2   1 8156.30 1458.63   3
   9   2   2 4445.18 1117.00   3
   9   2   3 3866.93 924.188   3
   9   3  -3 882.739 819.963   3
   9   3  -2 4050.90 1282.01   3
   9   3  -1 250.221 629.938   3
   9   3   0 7881.90 1490.46   3
   9   3   1 18834.3 2103.87   3
   9   3   2 2158.30 797.885   3
   9   4  -1 9201.04 1617.22   3
   9   4   0-311.750 539.696   3
   9   4   1 7427.80 1262.96   3
  10   0   1 3274.97 1139.66   3
  10   0   2 1764.43 1051.86   3
  10   1   0 2986.06 1132.03   3
  10   1   1 1292.26 891.631   3
  10   2  -1-779.757 840.332   3
  10   2   0 915.265 897.443   3
  10   3  -1 5242.25 1366.68   3
   0   0   0    0.00    0.00   0

TITL Co(1-MI)N3 in P1
REM P1 (#1 in standard setting)
CELL 0.71073   7.908770   8.997875   9.172213  83.3817  77.0314  73.0008
ZERR    2.00   0.000686   0.000755   0.000794   0.0071   0.0074   0.0075
LATT -1
SFAC C H N Co
UNIT 16.00 24.00 14.00 2.00
TREF
HKLF 4
END
;
_shelx_hkl_checksum              10805
_shelx_fab_file
;
   10    3    4     -0.39      0.00
   10    3    3     -0.21      0.00
   10    2    5      0.00      0.00
   10    2    4     -0.08      0.00
   10    2    3      0.10      0.00
   10    2    2      0.14      0.00
   10    1    5     -0.09      0.00
   10    1    4      0.01      0.00
   10    1    3      0.24      0.00
   10    1    2      0.04      0.00
   10    1    1     -0.38      0.00
   10    0    3      0.13      0.00
   10    0    2     -0.09      0.00
   10    0    1     -0.28      0.00
   -9   -7    1      0.02      0.00
    9    6    5     -0.53      0.00
    9    6    4     -0.22      0.00
    9    6    3     -0.20      0.00
    9    6    2     -0.77      0.00
    9    6    1      0.02      0.00
   -9   -6    1     -0.10      0.00
    9    5    6      0.09      0.00
    9    5    5     -0.55      0.00
    9    5    4      0.09      0.00
    9    5    3      0.17      0.00
    9    5    2     -0.83      0.00
    9    5    1      0.07      0.00
    9    5    0      0.29      0.00
    9    4    6      0.25      0.00
    9    4    5     -0.45      0.00
    9    4    4      0.31      0.00
    9    4    3      0.52      0.00
    9    4    2     -0.61      0.00
    9    4    1      0.34      0.00
    9    4    0      0.72      0.00
    9    3    6      0.36      0.00
    9    3    5     -0.26      0.00
    9    3    4      0.25      0.00
    9    3    3      0.49      0.00
    9    3    2     -0.43      0.00
    9    3    1      0.59      0.00
    9    3    0      1.07      0.00
    9    2    6      0.35      0.00
    9    2    5     -0.03      0.00
    9    2    4      0.06      0.00
    9    2    3      0.11      0.00
    9    2    2     -0.49      0.00
    9    2    1      0.56      0.00
    9    1    5      0.16      0.00
    9    1    4      0.01      0.00
    9    1    3     -0.22      0.00
    9    1    2     -0.59      0.00
    9    1    1      0.36      0.00
    9    0    5      0.24      0.00
    9    0    4      0.20      0.00
    9    0    3     -0.19      0.00
    9    0    2     -0.45      0.00
    9    0    1      0.25      0.00
    9   -1    3      0.08      0.00
    9   -1    2     -0.14      0.00
    9   -1    1      0.29      0.00
    8    9    3      0.17      0.00
    8    9    2      0.36      0.00
    8    9    1      0.20      0.00
    8    8    5      0.41      0.00
    8    8    4      0.42      0.00
    8    8    3      0.44      0.00
    8    8    2      0.62      0.00
    8    8    1      0.24      0.00
    8    8    0      0.14      0.00
   -8   -8    1      0.17      0.00
   -8   -8    2     -0.15      0.00
   -8   -8    3      0.23      0.00
    8    7    5      0.57      0.00
    8    7    4      0.62      0.00
    8    7    3      0.67      0.00
    8    7    2      1.06      0.00
    8    7    1      0.32      0.00
    8    7    0      0.01      0.00
   -8   -7    1      0.22      0.00
   -8   -7    2     -0.04      0.00
   -8   -7    3      0.33      0.00
    8    6    5      0.79      0.00
    8    6    4      0.72      0.00
    8    6    3      0.69      0.00
    8    6    2      1.54      0.00
    8    6    1      0.51      0.00
    8    6    0     -0.21      0.00
   -8   -6    1      0.16      0.00
   -8   -6    2      0.04      0.00
    8    5    5      0.97      0.00
    8    5    4      0.70      0.00
    8    5    3      0.45      0.00
    8    5    2      1.75      0.00
    8    5    1      0.67      0.00
    8    5    0     -0.44      0.00
   -8   -5    2      0.11      0.00
    8    4    6     -0.34      0.00
    8    4    5      0.99      0.00
    8    4    4      0.64      0.00
    8    4    3      0.13      0.00
    8    4    2      1.57      0.00
    8    4    1      0.57      0.00
    8    4    0     -0.74      0.00
   -8   -4    2      0.10      0.00
    8    3    6     -0.51      0.00
    8    3    5      0.77      0.00
    8    3    4      0.58      0.00
    8    3    3     -0.04      0.00
    8    3    2      1.22      0.00
    8    3    1      0.26      0.00
    8    2    5      0.35      0.00
    8    2    4      0.43      0.00
    8    2    3     -0.03      0.00
    8    2    2      1.02      0.00
    8    2    1      0.03      0.00
    8    1    5     -0.02      0.00
    8    1    4      0.21      0.00
    8    1    3      0.04      0.00
    8    1    2      1.02      0.00
    8    1    1      0.02      0.00
    8    0    5     -0.14      0.00
    8    0    4     -0.01      0.00
    8    0    3      0.05      0.00
    8    0    2      1.01      0.00
    8    0    1      0.07      0.00
    8   -1    5     -0.06      0.00
    8   -1    4     -0.16      0.00
    8   -1    3     -0.04      0.00
    8   -1    2      0.80      0.00
    8   -1    1     -0.03      0.00
    8   -2    2      0.50      0.00
    8   -2    1     -0.20      0.00
    7   11    1     -0.45      0.00
    7   10    3     -0.07      0.00
    7   10    2     -0.55      0.00
    7   10    1     -0.60      0.00
    7   10    0      0.22      0.00
   -7  -10    1      0.29      0.00
   -7  -10    2      0.12      0.00
    7    9    4     -0.57      0.00
    7    9    3     -0.28      0.00
    7    9    2     -0.79      0.00
    7    9    1     -0.75      0.00
    7    9    0     -0.05      0.00
   -7   -9    1     -0.01      0.00
   -7   -9    2      0.06      0.00
   -7   -9    3      0.23      0.00
    7    8    4     -0.60      0.00
    7    8    3     -0.52      0.00
    7    8    2     -1.16      0.00
    7    8    1     -0.96      0.00
    7    8    0     -0.34      0.00
   -7   -8    1     -0.47      0.00
   -7   -8    2     -0.21      0.00
   -7   -8    3     -0.04      0.00
   -7   -8    4     -0.35      0.00
    7    7    5     -0.49      0.00
    7    7    4     -0.71      0.00
    7    7    3     -0.73      0.00
    7    7    2     -1.71      0.00
    7    7    1     -1.29      0.00
    7    7    0     -0.38      0.00
   -7   -7    1     -0.63      0.00
   -7   -7    2     -0.41      0.00
   -7   -7    3     -0.24      0.00
   -7   -7    4     -0.32      0.00
    7    6    5     -0.69      0.00
    7    6    4     -0.84      0.00
    7    6    3     -0.76      0.00
    7    6    2     -2.26      0.00
    7    6    1     -1.68      0.00
    7    6    0     -0.13      0.00
   -7   -6    1     -0.38      0.00
   -7   -6    2     -0.36      0.00
   -7   -6    3     -0.22      0.00
   -7   -6    4     -0.10      0.00
    7    5    5     -0.91      0.00
    7    5    4     -0.95      0.00
    7    5    3     -0.56      0.00
    7    5    2     -2.52      0.00
    7    5    1     -1.96      0.00
    7    5    0      0.19      0.00
   -7   -5    2     -0.22      0.00
   -7   -5    3     -0.03      0.00
    7    4    5     -1.04      0.00
    7    4    4     -1.05      0.00
    7    4    3     -0.35      0.00
    7    4    2     -2.41      0.00
    7    4    1     -1.95      0.00
   -7   -4    2     -0.16      0.00
   -7   -4    3      0.23      0.00
    7    3    5     -0.96      0.00
    7    3    4     -1.09      0.00
    7    3    3     -0.25      0.00
    7    3    2     -2.07      0.00
    7    3    1     -1.65      0.00
    7    2    5     -0.61      0.00
    7    2    4     -0.92      0.00
    7    2    3     -0.17      0.00
    7    2    2     -1.70      0.00
    7    2    1     -1.23      0.00
    7    1    5     -0.18      0.00
    7    1    4     -0.56      0.00
    7    1    3      0.01      0.00
    7    1    2     -1.40      0.00
    7    0    5      0.05      0.00
    7    0    4     -0.24      0.00
    7    0    3      0.21      0.00
    7    0    2     -1.19      0.00
    7   -1    4     -0.09      0.00
    7   -1    3      0.28      0.00
    7   -1    2     -1.02      0.00
    7   -2    4     -0.03      0.00
    7   -2    3      0.23      0.00
    7   -2    2     -0.87      0.00
    7   -2    1     -0.06      0.00
    7   -3    2     -0.71      0.00
    7   -3    1      0.01      0.00
    6   10    4      0.17      0.00
    6   10    3     -0.40      0.00
    6   10    2      0.25      0.00
    6   10    1      0.91      0.00
    6   10    0     -0.07      0.00
   -6  -10    1     -0.24      0.00
    6    9    3     -0.10      0.00
    6    9    2      0.65      0.00
    6    9    1      1.24      0.00
    6    9    0      0.17      0.00
   -6   -9    1      0.00      0.00
   -6   -9    2      0.41      0.00
   -6   -9    3     -0.24      0.00
   -6   -9    4      0.05      0.00
    6    8    4      0.37      0.00
    6    8    3      0.13      0.00
    6    8    2      1.07      0.00
    6    8    1      1.52      0.00
    6    8    0      0.42      0.00
   -6   -8    1      0.34      0.00
   -6   -8    2      0.60      0.00
   -6   -8    3     -0.23      0.00
   -6   -8    4      0.05      0.00
    6    7    4      0.43      0.00
    6    7    3      0.19      0.00
    6    7    2      1.52      0.00
    6    7    1      1.91      0.00
    6    7    0      0.51      0.00
   -6   -7    1      0.48      0.00
   -6   -7    2      0.80      0.00
   -6   -7    3     -0.05      0.00
   -6   -7    4      0.01      0.00
    6    6    4      0.48      0.00
    6    6    3      0.00      0.00
    6    6    2      1.93      0.00
    6    6    1      2.44      0.00
    6    6    0      0.43      0.00
   -6   -6    1      0.28      0.00
   -6   -6    2      0.83      0.00
   -6   -6    3      0.11      0.00
   -6   -6    4     -0.11      0.00
   -6   -6    5      0.12      0.00
   -6   -6    6     -0.38      0.00
    6    5    5      0.21      0.00
    6    5    4      0.51      0.00
    6    5    3     -0.38      0.00
    6    5    2      2.13      0.00
    6    5    1      2.90      0.00
    6    5    0      0.20      0.00
   -6   -5    1     -0.14      0.00
   -6   -5    2      0.68      0.00
   -6   -5    3      0.11      0.00
   -6   -5    4     -0.29      0.00
    6    4    5      0.41      0.00
    6    4    4      0.58      0.00
    6    4    3     -0.72      0.00
    6    4    2      2.06      0.00
    6    4    1      3.04      0.00
    6    4    0     -0.17      0.00
   -6   -4    2      0.47      0.00
   -6   -4    3     -0.13      0.00
   -6   -4    4     -0.48      0.00
    6    3    5      0.54      0.00
    6    3    4      0.68      0.00
    6    3    3     -0.81      0.00
    6    3    2      1.86      0.00
    6    3    1      2.87      0.00
    6    3    0     -0.65      0.00
   -6   -3    1     -0.98      0.00
   -6   -3    3     -0.56      0.00
   -6   -3    4     -0.70      0.00
    6    2    5      0.52      0.00
    6    2    4      0.69      0.00
    6    2    3     -0.72      0.00
    6    2    2      1.68      0.00
    6    2    1      2.60      0.00
    6    2    0     -1.16      0.00
   -6   -2    1     -1.32      0.00
   -6   -2    3     -0.99      0.00
    6    1    5      0.41      0.00
    6    1    4      0.60      0.00
    6    1    3     -0.60      0.00
    6    1    2      1.55      0.00
    6    1    1      2.34      0.00
    6    1    0     -1.56      0.00
   -6   -1    1     -1.53      0.00
   -6   -1    3     -1.14      0.00
    6    0    4      0.53      0.00
    6    0    3     -0.51      0.00
    6    0    2      1.44      0.00
    6    0    1      2.02      0.00
    6   -1    4      0.52      0.00
    6   -1    3     -0.44      0.00
    6   -1    2      1.30      0.00
    6   -2    4      0.45      0.00
    6   -2    3     -0.38      0.00
    6   -2    2      1.14      0.00
    6   -3    3     -0.37      0.00
    6   -3    2      0.97      0.00
    6   -4    1      0.56      0.00
    5   10    5      0.20      0.00
    5   10    4      0.42      0.00
    5   10    3      1.00      0.00
    5   10    2      0.43      0.00
    5   10    1     -0.86      0.00
    5   10    0     -0.08      0.00
   -5  -10    1      0.24      0.00
   -5  -10    2     -0.76      0.00
    5    9    3      0.83      0.00
    5    9    2      0.10      0.00
    5    9    1     -1.36      0.00
    5    9    0     -0.40      0.00
   -5   -9    1      0.03      0.00
   -5   -9    2     -0.93      0.00
   -5   -9    3     -0.28      0.00
    5    8    3      0.60      0.00
    5    8    2     -0.29      0.00
    5    8    1     -1.78      0.00
    5    8    0     -0.64      0.00
   -5   -8    1     -0.17      0.00
   -5   -8    2     -1.01      0.00
   -5   -8    3     -0.11      0.00
   -5   -8    4      0.15      0.00
   -5   -8    5     -0.29      0.00
   -5   -8    6      0.10      0.00
    5    7    3      0.68      0.00
    5    7    2     -0.50      0.00
    5    7    1     -2.08      0.00
    5    7    0     -0.61      0.00
   -5   -7    1     -0.04      0.00
   -5   -7    2     -0.98      0.00
   -5   -7    3     -0.01      0.00
   -5   -7    4      0.40      0.00
   -5   -7    5     -0.18      0.00
   -5   -7    6      0.23      0.00
   -5   -7    7      0.51      0.00
    5    6    4      0.07      0.00
    5    6    3      1.25      0.00
    5    6    2     -0.42      0.00
    5    6    1     -2.36      0.00
    5    6    0     -0.31      0.00
   -5   -6    1      0.49      0.00
   -5   -6    2     -0.82      0.00
   -5   -6    3     -0.03      0.00
   -5   -6    4      0.59      0.00
   -5   -6    5      0.01      0.00
   -5   -6    6      0.42      0.00
   -5   -6    7      0.68      0.00
    5    5    4      0.33      0.00
    5    5    3      2.14      0.00
    5    5    2     -0.11      0.00
    5    5    1     -2.65      0.00
    5    5    0      0.13      0.00
   -5   -5    1      1.21      0.00
   -5   -5    2     -0.61      0.00
   -5   -5    3     -0.06      0.00
   -5   -5    4      0.68      0.00
    5    4    4      0.54      0.00
    5    4    3      2.94      0.00
    5    4    2      0.23      0.00
    5    4    1     -2.89      0.00
    5    4    0      0.64      0.00
   -5   -4    1      1.94      0.00
   -5   -4    2     -0.39      0.00
   -5   -4    3      0.05      0.00
   -5   -4    4      0.81      0.00
    5    3    4      0.55      0.00
    5    3    1     -3.05      0.00
    5    3    0      1.15      0.00
   -5   -3    1      2.61      0.00
   -5   -3    2     -0.17      0.00
   -5   -3    3      0.39      0.00
   -5   -3    4      1.12      0.00
    5    2    4      0.44      0.00
    5    2    3      3.28      0.00
    5    2    2      0.40      0.00
    5    2    1     -3.19      0.00
    5    2    0      1.52      0.00
   -5   -2    2     -0.03      0.00
   -5   -2    3      0.78      0.00
   -5   -2    4      1.53      0.00
    5    1    4      0.28      0.00
    5    1    3      2.93      0.00
    5    1    2      0.17      0.00
    5    1    1     -3.36      0.00
    5    1    0      1.60      0.00
   -5   -1    1      3.40      0.00
   -5   -1    2     -0.10      0.00
   -5   -1    3      0.88      0.00
   -5   -1    4      1.68      0.00
    5    0    4     -0.02      0.00
    5    0    3      2.32      0.00
    5    0    2     -0.24      0.00
    5    0    1     -3.48      0.00
    5    0    0      1.47      0.00
   -5    0    1      3.25      0.00
   -5    0    3      0.60      0.00
    5   -1    4     -0.45      0.00
    5   -1    3      1.56      0.00
    5   -1    2     -0.68      0.00
    5   -1    1     -3.35      0.00
    5   -2    3      0.93      0.00
    5   -2    2     -0.95      0.00
    5   -3    3      0.61      0.00
    5   -3    2     -0.98      0.00
    5   -4    2     -0.89      0.00
    5   -4    1     -1.61      0.00
    4   11    5      0.23      0.00
    4   11    4     -0.17      0.00
    4   11    3     -0.63      0.00
    4   11    2     -0.31      0.00
    4   11    1      0.66      0.00
    4   10    8     -0.01      0.00
    4   10    7     -0.31      0.00
    4   10    6     -0.72      0.00
    4   10    5     -0.25      0.00
    4   10    4     -0.39      0.00
    4   10    3     -0.96      0.00
    4   10    2     -0.56      0.00
    4   10    1      0.96      0.00
    4   10    0      0.59      0.00
   -4  -10    1     -0.02      0.00
   -4  -10    2      1.03      0.00
   -4  -10    3      0.88      0.00
   -4  -10    4      0.17      0.00
    4    9    4     -0.56      0.00
    4    9    3     -1.15      0.00
    4    9    2     -0.75      0.00
    4    9    1      1.23      0.00
    4    9    0      0.72      0.00
   -4   -9    1     -0.08      0.00
   -4   -9    2      1.13      0.00
   -4   -9    3      0.88      0.00
   -4   -9    4      0.09      0.00
   -4   -9    5      0.25      0.00
    4    8    2     -0.91      0.00
    4    8    1      1.42      0.00
    4    8    0      0.68      0.00
   -4   -8    1     -0.26      0.00
   -4   -8    2      0.99      0.00
   -4   -8    3      0.64      0.00
   -4   -8    4     -0.20      0.00
   -4   -8    5      0.23      0.00
   -4   -8    6      0.03      0.00
    4    7    2     -1.21      0.00
    4    7    1      1.52      0.00
    4    7    0      0.40      0.00
   -4   -7    1     -0.80      0.00
   -4   -7    2      0.59      0.00
   -4   -7    3      0.25      0.00
   -4   -7    4     -0.67      0.00
   -4   -7    5      0.00      0.00
   -4   -7    6     -0.02      0.00
   -4   -7    7     -0.31      0.00
    4    6    3     -2.44      0.00
    4    6    2     -1.85      0.00
    4    6    1      1.56      0.00
    4    6    0     -0.13      0.00
   -4   -6    1     -1.86      0.00
   -4   -6    2     -0.06      0.00
   -4   -6    3     -0.20      0.00
   -4   -6    4     -1.22      0.00
   -4   -6    5     -0.41      0.00
   -4   -6    6     -0.30      0.00
   -4   -6    7     -0.59      0.00
   -4   -6    8      0.04      0.00
    4    5    3     -3.71      0.00
    4    5    2     -2.85      0.00
    4    5    1      1.59      0.00
    4    5    0     -0.85      0.00
   -4   -5    1     -3.31      0.00
   -4   -5    2     -0.76      0.00
   -4   -5    3     -0.61      0.00
   -4   -5    4     -1.64      0.00
    4    4    7     -1.03      0.00
    4    4    6     -2.30      0.00
    4    4    3     -5.04      0.00
    4    4    2     -3.88      0.00
    4    4    1      1.75      0.00
    4    4    0     -1.58      0.00
   -4   -4    1     -4.83      0.00
   -4   -4    2     -1.35      0.00
   -4   -4    3     -0.89      0.00
   -4   -4    4     -1.88      0.00
    4    3    8     -1.56      0.00
    4    3    7     -1.26      0.00
    4    3    6     -2.44      0.00
    4    3    5     -2.18      0.00
    4    3    1      2.16      0.00
    4    3    0     -2.09      0.00
   -4   -3    1     -6.08      0.00
   -4   -3    2     -1.75      0.00
   -4   -3    3     -1.08      0.00
   -4   -3    4     -2.10      0.00
    4    2    8     -1.62      0.00
    4    2    7     -1.39      0.00
    4    2    6     -2.34      0.00
    4    2    4     -1.50      0.00
    4    2    1      2.78      0.00
    4    2    0     -2.21      0.00
   -4   -2    1     -6.84      0.00
   -4   -2    3     -1.12      0.00
   -4   -2    4     -2.35      0.00
    4    1    4     -1.16      0.00
    4    1    3     -5.74      0.00
    4    1    2     -3.99      0.00
    4    1    1      3.42      0.00
    4    1    0     -1.91      0.00
   -4   -1    1     -6.94      0.00
   -4   -1    2     -1.72      0.00
   -4   -1    3     -0.85      0.00
    4    0    3     -4.82      0.00
    4    0    2     -3.02      0.00
    4    0    1      3.96      0.00
    4    0    0     -1.31      0.00
   -4    0    1     -6.37      0.00
   -4    0    2     -1.12      0.00
   -4    0    3     -0.21      0.00
   -4    0    4     -1.93      0.00
   -4    0    5     -0.35      0.00
   -4    0    6     -0.46      0.00
   -4    0    7     -0.85      0.00
    4   -1    3     -3.47      0.00
    4   -1    2     -1.75      0.00
    4   -1    1      4.30      0.00
   -4    1    0     -0.68      0.00
   -4    1    1     -5.32      0.00
   -4    1    3      0.44      0.00
   -4    1    4     -1.28      0.00
   -4    1    5     -0.06      0.00
   -4    1    6     -0.11      0.00
    4   -2    3     -2.07      0.00
    4   -2    2     -0.53      0.00
   -4    2    3      0.71      0.00
   -4    2    4     -0.84      0.00
   -4    2    5      0.08      0.00
   -4    2    6      0.15      0.00
    4   -3    2      0.27      0.00
   -4    3    2      0.19      0.00
   -4    3    3      0.58      0.00
   -4    3    4     -0.77      0.00
   -4    3    5      0.09      0.00
    4   -4    2      0.60      0.00
   -4    4    1     -2.39      0.00
   -4    4    4     -0.79      0.00
   -4    4    5      0.11      0.00
    4   -5    1      2.42      0.00
    3   11    6      0.31      0.00
    3   11    5      0.00      0.00
    3   11    4      0.17      0.00
    3   11    3      0.75      0.00
    3   11    2      0.60      0.00
    3   11    1     -0.37      0.00
    3   11    0     -0.49      0.00
   -3  -11    1     -0.07      0.00
   -3  -11    2     -0.60      0.00
   -3  -11    3     -0.55      0.00
    3   10    7      0.00      0.00
    3   10    6      0.65      0.00
    3   10    5      0.41      0.00
    3   10    4      0.18      0.00
    3   10    3      0.83      0.00
    3   10    2      0.77      0.00
    3   10    1     -0.72      0.00
    3   10    0     -0.90      0.00
   -3  -10    1     -0.07      0.00
   -3  -10    2     -0.87      0.00
   -3  -10    3     -0.93      0.00
   -3  -10    4     -0.17      0.00
    3    9    7      0.11      0.00
    3    9    6      1.00      0.00
    3    9    5      0.94      0.00
    3    9    4      0.27      0.00
    3    9    3      0.91      0.00
    3    9    2      1.03      0.00
    3    9    1     -0.97      0.00
    3    9    0     -1.09      0.00
   -3   -9    1      0.19      0.00
   -3   -9    2     -0.83      0.00
   -3   -9    3     -1.01      0.00
   -3   -9    4     -0.06      0.00
   -3   -9    5     -0.04      0.00
   -3   -9    6      0.21      0.00
    3    8    4      0.32      0.00
    3    8    3      1.18      0.00
    3    8    2      1.54      0.00
    3    8    1     -1.07      0.00
    3    8    0     -0.96      0.00
   -3   -8    1      0.75      0.00
   -3   -8    2     -0.44      0.00
   -3   -8    3     -0.74      0.00
   -3   -8    4      0.27      0.00
   -3   -8    5      0.14      0.00
   -3   -8    6      0.19      0.00
    3    7    4      0.18      0.00
    3    7    3      1.66      0.00
    3    7    2      2.28      0.00
    3    7    1     -1.16      0.00
    3    7    0     -0.69      0.00
   -3   -7    1      1.60      0.00
   -3   -7    2      0.25      0.00
   -3   -7    3     -0.24      0.00
   -3   -7    4      0.81      0.00
   -3   -7    5      0.50      0.00
   -3   -7    6      0.23      0.00
   -3   -7    7      0.29      0.00
    3    6    5      1.41      0.00
    3    6    4     -0.08      0.00
    3    6    2      3.23      0.00
    3    6    1     -1.38      0.00
    3    6    0     -0.51      0.00
   -3   -6    1      2.78      0.00
   -3   -6    2      1.16      0.00
   -3   -6    3      0.42      0.00
   -3   -6    4      1.57      0.00
   -3   -6    5      1.02      0.00
   -3   -6    6      0.51      0.00
   -3   -6    7      0.56      0.00
   -3   -6    8      0.17      0.00
    3    5    9     -0.16      0.00
    3    5    4     -0.24      0.00
    3    5    2      4.45      0.00
    3    5    1     -1.67      0.00
    3    5    0     -0.37      0.00
   -3   -5    1      4.39      0.00
   -3   -5    2      2.20      0.00
   -3   -5    3      1.11      0.00
   -3   -5    4      2.36      0.00
   -3   -5    5      1.49      0.00
    3    4    9     -0.09      0.00
    3    4    8      1.08      0.00
    3    4    3      4.34      0.00
    3    4    2      5.78      0.00
    3    4    1     -2.11      0.00
    3    4    0     -0.26      0.00
   -3   -4    1      6.34      0.00
   -3   -4    2      3.20      0.00
   -3   -4    3      1.61      0.00
    3    3    9      0.02      0.00
    3    3    8      1.19      0.00
    3    3    7      0.31      0.00
    3    3    6      1.28      0.00
    3    3    4     -0.18      0.00
    3    3    3      5.10      0.00
    3    3    2      6.76      0.00
    3    3    1     -2.96      0.00
    3    3    0     -0.37      0.00
   -3   -3    1      8.14      0.00
   -3   -3    2      3.96      0.00
   -3   -3    3      1.76      0.00
    3    2   10     -0.55      0.00
    3    2    9      0.10      0.00
    3    2    8      1.11      0.00
    3    2    7      0.36      0.00
    3    2    6      1.18      0.00
    3    2    5      1.35      0.00
    3    2    4     -0.28      0.00
    3    2    1     -4.21      0.00
    3    2    0     -0.85      0.00
   -3   -2    1      9.23      0.00
   -3   -2    2      4.33      0.00
   -3   -2    3      1.55      0.00
    3    1   10     -0.29      0.00
    3    1    9      0.18      0.00
    3    1    8      0.94      0.00
    3    1    7      0.39      0.00
    3    1    6      0.99      0.00
    3    1    5      0.95      0.00
    3    1    1     -5.42      0.00
    3    1    0     -1.53      0.00
   -3   -1    1      9.39      0.00
   -3   -1    3      0.99      0.00
    3    0   10     -0.08      0.00
    3    0    9      0.25      0.00
    3    0    8      0.84      0.00
    3    0    7      0.35      0.00
    3    0    3      4.16      0.00
    3    0    2      5.20      0.00
    3    0    1     -6.15      0.00
    3    0    0     -2.06      0.00
   -3    0    1      8.75      0.00
   -3    0    2      3.67      0.00
   -3    0    3      0.18      0.00
   -3    0    9     -0.68      0.00
    3   -1    3      2.94      0.00
    3   -1    2      3.53      0.00
    3   -1    1     -6.33      0.00
   -3    1    0     -2.30      0.00
   -3    1    1      7.59      0.00
   -3    1    2      2.83      0.00
   -3    1    3     -0.58      0.00
   -3    1    4      1.90      0.00
   -3    1    5      0.62      0.00
   -3    1    6     -0.05      0.00
   -3    1    7      0.54      0.00
   -3    1    8     -0.35      0.00
   -3    1    9     -0.57      0.00
    3   -2    3      1.72      0.00
    3   -2    2      1.87      0.00
    3   -2    1     -6.09      0.00
   -3    2    0     -2.28      0.00
   -3    2    1      6.18      0.00
   -3    2    2      1.94      0.00
   -3    2    3     -1.02      0.00
   -3    2    4      1.28      0.00
   -3    2    5      0.41      0.00
   -3    2    6     -0.29      0.00
   -3    2    7      0.33      0.00
   -3    2    8     -0.28      0.00
    3   -3    2      0.69      0.00
   -3    3    2      1.26      0.00
   -3    3    3     -1.06      0.00
   -3    3    4      0.92      0.00
   -3    3    5      0.39      0.00
   -3    3    6     -0.40      0.00
   -3    3    7      0.16      0.00
   -3    3    8     -0.20      0.00
    3   -4    1     -4.51      0.00
   -3    4    0     -1.48      0.00
   -3    4    1      3.61      0.00
   -3    4    2      0.87      0.00
   -3    4    3     -0.86      0.00
   -3    4    4      0.74      0.00
   -3    4    5      0.37      0.00
   -3    4    6     -0.54      0.00
   -3    4    7     -0.16      0.00
   -3    5    1      2.65      0.00
   -3    5    4      0.62      0.00
   -3    5    5      0.27      0.00
   -3    5    6     -0.66      0.00
   -3    5    7     -0.56      0.00
   -3    6    5      0.15      0.00
   -3    6    6     -0.55      0.00
   -3    7    6     -0.26      0.00
    2   11    5     -0.16      0.00
    2   11    4     -0.05      0.00
    2   11    3     -0.70      0.00
    2   11    2     -0.93      0.00
    2   11    1     -0.02      0.00
    2   11    0      0.50      0.00
   -2  -11    1      0.04      0.00
   -2  -11    2      0.27      0.00
    2   10    6     -0.39      0.00
    2   10    5     -0.55      0.00
    2   10    4      0.01      0.00
    2   10    3     -0.65      0.00
    2   10    2     -1.20      0.00
    2   10    1      0.11      0.00
    2   10    0      0.95      0.00
   -2  -10    1      0.06      0.00
   -2  -10    2      0.39      0.00
   -2  -10    3      0.56      0.00
   -2  -10    4      0.03      0.00
    2    9    7      0.11      0.00
    2    9    6     -0.53      0.00
    2    9    5     -0.93      0.00
    2    9    4      0.09      0.00
    2    9    3     -0.44      0.00
    2    9    2     -1.32      0.00
    2    9    1      0.40      0.00
    2    9    0      1.42      0.00
   -2   -9    1     -0.10      0.00
   -2   -9    2      0.32      0.00
   -2   -9    3      0.72      0.00
   -2   -9    4     -0.05      0.00
   -2   -9    5      0.02      0.00
    2    8    7     -0.08      0.00
    2    8    6     -0.63      0.00
    2    8    5     -1.17      0.00
    2    8    4      0.20      0.00
    2    8    3     -0.41      0.00
    2    8    2     -1.66      0.00
    2    8    1      0.76      0.00
    2    8    0      1.78      0.00
   -2   -8    1     -0.60      0.00
   -2   -8    2     -0.08      0.00
   -2   -8    3      0.59      0.00
   -2   -8    4     -0.32      0.00
   -2   -8    5     -0.34      0.00
   -2   -8    6     -0.25      0.00
    2    7    5     -1.23      0.00
    2    7    4      0.40      0.00
    2    7    3     -0.68      0.00
    2    7    2     -2.37      0.00
    2    7    1      1.22      0.00
    2    7    0      2.21      0.00
   -2   -7    1     -1.26      0.00
   -2   -7    2     -0.72      0.00
   -2   -7    3      0.26      0.00
   -2   -7    4     -0.73      0.00
   -2   -7    5     -0.81      0.00
   -2   -7    6     -0.53      0.00
   -2   -7    7     -0.42      0.00
    2    6    6     -0.66      0.00
    2    6    5     -1.22      0.00
    2    6    4      0.75      0.00
    2    6    3     -1.10      0.00
    2    6    2     -3.33      0.00
    2    6    1      1.91      0.00
    2    6    0      3.03      0.00
   -2   -6    1     -1.87      0.00
   -2   -6    2     -1.40      0.00
   -2   -6    3     -0.10      0.00
   -2   -6    4     -1.27      0.00
   -2   -6    5     -1.27      0.00
   -2   -6    6     -0.79      0.00
   -2   -6    7     -0.66      0.00
   -2   -6    8     -0.49      0.00
    2    5   10      0.55      0.00
    2    5    7     -0.22      0.00
    2    5    6     -0.57      0.00
    2    5    5     -1.13      0.00
    2    5    4      1.30      0.00
    2    5    2     -4.33      0.00
    2    5    1      2.91      0.00
    2    5    0      4.37      0.00
   -2   -5    1     -2.56      0.00
   -2   -5    2     -2.10      0.00
   -2   -5    3     -0.38      0.00
   -2   -5    4     -1.86      0.00
   -2   -5    5     -1.57      0.00
   -2   -5    6     -1.05      0.00
   -2   -5    7     -0.99      0.00
   -2   -5    8     -0.57      0.00
   -2   -5    9      0.12      0.00
    2    4   10      0.60      0.00
    2    4    9      0.54      0.00
    2    4    6     -0.33      0.00
    2    4    5     -0.84      0.00
    2    4    4      2.12      0.00
    2    4    3     -1.39      0.00
    2    4    2     -5.09      0.00
    2    4    1      4.37      0.00
    2    4    0      6.17      0.00
   -2   -4    1     -3.59      0.00
   -2   -4    2     -2.88      0.00
   -2   -4    3     -0.48      0.00
    2    3   11      0.31      0.00
    2    3   10      0.60      0.00
    2    3    9      0.39      0.00
    2    3    8     -0.98      0.00
    2    3    7      0.00      0.00
    2    3    4      3.17      0.00
    2    3    3     -0.84      0.00
    2    3    2     -5.32      0.00
    2    3    1      6.51      0.00
    2    3    0      8.43      0.00
   -2   -3    1     -4.82      0.00
   -2   -3    2     -3.69      0.00
   -2   -3    3     -0.35      0.00
    2    2   11      0.22      0.00
    2    2   10      0.57      0.00
    2    2    9      0.31      0.00
    2    2    8     -0.93      0.00
    2    2    7      0.16      0.00
    2    2    6      0.47      0.00
    2    2    5      0.43      0.00
    2    2    3      0.04      0.00
    2    2    2     -4.94      0.00
    2    2    1      9.13      0.00
    2    2    0     10.86      0.00
   -2   -2    1     -5.70      0.00
   -2   -2    2     -4.29      0.00
    2    1   11     -0.02      0.00
    2    1   10      0.41      0.00
    2    1    9      0.26      0.00
    2    1    8     -0.66      0.00
    2    1    7      0.31      0.00
    2    1    6      0.82      0.00
    2    1    5      1.04      0.00
    2    1    4      4.82      0.00
    2    1    3      0.86      0.00
    2    1    0     12.61      0.00
   -2   -1    2     -4.51      0.00
    2    0   11     -0.40      0.00
    2    0   10      0.11      0.00
    2    0    9      0.05      0.00
    2    0    8     -0.55      0.00
    2    0    7      0.29      0.00
    2    0    6      0.97      0.00
    2    0    5      1.39      0.00
    2    0    4      4.91      0.00
    2    0    1     12.01      0.00
    2    0    0     12.80      0.00
   -2    0    1     -5.77      0.00
   -2    0    2     -4.41      0.00
   -2    0   11     -0.55      0.00
    2   -1   12     -0.48      0.00
    2   -1   11     -0.66      0.00
    2   -1   10     -0.09      0.00
    2   -1    9     -0.24      0.00
    2   -1    8     -0.76      0.00
    2   -1    7      0.10      0.00
    2   -1    6      0.88      0.00
    2   -1    2     -2.05      0.00
    2   -1    1     11.31      0.00
   -2    1    0     11.41      0.00
   -2    1    1     -5.40      0.00
   -2    1    2     -4.11      0.00
   -2    1    3      1.60      0.00
   -2    1    4     -1.83      0.00
   -2    1    5     -1.60      0.00
   -2    1    6     -0.44      0.00
   -2    1    7     -0.90      0.00
   -2    1    8      0.13      0.00
   -2    1    9      0.83      0.00
   -2    1   10     -0.42      0.00
   -2    1   11     -0.35      0.00
    2   -2    3      1.74      0.00
    2   -2    2     -0.95      0.00
   -2    2    1     -4.94      0.00
   -2    2    2     -3.66      0.00
   -2    2    3      1.59      0.00
   -2    2    4     -1.52      0.00
   -2    2    5     -1.43      0.00
   -2    2    6     -0.17      0.00
   -2    2    7     -0.55      0.00
   -2    2    8      0.14      0.00
   -2    2    9      0.68      0.00
   -2    2   10     -0.09      0.00
   -2    2   11     -0.03      0.00
    2   -3    1      7.82      0.00
   -2    3    1     -4.39      0.00
   -2    3    2     -3.07      0.00
   -2    3    3      1.33      0.00
   -2    3    4     -1.22      0.00
   -2    3    5     -1.27      0.00
   -2    3    6     -0.06      0.00
   -2    3    7     -0.32      0.00
   -2    3    8      0.08      0.00
   -2    3    9      0.49      0.00
   -2    3   10      0.05      0.00
    2   -4    1      5.84      0.00
   -2    4    0      4.78      0.00
   -2    4    1     -3.75      0.00
   -2    4    2     -2.41      0.00
   -2    4    3      1.09      0.00
   -2    4    4     -0.87      0.00
   -2    4    5     -1.07      0.00
   -2    4    6      0.03      0.00
   -2    4    7     -0.12      0.00
   -2    4    8      0.09      0.00
   -2    4    9      0.28      0.00
   -2    4   10     -0.09      0.00
   -2    5    1     -3.00      0.00
   -2    5    3      0.91      0.00
   -2    5    4     -0.56      0.00
   -2    5    5     -0.83      0.00
   -2    5    6      0.15      0.00
   -2    5    7      0.17      0.00
   -2    5    8      0.33      0.00
   -2    5    9      0.23      0.00
   -2    6    0      2.05      0.00
   -2    6    4     -0.47      0.00
   -2    6    5     -0.68      0.00
   -2    6    6      0.15      0.00
   -2    6    7      0.36      0.00
   -2    6    8      0.57      0.00
   -2    6    9      0.31      0.00
   -2    7    5     -0.61      0.00
   -2    7    6     -0.04      0.00
   -2    7    7      0.27      0.00
   -2    7    8      0.49      0.00
   -2    8    6     -0.17      0.00
   -2    8    7      0.04      0.00
    1   11    3      0.47      0.00
    1   11    2      1.00      0.00
    1   11    1      0.29      0.00
    1   11    0     -0.49      0.00
   -1  -11    1      0.02      0.00
    1   10    5      0.63      0.00
    1   10    4      0.01      0.00
    1   10    3      0.33      0.00
    1   10    2      1.38      0.00
    1   10    1      0.44      0.00
    1   10    0     -0.90      0.00
   -1  -10    1     -0.12      0.00
   -1  -10    2      0.08      0.00
   -1  -10    3     -0.20      0.00
   -1  -10    4      0.20      0.00
    1    9    5      0.98      0.00
    1    9    4     -0.06      0.00
    1    9    3      0.01      0.00
    1    9    2      1.51      0.00
    1    9    1      0.31      0.00
    1    9    0     -1.56      0.00
   -1   -9    1     -0.27      0.00
   -1   -9    2      0.04      0.00
   -1   -9    3     -0.48      0.00
   -1   -9    4      0.20      0.00
   -1   -9    5      0.10      0.00
    1    8    6      0.45      0.00
    1    8    5      1.20      0.00
    1    8    4     -0.21      0.00
    1    8    3     -0.23      0.00
    1    8    2      1.72      0.00
    1    8    1     -0.05      0.00
    1    8    0     -2.46      0.00
   -1   -8    1     -0.25      0.00
   -1   -8    2      0.19      0.00
   -1   -8    3     -0.68      0.00
   -1   -8    4      0.23      0.00
   -1   -8    5      0.33      0.00
   -1   -8    6      0.09      0.00
    1    7    7      0.53      0.00
    1    7    6      0.51      0.00
    1    7    5      1.27      0.00
    1    7    4     -0.45      0.00
    1    7    3     -0.27      0.00
    1    7    2      2.26      0.00
    1    7    1     -0.64      0.00
    1    7    0     -3.69      0.00
   -1   -7    1     -0.20      0.00
   -1   -7    2      0.50      0.00
   -1   -7    3     -0.79      0.00
   -1   -7    4      0.26      0.00
   -1   -7    5      0.64      0.00
   -1   -7    6      0.45      0.00
   -1   -7    7      0.46      0.00
    1    6    7      0.56      0.00
    1    6    6      0.46      0.00
    1    6    5      1.25      0.00
    1    6    4     -0.81      0.00
    1    6    3     -0.23      0.00
    1    6    2      3.06      0.00
    1    6    1     -1.52      0.00
    1    6    0     -5.51      0.00
   -1   -6    1     -0.46      0.00
   -1   -6    2      0.73      0.00
   -1   -6    3     -0.93      0.00
   -1   -6    4      0.31      0.00
   -1   -6    5      0.88      0.00
   -1   -6    6      0.66      0.00
   -1   -6    7      0.66      0.00
   -1   -6    8      0.60      0.00
    1    5   11     -0.27      0.00
    1    5   10     -0.58      0.00
    1    5    8      0.20      0.00
    1    5    7      0.44      0.00
    1    5    6      0.24      0.00
    1    5    5      1.16      0.00
    1    5    4     -1.41      0.00
    1    5    2      3.81      0.00
    1    5    1     -2.87      0.00
    1    5    0     -8.17      0.00
   -1   -5    1     -1.13      0.00
   -1   -5    2      0.75      0.00
   -1   -5    3     -1.31      0.00
   -1   -5    4      0.35      0.00
   -1   -5    5      0.94      0.00
   -1   -5    6      0.67      0.00
   -1   -5    7      0.85      0.00
   -1   -5    8      0.67      0.00
   -1   -5    9      0.01      0.00
    1    4   11     -0.35      0.00
    1    4   10     -0.68      0.00
    1    4    9     -0.78      0.00
    1    4    7      0.33      0.00
    1    4    6     -0.11      0.00
    1    4    5      0.83      0.00
    1    4    4     -2.48      0.00
    1    4    3     -1.19      0.00
    1    4    2      4.00      0.00
    1    4    1     -5.11      0.00
    1    4    0    -12.05      0.00
   -1   -4    1     -2.01      0.00
   -1   -4    2      0.70      0.00
   -1   -4    3     -2.03      0.00
   -1   -4    4      0.27      0.00
   -1   -4    5      0.75      0.00
   -1   -4    6      0.56      0.00
    1    3   11     -0.19      0.00
    1    3   10     -0.57      0.00
    1    3    9     -0.66      0.00
    1    3    8      0.62      0.00
    1    3    6     -0.51      0.00
    1    3    5      0.14      0.00
    1    3    4     -4.11      0.00
    1    3    3     -2.91      0.00
    1    3    2      3.11      0.00
    1    3    1     -8.77      0.00
    1    3    0    -17.43      0.00
   -1   -3    1     -3.08      0.00
   -1   -3    2      0.68      0.00
    1    2   12      0.26      0.00
    1    2   11      0.07      0.00
    1    2   10     -0.40      0.00
    1    2    9     -0.49      0.00
    1    2    8      0.91      0.00
    1    2    7      0.36      0.00
    1    2    6     -0.89      0.00
    1    2    4     -5.96      0.00
    1    2    3     -5.29      0.00
    1    2    2      1.22      0.00
    1    2    1    -13.48      0.00
    1    2    0    -23.60      0.00
   -1   -2    1     -4.33      0.00
    1    1   12      0.22      0.00
    1    1   11      0.28      0.00
    1    1   10     -0.34      0.00
    1    1    9     -0.44      0.00
    1    1    8      0.86      0.00
    1    1    7      0.26      0.00
    1    1    6     -1.28      0.00
    1    1    5     -1.77      0.00
    1    1    4     -7.30      0.00
    1    1    1    -17.46      0.00
    1    1    0    -28.29      0.00
    1    0   11      0.41      0.00
    1    0   10     -0.34      0.00
    1    0    9     -0.41      0.00
    1    0    8      0.66      0.00
    1    0    7      0.10      0.00
    1    0    6     -1.58      0.00
    1    0    5     -2.35      0.00
    1    0    4     -7.59      0.00
    1    0    3     -8.23      0.00
    1    0    2     -1.84      0.00
    1   -1   11      0.42      0.00
    1   -1   10     -0.38      0.00
    1   -1    9     -0.26      0.00
    1   -1    8      0.63      0.00
    1   -1    7      0.07      0.00
    1   -1    6     -1.63      0.00
    1   -1    5     -2.40      0.00
    1   -1    4     -6.84      0.00
    1   -1    3     -7.79      0.00
   -1    1    1     -3.55      0.00
   -1    1    2      2.27      0.00
   -1    1    3     -4.70      0.00
   -1    1    8      0.46      0.00
   -1    1   10      0.15      0.00
   -1    1   11      0.55      0.00
    1   -2   11      0.23      0.00
    1   -2   10     -0.53      0.00
    1   -2    9     -0.15      0.00
    1   -2    8      0.75      0.00
    1   -2    7      0.15      0.00
    1   -2    6     -1.38      0.00
    1   -2    5     -1.96      0.00
   -1    2    1     -1.57      0.00
   -1    2    2      3.03      0.00
   -1    2    3     -3.74      0.00
   -1    2    4     -0.34      0.00
   -1    2    5      1.64      0.00
   -1    2    6      0.51      0.00
   -1    2    7      1.12      0.00
   -1    2    8      0.29      0.00
   -1    2    9     -0.69      0.00
   -1    2   10     -0.03      0.00
   -1    2   11      0.20      0.00
    1   -3    1    -10.40      0.00
   -1    3    0    -14.35      0.00
   -1    3    1      0.09      0.00
   -1    3    2      3.34      0.00
   -1    3    3     -2.63      0.00
   -1    3    4      0.11      0.00
   -1    3    5      1.68      0.00
   -1    3    6      0.43      0.00
   -1    3    7      0.76      0.00
   -1    3    8      0.09      0.00
   -1    3    9     -0.62      0.00
   -1    3   10     -0.25      0.00
   -1    3   11     -0.17      0.00
    1   -4    1     -7.31      0.00
   -1    4    0     -9.81      0.00
   -1    4    1      1.17      0.00
   -1    4    2      3.19      0.00
   -1    4    3     -1.73      0.00
   -1    4    4      0.35      0.00
   -1    4    5      1.56      0.00
   -1    4    6      0.38      0.00
   -1    4    7      0.49      0.00
   -1    4    8     -0.04      0.00
   -1    4    9     -0.54      0.00
   -1    4   10     -0.18      0.00
   -1    5    0     -6.46      0.00
   -1    5    1      1.68      0.00
   -1    5    2      2.70      0.00
   -1    5    3     -1.20      0.00
   -1    5    4      0.31      0.00
   -1    5    5      1.29      0.00
   -1    5    6      0.26      0.00
   -1    5    7      0.26      0.00
   -1    5    8     -0.14      0.00
   -1    5    9     -0.47      0.00
   -1    5   10      0.08      0.00
   -1    6    1      1.61      0.00
   -1    6    3     -0.96      0.00
   -1    6    4      0.21      0.00
   -1    6    5      1.03      0.00
   -1    6    6      0.15      0.00
   -1    6    7      0.10      0.00
   -1    6    8     -0.22      0.00
   -1    6    9     -0.48      0.00
   -1    7    1      1.19      0.00
   -1    7    2      1.25      0.00
   -1    7    4      0.27      0.00
   -1    7    5      0.90      0.00
   -1    7    6      0.20      0.00
   -1    7    7      0.10      0.00
   -1    7    8     -0.16      0.00
   -1    7    9     -0.42      0.00
   -1    8    5      0.77      0.00
   -1    8    6      0.31      0.00
   -1    8    7      0.18      0.00
   -1    8    8      0.01      0.00
   -1    9    6      0.26      0.00
    0   10    4     -0.07      0.00
    0   10    3     -0.05      0.00
    0   10    2     -1.02      0.00
    0   10    1     -0.64      0.00
    0   10    0      0.83      0.00
    0  -10    1      0.28      0.00
    0  -10    2     -0.31      0.00
    0  -10    3      0.17      0.00
    0    9    5     -0.78      0.00
    0    9    4     -0.11      0.00
    0    9    3      0.31      0.00
    0    9    2     -1.12      0.00
    0    9    1     -0.64      0.00
    0    9    0      1.55      0.00
    0   -9    1      0.82      0.00
    0   -9    2     -0.08      0.00
    0   -9    3      0.56      0.00
    0   -9    4     -0.03      0.00
    0   -9    5     -0.35      0.00
    0    8    6     -0.33      0.00
    0    8    5     -1.03      0.00
    0    8    4     -0.06      0.00
    0    8    3      0.61      0.00
    0    8    2     -1.33      0.00
    0    8    1     -0.55      0.00
    0    8    0      2.54      0.00
    0   -8    1      1.26      0.00
    0   -8    2     -0.05      0.00
    0   -8    3      0.98      0.00
    0   -8    4      0.15      0.00
    0   -8    5     -0.38      0.00
    0   -8    6     -0.03      0.00
    0    7    7     -0.44      0.00
    0    7    6     -0.38      0.00
    0    7    5     -1.19      0.00
    0    7    4      0.08      0.00
    0    7    3      0.77      0.00
    0    7    2     -1.87      0.00
    0    7    1     -0.41      0.00
    0    7    0      3.90      0.00
    0   -7    1      1.68      0.00
    0   -7    2     -0.23      0.00
    0   -7    3      1.34      0.00
    0   -7    4      0.44      0.00
    0   -7    5     -0.34      0.00
    0   -7    6     -0.09      0.00
    0   -7    7     -0.36      0.00
    0    6    8     -0.24      0.00
    0    6    7     -0.56      0.00
    0    6    6     -0.45      0.00
    0    6    5     -1.33      0.00
    0    6    4      0.26      0.00
    0    6    3      0.94      0.00
    0    6    2     -2.59      0.00
    0    6    1      0.02      0.00
    0    6    0      5.96      0.00
    0   -6    1      2.55      0.00
    0   -6    2     -0.20      0.00
    0   -6    3      1.80      0.00
    0   -6    4      0.84      0.00
    0   -6    5     -0.19      0.00
    0   -6    6     -0.04      0.00
    0   -6    7     -0.40      0.00
    0   -6    8     -0.59      0.00
    0    5    9      0.65      0.00
    0    5    8     -0.12      0.00
    0    5    7     -0.64      0.00
    0    5    6     -0.42      0.00
    0    5    5     -1.41      0.00
    0    5    4      0.60      0.00
    0    5    3      1.37      0.00
    0    5    2     -3.18      0.00
    0    5    1      1.01      0.00
    0    5    0      9.02      0.00
    0   -5    1      4.20      0.00
    0   -5    2      0.32      0.00
    0   -5    3      2.62      0.00
    0   -5    4      1.35      0.00
    0   -5    5      0.06      0.00
    0   -5    6      0.15      0.00
    0   -5    7     -0.36      0.00
    0   -5    8     -0.55      0.00
    0   -5    9      0.12      0.00
    0    4   11      0.34      0.00
    0    4   10      0.51      0.00
    0    4    8     -0.13      0.00
    0    4    7     -0.68      0.00
    0    4    6     -0.22      0.00
    0    4    5     -1.29      0.00
    0    4    4      1.29      0.00
    0    4    3      2.29      0.00
    0    4    2     -3.36      0.00
    0    4    1      2.81      0.00
    0    4    0     13.44      0.00
    0   -4    1      6.55      0.00
    0   -4    2      1.15      0.00
    0   -4    3      3.98      0.00
    0   -4    4      2.05      0.00
    0   -4    5      0.43      0.00
    0   -4    6      0.41      0.00
    0   -4    7     -0.45      0.00
    0   -4    8     -0.57      0.00
    0   -4    9      0.35      0.00
    0    3   11      0.15      0.00
    0    3   10      0.44      0.00
    0    3    9      0.66      0.00
    0    3    8     -0.35      0.00
    0    3    7     -0.80      0.00
    0    3    6      0.06      0.00
    0    3    5     -0.92      0.00
    0    3    4      2.47      0.00
    0    3    3      3.90      0.00
    0    3    2     -2.70      0.00
    0    3    1      5.87      0.00
    0    3    0     19.74      0.00
    0   -3    1      9.53      0.00
    0   -3    2      2.00      0.00
    0   -3    3      5.77      0.00
    0   -3    4      3.03      0.00
    0    2   11     -0.22      0.00
    0    2   10      0.23      0.00
    0    2    9      0.60      0.00
    0    2    8     -0.69      0.00
    0    2    7     -1.03      0.00
    0    2    6      0.23      0.00
    0    2    5     -0.33      0.00
    0    2    4      3.92      0.00
    0    2    3      6.12      0.00
    0    2    2     -0.93      0.00
    0    2    1     10.31      0.00
    0    2    0     27.71      0.00
    0   -2    1     13.12      0.00
    0   -2    2      2.82      0.00
    0    1   11     -0.49      0.00
    0    1   10      0.15      0.00
    0    1    9      0.64      0.00
    0    1    8     -0.90      0.00
    0    1    7     -1.20      0.00
    0    1    6      0.38      0.00
    0    1    5      0.38      0.00
    0    1    4      5.14      0.00
    0    1    3      8.30      0.00
    0    1    2      1.37      0.00
    0    1    1     14.87      0.00
    0    0   11     -0.55      0.00
    0    0   10      0.29      0.00
    0    0    9      0.74      0.00
    0    0    8     -0.88      0.00
    0    0    7     -1.16      0.00
    0    0    6      0.63      0.00
    0    0    5      1.07      0.00
    0    0    4      5.63      0.00
    0    0    3      9.48      0.00
    0    0    2      3.03      0.00
    0   -1   11     -0.46      0.00
    0   -1   10      0.52      0.00
    0   -1    9      0.70      0.00
    0   -1    8     -0.81      0.00
    0   -1    7     -1.00      0.00
    0   -1    6      0.87      0.00
    0   -1    5      1.47      0.00
    0   -1    4      5.22      0.00
    0   -1    3      9.17      0.00
    0   -1    2      3.39      0.00
    0   -2   11     -0.24      0.00
    0   -2   10      0.74      0.00
    0   -2    9      0.55      0.00
    0   -2    8     -0.78      0.00
    0   -2    7     -0.84      0.00
    0   -2    6      0.90      0.00
    0   -2    5      1.39      0.00
    0   -2    4      4.20      0.00
    0   -2    3      7.69      0.00
    0   -3   10      0.91      0.00
    0   -3    9      0.45      0.00
    0   -3    8     -0.70      0.00
    0   -3    7     -0.66      0.00
    0   -3    6      0.69      0.00
    0   -3    5      0.94      0.00
    0    4    9      0.70      0.00
    0    5   10      0.33      0.00
    0    6    9      0.58      0.00
    0    7    8     -0.38      0.00
    0    7    9      0.46      0.00
    0    8    7     -0.33      0.00
    0    8    8     -0.47      0.00
    0    9    6     -0.30      0.00
   -1   10    4      0.00      0.00
   -1   10    3      0.01      0.00
   -1   10    2      0.48      0.00
   -1   10    1      0.66      0.00
   -1   10    0     -0.53      0.00
    1  -10    1     -0.39      0.00
   -1    9    5      0.49      0.00
   -1    9    4      0.28      0.00
   -1    9    3     -0.15      0.00
   -1    9    2      0.64      0.00
   -1    9    1      0.81      0.00
   -1    9    0     -1.07      0.00
    1   -9    1     -1.02      0.00
    1   -9    2     -0.04      0.00
    1   -9    3     -0.79      0.00
    1   -9    4     -0.57      0.00
   -1    8    4      0.37      0.00
   -1    8    3     -0.46      0.00
   -1    8    2      0.81      0.00
   -1    8    1      0.88      0.00
   -1    8    0     -1.88      0.00
    1   -8    1     -1.73      0.00
    1   -8    2     -0.19      0.00
    1   -8    3     -1.25      0.00
    1   -8    4     -0.84      0.00
    1   -8    5      0.30      0.00
    1   -8    6      0.12      0.00
   -1    7    3     -0.76      0.00
   -1    7    0     -2.86      0.00
    1   -7    1     -2.34      0.00
    1   -7    2      0.09      0.00
    1   -7    3     -1.43      0.00
    1   -7    4     -1.08      0.00
    1   -7    5      0.30      0.00
    1   -7    6      0.00      0.00
    1   -7    7      0.21      0.00
   -1    6    2      1.97      0.00
   -1    6    0     -4.23      0.00
    1   -6    1     -3.18      0.00
    1   -6    2      0.41      0.00
    1   -6    3     -1.47      0.00
    1   -6    4     -1.32      0.00
    1   -6    5      0.13      0.00
    1   -6    6     -0.23      0.00
    1   -6    7      0.06      0.00
    1   -6    8      0.44      0.00
    1   -5    1     -4.81      0.00
    1   -5    2      0.14      0.00
    1   -5    3     -1.92      0.00
    1   -5    4     -1.76      0.00
    1   -5    5     -0.19      0.00
    1   -5    6     -0.49      0.00
    1   -5    7     -0.08      0.00
    1   -5    8      0.46      0.00
    1   -5    9     -0.23      0.00
    1   -4    2     -0.71      0.00
    1   -4    3     -3.10      0.00
    1   -4    4     -2.62      0.00
    1   -4    5     -0.66      0.00
    1   -4    6     -0.74      0.00
    1   -4    7     -0.03      0.00
    1   -4    8      0.58      0.00
    1   -4    9     -0.30      0.00
    1   -3    2     -1.51      0.00
    1   -3    3     -4.78      0.00
    1   -3    4     -3.93      0.00
    1   -3    5     -1.29      0.00
    1   -3    6     -1.03      0.00
    1   -3    7      0.12      0.00
    1   -3    8      0.74      0.00
    1   -3    9     -0.21      0.00
    1   -3   10     -0.75      0.00
   -1    2    0    -19.98      0.00
    1   -2    1    -13.82      0.00
    1   -2    2     -1.93      0.00
    1   -2    3     -6.49      0.00
    1   -2    4     -5.46      0.00
   -1    1    9     -0.87      0.00
   -1    1    7      1.48      0.00
   -1    1    6      0.61      0.00
   -1    1    5      1.42      0.00
   -1    1    4     -0.75      0.00
   -1    1    0    -25.65      0.00
    1   -1    1    -17.07      0.00
    1   -1    2     -2.08      0.00
   -1    0   10      0.02      0.00
   -1    0    9     -1.19      0.00
   -1    0    8      0.48      0.00
   -1    0    7      1.62      0.00
   -1    0    6      0.56      0.00
   -1    0    5      0.98      0.00
   -1    0    4     -0.94      0.00
   -1    0    3     -5.15      0.00
   -1    0    2      1.42      0.00
   -1    0    1     -5.04      0.00
    1    0    1    -18.75      0.00
   -1   -1   10     -0.30      0.00
   -1   -1    9     -1.35      0.00
   -1   -1    8      0.46      0.00
   -1   -1    7      1.55      0.00
   -1   -1    6      0.36      0.00
   -1   -1    5      0.46      0.00
   -1   -1    4     -0.83      0.00
   -1   -1    3     -4.91      0.00
   -1   -1    2      0.88      0.00
   -1   -1    1     -5.26      0.00
    1    1    2     -0.74      0.00
    1    1    3     -7.36      0.00
   -1   -2   10     -0.53      0.00
   -1   -2    9     -1.10      0.00
   -1   -2    8      0.59      0.00
   -1   -2    7      1.45      0.00
   -1   -2    6      0.26      0.00
   -1   -2    5      0.22      0.00
   -1   -2    4     -0.48      0.00
   -1   -2    3     -4.10      0.00
   -1   -2    2      0.71      0.00
    1    2    5     -0.82      0.00
   -1   -3   10     -0.59      0.00
   -1   -3    9     -0.63      0.00
   -1   -3    8      0.74      0.00
   -1   -3    7      1.34      0.00
   -1   -3    6      0.37      0.00
   -1   -3    5      0.40      0.00
   -1   -3    4     -0.04      0.00
   -1   -3    3     -3.03      0.00
    1    3    7      0.33      0.00
   -1   -4    9     -0.24      0.00
   -1   -4    8      0.75      0.00
   -1   -4    7      1.12      0.00
    1    4    8      0.26      0.00
    1    5    3     -0.40      0.00
    1    5    9     -0.68      0.00
    1    6    8      0.47      0.00
    1    6    9     -0.40      0.00
    1    6   10     -0.35      0.00
    1    7    8      0.79      0.00
    1    7    9     -0.13      0.00
    1    8    7      0.34      0.00
    1    8    8      0.90      0.00
    1    9    6      0.37      0.00
    1    9    7      0.09      0.00
   -2    9    6     -0.07      0.00
   -2    9    5     -0.12      0.00
   -2    9    4     -0.13      0.00
   -2    9    3     -0.11      0.00
   -2    9    2     -0.31      0.00
   -2    9    1     -0.96      0.00
   -2    9    0      0.11      0.00
    2   -9    1      0.56      0.00
    2   -9    2     -0.28      0.00
    2   -9    3      0.34      0.00
   -2    8    5     -0.44      0.00
   -2    8    4     -0.46      0.00
   -2    8    3     -0.04      0.00
   -2    8    2     -0.58      0.00
   -2    8    1     -1.23      0.00
   -2    8    0      0.55      0.00
    2   -8    1      1.15      0.00
    2   -8    2     -0.11      0.00
    2   -8    3      0.72      0.00
    2   -8    4      1.00      0.00
    2   -8    5     -0.13      0.00
   -2    7    4     -0.54      0.00
   -2    7    3      0.27      0.00
   -2    7    2     -0.85      0.00
   -2    7    1     -1.58      0.00
   -2    7    0      1.23      0.00
    2   -7    1      1.96      0.00
    2   -7    2     -0.14      0.00
    2   -7    3      0.93      0.00
    2   -7    4      1.36      0.00
    2   -7    5     -0.26      0.00
    2   -7    6     -0.31      0.00
    2   -7    7     -0.33      0.00
   -2    6    3      0.65      0.00
   -2    6    2     -1.21      0.00
   -2    6    1     -2.20      0.00
    2   -6    1      2.90      0.00
    2   -6    2     -0.42      0.00
    2   -6    3      0.77      0.00
    2   -6    4      1.47      0.00
    2   -6    5     -0.32      0.00
    2   -6    6     -0.22      0.00
    2   -6    7     -0.25      0.00
    2   -6    8     -0.53      0.00
   -2    5    2     -1.75      0.00
   -2    5    0      3.17      0.00
    2   -5    1      4.14      0.00
    2   -5    2     -0.58      0.00
    2   -5    3      0.56      0.00
    2   -5    4      1.48      0.00
    2   -5    5     -0.25      0.00
    2   -5    6      0.00      0.00
    2   -5    7     -0.03      0.00
    2   -5    8     -0.53      0.00
    2   -5    9      0.22      0.00
    2   -4    2     -0.43      0.00
    2   -4    3      0.76      0.00
    2   -4    4      1.78      0.00
    2   -4    5      0.00      0.00
    2   -4    6      0.21      0.00
    2   -4    7      0.08      0.00
    2   -4    8     -0.62      0.00
    2   -4    9      0.24      0.00
   -2    3    0      6.86      0.00
    2   -3    2     -0.39      0.00
    2   -3    3      1.32      0.00
    2   -3    4      2.59      0.00
    2   -3    5      0.46      0.00
    2   -3    6      0.40      0.00
    2   -3    7     -0.01      0.00
    2   -3    8     -0.86      0.00
    2   -3    9     -0.01      0.00
    2   -3   10      0.51      0.00
   -2    2    0      9.19      0.00
    2   -2    1      9.74      0.00
    2   -2    4      3.63      0.00
    2   -2    5      1.01      0.00
    2   -2    6      0.64      0.00
    2   -2    7     -0.05      0.00
    2   -2    8     -0.96      0.00
    2   -2    9     -0.28      0.00
    2   -2   10      0.10      0.00
    2   -1    3      1.76      0.00
    2   -1    4      4.49      0.00
    2   -1    5      1.37      0.00
   -2    0   10     -0.54      0.00
   -2    0    9      1.12      0.00
   -2    0    8      0.16      0.00
   -2    0    7     -1.22      0.00
   -2    0    6     -0.72      0.00
   -2    0    5     -1.64      0.00
   -2    0    4     -2.13      0.00
   -2    0    3      1.24      0.00
    2    0    2     -3.21      0.00
    2    0    3      1.43      0.00
   -2   -1   10     -0.30      0.00
   -2   -1    9      1.48      0.00
   -2   -1    8      0.23      0.00
   -2   -1    7     -1.33      0.00
   -2   -1    6     -0.86      0.00
   -2   -1    5     -1.48      0.00
   -2   -1    4     -2.35      0.00
   -2   -1    3      0.64      0.00
   -2   -1    1     -5.96      0.00
    2    1    1     11.27      0.00
    2    1    2     -4.18      0.00
   -2   -2   10      0.05      0.00
   -2   -2    9      1.53      0.00
   -2   -2    8      0.14      0.00
   -2   -2    7     -1.35      0.00
   -2   -2    6     -0.95      0.00
   -2   -2    5     -1.33      0.00
   -2   -2    4     -2.47      0.00
   -2   -2    3      0.05      0.00
    2    2    4      4.19      0.00
   -2   -3    9      1.12      0.00
   -2   -3    8     -0.18      0.00
   -2   -3    7     -1.38      0.00
   -2   -3    6     -1.10      0.00
   -2   -3    5     -1.41      0.00
   -2   -3    4     -2.49      0.00
    2    3    5     -0.27      0.00
    2    3    6      0.05      0.00
   -2   -4    9      0.53      0.00
   -2   -4    8     -0.48      0.00
   -2   -4    7     -1.28      0.00
   -2   -4    6     -1.18      0.00
   -2   -4    5     -1.60      0.00
   -2   -4    4     -2.31      0.00
    2    4    7     -0.13      0.00
    2    4    8     -0.69      0.00
    2    5    3     -1.43      0.00
    2    5    8     -0.36      0.00
    2    5    9      0.58      0.00
    2    6    7     -0.26      0.00
    2    6    8     -0.30      0.00
    2    6    9      0.37      0.00
    2    6   10      0.43      0.00
    2    7    6     -0.66      0.00
    2    7    7     -0.21      0.00
    2    7    8     -0.50      0.00
    2    7    9      0.00      0.00
    2    8    8     -0.68      0.00
   -3    9    2     -0.11      0.00
   -3    8    5     -0.04      0.00
   -3    8    4      0.03      0.00
   -3    8    3      0.03      0.00
   -3    8    2      0.09      0.00
   -3    8    1      0.88      0.00
   -3    8    0      0.04      0.00
    3   -8    1     -0.97      0.00
    3   -8    2      0.01      0.00
    3   -8    3     -0.16      0.00
    3   -8    4     -0.55      0.00
   -3    7    7     -0.42      0.00
   -3    7    5      0.07      0.00
   -3    7    4      0.29      0.00
   -3    7    3     -0.07      0.00
   -3    7    2      0.36      0.00
   -3    7    1      1.31      0.00
   -3    7    0     -0.25      0.00
    3   -7    1     -1.61      0.00
    3   -7    2     -0.11      0.00
    3   -7    3     -0.33      0.00
    3   -7    4     -1.07      0.00
    3   -7    5     -0.05      0.00
    3   -7    6      0.23      0.00
   -3    6    8     -0.57      0.00
   -3    6    7     -0.69      0.00
   -3    6    4      0.48      0.00
   -3    6    3     -0.31      0.00
   -3    6    2      0.56      0.00
   -3    6    1      1.88      0.00
   -3    6    0     -0.57      0.00
    3   -6    1     -2.45      0.00
    3   -6    2     -0.15      0.00
    3   -6    3     -0.35      0.00
    3   -6    4     -1.48      0.00
    3   -6    5     -0.10      0.00
    3   -6    6      0.23      0.00
    3   -6    7      0.25      0.00
   -3    5    8     -0.51      0.00
   -3    5    3     -0.59      0.00
   -3    5    2      0.69      0.00
   -3    5    0     -0.97      0.00
    3   -5    1     -3.44      0.00
    3   -5    2     -0.08      0.00
    3   -5    3     -0.12      0.00
    3   -5    4     -1.58      0.00
    3   -5    5     -0.09      0.00
    3   -5    6      0.10      0.00
    3   -5    7      0.10      0.00
    3   -5    8      0.59      0.00
   -3    4    9     -0.28      0.00
   -3    4    8     -0.29      0.00
    3   -4    2      0.13      0.00
    3   -4    3      0.28      0.00
    3   -4    4     -1.50      0.00
    3   -4    5     -0.05      0.00
    3   -4    6      0.01      0.00
    3   -4    7     -0.08      0.00
    3   -4    8      0.57      0.00
    3   -4    9     -0.16      0.00
   -3    3    9     -0.43      0.00
   -3    3    1      4.80      0.00
   -3    3    0     -1.98      0.00
    3   -3    1     -5.47      0.00
    3   -3    3      0.83      0.00
    3   -3    4     -1.46      0.00
    3   -3    5     -0.07      0.00
    3   -3    6      0.08      0.00
    3   -3    7     -0.10      0.00
    3   -3    8      0.63      0.00
    3   -3    9     -0.16      0.00
    3   -3   10     -0.89      0.00
   -3    2    9     -0.55      0.00
    3   -2    4     -1.47      0.00
    3   -2    5     -0.12      0.00
    3   -2    6      0.24      0.00
    3   -2    7      0.05      0.00
    3   -2    8      0.75      0.00
    3   -2    9      0.04      0.00
    3   -2   10     -0.61      0.00
    3   -1    4     -1.34      0.00
    3   -1    5      0.00      0.00
    3   -1    6      0.45      0.00
    3   -1    7      0.23      0.00
    3   -1    8      0.81      0.00
    3   -1    9      0.23      0.00
    3   -1   10     -0.20      0.00
    3   -1   11      0.40      0.00
   -3    0    8     -0.42      0.00
   -3    0    7      0.83      0.00
   -3    0    6      0.35      0.00
   -3    0    5      0.97      0.00
   -3    0    4      2.61      0.00
    3    0    4     -1.00      0.00
    3    0    5      0.40      0.00
    3    0    6      0.71      0.00
    3    0   11      0.31      0.00
   -3   -1    9     -1.00      0.00
   -3   -1    8     -0.58      0.00
   -3   -1    7      0.99      0.00
   -3   -1    6      0.72      0.00
   -3   -1    5      1.22      0.00
   -3   -1    4      3.08      0.00
   -3   -1    2      4.23      0.00
    3    1    2      6.43      0.00
    3    1    3      5.01      0.00
    3    1    4     -0.58      0.00
    3    1   11     -0.02      0.00
   -3   -2    9     -1.30      0.00
   -3   -2    8     -0.68      0.00
   -3   -2    7      1.01      0.00
   -3   -2    6      0.99      0.00
   -3   -2    5      1.35      0.00
   -3   -2    4      3.22      0.00
    3    2    2      6.99      0.00
    3    2    3      5.34      0.00
    3    2   11     -0.29      0.00
   -3   -3    9     -1.22      0.00
   -3   -3    8     -0.48      0.00
   -3   -3    7      1.03      0.00
   -3   -3    6      1.19      0.00
   -3   -3    5      1.52      0.00
   -3   -3    4      3.16      0.00
    3    3    5      1.49      0.00
    3    3   10     -0.62      0.00
    3    3   11     -0.34      0.00
   -3   -4    8     -0.10      0.00
   -3   -4    7      1.04      0.00
   -3   -4    6      1.23      0.00
   -3   -4    5      1.65      0.00
   -3   -4    4      2.91      0.00
    3    4    4     -0.22      0.00
    3    4    5      1.44      0.00
    3    4    6      1.34      0.00
    3    4    7      0.33      0.00
    3    4   10     -0.47      0.00
   -3   -5    8      0.16      0.00
   -3   -5    7      0.88      0.00
   -3   -5    6      0.95      0.00
    3    5    3      3.32      0.00
    3    5    5      1.38      0.00
    3    5    6      1.38      0.00
    3    5    7      0.42      0.00
    3    5    8      0.82      0.00
    3    5   10     -0.28      0.00
    3    6    3      2.37      0.00
    3    6    6      1.38      0.00
    3    6    7      0.46      0.00
    3    6    8      0.55      0.00
    3    6    9     -0.10      0.00
    3    6   10     -0.17      0.00
    3    7    5      1.47      0.00
    3    7    6      1.35      0.00
    3    7    7      0.40      0.00
    3    7    8      0.39      0.00
    3    7    9      0.10      0.00
    3    8    5      1.35      0.00
    3    8    6      1.24      0.00
    3    8    7      0.26      0.00
    3    8    8      0.35      0.00
   -4    8    2     -0.01      0.00
   -4    8    1     -0.62      0.00
   -4    8    0     -0.39      0.00
    4   -8    1      0.87      0.00
    4   -8    2      0.38      0.00
    4   -8    3      0.08      0.00
   -4    7    4     -0.09      0.00
   -4    7    3     -0.02      0.00
   -4    7    2     -0.04      0.00
   -4    7    1     -0.91      0.00
   -4    7    0     -0.27      0.00
    4   -7    1      1.39      0.00
    4   -7    2      0.57      0.00
    4   -7    3      0.09      0.00
    4   -7    4      0.38      0.00
    4   -7    5      0.08      0.00
   -4    6    6      0.39      0.00
   -4    6    5      0.13      0.00
   -4    6    4     -0.38      0.00
   -4    6    3      0.09      0.00
   -4    6    2     -0.05      0.00
   -4    6    1     -1.26      0.00
   -4    6    0     -0.25      0.00
    4   -6    1      1.90      0.00
    4   -6    2      0.69      0.00
    4   -6    3      0.02      0.00
    4   -6    4      0.74      0.00
    4   -6    5      0.23      0.00
    4   -6    6     -0.05      0.00
    4   -6    7     -0.06      0.00
   -4    5    7      0.21      0.00
   -4    5    6      0.57      0.00
   -4    5    5      0.15      0.00
   -4    5    4     -0.66      0.00
   -4    5    3      0.18      0.00
   -4    5    2     -0.03      0.00
   -4    5    1     -1.75      0.00
   -4    5    0     -0.36      0.00
    4   -5    2      0.69      0.00
    4   -5    3     -0.15      0.00
    4   -5    4      1.07      0.00
    4   -5    5      0.39      0.00
    4   -5    6      0.18      0.00
    4   -5    7      0.18      0.00
    4   -5    8     -0.36      0.00
   -4    4    7     -0.05      0.00
   -4    4    6      0.52      0.00
   -4    4    3      0.33      0.00
   -4    4    2      0.07      0.00
   -4    4    0     -0.40      0.00
    4   -4    1      3.07      0.00
    4   -4    3     -0.45      0.00
    4   -4    4      1.23      0.00
    4   -4    5      0.44      0.00
    4   -4    6      0.27      0.00
    4   -4    7      0.37      0.00
    4   -4    8     -0.39      0.00
    4   -4    9     -0.02      0.00
   -4    3    8      0.16      0.00
   -4    3    7     -0.30      0.00
   -4    3    6      0.34      0.00
   -4    3    1     -3.17      0.00
   -4    3    0     -0.31      0.00
    4   -3    1      3.79      0.00
    4   -3    3     -1.03      0.00
    4   -3    4      1.12      0.00
    4   -3    5      0.36      0.00
    4   -3    6      0.03      0.00
    4   -3    7      0.25      0.00
    4   -3    8     -0.49      0.00
    4   -3    9     -0.06      0.00
    4   -3   10      0.84      0.00
   -4    2    8      0.25      0.00
   -4    2    7     -0.45      0.00
   -4    2    2      0.10      0.00
   -4    2    1     -4.16      0.00
   -4    2    0     -0.32      0.00
    4   -2    1      4.27      0.00
    4   -2    4      0.70      0.00
    4   -2    5      0.16      0.00
    4   -2    6     -0.47      0.00
    4   -2    7     -0.15      0.00
    4   -2    8     -0.71      0.00
    4   -2    9     -0.18      0.00
    4   -2   10      0.91      0.00
   -4    1    8      0.27      0.00
   -4    1    7     -0.62      0.00
   -4    1    2     -0.38      0.00
    4   -1    4      0.06      0.00
    4   -1    5     -0.22      0.00
    4   -1    6     -1.04      0.00
    4   -1    7     -0.64      0.00
    4   -1    8     -0.99      0.00
    4   -1    9     -0.35      0.00
    4   -1   10      0.68      0.00
    4   -1   11      0.25      0.00
   -4    0    8      0.28      0.00
    4    0    4     -0.61      0.00
    4    0    5     -0.78      0.00
    4    0    6     -1.57      0.00
    4    0    7     -1.04      0.00
    4    0    8     -1.26      0.00
    4    0    9     -0.53      0.00
    4    0   10      0.38      0.00
    4    0   11      0.17      0.00
    4    0   12     -0.03      0.00
   -4   -1    8      0.44      0.00
   -4   -1    7     -0.95      0.00
   -4   -1    6     -0.74      0.00
   -4   -1    5     -0.59      0.00
   -4   -1    4     -2.37      0.00
    4    1    5     -1.45      0.00
    4    1    6     -2.02      0.00
    4    1    7     -1.31      0.00
    4    1    8     -1.49      0.00
    4    1    9     -0.67      0.00
    4    1   10      0.28      0.00
    4    1   11      0.19      0.00
   -4   -2    8      0.71      0.00
   -4   -2    7     -0.82      0.00
   -4   -2    6     -0.84      0.00
   -4   -2    5     -0.67      0.00
   -4   -2    2     -1.92      0.00
    4    2    2     -4.51      0.00
    4    2    3     -6.12      0.00
    4    2    5     -1.99      0.00
    4    2    9     -0.70      0.00
    4    2   10      0.40      0.00
    4    2   11      0.29      0.00
   -4   -3    8      0.77      0.00
   -4   -3    7     -0.68      0.00
   -4   -3    6     -0.85      0.00
   -4   -3    5     -0.72      0.00
    4    3    2     -4.49      0.00
    4    3    3     -5.91      0.00
    4    3    4     -1.54      0.00
    4    3    9     -0.58      0.00
    4    3   10      0.55      0.00
   -4   -4    8      0.51      0.00
   -4   -4    7     -0.69      0.00
   -4   -4    6     -0.82      0.00
   -4   -4    5     -0.80      0.00
    4    4    4     -1.22      0.00
    4    4    5     -1.96      0.00
    4    4    8     -1.37      0.00
    4    4    9     -0.38      0.00
    4    4   10      0.51      0.00
   -4   -5    7     -0.73      0.00
   -4   -5    6     -0.64      0.00
   -4   -5    5     -0.73      0.00
    4    5    4     -0.70      0.00
    4    5    5     -1.56      0.00
    4    5    6     -2.03      0.00
    4    5    7     -0.82      0.00
    4    5    8     -1.10      0.00
    4    5    9     -0.21      0.00
    4    5   10      0.28      0.00
    4    6    4     -0.34      0.00
    4    6    5     -1.31      0.00
    4    6    6     -1.79      0.00
    4    6    7     -0.67      0.00
    4    6    8     -0.74      0.00
    4    6    9     -0.12      0.00
    4    7    3     -1.64      0.00
    4    7    4     -0.35      0.00
    4    7    5     -1.28      0.00
    4    7    6     -1.66      0.00
    4    7    7     -0.58      0.00
    4    7    8     -0.37      0.00
    4    7    9     -0.10      0.00
    4    8    3     -1.30      0.00
    4    8    4     -0.53      0.00
    4    8    5     -1.21      0.00
    4    8    6     -1.52      0.00
    4    8    7     -0.51      0.00
    4    8    8     -0.10      0.00
    4    9    5     -0.84      0.00
    4    9    6     -1.21      0.00
    4    9    7     -0.44      0.00
   -5    7    1      0.69      0.00
   -5    7    0      0.73      0.00
    5   -7    1     -0.65      0.00
    5   -7    2     -0.44      0.00
    5   -7    3      0.06      0.00
    5   -7    4      0.01      0.00
   -5    6    4      0.35      0.00
   -5    6    3      0.17      0.00
   -5    6    2     -0.16      0.00
   -5    6    1      0.76      0.00
   -5    6    0      0.73      0.00
    5   -6    1     -1.02      0.00
    5   -6    2     -0.66      0.00
    5   -6    3      0.20      0.00
    5   -6    4     -0.04      0.00
    5   -6    5     -0.08      0.00
    5   -6    6     -0.06      0.00
   -5    5    5     -0.16      0.00
   -5    5    4      0.65      0.00
   -5    5    3      0.23      0.00
   -5    5    2     -0.32      0.00
   -5    5    1      0.81      0.00
   -5    5    0      0.83      0.00
    5   -5    1     -1.31      0.00
    5   -5    2     -0.80      0.00
    5   -5    3      0.37      0.00
    5   -5    4     -0.19      0.00
    5   -5    5     -0.16      0.00
    5   -5    6     -0.19      0.00
    5   -5    7     -0.30      0.00
    5   -5    8      0.22      0.00
   -5    4    6     -0.04      0.00
   -5    4    5     -0.24      0.00
   -5    4    4      0.80      0.00
   -5    4    3      0.27      0.00
   -5    4    2     -0.39      0.00
   -5    4    1      1.08      0.00
   -5    4    0      1.07      0.00
    5   -4    3      0.50      0.00
    5   -4    4     -0.47      0.00
    5   -4    5     -0.32      0.00
    5   -4    6     -0.35      0.00
    5   -4    7     -0.54      0.00
    5   -4    8      0.24      0.00
    5   -4    9      0.15      0.00
   -5    3    7      0.50      0.00
   -5    3    6      0.09      0.00
   -5    3    5     -0.24      0.00
   -5    3    4      0.76      0.00
   -5    3    3      0.20      0.00
   -5    3    2     -0.47      0.00
   -5    3    1      1.57      0.00
   -5    3    0      1.26      0.00
    5   -3    1     -2.15      0.00
    5   -3    4     -0.75      0.00
    5   -3    5     -0.51      0.00
    5   -3    6     -0.33      0.00
    5   -3    7     -0.50      0.00
    5   -3    8      0.33      0.00
    5   -3    9      0.36      0.00
    5   -3   10     -0.34      0.00
   -5    2    7      0.54      0.00
   -5    2    6      0.23      0.00
   -5    2    5     -0.16      0.00
   -5    2    4      0.75      0.00
   -5    2    3      0.11      0.00
   -5    2    2     -0.59      0.00
   -5    2    1      2.17      0.00
   -5    2    0      1.30      0.00
    5   -2    1     -2.83      0.00
    5   -2    4     -0.77      0.00
    5   -2    5     -0.56      0.00
    5   -2    6     -0.03      0.00
    5   -2    7     -0.13      0.00
    5   -2    8      0.58      0.00
    5   -2    9      0.60      0.00
    5   -2   10     -0.42      0.00
   -5    1    7      0.61      0.00
   -5    1    6      0.44      0.00
   -5    1    5     -0.01      0.00
   -5    1    4      0.98      0.00
   -5    1    3      0.24      0.00
   -5    1    2     -0.59      0.00
   -5    1    1      2.78      0.00
   -5    1    0      1.33      0.00
    5   -1    5     -0.40      0.00
    5   -1    6      0.47      0.00
    5   -1    7      0.36      0.00
    5   -1    8      0.91      0.00
    5   -1    9      0.79      0.00
    5   -1   10     -0.37      0.00
    5   -1   11     -0.28      0.00
   -5    0    8     -0.02      0.00
   -5    0    7      0.80      0.00
   -5    0    6      0.74      0.00
   -5    0    5      0.20      0.00
   -5    0    4      1.42      0.00
   -5    0    2     -0.37      0.00
    5    0    5     -0.09      0.00
    5    0    6      0.96      0.00
    5    0    7      0.74      0.00
    5    0    8      1.20      0.00
    5    0    9      0.89      0.00
    5    0   10     -0.27      0.00
    5    0   11     -0.30      0.00
   -5   -1    8     -0.07      0.00
   -5   -1    7      0.92      0.00
   -5   -1    6      0.99      0.00
   -5   -1    5      0.33      0.00
    5    1    5      0.23      0.00
    5    1    6      1.31      0.00
    5    1    7      0.95      0.00
    5    1    8      1.38      0.00
    5    1    9      0.93      0.00
    5    1   10     -0.22      0.00
    5    1   11     -0.35      0.00
   -5   -2    8     -0.27      0.00
   -5   -2    7      0.82      0.00
   -5   -2    6      1.01      0.00
   -5   -2    5      0.32      0.00
   -5   -2    1      3.15      0.00
    5    2    5      0.54      0.00
    5    2    6      1.56      0.00
    5    2    7      1.07      0.00
    5    2    8      1.45      0.00
    5    2    9      0.93      0.00
    5    2   10     -0.27      0.00
    5    2   11     -0.39      0.00
   -5   -3    7      0.62      0.00
   -5   -3    6      0.86      0.00
   -5   -3    5      0.25      0.00
    5    3    2      0.42      0.00
    5    3    3      3.32      0.00
    5    3    5      0.81      0.00
    5    3    6      1.77      0.00
    5    3    7      1.16      0.00
    5    3    8      1.43      0.00
    5    3    9      0.88      0.00
    5    3   10     -0.40      0.00
   -5   -4    7      0.56      0.00
   -5   -4    6      0.71      0.00
   -5   -4    5      0.21      0.00
    5    4    5      0.96      0.00
    5    4    6      1.88      0.00
    5    4    7      1.20      0.00
    5    4    8      1.34      0.00
    5    4    9      0.75      0.00
    5    4   10     -0.47      0.00
   -5   -5    7      0.65      0.00
   -5   -5    6      0.59      0.00
   -5   -5    5      0.17      0.00
    5    5    5      0.93      0.00
    5    5    6      1.86      0.00
    5    5    7      1.12      0.00
    5    5    8      1.18      0.00
    5    5    9      0.57      0.00
    5    5   10     -0.39      0.00
    5    6    5      0.84      0.00
    5    6    6      1.73      0.00
    5    6    7      0.96      0.00
    5    6    8      0.89      0.00
    5    6    9      0.35      0.00
    5    7    4     -0.01      0.00
    5    7    5      0.81      0.00
    5    7    6      1.58      0.00
    5    7    7      0.80      0.00
    5    7    8      0.49      0.00
    5    7    9      0.11      0.00
    5    8    4      0.14      0.00
    5    8    5      0.77      0.00
    5    8    6      1.40      0.00
    5    8    7      0.72      0.00
    5    8    8      0.12      0.00
    5    9    4      0.35      0.00
    5    9    5      0.56      0.00
    5    9    6      1.11      0.00
    5    9    7      0.67      0.00
   -6    6    0     -0.67      0.00
    6   -6    1      0.35      0.00
    6   -6    2      0.34      0.00
    6   -6    3     -0.27      0.00
    6   -6    4     -0.06      0.00
    6   -6    5      0.11      0.00
   -6    5    3     -0.58      0.00
   -6    5    2      0.23      0.00
   -6    5    1     -0.33      0.00
   -6    5    0     -0.79      0.00
    6   -5    1      0.50      0.00
    6   -5    2      0.59      0.00
    6   -5    3     -0.35      0.00
    6   -5    4     -0.12      0.00
    6   -5    5      0.15      0.00
    6   -5    6      0.26      0.00
    6   -5    7      0.36      0.00
   -6    4    4     -0.74      0.00
   -6    4    3     -0.86      0.00
   -6    4    2      0.11      0.00
   -6    4    1     -0.45      0.00
   -6    4    0     -1.04      0.00
    6   -4    2      0.80      0.00
    6   -4    3     -0.37      0.00
    6   -4    4     -0.02      0.00
    6   -4    5      0.18      0.00
    6   -4    6      0.30      0.00
    6   -4    7      0.47      0.00
    6   -4    8     -0.18      0.00
   -6    3    5      0.08      0.00
   -6    3    4     -0.77      0.00
   -6    3    3     -0.92      0.00
   -6    3    2      0.03      0.00
   -6    3    1     -0.74      0.00
   -6    3    0     -1.40      0.00
    6   -3    1      0.70      0.00
    6   -3    4      0.22      0.00
    6   -3    5      0.27      0.00
    6   -3    6      0.32      0.00
    6   -3    7      0.44      0.00
    6   -3    8     -0.34      0.00
    6   -3    9     -0.50      0.00
   -6    2    6     -0.32      0.00
   -6    2    5      0.06      0.00
   -6    2    4     -0.67      0.00
   -6    2    3     -0.81      0.00
   -6    2    2      0.14      0.00
   -6    2    1     -1.09      0.00
   -6    2    0     -1.71      0.00
    6   -2    1      1.06      0.00
    6   -2    5      0.36      0.00
    6   -2    6      0.25      0.00
    6   -2    7      0.29      0.00
    6   -2    8     -0.47      0.00
    6   -2    9     -0.77      0.00
    6   -2   10     -0.09      0.00
   -6    1    6     -0.40      0.00
   -6    1    5      0.03      0.00
   -6    1    4     -0.66      0.00
   -6    1    3     -0.80      0.00
   -6    1    2      0.31      0.00
   -6    1    1     -1.38      0.00
   -6    1    0     -1.84      0.00
    6   -1    1      1.57      0.00
    6   -1    5      0.37      0.00
    6   -1    6      0.00      0.00
    6   -1    7      0.06      0.00
    6   -1    8     -0.59      0.00
    6   -1    9     -0.93      0.00
    6   -1   10     -0.06      0.00
   -6    0    7     -0.42      0.00
   -6    0    6     -0.60      0.00
   -6    0    5     -0.02      0.00
   -6    0    4     -0.80      0.00
   -6    0    3     -0.99      0.00
   -6    0    2      0.38      0.00
   -6    0    1     -1.55      0.00
    6    0    0     -1.79      0.00
    6    0    5      0.35      0.00
    6    0    6     -0.37      0.00
    6    0    7     -0.12      0.00
    6    0    8     -0.67      0.00
    6    0    9     -0.94      0.00
    6    0   10      0.03      0.00
   -6   -1    7     -0.55      0.00
   -6   -1    6     -0.83      0.00
   -6   -1    5     -0.07      0.00
   -6   -1    4     -0.94      0.00
   -6   -1    2      0.31      0.00
    6    1    6     -0.65      0.00
    6    1    7     -0.19      0.00
    6    1    8     -0.67      0.00
    6    1    9     -0.81      0.00
    6    1   10      0.17      0.00
   -6   -2    7     -0.52      0.00
   -6   -2    6     -0.90      0.00
   -6   -2    5     -0.07      0.00
   -6   -2    4     -0.90      0.00
   -6   -2    2      0.26      0.00
    6    2    6     -0.76      0.00
    6    2    7     -0.20      0.00
    6    2    8     -0.62      0.00
    6    2    9     -0.65      0.00
    6    2   10      0.28      0.00
    6    2   11      0.44      0.00
   -6   -3    7     -0.35      0.00
   -6   -3    6     -0.78      0.00
   -6   -3    5     -0.05      0.00
   -6   -3    2      0.32      0.00
    6    3    6     -0.78      0.00
    6    3    7     -0.29      0.00
    6    3    8     -0.59      0.00
    6    3    9     -0.57      0.00
    6    3   10      0.30      0.00
   -6   -4    7     -0.24      0.00
   -6   -4    6     -0.60      0.00
   -6   -4    5     -0.04      0.00
   -6   -4    1     -0.58      0.00
    6    4    6     -0.82      0.00
    6    4    7     -0.49      0.00
    6    4    8     -0.65      0.00
    6    4    9     -0.61      0.00
    6    4   10      0.23      0.00
   -6   -5    6     -0.47      0.00
   -6   -5    5      0.01      0.00
    6    5    6     -0.89      0.00
    6    5    7     -0.69      0.00
    6    5    8     -0.76      0.00
    6    5    9     -0.65      0.00
    6    5   10      0.15      0.00
    6    6    5      0.00      0.00
    6    6    6     -0.96      0.00
    6    6    7     -0.78      0.00
    6    6    8     -0.77      0.00
    6    6    9     -0.56      0.00
    6    7    5     -0.15      0.00
    6    7    6     -1.00      0.00
    6    7    7     -0.78      0.00
    6    7    8     -0.64      0.00
    6    7    9     -0.34      0.00
    6    8    5     -0.13      0.00
    6    8    6     -0.92      0.00
    6    8    7     -0.77      0.00
    6    8    8     -0.43      0.00
    6    9    4      0.30      0.00
    6    9    5      0.05      0.00
    6    9    6     -0.69      0.00
    6    9    7     -0.72      0.00
    6   10    5      0.25      0.00
    7   -5    1     -0.11      0.00
    7   -5    2     -0.33      0.00
    7   -5    3      0.29      0.00
    7   -5    4      0.13      0.00
    7   -5    5     -0.14      0.00
   -7    4    2      0.02      0.00
   -7    4    1      0.20      0.00
   -7    4    0      0.78      0.00
    7   -4    1     -0.05      0.00
    7   -4    2     -0.53      0.00
    7   -4    3      0.23      0.00
    7   -4    4      0.16      0.00
    7   -4    5     -0.15      0.00
    7   -4    6     -0.17      0.00
    7   -4    7     -0.16      0.00
   -7    3    3      0.98      0.00
   -7    3    2      0.22      0.00
   -7    3    1      0.35      0.00
   -7    3    0      1.02      0.00
    7   -3    3      0.19      0.00
    7   -3    4      0.06      0.00
    7   -3    5     -0.16      0.00
    7   -3    6     -0.24      0.00
    7   -3    7     -0.25      0.00
    7   -3    8      0.35      0.00
   -7    2    4      0.55      0.00
   -7    2    3      0.97      0.00
   -7    2    2      0.18      0.00
   -7    2    1      0.40      0.00
   -7    2    0      1.23      0.00
    7   -2    5     -0.10      0.00
    7   -2    6     -0.25      0.00
    7   -2    7     -0.31      0.00
    7   -2    8      0.40      0.00
   -7    1    5      0.07      0.00
   -7    1    4      0.46      0.00
   -7    1    3      0.90      0.00
   -7    1    2     -0.04      0.00
   -7    1    1      0.37      0.00
   -7    1    0      1.38      0.00
    7   -1    1     -0.27      0.00
    7   -1    5      0.02      0.00
    7   -1    6     -0.10      0.00
    7   -1    7     -0.28      0.00
    7   -1    8      0.33      0.00
   -7    0    6      0.22      0.00
   -7    0    5     -0.02      0.00
   -7    0    4      0.35      0.00
   -7    0    3      0.93      0.00
   -7    0    2     -0.19      0.00
   -7    0    1      0.39      0.00
    7    0    0      1.47      0.00
    7    0    1     -0.54      0.00
    7    0    6      0.24      0.00
    7    0    7     -0.14      0.00
    7    0    8      0.26      0.00
   -7   -1    6      0.34      0.00
   -7   -1    5     -0.12      0.00
   -7   -1    4      0.27      0.00
   -7   -1    3      0.98      0.00
   -7   -1    2     -0.21      0.00
   -7   -1    1      0.46      0.00
    7    1    0      1.43      0.00
    7    1    1     -0.85      0.00
    7    1    6      0.57      0.00
    7    1    7      0.00      0.00
    7    1    8      0.20      0.00
    7    1    9      0.73      0.00
   -7   -2    6      0.42      0.00
   -7   -2    5     -0.20      0.00
   -7   -2    4      0.21      0.00
   -7   -2    3      0.87      0.00
   -7   -2    2     -0.18      0.00
   -7   -2    1      0.49      0.00
    7    2    0      1.20      0.00
    7    2    6      0.69      0.00
    7    2    7      0.05      0.00
    7    2    8      0.09      0.00
    7    2    9      0.48      0.00
    7    2   10     -0.22      0.00
   -7   -3    6      0.36      0.00
   -7   -3    5     -0.25      0.00
   -7   -3    4      0.18      0.00
   -7   -3    3      0.57      0.00
   -7   -3    2     -0.16      0.00
   -7   -3    1      0.42      0.00
    7    3    0      0.84      0.00
    7    3    6      0.59      0.00
    7    3    7      0.03      0.00
    7    3    8     -0.04      0.00
    7    3    9      0.19      0.00
    7    3   10     -0.34      0.00
   -7   -4    6      0.23      0.00
   -7   -4    5     -0.24      0.00
   -7   -4    4      0.18      0.00
   -7   -4    1      0.28      0.00
    7    4    0      0.50      0.00
    7    4    6      0.39      0.00
    7    4    7      0.05      0.00
    7    4    8     -0.07      0.00
    7    4    9      0.06      0.00
    7    4   10     -0.28      0.00
   -7   -5    5     -0.22      0.00
   -7   -5    4      0.11      0.00
   -7   -5    1      0.00      0.00
    7    5    6      0.19      0.00
    7    5    7      0.11      0.00
    7    5    8      0.03      0.00
    7    5    9      0.12      0.00
   -7   -6    5     -0.26      0.00
    7    6    6      0.08      0.00
    7    6    7      0.14      0.00
    7    6    8      0.17      0.00
    7    6    9      0.22      0.00
    7    7    6      0.08      0.00
    7    7    7      0.15      0.00
    7    7    8      0.23      0.00
    7    8    5     -0.44      0.00
    7    8    6      0.10      0.00
    7    8    7      0.18      0.00
    7    8    8      0.22      0.00
    7    9    5     -0.60      0.00
    7    9    6      0.00      0.00
    7   10    5     -0.76      0.00
    8   -4    2      0.25      0.00
    8   -4    3     -0.16      0.00
    8   -4    4     -0.18      0.00
    8   -4    5      0.13      0.00
   -8    3    0     -0.57      0.00
    8   -3    1     -0.22      0.00
    8   -3    2      0.30      0.00
    8   -3    3     -0.18      0.00
    8   -3    4     -0.25      0.00
    8   -3    5      0.09      0.00
   -8    2    2     -0.01      0.00
   -8    2    1      0.07      0.00
   -8    2    0     -0.56      0.00
    8   -2    3     -0.14      0.00
    8   -2    4     -0.24      0.00
    8   -2    5      0.04      0.00
   -8    1    4     -0.19      0.00
   -8    1    3     -0.49      0.00
   -8    1    2      0.09      0.00
   -8    1    1      0.21      0.00
   -8    1    0     -0.51      0.00
    8   -1    6      0.22      0.00
   -8    0    4     -0.10      0.00
   -8    0    3     -0.61      0.00
   -8    0    2      0.09      0.00
   -8    0    1      0.19      0.00
    8    0    0     -0.66      0.00
    8    0    6      0.03      0.00
    8    0    7      0.48      0.00
   -8   -1    5      0.11      0.00
   -8   -1    4     -0.03      0.00
   -8   -1    3     -0.81      0.00
   -8   -1    2     -0.05      0.00
   -8   -1    1     -0.06      0.00
    8    1    0     -1.00      0.00
    8    1    6     -0.29      0.00
    8    1    7      0.22      0.00
    8    1    8      0.30      0.00
    8    1    9     -0.26      0.00
   -8   -2    5      0.21      0.00
   -8   -2    4      0.03      0.00
   -8   -2    3     -0.87      0.00
   -8   -2    2     -0.14      0.00
   -8   -2    1     -0.28      0.00
    8    2    0     -1.22      0.00
    8    2    6     -0.51      0.00
    8    2    7     -0.06      0.00
    8    2    8      0.23      0.00
    8    2    9     -0.28      0.00
   -8   -3    5      0.33      0.00
   -8   -3    4      0.10      0.00
   -8   -3    3     -0.64      0.00
   -8   -3    2     -0.04      0.00
   -8   -3    1     -0.26      0.00
    8    3    0     -1.09      0.00
    8    3    7     -0.19      0.00
    8    3    8      0.19      0.00
    8    3    9     -0.15      0.00
   -8   -4    5      0.40      0.00
   -8   -4    4      0.11      0.00
   -8   -4    3     -0.25      0.00
   -8   -4    1     -0.08      0.00
    8    4    7     -0.19      0.00
    8    4    8      0.17      0.00
    8    4    9      0.05      0.00
   -8   -5    5      0.35      0.00
   -8   -5    4      0.06      0.00
   -8   -5    3      0.08      0.00
   -8   -5    1      0.07      0.00
    8    5    6     -0.09      0.00
    8    5    7     -0.11      0.00
    8    5    8      0.12      0.00
    8    5    9      0.14      0.00
   -8   -6    4      0.05      0.00
   -8   -6    3      0.28      0.00
    8    6    6      0.11      0.00
    8    6    7      0.01      0.00
    8    6    8      0.06      0.00
    8    6    9      0.11      0.00
    8    7    6      0.19      0.00
    8    7    7      0.10      0.00
    8    7    8      0.03      0.00
    8    8    6      0.13      0.00
    8    8    7      0.08      0.00
    8    9    5      0.39      0.00
    8    9    6      0.07      0.00
    9   -2    1      0.29      0.00
    9   -2    2      0.03      0.00
    9   -2    3      0.25      0.00
    9   -2    4      0.49      0.00
    9   -2    5      0.14      0.00
   -9    1    3      0.03      0.00
   -9    1    0      0.26      0.00
    9   -1    4      0.44      0.00
   -9    0    3      0.08      0.00
   -9    0    1     -0.34      0.00
    9    0    0      0.35      0.00
   -9   -1    4     -0.15      0.00
   -9   -1    2     -0.07      0.00
   -9   -1    1     -0.19      0.00
    9    1    0      0.66      0.00
   -9   -2    2      0.13      0.00
   -9   -2    1      0.06      0.00
    9    2    0      1.02      0.00
   -9   -3    3      0.59      0.00
   -9   -3    2      0.19      0.00
   -9   -3    1      0.15      0.00
   -9   -4    1      0.03      0.00
   10    1    0     -0.32      0.00
  -10   -2    1      0.40      0.00
   10    2    0     -0.44      0.00
  -10   -3    1      0.35      0.00
    1    0    0    -29.09      0.00
    0    1    0     35.03      0.00
   -9    2    0      0.27      0.00
   10    3    0     -0.43      0.00
   -8    4    0     -0.43      0.00
   10    4    0     -0.26      0.00
   -7    5    0      0.54      0.00
    9    6    0      0.07      0.00
   -6    7    0     -0.49      0.00
    9    7    0      0.02      0.00
   -5    8    0      0.59      0.00
   -4    9    0     -0.40      0.00
   -3    9    0      0.22      0.00
    8    9    0      0.03      0.00
   -2   10    0     -0.02      0.00
    0   11    0      0.38      0.00
    4   11    0      0.38      0.00
    5   11    0      0.07      0.00
   -5  -11    1      0.24      0.00
   -4  -11    1      0.04      0.00
    0  -11    1     -0.10      0.00
    2  -10    1      0.26      0.00
    3   -9    1     -0.56      0.00
    4   -9    1      0.46      0.00
    5   -8    1     -0.32      0.00
    6   -7    1      0.17      0.00
   -9   -5    1     -0.12      0.00
    8   -4    1     -0.09      0.00
    0   -1    1     16.33      0.00
    0    0    1     17.26      0.00
   -9    1    1     -0.29      0.00
   10    2    1     -0.48      0.00
   -8    3    1      0.01      0.00
   10    3    1     -0.47      0.00
   10    4    1     -0.31      0.00
   -7    5    1      0.08      0.00
   10    5    1     -0.11      0.00
   -6    6    1     -0.33      0.00
    9    7    1      0.13      0.00
   -5    8    1      0.42      0.00
    9    8    1      0.15      0.00
   -3    9    1      0.54      0.00
   -2   10    1     -0.59      0.00
    0   11    1     -0.42      0.00
    5   11    1     -0.47      0.00
    6   11    1      0.53      0.00
   -4  -11    2      0.74      0.00
   -1  -11    2      0.11      0.00
   -6  -10    2      0.36      0.00
    1  -10    2      0.28      0.00
    2  -10    2     -0.36      0.00
    3   -9    2      0.09      0.00
    5   -8    2     -0.25      0.00
    6   -7    2      0.14      0.00
   -9   -6    2     -0.06      0.00
   -9   -5    2     -0.06      0.00
   -9   -4    2      0.07      0.00
   -9    0    2     -0.20      0.00
   -8    3    2     -0.01      0.00
   10    3    2      0.21      0.00
   10    4    2      0.32      0.00
   -7    5    2     -0.20      0.00
   10    5    2      0.45      0.00
   -6    6    2      0.21      0.00
   10    6    2      0.44      0.00
   -5    7    2      0.02      0.00
    9    7    2     -0.42      0.00
    9    8    2     -0.10      0.00
   -2   10    2     -0.06      0.00
    0   11    2     -0.73      0.00
    5   11    2      0.43      0.00
    6   11    2     -0.05      0.00
   -5  -10    3     -0.37      0.00
    1  -10    3     -0.35      0.00
    3   -9    3     -0.01      0.00
   -9   -4    3      0.38      0.00
   -9   -2    3      0.52      0.00
   -9   -1    3      0.28      0.00
   -8    2    3     -0.48      0.00
   -7    4    3      0.76      0.00
   10    4    3     -0.38      0.00
   10    5    3     -0.24      0.00
   -6    6    3     -0.24      0.00
   10    6    3      0.01      0.00
   -5    7    3      0.16      0.00
    9    7    3     -0.29      0.00
   -4    8    3     -0.12      0.00
    9    8    3     -0.17      0.00
   -3    9    3      0.01      0.00
   -2   10    3     -0.01      0.00
    0   11    3     -0.24      0.00
    5   11    3      0.82      0.00
    6   11    3     -0.55      0.00
    0  -10    4     -0.13      0.00
    1  -10    4     -0.33      0.00
   -5   -9    4     -0.06      0.00
    2   -9    4      0.58      0.00
    3   -9    4     -0.18      0.00
    4   -8    4      0.11      0.00
   -7    3    4      0.51      0.00
   -7    4    4      0.32      0.00
   10    4    4     -0.61      0.00
   -6    5    4     -0.50      0.00
   10    5    4     -0.49      0.00
   -5    7    4      0.07      0.00
    9    7    4     -0.35      0.00
   -4    8    4      0.05      0.00
    9    8    4     -0.24      0.00
    8    9    4      0.24      0.00
    7   10    4     -0.53      0.00
    1   11    4      0.02      0.00
    5   11    4      0.30      0.00
   -2  -10    5      0.13      0.00
   -1  -10    5      0.04      0.00
   -5   -9    5     -0.27      0.00
    1   -9    5      0.19      0.00
    2   -9    5      0.01      0.00
   -6   -8    5      0.17      0.00
    3   -8    5     -0.03      0.00
    4   -8    5      0.00      0.00
   -7   -7    5     -0.31      0.00
   -6   -7    5      0.20      0.00
    5   -7    5      0.00      0.00
    9   -1    5      0.23      0.00
   -7    2    5      0.10      0.00
   -7    3    5      0.02      0.00
   10    3    5      0.05      0.00
   -6    4    5      0.10      0.00
   10    4    5      0.10      0.00
   10    5    5      0.17      0.00
   -5    6    5     -0.04      0.00
   -4    7    5      0.07      0.00
    9    7    5     -0.40      0.00
    9    8    5     -0.24      0.00
    0   10    5     -0.45      0.00
    5   11    5     -0.13      0.00
   -2   -9    6      0.02      0.00
   -1   -9    6     -0.21      0.00
    0   -9    6      0.00      0.00
    1   -9    6      0.13      0.00
    2   -8    6     -0.20      0.00
    3   -8    6      0.06      0.00
   -6   -7    6     -0.28      0.00
    4   -7    6     -0.12      0.00
   -7   -5    6      0.14      0.00
    8   -3    6      0.14      0.00
    8   -2    6      0.21      0.00
    9   -1    6      0.05      0.00
    9    0    6      0.09      0.00
   -7    1    6      0.16      0.00
    9    1    6      0.22      0.00
   -6    3    6     -0.26      0.00
   -5    5    6     -0.09      0.00
    9    6    6     -0.05      0.00
    9    7    6     -0.12      0.00
    1   10    6      0.31      0.00
    5   10    6      0.67      0.00
    6   10    6     -0.37      0.00
   -3   -8    7      0.15      0.00
   -2   -8    7     -0.20      0.00
   -1   -8    7      0.16      0.00
    0   -8    7     -0.18      0.00
    1   -8    7      0.22      0.00
    2   -8    7     -0.20      0.00
    3   -7    7      0.18      0.00
    5   -6    7     -0.05      0.00
   -6   -5    7     -0.28      0.00
    8   -2    7      0.35      0.00
    8   -1    7      0.53      0.00
    9    0    7     -0.26      0.00
   -6    1    7     -0.31      0.00
    9    1    7     -0.09      0.00
   -6    2    7     -0.29      0.00
    9    2    7      0.15      0.00
    9    3    7      0.29      0.00
   -5    4    7      0.35      0.00
    9    4    7      0.28      0.00
    9    5    7      0.21      0.00
    9    6    7      0.10      0.00
    0    9    7     -0.20      0.00
    7    9    7      0.20      0.00
    2   10    7      0.22      0.00
    5   10    7      0.53      0.00
   -3   -7    8      0.08      0.00
   -2   -7    8     -0.35      0.00
   -1   -7    8      0.44      0.00
    0   -7    8     -0.48      0.00
    1   -7    8      0.35      0.00
    2   -7    8     -0.42      0.00
    3   -6    8      0.51      0.00
    4   -6    8     -0.28      0.00
   -5   -5    8     -0.17      0.00
   -4   -5    8      0.17      0.00
   -5   -4    8     -0.38      0.00
   -5   -3    8     -0.43      0.00
    8   -1    8      0.09      0.00
    8    0    8      0.28      0.00
   -5    1    8     -0.06      0.00
   -5    2    8     -0.03      0.00
    9    3    8     -0.15      0.00
   -4    4    8      0.10      0.00
    9    4    8     -0.09      0.00
    1    9    8      0.70      0.00
    2    9    8     -0.58      0.00
    3    9    8      0.30      0.00
    4    9    8      0.00      0.00
    5    9    8     -0.08      0.00
    6    9    8     -0.24      0.00
   -2   -6    9     -0.05      0.00
   -1   -6    9      0.16      0.00
    0   -6    9     -0.13      0.00
    1   -6    9     -0.08      0.00
    2   -6    9      0.06      0.00
   -3   -5    9     -0.40      0.00
    3   -5    9      0.00      0.00
    4   -5    9     -0.03      0.00
   -4   -4    9      0.66      0.00
   -3   -4    9     -0.81      0.00
   -4   -3    9      0.83      0.00
   -4   -2    9      0.69      0.00
   -4   -1    9      0.38      0.00
    7   -1    9      0.75      0.00
   -4    0    9      0.23      0.00
    7    0    9      0.82      0.00
   -4    1    9      0.29      0.00
   -4    2    9      0.34      0.00
    7    7    9      0.19      0.00
    1    8    9      0.03      0.00
    2    8    9     -0.25      0.00
    3    8    9      0.33      0.00
    4    8    9     -0.15      0.00
    5    8    9     -0.05      0.00
    6    8    9     -0.12      0.00
   -1   -5   10     -0.36      0.00
    0   -5   10      0.51      0.00
    1   -5   10     -0.49      0.00
    2   -5   10      0.50      0.00
   -2   -4   10      0.24      0.00
   -1   -4   10     -0.53      0.00
    0   -4   10      0.86      0.00
    1   -4   10     -0.76      0.00
    2   -4   10      0.70      0.00
    3   -4   10     -0.74      0.00
   -3   -3   10      0.01      0.00
   -2   -3   10      0.23      0.00
   -3   -2   10      0.22      0.00
   -3   -1   10      0.46      0.00
   -3    0   10      0.52      0.00
   -3    1   10      0.31      0.00
    7    1   10     -0.01      0.00
   -3    2   10      0.05      0.00
    7    5   10     -0.11      0.00
    0    6   10      0.10      0.00
    4    6   10      0.04      0.00
    5    6   10     -0.21      0.00
    6    6   10      0.11      0.00
    2    7   10      0.29      0.00
    3    7   10     -0.13      0.00
    4    7   10     -0.04      0.00
    5    7   10     -0.07      0.00
    0   -3   11      0.05      0.00
    1   -3   11     -0.04      0.00
    2   -3   11     -0.24      0.00
   -1   -2   11      0.40      0.00
    2   -2   11     -0.56      0.00
    3   -2   11      0.21      0.00
    4   -2   11      0.29      0.00
   -1   -1   11      0.55      0.00
   -1    0   11      0.64      0.00
    4    3   11      0.31      0.00
    5    3   11     -0.39      0.00
    6    3   11      0.39      0.00
    2    4   11      0.33      0.00
    3    4   11     -0.23      0.00
    4    4   11      0.19      0.00
    5    4   11     -0.31      0.00
    2    5   11      0.26      0.00
    3    5   11     -0.12      0.00
    4    5   11      0.02      0.00
    5    5   11     -0.17      0.00
    0    0    0      0.00      0.00
# SQUEEZE RESULTS (Version =  70515)
# Note: Data are Listed for all Voids in the P1 Unit Cell
# i.e. Centre of Gravity, Solvent Accessible Volume,
# Recovered number of Electrons in the Void and
# Details about the Squeezed Material
loop_
  _platon_squeeze_void_nr
  _platon_squeeze_void_average_x
  _platon_squeeze_void_average_y
  _platon_squeeze_void_average_z
  _platon_squeeze_void_volume
  _platon_squeeze_void_count_electrons
  _platon_squeeze_void_content
   1  0.500  0.000  0.000       129        35 ' '
# Missing Reflections Below sin(th)/lambda = 0.25
loop_
  _platon_missing_refln_index_h
  _platon_missing_refln_index_k
  _platon_missing_refln_index_l
  _platon_missing_refln_theta
    1    0    0     2.749
    0    1    0     2.370
    0   -1    1     3.378
    0    0    1     2.282
_platon_squeeze_void_probe_radius                  1.20
_platon_squeeze_details
)
TITL shelxt_a.res in P-1
CELL    7.9088    8.9979    9.1722     83.38     77.03     73.00
SPGR P-1
# Solvent Accessible Volume =     133.7
# Electrons Found in S.A.V. =      34.6
# Note: Atoms in Void as Cxxx and Qxxx all others
C101 0.433 0.995 0.312 !       5.05 eA-3
C102 0.598 0.021-0.003 !       3.86 eA-3
C103 0.448 0.023 0.081 !       3.52 eA-3
Q104 0.942 0.968 0.226 !       0.90 eA-3
Q105 0.402 0.717 0.211 !       0.77 eA-3
Q106 0.867 0.897 0.343 !       0.77 eA-3
Q107 0.437 0.539 0.468 !       0.77 eA-3
Q108 0.879 0.311 0.464 !       0.71 eA-3
Q109 0.715 0.236 0.028 !       0.69 eA-3
Q110 0.753 0.691 0.120 !       0.67 eA-3
Q111 0.185 0.386 0.110 !       0.67 eA-3
Q112 0.311 0.298 0.368 !       0.64 eA-3
Q113 0.601 0.168 0.384 !       0.64 eA-3
Q114 0.900 0.291 0.007 !       0.62 eA-3
Q115 0.929 0.398 0.437 !       0.62 eA-3
Q116 0.936 0.124 0.324 !       0.59 eA-3
Q117 0.686 0.624 0.430 !       0.56 eA-3
Q118 0.882 0.587 0.226 !       0.55 eA-3
Q119 0.117 0.116 0.334 !       0.52 eA-3
Q120 0.560 0.690 0.372 !       0.50 eA-3
)
;
_shelx_fab_checksum              39820
loop_
_space_group_symop_operation_xyz
'x, y, z'
'-x, -y, -z'
loop_
_atom_site_label
_atom_site_type_symbol
_atom_site_fract_x
_atom_site_fract_y
_atom_site_fract_z
_atom_site_U_iso_or_equiv
_atom_site_adp_type
_atom_site_occupancy
_atom_site_site_symmetry_order
_atom_site_calc_flag
_atom_site_refinement_flags_posn
_atom_site_refinement_flags_adp
_atom_site_refinement_flags_occupancy
_atom_site_disorder_assembly
_atom_site_disorder_group
C11 C 0.6312(3) 0.3800(3) 0.7788(3) 0.0320(6) Uani 1 1 d . . . . .
C12 C 0.6786(4) 0.6036(3) 0.7093(3) 0.0391(6) Uani 1 1 d . . . . .
C13 C 0.7423(4) 0.5553(4) 0.8358(3) 0.0428(7) Uani 1 1 d . . . . .
C14 C 0.7616(4) 0.3166(4) 1.0112(3) 0.0486(7) Uani 1 1 d . . . . .
H14A H 0.7284 0.2215 1.0153 0.073 Uiso 1 1 calc R U . . .
H14B H 0.6991 0.3716 1.0999 0.073 Uiso 1 1 calc R U . . .
H14C H 0.8895 0.2931 1.0048 0.073 Uiso 1 1 calc R U . . .
C21 C 0.3005(4) 0.8061(3) 0.6186(3) 0.0394(7) Uani 1 1 d . . . . .
C22 C 0.1153(3) 0.6829(4) 0.5947(4) 0.0455(7) Uani 1 1 d . . . . .
C23 C 0.0162(4) 0.8195(4) 0.6502(4) 0.0504(8) Uani 1 1 d . . . . .
C24 C 0.0885(5) 1.0522(4) 0.7261(5) 0.0736(11) Uani 1 1 d . . . . .
H24A H -0.0403 1.0932 0.7510 0.110 Uiso 0.5 1 calc R U P . .
H24B H 0.1375 1.0431 0.8145 0.110 Uiso 0.5 1 calc R U P . .
H24C H 0.1383 1.1211 0.6526 0.110 Uiso 0.5 1 calc R U P . .
H24D H 0.1973 1.0784 0.7277 0.110 Uiso 0.5 1 calc R U P . .
H24E H 0.0195 1.1285 0.6642 0.110 Uiso 0.5 1 calc R U P . .
H24F H 0.0187 1.0505 0.8262 0.110 Uiso 0.5 1 calc R U P . .
N1 N 0.6263(3) 0.6540(2) 0.4018(2) 0.0359(5) Uani 1 1 d . . . . .
N2 N 0.7242(3) 0.6381(2) 0.2806(3) 0.0354(5) Uani 1 1 d . . . . .
N3 N 0.8184(4) 0.6319(3) 0.1646(3) 0.0625(8) Uani 1 1 d . . . . .
N11 N 0.6070(2) 0.4927(2) 0.6736(2) 0.0298(5) Uani 1 1 d . . . . .
N12 N 0.7129(3) 0.4131(3) 0.8796(2) 0.0358(5) Uani 1 1 d . . . . .
N21 N 0.2951(2) 0.6736(2) 0.5749(2) 0.0299(5) Uani 1 1 d . . . . .
N22 N 0.1344(3) 0.8982(3) 0.6653(3) 0.0424(6) Uani 1 1 d . . . . .
Co Co 0.5000 0.5000 0.5000 0.02719(16) Uani 1 2 d S . P . .
H11 H 0.597(3) 0.288(3) 0.788(3) 0.028(6) Uiso 1 1 d . . . . .
H12 H 0.676(3) 0.700(3) 0.647(3) 0.041(7) Uiso 1 1 d . . . . .
H13 H 0.791(4) 0.603(4) 0.892(4) 0.058(9) Uiso 1 1 d . . . . .
H21 H 0.404(4) 0.834(3) 0.621(3) 0.045(8) Uiso 1 1 d . . . . .
H22 H 0.080(3) 0.589(4) 0.570(3) 0.049(8) Uiso 1 1 d . . . . .
H23 H -0.107(4) 0.875(4) 0.667(4) 0.062(9) Uiso 1 1 d . . . . .
loop_
_atom_site_aniso_label
_atom_site_aniso_U_11
_atom_site_aniso_U_22
_atom_site_aniso_U_33
_atom_site_aniso_U_23
_atom_site_aniso_U_13
_atom_site_aniso_U_12
C11 0.0325(13) 0.0313(15) 0.0315(14) -0.0050(12) -0.0034(11) -0.0086(11)
C12 0.0462(15) 0.0350(16) 0.0432(17) 0.0011(13) -0.0161(13) -0.0180(13)
C13 0.0486(16) 0.0447(18) 0.0440(17) -0.0037(14) -0.0188(13) -0.0186(14)
C14 0.0540(17) 0.056(2) 0.0346(16) 0.0054(14) -0.0148(14) -0.0114(15)
C21 0.0349(14) 0.0354(16) 0.0475(17) -0.0111(13) -0.0074(12) -0.0066(12)
C22 0.0331(14) 0.0372(16) 0.066(2) -0.0084(15) -0.0082(13) -0.0079(13)
C23 0.0339(15) 0.0421(18) 0.065(2) -0.0080(16) -0.0041(14) 0.0021(14)
C24 0.077(2) 0.047(2) 0.092(3) -0.035(2) -0.027(2) 0.0080(18)
N1 0.0441(12) 0.0324(12) 0.0326(12) -0.0056(10) 0.0013(10) -0.0179(10)
N2 0.0372(12) 0.0322(12) 0.0395(14) -0.0016(10) -0.0056(10) -0.0154(10)
N3 0.0658(17) 0.072(2) 0.0474(17) -0.0116(15) 0.0153(14) -0.0331(15)
N11 0.0311(10) 0.0292(11) 0.0299(11) -0.0047(10) -0.0045(9) -0.0093(9)
N12 0.0346(11) 0.0436(14) 0.0283(12) 0.0002(10) -0.0085(9) -0.0084(10)
N21 0.0308(11) 0.0275(12) 0.0302(11) -0.0032(9) -0.0041(9) -0.0070(9)
N22 0.0451(13) 0.0301(13) 0.0472(15) -0.0116(11) -0.0104(11) 0.0014(10)
Co 0.0298(3) 0.0255(3) 0.0264(3) -0.0031(2) -0.00375(19) -0.0087(2)
loop_
_atom_type_symbol
_atom_type_description
_atom_type_scat_dispersion_real
_atom_type_scat_dispersion_imag
_atom_type_scat_source
C C 0.0033 0.0016 'International Tables Vol C Tables 4.2.6.8 and 6.1.1.4'
H H 0.0000 0.0000 'International Tables Vol C Tables 4.2.6.8 and 6.1.1.4'
N N 0.0061 0.0033 'International Tables Vol C Tables 4.2.6.8 and 6.1.1.4'
Co Co 0.3494 0.9721 'International Tables Vol C Tables 4.2.6.8 and 6.1.1.4'
loop_
_geom_angle_atom_site_label_1
_geom_angle_atom_site_label_2
_geom_angle_atom_site_label_3
_geom_angle
_geom_angle_site_symmetry_1
_geom_angle_site_symmetry_3
_geom_angle_publ_flag
N11 C11 N12 111.3(2) . . ?
C13 C12 N11 109.1(3) . . ?
C12 C13 N12 107.0(2) . . ?
N21 C21 N22 111.3(2) . . ?
C23 C22 N21 109.7(3) . . ?
C22 C23 N22 106.8(2) . . ?
N2 N1 Co 122.94(16) . . ?
N3 N2 N1 175.9(3) . . ?
C11 N11 C12 105.6(2) . . ?
C11 N11 Co 127.58(17) . . ?
C12 N11 Co 126.81(19) . . ?
C11 N12 C13 106.9(2) . . ?
C11 N12 C14 127.0(2) . . ?
C13 N12 C14 126.1(2) . . ?
C21 N21 C22 105.4(2) . . ?
C21 N21 Co 127.16(17) . . ?
C22 N21 Co 127.40(18) . . ?
C21 N22 C23 106.9(2) . . ?
C21 N22 C24 126.4(2) . . ?
C23 N22 C24 126.7(2) . . ?
N11 Co N11 180.0 . 2_666 ?
N11 Co N21 88.06(8) . 2_666 ?
N11 Co N21 91.94(8) 2_666 2_666 ?
N11 Co N21 91.94(8) . . ?
N11 Co N21 88.06(8) 2_666 . ?
N21 Co N21 180.0 2_666 . ?
N11 Co N1 88.64(9) . . ?
N11 Co N1 91.36(9) 2_666 . ?
N21 Co N1 92.33(8) 2_666 . ?
N21 Co N1 87.67(8) . . ?
N11 Co N1 91.36(9) . 2_666 ?
N11 Co N1 88.64(9) 2_666 2_666 ?
N21 Co N1 87.67(8) 2_666 2_666 ?
N21 Co N1 92.33(8) . 2_666 ?
N1 Co N1 180.0 . 2_666 ?
loop_
_geom_bond_atom_site_label_1
_geom_bond_atom_site_label_2
_geom_bond_distance
_geom_bond_site_symmetry_2
_geom_bond_publ_flag
C11 N11 1.318(3) . ?
C11 N12 1.343(3) . ?
C12 C13 1.345(4) . ?
C12 N11 1.383(3) . ?
C13 N12 1.367(4) . ?
C14 N12 1.460(3) . ?
C21 N21 1.315(3) . ?
C21 N22 1.338(3) . ?
C22 C23 1.336(4) . ?
C22 N21 1.371(3) . ?
C23 N22 1.365(4) . ?
C24 N22 1.468(4) . ?
N1 N2 1.201(3) . ?
N1 Co 1.961(2) . ?
N2 N3 1.150(3) . ?
N11 Co 1.9504(19) . ?
N21 Co 1.9510(18) . ?
Co N11 1.9504(19) 2_666 ?
Co N21 1.9510(18) 2_666 ?
Co N1 1.961(2) 2_666 ?
loop_
_geom_hbond_atom_site_label_D
_geom_hbond_atom_site_label_H
_geom_hbond_atom_site_label_A
_geom_hbond_distance_DH
_geom_hbond_distance_HA
_geom_hbond_distance_DA
_geom_hbond_angle_DHA
_geom_hbond_site_symmetry_A
C14 H14C N3 0.96 2.70 3.489(4) 140.3 2_766
C13 H13 N3 0.91(3) 2.61(3) 3.386(4) 144(3) 1_556
loop_
_geom_torsion_atom_site_label_1
_geom_torsion_atom_site_label_2
_geom_torsion_atom_site_label_3
_geom_torsion_atom_site_label_4
_geom_torsion
_geom_torsion_site_symmetry_1
_geom_torsion_site_symmetry_2
_geom_torsion_site_symmetry_3
_geom_torsion_site_symmetry_4
_geom_torsion_publ_flag
N11 C12 C13 N12 0.6(3) . . . . ?
N21 C22 C23 N22 0.3(4) . . . . ?
N12 C11 N11 C12 0.3(3) . . . . ?
N12 C11 N11 Co 178.57(14) . . . . ?
C13 C12 N11 C11 -0.6(3) . . . . ?
C13 C12 N11 Co -178.82(17) . . . . ?
N11 C11 N12 C13 0.0(3) . . . . ?
N11 C11 N12 C14 180.0(2) . . . . ?
C12 C13 N12 C11 -0.4(3) . . . . ?
C12 C13 N12 C14 179.6(2) . . . . ?
N22 C21 N21 C22 0.2(3) . . . . ?
N22 C21 N21 Co -179.17(18) . . . . ?
C23 C22 N21 C21 -0.3(4) . . . . ?
C23 C22 N21 Co 179.1(2) . . . . ?
N21 C21 N22 C23 -0.1(3) . . . . ?
N21 C21 N22 C24 178.0(3) . . . . ?
C22 C23 N22 C21 -0.1(4) . . . . ?
C22 C23 N22 C24 -178.2(3) . . . . ?
