#------------------------------------------------------------------------------
#$Date: 2021-10-20 02:20:42 +0300 (Wed, 20 Oct 2021) $
#$Revision: 270039 $
#$URL: file:///home/coder/svn-repositories/cod/cif/7/70/85/7708585.cif $
#------------------------------------------------------------------------------
#
# This file is available in the Crystallography Open Database (COD),
# http://www.crystallography.net/
#
# All data on this site have been placed in the public domain by the
# contributors.
#
data_7708585
loop_
_publ_author_name
'Hong, Kangsan'
'Lim, Sangwoo'
'Moon, Heehun'
'Kim, Dongwon'
'Kim, Dongwook'
'Jung, Ok-Sang'
_publ_section_title
;
 Straightforward formation of dianionic acetonylate: self-assembly of
 mercury(II) with pyridyl donor ligands in acetone
;
_journal_name_full               'Dalton Transactions'
_journal_paper_doi               10.1039/D1DT03115E
_journal_year                    2021
_chemical_formula_sum            'C14 H12 Cl Hg N O7'
_chemical_formula_weight         542.29
_space_group_crystal_system      triclinic
_space_group_IT_number           2
_space_group_name_Hall           '-P 1'
_space_group_name_H-M_alt        'P -1'
_atom_sites_solution_hydrogens   geom
_atom_sites_solution_primary     dual
_audit_creation_method           SHELXL-2018/3
_audit_update_record
;
2021-08-14 deposited with the CCDC.	2021-10-06 downloaded from the CCDC.
;
_cell_angle_alpha                89.2330(10)
_cell_angle_beta                 84.7050(10)
_cell_angle_gamma                69.4530(10)
_cell_formula_units_Z            2
_cell_length_a                   7.7679(9)
_cell_length_b                   9.3962(11)
_cell_length_c                   13.2250(16)
_cell_measurement_reflns_used    9894
_cell_measurement_temperature    173(2)
_cell_measurement_theta_max      28.29
_cell_measurement_theta_min      2.32
_cell_volume                     899.83(18)
_computing_cell_refinement       'Bruker APEX software'
_computing_data_collection       'Bruker APEX software'
_computing_data_reduction        'Bruker APEX software'
_computing_molecular_graphics    ORTEP
_computing_publication_material  CIFTAB
_computing_structure_refinement  SHELXL
_computing_structure_solution    'SHELXT 2018/2 (Sheldrick, 2018)'
_diffrn_ambient_temperature      173(2)
_diffrn_measured_fraction_theta_full 0.999
_diffrn_measured_fraction_theta_max 0.997
_diffrn_measurement_device_type  'CCD detector'
_diffrn_measurement_method       'phi and omega scans'
_diffrn_radiation_type           MoK\a
_diffrn_radiation_wavelength     0.71073
_diffrn_reflns_av_R_equivalents  0.0496
_diffrn_reflns_av_unetI/netI     0.0443
_diffrn_reflns_Laue_measured_fraction_full 0.999
_diffrn_reflns_Laue_measured_fraction_max 0.997
_diffrn_reflns_limit_h_max       10
_diffrn_reflns_limit_h_min       -10
_diffrn_reflns_limit_k_max       12
_diffrn_reflns_limit_k_min       -12
_diffrn_reflns_limit_l_max       17
_diffrn_reflns_limit_l_min       -17
_diffrn_reflns_number            16255
_diffrn_reflns_point_group_measured_fraction_full 0.999
_diffrn_reflns_point_group_measured_fraction_max 0.997
_diffrn_reflns_theta_full        25.242
_diffrn_reflns_theta_max         28.372
_diffrn_reflns_theta_min         2.315
_diffrn_source                   'fine-focus sealed tube'
_exptl_absorpt_coefficient_mu    8.734
_exptl_absorpt_correction_T_max  0.7457
_exptl_absorpt_correction_T_min  0.2552
_exptl_absorpt_correction_type   multi-scan
_exptl_absorpt_process_details   SADABS
_exptl_crystal_colour            colorless
_exptl_crystal_density_diffrn    2.001
_exptl_crystal_description       block
_exptl_crystal_F_000             512
_exptl_crystal_size_max          0.200
_exptl_crystal_size_mid          0.130
_exptl_crystal_size_min          0.110
_refine_diff_density_max         2.697
_refine_diff_density_min         -3.031
_refine_diff_density_rms         0.209
_refine_ls_extinction_method     none
_refine_ls_goodness_of_fit_ref   1.053
_refine_ls_hydrogen_treatment    constr
_refine_ls_matrix_type           full
_refine_ls_number_parameters     218
_refine_ls_number_reflns         4499
_refine_ls_number_restraints     323
_refine_ls_restrained_S_all      1.060
_refine_ls_R_factor_all          0.0528
_refine_ls_R_factor_gt           0.0395
_refine_ls_shift/su_max          0.001
_refine_ls_shift/su_mean         0.000
_refine_ls_structure_factor_coef Fsqd
_refine_ls_weighting_details
'w=1/[\s^2^(Fo^2^)+(0.0336P)^2^+7.5496P] where P=(Fo^2^+2Fc^2^)/3'
_refine_ls_weighting_scheme      calc
_refine_ls_wR_factor_gt          0.0953
_refine_ls_wR_factor_ref         0.1050
_reflns_Friedel_coverage         0.000
_reflns_number_gt                3821
_reflns_number_total             4499
_reflns_threshold_expression     'I > 2\s(I)'
_cod_data_source_file            d1dt03115e2.cif
_cod_data_source_block           HgClO42_monoanion_sq
_cod_depositor_comments
;
The following automatic conversions were performed:

data item '_exptl_absorpt_correction_type' value 'MULTI-SCAN' was
changed to 'multi-scan' in accordance with the
/home/data/users/saulius/crontab/automatic-downloads/rss-feeds/RSC/lib/dictionaries/cif_core.dic
dictionary named 'cif_core.dic' version 2.4.2 last updated on
2011-04-26.

Automatic conversion script
Id: cif_fix_values 7556 2019-12-06 15:28:31Z antanas 
;
_cod_database_code               7708585
_shelx_shelxl_version_number     2018/3
_shelx_space_group_comment
;
The symmetry employed for this shelxl refinement is uniquely defined
by the following loop, which should always be used as a source of
symmetry information in preference to the above space-group names.
They are only intended as comments.
;
_shelx_estimated_absorpt_t_min   0.274
_shelx_estimated_absorpt_t_max   0.447
_shelx_res_file
;
TITL HgClO42_O-NPE_a.res in P-1
    HgClO42_monoanion_sq.res
    created by SHELXL-2018/3 at 16:07:36 on 13-Aug-2021
REM Old TITL HgClO42_O-NPE in P1
REM SHELXT solution in P-1: R1 0.141, Rweak 0.007, Alpha 0.034
REM <I/s>   0.000 for    0 systematic absences,  Orientation as input
REM Formula found by SHELXT:  C17 N2 O3 Cl Hg
CELL  0.71073   7.7679   9.3962  13.2250   89.233   84.705   69.453
ZERR    2.000   0.0009   0.0011   0.0016    0.001    0.001    0.001
LATT  1
SFAC C H N O CL HG
UNIT 28 24 2 14 2 2
ACTA
SIMU 0.01
DELU 0.01
ISOR 0.01
TEMP -100
SIZE 0.2 0.13 0.11
L.S. 5 0   24
BOND $H
FMAP 2
PLAN 20
ABIN
LIST 4
WGHT    0.033600    7.549600
FVAR       0.43537
HG1   6    0.013988    0.263768    0.573544    11.00000    0.03701    0.03485 =
         0.04162   -0.01005   -0.00957   -0.01626
C13L  1    0.203994    0.367888    0.732722    11.00000    0.03348    0.04762 =
         0.04486   -0.02041   -0.00339   -0.01299
AFIX  43
H13   2    0.083958    0.441940    0.746171    11.00000   -1.20000
AFIX   0
C14L  1    0.344733    0.376586    0.784441    11.00000    0.03538    0.04979 =
         0.04305   -0.02427   -0.00234   -0.01649
AFIX  43
H14   2    0.322453    0.455297    0.833638    11.00000   -1.20000
AFIX   0
N12L  3    0.231727    0.256734    0.663170    11.00000    0.03247    0.03936 =
         0.03562   -0.01211   -0.00331   -0.01752
C11L  1    0.397964    0.150721    0.646092    11.00000    0.03661    0.03923 =
         0.03986   -0.01454   -0.00383   -0.01395
AFIX  43
H11   2    0.415546    0.070464    0.598835    11.00000   -1.20000
AFIX   0
C10L  1    0.546254    0.153760    0.695109    11.00000    0.03294    0.03954 =
         0.04254   -0.01460   -0.00424   -0.01023
AFIX  43
H10   2    0.664632    0.077428    0.681441    11.00000   -1.20000
AFIX   0
C9L   1    0.518707    0.270159    0.764412    11.00000    0.03159    0.04512 =
         0.03916   -0.01418   -0.00323   -0.01681
O8L   4    0.838640    0.219260    0.778060    11.00000    0.03156    0.07781 =
         0.05573   -0.02922   -0.00461   -0.01221
C7L   1    0.682628    0.278933    0.812214    11.00000    0.03367    0.05667 =
         0.04312   -0.01609   -0.00422   -0.01775
O6L   4    0.629304    0.367292    0.897718    11.00000    0.03390    0.07265 =
         0.04709   -0.02563   -0.00335   -0.02197
C5L   1    0.804151    0.524445    0.920090    11.00000    0.03631    0.06201 =
         0.03904   -0.01494   -0.00771   -0.01470
AFIX  43
H5L   2    0.731847    0.594584    0.874667    11.00000   -1.20000
AFIX   0
C4L   1    0.772829    0.394532    0.943086    11.00000    0.03534    0.06555 =
         0.04071   -0.01916   -0.00592   -0.02061
O4A   4   -0.410063    0.575893    0.686169    11.00000    0.10560    0.09871 =
         0.10791    0.00472    0.00774   -0.06014
O1E   4   -0.204838    0.037126    0.472730    11.00000    0.04484    0.03469 =
         0.05899   -0.01076   -0.01375   -0.01419
C3L   1    0.870391    0.287653    1.011421    11.00000    0.04872    0.06476 =
         0.05353   -0.00988   -0.00949   -0.02352
AFIX  43
H3L   2    0.842409    0.198501    1.026141    11.00000   -1.20000
AFIX   0
C3E   1   -0.112842    0.143045    0.324584    11.00000    0.06509    0.06224 =
         0.05616   -0.01570    0.00197   -0.02637
AFIX 137
H3EA  2   -0.084230    0.040665    0.296149    11.00000   -1.50000
H3EB  2   -0.001711    0.170390    0.316815    11.00000   -1.50000
H3EC  2   -0.209956    0.215945    0.288541    11.00000   -1.50000
AFIX   0
O3A   4   -0.383218    0.751303    0.567572    11.00000    0.11955    0.15164 =
         0.09838    0.05782   -0.04720   -0.04226
C2L   1    1.007563    0.316248    1.056262    11.00000    0.04822    0.06391 =
         0.05048   -0.00595   -0.01414   -0.01865
AFIX  43
H2L   2    1.074333    0.245939    1.103417    11.00000   -1.20000
AFIX   0
O2A   4   -0.130634    0.587307    0.633869    11.00000    0.05194    0.06497 =
         0.17908   -0.02356   -0.00823   -0.00365
C1L   1    1.051845    0.446046    1.034483    11.00000    0.03570    0.05782 =
         0.03659   -0.01455   -0.00636   -0.01435
CL1A  5   -0.317772    0.674303    0.652639    11.00000    0.03794    0.04069 =
         0.05170    0.00014   -0.00886   -0.00863
O1A   4   -0.333310    0.780775    0.729718    11.00000    0.17572    0.07328 =
         0.10312   -0.03332    0.00088   -0.03646
C1E   1   -0.176465    0.146229    0.432412    11.00000    0.03220    0.03607 =
         0.04792   -0.01082   -0.01618   -0.00955
C2E   1   -0.210368    0.288649    0.491620    11.00000    0.03862    0.03540 =
         0.04644   -0.00389   -0.01572   -0.01110
AFIX  23
H2E1  2   -0.323716    0.310693    0.538703    11.00000   -1.20000
H2E2  2   -0.228441    0.374842    0.444906    11.00000   -1.20000
REM #####
CONF
REM  HgClO42_O-NPE_a.res in P-1
REM wR2 = 0.1240, GooF = S = 1.074, Restrained GooF = 1.087 for all data
REM R1 = 0.0441 for 3821 Fo > 4sig(Fo) and 0.0574 for all 4499 data
REM 218 parameters refined using 323 restraints
MERG 2
AFIX   0
HKLF 4




REM  HgClO42_O-NPE_a.res in P-1
REM wR2 = 0.1050, GooF = S = 1.053, Restrained GooF = 1.060 for all data
REM R1 = 0.0395 for 3821 Fo > 4sig(Fo) and 0.0528 for all 4499 data
REM 218 parameters refined using 323 restraints

END

WGHT      0.0336      7.5422

REM Highest difference peak  2.697,  deepest hole -3.031,  1-sigma level  0.209
Q1    1   0.0385  0.2452  0.5150  11.00000  0.05    2.70
Q2    1   0.0001  0.1801  0.5776  11.00000  0.05    2.03
Q3    1   0.0344  0.3358  0.5703  11.00000  0.05    2.02
Q4    1  -0.0066  0.2757  0.6341  11.00000  0.05    1.98
Q5    1  -0.0630  0.3417  0.5775  11.00000  0.05    1.91
Q6    1   0.0873  0.1638  0.5663  11.00000  0.05    1.60
Q7    1   0.0029  0.3584  0.4994  11.00000  0.05    1.44
Q8    1   0.0021  0.1782  0.6512  11.00000  0.05    1.43
Q9    1  -0.0434  0.2054  0.2774  11.00000  0.05    1.32
Q10   1  -0.0210  0.1627  0.5004  11.00000  0.05    0.95
Q11   1   0.0481  0.3561  0.6504  11.00000  0.05    0.92
Q12   1  -0.1064  0.3450  0.4991  11.00000  0.05    0.88
Q13   1   0.0279  0.2366  0.7030  11.00000  0.05    0.88
Q14   1   0.0183  0.2784  0.4392  11.00000  0.05    0.88
Q15   1   0.0150 -0.0856  0.4377  11.00000  0.05    0.81
Q16   1  -0.1361 -0.0730  0.3309  11.00000  0.05    0.78
Q17   1  -0.1470  0.6183  0.5529  11.00000  0.05    0.73
Q18   1  -0.3022  0.6246  0.5543  11.00000  0.05    0.68
Q19   1  -0.0980  0.4576  0.4825  11.00000  0.05    0.67
Q20   1  -0.0350  0.0930  0.4113  11.00000  0.05    0.62
;
_shelx_res_checksum              10729
_shelx_hkl_file
;
  -1   0   0 1790.02  103.19
  -1   0   0 1884.01  106.79
  -1   0   0 1948.01   96.89
  -1   0   0 1814.72  108.69
  -2   0   0 1075.09   66.09
  -2   0   0 1114.99   68.39
  -2   0   0 1121.49   69.39
  -2   0   0 1249.88   73.19
  -2   0   0 1232.08   62.69
  -3   0   0 1997.20  119.49
  -3   0   0 2008.10  126.39
  -3   0   0 1907.31  152.68
  -3   0   0 2286.27  130.09
  -3   0   0 2137.49  110.29
   3   0   0 2216.08  121.19
  -4   0   0 1087.09   69.79
  -4   0   0 1337.67   73.89
  -4   0   0 1242.98   63.49
  -4   0   0 1158.58   71.49
  -4   0   0 1121.99   67.59
   4   0   0 1209.58   71.39
   4   0   0 1472.05   96.89
   4   0   0 1251.87   67.99
  -5   0   0 1156.68   68.99
  -5   0   0 1165.38   70.79
  -5   0   0 1052.29   66.59
  -5   0   0 1265.67   72.89
  -5   0   0 1226.38   62.79
   5   0   0 1235.88   70.69
   5   0   0 1269.77   67.19
  -6   0   0  970.70   59.39
  -6   0   0  917.81   57.89
  -6   0   0  905.61   56.19
  -6   0   0  944.91   51.19
   6   0   0  934.51   54.69
   6   0   0 1073.39   59.39
   6   0   0  940.71   57.69
  -7   0   0  205.88   17.20
  -7   0   0  189.08   13.90
  -7   0   0  219.68   17.00
  -7   0   0  198.28   15.40
   7   0   0  192.08   14.60
   7   0   0  187.08   15.20
   7   0   0  214.68   16.80
   7   0   0  200.28   16.40
  -8   0   0   85.69   10.90
  -8   0   0   77.59   13.00
  -8   0   0   70.49   10.30
   8   0   0   72.69   10.60
   8   0   0   77.59   12.00
   8   0   0   83.89   10.90
  -9   0   0  107.39   13.20
   9   0   0   98.09   14.70
   9   0   0  114.89   13.20
   9  -1   0   12.00    9.00
  -9   1   0   20.60   10.50
   8  -1   0   75.19   12.50
   8  -1   0   68.09   12.00
   8  -1   0   73.99   11.50
  -8   1   0   82.79   10.90
  -8   1   0   89.29   14.00
   7  -1   0  127.29   13.50
   7  -1   0  135.99   13.00
   7  -1   0  130.49   13.10
  -7   1   0  124.09   11.40
  -7   1   0  133.39   14.40
  -7   1   0  134.19   11.80
   6  -1   0  100.59   10.10
   6  -1   0   90.69   10.40
   6  -1   0   89.89   10.10
  -6   1   0  105.99    9.10
  -6   1   0   95.59   11.00
  -6   1   0  107.99   10.20
  -6   1   0   81.29    8.50
   5  -1   0  145.09   11.70
   5  -1   0  161.48   12.20
  -5   1   0  147.19   10.40
  -5   1   0  158.78   12.20
  -5   1   0  139.29   10.80
  -5   1   0  140.79   11.60
   4  -1   0  626.64   35.40
   4  -1   0  570.24   32.90
  -4   1   0  575.24   30.30
  -4   1   0  513.95   32.50
  -4   1   0  543.95   34.40
  -4   1   0  527.25   32.90
  -4   1   0  579.44   35.30
   3  -1   0    7.80    2.60
   3  -1   0    4.00    2.40
  -3   1   0    6.00    2.30
  -3   1   0    5.60    1.70
  -3   1   0    5.30    1.80
  -3   1   0    3.10    2.30
  -3   1   0    3.30    2.20
   2  -1   0  125.49    8.40
   2  -1   0  140.39    9.00
  -2   1   0  114.49    8.20
  -2   1   0  120.39    8.00
  -2   1   0  140.09    9.00
  -2   1   0  130.19    7.50
  -2   1   0  123.79    8.60
   1  -1   0   -2.50    1.10
   1  -1   0   -2.40    1.10
  -1   1   0   -2.80    1.00
  -1   1   0   -3.20    1.00
  -1   1   0   -1.90    0.70
   0   1   0  200.18   12.30
  -1  -1   0  748.93   37.60
  -1  -1   0  691.23   43.80
  -1  -1   0  685.53   41.60
  -1  -1   0  705.33   39.10
   1   1   0  668.53   37.20
  -2  -1   0  245.68   15.50
  -2  -1   0  261.87   14.10
  -2  -1   0  253.77   14.60
   2   1   0  273.17   15.90
  -3  -1   0  744.13   37.80
  -3  -1   0  670.23   39.80
  -3  -1   0  720.13   41.70
  -3  -1   0  708.13   42.40
   3   1   0  753.52   42.50
  -4  -1   0  726.43   41.10
  -4  -1   0  664.53   41.70
  -4  -1   0  721.93   37.20
  -4  -1   0  656.63   39.00
  -4  -1   0  650.23   43.50
   4   1   0  725.93   41.80
   4   1   0  739.83   39.30
  -5  -1   0  368.26   20.90
  -5  -1   0  393.06   25.10
  -5  -1   0  332.07   21.50
  -5  -1   0  374.26   23.10
  -5  -1   0  342.77   23.50
   5   1   0  374.56   21.90
   5   1   0  380.96   23.60
  -6  -1   0  422.36   27.60
  -6  -1   0  407.46   23.70
  -6  -1   0  356.16   26.30
  -6  -1   0  401.36   25.80
   6   1   0  406.26   26.40
   6   1   0  417.96   23.70
   6   1   0  411.16   24.70
  -7  -1   0  182.38   14.90
  -7  -1   0  161.78   13.30
  -7  -1   0  161.58   14.00
   7   1   0  173.68   14.60
   7   1   0  186.88   14.80
   7   1   0  160.38   12.90
   7   1   0  165.48   13.20
  -8  -1   0  146.19   13.60
  -8  -1   0  143.69   13.80
   8   1   0  134.99   14.50
   8   1   0  147.89   13.50
  -9  -1   0  101.19   13.10
  -9  -1   0  102.29   13.30
   9   1   0  100.79   12.80
   9   1   0   89.19   13.70
   8  -2   0   87.19   11.70
   8  -2   0   76.79   13.80
  -8   2   0   86.79   15.30
   7  -2   0  472.65   31.30
   7  -2   0  476.35   32.50
   7  -2   0  463.35   32.70
  -7   2   0  462.85   27.90
  -7   2   0  489.25   33.40
   6  -2   0  451.75   30.70
   6  -2   0  478.25   29.80
  -6   2   0  454.85   26.40
  -6   2   0  444.56   30.30
   5  -2   0  493.05   30.60
   5  -2   0  502.25   32.30
  -5   2   0  495.45   27.50
  -5   2   0  485.45   31.80
   4  -2   0 1202.58   66.09
   4  -2   0 1185.78   70.79
  -4   2   0 1104.29   68.99
  -4   2   0 1172.88   60.79
   3  -2   0 2280.37  123.79
   3  -2   0 2308.07  137.39
  -3   2   0 2121.99  122.89
  -3   2   0 2103.79  132.19
  -3   2   0 2264.47  118.49
   2  -2   0 2984.00  170.38
   2  -2   0 3019.50  183.28
   2  -2   0 3027.30  171.28
  -2   2   0 3034.70  156.48
  -2   2   0 2909.81  178.38
  -2   2   0 2891.01  169.48
   1  -2   0 4976.70  272.07
   1  -2   0 5125.39  294.37
  -1   2   0 4245.68  250.97
  -1   2   0 5001.20  286.27
  -1   2   0 5052.99  272.47
   0  -2   0 5878.41  372.46
   0  -2   0 5651.83  411.26
   0  -2   0 6094.39  358.86
   0   2   0 5491.35  347.97
   0   2   0 5640.94  388.16
  -1  -2   0 1181.68   71.49
  -1  -2   0 1127.49   87.49
  -1  -2   0 1173.18   75.19
   1   2   0 1198.08   64.79
   1   2   0 1331.27   73.39
  -2  -2   0 1511.75   99.19
  -2  -2   0 1629.24  117.79
  -2  -2   0 1716.83  100.49
  -2  -2   0 1566.14   91.99
   2   2   0 1510.65  119.89
  -3  -2   0 2480.85  141.89
  -3  -2   0 2259.97  148.79
  -3  -2   0 2519.25  128.79
  -3  -2   0 2344.27  132.59
   3   2   0 2388.16  128.49
  -4  -2   0 1288.17   65.49
  -4  -2   0 1136.29   85.49
  -4  -2   0 1313.57   72.49
   4   2   0 1291.17   65.39
   4   2   0 1219.68   73.89
  -5  -2   0  794.82   49.99
  -5  -2   0  930.31   53.19
  -5  -2   0  929.21   48.10
   5   2   0  934.11   50.39
   5   2   0  905.11   54.19
   5   2   0  926.11   48.00
  -6  -2   0 1001.80   65.09
  -6  -2   0 1076.69   55.59
  -6  -2   0 1077.69   61.59
  -6  -2   0  937.01   57.99
   6   2   0 1074.99   58.39
   6   2   0 1092.99   55.59
   6   2   0 1035.20   62.69
  -7  -2   0  120.49   10.90
  -7  -2   0  103.69   11.60
  -7  -2   0  135.99   13.30
   7   2   0  117.09   10.80
   7   2   0  104.49   11.50
   7   2   0  103.49    9.50
  -8  -2   0  160.88   12.80
  -8  -2   0  167.18   16.00
  -8  -2   0  152.38   15.00
   8   2   0  151.58   12.60
   8   2   0  139.89   14.80
  -9  -2   0  115.69   13.90
  -9  -2   0  124.29   14.60
   9   2   0   94.49   14.10
   9   2   0  126.59   13.80
 -10  -2   0   14.70    6.20
 -10  -2   0   14.30    7.90
  10   2   0   14.70    6.30
   8  -3   0   23.90    7.90
   8  -3   0   17.10    9.60
  -8   3   0   26.50   11.00
   7  -3   0   26.40    8.40
   7  -3   0   26.50    8.80
   7  -3   0   25.50    7.30
  -7   3   0   32.10    8.20
   6  -3   0   13.60    6.70
   6  -3   0    6.60    6.70
  -6   3   0   21.30    7.40
  -6   3   0   16.10    4.40
   5  -3   0   87.59   11.30
   5  -3   0   93.59   10.80
  -5   3   0  102.59   11.50
  -5   3   0  100.79    8.30
   4  -3   0   -1.20    2.90
   4  -3   0   -1.20    2.20
   4  -3   0   -2.10    3.60
  -4   3   0    3.80    3.40
  -4   3   0    1.60    2.20
   3  -3   0  220.78   13.90
   3  -3   0  223.48   15.70
   3  -3   0  218.48   15.00
  -3   3   0  208.68   15.30
  -3   3   0  211.08   12.70
   2  -3   0    6.20    1.90
   2  -3   0   -0.50    1.90
   2  -3   0   -0.80    2.50
  -2   3   0    1.50    1.40
  -2   3   0    2.30    2.70
   1  -3   0   27.40    2.30
   1  -3   0   17.00    3.00
   1  -3   0   19.10    4.00
  -1   3   0   20.70    2.70
  -1   3   0   22.40    3.20
   0  -3   0 1105.69   64.89
   0  -3   0 1137.19   66.29
   0  -3   0 1114.59   69.19
   0   3   0 1263.97   61.19
   0   3   0 1037.00   68.19
  -1  -3   0   97.79    6.20
  -1  -3   0   98.19    6.60
  -1  -3   0   92.79    7.40
   1   3   0   99.69    6.80
   1   3   0   95.29    6.00
  -2  -3   0    8.80    1.60
  -2  -3   0    8.70    2.50
  -2  -3   0    8.70    2.10
   2   3   0    8.20    1.80
  -3  -3   0 1027.90   58.49
  -3  -3   0  950.10   50.09
  -3  -3   0  968.00   53.69
  -3  -3   0  926.71   55.39
   3   3   0  932.11   49.99
  -4  -3   0  974.30   54.09
  -4  -3   0  874.81   51.79
  -4  -3   0  892.71   57.39
  -4  -3   0  945.91   48.70
   4   3   0  928.41   48.60
  -5  -3   0  476.95   29.10
  -5  -3   0  520.35   29.00
  -5  -3   0  550.34   32.40
   5   3   0  540.25   29.40
   5   3   0  528.35   29.00
  -6  -3   0  976.90   48.90
  -6  -3   0  816.32   49.99
  -6  -3   0  971.00   54.09
   6   3   0  966.40   48.80
   6   3   0  914.31   50.29
   6   3   0  773.72   54.99
  -7  -3   0  178.88   15.30
  -7  -3   0  188.98   12.90
  -7  -3   0  166.08   16.40
   7   3   0  183.78   12.90
   7   3   0  145.99   14.80
  -8  -3   0  188.68   15.40
  -8  -3   0  185.78   15.70
  -8  -3   0  206.68   17.80
   8   3   0  190.88   15.40
   8   3   0  148.09   16.30
  -9  -3   0  265.07   20.30
  -9  -3   0  280.57   22.60
   9   3   0  268.67   19.30
 -10  -3   0  139.69   15.10
 -10  -3   0  130.09   15.70
  10   3   0  124.19   15.90
   8  -4   0   50.99   12.70
   8  -4   0   57.99   12.50
  -8   4   0   74.59   14.50
   7  -4   0  191.28   20.30
  -7   4   0  207.28   21.10
   6  -4   0  187.18   16.30
   6  -4   0  165.38   17.00
  -6   4   0  182.98   16.60
   5  -4   0  371.06   26.80
   5  -4   0  387.26   25.40
  -5   4   0  372.76   26.10
  -5   4   0  366.56   21.70
   4  -4   0 1171.38   67.19
   4  -4   0 1158.98   72.19
  -4   4   0 1183.58   70.59
  -4   4   0 1166.68   61.19
   3  -4   0  584.24   35.70
   3  -4   0  634.14   36.60
   3  -4   0  608.44   39.00
  -3   4   0  609.64   37.80
  -3   4   0  610.54   32.50
   2  -4   0 1220.98   65.29
   2  -4   0 1132.59   64.09
   2  -4   0 1095.09   69.09
  -2   4   0 1125.69   67.29
  -2   4   0 1103.29   58.79
   1  -4   0 1749.92   97.69
   1  -4   0 1726.83  100.59
   1  -4   0 1689.93   96.09
  -1   4   0 1741.03   97.79
  -1   4   0 1474.55   87.69
   0  -4   0 2144.59  126.09
   0  -4   0 2203.68  127.89
   0  -4   0 2203.58  160.08
   0   4   0 2313.67  117.79
   0   4   0 2119.29  132.59
  -1  -4   0 2684.73  168.68
  -1  -4   0 2787.02  159.28
  -1  -4   0 2733.03  154.08
   1   4   0 2707.03  202.08
   1   4   0 2707.63  163.18
  -2  -4   0 1740.13  103.89
  -2  -4   0 1707.73  148.89
  -2  -4   0 1768.72   98.49
   2   4   0 1724.93   93.99
   2   4   0 1770.92  143.09
  -3  -4   0 1755.62  107.09
  -3  -4   0 1716.43  103.29
   3   4   0 1690.03   92.99
   3   4   0 1878.31  107.79
  -4  -4   0 1394.16   78.59
  -4  -4   0 1282.47   74.29
  -4  -4   0 1218.98   71.19
  -4  -4   0 1326.37   67.09
   4   4   0 1281.47   66.99
   4   4   0 1210.78   75.59
  -5  -4   0  721.03   41.20
  -5  -4   0  646.54   44.10
  -5  -4   0  712.03   36.90
  -5  -4   0  613.74   37.00
   5   4   0  689.53   36.70
  -6  -4   0  562.44   32.10
  -6  -4   0  571.44   35.80
   6   4   0  571.94   32.10
  -7  -4   0  112.79   11.10
  -7  -4   0  108.69   12.50
   7   4   0  113.79   11.10
  -8  -4   0   93.09   12.90
  -8  -4   0   87.39   11.30
  -8  -4   0   77.59   13.20
   8   4   0   60.19   10.70
   8   4   0   84.99   11.20
  -9  -4   0   35.80    8.20
  -9  -4   0   33.00    9.00
   9   4   0   33.50    8.00
 -10  -4   0   16.30    8.50
 -10  -4   0   12.80    7.90
  10   4   0    5.10    7.80
   7  -5   0    2.50    9.50
  -7   5   0    0.20    9.50
   6  -5   0   -0.50    7.00
   6  -5   0   -2.80    8.30
  -6   5   0    2.60    8.40
   5  -5   0   20.00    8.30
   5  -5   0   18.30    7.60
  -5   5   0   32.50    8.60
   4  -5   0   31.80    6.80
   4  -5   0   35.80    8.00
  -4   5   0   38.30    5.30
  -4   5   0   33.40    6.80
   3  -5   0   23.20    5.50
   3  -5   0   19.40    5.10
  -3   5   0   20.10    3.40
  -3   5   0   23.20    6.10
   2  -5   0   23.60    2.70
   2  -5   0   21.00    4.90
   2  -5   0   17.10    4.20
  -2   5   0   17.70    5.00
  -2   5   0   32.60    4.10
   1  -5   0  216.78   14.70
   1  -5   0  206.58   15.60
   1  -5   0  222.98   12.90
  -1   5   0  199.28   13.20
  -1   5   0  213.98   14.90
   0  -5   0  212.38   14.10
   0  -5   0  221.88   13.40
   0  -5   0  213.98   15.50
   0   5   0  218.08   14.40
   0   5   0  213.18   14.80
  -1  -5   0  493.65   32.20
  -1  -5   0  514.55   29.80
  -1  -5   0  499.15   29.00
   1   5   0  481.85   30.70
   1   5   0  537.75   27.70
  -2  -5   0  889.11   52.79
  -2  -5   0  900.91   55.99
  -2  -5   0  889.51   50.49
   2   5   0  921.11   47.80
   2   5   0  954.90   53.89
  -3  -5   0 1337.17   80.49
  -3  -5   0 1474.15   78.19
  -3  -5   0 1362.76   84.69
   3   5   0 1459.45   81.99
   3   5   0 1375.86   72.79
  -4  -5   0  869.31   49.70
  -4  -5   0  896.11   55.49
  -4  -5   0  882.01   52.49
   4   5   0  855.01   47.20
   4   5   0  947.51   53.39
  -5  -5   0  679.73   43.60
  -5  -5   0  648.74   40.50
   5   5   0  685.53   41.00
   5   5   0  635.44   36.30
  -6  -5   0  765.02   54.99
  -6  -5   0  886.71   50.99
  -6  -5   0  851.91   45.90
   6   5   0  809.62   51.49
   6   5   0  877.51   45.90
  -7  -5   0  286.97   18.90
  -7  -5   0  302.47   22.40
   7   5   0  301.87   19.00
   7   5   0  284.47   22.00
  -8  -5   0  255.87   18.10
  -8  -5   0  281.77   21.90
   8   5   0  252.07   18.10
  -9  -5   0  312.87   23.00
  -9  -5   0  336.97   26.00
   9   5   0  313.77   23.10
 -10  -5   0  144.79   18.60
 -10  -5   0  137.59   14.30
  10   5   0  139.39   14.50
   6  -6   0  109.69   16.80
   6  -6   0  113.89   15.30
  -6   6   0  141.89   18.70
   5  -6   0  239.28   22.00
   5  -6   0  236.18   20.10
  -5   6   0  256.67   22.40
   4  -6   0  346.07   26.60
   4  -6   0  367.16   25.50
  -4   6   0  387.86   27.40
   3  -6   0  322.97   23.00
   3  -6   0  310.67   23.50
  -3   6   0  332.47   23.70
   2  -6   0  761.02   47.70
   2  -6   0  733.03   44.00
  -2   6   0  710.03   39.40
  -2   6   0  747.53   46.00
   1  -6   0  910.01   57.09
   1  -6   0  954.30   52.79
  -1   6   0  928.51   55.29
  -1   6   0  854.91   49.00
   0  -6   0  756.92   41.70
   0  -6   0  704.13   41.50
   0  -6   0  706.03   45.50
   0   6   0  683.93   40.10
   0   6   0  742.63   44.00
  -1  -6   0 1093.19   61.79
  -1  -6   0 1061.19   66.09
  -1  -6   0 1057.69   60.19
   1   6   0 1086.09   56.99
   1   6   0 1067.19   63.69
  -2  -6   0  977.20   60.49
  -2  -6   0  930.51   54.39
  -2  -6   0  984.10   56.79
   2   6   0 1001.60   58.09
   2   6   0  991.80   51.59
  -3  -6   0  463.75   25.90
  -3  -6   0  446.86   28.00
  -3  -6   0  428.06   29.70
   3   6   0  437.26   25.10
   3   6   0  480.85   28.30
  -4  -6   0  670.73   43.40
  -4  -6   0  653.43   41.20
   4   6   0  737.43   41.60
   4   6   0  654.73   37.00
  -5  -6   0  391.46   26.80
  -5  -6   0  361.46   24.60
   5   6   0  405.36   24.80
   5   6   0  343.67   21.90
  -6  -6   0   31.20    6.80
  -6  -6   0   25.30    7.20
   6   6   0   21.40    5.40
  -7  -6   0   78.69   12.10
  -7  -6   0   62.99   12.40
   7   6   0   70.79   10.30
  -8  -6   0   58.79   10.40
   8   6   0   70.89    9.40
  -9  -6   0   14.00    7.00
   9   6   0   10.80    7.30
 -10  -6   0    5.40    9.20
  10   6   0   -2.70    7.50
   6  -7   0   -2.50    9.20
  -6   7   0    2.80   11.30
   5  -7   0    0.00    9.60
   5  -7   0    0.10    8.40
  -5   7   0    3.80    9.80
   4  -7   0   45.40   10.40
   4  -7   0   47.30   10.60
  -4   7   0   50.49   11.00
   3  -7   0   11.70    7.70
   3  -7   0   15.40    8.00
  -3   7   0   13.40    7.70
   2  -7   0   54.09    9.80
   2  -7   0   49.00    8.70
  -2   7   0   57.59    8.70
   1  -7   0  227.58   19.30
   1  -7   0  232.08   16.60
  -1   7   0  242.98   18.10
  -1   7   0  215.68   15.30
   0  -7   0  437.76   30.60
   0  -7   0  433.36   27.50
   0  -7   0  442.36   26.40
   0   7   0  449.56   29.00
  -1  -7   0  370.76   26.60
  -1  -7   0  399.06   23.90
  -1  -7   0  380.46   23.90
   1   7   0  385.86   23.50
   1   7   0  396.56   25.60
  -2  -7   0  987.40   55.59
  -2  -7   0  911.11   59.29
  -2  -7   0  929.71   53.49
   2   7   0  955.70   57.09
   2   7   0  960.90   50.99
  -3  -7   0  463.95   28.90
  -3  -7   0  446.96   30.90
  -3  -7   0  442.16   26.70
   3   7   0  475.35   29.30
   3   7   0  469.85   26.30
  -4  -7   0  379.36   24.80
  -4  -7   0  365.06   26.20
   4   7   0  388.06   24.50
   4   7   0  358.46   22.30
  -5  -7   0  719.73   47.00
  -5  -7   0  690.73   43.90
   5   7   0  749.92   43.90
   5   7   0  675.93   39.40
  -6  -7   0  490.55   34.40
  -6  -7   0  561.74   38.70
   6   7   0  597.34   34.80
   6   7   0  500.35   31.30
  -7  -7   0  361.56   25.30
  -7  -7   0  348.67   29.80
   7   7   0  335.77   22.10
  -8  -7   0  256.07   20.30
  -8  -7   0  183.18   23.80
   8   7   0  263.67   19.20
  -9  -7   0  248.58   23.40
   9   7   0  244.18   20.40
 -10  -7   0  149.99   20.60
  10   7   0  159.08   18.20
   5  -8   0  120.09   19.10
   5  -8   0  123.89   16.50
  -5   8   0  119.19   16.40
   4  -8   0  150.08   19.10
   4  -8   0  131.69   16.10
  -4   8   0  142.89   16.30
   3  -8   0  158.18   15.70
   3  -8   0  154.18   18.80
  -3   8   0  163.18   16.00
   2  -8   0  254.27   23.10
   2  -8   0  256.37   21.30
  -2   8   0  282.77   22.20
   1  -8   0  149.59   16.80
   1  -8   0  155.08   15.00
  -1   8   0  164.48   15.70
   0  -8   0  307.57   23.30
   0  -8   0  321.37   21.40
   0   8   0  326.97   22.80
   0   8   0  262.47   21.10
  -1  -8   0  560.94   33.70
  -1  -8   0  568.84   33.70
  -1  -8   0  572.04   38.10
   1   8   0  571.94   36.00
   1   8   0  504.95   33.50
  -2  -8   0  267.67   18.50
  -2  -8   0  264.87   21.60
  -2  -8   0  258.97   17.60
   2   8   0  294.47   19.80
   2   8   0  253.97   18.90
  -3  -8   0   88.49    8.70
  -3  -8   0   95.89   10.40
  -3  -8   0  111.69   13.30
   3   8   0  120.29   11.10
   3   8   0  124.39   11.10
  -4  -8   0  194.68   18.20
  -4  -8   0  184.08   15.70
   4   8   0  178.88   13.50
   4   8   0  219.58   15.90
  -5  -8   0  219.28   20.20
  -5  -8   0  204.48   16.50
   5   8   0  224.78   16.80
   5   8   0  198.98   15.80
  -6  -8   0   39.20   10.60
  -6  -8   0   34.80    8.00
   6   8   0   25.70    6.60
  -7  -8   0   50.09   10.00
  -7  -8   0   54.79   13.20
   7   8   0   46.50    8.40
  -8  -8   0    4.40    8.10
  -8  -8   0    6.90   10.20
   8   8   0    4.10    5.30
  -9  -8   0   -3.90    8.50
   9   8   0   -0.50    7.50
   4  -9   0   11.90    8.60
   4  -9   0   21.30   11.50
  -4   9   0   37.10   13.00
   3  -9   0   10.60    9.60
   3  -9   0   13.00   10.00
  -3   9   0   20.90   10.70
   2  -9   0   55.09    9.80
   2  -9   0   60.89   12.60
  -2   9   0   65.59   12.10
   1  -9   0  129.79   15.60
   1  -9   0  127.29   17.40
  -1   9   0  146.89   16.50
   0  -9   0  225.98   21.10
   0  -9   0  215.28   18.00
   0   9   0  214.38   17.90
  -1  -9   0  237.28   21.60
  -1  -9   0  237.28   17.80
   1   9   0  202.68   19.90
   1   9   0  261.37   19.80
  -2  -9   0  348.67   22.60
  -2  -9   0  354.86   27.50
   2   9   0  335.97   23.20
   2   9   0  352.26   24.20
  -3  -9   0  161.88   14.00
  -3  -9   0  166.18   16.10
   3   9   0  163.28   15.70
   3   9   0  173.68   15.00
  -4  -9   0  465.15   32.50
  -4  -9   0  478.45   35.20
   4   9   0  562.54   30.80
   4   9   0  510.15   33.00
  -5  -9   0  637.14   43.10
  -5  -9   0  594.74   39.30
   5   9   0  624.14   39.10
   5   9   0  578.24   35.40
  -6  -9   0  407.66   29.80
  -6  -9   0  453.95   33.90
   6   9   0  395.26   26.70
  -7  -9   0  218.48   24.50
  -7  -9   0  198.28   19.90
   7   9   0  190.38   17.80
  -8  -9   0  248.28   31.50
  -8  -9   0  284.17   25.30
   8   9   0  296.67   22.30
  -9  -9   0  184.58   22.40
   9   9   0  195.38   19.40
   2 -10   0  137.89   20.60
   2 -10   0  127.89   18.30
  -2  10   0  153.18   19.60
   1 -10   0   51.89   11.30
   1 -10   0   47.20   10.60
  -1  10   0   59.09   12.40
   0 -10   0  168.98   20.40
   0 -10   0  160.88   16.90
   0  10   0  167.88   18.80
  -1 -10   0  123.39   13.80
  -1 -10   0  131.29   18.20
   1  10   0  139.19   16.20
  -2 -10   0   38.90   11.20
  -2 -10   0   36.70    7.10
   2  10   0   36.70    8.90
  -3 -10   0   65.19   12.60
   3  10   0   52.39   10.50
   3  10   0   67.59   11.40
  -4 -10   0  126.09   18.00
  -4 -10   0  112.89   13.40
   4  10   0  113.29   15.30
   4  10   0  134.99   13.90
  -5 -10   0   29.90    8.20
  -5 -10   0   35.50   11.50
   5  10   0   32.80    7.60
  -6 -10   0    2.70    7.30
  -6 -10   0    8.90   10.40
   6  10   0   -5.70    6.30
  -7 -10   0    2.70    8.20
  -7 -10   0    6.00   11.60
   7  10   0    2.90    7.30
  -8 -10   0    3.50    9.30
  -8 -10   0   11.40   12.80
   8  10   0   -1.50    5.80
   1 -11   0   42.80   14.10
   1 -11   0   43.70    9.60
  -1  11   0   51.59   13.20
   0 -11   0   64.19   13.00
   0 -11   0   56.99   10.70
   0  11   0   62.79   11.60
  -1 -11   0  188.98   20.40
  -1 -11   0  170.68   17.50
   1  11   0  210.78   20.40
  -2 -11   0  230.98   24.90
   2  11   0  245.18   22.00
  -3 -11   0  182.68   19.90
   3  11   0  196.58   19.00
  -4 -11   0  272.47   24.40
   4  11   0  278.57   22.20
   4  11   0  250.57   22.70
  -5 -11   0  305.47   28.10
  -5 -11   0  264.37   22.80
   5  11   0  265.87   23.10
  -6 -11   0  253.97   27.20
  -6 -11   0  231.38   22.10
  -7 -11   0  145.79   24.60
  -7 -11   0  134.39   18.70
   7  11   0  122.79   16.20
  -1 -12   0   20.80   13.20
   1  12   0   25.40   11.50
  -2 -12   0   12.50    9.80
   2  12   0   12.60   10.50
  -3 -12   0   28.20   13.80
   3  12   0   26.70   10.40
  -4 -12   0   18.70   12.90
  -5 -12   0    9.70   12.60
   5  12   0    4.40    9.90
  -6 -12   0    9.60   13.20
  -6 -12   0   -0.90    8.50
   6  12   0   -3.10   10.20
   6  12  -1   44.50   10.30
  -6 -12   1   42.00   11.00
  -6 -12   1   51.19   16.10
  -5 -12   1   26.60   14.00
   4  12  -1   62.99   12.20
  -4 -12   1   50.09   15.10
   3  12  -1  108.59   16.90
  -3 -12   1   80.79   17.40
  -2 -12   1   52.09   13.00
   1  12  -1   64.69   14.30
  -1 -12   1   52.59   13.30
   7  11  -1  148.19   17.50
  -7 -11   1  169.38   25.30
  -7 -11   1  147.29   17.10
   6  11  -1  139.79   16.10
  -6 -11   1  154.68   18.60
  -6 -11   1  162.88   20.20
   5  11  -1  146.69   17.10
   5  11  -1  135.89   15.90
  -5 -11   1  113.69   16.00
  -5 -11   1  149.99   21.50
   4  11  -1  186.08   18.30
   4  11  -1  139.89   18.00
  -4 -11   1  182.78   22.40
   3  11  -1  101.49   15.40
  -3 -11   1  103.49   19.10
   2  11  -1   54.79   11.90
  -2 -11   1   57.59   12.20
   1  11  -1  129.89   17.90
  -1 -11   1  121.59   20.40
  -1 -11   1  102.89   15.90
   0  11  -1   24.10   11.60
   0 -11   1   17.00    8.70
   0 -11   1   23.50   12.40
  -1  11  -1    9.30   11.40
   1 -11   1    2.40    8.90
   1 -11   1    5.40   11.80
   8  10  -1   16.10    8.90
  -8 -10   1   27.40    8.90
  -8 -10   1   25.60   14.30
   7  10  -1   41.60    9.20
  -7 -10   1   45.40   11.00
  -7 -10   1   52.39   15.00
   6  10  -1  128.79   15.10
  -6 -10   1  153.78   21.40
  -6 -10   1  143.69   17.50
   5  10  -1  110.19   13.50
   5  10  -1  138.59   14.50
  -5 -10   1  145.19   19.50
  -5 -10   1  113.49   15.00
   4  10  -1  173.78   16.00
   4  10  -1  197.88   17.50
  -4 -10   1  171.38   16.90
  -4 -10   1  206.18   21.50
   3  10  -1  225.68   21.20
   3  10  -1  263.47   20.60
  -3 -10   1  225.68   21.30
  -3 -10   1  234.18   18.60
   2  10  -1  179.98   17.40
  -2 -10   1  159.18   17.50
   1  10  -1  250.17   21.70
  -1 -10   1  239.38   23.40
  -1 -10   1  218.68   18.40
   0  10  -1  408.26   30.10
   0 -10   1  376.46   27.20
   0 -10   1  369.56   31.50
  -1  10  -1  100.49   16.90
   1 -10   1  104.79   18.60
   1 -10   1   93.39   15.20
  -2  10  -1   97.99   14.90
   2 -10   1   95.29   13.80
   2 -10   1  105.59   19.10
   9   9  -1   66.79   11.20
  -9  -9   1   61.69   11.80
   8   9  -1  150.78   14.50
  -8  -9   1  147.99   16.90
  -8  -9   1  152.88   23.80
   7   9  -1  130.69   13.10
  -7  -9   1  153.08   21.60
  -7  -9   1  141.19   15.40
   6   9  -1  216.58   18.50
   6   9  -1  248.98   19.30
  -6  -9   1  232.48   19.70
  -6  -9   1  273.07   24.70
   5   9  -1  246.78   18.40
   5   9  -1  265.37   19.90
  -5  -9   1  278.77   24.10
  -5  -9   1  235.58   19.50
   4   9  -1  253.57   18.20
   4   9  -1  281.37   20.40
  -4  -9   1  263.77   23.30
  -4  -9   1  245.68   20.00
   3   9  -1   78.89   11.70
   3   9  -1  104.69   11.70
  -3  -9   1   75.29   10.50
  -3  -9   1   82.29   14.10
   2   9  -1   64.89    9.50
   2   9  -1   96.89   11.90
  -2  -9   1   71.29   10.00
  -2  -9   1   65.69    8.70
  -2  -9   1   80.09   13.90
   1   9  -1  186.48   16.90
  -1  -9   1  175.38   18.60
  -1  -9   1  161.48   14.50
   0   9  -1   13.70    6.20
   0  -9   1    5.60    6.40
   0  -9   1    4.20    8.00
  -1   9  -1   38.60   10.00
   1  -9   1   29.70   10.20
   1  -9   1   32.20    8.90
  -2   9  -1   25.90   10.00
   2  -9   1   24.20   10.50
   2  -9   1   16.90    7.10
  -3   9  -1    6.80    7.60
   3  -9   1    0.60    6.80
   3  -9   1    0.90    9.90
  -4   9  -1    7.70    8.90
   4  -9   1    5.80   10.50
   4  -9   1    3.00   10.50
   9   8  -1   21.70    7.00
  -9  -8   1   24.00    8.60
   8   8  -1   56.39    9.50
  -8  -8   1   53.79   10.00
  -8  -8   1   42.40   12.90
   7   8  -1  224.88   17.50
   7   8  -1  281.87   20.20
  -7  -8   1  221.78   24.80
  -7  -8   1  254.27   21.90
   6   8  -1  277.37   20.30
   6   8  -1  325.17   22.20
  -6  -8   1  305.57   26.40
  -6  -8   1  283.87   23.20
   5   8  -1  248.78   18.30
   5   8  -1  283.07   20.10
  -5  -8   1  263.57   20.90
  -5  -8   1  286.47   23.50
   4   8  -1  744.83   45.50
   4   8  -1  720.43   40.50
  -4  -8   1  721.03   45.00
  -4  -8   1  731.43   48.40
   3   8  -1  520.05   29.40
   3   8  -1  527.75   33.10
  -3  -8   1  483.95   32.10
  -3  -8   1  500.05   35.20
   2   8  -1  588.84   37.20
   2   8  -1  586.94   33.30
  -2  -8   1  589.74   35.60
  -2  -8   1  536.85   33.90
  -2  -8   1  590.64   39.30
   1   8  -1  849.41   50.89
   1   8  -1  769.62   45.70
  -1  -8   1  815.32   47.50
  -1  -8   1  853.01   48.40
  -1  -8   1  788.12   52.49
   0   8  -1  655.33   40.60
   0  -8   1  626.54   38.00
   0  -8   1  591.84   41.60
  -1   8  -1  185.18   16.70
   1  -8   1  171.98   15.70
   1  -8   1  159.58   16.10
  -2   8  -1  445.76   31.10
   2  -8   1  428.56   28.80
   2  -8   1  415.56   32.20
  -3   8  -1  341.67   26.50
   3  -8   1  319.97   24.00
   3  -8   1  308.57   25.70
  -4   8  -1  185.98   20.80
   4  -8   1  162.18   20.40
   4  -8   1  169.68   20.00
  -5   8  -1  121.69   20.00
   5  -8   1  102.79   18.80
   5  -8   1  114.29   19.30
   9   7  -1   95.79   14.40
  -9  -7   1   75.69   13.20
   8   7  -1  220.48   18.30
  -8  -7   1  227.88   21.10
   7   7  -1  148.09   13.80
  -7  -7   1  144.89   14.40
  -7  -7   1  139.69   18.70
   6   7  -1  295.97   20.00
   6   7  -1  243.38   17.90
  -6  -7   1  251.97   21.70
  -6  -7   1  243.68   20.60
   5   7  -1  360.76   23.40
   5   7  -1  421.46   26.70
  -5  -7   1  410.06   28.80
  -5  -7   1  363.96   25.80
   4   7  -1  101.59    9.60
   4   7  -1   74.79    7.40
  -4  -7   1   73.89   11.10
  -4  -7   1   69.99    9.70
   3   7  -1   24.40    4.50
   3   7  -1   41.20    6.90
  -3  -7   1   22.30    4.00
  -3  -7   1   22.60    5.00
  -3  -7   1   24.20    5.60
   2   7  -1  333.77   19.10
   2   7  -1  319.67   21.50
  -2  -7   1  283.47   19.10
  -2  -7   1  326.77   20.60
  -2  -7   1  296.67   22.80
   1   7  -1  142.19   12.10
   1   7  -1  144.19   11.80
  -1  -7   1  137.09   11.00
  -1  -7   1  151.08   11.10
  -1  -7   1  132.99   12.60
   0   7  -1    1.80    4.60
   0   7  -1   -4.00    4.70
   0  -7   1    2.60    2.70
   0  -7   1    2.50    5.30
   0  -7   1   -4.80    4.00
  -1   7  -1    6.50    2.80
  -1   7  -1    1.20    3.90
   1  -7   1    0.60    4.50
   1  -7   1   -3.90    4.80
  -2   7  -1    6.60    5.00
   2  -7   1    2.70    5.10
   2  -7   1    4.50    4.60
  -3   7  -1   36.60    9.10
   3  -7   1   30.30    8.60
   3  -7   1   33.40    9.30
  -4   7  -1    8.20    6.70
   4  -7   1    2.40    8.10
   4  -7   1    0.60    5.90
  -5   7  -1   10.70   10.10
   5  -7   1   -1.00    8.70
   5  -7   1    2.50    9.70
  -6   7  -1   49.99   14.10
   6  -7   1   47.20   13.20
   6  -7   1   49.60   12.60
  10   6  -1   41.20    9.80
 -10  -6   1   40.20   11.20
   9   6  -1   67.19   10.60
  -9  -6   1   88.19   13.50
  -9  -6   1   93.39   16.00
   8   6  -1  184.58   16.20
   8   6  -1  185.18   17.80
  -8  -6   1  185.88   17.10
  -8  -6   1  189.38   16.20
   7   6  -1  427.76   29.90
   7   6  -1  420.26   26.30
  -7  -6   1  417.46   26.30
  -7  -6   1  437.56   29.90
   6   6  -1  462.85   29.30
   6   6  -1  398.26   24.70
  -6  -6   1  434.06   28.70
  -6  -6   1  396.86   24.70
  -6  -6   1  411.26   31.30
   5   6  -1  834.42   48.00
   5   6  -1  942.41   54.69
  -5  -6   1  857.61   53.39
  -5  -6   1  929.61   57.09
   4   6  -1 1254.87   70.09
   4   6  -1 1440.06   79.69
  -4  -6   1 1295.57   78.09
  -4  -6   1 1370.16   82.29
   3   6  -1  995.00   55.89
   3   6  -1  905.91   49.10
  -3  -6   1  891.31   51.29
  -3  -6   1  908.01   57.59
  -3  -6   1  940.41   54.69
   2   6  -1 1664.33   84.39
   2   6  -1 1695.73   95.59
  -2  -6   1 1628.24   93.39
  -2  -6   1 1546.95   89.49
  -2  -6   1 1610.64   98.59
   1   6  -1 1292.57   65.19
   1   6  -1 1261.27   73.49
  -1  -6   1 1178.58   75.69
  -1  -6   1 1254.07   71.29
  -1  -6   1 1208.88   69.09
   0   6  -1  838.22   51.39
   0   6  -1  787.22   46.40
   0  -6   1  887.31   49.30
   0  -6   1  852.21   53.29
   0  -6   1  882.91   48.80
  -1   6  -1  705.63   39.40
  -1   6  -1  734.43   45.30
   1  -6   1  752.12   42.60
   1  -6   1  759.82   43.40
   1  -6   1  729.93   47.20
  -2   6  -1 1078.99   64.19
  -2   6  -1 1017.90   54.89
   2  -6   1 1068.69   66.29
   2  -6   1 1061.49   60.99
  -3   6  -1  496.85   32.90
   3  -6   1  507.55   31.80
   3  -6   1  457.85   33.10
  -4   6  -1  297.47   22.40
   4  -6   1  292.57   24.00
   4  -6   1  294.07   21.80
  -5   6  -1  188.18   19.30
   5  -6   1  174.78   18.90
   5  -6   1  179.58   17.10
  -6   6  -1   48.40   12.60
   6  -6   1   45.80   11.10
   6  -6   1   55.59   10.80
  10   5  -1   33.40    9.50
 -10  -5   1   43.10    9.90
 -10  -5   1   43.50    9.50
   9   5  -1  147.29   15.90
  -9  -5   1  148.99   15.80
  -9  -5   1  160.98   18.10
   8   5  -1  167.28   13.70
   8   5  -1  143.99   16.40
  -8  -5   1  175.58   13.80
  -8  -5   1  180.98   17.40
   7   5  -1   19.10    4.80
   7   5  -1   17.70    6.70
  -7  -5   1   22.20    6.80
  -7  -5   1   22.50    7.90
  -7  -5   1   20.10    4.80
   6   5  -1   39.30    7.70
   6   5  -1   45.50    6.30
  -6  -5   1   32.70    8.50
  -6  -5   1   42.80    7.40
  -6  -5   1   49.20    6.40
   5   5  -1  339.17   23.90
   5   5  -1  340.47   20.40
  -5  -5   1  341.17   20.50
  -5  -5   1  365.36   23.60
  -5  -5   1  362.46   25.40
   4   5  -1    2.30    2.20
  -4  -5   1    4.40    2.30
  -4  -5   1    4.40    3.60
  -4  -5   1    1.60    3.90
   3   5  -1  412.26   23.60
   3   5  -1  462.25   27.20
  -3  -5   1  439.66   23.90
  -3  -5   1  412.76   27.70
  -3  -5   1  402.56   26.20
   2   5  -1  161.78   11.10
   2   5  -1  143.89    9.30
  -2  -5   1  144.89   11.70
  -2  -5   1  143.89   10.60
  -2  -5   1  139.89    9.20
   1   5  -1  137.59   10.10
   1   5  -1  134.69    8.50
  -1  -5   1  124.69    9.20
  -1  -5   1  122.39    8.80
  -1  -5   1  127.49   10.90
   0   5  -1    0.80    2.20
   0   5  -1   -1.80    2.90
   0  -5   1    1.00    2.60
   0  -5   1    4.10    2.80
   0  -5   1    1.90    1.90
  -1   5  -1   37.30    5.30
  -1   5  -1   35.40    4.10
   1  -5   1   43.10    4.10
   1  -5   1   28.70    5.80
   1  -5   1   32.30    5.10
  -2   5  -1  143.59   12.00
  -2   5  -1  158.18    9.30
   2  -5   1  143.89   11.70
   2  -5   1  142.49   13.30
   2  -5   1  163.68   10.10
  -3   5  -1  113.89   10.90
  -3   5  -1  127.99    8.20
   3  -5   1  112.09   10.80
   3  -5   1  109.29   11.20
  -4   5  -1   13.60    5.30
   4  -5   1   12.40    5.20
   4  -5   1   10.30    5.10
  -5   5  -1   32.00    9.10
   5  -5   1   32.70    8.70
   5  -5   1   31.00    7.60
  -6   5  -1   92.19   15.40
   6  -5   1   61.89   11.20
   6  -5   1   57.39   11.80
  -7   5  -1   33.40   11.90
   7  -5   1   35.50   10.40
   7  -5   1   22.60    8.80
  10   4  -1   54.79    9.10
 -10  -4   1   50.19    8.70
   9   4  -1  161.28   16.00
  -9  -4   1  160.68   15.90
  -9  -4   1  152.08   17.30
   8   4  -1  349.47   22.20
  -8  -4   1  319.87   21.90
  -8  -4   1  363.36   25.80
   7   4  -1  116.19   11.00
  -7  -4   1  110.39   10.90
  -7  -4   1   73.59   11.50
  -7  -4   1  116.99   12.80
   6   4  -1  531.45   30.60
  -6  -4   1  533.55   30.60
  -6  -4   1  565.34   34.70
   5   4  -1 1997.70  100.89
  -5  -4   1 2067.89  111.99
  -5  -4   1 1719.53  117.69
  -5  -4   1 1988.70  100.89
   4   4  -1 1199.28   64.59
  -4  -4   1 1205.88   71.69
  -4  -4   1 1324.27   75.69
  -4  -4   1 1222.28   64.69
   3   4  -1 1572.34   86.79
   3   4  -1 1663.43   95.99
  -3  -4   1 1673.03   98.09
  -3  -4   1 1625.34  114.59
  -3  -4   1 1644.74   89.29
   2   4  -1 2358.76  134.29
   2   4  -1 2210.98  115.59
  -2  -4   1 2198.08  131.29
  -2  -4   1 2205.98  139.19
  -2  -4   1 2136.39  122.99
   1   4  -1 1993.10  103.29
   1   4  -1 1823.72  146.19
  -1  -4   1 1850.41  117.99
  -1  -4   1 1950.10  109.99
  -1  -4   1 1996.60  114.49
   0   4  -1 2023.90   99.99
   0   4  -1 1847.12  116.19
   0  -4   1 1921.21  118.09
   0  -4   1 1922.41  110.49
   0  -4   1 1867.21  120.69
  -1   4  -1 1859.91  150.28
  -1   4  -1 1812.52  105.39
  -1   4  -1 2068.79  110.79
   1  -4   1 2027.70  120.09
   1  -4   1 2060.89  113.79
   1  -4   1 2168.78  118.49
  -2   4  -1 1185.38   61.89
  -2   4  -1 1192.78   71.29
  -2   4  -1 1163.18   67.69
   2  -4   1 1290.07   68.89
   2  -4   1 1169.78   73.29
   2  -4   1 1221.18   67.99
  -3   4  -1  973.00   55.39
  -3   4  -1 1004.00   58.49
  -3   4  -1 1012.70   50.29
   3  -4   1  820.92   55.99
   3  -4   1 1003.30   55.69
   3  -4   1  987.90   60.09
  -4   4  -1  818.82   49.99
  -4   4  -1  821.02   42.50
   4  -4   1  778.22   50.99
   4  -4   1  794.72   47.50
  -5   4  -1  352.96   25.40
   5  -4   1  340.37   25.50
   5  -4   1  344.77   24.70
  -6   4  -1   92.79   14.30
   6  -4   1   74.69   12.70
   6  -4   1   76.89   13.60
  -7   4  -1  102.39   16.80
   7  -4   1   85.69   14.90
   7  -4   1  110.39   16.60
  -8   4  -1   65.39   14.20
   8  -4   1   61.09   12.80
   8  -4   1   49.10   12.60
  10   3  -1   37.70    9.50
 -10  -3   1   39.70   10.10
 -10  -3   1   39.90    9.50
   9   3  -1   94.49   13.10
   9   3  -1   80.39   13.70
  -9  -3   1   93.49   11.20
  -9  -3   1  104.69   14.40
   8   3  -1   21.10    5.40
   8   3  -1   21.80    7.80
  -8  -3   1   22.90    6.10
  -8  -3   1   24.10    5.50
   7   3  -1   57.39    7.50
   7   3  -1   49.99    8.80
  -7  -3   1   64.59   10.10
  -7  -3   1   59.39    7.50
  -7  -3   1   61.69    9.30
   6   3  -1  147.49   10.70
   6   3  -1  130.99   13.10
   6   3  -1  138.19    9.30
  -6  -3   1  153.08   12.80
  -6  -3   1  146.19   10.70
   5   3  -1  130.19    9.00
   5   3  -1  119.19    7.60
   5   3  -1   99.29   10.80
  -5  -3   1  129.69    9.00
  -5  -3   1  133.49   10.20
   4   3  -1   -2.20    2.90
   4   3  -1    2.90    0.90
   4   3  -1    2.80    2.40
  -4  -3   1    2.60    2.90
  -4  -3   1    3.90    2.00
  -4  -3   1    2.50    3.10
   3   3  -1   91.59    6.30
  -3  -3   1   98.09    7.80
  -3  -3   1   86.59    6.30
  -3  -3   1   90.49    7.50
   2   3  -1   22.20    2.80
   2   3  -1   29.70    4.00
  -2  -3   1   22.40    1.70
  -2  -3   1   21.10    2.90
  -2  -3   1   20.40    1.60
  -2  -3   1   19.70    3.40
  -2  -3   1   22.40    3.00
   1   3  -1   17.40    2.50
   1   3  -1   14.70    2.00
  -1  -3   1   14.00    2.40
  -1  -3   1   10.80    2.40
  -1  -3   1   12.50    1.80
   0   3  -1  440.56   27.60
   0   3  -1  468.85   26.10
   0   3  -1  497.25   24.30
   0  -3   1  446.36   26.00
   0  -3   1  440.66   28.50
   0  -3   1  449.95   26.60
  -1   3  -1  282.77   16.10
  -1   3  -1  291.67   19.00
  -1   3  -1  295.97   18.20
   1  -3   1  300.77   19.70
   1  -3   1  309.77   18.30
   1  -3   1  335.27   18.30
  -2   3  -1 1093.09   56.59
  -2   3  -1 1038.40   60.59
  -2   3  -1 1075.29   63.69
   2  -3   1 1110.99   60.79
   2  -3   1 1087.29   65.59
  -3   3  -1   59.09    7.00
  -3   3  -1   50.49    6.70
  -3   3  -1   55.09    4.50
   3  -3   1   51.59    5.50
   3  -3   1   48.50    6.90
   3  -3   1   47.60    6.90
  -4   3  -1   97.79    9.20
  -4   3  -1  107.89    7.80
  -4   3  -1  115.79   10.70
   4  -3   1  108.69   10.80
   4  -3   1  100.89    9.60
   4  -3   1  113.69    8.90
  -5   3  -1  341.57   23.90
  -5   3  -1  328.77   19.50
   5  -3   1  348.57   23.40
   5  -3   1  324.77   24.10
  -6   3  -1  209.18   14.00
  -6   3  -1  228.48   18.90
   6  -3   1  204.68   16.90
   6  -3   1  201.98   17.90
  -7   3  -1  208.28   20.00
   7  -3   1  188.18   17.30
   7  -3   1  207.68   18.70
  -8   3  -1  139.89   19.10
   8  -3   1  128.79   17.50
   8  -3   1  123.59   17.00
  10   2  -1   44.70    9.70
 -10  -2   1   47.70    9.70
   9   2  -1  122.29   14.40
   9   2  -1  125.89   15.60
  -9  -2   1  128.49   16.10
  -9  -2   1  138.09   14.90
   8   2  -1  283.77   22.50
   8   2  -1  292.17   19.50
  -8  -2   1  296.17   22.00
  -8  -2   1  284.97   19.40
   7   2  -1   87.99   11.10
   7   2  -1   85.99   10.20
  -7  -2   1   91.09   11.10
  -7  -2   1  116.49   10.60
  -7  -2   1   97.59   10.50
   6   2  -1 1116.49   57.69
   6   2  -1 1062.09   64.99
   6   2  -1 1041.60   59.99
  -6  -2   1 1076.69   63.59
  -6  -2   1 1090.59   66.59
  -6  -2   1 1077.29   57.59
   5   2  -1 2085.09  122.99
   5   2  -1 2008.00  127.19
  -5  -2   1 2185.38  110.99
  -5  -2   1 2132.49  122.39
   4   2  -1 1684.13  129.29
   4   2  -1 1774.32  104.49
  -4  -2   1 1842.72  105.49
  -4  -2   1 1814.42   95.39
   3   2  -1 2734.43  147.49
   3   2  -1 2360.16  160.18
  -3  -2   1 2435.36  165.18
  -3  -2   1 2967.50  159.38
  -3  -2   1 2880.11  143.69
   2   2  -1 3073.69  171.48
  -2  -2   1 3324.87  172.38
  -2  -2   1 3501.75  199.08
  -2  -2   1 3191.08  190.58
   1   2  -1  744.53   40.30
   1   2  -1  788.82   42.10
   1   2  -1  607.94   41.30
  -1  -2   1  704.33   40.40
  -1  -2   1  690.03   41.50
  -1  -2   1  696.63   54.39
  -1  -2   1  697.73   44.10
   0   2  -1 4562.04  307.37
   0   2  -1 4506.05  332.47
   0   2  -1 4532.55  267.77
   0  -2   1 4637.04  316.17
   0  -2   1 5106.29  283.27
  -1   2  -1 4680.53  335.67
  -1   2  -1 4988.10  282.77
  -1   2  -1 4296.77  271.57
   1  -2   1 5140.79  290.97
  -2   2  -1  863.01   51.09
  -2   2  -1  883.81   53.69
  -2   2  -1  947.11   48.90
   2  -2   1  943.91   55.39
   2  -2   1  933.81   53.39
   2  -2   1  914.61   51.29
  -3   2  -1 1499.45   85.69
  -3   2  -1 1459.25   92.69
  -3   2  -1 1476.65   91.79
  -3   2  -1 1577.34   82.19
   3  -2   1 1598.94   85.99
   3  -2   1 1645.94   96.79
   3  -2   1 1579.54   91.39
  -4   2  -1 1205.78   75.19
  -4   2  -1 1267.47   64.09
  -4   2  -1 1236.58   73.19
  -4   2  -1 1138.99   69.29
   4  -2   1 1296.67   69.89
   4  -2   1 1174.78   70.59
   4  -2   1 1324.67   75.29
  -5   2  -1  299.97   17.40
  -5   2  -1  288.87   20.90
  -5   2  -1  280.07   19.70
   5  -2   1  300.17   20.90
   5  -2   1  313.47   20.60
   5  -2   1  295.87   19.00
  -6   2  -1   97.59   11.70
  -6   2  -1   88.79    8.50
   6  -2   1   87.09   11.50
   6  -2   1   96.59   11.10
   6  -2   1   90.79    8.70
  -7   2  -1  108.59   10.70
  -7   2  -1  104.99   13.80
   7  -2   1  103.29   12.80
   7  -2   1   88.59   13.30
   7  -2   1   97.09   12.70
  -8   2  -1   31.40   10.00
   8  -2   1   22.10    8.60
   8  -2   1   21.30    8.60
  -9   2  -1   11.20   10.80
   9  -2   1    1.90    9.00
   9   1  -1   42.30    9.80
   9   1  -1   43.20    8.50
  -9  -1   1   40.70    8.30
  -9  -1   1   50.09    8.80
   8   1  -1   10.60    6.00
   8   1  -1   10.20    6.70
  -8  -1   1   11.10    6.00
  -8  -1   1   10.80    6.00
   7   1  -1   84.39    9.20
   7   1  -1  112.49   10.40
   7   1  -1  100.79   11.50
  -7  -1   1  121.29   10.60
  -7  -1   1   93.39   10.70
  -7  -1   1  109.69   11.00
   6   1  -1   17.40    4.50
   6   1  -1   12.80    3.60
   6   1  -1   16.80    5.20
  -6  -1   1   16.10    4.60
  -6  -1   1   20.00    4.00
  -6  -1   1   22.10    4.60
   5   1  -1  187.78   13.60
   5   1  -1  173.88   12.00
  -5  -1   1  196.88   13.80
  -5  -1   1  180.18   13.10
  -5  -1   1  174.38   12.10
   4   1  -1    6.00    2.90
   4   1  -1    3.30    2.00
  -4  -1   1    4.90    2.50
  -4  -1   1    5.20    2.50
  -4  -1   1    4.00    2.50
   3   1  -1   57.49    4.40
   3   1  -1   68.09    5.40
  -3  -1   1   65.29    5.00
  -3  -1   1   63.39    5.40
   2   1  -1  431.06   25.60
   2   1  -1  490.95   27.30
  -2  -1   1  441.16   26.40
  -2  -1   1  445.96   23.90
  -1  -1   1  643.24   39.70
  -1  -1   1  655.03   37.20
  -1  -1   1  614.24   40.50
  -1  -1   1  639.94   34.60
   0   1  -1 1349.36  107.49
   0   1  -1 1434.56   73.09
   0   1  -1 1328.97   77.09
   0  -1   1 1292.87   76.69
   0  -1   1 1124.69   79.09
  -1   1  -1 1195.58   76.59
  -1   1  -1 1283.97   92.69
  -1   1  -1 1222.78   71.09
  -1   1  -1 1166.88   79.59
   1  -1   1 1308.47   95.89
   1  -1   1 1257.77   72.89
  -2   1  -1  211.78   11.30
  -2   1  -1  191.78   12.40
  -2   1  -1  192.68   13.00
  -2   1  -1  211.38   13.90
   2  -1   1  228.38   14.00
  -3   1  -1  337.57   17.70
  -3   1  -1  308.57   19.30
  -3   1  -1  300.47   19.40
  -3   1  -1  333.17   21.30
  -3   1  -1  315.37   20.30
   3  -1   1  361.66   21.40
  -4   1  -1  944.71   61.59
  -4   1  -1 1092.59   65.89
  -4   1  -1 1034.90   63.59
  -4   1  -1 1119.89   56.19
  -4   1  -1 1007.50   60.39
   4  -1   1 1150.78   60.99
   4  -1   1 1196.48   65.99
  -5   1  -1  920.31   56.79
  -5   1  -1  995.60   52.79
  -5   1  -1  916.71   57.89
  -5   1  -1  980.50   59.99
  -5   1  -1 1014.30   62.09
   5  -1   1 1057.99   57.49
   5  -1   1 1130.59   62.19
  -6   1  -1  275.57   19.50
  -6   1  -1  310.37   22.00
  -6   1  -1  279.67   19.80
  -6   1  -1  295.47   18.10
  -6   1  -1  299.67   21.40
   6  -1   1  317.97   21.80
   6  -1   1  304.97   20.60
  -7   1  -1  140.09   14.60
  -7   1  -1  140.89   13.80
  -7   1  -1  128.19   11.40
   7  -1   1  140.49   13.80
   7  -1   1  131.69   13.60
   7  -1   1  138.59   11.50
   7  -1   1  144.69   14.70
  -8   1  -1  164.68   13.80
  -8   1  -1  158.28   17.50
   8  -1   1  169.68   17.30
   8  -1   1  163.28   16.40
   8  -1   1  162.88   13.80
   8  -1   1  160.48   16.30
  -9   1  -1   95.09   16.80
   9  -1   1   83.19   14.60
   9   0  -1  128.29   14.40
   9   0  -1  136.29   16.40
  -9   0   1  124.69   14.60
   8   0  -1  135.99   13.50
   8   0  -1  149.39   15.30
   8   0  -1  144.39   13.20
  -8   0   1  137.99   13.30
  -8   0   1  137.39   12.30
   7   0  -1  246.68   17.90
   7   0  -1  228.98   16.80
   7   0  -1  229.48   17.60
  -7   0   1  218.78   17.00
  -7   0   1  219.38   17.90
  -7   0   1  225.88   16.60
  -7   0   1  257.67   18.00
   6   0  -1 1136.79   62.89
   6   0  -1 1023.50   61.69
   6   0  -1 1002.00   58.19
  -6   0   1  993.10   61.89
  -6   0   1 1033.30   62.79
  -6   0   1  961.80   59.89
  -6   0   1 1011.50   54.89
   5   0  -1 1500.65   89.29
   5   0  -1 1489.85   84.49
   5   0  -1 1712.33   91.39
  -5   0   1 1450.35   87.09
  -5   0   1 1481.55   89.39
  -5   0   1 1470.55   79.29
  -5   0   1 1541.35   91.29
   4   0  -1 1143.29   67.39
   4   0  -1 1365.06   74.49
   4   0  -1 1199.08   71.29
  -4   0   1 1145.29   69.59
  -4   0   1 1160.68   71.39
  -4   0   1 1310.87   73.09
  -4   0   1 1194.88   63.39
   3   0  -1 1295.47  101.59
   3   0  -1 1264.07   76.99
   3   0  -1 1579.54   84.69
  -3   0   1 1309.27   72.19
  -3   0   1 1296.57   80.39
  -3   0   1 1187.98  101.39
  -3   0   1 1492.65   84.99
   2   0  -1 3119.49  247.18
   2   0  -1 3220.68  182.58
  -2   0   1 3409.56  171.78
  -2   0   1 3383.46  188.78
  -2   0   1 3112.09  241.48
   1   0  -1 1381.46   78.09
   1   0  -1 1395.16   99.89
   1   0  -1 1338.97   83.39
   1   0  -1 1419.26   83.09
  -1   0   1 1342.47   80.79
  -1   0   1 1349.77   99.69
  -1   0   1 1440.76   73.89
  -1   0   1 1429.66   83.19
  -1   0  -1 3519.75  224.98
  -1   0  -1 3817.62  209.38
  -1   0  -1 3356.36  228.38
  -1   0  -1 3368.26  233.68
   1   0   1 3650.63  205.28
  -2   0  -1  303.37   19.90
  -2   0  -1  297.87   18.20
  -2   0  -1  308.27   17.70
  -2   0  -1  338.07   16.60
  -2   0  -1  300.27   18.50
  -3   0  -1 1607.94  100.19
  -3   0  -1 1683.83  103.09
  -3   0  -1 1702.53   95.49
  -3   0  -1 1604.14   97.89
  -3   0  -1 1751.62  130.29
  -4   0  -1  829.32   51.09
  -4   0  -1  903.11   45.40
  -4   0  -1  832.52   49.99
  -4   0  -1  829.62   48.50
  -4   0  -1  930.21   53.69
  -5   0  -1  342.37   23.50
  -5   0  -1  316.37   22.00
  -5   0  -1  303.07   20.70
  -5   0  -1  350.96   19.60
  -5   0  -1  315.27   21.30
   5   0   1  356.16   21.40
   5   0   1  341.97   21.90
   5   0   1  396.96   23.80
  -6   0  -1   88.29    9.90
  -6   0  -1   91.99    9.10
  -6   0  -1  111.79   11.60
  -6   0  -1  101.09    8.10
  -6   0  -1   90.49    9.00
   6   0   1  102.29    9.80
   6   0   1  100.69   10.70
   6   0   1  101.29    9.60
   6   0   1  106.29    8.70
  -7   0  -1  279.17   20.60
  -7   0  -1  240.98   18.20
  -7   0  -1  255.87   17.10
  -7   0  -1  231.68   17.60
  -7   0  -1  242.08   19.70
   7   0   1  273.07   20.20
   7   0   1  259.37   19.20
   7   0   1  261.77   18.60
   7   0   1  258.07   17.00
  -8   0  -1   15.50    7.50
  -8   0  -1   13.80    5.60
  -8   0  -1   22.20    6.90
  -8   0  -1   14.40    5.50
   8   0   1    9.60    5.50
   8   0   1   11.10    6.90
   8   0   1   14.30    6.60
   8   0   1    9.50    6.20
  -9   0  -1   19.40    6.60
   9   0   1   17.90    6.60
   9   0   1    9.60    7.90
   9  -1  -1    5.00    8.80
   9  -1  -1    4.70    6.50
  -9   1   1   10.30    6.70
   8  -1  -1   -2.60    6.00
   8  -1  -1   -3.00    6.90
  -8   1   1    6.00    5.50
  -8   1   1    1.30    7.80
   7  -1  -1   -6.70    4.80
   7  -1  -1    2.90    6.00
  -7   1   1    3.40    4.60
  -7   1   1    3.30    6.50
   6  -1  -1    6.40    5.10
   6  -1  -1    6.90    4.70
   6  -1  -1    8.70    4.30
  -6   1   1    6.60    5.30
  -6   1   1    9.80    4.10
  -6   1   1    8.80    3.80
   5  -1  -1   35.40    5.70
   5  -1  -1   33.00    5.40
   5  -1  -1   28.10    5.20
  -5   1   1   44.50    5.80
  -5   1   1   35.30    5.70
  -5   1   1   38.20    5.70
  -5   1   1   28.20    4.60
   4  -1  -1   38.20    4.90
   4  -1  -1   28.00    4.50
  -4   1   1   29.20    4.20
  -4   1   1   44.80    5.20
  -4   1   1   31.70    4.60
  -4   1   1   37.50    4.70
   3  -1  -1    6.80    2.20
   3  -1  -1    4.20    1.80
  -3   1   1    5.50    2.50
  -3   1   1    7.00    2.10
  -3   1   1    5.20    1.50
  -3   1   1    4.90    1.90
   2  -1  -1 1319.27   74.79
   2  -1  -1 1358.86  119.69
  -2   1   1 1273.07   76.69
  -2   1   1 1378.36   70.49
  -2   1   1 1250.17   78.99
   1  -1  -1  442.46   25.20
   1  -1  -1  458.05   27.10
   1  -1  -1  479.05   26.40
  -1   1   1  433.96   36.20
  -1   1   1  440.56   23.60
  -1   1   1  431.46   26.50
   0  -1  -1  789.02   46.40
   0  -1  -1  871.11   50.39
   0   1   1  831.82   46.50
   0   1   1  826.62   48.50
   0   1   1  730.13   43.60
  -1  -1  -1 1994.20  124.79
  -1  -1  -1 2009.40  150.78
   1   1   1 2181.08  137.09
  -2  -1  -1  744.53   45.90
  -2  -1  -1  658.33   43.00
  -2  -1  -1  744.03   41.10
  -2  -1  -1  701.43   41.80
   2   1   1  711.93   50.39
   2   1   1  758.02   61.59
  -3  -1  -1 1490.05  128.79
  -3  -1  -1 1630.94   90.99
  -3  -1  -1 1664.83   85.79
  -3  -1  -1 1457.25   95.29
   3   1   1 1611.04   95.69
   3   1   1 1631.64   85.39
  -4  -1  -1 1865.51   92.29
  -4  -1  -1 1613.24  105.29
  -4  -1  -1 1723.13   99.29
  -4  -1  -1 1718.33  102.09
   4   1   1 1830.32   93.39
   4   1   1 1716.13  105.49
  -5  -1  -1  478.65   29.50
  -5  -1  -1  453.35   28.00
  -5  -1  -1  486.95   32.30
  -5  -1  -1  460.85   29.90
  -5  -1  -1  499.05   26.80
   5   1   1  503.75   29.90
   5   1   1  496.85   26.70
  -6  -1  -1  493.75   34.20
  -6  -1  -1  489.25   31.70
  -6  -1  -1  560.74   30.50
  -6  -1  -1  582.94   36.70
  -6  -1  -1  543.15   33.60
   6   1   1  560.84   32.40
   6   1   1  558.64   34.20
   6   1   1  572.04   30.50
  -7  -1  -1  426.16   29.80
  -7  -1  -1  405.56   27.20
  -7  -1  -1  416.46   24.90
  -7  -1  -1  368.06   25.50
   7   1   1  422.36   26.20
   7   1   1  417.06   24.90
   7   1   1  477.85   29.80
   7   1   1  412.66   28.10
  -8  -1  -1  396.16   28.60
  -8  -1  -1  372.06   26.40
  -8  -1  -1  380.66   24.40
   8   1   1  358.36   27.10
   8   1   1  423.46   28.40
   8   1   1  374.86   25.20
   8   1   1  398.76   24.50
  -9  -1  -1  163.48   16.00
  -9  -1  -1  169.28   15.00
   9   1   1  126.09   15.60
   9   1   1  157.08   14.80
   8  -2  -1   64.19   11.60
   8  -2  -1   69.79   11.30
  -8   2   1   86.99   15.60
  -8   2   1   81.49   11.40
   7  -2  -1  235.78   19.00
   7  -2  -1  227.38   18.40
  -7   2   1  231.08   16.80
  -7   2   1  229.18   19.10
   6  -2  -1  517.75   34.70
   6  -2  -1  553.44   34.90
   6  -2  -1  531.75   33.40
  -6   2   1  510.15   30.30
  -6   2   1  549.85   35.30
   5  -2  -1  557.14   33.60
   5  -2  -1  567.64   35.50
  -5   2   1  510.35   32.90
  -5   2   1  560.74   30.80
  -5   2   1  579.44   35.40
   4  -2  -1  997.20   57.49
   4  -2  -1  960.50   53.69
  -4   2   1  935.21   49.60
  -4   2   1  851.11   53.79
  -4   2   1  958.50   56.39
   3  -2  -1 1592.14   91.29
   3  -2  -1 1732.63  100.79
  -3   2   1 1649.13   86.99
  -3   2   1 1503.85   94.29
  -3   2   1 1628.64   96.09
   2  -2  -1 2716.23  157.08
   2  -2  -1 2929.41  167.18
  -2   2   1 2669.93  164.48
  -2   2   1 2649.83  144.89
   1  -2  -1 1507.35   88.09
   1  -2  -1 1602.54   96.49
  -1   2   1 1490.45   79.79
  -1   2   1 1571.24   93.29
   0  -2  -1 4220.58  271.97
   0  -2  -1 4663.93  269.27
   0  -2  -1 4267.87  299.57
   0   2   1 4962.90  235.78
   0   2   1 4173.68  304.67
   0   2   1 4412.66  271.87
  -1  -2  -1  545.05   29.40
  -1  -2  -1  511.35   31.00
  -1  -2  -1  521.15   30.00
   1   2   1  505.35   40.30
   1   2   1  478.95   26.60
  -2  -2  -1  814.72   45.80
  -2  -2  -1  767.22   47.90
  -2  -2  -1  883.51   49.70
   2   2   1  810.52   49.90
   2   2   1  829.62   42.50
  -3  -2  -1 1799.72  118.49
  -3  -2  -1 1791.52  105.69
  -3  -2  -1 1671.13  108.29
  -3  -2  -1 1855.91   95.69
   3   2   1 1747.93   95.59
  -4  -2  -1 1373.76   67.59
  -4  -2  -1 1314.47   74.69
  -4  -2  -1 1258.27   73.79
   4   2   1 1340.17   67.49
   4   2   1 1210.28   75.99
  -5  -2  -1  246.78   16.00
  -5  -2  -1  274.67   16.10
  -5  -2  -1  273.67   17.60
   5   2   1  258.97   17.80
   5   2   1  279.27   16.10
  -6  -2  -1   84.19    8.90
  -6  -2  -1   72.69    6.90
  -6  -2  -1   66.79   10.60
  -6  -2  -1   76.49    8.00
   6   2   1   77.19    7.40
   6   2   1   81.39    7.90
   6   2   1   75.99    8.70
  -7  -2  -1  206.08   16.30
  -7  -2  -1  211.28   14.90
  -7  -2  -1  226.78   19.40
  -7  -2  -1  191.38   13.80
   7   2   1  190.88   16.00
   7   2   1  211.38   14.80
   7   2   1  211.68   14.40
  -8  -2  -1    0.80    5.40
  -8  -2  -1    2.00    5.00
  -8  -2  -1    7.40    6.70
   8   2   1    1.90    5.10
   8   2   1   -1.30    5.00
  -9  -2  -1    4.70    6.10
  -9  -2  -1    7.00    6.60
   9   2   1   -0.70    5.90
 -10  -2  -1    6.10    7.50
 -10  -2  -1    5.90    7.10
  10   2   1   -0.70    6.90
   8  -3  -1    1.60    8.80
   8  -3  -1    3.20    8.40
  -8   3   1   10.70    9.90
   7  -3  -1   -5.40    7.40
   7  -3  -1   -1.20    7.10
  -7   3   1    2.60    4.70
  -7   3   1    1.80    8.10
   6  -3  -1   33.00    7.20
   6  -3  -1   36.00    8.30
  -6   3   1   37.20    7.60
  -6   3   1   35.60    6.00
   5  -3  -1   47.30    7.80
   5  -3  -1   40.30    7.40
  -5   3   1   51.79    6.60
  -5   3   1   50.69    9.30
   4  -3  -1   33.40    5.70
   4  -3  -1   32.90    4.50
   4  -3  -1   30.20    5.90
  -4   3   1   34.70    6.20
  -4   3   1   37.20    5.10
   3  -3  -1   74.59    5.60
   3  -3  -1   67.09    7.30
   3  -3  -1   63.59    7.50
  -3   3   1   77.09    5.90
  -3   3   1   69.89    6.90
   2  -3  -1  385.46   24.50
   2  -3  -1  338.07   22.00
   2  -3  -1  393.16   23.00
  -2   3   1  398.56   21.00
  -2   3   1  398.06   24.00
   1  -3  -1 1010.90   59.09
   1  -3  -1 1012.90   55.29
   1  -3  -1 1018.20   59.69
   1  -3  -1 1001.90   61.29
  -1   3   1  995.30   57.99
  -1   3   1  904.61   51.69
   0  -3  -1 1459.65   85.29
   0  -3  -1 1504.45   83.89
   0  -3  -1 1414.06   90.69
   0   3   1 1438.66   88.89
   0   3   1 1608.34   78.69
  -1  -3  -1 3629.94  198.28
  -1  -3  -1 3662.73  204.58
  -1  -3  -1 3500.65  217.28
   1   3   1 3308.77  236.88
   1   3   1 3573.74  208.18
  -2  -3  -1 1038.90   59.49
  -2  -3  -1 1024.30   62.19
  -2  -3  -1 1068.19   63.49
   2   3   1 1017.40   55.59
   2   3   1 1135.79   63.49
  -3  -3  -1  916.91   47.70
  -3  -3  -1  903.51   53.09
  -3  -3  -1  834.12   50.19
   3   3   1  835.52   50.79
   3   3   1  842.22   45.30
  -4  -3  -1 3342.47  165.28
  -4  -3  -1 3107.29  184.48
  -4  -3  -1 2903.21  192.48
  -4  -3  -1 3206.08  175.78
   4   3   1 3183.88  166.58
  -5  -3  -1  804.92   47.30
  -5  -3  -1  885.01   50.69
  -5  -3  -1  866.71   45.60
   5   3   1  859.41   45.50
  -6  -3  -1  792.42   49.60
  -6  -3  -1  928.31   48.20
  -6  -3  -1  952.60   53.49
   6   3   1  899.71   48.00
  -7  -3  -1  725.93   45.20
  -7  -3  -1  747.93   41.10
   7   3   1  740.83   41.10
  -8  -3  -1  294.47   24.40
  -8  -3  -1  276.87   20.80
  -8  -3  -1  276.07   19.60
   8   3   1  282.67   18.80
  -9  -3  -1  198.98   19.00
  -9  -3  -1  194.48   17.10
   9   3   1  211.08   17.20
 -10  -3  -1  172.48   19.00
 -10  -3  -1  178.18   17.40
  10   3   1  170.58   17.00
   7  -4  -1  137.49   17.50
   7  -4  -1  140.09   17.50
  -7   4   1  156.68   18.60
   6  -4  -1  159.78   16.80
   6  -4  -1  190.18   18.10
  -6   4   1  203.18   18.70
  -6   4   1  194.48   14.30
   5  -4  -1  449.26   30.30
   5  -4  -1  447.86   29.40
  -5   4   1  426.16   29.70
  -5   4   1  435.56   25.60
   4  -4  -1  987.10   56.49
   4  -4  -1  965.50   60.19
  -4   4   1  968.50   51.39
  -4   4   1  950.10   58.79
   3  -4  -1  961.20   57.09
   3  -4  -1 1007.40   61.39
  -3   4   1 1009.80   52.49
  -3   4   1 1007.00   59.99
   2  -4  -1  556.74   31.40
   2  -4  -1  564.14   35.00
   2  -4  -1  527.65   32.40
  -2   4   1  555.44   29.90
  -2   4   1  552.64   34.00
   1  -4  -1  789.02   48.40
   1  -4  -1  818.92   45.10
   1  -4  -1  795.42   44.70
  -1   4   1  805.32   46.90
  -1   4   1  716.63   42.00
   0  -4  -1  845.02   52.29
   0  -4  -1  861.21   48.20
   0  -4  -1  847.12   49.90
   0   4   1  901.51   46.10
   0   4   1  840.22   50.59
  -1  -4  -1 1142.49   70.49
  -1  -4  -1 1187.38   69.69
  -1  -4  -1 1168.48   85.69
   1   4   1 1135.49   89.09
   1   4   1 1209.28   62.19
  -2  -4  -1  887.51   47.90
  -2  -4  -1  846.82   51.79
  -2  -4  -1  839.82   49.00
   2   4   1  842.12   44.40
   2   4   1  829.92   49.60
  -3  -4  -1  767.92   47.10
  -3  -4  -1  818.72   49.80
   3   4   1  859.01   47.70
   3   4   1  789.92   42.60
  -4  -4  -1  183.58   10.70
  -4  -4  -1  171.78   12.90
  -4  -4  -1  185.48   14.50
   4   4   1  191.68   12.60
   4   4   1  173.28   11.60
  -5  -4  -1  185.28   13.40
  -5  -4  -1  184.98   10.90
  -5  -4  -1  175.68   16.00
  -5  -4  -1  188.28   12.00
   5   4   1  171.28   13.20
   5   4   1  183.08   11.90
  -6  -4  -1  145.99   11.50
  -6  -4  -1  103.99   14.10
  -6  -4  -1  123.19    8.60
  -6  -4  -1  141.19   10.20
   6   4   1  130.09   11.50
   6   4   1  140.79   10.20
  -7  -4  -1    0.90    4.30
  -7  -4  -1    3.10    3.90
  -7  -4  -1   -6.10    5.50
   7   4   1    3.40    4.10
   7   4   1   -0.50    4.30
  -8  -4  -1    4.30    6.20
  -8  -4  -1    0.20    7.40
  -8  -4  -1    5.60    5.40
   8   4   1   -0.50    5.10
  -9  -4  -1    6.30    7.30
  -9  -4  -1    6.00    6.30
   9   4   1   -1.50    6.20
 -10  -4  -1   13.50    8.70
  10   4   1    9.00    7.60
   7  -5  -1   -2.40    9.20
  -7   5   1    2.30   10.30
   6  -5  -1   53.09   10.30
   6  -5  -1   56.89   11.40
  -6   5   1   61.39   12.00
   5  -5  -1   16.40    7.20
   5  -5  -1   15.10    7.90
  -5   5   1   18.80    6.70
   4  -5  -1  134.19   13.90
   4  -5  -1  133.19   12.60
  -4   5   1  141.29   10.60
  -4   5   1  140.29   12.90
   3  -5  -1  425.06   29.10
   3  -5  -1  403.46   26.80
  -3   5   1  435.16   28.40
  -3   5   1  433.36   24.10
   2  -5  -1  255.47   18.90
   2  -5  -1  252.27   17.20
  -2   5   1  260.67   17.80
  -2   5   1  253.17   15.50
   1  -5  -1  791.72   45.00
   1  -5  -1  815.42   45.40
   1  -5  -1  813.72   49.20
  -1   5   1  797.82   47.30
  -1   5   1  707.53   42.60
   0  -5  -1 1225.68   69.09
   0  -5  -1 1264.07   72.19
   0  -5  -1 1214.48   75.09
   0   5   1 1274.77   65.99
   0   5   1 1208.18   72.49
  -1  -5  -1 1101.79   67.69
  -1  -5  -1 1115.79   64.39
  -1  -5  -1 1106.99   61.89
   1   5   1 1142.89   58.49
   1   5   1 1097.79   65.19
  -2  -5  -1  700.73   44.50
  -2  -5  -1  721.93   40.20
  -2  -5  -1  703.63   41.80
   2   5   1  735.43   38.20
   2   5   1  726.03   42.60
  -3  -5  -1 1837.72  111.49
  -3  -5  -1 1922.11  105.79
  -3  -5  -1 1811.12  108.89
   3   5   1 1863.11  111.59
   3   5   1 1859.71   99.09
  -4  -5  -1 2323.77  141.09
  -4  -5  -1 2254.57  133.39
   4   5   1 2416.36  139.79
   4   5   1 2244.48  120.59
  -5  -5  -1  693.13   45.80
  -5  -5  -1  655.03   39.00
  -5  -5  -1  701.13   42.90
   5   5   1  778.42   43.10
   5   5   1  714.53   38.70
  -6  -5  -1  824.82   49.99
  -6  -5  -1  761.62   54.19
   6   5   1  819.22   44.90
   6   5   1  877.11   50.19
  -7  -5  -1  754.32   46.00
   7   5   1  712.03   40.80
   7   5   1  734.93   45.90
  -8  -5  -1  291.77   22.30
   8   5   1  306.47   20.80
  -9  -5  -1  251.27   21.00
   9   5   1  264.77   18.90
 -10  -5  -1  159.28   19.20
  10   5   1  159.58   17.40
   6  -6  -1   64.09   11.60
  -6   6   1   95.09   16.90
   5  -6  -1  185.68   19.30
   5  -6  -1  189.78   17.70
  -5   6   1  222.78   20.40
   4  -6  -1  290.27   23.60
   4  -6  -1  323.57   24.20
  -4   6   1  347.87   24.90
   3  -6  -1  149.79   14.70
   3  -6  -1  152.78   14.20
  -3   6   1  163.68   11.20
  -3   6   1  170.38   15.20
   2  -6  -1  175.28   15.50
   2  -6  -1  163.48   14.30
  -2   6   1  179.58   11.90
  -2   6   1  163.58   13.60
   1  -6  -1  598.64   34.50
   1  -6  -1  577.44   37.40
  -1   6   1  517.55   32.60
  -1   6   1  587.24   35.90
   0  -6  -1  435.36   24.90
   0  -6  -1  422.86   28.60
   0  -6  -1  441.06   26.10
   0   6   1  391.46   25.90
   0   6   1  425.26   26.90
  -1  -6  -1  568.44   33.30
  -1  -6  -1  568.84   36.70
  -1  -6  -1  559.94   33.00
   1   6   1  596.54   31.90
   1   6   1  544.35   34.50
  -2  -6  -1  324.77   19.70
  -2  -6  -1  329.47   20.40
  -2  -6  -1  317.17   22.70
   2   6   1  333.57   21.00
   2   6   1  329.87   19.00
  -3  -6  -1  316.67   20.40
  -3  -6  -1  321.47   19.00
  -3  -6  -1  306.97   21.80
   3   6   1  327.27   20.30
   3   6   1  304.87   18.40
  -4  -6  -1    1.30    2.70
  -4  -6  -1    0.20    4.40
  -4  -6  -1   -0.90    2.70
   4   6   1    0.50    3.20
  -5  -6  -1  130.09   13.40
  -5  -6  -1  116.69   10.60
   5   6   1  112.89   10.30
  -6  -6  -1   33.00    9.00
  -6  -6  -1   27.50    6.50
   6   6   1   26.00    5.80
   6   6   1   46.00    6.90
  -7  -6  -1    8.60    6.00
  -7  -6  -1    7.40    8.00
   7   6   1    7.30    5.30
  -8  -6  -1    2.00    7.50
  -8  -6  -1    4.80    6.90
   8   6   1    2.90    4.40
  -9  -6  -1    6.50    6.30
  -9  -6  -1    9.80    9.20
   9   6   1    1.90    5.10
 -10  -6  -1   36.60    9.10
  10   6   1   33.10    9.30
   5  -7  -1   22.20    9.60
   5  -7  -1   24.60   11.10
  -5   7   1   28.00   11.10
   4  -7  -1  141.79   15.20
   4  -7  -1  142.39   17.40
  -4   7   1  163.98   17.80
   3  -7  -1  180.48   18.60
   3  -7  -1  191.98   18.00
  -3   7   1  207.28   18.30
   2  -7  -1  100.59   11.00
   2  -7  -1  102.59   13.50
  -2   7   1  107.79    9.20
  -2   7   1  113.39   12.70
   1  -7  -1  369.16   26.70
   1  -7  -1  360.16   23.80
  -1   7   1  351.96   23.10
  -1   7   1  376.06   25.30
   0  -7  -1 1216.98   66.19
   0  -7  -1 1173.28   72.09
   0   7   1 1148.49   69.09
   0   7   1 1088.09   63.39
  -1  -7  -1  821.32   52.79
  -1  -7  -1  849.22   48.10
  -1  -7  -1  838.72   48.50
   1   7   1  824.42   50.59
   1   7   1  841.62   46.30
  -2  -7  -1  864.11   56.19
  -2  -7  -1  874.01   50.79
  -2  -7  -1  912.71   52.39
   2   7   1  904.51   53.79
   2   7   1  929.81   48.60
  -3  -7  -1  972.80   54.59
  -3  -7  -1  958.10   57.09
  -3  -7  -1  963.90   60.99
   3   7   1  959.00   52.09
   3   7   1 1007.10   58.09
  -4  -7  -1  698.13   42.90
  -4  -7  -1  719.13   46.20
   4   7   1  677.43   38.80
   4   7   1  742.73   43.10
  -5  -7  -1 1452.55   85.89
  -5  -7  -1 1482.05   90.99
   5   7   1 1521.45   86.39
   5   7   1 1418.36   77.59
  -6  -7  -1 1175.38   74.09
  -6  -7  -1 1136.99   69.09
   6   7   1 1196.28   68.79
   6   7   1 1106.39   62.19
  -7  -7  -1  381.16   27.20
  -7  -7  -1  389.66   32.30
   7   7   1  401.16   24.40
  -8  -7  -1  211.98   18.30
  -8  -7  -1  168.48   23.00
   8   7   1  226.08   17.60
  -9  -7  -1  274.17   22.60
   9   7   1  261.87   19.80
 -10  -7  -1  156.48   17.70
  10   7   1  160.78   15.80
   5  -8  -1   62.29   12.10
   5  -8  -1   58.39   13.20
  -5   8   1   77.39   14.80
   4  -8  -1   84.19   14.20
   4  -8  -1   94.49   16.70
  -4   8   1  125.19   17.60
   3  -8  -1   45.80   10.60
   3  -8  -1   42.10   10.90
  -3   8   1   56.39   11.20
   2  -8  -1  142.59   17.00
   2  -8  -1  135.29   16.00
  -2   8   1  155.58   16.10
   1  -8  -1  323.97   22.70
   1  -8  -1  302.07   24.70
  -1   8   1  328.77   23.50
  -1   8   1  281.37   20.60
   0  -8  -1   23.00    7.90
   0  -8  -1   22.70    6.50
   0   8   1   26.30    6.00
   0   8   1   20.00    6.50
  -1  -8  -1  166.08   13.70
  -1  -8  -1  179.38   16.70
   1   8   1  176.58   14.60
   1   8   1  156.48   15.60
  -2  -8  -1  116.39    9.90
  -2  -8  -1  124.89   12.50
  -2  -8  -1  110.99   10.20
   2   8   1  116.89   12.40
   2   8   1  130.39   11.50
  -3  -8  -1    7.40    4.10
  -3  -8  -1    9.70    5.20
  -3  -8  -1    7.20    3.80
   3   8   1   15.20    4.80
   3   8   1   11.40    5.50
  -4  -8  -1    3.30    4.80
  -4  -8  -1   -0.40    4.40
   4   8   1    7.60    4.70
   4   8   1   -1.60    3.00
  -5  -8  -1   12.90    7.60
  -5  -8  -1   12.60    5.90
   5   8   1    7.20    5.30
   5   8   1   19.00    4.80
  -6  -8  -1   17.00    9.10
  -6  -8  -1   14.40    6.70
   6   8   1   15.70    6.10
  -7  -8  -1    0.60    6.80
  -7  -8  -1    2.60    5.20
   7   8   1   -0.30    5.90
  -8  -8  -1    6.80    8.10
  -8  -8  -1   12.10   11.30
   8   8   1    4.90    7.00
  -9  -8  -1   34.00   10.90
  -9  -8  -1   48.60   13.90
   9   8   1   37.30    8.00
   4  -9  -1   60.59   13.50
   4  -9  -1   58.19   11.60
  -4   9   1   82.89   14.20
   3  -9  -1   64.49   12.70
   3  -9  -1   66.39   13.40
  -3   9   1   89.59   16.30
   2  -9  -1  168.38   20.00
   2  -9  -1  163.68   16.30
  -2   9   1  192.18   19.10
   1  -9  -1  407.96   28.70
   1  -9  -1  381.66   30.20
  -1   9   1  436.96   30.10
   0  -9  -1  483.25   34.50
   0  -9  -1  467.05   30.90
   0   9   1  508.75   33.50
  -1  -9  -1  248.58   21.70
  -1  -9  -1  237.58   18.00
   1   9   1  201.48   18.90
   1   9   1  254.97   19.30
  -2  -9  -1  508.85   36.00
  -2  -9  -1  499.85   30.90
   2   9   1  518.75   33.20
   2   9   1  484.65   31.00
  -3  -9  -1  601.84   41.50
  -3  -9  -1  594.94   37.10
  -3  -9  -1  584.94   35.60
   3   9   1  618.74   38.20
   3   9   1  601.64   35.60
  -4  -9  -1  587.54   40.50
  -4  -9  -1  571.04   36.60
   4   9   1  575.44   34.00
   4   9   1  580.24   36.80
  -5  -9  -1  923.21   59.19
  -5  -9  -1  876.81   54.59
   5   9   1  895.21   49.70
   5   9   1  875.01   54.19
  -6  -9  -1  407.26   29.30
  -6  -9  -1  452.25   33.40
   6   9   1  377.86   25.30
  -7  -9  -1  204.78   18.60
  -7  -9  -1  229.78   22.40
   7   9   1  212.78   16.80
  -8  -9  -1  215.48   21.90
  -8  -9  -1  224.18   27.20
   8   9   1  207.88   17.40
  -9  -9  -1  195.58   27.50
  -9  -9  -1  204.68   22.40
   9   9   1  187.78   17.20
   2 -10  -1   43.80   12.60
   2 -10  -1   44.90   11.60
  -2  10   1   52.39   12.30
   1 -10  -1   43.40   12.50
   1 -10  -1   40.50   10.30
  -1  10   1   47.00   11.40
   0 -10  -1    2.60    7.30
   0 -10  -1    0.80    7.20
   0  10   1    3.80    8.40
  -1 -10  -1   12.10    9.70
  -1 -10  -1   10.80    6.80
   1  10   1   12.50    8.10
  -2 -10  -1   -4.40    8.40
  -2 -10  -1    0.40    5.20
   2  10   1   -1.70    8.70
   2  10   1    0.60    6.60
  -3 -10  -1    8.70    9.00
   3  10   1   10.90    6.50
   3  10   1    5.00    7.40
  -4 -10  -1    3.20    6.50
  -4 -10  -1   -3.20    4.90
   4  10   1    3.20    5.50
   4  10   1   -4.00    7.00
  -5 -10  -1   10.80    9.80
  -5 -10  -1    0.10    5.80
   5  10   1    6.00    7.30
  -6 -10  -1   64.09   10.80
  -6 -10  -1   76.99   14.80
   6  10   1   51.79    9.20
  -7 -10  -1    4.20    8.20
  -7 -10  -1   12.80   12.00
   7  10   1   -0.50    7.20
  -8 -10  -1   19.60   10.10
  -8 -10  -1   36.40   14.80
   8  10   1   23.90    9.00
   1 -11  -1  132.69   18.20
   1 -11  -1  108.49   17.10
  -1  11   1  137.29   19.40
   0 -11  -1  113.39   16.10
   0 -11  -1  135.59   20.80
   0  11   1  120.09   17.70
  -1 -11  -1  191.28   18.80
  -1 -11  -1  230.78   24.30
   1  11   1  218.18   21.00
  -2 -11  -1  331.27   29.70
   2  11   1  319.07   25.80
  -3 -11  -1  222.98   21.20
   3  11   1  224.88   19.50
   3  11   1  169.68   18.90
  -4 -11  -1  323.07   27.10
   4  11   1  308.87   26.40
  -5 -11  -1  356.56   30.90
  -5 -11  -1  325.47   26.10
   5  11   1  337.27   27.30
  -6 -11  -1  229.98   25.90
  -6 -11  -1  199.68   20.50
   6  11   1  228.08   20.90
  -7 -11  -1  174.68   25.40
  -7 -11  -1  154.08   19.40
  -1 -12  -1   -0.20   12.30
   1  12   1   -0.30   10.10
  -2 -12  -1   -0.70   11.90
   2  12   1    3.60    9.40
  -3 -12  -1   12.10   12.50
   3  12   1    2.70    8.80
  -4 -12  -1   22.10   13.00
  -5 -12  -1   30.20   13.80
   5  12   1   19.20   12.50
  -6 -12  -1   55.19   15.90
   6  12   1   44.40   13.70
   5  12  -2  102.09   16.60
  -5 -12   2  123.49   23.30
   4  12  -2   61.39   12.70
  -4 -12   2   72.39   16.60
   3  12  -2  160.38   20.10
  -3 -12   2  159.08   23.90
   2  12  -2  133.69   16.90
  -2 -12   2  126.59   18.80
   1  12  -2   84.19   16.00
  -1 -12   2   72.89   15.00
   7  11  -2   64.49   11.40
  -7 -11   2   68.29   13.30
  -7 -11   2   89.79   19.00
   6  11  -2   31.20    8.70
  -6 -11   2   43.30   11.10
  -6 -11   2   51.09   15.30
   5  11  -2   34.30    9.60
  -5 -11   2   28.50   13.00
  -5 -11   2   14.90    8.30
   4  11  -2   32.20    9.70
  -4 -11   2   10.00    7.40
  -4 -11   2   21.40   11.80
   3  11  -2   35.70   10.60
  -3 -11   2   24.70   12.20
   2  11  -2   18.90   10.00
  -2 -11   2    4.90    8.40
   1  11  -2   28.90   11.30
  -1 -11   2   16.20   12.00
   0  11  -2    3.60   10.50
   0 -11   2   -3.50    7.60
   0 -11   2    2.00   11.30
  -1  11  -2    4.20   11.80
   1 -11   2    2.30    9.00
   1 -11   2    5.50   11.90
   8  10  -2   49.99   10.20
  -8 -10   2   51.29   12.70
   7  10  -2  119.59   15.30
  -7 -10   2  119.19   22.70
  -7 -10   2  117.49   18.20
   6  10  -2  279.37   22.00
   6  10  -2  350.96   25.30
  -6 -10   2  290.57   27.00
  -6 -10   2  288.97   25.20
   5  10  -2  169.78   16.20
   5  10  -2  223.38   18.90
  -5 -10   2  210.98   23.20
  -5 -10   2  196.78   19.20
   4  10  -2  257.17   21.30
  -4 -10   2  225.38   21.10
  -4 -10   2  272.37   25.00
   3  10  -2  350.86   25.30
  -3 -10   2  338.77   24.50
  -3 -10   2  332.17   27.30
   2  10  -2  321.07   24.70
  -2 -10   2  274.97   24.60
   1  10  -2  314.37   25.20
  -1 -10   2  296.07   26.70
  -1 -10   2  281.67   22.10
   0  10  -2  283.17   23.20
   0 -10   2  279.87   24.50
   0 -10   2  278.37   22.00
  -1  10  -2  157.18   19.80
   1 -10   2  144.89   17.20
   1 -10   2  161.68   21.20
  -2  10  -2   66.79   14.50
   2 -10   2   54.99   11.70
   2 -10   2   55.29   12.20
   9   9  -2   20.20    7.20
  -9  -9   2   28.60   11.70
   8   9  -2   46.00    9.70
  -8  -9   2   42.50   11.70
   7   9  -2   62.89    9.90
  -7  -9   2   69.29   12.20
  -7  -9   2   61.99   14.60
   6   9  -2   21.90    5.90
   6   9  -2   43.30    9.10
  -6  -9   2   41.50   11.70
  -6  -9   2   26.10    8.60
   5   9  -2   23.90    6.50
  -5  -9   2   34.90   10.40
  -5  -9   2   22.60    7.80
   4   9  -2   29.60    6.20
  -4  -9   2   48.00   10.70
  -4  -9   2   30.00    7.60
   3   9  -2    7.70    5.40
   3   9  -2   13.80    6.60
  -3  -9   2    4.40    5.30
  -3  -9   2    2.40    7.60
   2   9  -2   14.40    8.30
   2   9  -2   32.00    8.10
  -2  -9   2   16.90    5.60
  -2  -9   2   25.70    7.70
  -2  -9   2   18.50    5.90
   1   9  -2   19.60    7.90
  -1  -9   2   17.50    7.10
  -1  -9   2   13.10    6.10
   0   9  -2   12.00    8.00
   0  -9   2   10.00    8.40
   0  -9   2    5.70    6.10
  -1   9  -2   24.10    9.40
   1  -9   2   25.80   10.20
   1  -9   2   18.30    7.90
  -2   9  -2   18.00    9.90
   2  -9   2   12.70    8.00
   2  -9   2    9.60    6.60
  -3   9  -2   30.20   12.00
   3  -9   2   21.10    9.40
   3  -9   2   18.10    9.70
  -4   9  -2   42.90   13.60
   4  -9   2   33.40   11.80
   4  -9   2   36.00   13.20
   9   8  -2   57.89   10.50
  -9  -8   2   62.89   12.90
   8   8  -2  144.29   16.00
  -8  -8   2  161.18   19.00
   7   8  -2  291.47   21.60
   7   8  -2  340.47   24.30
  -7  -8   2  297.67   24.90
  -7  -8   2  281.37   28.00
   6   8  -2  478.05   30.40
   6   8  -2  531.45   34.60
  -6  -8   2  534.85   38.20
  -6  -8   2  488.25   34.60
   5   8  -2  465.25   29.50
   5   8  -2  390.26   25.30
  -5  -8   2  381.36   28.00
  -5  -8   2  436.36   31.70
   4   8  -2  388.76   26.10
   4   8  -2  340.27   22.40
  -4  -8   2  365.96   25.60
  -4  -8   2  379.46   28.10
   3   8  -2  834.22   50.79
   3   8  -2  789.32   44.30
  -3  -8   2  803.72   49.30
  -3  -8   2  824.02   53.09
   2   8  -2  734.63   46.10
   2   8  -2  732.53   40.90
  -2  -8   2  724.73   47.90
  -2  -8   2  754.52   44.60
  -2  -8   2  727.53   42.50
   1   8  -2  704.13   42.80
   1   8  -2  617.94   37.80
  -1  -8   2  677.03   40.10
  -1  -8   2  642.44   39.20
  -1  -8   2  673.73   44.60
   0   8  -2  442.16   29.50
   0  -8   2  432.56   31.00
   0  -8   2  386.86   26.40
  -1   8  -2  122.39   14.10
   1  -8   2  101.99   15.00
   1  -8   2   97.29   12.40
  -2   8  -2  205.48   17.90
   2  -8   2  189.38   16.70
   2  -8   2  213.98   20.80
  -3   8  -2  328.57   25.80
   3  -8   2  305.57   26.50
   3  -8   2  269.37   22.50
  -4   8  -2   95.29   14.40
   4  -8   2   96.49   14.50
   4  -8   2   75.19   13.30
  -5   8  -2   48.80   13.90
   5  -8   2   39.50   12.20
   5  -8   2   46.40   12.80
   9   7  -2    7.40    7.80
  -9  -7   2   10.20    7.30
   8   7  -2   39.90    8.40
   8   7  -2   56.09   10.80
  -8  -7   2   47.50   10.60
   7   7  -2   38.40    7.50
  -7  -7   2   27.90    9.90
  -7  -7   2   40.90    8.00
   6   7  -2    6.90    5.20
   6   7  -2   19.70    6.60
  -6  -7   2    8.80    6.40
  -6  -7   2   10.80    7.70
   5   7  -2   54.89    9.30
   5   7  -2   30.70    5.10
  -5  -7   2   31.00    7.20
  -5  -7   2   43.00    8.90
   4   7  -2    0.40    3.40
   4   7  -2    5.70    4.80
  -4  -7   2    0.70    3.40
  -4  -7   2   -0.20    5.40
   3   7  -2   43.90    6.60
   3   7  -2   41.00    6.10
  -3  -7   2   35.40    6.20
  -3  -7   2   37.60    4.40
  -3  -7   2   38.60    7.60
   2   7  -2    8.70    3.70
   2   7  -2   16.70    5.10
  -2  -7   2   10.30    5.50
  -2  -7   2   10.00    3.80
  -2  -7   2    7.50    3.00
   1   7  -2    4.20    4.70
   1   7  -2   -6.80    4.70
  -1  -7   2    1.30    3.00
  -1  -7   2    1.90    5.00
  -1  -7   2    0.10    3.30
   0   7  -2   50.29    7.50
   0   7  -2   70.69    9.90
   0  -7   2   74.99    8.90
   0  -7   2   80.09    9.60
   0  -7   2   75.89    7.10
  -1   7  -2   65.99    8.90
   1  -7   2   61.99   11.40
   1  -7   2   60.59    9.60
  -2   7  -2   57.39    9.10
   2  -7   2   49.60    9.80
   2  -7   2   48.30    8.70
  -3   7  -2  146.59   14.50
   3  -7   2  145.19   15.20
   3  -7   2  141.59   14.00
  -4   7  -2  147.29   17.40
   4  -7   2  121.29   17.50
   4  -7   2  122.99   16.70
  -5   7  -2   30.00   11.40
   5  -7   2   19.70   10.30
   5  -7   2   13.90   10.30
  -6   7  -2   48.00   12.00
   6  -7   2   46.80   12.90
   6  -7   2   40.90   10.70
  10   6  -2   75.79   12.50
 -10  -6   2   77.19   13.70
 -10  -6   2   79.79   12.40
   9   6  -2  122.09   15.50
  -9  -6   2  147.29   18.30
  -9  -6   2  123.59   13.20
   8   6  -2  276.27   20.30
   8   6  -2  247.58   23.90
  -8  -6   2  290.37   22.10
  -8  -6   2  273.87   20.20
   7   6  -2  357.86   28.70
   7   6  -2  405.16   25.00
  -7  -6   2  419.26   28.50
  -7  -6   2  383.86   24.70
   6   6  -2  313.67   23.40
   6   6  -2  292.87   18.70
  -6  -6   2  291.77   18.60
  -6  -6   2  324.77   22.50
  -6  -6   2  253.77   23.70
   5   6  -2  865.21   53.99
   5   6  -2  826.02   46.90
  -5  -6   2  836.82   46.90
  -5  -6   2  928.01   55.89
  -5  -6   2  881.61   52.69
   4   6  -2 1272.77   70.69
   4   6  -2 1427.96   80.99
  -4  -6   2 1349.66   78.99
  -4  -6   2 1349.56   82.69
   3   6  -2  873.61   48.50
   3   6  -2  990.30   55.89
  -3  -6   2  924.61   54.19
  -3  -6   2  863.51   50.49
  -3  -6   2  938.91   57.29
   2   6  -2 1103.49   63.79
   2   6  -2 1065.09   55.69
  -2  -6   2  989.50   58.89
  -2  -6   2 1094.19   62.09
  -2  -6   2 1063.89   65.69
   1   6  -2 1093.19   66.09
   1   6  -2 1166.28   58.19
  -1  -6   2 1079.59   61.99
  -1  -6   2 1124.39   64.09
  -1  -6   2 1069.09   68.09
   0   6  -2  945.91   53.99
   0   6  -2 1036.50   60.89
   0  -6   2 1070.69   58.49
   0  -6   2  994.60   57.19
   0  -6   2  997.00   62.69
  -1   6  -2  622.34   38.90
   1  -6   2  629.34   36.40
   1  -6   2  590.54   40.00
   1  -6   2  618.34   36.80
  -2   6  -2  529.05   35.20
   2  -6   2  548.15   37.10
   2  -6   2  567.34   34.10
  -3   6  -2  484.95   32.30
   3  -6   2  459.25   30.20
   3  -6   2  471.95   33.40
  -4   6  -2  100.49   13.70
   4  -6   2   85.59   13.50
   4  -6   2   84.09   14.10
  -5   6  -2  146.09   17.50
   5  -6   2  116.79   14.40
   5  -6   2  125.69   17.00
  -6   6  -2   48.50   11.00
   6  -6   2   32.10   10.80
   6  -6   2   44.30   10.20
  10   5  -2    7.40    8.10
 -10  -5   2    7.60    6.20
 -10  -5   2    7.00    9.00
   9   5  -2    5.20    5.60
   9   5  -2   10.30    9.20
  -9  -5   2   14.70    8.60
  -9  -5   2    9.20    5.60
   8   5  -2   28.00    7.30
  -8  -5   2   28.10    7.20
  -8  -5   2   27.10    7.10
   7   5  -2   53.29    7.90
  -7  -5   2   65.89    9.40
  -7  -5   2   50.99    7.60
   6   5  -2   -1.70    2.90
   6   5  -2   -6.40    4.70
  -6  -5   2   -2.10    2.70
  -6  -5   2    0.00    3.60
  -6  -5   2    2.50    5.30
   5   5  -2   -1.10    4.50
   5   5  -2   -1.10    3.30
  -5  -5   2    3.90    3.40
  -5  -5   2    4.30    5.30
  -5  -5   2    3.20    3.20
   4   5  -2   55.39    8.10
   4   5  -2   62.49    5.80
  -4  -5   2   61.09    8.60
  -4  -5   2   56.39    5.60
  -4  -5   2   62.69    7.90
   3   5  -2   62.69    5.50
   3   5  -2   81.89    8.10
  -3  -5   2   64.99    4.40
  -3  -5   2   76.99    7.70
  -3  -5   2   63.29    5.50
  -3  -5   2   67.89    7.70
   2   5  -2   61.19    6.70
   2   5  -2   45.30    4.60
  -2  -5   2   48.50    5.80
  -2  -5   2   43.60    4.10
  -2  -5   2   47.10    6.50
   1   5  -2  198.48   11.50
   1   5  -2  211.18   14.30
  -1  -5   2  185.28   12.50
  -1  -5   2  193.18   14.40
  -1  -5   2  197.68   13.20
   0   5  -2  385.16   20.50
   0   5  -2  352.06   23.00
   0   5  -2  357.26   21.50
   0  -5   2  338.97   23.90
   0  -5   2  369.96   21.80
   0  -5   2  341.47   21.40
  -1   5  -2  320.17   18.00
  -1   5  -2  318.87   21.80
  -1   5  -2  342.67   21.10
   1  -5   2  347.27   20.50
   1  -5   2  329.27   22.90
   1  -5   2  339.27   21.10
  -2   5  -2  284.97   19.40
  -2   5  -2  275.57   20.20
  -2   5  -2  283.57   15.60
   2  -5   2  317.17   18.50
   2  -5   2  279.67   21.20
   2  -5   2  287.47   19.50
  -3   5  -2  587.84   37.50
  -3   5  -2  577.74   36.00
   3  -5   2  568.94   38.60
   3  -5   2  618.44   36.50
  -4   5  -2  274.27   21.00
   4  -5   2  291.97   21.50
   4  -5   2  283.97   22.70
  -5   5  -2  103.69   14.10
   5  -5   2   90.19   14.20
   5  -5   2   96.09   12.10
  -6   5  -2  214.78   20.90
   6  -5   2  189.18   20.20
   6  -5   2  185.78   20.20
  -7   5  -2   82.39   15.00
   7  -5   2   65.49   11.70
   7  -5   2   69.49   12.90
  10   4  -2  107.49   16.20
 -10  -4   2  124.79   16.50
 -10  -4   2  123.69   17.20
   9   4  -2  152.48   19.00
   9   4  -2  149.88   16.30
  -9  -4   2  172.98   16.50
  -9  -4   2  167.68   18.00
   8   4  -2  267.77   18.40
   8   4  -2  225.78   22.40
  -8  -4   2  276.57   21.70
  -8  -4   2  270.07   18.40
   7   4  -2  612.34   45.50
   7   4  -2  739.83   40.00
  -7  -4   2  687.63   39.70
  -7  -4   2  771.62   44.70
   6   4  -2  459.15   26.90
  -6  -4   2  486.35   30.30
  -6  -4   2  457.85   26.90
   5   4  -2 1456.05   77.79
  -5  -4   2 1443.46   77.79
  -5  -4   2 1569.54   86.79
   4   4  -2  951.10   52.39
  -4  -4   2  970.60   52.49
  -4  -4   2  998.50   58.39
  -4  -4   2 1061.79   61.39
   3   4  -2  679.93   44.20
   3   4  -2  689.33   38.20
  -3  -4   2  731.53   42.80
  -3  -4   2  724.23   38.30
  -3  -4   2  778.82   44.70
   2   4  -2 3735.43  198.48
   2   4  -2 3929.11  226.98
  -2  -4   2 3602.64  197.88
  -2  -4   2 3840.62  231.98
  -2  -4   2 3843.22  221.48
  -2  -4   2 3713.03  246.58
   1   4  -2 3084.89  157.68
   1   4  -2 3118.49  183.08
   1   4  -2 3051.99  169.58
  -1  -4   2 2709.93  255.47
  -1  -4   2 2871.41  235.08
  -1  -4   2 3051.99  170.18
   0   4  -2 1608.44   90.99
   0   4  -2 1544.15   94.39
   0   4  -2 1659.73   84.79
   0  -4   2 1635.74   93.39
   0  -4   2 1572.14   90.99
   0  -4   2 1519.65   95.29
  -1   4  -2  929.11   53.59
  -1   4  -2  926.01   56.59
   1  -4   2  927.31   58.39
   1  -4   2 1051.19   55.09
   1  -4   2  926.91   53.69
  -2   4  -2  585.74   37.90
  -2   4  -2  626.94   32.00
  -2   4  -2  587.24   36.00
   2  -4   2  671.83   37.10
   2  -4   2  621.34   36.30
   2  -4   2  616.54   39.30
  -3   4  -2  340.27   22.40
  -3   4  -2  337.57   21.40
   3  -4   2  355.86   23.80
   3  -4   2  277.37   21.50
   3  -4   2  358.96   21.80
  -4   4  -2  193.08   11.20
  -4   4  -2  179.58   14.90
  -4   4  -2  190.58   15.70
   4  -4   2  157.08   14.00
   4  -4   2  188.78   16.10
   4  -4   2  186.08   15.50
  -5   4  -2  223.08   18.50
  -5   4  -2  194.78   16.00
   5  -4   2  202.98   18.30
   5  -4   2  207.48   16.70
  -6   4  -2   36.20    8.40
   6  -4   2   40.60    9.30
   6  -4   2   36.50    9.60
  -7   4  -2    3.50    8.90
   7  -4   2    4.20    7.50
   7  -4   2   -3.60    8.40
  -8   4  -2   24.00   12.00
   8  -4   2   15.40   10.50
  10   3  -2    3.00    7.40
 -10  -3   2    0.80    5.70
 -10  -3   2    5.00    7.70
   9   3  -2   12.20    8.20
   9   3  -2   10.00    7.20
  -9  -3   2    8.60    5.70
  -9  -3   2   17.50    7.50
   8   3  -2   -1.40    4.20
   8   3  -2   -0.40    6.70
  -8  -3   2    4.30    4.30
  -8  -3   2    2.60    4.50
   7   3  -2   -2.30    5.50
   7   3  -2   -1.80    3.20
  -7  -3   2   -1.10    3.30
  -7  -3   2    1.10    3.70
   6   3  -2   -2.70    2.70
   6   3  -2   -2.90    5.00
  -6  -3   2    2.00    4.20
  -6  -3   2    1.10    2.80
  -6  -3   2    3.70    4.00
   5   3  -2   25.00    4.00
   5   3  -2   27.60    6.20
   5   3  -2   26.40    2.90
  -5  -3   2   29.10    5.10
  -5  -3   2   23.70    3.90
   4   3  -2  521.35   25.80
   4   3  -2  402.66   29.40
   4   3  -2  475.85   25.30
  -4  -3   2  480.05   28.30
  -4  -3   2  468.75   25.30
  -4  -3   2  389.16   29.50
   3   3  -2  272.97   16.20
  -3  -3   2  318.67   19.20
  -3  -3   2  274.67   16.40
  -3  -3   2  295.37   18.40
   2   3  -2  467.75   30.70
   2   3  -2  521.95   28.00
   2   3  -2  481.75   26.20
  -2  -3   2  488.85   27.70
  -2  -3   2  492.55   29.30
  -2  -3   2  493.05   26.20
  -2  -3   2  510.55   30.50
   1   3  -2 1478.75   79.09
   1   3  -2 1598.84   90.69
   1   3  -2 1494.75   84.79
  -1  -3   2 1499.65   79.79
  -1  -3   2 1392.96  122.79
  -1  -3   2 1467.75   89.39
   0   3  -2  858.21   48.20
   0   3  -2  904.01   48.80
   0   3  -2  859.61   51.19
   0  -3   2  857.01   49.90
   0  -3   2  866.11   52.59
  -1   3  -2 1138.89   68.39
  -1   3  -2 1129.69   64.79
  -1   3  -2 1131.09   60.59
   1  -3   2 1172.78   70.49
   1  -3   2 1268.97   67.19
  -2   3  -2  622.74   30.40
  -2   3  -2  556.54   35.80
  -2   3  -2  568.64   34.10
   2  -3   2  604.54   37.20
  -3   3  -2 1060.89   51.59
  -3   3  -2  990.90   59.79
  -3   3  -2  959.30   56.69
   3  -3   2  953.60   58.29
   3  -3   2 1003.10   61.59
   3  -3   2 1030.70   57.09
  -4   3  -2  359.06   24.00
  -4   3  -2  350.96   19.50
  -4   3  -2  336.67   22.50
   4  -3   2  354.46   24.90
   4  -3   2  375.76   22.80
   4  -3   2  346.77   22.80
  -5   3  -2  526.35   35.00
  -5   3  -2  531.45   29.20
  -5   3  -2  521.15   33.30
   5  -3   2  569.74   34.10
   5  -3   2  540.75   32.90
   5  -3   2  525.05   35.90
  -6   3  -2  401.76   27.90
  -6   3  -2  416.06   28.80
   6  -3   2  409.76   29.90
   6  -3   2  426.46   28.80
  -7   3  -2  146.89   17.40
   7  -3   2  154.08   17.00
   7  -3   2  149.99   17.20
  -8   3  -2  101.59   17.50
   8  -3   2  108.89   15.80
   8  -3   2  107.39   16.80
   8  -3   2  101.49   15.80
   9   2  -2  152.78   18.40
   9   2  -2  160.58   14.40
  -9  -2   2  153.28   14.30
  -9  -2   2  157.78   16.60
   8   2  -2  265.77   20.00
   8   2  -2  280.07   22.20
  -8  -2   2  295.27   21.80
  -8  -2   2  275.17   20.20
   7   2  -2  412.56   28.80
  -7  -2   2  424.16   27.90
  -7  -2   2  412.16   25.60
   6   2  -2  445.06   27.50
   6   2  -2  494.35   31.50
  -6  -2   2  514.25   31.00
  -6  -2   2  476.85   30.40
  -6  -2   2  458.35   27.30
   5   2  -2 1204.78   69.59
   5   2  -2 1338.47   74.89
  -5  -2   2 1230.78   72.69
  -5  -2   2 1235.48   65.79
   4   2  -2 1222.48   69.29
   4   2  -2 1276.37   73.59
  -4  -2   2 1199.98   64.59
  -4  -2   2 1251.87   71.49
   3   2  -2 1584.94   80.59
   3   2  -2 1364.16   84.79
  -3  -2   2 1514.85   85.49
  -3  -2   2 1473.95   79.09
  -3  -2   2 1284.17   87.29
   2   2  -2 2314.17  168.28
  -2  -2   2 2621.64  166.18
  -2  -2   2 2885.91  149.19
  -2  -2   2 2946.61  164.58
  -2  -2   2 3195.18  171.18
   1   2  -2 5479.15  368.46
   1   2  -2 6690.93  376.16
  -1  -2   2 6476.55  439.36
  -1  -2   2 6435.46  434.46
  -1  -2   2 6505.55  371.76
   0   2  -2   43.40    3.70
   0   2  -2   36.10    3.00
   0   2  -2   37.60    2.30
   0  -2   2   36.50    3.70
   0  -2   2   41.40    3.70
  -1   2  -2 2150.28  182.68
  -1   2  -2 2238.38  124.79
  -1   2  -2 2526.75  127.89
   1  -2   2 2006.50  131.29
   1  -2   2 2511.35  215.68
   1  -2   2 2077.99  126.39
  -2   2  -2 1038.80   66.69
  -2   2  -2 1274.17   60.89
  -2   2  -2 1123.19   68.99
  -2   2  -2 1085.59   63.49
   2  -2   2 1190.58   69.09
   2  -2   2 1148.29   65.59
  -3   2  -2  341.87   23.10
  -3   2  -2  330.57   21.00
  -3   2  -2  329.87   21.90
  -3   2  -2  367.46   18.60
   3  -2   2  346.47   21.30
   3  -2   2  361.36   23.10
  -4   2  -2  449.26   23.20
  -4   2  -2  410.06   27.00
  -4   2  -2  391.96   25.70
  -4   2  -2  413.46   28.50
   4  -2   2  457.25   28.70
   4  -2   2  425.76   25.90
   4  -2   2  434.06   26.30
  -5   2  -2  226.08   17.00
  -5   2  -2  217.78   13.60
  -5   2  -2  207.38   16.10
  -5   2  -2  226.78   17.80
   5  -2   2  227.48   17.70
   5  -2   2  228.28   16.90
   5  -2   2  225.48   15.10
  -6   2  -2   10.50    3.80
  -6   2  -2   12.10    5.70
  -6   2  -2   14.00    6.20
  -6   2  -2   21.80    6.50
   6  -2   2   13.20    4.00
   6  -2   2   10.50    6.10
   6  -2   2    7.90    6.10
   6  -2   2    9.90    3.80
  -7   2  -2   39.60    9.20
  -7   2  -2   31.50    6.80
   7  -2   2   33.40    7.40
   7  -2   2   41.00    8.80
  -8   2  -2   12.20    9.00
   8  -2   2   18.60    8.30
   8  -2   2   13.30    8.50
   8  -2   2    9.50    7.80
  -9   2  -2   -1.20   10.20
   9  -2   2    1.70    8.80
   9  -2   2    2.40    8.70
   9   1  -2    3.80    7.30
   9   1  -2   -1.30    6.50
  -9  -1   2    4.60    6.80
   8   1  -2    4.10    6.60
  -8  -1   2    6.90    6.00
  -8  -1   2    4.90    5.80
   7   1  -2    7.00    5.70
   7   1  -2    3.10    3.70
  -7  -1   2   10.00    5.20
  -7  -1   2    7.80    4.70
   6   1  -2   24.80    4.60
   6   1  -2   17.50    5.50
   6   1  -2   17.30    3.80
  -6  -1   2   14.90    4.60
  -6  -1   2   18.30    4.80
   5   1  -2  174.18   13.20
   5   1  -2  156.68   11.20
  -5  -1   2  168.68   11.90
  -5  -1   2  156.28   12.40
  -5  -1   2  193.88   12.40
   4   1  -2  755.32   45.60
   4   1  -2  844.12   49.20
  -4  -1   2  803.42   47.90
  -4  -1   2  911.81   49.70
  -4  -1   2  790.82   43.60
   3   1  -2  218.38   13.50
   3   1  -2  193.98   11.60
  -3  -1   2  182.48   12.80
  -3  -1   2  196.98   11.80
  -3  -1   2  201.68   12.70
   2   1  -2 1644.04  101.09
   2   1  -2 1676.33   92.49
  -2  -1   2 1636.14  131.39
  -2  -1   2 1629.44   98.19
   1   1  -2 2712.33  169.78
  -1  -1   2 2896.81  208.18
  -1  -1   2 3311.67  160.38
  -1  -1   2 3363.66  178.58
   0   1  -2  884.91   53.09
   0   1  -2  952.20   55.79
   0   1  -2  941.31   57.79
   0  -1   2  862.21   48.30
   0  -1   2  960.60   55.09
   0  -1   2  964.30   58.09
  -1   1  -2  603.94   35.20
  -1   1  -2  565.34   32.20
  -1   1  -2  548.05   33.80
   1  -1   2  632.14   35.30
   1  -1   2  586.24   33.60
   1  -1   2  546.65   30.10
   1  -1   2  561.34   30.20
  -2   1  -2 2627.34  160.68
  -2   1  -2 2647.64  168.28
  -2   1  -2 2592.04  153.18
  -2   1  -2 2861.41  140.69
   2  -1   2 2678.43  140.09
   2  -1   2 2673.63  157.68
   2  -1   2 2830.32  167.98
  -3   1  -2 1393.96   84.19
  -3   1  -2 1535.05   76.69
  -3   1  -2 1416.76   85.99
  -3   1  -2 1363.36   80.29
   3  -1   2 1505.05   85.99
   3  -1   2 1342.57   83.69
  -4   1  -2 1889.91  116.99
  -4   1  -2 1952.10  116.39
  -4   1  -2 2012.60  104.69
  -4   1  -2 1808.72  109.19
   4  -1   2 2071.89  117.09
  -5   1  -2 1670.23   86.49
  -5   1  -2 1611.44  101.79
  -5   1  -2 1634.74   98.29
  -5   1  -2 1503.45   93.09
   5  -1   2 1802.62  101.89
   5  -1   2 1750.12   86.59
   5  -1   2 1749.12   93.89
  -6   1  -2  402.36   27.60
  -6   1  -2  433.16   29.30
  -6   1  -2  438.56   25.10
  -6   1  -2  451.65   31.00
   6  -1   2  449.86   25.10
   6  -1   2  463.65   30.80
   6  -1   2  463.35   28.50
  -7   1  -2  357.66   27.30
  -7   1  -2  375.76   27.00
  -7   1  -2  354.26   22.10
  -7   1  -2  345.47   24.50
   7  -1   2  373.56   26.00
   7  -1   2  369.96   21.90
   7  -1   2  377.26   27.20
   7  -1   2  363.26   24.10
   7  -1   2  366.06   25.30
  -8   1  -2  300.97   24.70
  -8   1  -2  289.37   24.50
   8  -1   2  305.77   23.20
   8  -1   2  292.57   23.40
   8  -1   2  322.67   24.80
  -9   1  -2  151.68   19.40
   9  -1   2  146.49   17.30
   9  -1   2  158.88   17.30
   9   0  -2  100.09   13.80
   9   0  -2  117.79   16.00
  -9   0   2  117.29   14.80
   8   0  -2  233.68   20.00
  -8   0   2  233.48   18.30
   7   0  -2  203.38   16.80
   7   0  -2  197.58   14.70
  -7   0   2  188.48   14.20
  -7   0   2  189.18   15.20
   6   0  -2  897.51   49.90
   6   0  -2  786.02   49.30
   6   0  -2  788.42   46.50
  -6   0   2  805.42   44.30
  -6   0   2  774.42   47.90
  -6   0   2  840.02   49.80
  -6   0   2  748.23   49.40
   5   0  -2 1336.07   78.39
   5   0  -2 1463.15   79.59
   5   0  -2 1288.27   73.79
  -5   0   2 1286.07   76.39
  -5   0   2 1345.27   79.49
  -5   0   2 1294.17   78.49
  -5   0   2 1268.17   69.59
   4   0  -2  761.32   45.80
   4   0  -2  720.33   43.10
   4   0  -2  862.41   46.40
  -4   0   2  821.82   46.40
  -4   0   2  741.43   44.60
  -4   0   2  730.83   45.80
  -4   0   2  724.73   40.80
   3   0  -2  884.61   52.29
   3   0  -2 1024.00   58.59
   3   0  -2  927.41   55.49
  -3   0   2  920.31   55.49
  -3   0   2 1007.70   56.79
  -3   0   2  923.11   49.40
  -3   0   2  927.21   54.09
   2   0  -2 3328.67  187.88
   2   0  -2 3061.89  217.98
   2   0  -2 3179.38  177.78
  -2   0   2 3088.69  183.48
  -2   0   2 3145.49  167.78
  -2   0   2 3218.48  188.08
  -2   0   2 3201.58  206.88
   1   0  -2 3601.84  250.27
   1   0  -2 4067.89  227.08
  -1   0   2 3638.94  256.97
  -1   0   2 4041.00  201.48
   0   0  -2 1157.98   71.79
   0   0  -2 1124.59   68.29
   0   0   2 1252.07   64.09
   0   0   2 1256.77   72.59
  -1   0  -2 1946.11  153.58
  -1   0  -2 2100.09  123.59
   1   0   2 2315.07  124.39
   1   0   2 2027.40  132.99
  -2   0  -2   69.99    7.00
  -2   0  -2   87.79    5.00
  -2   0  -2   83.69    5.60
  -2   0  -2   80.89    5.70
  -2   0  -2   79.49    5.50
   2   0   2   80.69    4.90
  -3   0  -2  363.96   21.60
  -3   0  -2  361.76   24.70
  -3   0  -2  402.36   20.10
  -3   0  -2  354.16   22.40
  -3   0  -2  363.86   22.10
   3   0   2  378.56   19.90
  -4   0  -2  713.43   45.40
  -4   0  -2  696.43   42.70
  -4   0  -2  762.82   38.00
  -4   0  -2  709.33   40.80
  -4   0  -2  696.83   41.90
   4   0   2  728.03   37.80
  -5   0  -2  132.99   12.60
  -5   0  -2  124.79    9.90
  -5   0  -2  125.59   10.30
  -5   0  -2  134.19    9.10
  -5   0  -2  119.89    9.90
   5   0   2  132.29    8.90
  -6   0  -2   70.49    8.00
  -6   0  -2   67.39    8.00
  -6   0  -2   75.09    7.40
  -6   0  -2   69.39    8.60
  -6   0  -2   70.69   10.40
   6   0   2   77.69    8.20
   6   0   2   71.59   10.50
   6   0   2   71.59    8.80
   6   0   2   72.79    7.20
  -7   0  -2   -0.30    5.80
  -7   0  -2    4.50    4.60
  -7   0  -2   10.00    6.20
  -7   0  -2    4.60    4.00
  -7   0  -2    4.40    4.20
   7   0   2    5.30    5.40
   7   0   2    4.40    5.80
   7   0   2    1.40    5.10
   7   0   2   -0.50    3.80
  -8   0  -2   -1.00    4.40
  -8   0  -2   -1.80    6.30
  -8   0  -2    0.90    5.20
  -8   0  -2    6.40    7.00
   8   0   2   -2.10    5.80
   8   0   2   -0.20    4.60
   8   0   2   -2.10    6.40
   8   0   2    0.60    5.70
  -9   0  -2   12.10    6.00
  -9   0  -2    7.40    8.40
   9  -1  -2   -0.20    8.70
  -9   1   2    4.10    6.70
   8  -1  -2   10.60    6.70
   8  -1  -2   17.10    8.30
  -8   1   2   20.20    6.50
  -8   1   2   21.90    9.20
   7  -1  -2   17.40    6.20
   7  -1  -2   23.90    7.60
  -7   1   2   24.70    6.10
  -7   1   2   25.00    7.80
   6  -1  -2   90.09    8.90
   6  -1  -2   98.29   10.70
   6  -1  -2   83.39    8.50
  -6   1   2   80.49    8.60
  -6   1   2   93.09    9.70
  -6   1   2   88.49   10.90
   5  -1  -2  547.95   32.70
   5  -1  -2  508.75   30.80
   5  -1  -2  524.05   32.50
  -5   1   2  514.45   32.60
  -5   1   2  492.85   31.00
  -5   1   2  515.45   29.20
   4  -1  -2  853.21   48.50
   4  -1  -2  791.62   47.80
   4  -1  -2  752.42   45.10
  -4   1   2  814.92   42.60
  -4   1   2  805.42   47.90
  -4   1   2  762.32   46.10
   3  -1  -2  217.48   13.50
   3  -1  -2  199.48   13.00
   3  -1  -2  198.58   13.50
  -3   1   2  217.68   12.50
  -3   1   2  205.08   13.60
  -3   1   2  198.68   12.70
   2  -1  -2 2530.65  147.69
   2  -1  -2 2657.43  157.88
  -2   1   2 2592.74  138.69
  -2   1   2 2579.34  163.88
  -2   1   2 2656.53  150.18
   1  -1  -2 5006.20  353.16
   1  -1  -2 5250.77  351.46
  -1   1   2 5114.69  359.16
  -1   1   2 5103.49  326.37
  -1   1   2 5855.91  276.47
   0  -1  -2  487.65   31.40
   0  -1  -2  532.95   28.70
   0   1   2  485.25   41.80
   0   1   2  531.15   29.50
   0   1   2  467.65   26.70
  -1  -1  -2 3643.64  213.08
  -1  -1  -2 3305.97  239.88
   1   1   2 3503.65  222.58
  -2  -1  -2 4921.81  320.37
  -2  -1  -2 4780.02  333.67
  -2  -1  -2 3883.61  291.97
   2   1   2 5237.78  300.17
  -3  -1  -2 3385.36  182.08
  -3  -1  -2 3222.18  189.08
  -3  -1  -2 2754.82  229.78
   3   1   2 3512.85  170.98
   3   1   2 3117.09  238.88
  -4  -1  -2 2997.40  209.68
  -4  -1  -2 3016.40  164.48
  -4  -1  -2 2522.55  209.38
  -4  -1  -2 3018.10  170.48
   4   1   2 2717.73  207.38
   4   1   2 2858.61  211.98
  -5  -1  -2 1400.26   87.49
  -5  -1  -2 1511.95   86.09
  -5  -1  -2 1470.45   82.99
  -5  -1  -2 1600.44   77.89
  -5  -1  -2 1385.36   91.79
   5   1   2 1593.64   77.79
   5   1   2 1518.75   87.49
  -6  -1  -2  226.08   14.10
  -6  -1  -2  213.68   15.00
  -6  -1  -2  200.28   14.40
  -6  -1  -2  219.08   18.50
  -6  -1  -2  194.38   15.70
   6   1   2  217.18   15.60
   6   1   2  219.68   13.90
  -7  -1  -2  619.14   43.20
  -7  -1  -2  699.63   46.40
  -7  -1  -2  707.63   42.50
  -7  -1  -2  648.94   40.50
  -7  -1  -2  703.53   38.10
   7   1   2  727.93   38.30
   7   1   2  668.43   43.00
   7   1   2  742.33   41.30
  -8  -1  -2  569.74   32.70
  -8  -1  -2  577.34   36.20
  -8  -1  -2  504.15   34.00
  -8  -1  -2  556.94   39.50
   8   1   2  594.34   32.80
   8   1   2  510.05   36.50
   8   1   2  612.74   39.30
   8   1   2  567.24   34.80
  -9  -1  -2  149.39   18.70
  -9  -1  -2  165.08   15.80
  -9  -1  -2  147.99   14.50
   9   1   2  154.28   14.50
   8  -2  -2  190.98   18.20
   8  -2  -2  196.88   19.80
  -8   2   2  189.08   16.90
  -8   2   2  230.98   21.40
   7  -2  -2  178.68   17.00
   7  -2  -2  163.08   15.90
  -7   2   2  168.28   14.60
  -7   2   2  184.88   17.90
   6  -2  -2  312.07   22.40
   6  -2  -2  301.27   21.30
   6  -2  -2  299.77   21.60
  -6   2   2  285.67   19.30
  -6   2   2  320.47   22.90
   5  -2  -2  445.26   27.90
   5  -2  -2  477.95   29.40
   5  -2  -2  460.35   29.30
  -5   2   2  444.36   25.90
  -5   2   2  414.86   27.00
  -5   2   2  453.15   29.50
   4  -2  -2  235.68   15.60
   4  -2  -2  227.68   15.20
  -4   2   2  222.88   15.60
  -4   2   2  207.48   13.90
  -4   2   2  226.28   14.10
   3  -2  -2 1403.16   78.89
   3  -2  -2 1440.06   98.99
  -3   2   2 1436.76   83.09
  -3   2   2 1469.35   75.49
  -3   2   2 1356.06   82.89
   2  -2  -2 1336.67   76.69
   2  -2  -2 1444.56   84.79
  -2   2   2 1287.77   78.09
  -2   2   2 1377.76   81.69
  -2   2   2 1366.16   73.19
   1  -2  -2   51.09    4.40
   1  -2  -2   49.80    4.30
  -1   2   2   49.00    4.20
  -1   2   2   43.10    4.40
   0  -2  -2  621.64   35.50
   0  -2  -2  628.64   39.20
   0   2   2  662.13   37.00
   0   2   2  634.94   38.30
   0   2   2  639.44   34.00
  -1  -2  -2  520.35   30.20
  -1  -2  -2  541.45   28.90
  -1  -2  -2  522.75   31.40
   1   2   2  489.35   27.00
   1   2   2  471.05   39.90
  -2  -2  -2  181.68   12.80
  -2  -2  -2  219.68   14.40
  -2  -2  -2  199.38   13.00
   2   2   2  202.68   11.80
   2   2   2  241.78   12.60
  -3  -2  -2  753.82   51.09
  -3  -2  -2  883.51   46.80
  -3  -2  -2  818.92   47.80
   3   2   2  844.12   43.20
  -4  -2  -2   56.29    4.90
  -4  -2  -2   54.59    5.90
  -4  -2  -2   57.69    4.70
   4   2   2   49.30    5.10
   4   2   2   53.19    4.70
  -5  -2  -2    6.20    3.30
  -5  -2  -2    9.00    2.50
  -5  -2  -2    6.20    3.00
   5   2   2    7.00    3.10
   5   2   2    5.00    2.80
  -6  -2  -2   15.00    3.80
  -6  -2  -2   13.60    4.00
  -6  -2  -2   13.80    3.70
  -6  -2  -2   10.20    6.90
   6   2   2   12.90    3.90
   6   2   2   15.10    4.50
  -7  -2  -2    3.60    4.00
  -7  -2  -2    0.20    3.10
  -7  -2  -2   -0.30    6.70
  -7  -2  -2    2.40    4.50
   7   2   2   -0.30    4.40
   7   2   2    0.00    2.90
   7   2   2    0.20    3.50
  -8  -2  -2   38.60   10.10
  -8  -2  -2   37.00    6.70
  -8  -2  -2   32.60    7.40
   8   2   2   19.90    7.10
   8   2   2   30.10    6.50
  -9  -2  -2   22.80   10.00
  -9  -2  -2   23.70    7.70
  -9  -2  -2   13.50    6.50
   9   2   2   15.10    6.60
   9   2   2    0.30    9.30
 -10  -2  -2    8.90    6.90
 -10  -2  -2   12.20    8.00
  10   2   2    8.60    7.10
   8  -3  -2   46.20   11.50
   8  -3  -2   44.70   10.60
  -8   3   2   49.70   12.50
   7  -3  -2   12.50    7.70
   7  -3  -2   21.00    8.60
  -7   3   2   21.80    6.10
  -7   3   2   24.90    7.80
   6  -3  -2   85.09   10.50
   6  -3  -2   80.39   12.50
  -6   3   2   92.99   13.10
  -6   3   2  102.09   10.10
   5  -3  -2  503.75   32.40
   5  -3  -2  529.75   34.10
  -5   3   2  498.45   29.50
  -5   3   2  546.85   34.20
   4  -3  -2  393.06   25.00
   4  -3  -2  402.46   26.50
  -4   3   2  417.26   26.60
  -4   3   2  396.66   23.10
   3  -3  -2  546.55   33.10
   3  -3  -2  586.64   35.50
   3  -3  -2  596.24   32.40
  -3   3   2  546.95   30.80
  -3   3   2  544.05   34.70
   2  -3  -2 1329.17   74.09
   2  -3  -2 1375.86   79.89
  -2   3   2 1319.57   77.79
  -2   3   2 1298.47   69.29
   1  -3  -2 1189.38   85.59
   1  -3  -2 1183.98   63.99
  -1   3   2 1088.49   60.39
  -1   3   2 1147.29   68.29
   0  -3  -2 4713.13  286.27
   0  -3  -2 4528.95  277.07
   0  -3  -2 4369.96  285.87
   0   3   2 4919.51  244.58
   0   3   2 4281.47  329.67
  -1  -3  -2 5269.77  376.26
  -1  -3  -2 5896.31  341.27
  -1  -3  -2 5610.94  355.96
   1   3   2 5078.69  371.96
   1   3   2 6160.78  295.57
  -2  -3  -2 2251.17  131.39
  -2  -3  -2 1984.20  126.49
  -2  -3  -2 2275.07  137.79
   2   3   2 2328.47  120.09
   2   3   2 2299.97  131.09
  -3  -3  -2 1940.21  112.99
  -3  -3  -2 1844.32  116.39
  -3  -3  -2 1935.61  123.09
   3   3   2 1889.01  104.39
   3   3   2 2189.48  117.49
  -4  -3  -2 1877.81  101.59
  -4  -3  -2 1728.73  101.69
  -4  -3  -2 1795.72  108.09
   4   3   2 1884.01   93.39
   4   3   2 1553.94  124.99
  -5  -3  -2 1491.65   75.79
  -5  -3  -2 1389.26   79.79
  -5  -3  -2 1434.76   83.69
   5   3   2 1487.85   75.69
  -6  -3  -2  579.24   35.90
  -6  -3  -2  662.23   35.00
  -6  -3  -2  658.43   39.00
   6   3   2  632.44   34.70
  -7  -3  -2 1011.40   52.99
  -7  -3  -2  810.32   63.59
  -7  -3  -2 1059.99   59.19
   7   3   2 1023.30   52.89
  -8  -3  -2  647.24   45.90
  -8  -3  -2  630.34   36.60
  -8  -3  -2  645.14   41.20
   8   3   2  650.73   37.00
  -9  -3  -2  176.68   17.80
  -9  -3  -2  176.78   20.70
  -9  -3  -2  189.28   16.10
   9   3   2  179.58   15.90
 -10  -3  -2   92.29   15.20
  10   3   2   88.59   13.70
   7  -4  -2   74.79   12.30
   7  -4  -2   72.79   12.60
  -7   4   2   96.69   16.40
   6  -4  -2  102.39   12.50
  -6   4   2  125.79   15.30
  -6   4   2  114.99   11.20
   5  -4  -2  149.19   13.40
   5  -4  -2  136.39   14.00
  -5   4   2  161.68   12.60
  -5   4   2  165.98   15.50
   4  -4  -2  302.57   21.10
   4  -4  -2  305.67   22.00
  -4   4   2  297.87   18.50
  -4   4   2  308.67   21.30
   3  -4  -2  471.65   30.10
   3  -4  -2  441.36   28.00
  -3   4   2  450.35   25.90
  -3   4   2  473.35   29.60
   2  -4  -2   87.79    8.40
   2  -4  -2   87.99    8.60
  -2   4   2   90.29    7.60
  -2   4   2   89.79    7.90
   1  -4  -2   48.70    5.70
   1  -4  -2   45.00    5.80
  -1   4   2   34.30    5.70
  -1   4   2   46.30    5.50
   0  -4  -2  495.55   29.00
   0  -4  -2  492.25   31.50
   0  -4  -2  516.85   29.10
   0   4   2  520.75   28.50
   0   4   2  490.45   30.30
  -1  -4  -2  113.59    8.10
  -1  -4  -2  115.89    9.40
  -1  -4  -2  116.89    7.70
   1   4   2  117.49    8.10
   1   4   2  120.99    8.50
  -2  -4  -2   22.90    3.30
  -2  -4  -2   22.00    3.20
  -2  -4  -2   24.60    4.70
   2   4   2   21.30    3.60
   2   4   2   25.70    2.90
  -3  -4  -2  199.78   14.60
  -3  -4  -2  190.38   13.20
   3   4   2  209.78   12.50
   3   4   2  191.88   11.90
  -4  -4  -2   56.19    6.50
  -4  -4  -2   50.19    7.00
  -4  -4  -2   63.79    5.20
   4   4   2   54.59    5.40
   4   4   2   67.09    5.30
  -5  -4  -2   80.69    7.80
  -5  -4  -2   69.39   10.70
  -5  -4  -2   83.59    6.00
   5   4   2   71.89    6.80
   5   4   2   94.09    7.30
  -6  -4  -2    5.40    3.40
  -6  -4  -2    4.60    6.30
  -6  -4  -2    4.80    2.30
   6   4   2   12.70    3.80
   6   4   2    0.10    3.70
  -7  -4  -2  143.19   13.90
   7   4   2  153.88   12.90
   7   4   2  139.19   11.30
  -8  -4  -2  178.08   16.60
   8   4   2  164.18   13.40
  -9  -4  -2   27.80   11.40
  -9  -4  -2   29.40    8.60
   9   4   2   28.20    7.50
 -10  -4  -2   44.90   10.50
  10   4   2   39.80    7.80
   7  -5  -2   10.30    7.60
   7  -5  -2    5.50   10.00
  -7   5   2   16.10   10.90
   6  -5  -2  113.59   14.20
  -6   5   2  140.59   17.40
   5  -5  -2  240.58   20.30
   5  -5  -2  237.98   19.30
  -5   5   2  263.47   21.40
  -5   5   2  253.07   16.80
   4  -5  -2  155.38   15.00
   4  -5  -2  151.68   14.70
  -4   5   2  165.48   12.00
  -4   5   2  166.48   14.20
   3  -5  -2  629.04   38.30
   3  -5  -2  642.74   40.80
  -3   5   2  622.84   34.90
  -3   5   2  623.94   39.50
   2  -5  -2  830.82   47.30
   2  -5  -2  827.72   50.89
  -2   5   2  796.22   49.10
  -2   5   2  787.92   44.10
   1  -5  -2 1397.66   83.29
   1  -5  -2 1357.76   76.89
  -1   5   2 1430.16   80.79
  -1   5   2 1301.17   72.99
   0  -5  -2 2203.48  184.88
   0  -5  -2 2382.26  132.89
   0  -5  -2 2339.17  141.39
   0   5   2 2312.57  120.09
   0   5   2 2236.18  137.09
  -1  -5  -2 2623.14  169.38
  -1  -5  -2 2782.02  159.88
  -1  -5  -2 2779.02  154.98
   1   5   2 2655.33  164.08
   1   5   2 2901.01  144.59
  -2  -5  -2 1230.18   74.49
  -2  -5  -2 1241.18   67.99
  -2  -5  -2 1231.28   71.49
   2   5   2 1158.78   91.49
   2   5   2 1253.47   64.19
  -3  -5  -2 1848.72  106.59
  -3  -5  -2 1785.42  102.69
  -3  -5  -2 1766.02  109.09
   3   5   2 1831.12   93.89
   3   5   2 1852.91  108.99
  -4  -5  -2 1841.72  108.19
  -4  -5  -2 1994.50  114.29
  -4  -5  -2 1806.72  104.39
   4   5   2 1835.32   97.89
   4   5   2 1984.80  113.69
  -5  -5  -2 1019.20   62.09
  -5  -5  -2 1023.90   58.39
  -5  -5  -2 1077.69   66.49
   5   5   2 1152.68   62.29
   5   5   2 1012.70   56.09
  -6  -5  -2 1306.67   77.59
  -6  -5  -2 1259.97   83.49
   6   5   2 1319.47   69.99
   6   5   2 1392.66   77.79
  -7  -5  -2  711.23   45.20
   7   5   2  751.22   41.10
  -8  -5  -2  332.97   24.10
   8   5   2  330.27   21.40
  -9  -5  -2  146.39   23.90
  -9  -5  -2  187.18   17.10
   9   5   2  190.88   15.20
 -10  -5  -2   69.29   12.10
  10   5   2   67.29   10.80
   6  -6  -2   42.30   10.10
  -6   6   2   56.69   12.90
   5  -6  -2   39.00   10.30
   5  -6  -2   33.30    9.10
  -5   6   2   49.99   10.80
   4  -6  -2  136.39   15.60
   4  -6  -2  136.49   14.00
  -4   6   2  151.28   12.40
  -4   6   2  168.58   16.30
   3  -6  -2   44.00    8.50
   3  -6  -2   40.80    7.30
  -3   6   2   45.60    8.40
  -3   6   2   56.89    7.20
   2  -6  -2    0.70    5.00
   2  -6  -2    1.40    5.30
  -2   6   2    5.30    3.80
  -2   6   2    5.80    5.10
   1  -6  -2  151.98   13.30
   1  -6  -2  161.78   12.50
  -1   6   2  121.59   12.10
  -1   6   2  139.79   11.50
   0  -6  -2    2.30    2.70
   0  -6  -2    2.70    1.50
   0  -6  -2    2.50    3.30
   0   6   2    3.10    3.50
   0   6   2   -2.60    4.70
  -1  -6  -2   22.20    3.70
  -1  -6  -2   27.00    4.50
  -1  -6  -2   29.20    5.90
   1   6   2   28.40    5.00
   1   6   2   26.00    4.90
  -2  -6  -2   51.19    5.60
  -2  -6  -2   51.09    5.50
  -2  -6  -2   52.99    6.80
   2   6   2   49.99    6.80
   2   6   2   58.89    5.70
  -3  -6  -2   12.00    4.00
  -3  -6  -2    8.20    3.10
  -3  -6  -2   11.10    3.30
   3   6   2   11.50    3.60
   3   6   2   15.10    3.00
  -4  -6  -2  259.47   19.40
  -4  -6  -2  245.88   17.40
   4   6   2  261.67   16.50
   4   6   2  249.68   16.10
  -5  -6  -2  463.25   31.80
  -5  -6  -2  420.16   28.60
  -5  -6  -2  453.55   26.30
   5   6   2  490.05   28.00
   5   6   2  440.16   26.00
  -6  -6  -2  117.39   15.70
  -6  -6  -2  143.49   13.10
   6   6   2  123.89   10.40
  -7  -6  -2  213.58   23.10
  -7  -6  -2  248.58   18.50
   7   6   2  244.18   17.40
  -8  -6  -2   82.39   11.00
  -8  -6  -2   48.90   12.70
   8   6   2   72.69    9.50
  -9  -6  -2   83.59   14.80
   9   6   2   59.49    9.80
 -10  -6  -2  123.19   17.90
  10   6   2  101.39   13.00
   5  -7  -2  127.39   18.30
   5  -7  -2  101.69   16.20
  -5   7   2  120.49   15.20
   4  -7  -2  188.58   19.90
   4  -7  -2  193.38   17.90
  -4   7   2  241.78   20.60
   3  -7  -2  367.86   26.00
   3  -7  -2  370.96   28.50
  -3   7   2  397.36   27.90
   2  -7  -2  212.88   17.80
   2  -7  -2  217.88   18.00
  -2   7   2  219.38   18.10
  -2   7   2  215.78   16.00
   1  -7  -2  751.82   49.90
   1  -7  -2  835.02   46.70
  -1   7   2  812.12   48.50
  -1   7   2  717.03   44.50
   0  -7  -2 1190.88   66.19
   0  -7  -2 1169.48   71.99
   0   7   2 1085.69   63.69
   0   7   2 1178.48   69.29
  -1  -7  -2 1107.79   71.69
  -1  -7  -2 1190.68   65.79
  -1  -7  -2 1176.18   66.49
   1   7   2 1180.88   63.19
   1   7   2 1150.68   68.99
  -2  -7  -2  549.85   36.50
  -2  -7  -2  573.94   33.50
  -2  -7  -2  550.34   32.70
   2   7   2  559.54   32.10
   2   7   2  557.14   34.40
  -3  -7  -2 1404.96   81.39
  -3  -7  -2 1392.16   86.49
  -3  -7  -2 1424.06   78.49
   3   7   2 1427.56   82.69
   3   7   2 1403.46   74.29
  -4  -7  -2  909.71   52.69
  -4  -7  -2  789.02   50.49
  -4  -7  -2  903.91   55.99
   4   7   2  912.81   52.49
   4   7   2  900.11   48.00
  -5  -7  -2  615.54   39.90
  -5  -7  -2  666.13   42.80
   5   7   2  667.43   39.00
   5   7   2  624.94   35.90
  -6  -7  -2  703.03   46.30
  -6  -7  -2  640.44   41.70
   6   7   2  670.53   38.20
  -7  -7  -2  414.76   33.20
  -7  -7  -2  404.06   28.70
   7   7   2  396.36   24.90
  -8  -7  -2  157.38   15.50
  -8  -7  -2  137.19   21.20
   8   7   2  161.38   13.70
  -9  -7  -2  165.28   16.60
  -9  -7  -2  124.79   20.20
   9   7   2  160.68   16.80
 -10  -7  -2   47.70   11.90
  10   7   2   39.30    9.90
   4  -8  -2   18.10    9.70
   4  -8  -2   29.70   10.90
  -4   8   2   34.50   11.20
   3  -8  -2    3.90    8.00
   3  -8  -2    4.50    8.20
  -3   8   2   10.50    8.70
   2  -8  -2    9.30    7.70
   2  -8  -2    8.60    8.00
  -2   8   2   13.20    7.70
   1  -8  -2   26.80    7.60
   1  -8  -2   27.80    8.50
  -1   8   2   29.60    7.60
  -1   8   2   21.40    7.10
   0  -8  -2    6.50    5.60
   0  -8  -2    8.40    7.00
   0   8   2   13.70    6.00
   0   8   2   -5.20    6.20
  -1  -8  -2   15.70    5.20
  -1  -8  -2   13.50    7.00
   1   8   2   17.50    5.60
   1   8   2   10.90    7.00
  -2  -8  -2   -1.10    3.10
  -2  -8  -2    3.50    4.60
  -2  -8  -2    1.00    3.80
   2   8   2   -0.70    4.50
   2   8   2    2.40    4.10
  -3  -8  -2  124.29   10.30
  -3  -8  -2  126.89   10.90
  -3  -8  -2  127.39   14.20
   3   8   2  119.69   12.40
   3   8   2  134.09   11.00
  -4  -8  -2  309.47   23.60
  -4  -8  -2  274.67   20.40
   4   8   2  305.67   20.20
   4   8   2  293.77   19.10
  -5  -8  -2  128.09   12.90
  -5  -8  -2  132.59   13.80
   5   8   2  114.19   12.10
  -6  -8  -2  111.29   13.30
  -6  -8  -2  116.89   16.50
   6   8   2  102.59   10.60
  -7  -8  -2  195.38   18.10
  -7  -8  -2  193.08   22.10
   7   8   2  173.68   16.40
  -8  -8  -2  124.79   21.20
  -8  -8  -2  126.49   16.80
   8   8   2  126.19   15.00
  -9  -8  -2  143.39   23.00
  -9  -8  -2  149.39   19.10
   9   8   2  130.79   16.70
   3  -9  -2   95.79   17.10
   3  -9  -2  104.69   17.60
  -3   9   2  100.69   14.20
   2  -9  -2  111.29   13.80
   2  -9  -2  113.49   17.20
  -2   9   2  131.39   16.50
   1  -9  -2  469.75   31.70
   1  -9  -2  459.75   34.60
  -1   9   2  461.45   32.70
   0  -9  -2  502.85   31.80
   0  -9  -2  500.15   35.50
   0   9   2  522.55   33.20
   0   9   2  396.16   31.20
  -1  -9  -2  294.97   20.50
  -1  -9  -2  277.47   22.50
   1   9   2  281.47   21.30
   1   9   2  261.07   23.10
  -2  -9  -2  425.46   31.10
  -2  -9  -2  443.36   27.90
   2   9   2  449.16   29.20
   2   9   2  420.56   28.10
  -3  -9  -2  577.14   40.00
  -3  -9  -2  583.44   35.50
  -3  -9  -2  588.24   36.40
   3   9   2  594.34   37.30
   3   9   2  612.44   35.90
  -4  -9  -2  408.86   27.40
  -4  -9  -2  421.26   31.20
   4   9   2  417.36   26.00
   4   9   2  408.16   27.10
  -5  -9  -2  550.84   38.80
  -5  -9  -2  496.35   34.20
   5   9   2  572.44   32.90
  -6  -9  -2  224.18   22.40
  -6  -9  -2  201.48   17.10
   6   9   2  193.58   16.90
  -7  -9  -2  207.48   23.50
  -7  -9  -2  183.48   18.90
   7   9   2  187.78   15.70
  -8  -9  -2  132.99   17.80
  -8  -9  -2  124.69   18.90
   8   9   2  113.09   15.80
  -9  -9  -2  160.58   25.10
  -9  -9  -2  136.69   16.60
   9   9   2  118.19   17.30
   2 -10  -2    0.70    9.40
   2 -10  -2    1.50   10.20
  -2  10   2    3.20    7.30
   1 -10  -2   -1.00    6.00
   1 -10  -2    1.40    7.30
  -1  10   2    0.80    8.50
   0 -10  -2   35.00   11.50
   0 -10  -2   49.20   10.20
   0  10   2   48.60   10.40
  -1 -10  -2   44.10   11.60
  -1 -10  -2   36.90    8.50
   1  10   2   39.80    9.00
   1  10   2   24.70    8.60
  -2 -10  -2   13.90    9.70
  -2 -10  -2   18.80    6.50
   2  10   2   27.60    8.20
   2  10   2   13.30   10.10
  -3 -10  -2   95.39   13.50
   3  10   2   96.99   12.90
   3  10   2   78.79   12.80
  -4 -10  -2  115.49   12.60
  -4 -10  -2  147.39   18.10
   4  10   2  115.89   15.60
  -5 -10  -2  111.59   13.80
  -5 -10  -2  134.29   18.40
   5  10   2  115.79   15.90
  -6 -10  -2  183.48   21.60
  -6 -10  -2  141.59   16.80
  -7 -10  -2  170.18   19.40
  -7 -10  -2  229.08   25.00
   7  10   2  172.78   17.90
  -8 -10  -2  136.69   19.00
  -8 -10  -2  160.68   24.70
   8  10   2  137.89   17.00
   1 -11  -2  123.39   21.20
   1 -11  -2  131.89   18.80
  -1  11   2  147.59   19.40
   0 -11  -2  145.29   18.50
   0 -11  -2  174.38   18.60
   0  11   2  164.08   19.20
  -1 -11  -2  166.48   21.50
  -1 -11  -2  149.09   16.70
   1  11   2  156.98   18.10
  -2 -11  -2  291.27   27.50
   2  11   2  291.07   23.70
  -3 -11  -2  261.77   25.30
   3  11   2  215.08   20.90
   3  11   2  252.77   21.60
  -4 -11  -2  129.19   19.40
   4  11   2  110.79   17.80
  -5 -11  -2  207.18   23.40
   5  11   2  166.78   15.90
  -6 -11  -2   96.19   15.30
  -6 -11  -2  138.69   21.50
   6  11   2  117.99   17.70
  -7 -11  -2   96.99   17.90
  -7 -11  -2   63.09   10.80
  -1 -12  -2   20.70   13.30
  -1 -12  -2   18.20    9.20
   1  12   2   19.10   10.60
  -2 -12  -2   28.60   13.80
   2  12   2   23.90   10.30
  -3 -12  -2   55.79   15.10
  -4 -12  -2  134.99   21.80
   4  12   2  100.89   16.80
  -5 -12  -2  131.69   21.90
   5  12   2   92.89   15.90
  -6 -12  -2  154.68   23.70
   6  12   2  126.49   20.60
   5  12  -3  178.98   20.50
  -5 -12   3  140.29   19.50
  -5 -12   3  160.58   25.60
  -4 -12   3   76.39   17.40
   3  12  -3  142.39   20.20
  -3 -12   3  123.59   23.10
   2  12  -3  183.08   23.00
  -2 -12   3  177.68   25.00
   7  11  -3    4.60    8.10
  -7 -11   3    4.90   10.40
   6  11  -3   20.50    9.10
   6  11  -3   -3.40    6.80
  -6 -11   3   -1.90   12.30
  -6 -11   3    0.80    9.00
   5  11  -3   18.90    9.60
  -5 -11   3    5.10    6.30
  -5 -11   3    0.40   11.40
   4  11  -3   15.50    9.50
  -4 -11   3    1.30    8.10
  -4 -11   3   -2.20    7.00
   3  11  -3   11.20    9.50
  -3 -11   3   -2.10   10.60
   2  11  -3   20.70   10.80
  -2 -11   3   12.70    9.20
   1  11  -3   45.70   12.80
  -1 -11   3   50.29   14.70
   0  11  -3   15.10   12.00
   0 -11   3   13.70   12.40
   0 -11   3    7.00    8.00
  -1  11  -3   17.90   13.30
   1 -11   3   21.30    9.50
   1 -11   3   29.50   11.30
   8  10  -3   97.79   13.00
  -8 -10   3  108.69   16.00
   7  10  -3  214.58   19.40
   7  10  -3  166.78   17.30
  -7 -10   3  152.28   24.80
  -7 -10   3  165.18   20.80
   6  10  -3  322.97   24.40
   6  10  -3  253.17   21.00
  -6 -10   3  266.97   24.50
  -6 -10   3  286.57   29.00
   5  10  -3  358.76   26.10
   5  10  -3  287.67   22.10
  -5 -10   3  331.87   29.60
  -5 -10   3  310.57   25.60
   4  10  -3  180.48   18.50
   4  10  -3  197.18   15.50
  -4 -10   3  153.08   17.00
  -4 -10   3  161.48   21.00
   3  10  -3  298.67   23.40
  -3 -10   3  250.77   21.50
  -3 -10   3  235.88   22.80
   2  10  -3  311.87   25.80
  -2 -10   3  307.07   27.70
   1  10  -3  223.38   21.20
  -1 -10   3  193.08   17.70
  -1 -10   3  195.18   20.10
   0  10  -3  138.99   18.50
   0 -10   3  118.69   14.60
   0 -10   3  110.19   16.10
  -1  10  -3  166.38   20.60
   1 -10   3  154.48   21.30
   1 -10   3  145.79   17.10
  -2  10  -3   46.50   11.80
   2 -10   3   45.60   11.90
   2 -10   3   43.50   11.30
   8   9  -3    4.80    7.30
  -8  -9   3    0.90    9.50
   7   9  -3    2.40    5.00
  -7  -9   3   -2.70    8.20
  -7  -9   3   -7.10    9.40
   6   9  -3   18.60    7.80
   6   9  -3   -1.50    5.70
  -6  -9   3    3.80    5.90
  -6  -9   3    4.80    9.60
   5   9  -3   19.00    7.70
   5   9  -3    4.10    5.30
  -5  -9   3   10.50    9.20
  -5  -9   3    6.10    7.10
   4   9  -3   16.70    7.30
   4   9  -3    5.30    4.80
  -4  -9   3   10.90    8.70
  -4  -9   3   10.80    6.70
   3   9  -3   25.60    8.10
  -3  -9   3   13.40    6.10
  -3  -9   3   17.70    8.90
   2   9  -3  165.88   16.70
  -2  -9   3  156.28   14.90
  -2  -9   3  160.88   18.20
   1   9  -3  107.19   12.50
  -1  -9   3   87.69   10.80
  -1  -9   3  107.49   15.90
   0   9  -3   38.40   10.10
   0  -9   3   30.20    8.60
   0  -9   3   32.40    6.70
  -1   9  -3  148.49   17.50
   1  -9   3  116.19   14.80
   1  -9   3  117.79   15.50
  -2   9  -3  125.39   18.20
   2  -9   3  101.59   15.30
   2  -9   3  111.99   18.80
  -3   9  -3   68.09   14.40
   3  -9   3   61.49   14.10
   3  -9   3   51.29   11.90
  -4   9  -3   72.99   15.90
   4  -9   3   61.89   15.00
   4  -9   3   64.29   13.40
   9   8  -3   66.69   11.40
  -9  -8   3   97.59   14.80
   8   8  -3  163.28   17.40
   8   8  -3  208.88   20.40
  -8  -8   3  174.48   20.60
   7   8  -3  273.87   20.30
   7   8  -3  350.16   25.60
  -7  -8   3  289.47   23.60
   6   8  -3  479.95   32.20
   6   8  -3  393.96   26.30
  -6  -8   3  463.05   34.60
  -6  -8   3  432.16   31.40
   5   8  -3  350.06   23.50
   5   8  -3  427.06   28.80
  -5  -8   3  368.66   27.00
  -5  -8   3  437.66   30.90
   4   8  -3  357.66   25.10
   4   8  -3  318.97   20.80
  -4  -8   3  327.87   25.40
  -4  -8   3  338.87   24.20
   3   8  -3  664.43   36.80
   3   8  -3  659.33   42.40
  -3  -8   3  666.93   41.40
  -3  -8   3  656.63   44.00
   2   8  -3  481.95   27.40
   2   8  -3  496.15   32.10
  -2  -8   3  468.25   33.30
  -2  -8   3  430.06   27.90
  -2  -8   3  451.95   29.80
   1   8  -3  330.27   23.70
  -1  -8   3  297.27   23.50
  -1  -8   3  290.27   20.60
  -1  -8   3  309.37   20.90
   0   8  -3  364.26   26.10
   0  -8   3  323.67   23.20
   0  -8   3  359.46   27.40
  -1   8  -3  202.88   18.30
   1  -8   3  177.78   16.00
   1  -8   3  171.28   17.20
  -2   8  -3   82.29   14.40
   2  -8   3   62.59   10.40
   2  -8   3   82.89   15.20
  -3   8  -3  145.89   16.20
   3  -8   3  153.58   19.50
   3  -8   3  146.79   17.30
  -4   8  -3   38.70   12.50
   4  -8   3   33.20   11.70
  -5   8  -3    5.60    9.00
   5  -8   3    6.10    8.10
   5  -8   3    3.10   10.80
   9   7  -3    3.90    5.90
  -9  -7   3    4.40    5.80
  -9  -7   3    2.20    9.10
   8   7  -3    7.30    6.90
   8   7  -3   11.00    8.70
  -8  -7   3    9.90    6.80
  -8  -7   3    8.40    8.30
   7   7  -3    0.60    4.20
   7   7  -3   -1.30    7.30
  -7  -7   3    0.90    5.20
  -7  -7   3   -0.70    3.90
   6   7  -3   10.20    7.00
   6   7  -3    0.20    4.90
  -6  -7   3   10.20    6.60
  -6  -7   3    3.70    4.80
  -6  -7   3    1.40    6.90
   5   7  -3  194.58   17.30
   5   7  -3  172.88   13.00
  -5  -7   3  185.08   16.60
  -5  -7   3  196.88   18.20
   4   7  -3   57.59    8.30
   4   7  -3   51.09    7.30
  -4  -7   3   49.00    8.80
  -4  -7   3   41.90    7.50
   3   7  -3  176.58   12.40
   3   7  -3  205.98   16.10
  -3  -7   3  173.98   15.30
  -3  -7   3  179.18   14.80
   2   7  -3  552.54   34.90
   2   7  -3  535.15   29.70
  -2  -7   3  530.95   33.20
  -2  -7   3  535.85   35.80
  -2  -7   3  533.15   31.30
   1   7  -3  155.98   12.50
   1   7  -3  176.78   14.90
  -1  -7   3  166.18   15.40
  -1  -7   3  175.48   13.00
  -1  -7   3  156.78   12.10
   0   7  -3  490.65   31.80
   0  -7   3  485.55   29.30
   0  -7   3  450.95   29.00
   0  -7   3  457.45   32.80
  -1   7  -3  572.74   38.00
   1  -7   3  594.44   35.50
   1  -7   3  579.24   36.00
   1  -7   3  604.14   40.20
  -2   7  -3  230.88   19.50
   2  -7   3  221.08   18.20
   2  -7   3  215.08   19.00
  -3   7  -3  210.18   19.60
   3  -7   3  198.08   20.20
   3  -7   3  196.98   16.90
  -4   7  -3  181.78   17.80
   4  -7   3  186.18   18.40
   4  -7   3  165.98   16.70
  -5   7  -3  110.79   18.60
   5  -7   3   94.09   14.20
   5  -7   3   98.49   14.90
   9   6  -3   92.09   16.60
   9   6  -3  121.49   13.40
  -9  -6   3  139.49   15.60
  -9  -6   3  145.79   18.30
   8   6  -3  124.59   14.60
  -8  -6   3  131.39   14.20
  -8  -6   3  151.58   17.40
   7   6  -3  449.95   26.60
   7   6  -3  362.16   31.60
  -7  -6   3  440.66   26.40
  -7  -6   3  481.05   31.30
   6   6  -3  512.45   38.70
   6   6  -3  629.64   33.40
  -6  -6   3  647.64   37.90
  -6  -6   3  597.94   33.10
  -6  -6   3  471.55   39.10
   5   6  -3  439.56   31.90
   5   6  -3  448.16   26.70
  -5  -6   3  421.76   26.10
  -5  -6   3  489.15   30.60
  -5  -6   3  505.15   32.90
   4   6  -3  670.23   38.30
   4   6  -3  746.63   45.50
  -4  -6   3  655.03   38.20
  -4  -6   3  791.72   46.20
  -4  -6   3  691.43   43.20
   3   6  -3  677.53   37.50
   3   6  -3  717.23   43.90
  -3  -6   3  646.44   38.60
  -3  -6   3  727.23   44.80
  -3  -6   3  726.23   42.50
   2   6  -3  413.16   26.00
   2   6  -3  371.36   21.40
  -2  -6   3  360.46   22.30
  -2  -6   3  386.96   24.50
  -2  -6   3  380.16   26.30
   1   6  -3  539.35   33.20
   1   6  -3  528.45   28.00
   1   6  -3  513.85   30.10
  -1  -6   3  497.45   33.90
  -1  -6   3  491.45   30.00
  -1  -6   3  513.45   31.40
   0   6  -3  455.55   26.50
   0   6  -3  456.25   30.20
   0   6  -3  494.65   28.40
   0  -6   3  457.05   28.20
   0  -6   3  488.15   28.70
   0  -6   3  448.96   31.20
  -1   6  -3  144.89   13.00
  -1   6  -3  126.79   11.80
   1  -6   3  126.39   11.80
   1  -6   3  150.98   10.90
   1  -6   3  134.29   13.60
  -2   6  -3  238.78   18.40
  -2   6  -3  247.78   18.90
   2  -6   3  278.87   17.30
   2  -6   3  244.68   18.60
   2  -6   3  246.38   19.80
  -3   6  -3  194.08   17.70
  -3   6  -3  206.98   16.90
   3  -6   3  182.28   17.00
   3  -6   3  190.68   17.00
  -4   6  -3    5.00    7.70
   4  -6   3    0.00    7.00
   4  -6   3    5.00    7.50
  -5   6  -3   14.00    9.20
   5  -6   3    4.80    6.60
   5  -6   3   -0.70    6.10
  -6   6  -3    6.30   10.70
   6  -6   3    0.80    9.60
   6  -6   3   13.30   10.10
 -10  -5   3    3.00    6.10
   9   5  -3    6.60    7.40
   9   5  -3    8.40    8.70
  -9  -5   3    5.90    7.20
  -9  -5   3   13.50    8.70
   8   5  -3   -0.60    4.50
   8   5  -3   -1.20    7.50
  -8  -5   3    5.90    7.20
  -8  -5   3    6.90    4.70
   7   5  -3   77.39   10.90
  -7  -5   3   86.99   10.70
  -7  -5   3   93.99   11.00
   6   5  -3  184.48   13.10
  -6  -5   3  188.38   15.10
  -6  -5   3  170.98   12.80
   5   5  -3  180.58   12.60
   5   5  -3  138.29   14.50
  -5  -5   3  190.78   14.90
  -5  -5   3  182.48   12.60
  -5  -5   3  173.78   15.10
   4   5  -3  230.28   14.80
   4   5  -3  214.68   18.40
  -4  -5   3  268.47   18.10
  -4  -5   3  233.18   14.80
  -4  -5   3  241.68   17.30
   3   5  -3  747.93   41.70
   3   5  -3  824.02   49.10
  -3  -5   3  758.42   44.10
  -3  -5   3  751.42   41.70
  -3  -5   3  824.72   47.10
  -3  -5   3  823.42   49.20
   2   5  -3  739.03   42.50
   2   5  -3  696.13   37.90
   2   5  -3  660.03   35.90
  -2  -5   3  675.13   42.60
  -2  -5   3  659.53   37.80
  -2  -5   3  641.94   40.30
   1   5  -3 1178.98   68.39
   1   5  -3 1157.28   63.69
   1   5  -3 1173.38   59.29
  -1  -5   3 1109.39   63.59
  -1  -5   3 1124.49   69.99
  -1  -5   3 1132.49   66.29
   0   5  -3  988.30   49.80
   0   5  -3  966.40   57.29
   0   5  -3  949.71   53.59
   0  -5   3  931.61   53.59
   0  -5   3  899.91   58.59
   0  -5   3  960.00   55.29
  -1   5  -3  800.52   43.80
  -1   5  -3  821.52   48.10
  -1   5  -3  863.11   51.29
   1  -5   3  821.52   48.20
   1  -5   3  846.22   52.99
   1  -5   3  894.31   49.50
  -2   5  -3  304.77   21.70
  -2   5  -3  312.27   21.00
   2  -5   3  353.26   20.90
   2  -5   3  305.97   21.00
   2  -5   3  308.07   22.70
  -3   5  -3  811.82   52.59
  -3   5  -3  815.82   49.90
   3  -5   3  870.71   54.89
   3  -5   3  937.11   51.49
   3  -5   3  831.52   50.19
  -4   5  -3  564.94   36.70
  -4   5  -3  528.65   34.50
   4  -5   3  551.24   35.00
   4  -5   3  529.25   37.00
  -5   5  -3  155.68   16.70
  -5   5  -3  179.08   17.90
   5  -5   3  182.68   18.30
   5  -5   3  156.78   17.20
  -6   5  -3  227.98   20.60
   6  -5   3  231.88   22.30
   6  -5   3  218.38   21.70
  -7   5  -3  125.39   20.10
   7  -5   3  121.59   16.00
   7  -5   3  134.39   19.10
  10   4  -3  106.29   16.30
  10   4  -3  115.19   17.80
 -10  -4   3  109.29   17.60
 -10  -4   3  116.69   16.50
   9   4  -3  121.39   16.40
   9   4  -3   96.49   12.20
  -9  -4   3   95.29   12.10
  -9  -4   3  108.09   15.90
   8   4  -3   50.49    8.60
   8   4  -3   59.79   11.40
  -8  -4   3   56.39    8.80
  -8  -4   3   58.39   10.10
   7   4  -3  571.44   33.40
   7   4  -3  547.55   38.70
  -7  -4   3  600.54   37.30
  -7  -4   3  547.35   33.20
   6   4  -3  403.86   29.60
   6   4  -3  416.26   24.60
  -6  -4   3  450.55   28.20
  -6  -4   3  393.96   24.40
   5   4  -3  463.35   25.00
   5   4  -3  346.27   29.00
  -5  -4   3  445.06   24.90
  -5  -4   3  452.05   27.70
   4   4  -3  778.52   43.10
  -4  -4   3  844.02   50.39
  -4  -4   3  817.22   48.20
  -4  -4   3  797.52   43.20
   3   4  -3  139.19    9.10
   3   4  -3  123.89   12.20
  -3  -4   3  160.58   11.20
  -3  -4   3  147.49   10.80
  -3  -4   3  140.89    9.10
   2   4  -3  399.86   22.40
   2   4  -3  415.36   26.90
   2   4  -3  427.36   23.30
  -2  -4   3  436.16   25.70
  -2  -4   3  386.16   22.30
  -2  -4   3  426.46   26.60
   1   4  -3 1890.31   99.59
   1   4  -3 1844.22  135.09
   1   4  -3 1943.11  107.19
  -1  -4   3 1786.32  130.79
  -1  -4   3 1925.31  138.29
   0   4  -3  766.22   45.00
   0   4  -3  850.31   41.40
   0   4  -3  796.32   48.20
   0  -4   3  771.42   49.30
   0  -4   3  816.72   46.80
  -1   4  -3   49.80    2.80
  -1   4  -3   40.50    4.90
  -1   4  -3   50.99    6.30
   1  -4   3   49.40    6.00
   1  -4   3   51.59    6.10
  -2   4  -3  285.97   14.40
  -2   4  -3  259.27   18.00
  -2   4  -3  277.77   19.00
   2  -4   3  277.37   18.90
   2  -4   3  273.37   20.00
  -3   4  -3  118.89   10.50
  -3   4  -3  137.39   12.00
  -3   4  -3  131.29    7.60
   3  -4   3  131.59   10.90
   3  -4   3  136.79   12.00
   3  -4   3  112.39   11.50
  -4   4  -3    7.80    5.50
  -4   4  -3    3.30    5.00
   4  -4   3    1.40    5.40
   4  -4   3   10.70    6.10
   4  -4   3   -1.20    4.30
  -5   4  -3    6.50    6.30
  -5   4  -3   13.00    7.00
   5  -4   3    8.20    6.90
   5  -4   3   11.60    7.10
  -6   4  -3   -1.70    7.60
  -6   4  -3    0.00    7.00
   6  -4   3    0.60    7.50
   6  -4   3    1.20    7.10
  -7   4  -3   11.70    7.60
   7  -4   3    4.00    9.00
   7  -4   3   13.70    9.10
  -8   4  -3    2.40   11.00
   8  -4   3    0.00    8.70
   8  -4   3   -3.40    9.60
   9   3  -3   24.90    9.30
   9   3  -3   19.80    8.00
  -9  -3   3   29.00    8.70
  -9  -3   3   17.20    6.30
   8   3  -3   -3.80    5.90
   8   3  -3    4.20    7.30
  -8  -3   3    4.50    6.20
  -8  -3   3    0.00    5.90
   7   3  -3  159.48   16.60
   7   3  -3  167.88   13.00
  -7  -3   3  164.28   13.00
  -7  -3   3  180.48   15.60
   6   3  -3  316.57   24.20
  -6  -3   3  318.67   20.20
  -6  -3   3  355.66   23.10
   5   3  -3  128.29   13.10
   5   3  -3  148.49    8.70
  -5  -3   3  136.99   10.20
  -5  -3   3  150.08   12.10
   4   3  -3  849.22   55.09
   4   3  -3  921.81   49.99
  -4  -3   3  912.31   47.80
  -4  -3   3  912.91   53.09
   3   3  -3  793.12   45.10
  -3  -3   3  693.23   51.19
  -3  -3   3  786.32   46.10
  -3  -3   3  763.52   41.30
  -3  -3   3  850.31   47.70
   2   3  -3  614.14   33.60
   2   3  -3  513.55   36.60
  -2  -3   3  606.24   35.20
  -2  -3   3  599.94   31.40
  -2  -3   3  635.84   36.50
   1   3  -3 3626.14  191.08
   1   3  -3 3778.42  204.78
   1   3  -3 3543.05  220.58
  -1  -3   3 3616.04  191.08
  -1  -3   3 3802.42  213.28
  -1  -3   3 3719.53  224.58
   0   3  -3 1534.75   80.39
   0   3  -3 1574.64   90.39
   0   3  -3 1516.65   88.29
   0  -3   3 1595.84   91.59
   0  -3   3 1521.75   94.29
  -1   3  -3 1482.65   91.19
  -1   3  -3 1535.55   87.59
   1  -3   3 1578.54   92.39
   1  -3   3 1549.94   88.39
  -2   3  -3 1736.93   99.99
  -2   3  -3 1828.52   93.29
  -2   3  -3 1748.63  105.39
   2  -3   3 1929.81  111.49
  -3   3  -3 1829.62   94.09
  -3   3  -3 1748.23  104.99
  -3   3  -3 1721.23   99.79
   3  -3   3 1781.62  103.29
   3  -3   3 1894.81  108.69
  -4   3  -3  826.32   50.59
  -4   3  -3  757.32   47.70
  -4   3  -3  843.42   42.80
   4  -3   3  824.92   52.19
   4  -3   3  842.02   48.30
   4  -3   3  841.82   49.20
  -5   3  -3  519.35   33.50
  -5   3  -3  467.75   31.20
   5  -3   3  493.05   31.70
   5  -3   3  523.25   31.80
   5  -3   3  507.05   34.70
  -6   3  -3  491.25   33.40
  -6   3  -3  537.75   35.50
   6  -3   3  515.85   34.00
   6  -3   3  515.65   36.20
  -7   3  -3  184.38   18.20
  -7   3  -3  179.38   19.00
   7  -3   3  187.48   19.00
   7  -3   3  185.78   19.20
  -8   3  -3   89.29   15.00
   8  -3   3   97.39   16.30
   8  -3   3   96.99   16.60
   9   2  -3   42.70    9.10
   9   2  -3   59.19   11.50
  -9  -2   3   56.69    9.80
  -9  -2   3   50.99    9.60
   8   2  -3  167.38   16.90
  -8  -2   3  164.98   15.60
  -8  -2   3  165.98   16.10
   7   2  -3  416.06   28.70
  -7  -2   3  392.96   24.80
  -7  -2   3  409.16   27.50
   6   2  -3  210.88   14.30
   6   2  -3  237.48   18.20
  -6  -2   3  213.58   15.10
  -6  -2   3  265.27   16.10
  -6  -2   3  224.68   17.10
   5   2  -3  639.34   36.80
   5   2  -3  676.63   41.10
  -5  -2   3  663.03   36.30
  -5  -2   3  629.24   39.60
  -5  -2   3  682.83   40.40
   4   2  -3  560.14   34.20
   4   2  -3  535.15   29.90
  -4  -2   3  524.35   29.40
  -4  -2   3  528.85   32.50
   3   2  -3  586.34   30.20
   3   2  -3  485.15   32.70
  -3  -2   3  517.45   31.50
  -3  -2   3  514.25   28.40
   2   2  -3 1265.97   86.59
   2   2  -3 1297.27   83.19
  -2  -2   3 1654.93   88.59
  -2  -2   3 1648.83  132.99
  -2  -2   3 1638.54   79.89
   1   2  -3  865.41   56.99
   1   2  -3  999.70   55.49
  -1  -2   3  930.21   50.99
  -1  -2   3 1026.10   56.79
  -1  -2   3  985.90   58.99
   0   2  -3  104.49    6.90
   0   2  -3  109.99    8.00
   0  -2   3  112.89    7.90
   0  -2   3  106.39    7.90
   0  -2   3   99.39    5.80
  -1   2  -3   48.10    4.60
  -1   2  -3   40.40    3.90
  -1   2  -3   47.70    5.10
   1  -2   3   47.80    5.20
   1  -2   3   44.10    5.00
  -2   2  -3  142.69    9.90
  -2   2  -3  143.19    7.40
  -2   2  -3  125.69    9.20
  -2   2  -3  149.79   10.80
   2  -2   3  124.69    7.30
   2  -2   3  138.99   10.70
   2  -2   3  132.09   10.10
  -3   2  -3   44.60    6.70
  -3   2  -3   38.50    5.40
  -3   2  -3   35.90    4.70
  -3   2  -3   38.30    3.20
   3  -2   3   48.20    6.00
   3  -2   3   36.30    4.90
   3  -2   3   32.30    3.00
  -4   2  -3   17.50    3.90
  -4   2  -3   18.50    4.70
  -4   2  -3   18.80    5.50
  -4   2  -3   15.90    2.50
   4  -2   3   13.70    3.50
   4  -2   3   17.80    5.50
   4  -2   3   18.60    3.10
  -5   2  -3    4.70    2.50
  -5   2  -3    5.20    4.50
  -5   2  -3    4.70    4.50
  -5   2  -3    4.30    4.10
   5  -2   3    0.60    3.50
   5  -2   3    2.70    2.30
   5  -2   3    4.20    4.00
  -6   2  -3    3.90    5.30
  -6   2  -3    1.80    5.20
  -6   2  -3    8.20    6.20
  -6   2  -3    0.40    3.10
   6  -2   3    2.40    3.70
   6  -2   3    2.20    4.50
   6  -2   3   -3.30    5.60
   6  -2   3   -1.00    3.00
  -7   2  -3   85.79   12.50
  -7   2  -3   99.39   13.90
  -7   2  -3   88.89   13.50
   7  -2   3   77.49   13.30
   7  -2   3   90.89   13.80
  -8   2  -3    9.00    8.70
   8  -2   3   10.30    7.70
   8  -2   3   13.30    8.40
   8  -2   3   20.60    8.90
   9   1  -3    7.50    6.40
   9   1  -3    5.20    7.20
  -9  -1   3   13.00    7.40
   8   1  -3   40.90    9.30
  -8  -1   3   47.40    7.90
  -8  -1   3   41.70    7.20
   7   1  -3  257.57   19.90
  -7  -1   3  256.67   18.90
  -7  -1   3  240.58   17.20
   6   1  -3  298.07   21.10
   6   1  -3  284.17   18.40
  -6  -1   3  293.97   19.10
  -6  -1   3  304.37   20.40
   5   1  -3  590.84   31.40
   5   1  -3  465.35   29.10
   5   1  -3  492.95   31.90
  -5  -1   3  476.25   31.10
  -5  -1   3  533.35   31.30
  -5  -1   3  484.25   28.70
   4   1  -3  957.40   55.49
   4   1  -3  893.91   51.39
  -4  -1   3  879.51   53.99
  -4  -1   3 1027.40   56.59
  -4  -1   3  882.31   49.10
   3   1  -3 1368.06   82.19
   3   1  -3 1497.45   86.59
  -3  -1   3 1397.16   84.09
  -3  -1   3 1546.55   87.59
  -3  -1   3 1416.66  105.69
   2   1  -3 1035.90   62.19
   2   1  -3 1109.19   59.89
   2   1  -3 1063.39   61.39
  -2  -1   3  973.80   54.99
  -2  -1   3 1016.30   61.69
   1   1  -3 7930.11  551.24
  -1  -1   3 9682.83  576.74
  -1  -1   3 8950.30  530.35
  -1  -1   3 9999.00  618.54
   0   1  -3 1938.61  125.69
   0   1  -3 2211.38  129.19
   0   1  -3 2055.79  118.69
   0  -1   3 2005.30  171.98
   0  -1   3 2238.78  129.39
   0  -1   3 2097.39  109.49
  -1   1  -3  376.36   23.10
  -1   1  -3  362.66   20.80
  -1   1  -3  348.87   21.80
   1  -1   3  366.06   22.20
   1  -1   3  380.06   23.10
   1  -1   3  326.37   18.70
  -2   1  -3 2263.37  191.88
  -2   1  -3 2429.16  135.99
  -2   1  -3 2402.36  143.79
   2  -1   3 2460.45  141.29
   2  -1   3 1995.20  144.69
   2  -1   3 2500.25  143.99
  -3   1  -3 3197.58  194.18
  -3   1  -3 3391.16  186.38
  -3   1  -3 3507.55  220.78
  -3   1  -3 3096.69  201.78
   3  -1   3 3333.77  203.58
   3  -1   3 3014.20  206.28
   3  -1   3 3266.57  190.58
  -4   1  -3 1591.34   98.49
  -4   1  -3 1691.03   86.19
  -4   1  -3 1614.44   94.49
  -4   1  -3 1572.94   89.89
   4  -1   3 1550.64   93.59
   4  -1   3 1764.32   98.59
   4  -1   3 1538.85   84.99
  -5   1  -3 1238.78   62.99
  -5   1  -3 1209.88   72.09
  -5   1  -3 1127.29   75.19
  -5   1  -3 1133.89   68.39
   5  -1   3 1298.07   75.29
   5  -1   3 1247.58   62.99
   5  -1   3 1226.58   70.09
  -6   1  -3  258.37   18.60
  -6   1  -3  239.48   20.60
  -6   1  -3  222.38   16.80
  -6   1  -3  238.28   14.90
   6  -1   3  253.87   17.60
   6  -1   3  236.38   16.90
   6  -1   3  246.98   14.90
   6  -1   3  259.47   20.40
  -7   1  -3  158.38   11.80
  -7   1  -3  153.58   14.60
  -7   1  -3  162.88   15.60
  -7   1  -3  160.68   17.30
   7  -1   3  155.28   13.50
   7  -1   3  176.58   17.10
   7  -1   3  171.28   15.50
   7  -1   3  163.88   11.80
  -8   1  -3  224.28   21.20
  -8   1  -3  204.28   18.50
  -8   1  -3  209.18   20.10
   8  -1   3  233.98   21.00
   8  -1   3  231.48   19.50
   8  -1   3  202.88   18.10
   8  -1   3  218.28   18.90
  -9   1  -3  156.78   18.30
   9  -1   3  138.69   17.80
   9  -1   3  122.79   16.50
   9   0  -3   39.30   10.70
  -9   0   3   47.50    9.30
   8   0  -3  163.28   16.60
  -8   0   3  157.58   15.70
   7   0  -3  141.59   14.40
   7   0  -3  136.49   12.00
  -7   0   3  144.59   13.20
  -7   0   3  152.98   13.70
   6   0  -3  164.58   13.90
   6   0  -3  151.98   12.20
  -6   0   3  147.79   12.40
  -6   0   3  166.78   13.00
   5   0  -3  481.95   29.80
   5   0  -3  513.65   32.30
   5   0  -3  566.94   31.80
  -5   0   3  496.85   29.00
  -5   0   3  480.55   31.00
  -5   0   3  523.25   32.50
   4   0  -3  211.48   12.90
   4   0  -3  182.88   12.50
   4   0  -3  203.58   14.00
  -4   0   3  192.68   13.10
  -4   0   3  191.58   14.00
  -4   0   3  194.78   12.70
   3   0  -3  257.07   14.60
   3   0  -3  240.38   15.50
   3   0  -3  219.08   14.10
  -3   0   3  228.68   14.70
  -3   0   3  226.18   13.80
  -3   0   3  236.18   15.60
   2   0  -3  145.19   10.00
   2   0  -3  166.38    9.80
   2   0  -3  174.78   10.90
   2   0  -3  167.98   10.00
  -2   0   3  164.18    9.80
  -2   0   3  156.48   10.30
   1   0  -3  166.88    9.70
   1   0  -3  165.78   10.50
  -1   0   3  153.58    9.60
  -1   0   3  161.58   10.10
  -1   0   3  147.89    9.20
   0   0  -3  425.36   25.90
   0   0  -3  424.76   25.40
   0   0  -3  419.86   24.30
   0   0   3  417.66   22.50
   0   0   3  416.96   25.50
  -1   0  -3  209.78   12.80
  -1   0  -3  205.48   12.70
   1   0   3  198.68   11.30
   1   0   3  201.88   13.10
  -2   0  -3  160.18    9.60
  -2   0  -3  144.89    9.60
   2   0   3  145.89    8.40
   2   0   3  148.09    9.80
  -3   0  -3   31.20    3.60
  -3   0  -3   26.60    5.20
  -3   0  -3   34.70    4.10
   3   0   3   29.80    2.90
  -4   0  -3    7.00    2.10
  -4   0  -3    6.20    2.90
  -4   0  -3    7.30    2.20
  -4   0  -3    8.60    2.80
  -4   0  -3    4.00    4.60
   4   0   3    4.80    1.90
  -5   0  -3   21.60    4.40
  -5   0  -3   28.30    5.10
  -5   0  -3   23.80    4.50
  -5   0  -3   20.80    6.80
  -5   0  -3   24.50    3.80
   5   0   3   26.30    4.00
  -6   0  -3   13.90    4.60
  -6   0  -3   13.60    3.90
  -6   0  -3   14.70    4.70
  -6   0  -3   13.10    6.90
   6   0   3    4.40    6.50
   6   0   3   12.70    3.80
  -7   0  -3  157.98   15.00
  -7   0  -3  175.38   12.50
  -7   0  -3  173.18   17.70
  -7   0  -3  163.68   14.00
   7   0   3  175.78   14.40
   7   0   3  176.98   16.00
   7   0   3  175.78   14.80
   7   0   3  171.98   12.40
  -8   0  -3  103.09   10.40
  -8   0  -3  107.89   15.40
  -8   0  -3   78.59   12.80
  -8   0  -3   92.49   11.50
   8   0   3  103.59   10.20
   8   0   3   91.49   11.90
   8   0   3   97.49   12.40
   8   0   3   92.29   14.60
   8   0   3   91.49   11.80
  -9   0  -3  100.49   15.90
   9   0   3   99.69   15.50
   9  -1  -3    7.80    9.40
  -9   1   3    9.90    7.50
   8  -1  -3  142.59   16.40
   8  -1  -3  136.09   14.70
  -8   1   3  140.69   15.10
   7  -1  -3  150.68   14.00
   7  -1  -3  158.78   15.70
  -7   1   3  181.38   16.70
  -7   1   3  168.58   14.70
   6  -1  -3  102.19   10.50
   6  -1  -3  122.39   12.20
  -6   1   3  120.29   11.10
  -6   1   3  112.99   12.40
  -6   1   3  109.59   10.10
   5  -1  -3  515.45   32.10
   5  -1  -3  544.45   32.00
   5  -1  -3  498.75   30.40
  -5   1   3  502.55   29.10
  -5   1   3  502.25   32.30
  -5   1   3  492.75   30.80
   4  -1  -3 1069.09   62.59
   4  -1  -3 1017.30   59.19
   4  -1  -3 1149.69   63.39
  -4   1   3 1010.80   60.59
  -4   1   3 1048.70   55.99
  -4   1   3 1036.50   62.59
   3  -1  -3 1758.42  133.59
   3  -1  -3 1699.03  100.59
   3  -1  -3 1883.61  107.69
  -3   1   3 1826.52   96.19
  -3   1   3 1721.43  103.19
  -3   1   3 1664.53  129.89
   2  -1  -3 1912.41  154.78
   2  -1  -3 1959.60  153.08
   2  -1  -3 1877.61  153.88
  -2   1   3 1924.61  137.59
  -2   1   3 2016.60  105.89
  -2   1   3 1984.50  112.69
   1  -1  -3 1619.14  136.29
   1  -1  -3 1585.34  130.19
   1  -1  -3 1725.93   95.29
  -1   1   3 1589.04  137.69
  -1   1   3 1773.62  131.59
  -1   1   3 1636.94   89.59
   0  -1  -3  989.20   56.29
   0  -1  -3 1009.10   58.59
   0  -1  -3 1004.20   60.19
   0   1   3  906.11   50.69
   0   1   3  931.11   56.79
   0   1   3  989.90   58.89
  -1  -1  -3 2197.08  136.39
  -1  -1  -3 1867.61  124.79
   1   1   3 2339.07  116.89
   1   1   3 2345.47  128.59
  -2  -1  -3 5640.04  286.27
  -2  -1  -3 5193.08  291.97
  -2  -1  -3 4195.08  310.47
   2   1   3 5354.06  322.07
  -3  -1  -3 4464.65  239.18
  -3  -1  -3 3971.00  246.58
  -3  -1  -3 4209.58  246.68
   3   1   3 4356.56  285.47
  -4  -1  -3 1059.69   66.69
  -4  -1  -3 1157.48   63.89
  -4  -1  -3 1151.18   66.09
   4   1   3 1218.58   59.49
  -5  -1  -3 1169.78   65.29
  -5  -1  -3 1263.47   61.09
  -5  -1  -3 1062.69   72.99
  -5  -1  -3 1154.58   67.49
  -5  -1  -3 1077.89   68.39
   5   1   3 1189.98   68.39
   5   1   3 1224.18   60.79
  -6  -1  -3  480.95   29.70
  -6  -1  -3  490.55   34.20
  -6  -1  -3  418.26   29.70
  -6  -1  -3  461.05   28.40
  -6  -1  -3  507.65   26.70
   6   1   3  460.45   29.60
   6   1   3  483.45   26.50
  -7  -1  -3  283.47   19.80
  -7  -1  -3  312.77   18.80
  -7  -1  -3  311.07   25.50
  -7  -1  -3  317.47   21.20
  -7  -1  -3  259.27   21.00
   7   1   3  287.07   20.80
   7   1   3  319.07   18.70
  -8  -1  -3  322.87   27.80
  -8  -1  -3  332.57   23.80
  -8  -1  -3  299.17   22.20
  -8  -1  -3  331.17   21.20
   8   1   3  341.47   23.10
   8   1   3  334.17   27.20
   8   1   3  355.46   21.30
  -9  -1  -3  129.39   13.10
  -9  -1  -3  136.09   17.80
   9   1   3  136.99   13.10
   9   1   3  112.69   18.30
   8  -2  -3   58.89   10.30
   8  -2  -3   50.39   10.00
  -8   2   3   77.39   12.70
  -8   2   3   54.39    9.20
   7  -2  -3   57.39    9.90
   7  -2  -3   54.29    9.20
  -7   2   3   63.29   10.60
  -7   2   3   70.19   11.10
   6  -2  -3  173.08   15.10
   6  -2  -3  185.38   15.20
  -6   2   3  187.48   14.60
  -6   2   3  190.88   16.60
   5  -2  -3   74.99    8.00
   5  -2  -3   89.59   10.00
   5  -2  -3   82.49    8.60
  -5   2   3   81.69   10.10
  -5   2   3   97.29    9.10
  -5   2   3   73.79    7.00
   4  -2  -3    9.70    3.20
   4  -2  -3   10.50    4.40
   4  -2  -3    9.20    3.50
  -4   2   3   14.90    3.80
  -4   2   3    9.70    2.40
  -4   2   3   11.60    4.40
   3  -2  -3  110.49    8.60
   3  -2  -3  120.69    8.90
  -3   2   3  116.19    8.80
  -3   2   3  112.99    7.60
  -3   2   3  116.19    9.40
   2  -2  -3  576.74   34.00
   2  -2  -3  557.74   32.00
  -2   2   3  540.95   32.10
  -2   2   3  556.84   30.40
  -2   2   3  555.14   33.50
   1  -2  -3   20.90    3.10
   1  -2  -3   22.90    3.50
  -1   2   3   26.70    2.10
  -1   2   3   16.50    3.40
  -1   2   3   22.40    3.20
   0  -2  -3    1.20    1.50
   0  -2  -3    0.60    1.60
   0   2   3    2.70    1.20
   0   2   3    2.20    1.30
   0   2   3    2.80    1.90
  -1  -2  -3   30.20    3.20
  -1  -2  -3   25.00    3.30
  -1  -2  -3   22.70    2.60
   1   2   3   23.60    2.10
   1   2   3   24.60    3.40
  -2  -2  -3  186.18   12.50
  -2  -2  -3  184.48   11.20
  -2  -2  -3  146.39   11.40
   2   2   3  174.08   10.00
  -3  -2  -3   16.60    2.80
   3   2   3   12.10    2.40
  -4  -2  -3   29.80    6.90
  -4  -2  -3   51.89    4.60
  -4  -2  -3   45.20    5.40
   4   2   3   37.00    4.20
   4   2   3   45.00    4.70
  -5  -2  -3  312.07   18.50
  -5  -2  -3  262.97   23.10
  -5  -2  -3  308.37   19.60
   5   2   3  329.87   17.60
   5   2   3  285.17   19.30
  -6  -2  -3  301.87   18.90
  -6  -2  -3  312.07   20.00
  -6  -2  -3  246.28   24.00
  -6  -2  -3  324.27   18.00
   6   2   3  267.57   19.70
   6   2   3  312.07   17.70
  -7  -2  -3  154.78   12.20
  -7  -2  -3  167.28   13.30
  -7  -2  -3  183.08   19.10
  -7  -2  -3  171.88   12.60
   7   2   3  134.09   13.30
   7   2   3  172.38   12.50
  -8  -2  -3  238.58   15.70
  -8  -2  -3  199.98   15.90
  -8  -2  -3  237.08   18.60
  -8  -2  -3  231.08   22.90
   8   2   3  213.48   16.70
   8   2   3  236.48   16.40
  -9  -2  -3  183.28   17.10
  -9  -2  -3  165.08   20.50
   9   2   3  126.39   19.60
   9   2   3  175.88   14.90
  10   2   3   29.30    7.90
   8  -3  -3   31.90    8.30
   8  -3  -3   33.20   11.00
  -8   3   3   46.90   12.30
  -8   3   3   40.80    8.40
   7  -3  -3   98.19   14.90
   7  -3  -3   89.99   13.90
  -7   3   3  101.99   12.50
  -7   3   3  115.99   16.10
   6  -3  -3  140.19   14.80
   6  -3  -3  121.89   13.90
  -6   3   3  136.79   12.70
  -6   3   3  142.99   15.30
   5  -3  -3  755.32   45.70
   5  -3  -3  726.23   45.70
   5  -3  -3  727.93   43.50
  -5   3   3  736.83   45.80
  -5   3   3  694.73   40.40
   4  -3  -3  795.02   47.40
   4  -3  -3  758.62   44.70
  -4   3   3  751.62   46.70
  -4   3   3  747.43   41.70
   3  -3  -3  472.75   29.40
   3  -3  -3  511.85   31.40
  -3   3   3  494.65   30.80
  -3   3   3  498.35   27.90
   2  -3  -3 1834.52  158.78
   2  -3  -3 1881.81  106.19
  -2   3   3 1881.81  109.79
  -2   3   3 1937.51  100.59
   1  -3  -3 2305.27  138.19
   1  -3  -3 2295.57  178.58
  -1   3   3 2221.98  135.89
  -1   3   3 2238.28  121.99
   0  -3  -3 2672.33  241.38
   0  -3  -3 2946.81  163.48
   0   3   3 3079.19  166.68
   0   3   3 2689.03  224.28
   0   3   3 2936.91  158.08
  -1  -3  -3 3823.42  206.38
  -1  -3  -3 3862.81  212.98
  -1  -3  -3 3570.84  225.98
   1   3   3 3539.75  271.07
   1   3   3 3584.94  215.28
  -2  -3  -3 2554.84  148.19
  -2  -3  -3 2584.84  144.89
  -2  -3  -3 2176.08  139.19
   2   3   3 2449.05  181.68
   2   3   3 2510.35  143.09
  -3  -3  -3 3022.00  199.58
  -3  -3  -3 3065.79  188.88
  -3  -3  -3 3218.68  184.38
   3   3   3 3553.64  198.68
   3   3   3 3235.58  171.18
  -4  -3  -3 1571.34   91.49
  -4  -3  -3 1449.15   95.29
  -4  -3  -3 1664.63   88.99
   4   3   3 1611.04   82.59
   4   3   3 1535.55   92.19
  -5  -3  -3 1101.49   63.89
  -5  -3  -3 1048.20   60.79
   5   3   3 1075.79   64.19
   5   3   3 1145.99   57.59
  -6  -3  -3  448.86   37.60
  -6  -3  -3  565.74   34.20
  -6  -3  -3  536.85   31.60
   6   3   3  593.44   30.80
   6   3   3  572.64   34.20
  -7  -3  -3  202.78   21.70
  -7  -3  -3  278.67   18.70
  -7  -3  -3  247.78   16.50
   7   3   3  277.17   17.20
  -8  -3  -3  265.87   26.90
  -8  -3  -3  297.67   22.30
   8   3   3  298.97   19.70
  -9  -3  -3  101.09   18.90
  -9  -3  -3  102.79   12.50
   9   3   3  120.49   11.30
 -10  -3  -3   27.30    8.90
  10   3   3   18.50    7.70
   7  -4  -3   -2.80    8.50
   7  -4  -3    5.10    8.50
  -7   4   3   17.40    6.40
  -7   4   3   17.80    9.90
   6  -4  -3   48.80    9.80
   6  -4  -3   47.90    9.10
  -6   4   3   70.59   10.30
  -6   4   3   57.39   10.60
   5  -4  -3   16.30    6.70
   5  -4  -3    8.40    5.40
  -5   4   3   12.90    7.00
  -5   4   3   15.50    4.90
   4  -4  -3   11.90    5.10
   4  -4  -3   14.40    5.80
  -4   4   3   17.10    4.50
  -4   4   3   17.40    6.10
   3  -4  -3   78.59    8.20
   3  -4  -3   86.09    8.80
  -3   4   3   86.19    8.50
  -3   4   3   86.29    8.40
   2  -4  -3    4.40    3.40
   2  -4  -3    5.60    2.90
  -2   4   3    8.80    3.70
  -2   4   3    4.20    3.40
   1  -4  -3   16.70    3.90
   1  -4  -3   20.60    4.10
  -1   4   3   20.90    3.80
  -1   4   3   15.40    3.80
   0  -4  -3    3.10    2.70
   0  -4  -3    3.80    2.80
   0   4   3    0.00    3.70
   0   4   3    6.60    2.40
  -1  -4  -3  520.05   29.30
  -1  -4  -3  490.95   31.80
  -1  -4  -3  528.65   29.50
   1   4   3  509.05   28.00
   1   4   3  488.35   30.10
  -2  -4  -3  325.17   18.90
  -2  -4  -3  320.97   20.90
  -2  -4  -3  317.97   19.10
   2   4   3  301.67   17.80
   2   4   3  303.57   18.80
  -3  -4  -3  693.73   41.20
  -3  -4  -3  581.34   37.60
  -3  -4  -3  666.13   38.50
   3   4   3  656.73   34.90
   3   4   3  662.63   37.90
  -4  -4  -3  286.27   19.30
  -4  -4  -3  307.17   18.50
  -4  -4  -3  288.37   21.60
   4   4   3  280.27   17.40
   4   4   3  324.47   18.10
  -5  -4  -3  413.76   24.20
  -5  -4  -3  382.26   29.40
  -5  -4  -3  403.76   26.20
   5   4   3  422.96   23.70
   5   4   3  430.86   25.00
  -6  -4  -3  416.76   25.70
  -6  -4  -3  384.26   22.80
  -6  -4  -3  318.87   29.00
   6   4   3  410.76   23.10
  -7  -4  -3  175.18   14.20
  -7  -4  -3  140.99   18.80
   7   4   3  189.38   13.70
  -8  -4  -3  390.26   27.60
   8   4   3  386.16   24.60
  -9  -4  -3  249.58   21.20
  -9  -4  -3  221.38   26.50
   9   4   3  240.78   18.80
 -10  -4  -3   49.20    9.40
  10   4   3   38.70    7.60
   7  -5  -3   50.79   12.80
   7  -5  -3   57.39   10.90
  -7   5   3   75.89   14.10
   6  -5  -3  143.29   15.70
   6  -5  -3  156.28   17.50
  -6   5   3  144.29   15.80
   5  -5  -3  352.26   27.90
   5  -5  -3  388.56   27.40
  -5   5   3  372.86   24.00
  -5   5   3  423.26   28.70
   4  -5  -3  349.96   25.30
   4  -5  -3  363.66   24.80
  -4   5   3  358.16   24.80
  -4   5   3  348.07   22.40
   3  -5  -3  632.54   40.90
   3  -5  -3  638.44   38.60
  -3   5   3  613.34   35.90
  -3   5   3  659.93   40.30
   2  -5  -3 1214.08   73.09
   2  -5  -3 1214.88   67.99
  -2   5   3 1155.88   64.19
  -2   5   3 1189.48   70.99
   1  -5  -3 1403.96   84.39
   1  -5  -3 1400.36   78.19
  -1   5   3 1417.86   81.89
  -1   5   3 1346.27   74.69
   0  -5  -3 1296.87   79.59
   0  -5  -3 1322.47   73.59
   0   5   3 1298.07   76.99
   0   5   3 1349.07   70.59
  -1  -5  -3 1360.06   74.89
  -1  -5  -3 1412.86   79.69
  -1  -5  -3 1338.47   81.39
   1   5   3 1333.97   70.79
   1   5   3 1294.17   79.39
  -2  -5  -3 1067.19   59.19
  -2  -5  -3 1063.59   57.49
  -2  -5  -3 1009.60   62.79
   2   5   3 1016.60   54.19
   2   5   3  981.80   59.79
  -3  -5  -3 1360.16   77.19
  -3  -5  -3 1282.27   74.89
  -3  -5  -3 1391.56   81.79
   3   5   3 1335.67   70.09
   3   5   3 1351.86   80.09
  -4  -5  -3 1955.20  113.09
  -4  -5  -3 1808.32  103.99
  -4  -5  -3 1895.71  107.09
   4   5   3 1934.51  110.99
   4   5   3 1760.22   96.79
  -5  -5  -3  676.43   37.50
  -5  -5  -3  666.93   43.40
  -5  -5  -3  615.04   39.40
   5   5   3  652.23   35.80
  -6  -5  -3  291.77   17.90
  -6  -5  -3  282.87   23.70
  -6  -5  -3  298.07   21.00
   6   5   3  312.97   18.60
  -7  -5  -3  444.96   29.60
   7   5   3  428.16   26.40
  -8  -5  -3  223.28   18.00
  -8  -5  -3  191.68   23.10
   8   5   3  233.18   16.10
  -9  -5  -3   49.99   10.10
  -9  -5  -3   26.20   13.10
   9   5   3   58.09    9.30
 -10  -5  -3   15.20   13.70
 -10  -5  -3   18.20    9.40
  10   5   3   20.70    8.20
   6  -6  -3   10.30    7.80
  -6   6   3   16.70   10.60
   5  -6  -3   -0.60    8.10
  -5   6   3    8.50    6.90
   4  -6  -3   -2.10    6.70
   4  -6  -3   -2.60    6.00
  -4   6   3    3.00    7.20
  -4   6   3    4.20    4.40
   3  -6  -3   13.40    5.20
   3  -6  -3    9.30    6.50
  -3   6   3   19.40    5.70
  -3   6   3   17.90    5.10
   2  -6  -3    7.90    4.20
   2  -6  -3    1.70    5.10
  -2   6   3    6.40    4.20
  -2   6   3    2.60    4.30
   1  -6  -3  172.78   14.70
   1  -6  -3  183.68   13.90
  -1   6   3  167.88   13.50
  -1   6   3  153.38   14.40
   0  -6  -3   17.40    4.00
   0  -6  -3   16.10    4.50
   0   6   3   19.90    4.40
   0   6   3   11.60    5.20
  -1  -6  -3  367.06   25.60
  -1  -6  -3  399.56   22.60
  -1  -6  -3  381.56   23.20
   1   6   3  363.66   23.10
   1   6   3  370.96   23.70
  -2  -6  -3  423.46   24.90
  -2  -6  -3  421.66   27.70
  -2  -6  -3  413.86   24.60
   2   6   3  397.56   25.20
   2   6   3  400.86   23.70
  -3  -6  -3  187.88   13.00
  -3  -6  -3  192.48   12.80
  -3  -6  -3  186.38   14.40
   3   6   3  186.68   12.60
   3   6   3  171.78   12.20
  -4  -6  -3  474.35   28.60
  -4  -6  -3  465.95   30.70
  -4  -6  -3  408.46   27.90
   4   6   3  457.75   25.90
   4   6   3  466.95   27.50
  -5  -6  -3  730.13   46.30
  -5  -6  -3  674.63   42.90
  -5  -6  -3  728.33   41.10
   5   6   3  697.23   39.10
  -6  -6  -3  289.87   24.60
  -6  -6  -3  292.37   21.20
   6   6   3  295.17   19.20
  -7  -6  -3  353.26   30.10
  -7  -6  -3  398.36   27.20
   7   6   3  399.66   24.40
  -8  -6  -3  402.66   28.40
   8   6   3  414.46   25.60
  -9  -6  -3  266.27   22.30
  -9  -6  -3  179.98   25.90
   9   6   3  254.17   19.70
 -10  -6  -3  109.19   17.20
 -10  -6  -3   58.69   17.60
  10   6   3  107.99   15.30
   5  -7  -3  191.78   21.30
  -5   7   3  203.78   21.60
   4  -7  -3  168.28   17.70
   4  -7  -3  158.08   18.10
  -4   7   3  176.58   16.50
   3  -7  -3  381.16   27.20
   3  -7  -3  370.56   28.20
  -3   7   3  394.96   27.80
  -3   7   3  368.96   24.20
   2  -7  -3  355.16   26.20
   2  -7  -3  334.77   23.70
  -2   7   3  374.76   25.30
  -2   7   3  335.87   23.30
   1  -7  -3  569.24   36.90
   1  -7  -3  535.35   33.50
  -1   7   3  539.15   34.60
  -1   7   3  532.75   33.80
   0  -7  -3  652.63   42.80
   0  -7  -3  689.93   39.70
   0   7   3  653.43   40.90
   0   7   3  648.34   39.50
  -1  -7  -3  856.61   49.70
  -1  -7  -3  846.92   54.49
  -1  -7  -3  889.71   49.60
   1   7   3  866.71   51.79
   1   7   3  837.02   48.30
  -2  -7  -3  551.24   32.20
  -2  -7  -3  538.15   35.40
  -2  -7  -3  537.55   31.80
   2   7   3  535.25   31.00
   2   7   3  524.45   33.00
  -3  -7  -3  757.12   49.00
  -3  -7  -3  786.52   44.10
  -3  -7  -3  768.92   45.40
   3   7   3  777.62   45.80
   3   7   3  737.73   41.90
  -4  -7  -3 1326.27   80.29
  -4  -7  -3 1310.47   75.49
  -4  -7  -3 1120.89   72.99
   4   7   3 1320.47   75.69
   4   7   3 1402.26   69.09
  -5  -7  -3  410.56   29.10
  -5  -7  -3  389.66   26.20
   5   7   3  387.86   23.60
  -6  -7  -3  354.16   27.90
  -6  -7  -3  344.67   24.50
   6   7   3  342.37   22.30
  -7  -7  -3  143.79   17.20
  -7  -7  -3  149.69   14.00
   7   7   3  152.18   12.70
  -8  -7  -3   46.20    9.50
  -8  -7  -3   51.99   13.80
   8   7   3   38.20    7.10
  -9  -7  -3   31.70    9.90
  -9  -7  -3   34.50   12.70
   9   7   3   28.70    8.70
 -10  -7  -3   46.80   11.50
 -10  -7  -3   28.00   14.50
  10   7   3   33.10    9.60
   4  -8  -3    4.70    9.40
   4  -8  -3   -4.00    8.30
  -4   8   3    1.70    7.30
   3  -8  -3   -8.20    7.50
   3  -8  -3    2.90    8.50
  -3   8   3    1.50    8.40
   2  -8  -3   19.10    6.70
   2  -8  -3   19.60    8.60
  -2   8   3   24.10    6.70
  -2   8   3   24.40    7.00
   1  -8  -3  129.89   15.60
   1  -8  -3  127.69   12.50
  -1   8   3  110.19   15.40
  -1   8   3  131.39   13.90
   0  -8  -3   71.99   10.90
   0  -8  -3   63.79   12.40
   0   8   3   87.49   10.60
  -1  -8  -3  270.47   22.30
  -1  -8  -3  272.67   19.40
   1   8   3  285.17   20.80
   1   8   3  279.67   19.70
  -2  -8  -3  233.68   16.80
  -2  -8  -3  239.28   16.10
  -2  -8  -3  237.48   20.00
   2   8   3  253.77   17.60
   2   8   3  231.38   17.60
  -3  -8  -3  344.07   22.20
  -3  -8  -3  348.07   25.70
  -3  -8  -3  343.77   22.00
   3   8   3  348.67   22.80
   3   8   3  326.17   22.20
  -4  -8  -3  832.22   50.49
  -4  -8  -3  879.01   52.09
  -4  -8  -3  914.11   56.39
   4   8   3  873.61   51.99
   4   8   3  857.61   47.70
  -5  -8  -3  711.73   45.40
  -5  -8  -3  755.12   49.40
   5   8   3  752.52   41.80
  -6  -8  -3  135.49   17.40
  -6  -8  -3  112.69   13.60
   6   8   3  120.39   11.30
  -7  -8  -3  480.75   33.50
  -7  -8  -3  496.15   38.20
   7   8   3  488.95   30.50
  -8  -8  -3  423.16   36.80
  -8  -8  -3  422.16   31.10
   8   8   3  423.86   27.00
  -9  -8  -3  291.97   25.20
  -9  -8  -3  253.47   30.00
   9   8   3  290.47   22.70
   3  -9  -3  233.38   22.70
   3  -9  -3  195.58   22.20
  -3   9   3  238.58   22.40
   2  -9  -3  172.68   19.60
   2  -9  -3  164.38   16.50
  -2   9   3  176.48   18.70
   1  -9  -3  216.18   21.20
   1  -9  -3  194.88   17.30
  -1   9   3  182.98   18.30
  -1   9   3  229.78   19.40
   0  -9  -3  348.87   27.30
   0  -9  -3  362.16   24.50
   0   9   3  332.27   23.60
   0   9   3  275.67   24.70
  -1  -9  -3  295.47   24.40
  -1  -9  -3  293.37   21.10
   1   9   3  286.77   21.40
   1   9   3  281.17   24.20
  -2  -9  -3  226.58   20.20
  -2  -9  -3  222.58   16.40
   2   9   3  192.28   18.90
   2   9   3  199.98   16.50
  -3  -9  -3  605.34   40.30
  -3  -9  -3  581.14   35.10
   3   9   3  548.65   33.90
   3   9   3  579.24   36.60
  -4  -9  -3  278.87   23.60
  -4  -9  -3  270.57   19.70
   4   9   3  277.57   20.50
  -5  -9  -3   54.09   10.00
  -5  -9  -3   45.40    7.90
   5   9   3   49.00    8.40
  -6  -9  -3   92.19   13.20
  -6  -9  -3  101.09   17.00
  -7  -9  -3   57.09   10.50
  -7  -9  -3   61.59   13.80
   7   9   3   47.80    9.20
  -8  -9  -3   23.40   13.00
  -8  -9  -3   12.00    8.70
   8   9   3   15.00    6.50
  -9  -9  -3   13.50   13.80
  -9  -9  -3    6.70    7.10
   9   9   3    3.60    8.40
   2 -10  -3   41.20   11.60
   2 -10  -3   33.70   12.30
  -2  10   3   38.80   11.70
   1 -10  -3   36.60   11.70
   1 -10  -3   26.00    8.10
  -1  10   3   30.10   10.10
   0 -10  -3  130.79   18.70
   0 -10  -3  127.39   16.10
   0  10   3  128.39   15.60
  -1 -10  -3  239.58   19.70
  -1 -10  -3  240.18   23.40
   1  10   3  199.78   21.10
   1  10   3  249.48   20.00
  -2 -10  -3  192.28   19.00
  -2 -10  -3  202.78   16.80
   2  10   3  188.58   20.60
   2  10   3  208.28   17.30
  -3 -10  -3  334.37   26.90
  -3 -10  -3  303.17   21.30
   3  10   3  306.17   22.70
   3  10   3  281.97   22.60
  -4 -10  -3  327.37   27.60
   4  10   3  310.77   24.80
  -5 -10  -3  319.87   26.50
  -5 -10  -3  330.07   24.00
   5  10   3  327.67   25.10
  -6 -10  -3  273.17   25.70
  -6 -10  -3  239.48   19.40
   6  10   3  230.98   18.40
  -7 -10  -3  348.37   28.90
  -7 -10  -3  379.56   34.00
   7  10   3  438.46   26.50
  -8 -10  -3  226.88   25.20
  -8 -10  -3  229.18   22.90
   8  10   3  250.97   21.30
   1 -11  -3   51.29   12.30
   1 -11  -3   55.49   12.20
  -1  11   3   64.69   13.30
   0 -11  -3  121.19   20.50
   0 -11  -3  127.99   17.40
   0  11   3  126.09   17.20
  -1 -11  -3   68.39   11.50
  -1 -11  -3   73.09   14.50
   1  11   3   72.19   12.10
  -2 -11  -3  102.99   13.60
  -2 -11  -3  122.19   19.30
   2  11   3   83.99   14.80
   2  11   3  104.39   14.20
  -3 -11  -3  120.79   19.20
   3  11   3   82.49   13.70
  -4 -11  -3   24.90   12.00
   4  11   3   13.80    8.20
  -5 -11  -3   31.80   12.60
   5  11   3   25.80   11.20
  -6 -11  -3   43.60    9.50
  -6 -11  -3   75.89   15.30
   6  11   3   46.90   12.40
  -7 -11  -3   16.00    8.90
  -7 -11  -3   27.40   11.00
   7  11   3   20.60    9.30
  -2 -12  -3   61.79   13.50
  -3 -12  -3  173.18   20.40
  -4 -12  -3  209.88   25.10
   4  12   3  186.18   20.50
  -5 -12  -3  214.98   25.20
   5  12   3  169.88   17.50
   4  12  -4  105.09   18.70
  -4 -12   4   68.29   17.40
   3  12  -4   60.69   14.80
  -3 -12   4   48.20   15.60
   2  12  -4  118.19   20.70
  -2 -12   4   88.49   19.00
   7  11  -4    8.70    8.30
   7  11  -4   35.50   11.10
  -7 -11   4    9.40    8.30
  -6 -11   4    5.50    9.30
  -6 -11   4    2.60   12.70
   5  11  -4   44.50   11.60
  -5 -11   4   26.90   11.10
  -5 -11   4   19.90    9.50
   4  11  -4   70.39   12.80
  -4 -11   4   49.70   10.70
  -4 -11   4   55.69   14.60
   3  11  -4   54.89   12.70
  -3 -11   4   40.30   11.70
   2  11  -4   37.30   10.60
  -2 -11   4   36.20   11.30
   1  11  -4  131.09   17.20
  -1 -11   4  134.19   22.30
   0  11  -4   38.50   11.50
   0 -11   4   37.20   14.50
  -1  11  -4   47.20   15.10
   1 -11   4   38.70   10.80
   1 -11   4   43.90   14.80
   8  10  -4  100.49   16.00
  -8 -10   4   80.69   15.20
   7  10  -4  106.69   14.90
  -7 -10   4  122.19   19.00
   6  10  -4  194.78   19.50
   6  10  -4  149.39   15.80
  -6 -10   4  135.59   16.50
  -6 -10   4  156.18   23.20
   5  10  -4  137.59   14.80
   5  10  -4  201.98   19.10
  -5 -10   4  142.89   15.90
  -5 -10   4  169.88   22.00
   4  10  -4  122.19   14.80
  -4 -10   4  136.39   19.80
  -4 -10   4  126.09   15.70
   3  10  -4  108.19   14.20
  -3 -10   4  122.89   15.90
  -3 -10   4  104.99   14.00
   2  10  -4  199.48   20.40
  -2 -10   4  146.79   16.70
  -2 -10   4  176.38   21.40
   1  10  -4   56.89   12.80
  -1 -10   4   56.79   11.80
   0  10  -4   31.50   11.60
   0 -10   4   22.10    8.10
   0 -10   4   34.20   10.40
  -1  10  -4   54.79   14.20
   1 -10   4   43.60   10.10
   1 -10   4   64.09   15.00
  -2  10  -4   21.00   12.90
   2 -10   4   18.40    9.50
   2 -10   4   13.10    9.70
   8   9  -4   22.80    7.20
   8   9  -4   41.10   11.60
  -8  -9   4   21.10   10.70
   7   9  -4   41.30   10.90
   7   9  -4   24.90    8.00
  -7  -9   4   29.90   10.40
   6   9  -4   22.70    5.90
   6   9  -4   43.70   10.30
  -6  -9   4   30.80    9.60
  -6  -9   4   34.90   12.90
   5   9  -4  144.29   16.70
   5   9  -4  122.69   12.60
  -5  -9   4  124.19   18.50
  -5  -9   4  111.99   15.50
   4   9  -4  131.79   12.90
   4   9  -4  172.48   17.50
  -4  -9   4  148.39   16.00
  -4  -9   4  152.88   18.80
   3   9  -4  166.98   15.70
  -3  -9   4  165.28   18.80
  -3  -9   4  137.29   13.70
   2   9  -4  252.87   21.60
  -2  -9   4  226.68   22.30
  -2  -9   4  220.88   18.40
   1   9  -4  310.17   24.60
  -1  -9   4  278.47   20.30
  -1  -9   4  266.97   20.40
  -1  -9   4  283.47   25.40
   0   9  -4   80.19   12.50
   0  -9   4   83.29   11.70
   0  -9   4   84.19   13.30
  -1   9  -4  218.48   21.50
   1  -9   4  183.38   18.00
   1  -9   4  199.78   20.00
  -2   9  -4  264.27   24.90
   2  -9   4  244.18   25.60
   2  -9   4  224.88   21.30
  -3   9  -4  118.69   20.00
   3  -9   4   85.79   13.60
   3  -9   4  117.59   20.30
   9   8  -4  119.59   16.60
  -9  -8   4  109.29   19.50
   8   8  -4  100.49   14.50
   8   8  -4   99.99   17.40
  -8  -8   4   90.89   11.70
  -8  -8   4  102.79   14.70
   7   8  -4  132.59   14.90
   7   8  -4  141.39   18.30
  -7  -8   4  143.49   18.00
   6   8  -4  249.28   18.90
   6   8  -4  271.77   23.40
  -6  -8   4  265.67   24.70
  -6  -8   4  246.48   22.10
   5   8  -4  146.59   13.00
   5   8  -4  168.98   17.30
  -5  -8   4  141.09   17.60
  -5  -8   4  145.39   14.40
   4   8  -4   88.29   10.50
   4   8  -4   97.69   12.00
  -4  -8   4   99.99   14.20
  -4  -8   4  105.69   12.80
   3   8  -4  246.68   16.90
   3   8  -4  290.87   22.30
  -3  -8   4  261.57   21.40
  -3  -8   4  265.47   20.30
   2   8  -4  239.28   16.80
   2   8  -4  291.47   21.80
  -2  -8   4  264.77   22.30
  -2  -8   4  238.88   17.00
  -2  -8   4  261.77   19.30
   1   8  -4   76.19   12.40
  -1  -8   4   68.89    9.30
  -1  -8   4   64.89   10.60
  -1  -8   4   60.89    8.50
   0   8  -4   32.80    7.70
   0  -8   4   31.40    7.90
   0  -8   4   31.10    6.10
   0  -8   4   31.00    6.50
  -1   8  -4   33.00    8.10
   1  -8   4   23.50    7.30
   1  -8   4   24.80    7.90
  -2   8  -4   12.20    7.10
   2  -8   4    7.40    5.70
   2  -8   4   16.50    9.30
  -3   8  -4    5.90    9.80
   3  -8   4   14.30   10.20
   3  -8   4    6.70    8.40
  -4   8  -4   13.80   11.30
   4  -8   4    8.20    9.50
   4  -8   4   10.60   11.00
  -5   8  -4   11.50   12.50
   9   7  -4   17.00    7.00
   9   7  -4    8.50   10.80
  -9  -7   4   26.70    8.90
  -9  -7   4   20.60    8.40
   8   7  -4   27.80    8.40
   8   7  -4   15.70   10.50
  -8  -7   4   31.60    8.30
  -8  -7   4   40.90   10.70
   7   7  -4   51.69   12.30
   7   7  -4   64.39    9.30
  -7  -7   4   67.39   11.30
  -7  -7   4   55.59    8.70
   6   7  -4  104.49   10.30
   6   7  -4  101.39   15.70
  -6  -7   4   95.69   14.80
  -6  -7   4  103.59   10.00
  -6  -7   4  133.59   14.80
   5   7  -4  244.68   17.50
   5   7  -4  266.47   22.50
  -5  -7   4  247.98   17.30
  -5  -7   4  275.67   21.10
  -5  -7   4  281.97   22.70
   4   7  -4  323.87   25.10
   4   7  -4  313.77   20.10
  -4  -7   4  326.77   23.60
  -4  -7   4  357.86   25.60
   3   7  -4  381.16   26.90
   3   7  -4  372.46   22.30
  -3  -7   4  414.26   28.00
  -3  -7   4  362.06   25.20
   2   7  -4  619.04   39.30
   2   7  -4  598.84   32.60
  -2  -7   4  551.24   34.30
  -2  -7   4  604.44   37.20
  -2  -7   4  607.64   39.90
   1   7  -4  382.16   23.60
   1   7  -4  423.16   28.20
   1   7  -4  415.76   25.20
  -1  -7   4  388.56   25.00
  -1  -7   4  411.96   26.40
  -1  -7   4  431.96   29.50
   0   7  -4  360.16   23.60
   0   7  -4  376.36   26.60
   0  -7   4  359.76   26.50
   0  -7   4  345.27   23.40
   0  -7   4  382.26   23.90
  -1   7  -4  634.64   40.70
  -1   7  -4  594.64   37.50
   1  -7   4  625.54   42.10
   1  -7   4  621.04   37.50
   1  -7   4  594.04   37.50
  -2   7  -4  353.26   25.00
  -2   7  -4  367.46   27.40
   2  -7   4  356.56   28.40
   2  -7   4  360.66   25.20
  -3   7  -4  194.58   19.20
  -3   7  -4  168.08   15.40
   3  -7   4  187.68   19.90
   3  -7   4  157.48   15.50
  -4   7  -4  147.89   18.80
   4  -7   4  130.19   14.80
   4  -7   4  139.59   16.60
  -5   7  -4  144.09   20.30
   5  -7   4  130.79   18.40
   5  -7   4  123.99   17.00
   9   6  -4   94.39   14.90
   9   6  -4   51.09   13.30
  -9  -6   4   65.69   10.90
  -9  -6   4   75.59   13.20
   8   6  -4   67.39   10.40
  -8  -6   4   68.89   10.20
  -8  -6   4   93.29   15.30
   7   6  -4   81.79   11.90
  -7  -6   4   97.09   11.80
  -7  -6   4   92.39   14.00
   6   6  -4  318.27   20.90
  -6  -6   4  323.57   24.00
  -6  -6   4  311.57   20.60
   5   6  -4  126.39   11.10
   5   6  -4  109.49   15.10
  -5  -6   4  144.69   12.40
  -5  -6   4  134.89   14.60
  -5  -6   4  128.69   10.90
   4   6  -4  208.08   18.80
   4   6  -4  216.08   14.40
  -4  -6   4  204.98   14.20
  -4  -6   4  228.08   17.30
  -4  -6   4  243.98   18.20
   3   6  -4  538.15   34.80
   3   6  -4  501.45   28.40
  -3  -6   4  549.74   34.50
  -3  -6   4  504.95   28.30
  -3  -6   4  486.65   28.90
  -3  -6   4  518.35   32.40
   2   6  -4   38.60    5.30
   2   6  -4   52.89    8.90
   2   6  -4   37.70    5.20
  -2  -6   4   45.70    8.20
  -2  -6   4   48.80    7.20
  -2  -6   4   42.80    4.90
   1   6  -4   54.19    7.50
   1   6  -4   45.60    6.00
   1   6  -4   45.20    5.00
  -1  -6   4   56.99    7.20
  -1  -6   4   60.79    8.90
  -1  -6   4   47.90    6.30
   0   6  -4  248.18   16.50
   0   6  -4  244.48   18.70
   0   6  -4  232.08   14.60
   0  -6   4  254.97   16.90
   0  -6   4  243.08   19.20
   0  -6   4  232.98   16.30
  -1   6  -4   18.90    6.20
  -1   6  -4   20.70    5.40
   1  -6   4   23.20    4.50
   1  -6   4   16.90    5.30
   1  -6   4   18.50    5.60
  -2   6  -4    3.80    5.70
  -2   6  -4    0.30    5.00
   2  -6   4    4.20    3.60
   2  -6   4   -0.70    4.30
   2  -6   4   -1.20    5.00
  -3   6  -4    7.00    6.20
  -3   6  -4    7.30    7.00
   3  -6   4    9.60    7.40
   3  -6   4    2.80    6.20
  -4   6  -4    1.80    5.80
  -4   6  -4    0.20    6.70
   4  -6   4   -3.70    7.00
   4  -6   4    2.40    5.90
  -5   6  -4   23.80    8.40
  -5   6  -4   15.50    7.10
   5  -6   4   14.20    7.20
   5  -6   4   17.90    8.10
  -6   6  -4    7.30   11.10
   6  -6   4   14.30   10.50
   6  -6   4    4.00    9.80
   9   5  -4   59.49   12.80
   9   5  -4   38.40    9.50
  -9  -5   4   44.50   10.80
  -9  -5   4   40.30    9.60
   8   5  -4   12.70    9.30
   8   5  -4    8.00    6.90
  -8  -5   4   12.70    8.00
  -8  -5   4   10.20    6.70
   7   5  -4   93.19   15.20
   7   5  -4   83.99   11.50
  -7  -5   4   98.29   13.50
  -7  -5   4   94.09   11.50
   6   5  -4  345.37   30.10
   6   5  -4  435.26   25.50
  -6  -5   4  445.56   28.20
  -6  -5   4  421.96   25.20
   5   5  -4  602.64   33.10
  -5  -5   4  630.64   37.40
  -5  -5   4  530.75   38.60
  -5  -5   4  579.24   32.90
   4   5  -4  275.77   23.40
   4   5  -4  300.07   18.40
  -4  -5   4  301.27   18.40
  -4  -5   4  364.86   22.80
  -4  -5   4  329.27   21.80
   3   5  -4  788.42   43.00
   3   5  -4  790.12   50.99
  -3  -5   4  797.72   43.00
  -3  -5   4  813.22   48.50
  -3  -5   4  791.62   44.80
  -3  -5   4  882.31   50.79
   2   5  -4 1408.96   84.19
   2   5  -4 1357.26   93.09
   2   5  -4 1368.96   72.49
  -2  -5   4 1451.25   85.29
  -2  -5   4 1486.85   81.59
  -2  -5   4 1346.27   72.49
   1   5  -4 1237.78   63.29
   1   5  -4 1219.88   73.59
   1   5  -4 1207.58   68.09
  -1  -5   4 1198.58   74.89
  -1  -5   4 1272.87   71.39
   0   5  -4 1346.47   70.99
   0   5  -4 1319.37   75.89
   0   5  -4 1375.66   81.29
   0  -5   4 1332.07   83.09
   0  -5   4 1439.26   78.99
  -1   5  -4  721.03   45.10
  -1   5  -4  688.13   41.80
   1  -5   4  694.33   46.30
   1  -5   4  790.12   43.80
  -2   5  -4  617.84   38.40
  -2   5  -4  614.74   40.80
   2  -5   4  635.04   38.60
   2  -5   4  652.63   42.80
   2  -5   4  733.43   40.50
  -3   5  -4  541.45   35.40
  -3   5  -4  558.04   37.10
   3  -5   4  608.74   37.00
   3  -5   4  600.04   39.30
   3  -5   4  563.44   35.70
  -4   5  -4  626.94   39.70
  -4   5  -4  567.14   36.60
   4  -5   4  601.94   41.00
   4  -5   4  560.94   36.70
  -5   5  -4  245.88   21.90
  -5   5  -4  239.48   20.60
   5  -5   4  238.78   21.00
   5  -5   4  254.57   23.00
  -6   5  -4  157.28   19.20
  -6   5  -4  140.59   17.60
   6  -5   4  132.79   16.30
   6  -5   4  136.49   18.10
  -7   5  -4   97.69   17.00
   7  -5   4   97.79   15.60
   7  -5   4  118.69   18.90
   9   4  -4   40.70    9.60
   9   4  -4   53.79   11.90
  -9  -4   4   46.30   10.30
  -9  -4   4   36.80    9.40
   8   4  -4  100.39   15.50
   8   4  -4   94.09   13.10
  -8  -4   4   97.19   12.90
  -8  -4   4  101.49   14.50
   7   4  -4  221.48   20.20
   7   4  -4  204.38   15.30
  -7  -4   4  208.58   18.20
  -7  -4   4  192.28   15.00
   6   4  -4  282.07   18.80
   6   4  -4  313.97   24.20
  -6  -4   4  289.07   18.80
  -6  -4   4  310.27   21.90
   5   4  -4   88.69   12.30
  -5  -4   4   96.09    9.10
  -5  -4   4  102.99   10.70
  -4  -4   4  239.18   15.10
  -4  -4   4  234.18   17.30
  -4  -4   4  256.07   17.50
   3   4  -4   97.29   10.90
   3   4  -4  120.29    7.00
   3   4  -4  116.09    8.00
  -3  -4   4  131.09   10.40
  -3  -4   4  114.99    8.00
  -3  -4   4  134.49    9.90
   2   4  -4  307.17   17.50
   2   4  -4  302.37   17.00
   2   4  -4  288.97   21.30
  -2  -4   4  335.37   20.60
  -2  -4   4  313.87   19.70
  -2  -4   4  286.57   16.90
   1   4  -4    1.50    1.90
   1   4  -4    3.90    3.90
  -1  -4   4    2.70    2.80
  -1  -4   4    3.90    2.10
   0   4  -4  169.28   11.50
   0   4  -4  177.98   13.20
   0   4  -4  178.78    9.70
   0  -4   4  166.18   13.10
   0  -4   4  189.28   12.90
  -1   4  -4   42.90    6.40
  -1   4  -4   33.70    5.30
   1  -4   4   35.60    5.70
   1  -4   4   37.00    6.10
  -2   4  -4   14.90    4.30
  -2   4  -4   17.50    4.80
   2  -4   4   10.30    4.50
   2  -4   4   14.60    4.40
  -3   4  -4    2.10    4.20
  -3   4  -4    4.30    4.70
   3  -4   4    2.30    5.00
   3  -4   4   -6.00    3.70
  -4   4  -4  123.99   12.40
  -4   4  -4  128.99   13.20
   4  -4   4  124.99   12.80
   4  -4   4  145.39   13.30
   4  -4   4   98.59   11.80
  -5   4  -4  126.49   14.00
  -5   4  -4  128.29   14.60
   5  -4   4  131.99   15.70
   5  -4   4  118.49   14.30
   5  -4   4  128.99   13.70
  -6   4  -4   22.10    8.60
  -6   4  -4   26.90    9.20
   6  -4   4   25.30    9.20
   6  -4   4   15.00    8.70
  -7   4  -4   33.80   10.30
  -7   4  -4   34.20   11.50
   7  -4   4   34.40   11.00
   7  -4   4   34.90   10.80
   9   3  -4   53.69    8.90
   9   3  -4   61.39   12.00
  -9  -3   4   46.50    8.70
  -9  -3   4   63.39   10.90
   8   3  -4   62.59    9.60
   8   3  -4   72.89   13.60
  -8  -3   4   86.49   13.00
  -8  -3   4   72.19   10.10
   7   3  -4  368.06   27.70
  -7  -3   4  346.87   23.80
  -7  -3   4  390.56   26.30
   6   3  -4  647.04   42.00
  -6  -3   4  641.54   40.20
  -6  -3   4  653.23   36.50
   5   3  -4  552.14   35.00
   5   3  -4  543.45   29.30
  -5  -3   4  479.55   29.30
  -5  -3   4  515.55   32.90
   4   3  -4  761.42   41.50
   4   3  -4  799.42   47.40
  -4  -3   4  726.43   44.80
  -4  -3   4  716.63   40.30
   3   3  -4 2012.30  135.09
   3   3  -4 2379.66  128.69
  -3  -3   4 2310.07  123.59
  -3  -3   4 2329.97  136.99
  -3  -3   4 2529.65  141.49
   2   3  -4 1525.95   82.19
   2   3  -4 1235.88   86.59
  -2  -3   4 1595.24   91.59
  -2  -3   4 1512.15   84.09
  -2  -3   4 1453.05   77.19
   1   3  -4 2058.39  116.69
   1   3  -4 1984.10  123.29
  -1  -3   4 2093.89  127.19
  -1  -3   4 2123.29  122.49
  -1  -3   4 2032.70  107.69
   0   3  -4 2355.66  138.79
   0   3  -4 2234.78  119.29
   0   3  -4 2169.38  130.19
   0  -3   4 2500.45  137.59
   0  -3   4 2308.17  143.39
  -1   3  -4 1741.23  103.49
  -1   3  -4 1707.23   99.79
   1  -3   4 1814.72  107.09
   1  -3   4 1688.53  100.29
  -2   3  -4  844.32   48.70
  -2   3  -4  794.42   45.90
   2  -3   4  737.93   48.40
   2  -3   4  841.22   50.59
  -3   3  -4 1512.55   87.79
  -3   3  -4 1445.26   83.19
   3  -3   4 1388.46   76.99
   3  -3   4 1517.45   90.89
   3  -3   4 1562.54   86.59
  -4   3  -4  924.91   48.00
  -4   3  -4  891.01   58.69
  -4   3  -4  937.51   56.39
  -4   3  -4  904.31   53.79
   4  -3   4  927.31   58.79
   4  -3   4  964.40   55.39
  -5   3  -4  201.68   16.40
  -5   3  -4  192.28   16.90
   5  -3   4  195.38   15.80
   5  -3   4  200.38   18.50
   5  -3   4  208.58   15.60
  -6   3  -4  319.87   24.00
  -6   3  -4  337.17   25.40
   6  -3   4  316.57   23.30
   6  -3   4  337.67   24.70
   6  -3   4  341.67   25.80
  -7   3  -4  133.59   17.20
  -7   3  -4  122.99   16.00
   7  -3   4  133.09   16.80
   7  -3   4  138.49   17.80
  -8   3  -4   44.20    9.40
  -8   3  -4   44.50   12.30
   8  -3   4   44.40    9.80
   8  -3   4   50.39   11.90
   9   2  -4   24.50    8.60
   9   2  -4   36.50   10.50
  -9  -2   4   29.90    8.80
  -9  -2   4   30.30    9.20
   8   2  -4   37.20    9.60
  -8  -2   4   34.50    8.00
  -8  -2   4   34.40    8.10
   7   2  -4  191.28   17.50
  -7  -2   4  181.18   15.60
  -7  -2   4  192.98   16.30
   6   2  -4   33.90    7.60
  -6  -2   4   38.70    6.50
  -6  -2   4   36.00    6.30
   5   2  -4   37.80    7.20
   5   2  -4   41.50    4.40
  -5  -2   4   45.50    7.10
  -5  -2   4   41.60    6.70
   4   2  -4  259.37   14.40
   4   2  -4  259.07   17.70
  -4  -2   4  255.87   16.40
  -4  -2   4  240.48   14.90
  -4  -2   4  208.68   15.30
   3   2  -4    3.00    3.00
   3   2  -4    5.40    1.90
  -3  -2   4    6.00    2.00
  -3  -2   4    7.40    2.40
   2   2  -4   23.20    4.40
   2   2  -4   17.20    2.80
  -2  -2   4   26.20    4.10
  -2  -2   4   27.40    2.90
  -2  -2   4   23.10    2.80
   1   2  -4  322.17   18.00
   1   2  -4  254.67   20.20
  -1  -2   4  329.77   19.40
  -1  -2   4  305.07   16.60
  -1  -2   4  316.87   19.30
   0   2  -4  143.99    9.10
   0   2  -4  146.29   10.90
   0  -2   4  143.59   10.60
   0  -2   4  144.89   10.30
   0  -2   4  134.59    7.80
  -1   2  -4    4.30    0.60
  -1   2  -4   10.90    3.20
  -1   2  -4    5.40    2.10
  -1   2  -4    6.60    2.50
   1  -2   4    6.80    3.00
   1  -2   4    5.70    0.60
   1  -2   4   -1.50    2.90
  -2   2  -4  112.59    8.50
  -2   2  -4  124.99   10.70
  -2   2  -4  121.19    9.20
   2  -2   4  124.69   10.70
   2  -2   4  122.19   10.10
   2  -2   4  116.29    6.40
  -3   2  -4  166.78   12.40
  -3   2  -4  161.78   11.70
  -3   2  -4  173.58   13.80
   3  -2   4  170.98   12.40
   3  -2   4  163.08    9.20
   3  -2   4  170.58   13.60
  -4   2  -4  550.24   37.10
  -4   2  -4  576.64   29.00
  -4   2  -4  553.44   34.60
  -4   2  -4  535.05   32.90
   4  -2   4  521.05   28.80
   4  -2   4  571.44   37.00
   4  -2   4  548.65   33.60
  -5   2  -4  163.58   10.20
  -5   2  -4  163.68   13.90
  -5   2  -4  159.78   15.00
  -5   2  -4  158.38   12.80
   5  -2   4  173.38   15.00
   5  -2   4  155.48   10.00
   5  -2   4  164.78   13.10
  -6   2  -4   15.80    6.10
  -6   2  -4   17.40    7.70
  -6   2  -4   13.00    6.30
   6  -2   4   11.60    4.80
   6  -2   4   11.50    5.90
  -7   2  -4  131.99   15.40
  -7   2  -4  129.59   17.10
  -7   2  -4  126.19   14.80
   7  -2   4  140.49   16.90
   7  -2   4  135.89   15.60
   7  -2   4  121.19   12.60
  -8   2  -4   98.29   16.20
  -8   2  -4  109.99   15.00
   8  -2   4  125.09   17.00
   8  -2   4  107.19   15.70
   9   1  -4   68.49   12.00
  -9  -1   4   76.69   11.70
   8   1  -4  100.89   14.10
  -8  -1   4   98.39   12.50
  -8  -1   4  105.09   13.80
   7   1  -4  376.46   26.40
  -7  -1   4  386.26   25.00
  -7  -1   4  381.56   26.00
   6   1  -4  583.94   36.10
   6   1  -4  553.54   32.50
  -6  -1   4  550.84   34.80
  -6  -1   4  542.05   32.00
   5   1  -4  439.16   26.20
   5   1  -4  457.65   29.20
  -5  -1   4  467.85   27.40
  -5  -1   4  433.46   28.10
  -5  -1   4  442.26   26.20
   4   1  -4  651.53   38.50
   4   1  -4  667.43   41.00
   4   1  -4  626.74   35.10
  -4  -1   4  601.04   34.00
  -4  -1   4  615.34   37.00
  -4  -1   4  576.54   37.10
   3   1  -4 1836.42  102.99
   3   1  -4 1880.31  109.69
  -3  -1   4 1745.03  145.49
  -3  -1   4 1764.62   97.19
   2   1  -4 3274.17  198.88
   2   1  -4 3430.16  184.98
  -2  -1   4 3180.78  193.08
  -2  -1   4 3295.07  172.58
   1   1  -4 3458.55  197.28
   1   1  -4 3104.39  289.37
  -1  -1   4 3712.13  207.18
  -1  -1   4 3514.95  184.58
  -1  -1   4 3559.54  209.98
   0   1  -4 3786.12  247.38
   0   1  -4 4273.77  233.58
   0   1  -4 4018.20  321.57
   0  -1   4 4128.99  331.37
   0  -1   4 3903.21  337.97
   0  -1   4 4555.34  216.28
  -1   1  -4 2444.76  139.79
  -1   1  -4 2472.55  147.89
  -1   1  -4 2390.96  152.88
   1  -1   4 2568.74  129.19
   1  -1   4 2435.26  153.08
   1  -1   4 2423.16  146.99
  -2   1  -4 1425.46   86.69
  -2   1  -4 1434.16   86.19
  -2   1  -4 1332.97   79.09
   2  -1   4 1491.45   83.99
   2  -1   4 1408.16   86.59
   2  -1   4 1498.65   75.09
  -3   1  -4 2462.15  138.79
  -3   1  -4 2472.65  145.69
  -3   1  -4 2262.37  144.49
   3  -1   4 2512.15  144.19
   3  -1   4 2446.46  126.49
   3  -1   4 2326.17  147.39
  -4   1  -4  993.80   66.59
  -4   1  -4 1110.59   63.29
  -4   1  -4 1062.79   60.39
   4  -1   4 1112.89   61.89
   4  -1   4 1057.39   66.49
   4  -1   4 1051.39   54.89
  -5   1  -4  303.77   16.70
  -5   1  -4  288.57   23.10
  -5   1  -4  282.17   19.10
  -5   1  -4  300.77   20.20
   5  -1   4  274.37   22.50
   5  -1   4  295.77   16.50
   5  -1   4  293.77   19.20
  -6   1  -4  872.61   45.50
  -6   1  -4  812.82   56.49
  -6   1  -4  858.41   53.09
  -6   1  -4  822.72   50.39
   6  -1   4  885.01   51.19
   6  -1   4  859.61   45.40
   6  -1   4  892.81   56.19
  -7   1  -4  160.28   16.00
  -7   1  -4  175.98   15.50
  -7   1  -4  152.78   18.70
   7  -1   4  169.08   18.30
   7  -1   4  181.28   16.30
   7  -1   4  180.98   14.40
  -8   1  -4   45.80   10.10
  -8   1  -4   53.99    9.60
  -8   1  -4   59.49   12.50
   8  -1   4   57.59   10.00
   8  -1   4   50.59   11.30
   8  -1   4   49.99    9.90
   8  -1   4   44.40    9.00
  -9   1  -4   54.59   12.50
  -9   1  -4   42.90    9.90
   9  -1   4   52.39   12.00
   9  -1   4   48.10   10.60
   9   0  -4    9.60    9.10
  -9   0   4   19.70    6.80
   8   0  -4   14.50    8.10
  -8   0   4   18.30    7.40
   7   0  -4   40.30    6.50
   7   0  -4   40.40    7.50
  -7   0   4   39.30    7.00
  -7   0   4   41.60    7.70
   6   0  -4   77.39    8.70
   6   0  -4   76.59    8.90
  -6   0   4   73.69    8.70
  -6   0   4   78.29    8.60
   5   0  -4   56.59    8.00
   5   0  -4   51.89    6.10
  -5   0   4   53.39    6.50
  -5   0   4   49.60    7.10
   4   0  -4   55.69    5.60
   4   0  -4   58.79    7.00
   4   0  -4   56.99    4.60
  -4   0   4   53.99    5.80
  -4   0   4   54.29    5.80
   3   0  -4  196.58   13.10
   3   0  -4  197.88   12.10
   3   0  -4  187.38   11.60
  -3   0   4  192.78   12.00
  -3   0   4  180.68   12.50
   2   0  -4   61.69    4.90
   2   0  -4   60.29    5.40
  -2   0   4   60.19    5.30
  -2   0   4   59.39    5.10
   1   0  -4   89.59    5.80
   1   0  -4   82.39    6.70
   1   0  -4   82.89    5.90
  -1   0   4   75.09    6.10
  -1   0   4   93.19    6.80
   0   0  -4  120.59    8.60
   0   0  -4  121.29    8.30
   0   0  -4  132.69    8.70
   0   0   4  107.89    9.20
   0   0   4  107.69    7.60
  -1   0  -4  648.24   39.10
  -1   0  -4  607.04   35.90
  -1   0  -4  636.94   37.30
   1   0   4  621.64   32.90
   1   0   4  631.04   37.10
  -2   0  -4  193.58   11.90
  -2   0  -4  172.08   13.70
  -2   0  -4  186.98   11.60
   2   0   4  179.78   10.20
   2   0   4  188.78   12.20
  -3   0  -4 1347.27   73.69
  -3   0  -4 1260.97   95.09
  -3   0  -4 1255.77   81.09
   3   0   4 1387.86   79.79
   3   0   4 1353.66   70.89
  -4   0  -4  319.17   20.40
  -4   0  -4  308.37   23.50
  -4   0  -4  327.07   19.90
   4   0   4  331.67   20.30
   4   0   4  326.67   17.80
  -5   0  -4  341.47   25.50
  -5   0  -4  336.77   22.20
  -5   0  -4  332.17   21.50
   5   0   4  343.27   19.00
   5   0   4  347.27   21.80
  -6   0  -4  414.56   32.00
  -6   0  -4  428.26   26.90
  -6   0  -4  424.66   28.10
   6   0   4  454.25   24.10
   6   0   4  380.96   30.20
   6   0   4  451.05   27.30
  -7   0  -4  529.05   33.50
  -7   0  -4  501.05   35.00
  -7   0  -4  510.45   39.20
   7   0   4  579.34   34.20
   7   0   4  562.54   30.30
   7   0   4  546.85   38.60
   7   0   4  522.25   34.40
  -8   0  -4  152.18   14.70
  -8   0  -4  143.99   19.10
   8   0   4  140.99   18.10
   8   0   4  155.18   15.40
   8   0   4  145.99   14.50
  -9   0  -4  110.39   13.80
  -9   0  -4  106.89   17.30
   9   0   4   93.09   13.50
   9   0   4   96.89   14.20
   9   0   4  100.79   16.40
   8  -1  -4   89.09   12.10
  -8   1   4   82.29   13.70
   7  -1  -4  320.37   23.60
   7  -1  -4  301.57   21.20
  -7   1   4  293.37   21.60
   6  -1  -4  425.76   28.10
   6  -1  -4  393.56   25.80
  -6   1   4  421.86   28.50
  -6   1   4  408.96   25.70
   5  -1  -4  354.76   22.30
   5  -1  -4  375.56   24.00
  -5   1   4  355.66   21.90
  -5   1   4  363.26   24.10
  -5   1   4  359.36   22.80
   4  -1  -4 1045.20   58.89
   4  -1  -4 1034.80   62.19
   4  -1  -4 1087.79   62.59
  -4   1   4 1042.00   55.99
  -4   1   4 1068.39   62.49
  -4   1   4 1003.80   60.29
   3  -1  -4 2291.57  141.89
   3  -1  -4 2330.47  133.29
   3  -1  -4 2347.67  140.59
  -3   1   4 2336.27  137.39
  -3   1   4 2353.56  124.99
  -3   1   4 2413.26  141.39
   2  -1  -4 2678.93  160.48
   2  -1  -4 2661.43  160.08
   2  -1  -4 2792.82  149.69
  -2   1   4 2639.04  160.58
  -2   1   4 2660.13  144.29
  -2   1   4 2633.24  155.78
   1  -1  -4 5901.01  396.96
   1  -1  -4 6675.53  347.17
   1  -1  -4 5410.26  428.46
  -1   1   4 5909.31  328.37
  -1   1   4 6971.50  360.26
  -1   1   4 6394.96  365.26
   0  -1  -4 3455.15  188.88
   0  -1  -4 3346.17  193.08
   0  -1  -4 3332.27  180.98
   0   1   4 2840.52  186.78
   0   1   4 2982.00  170.48
  -1  -1  -4 1125.69   72.89
  -1  -1  -4 1292.37   71.19
  -1  -1  -4 1177.78   74.39
   1   1   4 1278.07   85.29
   1   1   4 1353.66   74.19
  -2  -1  -4 2894.11  161.38
  -2  -1  -4 2664.33  161.38
   2   1   4 2803.82  146.89
   2   1   4 2799.12  163.78
  -3  -1  -4 2451.35  134.99
  -3  -1  -4 2202.48  142.29
  -3  -1  -4 2181.78  136.19
   3   1   4 2430.06  121.79
  -4  -1  -4 1003.40   58.29
  -4  -1  -4  927.91   58.49
  -4  -1  -4  999.20   56.49
  -4  -1  -4 1057.29   63.89
   4   1   4 1039.60   52.29
  -5  -1  -4  337.77   21.20
  -5  -1  -4  334.57   20.50
  -5  -1  -4  305.47   25.60
  -5  -1  -4  310.17   21.00
   5   1   4  359.46   18.90
  -6  -1  -4  568.64   35.10
  -6  -1  -4  529.15   36.50
  -6  -1  -4  636.94   42.30
  -6  -1  -4  624.44   36.60
   6   1   4  573.44   36.40
   6   1   4  626.84   32.50
  -7  -1  -4  141.09   13.40
  -7  -1  -4  164.58   13.30
  -7  -1  -4  177.68   17.80
   7   1   4  153.48   13.10
   7   1   4  182.38   12.20
  -8  -1  -4   59.09    9.40
  -8  -1  -4   47.70   12.40
   8   1   4   36.80   11.60
   8   1   4   61.99    8.60
  -9  -1  -4   26.10   11.30
   9   1   4   17.20   10.40
   9   1   4   14.00    7.60
   8  -2  -4   40.30   10.80
   8  -2  -4   36.40    8.90
  -8   2   4   31.90    8.60
   7  -2  -4   -2.50    7.30
   7  -2  -4   -2.60    5.90
  -7   2   4    9.20    8.30
  -7   2   4    5.60    5.90
   6  -2  -4    4.10    5.50
   6  -2  -4    5.20    4.90
  -6   2   4    3.90    3.80
  -6   2   4    2.90    4.90
   5  -2  -4   -1.80    4.80
   5  -2  -4    0.60    4.30
  -5   2   4    4.20    5.10
  -5   2   4    2.00    4.10
   4  -2  -4   10.00    3.90
   4  -2  -4    9.20    3.60
   4  -2  -4    5.50    3.20
  -4   2   4    8.70    2.30
  -4   2   4   10.00    3.70
  -4   2   4    7.00    3.10
   3  -2  -4  201.28   13.50
   3  -2  -4  208.38   13.40
   3  -2  -4  205.28   14.30
  -3   2   4  210.28   14.30
  -3   2   4  197.98   13.50
  -3   2   4  186.38   12.40
   2  -2  -4  405.86   25.10
   2  -2  -4  419.26   24.20
   2  -2  -4  404.36   25.10
  -2   2   4  407.06   25.10
  -2   2   4  387.76   23.60
  -2   2   4  419.96   23.50
   1  -2  -4  491.55   28.60
   1  -2  -4  487.15   30.30
   1  -2  -4  488.75   29.80
  -1   2   4  482.85   27.90
  -1   2   4  549.65   29.10
  -1   2   4  489.45   29.80
   0  -2  -4  949.01   50.39
   0  -2  -4  787.02   65.19
   0  -2  -4  931.11   73.89
   0   2   4  890.51   76.79
   0   2   4  930.91   52.09
   0   2   4  900.51   48.10
  -1  -2  -4   64.99    4.30
  -1  -2  -4   61.49    5.40
  -1  -2  -4   58.59    5.20
   1   2   4   61.49    4.80
   1   2   4   64.09    4.30
   1   2   4   58.69    5.10
  -2  -2  -4  529.25   35.20
  -2  -2  -4  651.33   38.30
   2   2   4  646.24   32.20
  -3  -2  -4 2434.16  170.68
  -3  -2  -4 3051.59  163.28
  -3  -2  -4 2770.42  234.28
   3   2   4 2942.61  148.99
   3   2   4 2590.74  168.48
   3   2   4 2896.21  166.68
  -4  -2  -4 1177.58   62.69
  -4  -2  -4 1129.89   64.69
   4   2   4 1174.48   58.19
   4   2   4  988.40   65.89
  -5  -2  -4  873.91   51.09
  -5  -2  -4  867.81   49.20
  -5  -2  -4  906.01   56.59
   5   2   4  766.22   50.89
   5   2   4  919.41   45.90
  -6  -2  -4 1041.60   58.09
  -6  -2  -4  953.20   55.49
  -6  -2  -4 1003.60   64.49
   6   2   4  837.12   57.89
   6   2   4 1054.59   52.09
  -7  -2  -4  495.45   30.50
  -7  -2  -4  426.16   28.20
   7   2   4  467.35   26.70
  -8  -2  -4  171.38   14.40
  -8  -2  -4  165.38   21.90
  -8  -2  -4  197.38   16.80
   8   2   4  202.48   14.50
  -9  -2  -4  264.57   27.70
   9   2   4  280.07   19.50
 -10  -2  -4   66.89   15.10
  10   2   4   56.69   13.50
   8  -3  -4   67.99   12.90
   8  -3  -4   60.49   11.50
  -8   3   4  108.19   17.80
  -8   3   4   57.89   10.20
   7  -3  -4  140.89   15.00
   7  -3  -4  139.59   15.90
  -7   3   4  146.59   15.70
  -7   3   4  157.78   15.40
   6  -3  -4  282.37   21.30
   6  -3  -4  296.57   21.50
  -6   3   4  287.77   21.70
  -6   3   4  264.17   19.10
   5  -3  -4  481.85   31.00
   5  -3  -4  481.75   30.00
  -5   3   4  478.75   31.10
  -5   3   4  442.36   27.80
   4  -3  -4  947.11   57.29
   4  -3  -4  960.20   56.89
   4  -3  -4  920.71   53.99
  -4   3   4  903.71   51.09
  -4   3   4  951.50   56.89
   3  -3  -4  533.65   31.70
   3  -3  -4  552.24   33.30
  -3   3   4  557.44   33.30
  -3   3   4  549.45   30.60
  -3   3   4  471.65   30.20
   2  -3  -4 1041.60   56.59
   2  -3  -4 1013.30   60.29
  -2   3   4  997.90   53.89
  -2   3   4  927.11   57.39
  -2   3   4 1023.90   59.19
   1  -3  -4 2598.24  162.68
   1  -3  -4 2662.33  149.59
  -1   3   4 2736.93  151.78
  -1   3   4 2630.54  159.68
  -1   3   4 2667.73  143.59
   0  -3  -4 2225.88  127.49
   0  -3  -4 2179.28  138.49
   0   3   4 2297.57  130.59
   0   3   4 2325.47  121.39
   0   3   4 2172.58  133.49
  -1  -3  -4 1456.85   81.29
  -1  -3  -4 1406.06   88.49
   1   3   4 1376.76   84.79
   1   3   4 1445.46   84.09
   1   3   4 1416.36   73.79
  -2  -3  -4 1114.49   70.89
  -2  -3  -4 1362.46   76.99
  -2  -3  -4 1359.06   77.09
   2   3   4 1239.58   67.49
   2   3   4 1309.67   74.59
  -3  -3  -4  415.36   26.60
  -3  -3  -4  397.76   24.40
  -3  -3  -4  392.86   24.70
   3   3   4  396.06   21.90
  -4  -3  -4  820.92   44.90
  -4  -3  -4  739.03   46.00
  -4  -3  -4  696.83   49.60
   4   3   4  848.22   46.50
   4   3   4  798.52   41.60
  -5  -3  -4 1073.99   61.49
  -5  -3  -4 1047.80   63.89
   5   3   4 1168.08   63.89
   5   3   4 1088.49   57.69
  -6  -3  -4  207.18   20.80
  -6  -3  -4  220.18   16.30
  -6  -3  -4  212.38   14.70
   6   3   4  225.98   14.50
  -7  -3  -4   69.59    8.10
  -7  -3  -4   86.79   10.50
  -7  -3  -4   68.29   13.00
   7   3   4   73.39    8.80
  -8  -3  -4   63.89   14.80
  -8  -3  -4   78.89   11.80
   8   3   4   75.09    9.90
  -9  -3  -4   -3.30   10.90
  -9  -3  -4   10.20    5.70
   9   3   4    9.10    6.00
 -10  -3  -4    8.70    8.00
 -10  -3  -4    1.20   11.50
  10   3   4    3.20    6.40
   7  -4  -4    8.80    8.60
   7  -4  -4    6.90    9.50
  -7   4   4   14.80   10.50
  -7   4   4   12.00    6.50
   6  -4  -4   -5.00    7.70
   6  -4  -4   -0.50    5.20
  -6   4   4    5.10    5.50
  -6   4   4    0.80    8.10
   5  -4  -4    0.60    6.10
   5  -4  -4   -1.30    6.60
  -5   4   4    6.80    6.90
  -5   4   4    6.90    4.90
   4  -4  -4  161.98   14.30
   4  -4  -4  177.08   14.80
  -4   4   4  192.48   15.50
  -4   4   4  170.28   13.90
   3  -4  -4  113.39   10.80
   3  -4  -4  111.69   10.50
  -3   4   4  120.29   11.10
  -3   4   4  107.19   10.70
   2  -4  -4   62.59    6.90
   2  -4  -4   62.69    7.60
  -2   4   4   61.59    7.40
  -2   4   4   60.29    8.20
   1  -4  -4  980.10   55.19
   1  -4  -4  959.30   59.19
  -1   4   4  961.60   57.59
  -1   4   4 1000.20   53.59
   0  -4  -4  309.57   18.50
   0  -4  -4  286.57   19.90
   0   4   4  290.67   18.80
   0   4   4  307.07   19.10
   0   4   4  313.27   17.90
  -1  -4  -4  191.78   12.10
  -1  -4  -4  182.98   13.20
   1   4   4  180.48   11.70
   1   4   4  176.58   11.80
  -2  -4  -4 2016.50  121.39
  -2  -4  -4 1912.91  111.09
  -2  -4  -4 1989.20  116.29
   2   4   4 1978.30  104.39
   2   4   4 1948.01  115.49
  -3  -4  -4 2130.89  126.39
  -3  -4  -4 2032.30  143.19
  -3  -4  -4 2176.98  120.39
   3   4   4 2023.20  110.69
   3   4   4 1969.20  125.49
  -4  -4  -4 1681.53   88.19
  -4  -4  -4 1547.25   95.69
  -4  -4  -4 1532.15   90.09
   4   4   4 1570.54   81.49
   4   4   4 1506.05  104.39
  -5  -4  -4  909.21   55.09
  -5  -4  -4  855.91   59.79
  -5  -4  -4  952.50   53.19
   5   4   4  938.91   49.99
   5   4   4 1012.50   55.09
  -6  -4  -4 1032.00   60.79
  -6  -4  -4  968.30   57.49
   6   4   4 1065.19   54.79
  -7  -4  -4  432.26   35.10
  -7  -4  -4  510.45   31.30
  -7  -4  -4  432.56   27.90
   7   4   4  497.95   27.80
  -8  -4  -4  530.75   35.10
   8   4   4  522.05   31.20
  -9  -4  -4  407.46   29.00
  -9  -4  -4  347.97   35.60
   9   4   4  407.86   25.70
 -10  -4  -4  143.79   17.80
 -10  -4  -4  110.09   20.80
  10   4   4  144.99   13.50
   6  -5  -4  140.69   17.50
   6  -5  -4  125.19   17.90
  -6   5   4  170.18   18.80
  -6   5   4  137.19   15.50
   5  -5  -4  251.87   19.80
  -5   5   4  281.57   22.30
  -5   5   4  247.68   18.90
   4  -5  -4  197.78   16.00
   4  -5  -4  205.18   17.00
  -4   5   4  222.18   17.80
  -4   5   4  189.18   14.90
   3  -5  -4  190.88   15.70
   3  -5  -4  187.48   15.40
  -3   5   4  196.78   15.30
  -3   5   4  194.48   15.00
   2  -5  -4 1376.26   83.19
   2  -5  -4 1354.66   77.49
  -2   5   4 1329.07   73.89
  -2   5   4 1415.56   81.19
   1  -5  -4  968.50   54.79
   1  -5  -4  947.81   58.79
  -1   5   4  934.21   53.29
  -1   5   4  969.80   56.99
   0  -5  -4  951.80   53.59
   0  -5  -4  933.31   57.79
   0   5   4  976.20   51.99
   0   5   4  927.11   55.59
   0   5   4  922.71   54.19
  -1  -5  -4  566.64   32.90
  -1  -5  -4  596.94   32.80
  -1  -5  -4  563.44   35.70
   1   5   4  544.75   33.70
   1   5   4  545.75   31.70
  -2  -5  -4  793.42   45.10
  -2  -5  -4  812.82   49.20
  -2  -5  -4  811.82   46.10
   2   5   4  782.72   42.70
   2   5   4  762.42   46.30
  -3  -5  -4  393.66   25.10
  -3  -5  -4  342.17   22.80
  -3  -5  -4  384.86   23.10
   3   5   4  364.56   22.10
   3   5   4  374.86   21.40
  -4  -5  -4  583.44   38.30
  -4  -5  -4  670.13   38.90
  -4  -5  -4  688.23   41.80
   4   5   4  656.83   35.20
   4   5   4  629.64   37.50
  -5  -5  -4  395.56   28.40
  -5  -5  -4  404.66   24.40
  -5  -5  -4  371.66   25.10
   5   5   4  379.76   22.50
  -6  -5  -4   51.59    5.90
  -6  -5  -4   47.20    7.10
  -6  -5  -4   36.70    8.50
   6   5   4   40.00    6.20
  -7  -5  -4   32.40    6.20
  -7  -5  -4   20.20    8.30
   7   5   4   28.60    5.30
  -8  -5  -4   35.10    8.20
  -8  -5  -4   36.70   10.60
   8   5   4   29.60    7.00
  -9  -5  -4   -0.20   11.90
  -9  -5  -4    8.50    7.60
   9   5   4    0.00    4.60
 -10  -5  -4    2.30    8.00
 -10  -5  -4  -24.00   12.50
  10   5   4   -8.70    6.60
   6  -6  -4  -10.70    9.60
   6  -6  -4    1.50    9.10
  -6   6   4    8.40   10.10
   5  -6  -4   18.80    9.20
  -5   6   4   19.60    6.40
  -5   6   4   19.50    9.70
   4  -6  -4   49.40    9.10
   4  -6  -4   59.39   10.40
  -4   6   4   76.69   13.10
  -4   6   4   69.09   10.60
   3  -6  -4   48.50    8.40
   3  -6  -4   57.09    9.00
  -3   6   4   59.49    8.90
  -3   6   4   52.59    8.30
   2  -6  -4   90.29    9.60
   2  -6  -4   87.69   10.80
  -2   6   4   94.49   10.90
  -2   6   4   81.69   11.50
   1  -6  -4  922.81   52.69
   1  -6  -4  890.91   56.59
  -1   6   4  915.81   54.69
  -1   6   4  888.41   51.69
   0  -6  -4  576.04   34.00
   0  -6  -4  567.34   37.10
   0   6   4  573.44   33.90
   0   6   4  569.74   35.20
  -1  -6  -4  666.03   39.00
  -1  -6  -4  701.53   38.80
  -1  -6  -4  668.23   42.60
   1   6   4  653.43   40.20
   1   6   4  654.23   38.00
  -2  -6  -4 1476.65   79.19
  -2  -6  -4 1375.86   84.19
  -2  -6  -4 1371.66   77.19
   2   6   4 1326.97   80.39
   2   6   4 1361.76   72.89
  -3  -6  -4 1170.28   64.69
  -3  -6  -4 1115.09   62.89
  -3  -6  -4 1144.59   68.69
   3   6   4 1095.29   59.09
   3   6   4 1048.20   64.69
  -4  -6  -4 1316.07   78.59
  -4  -6  -4 1271.37   72.39
  -4  -6  -4 1276.97   73.89
   4   6   4 1192.38   73.99
   4   6   4 1303.87   67.29
  -5  -6  -4 1483.95   93.59
  -5  -6  -4 1484.35   88.09
  -5  -6  -4 1629.04   86.19
   5   6   4 1471.85   79.69
  -6  -6  -4  703.63   47.10
  -6  -6  -4  648.44   42.10
   6   6   4  707.33   38.60
  -7  -6  -4  389.36   26.90
  -7  -6  -4  375.86   32.10
   7   6   4  418.66   24.50
  -8  -6  -4  664.83   43.50
   8   6   4  680.73   38.70
  -9  -6  -4  383.16   29.60
   9   6   4  399.66   26.60
 -10  -6  -4  138.39   24.60
 -10  -6  -4  187.58   18.30
  10   6   4  192.58   18.40
   5  -7  -4  138.09   18.90
  -5   7   4  137.69   18.60
   4  -7  -4   98.79   15.40
   4  -7  -4   67.09   12.00
  -4   7   4   90.29   12.50
  -4   7   4   93.99   12.90
   3  -7  -4  201.18   18.90
   3  -7  -4  211.48   19.00
  -3   7   4  203.28   17.50
  -3   7   4  220.28   19.20
   2  -7  -4  546.95   37.10
   2  -7  -4  549.74   35.00
  -2   7   4  514.05   34.10
  -2   7   4  566.94   36.00
   1  -7  -4  111.89   12.00
   1  -7  -4  126.59   12.90
  -1   7   4  123.69   14.80
  -1   7   4  131.59   12.40
   0  -7  -4  194.18   14.40
   0  -7  -4  187.38   16.60
   0   7   4  199.18   14.80
   0   7   4  179.78   15.60
  -1  -7  -4  505.95   30.20
  -1  -7  -4  505.25   33.60
   1   7   4  487.25   31.00
   1   7   4  490.05   29.80
  -2  -7  -4  162.58   11.20
  -2  -7  -4  146.79   14.20
  -2  -7  -4  153.78   12.00
   2   7   4  148.39   11.60
   2   7   4  152.68   12.70
  -3  -7  -4   86.49   11.00
  -3  -7  -4   93.09    8.80
  -3  -7  -4   86.89    8.20
   3   7   4   81.79    8.90
   3   7   4   84.79    7.60
  -4  -7  -4  295.47   22.00
  -4  -7  -4  300.57   19.40
  -4  -7  -4  236.38   18.90
   4   7   4  289.97   17.80
  -5  -7  -4    2.80    3.40
  -5  -7  -4   -8.80    4.80
  -5  -7  -4    2.10    6.50
   5   7   4   12.20    5.00
  -6  -7  -4   19.70    6.30
  -6  -7  -4   22.60    8.90
   6   7   4   20.80    5.00
  -7  -7  -4    4.40    6.10
  -7  -7  -4    0.40    6.60
   7   7   4    0.50    4.10
  -8  -7  -4    6.40   10.40
  -8  -7  -4    8.40    7.30
   8   7   4   -1.50    4.60
  -9  -7  -4   29.70   12.40
  -9  -7  -4   20.60    9.00
   9   7   4   18.50    8.00
   4  -8  -4   21.50   10.60
  -4   8   4   31.10   11.10
   3  -8  -4   88.49   15.60
   3  -8  -4   81.69   15.00
  -3   8   4  101.69   15.50
   2  -8  -4  233.08   18.70
   2  -8  -4  208.18   20.60
  -2   8   4  246.08   20.10
  -2   8   4  236.58   20.90
   1  -8  -4  421.56   31.60
   1  -8  -4  441.86   29.50
  -1   8   4  445.86   29.90
  -1   8   4  422.76   30.30
   0  -8  -4  193.58   16.70
   0  -8  -4  197.78   15.30
   0   8   4  160.58   18.10
   0   8   4  198.08   15.80
  -1  -8  -4  410.76   29.20
  -1  -8  -4  377.46   25.80
   1   8   4  402.76   26.20
   1   8   4  400.06   27.60
  -2  -8  -4  885.11   50.29
  -2  -8  -4  893.41   55.69
   2   8   4  826.92   48.70
   2   8   4  849.81   51.89
  -3  -8  -4  765.52   43.50
  -3  -8  -4  703.43   42.30
  -3  -8  -4  723.03   47.00
   3   8   4  711.53   41.20
   3   8   4  707.73   43.50
  -4  -8  -4  798.12   50.39
  -4  -8  -4  820.62   47.00
  -4  -8  -4  718.13   45.30
   4   8   4  756.52   43.20
  -5  -8  -4  566.94   36.60
  -5  -8  -4  567.44   40.20
   5   8   4  605.54   34.30
  -6  -8  -4  456.45   33.80
  -6  -8  -4  426.56   29.70
   6   8   4  436.76   26.80
  -7  -8  -4  571.04   37.60
  -7  -8  -4  584.54   43.20
   7   8   4  584.04   34.90
  -8  -8  -4  528.35   35.80
  -8  -8  -4  513.55   42.30
   8   8   4  549.85   32.60
  -9  -8  -4  206.58   26.80
  -9  -8  -4  207.68   19.40
   9   8   4  216.78   17.70
   3  -9  -4   64.99   13.10
   3  -9  -4   54.89   12.40
  -3   9   4   70.09   13.20
   2  -9  -4   85.19   16.00
   2  -9  -4   88.39   13.10
  -2   9   4  103.19   15.30
   1  -9  -4   63.29   12.00
   1  -9  -4   56.89    9.50
  -1   9   4   60.79   10.10
  -1   9   4   45.50   10.80
   0  -9  -4   72.89   12.70
   0  -9  -4   73.29   12.30
   0   9   4   80.29   11.70
   0   9   4   42.50   10.60
  -1  -9  -4  110.09   15.40
  -1  -9  -4  103.29   11.10
   1   9   4  105.99   15.30
   1   9   4  104.39   11.80
  -2  -9  -4   46.80   10.00
  -2  -9  -4   34.40    7.10
   2   9   4   32.00    9.00
   2   9   4   31.80    6.50
  -3  -9  -4   43.30    7.50
  -3  -9  -4   51.79   10.40
   3   9   4   40.70    8.30
  -4  -9  -4   92.49   10.60
  -4  -9  -4  108.69   15.00
   4   9   4   89.39   14.60
  -5  -9  -4   17.00    5.90
  -5  -9  -4   25.70    9.60
   5   9   4   15.30    6.50
  -6  -9  -4    0.40    6.60
  -6  -9  -4   -0.40    5.90
   6   9   4    7.70    7.20
  -7  -9  -4    1.70    6.90
  -7  -9  -4    5.70   10.40
  -8  -9  -4   15.50    8.60
  -8  -9  -4   16.70   12.70
   8   9   4    6.00    5.90
  -9  -9  -4    8.50    9.10
   9   9   4    5.90    6.20
   2 -10  -4   89.79   14.20
   2 -10  -4   79.99   15.10
  -2  10   4   99.99   16.90
   1 -10  -4  101.39   17.90
   1 -10  -4   92.39   13.50
  -1  10   4   98.99   15.60
   0 -10  -4  207.48   21.60
   0 -10  -4  200.18   19.40
   0  10   4  157.88   20.70
   0  10   4  209.78   18.80
  -1 -10  -4  332.27   27.00
  -1 -10  -4  356.86   25.30
   1  10   4  340.07   25.10
   1  10   4  333.87   26.90
  -2 -10  -4  304.97   22.10
  -2 -10  -4  312.07   26.50
   2  10   4  293.07   22.00
   2  10   4  282.97   23.60
  -3 -10  -4  377.76   25.10
  -3 -10  -4  376.86   28.80
   3  10   4  362.16   26.20
  -4 -10  -4  440.66   32.50
   4  10   4  432.26   29.60
  -5 -10  -4  404.76   31.80
  -5 -10  -4  363.36   26.70
   5  10   4  391.36   27.40
  -6 -10  -4  364.16   31.10
  -6 -10  -4  337.17   26.20
   6  10   4  373.56   26.70
  -7 -10  -4  386.86   28.90
  -7 -10  -4  390.46   33.10
   7  10   4  470.85   29.80
  -8 -10  -4  285.97   26.30
  -8 -10  -4  318.67   32.40
   8  10   4  357.46   23.80
   0 -11  -4   34.80   10.40
   0 -11  -4   29.80   10.50
   0  11   4   32.60   10.00
  -1 -11  -4   24.40   11.90
  -1 -11  -4   25.30    9.10
   1  11   4   20.20    8.70
  -2 -11  -4   11.60    7.40
  -2 -11  -4   16.60   11.00
   2  11   4   12.80   11.20
  -3 -11  -4    4.00   10.30
   3  11   4   -3.30    8.70
  -4 -11  -4    1.20    7.90
   4  11   4   -0.20    7.40
  -5 -11  -4   14.20   11.40
   5  11   4    8.20   10.40
  -6 -11  -4   17.40   12.10
   6  11   4    0.70    6.20
  -7 -11  -4    0.70    7.80
  -7 -11  -4    7.90    9.40
   7  11   4    4.40   10.20
  -2 -12  -4  122.59   21.80
  -3 -12  -4  213.58   25.50
   3  12   4  193.08   21.40
  -4 -12  -4  250.57   27.00
   4  12   4  225.48   25.40
  -5 -12  -4  220.58   26.30
   5  12   4  200.68   21.10
   3  12  -5   29.80   14.00
   6  11  -5   59.69   13.40
  -6 -11   5   36.60   12.00
   5  11  -5   49.40   13.30
  -5 -11   5   51.89   15.70
  -5 -11   5   37.20   11.10
   4  11  -5  128.49   16.80
  -4 -11   5  114.29   16.90
  -4 -11   5  120.59   22.20
   3  11  -5  154.18   20.70
  -3 -11   5  130.59   22.00
  -3 -11   5  113.59   17.80
   2  11  -5   91.09   16.60
  -2 -11   5   72.49   16.60
   1  11  -5  142.09   21.90
  -1 -11   5  133.39   22.80
   0  11  -5  103.59   17.40
   0 -11   5  113.39   18.70
   7  10  -5   59.09   13.20
   7  10  -5   38.00    9.30
  -7 -10   5   38.30   10.20
   6  10  -5   33.70    8.10
   6  10  -5   48.00   12.20
  -6 -10   5   28.20   10.80
   5  10  -5   62.79   12.90
  -5 -10   5   49.70   11.20
  -5 -10   5   43.50   13.70
   4  10  -5   50.59   12.40
  -4 -10   5   40.40    9.80
  -4 -10   5   36.00   12.20
   3  10  -5   12.60    8.10
  -3 -10   5   17.60   11.00
  -3 -10   5   14.30    7.30
   2  10  -5   30.60   11.50
  -2 -10   5   24.40    8.30
  -2 -10   5   26.20    9.60
   1  10  -5    6.90   10.80
  -1 -10   5   17.20   11.30
   0  10  -5   -4.40    7.50
   0 -10   5   -0.50    6.70
   0 -10   5    3.30    8.40
  -1  10  -5   -0.20   11.50
   1 -10   5    7.20   12.10
   1 -10   5    3.70    7.70
  -2  10  -5   -3.60   12.80
   2 -10   5    3.80    9.60
   2 -10   5    0.10    8.70
   8   9  -5   53.89   13.80
   8   9  -5   51.49   10.40
  -8  -9   5   51.19   11.30
   7   9  -5  107.99   18.50
   7   9  -5  107.89   14.80
  -7  -9   5  114.79   18.40
   6   9  -5  125.99   14.20
   6   9  -5  124.99   15.80
  -6  -9   5  139.49   17.80
   5   9  -5  118.89   12.70
   5   9  -5  121.99   17.50
  -5  -9   5  128.89   20.70
  -5  -9   5  124.69   16.40
   4   9  -5  246.68   18.20
   4   9  -5  256.97   23.60
  -4  -9   5  245.78   21.50
  -4  -9   5  260.87   24.30
   3   9  -5  348.37   27.70
  -3  -9   5  311.47   24.80
  -3  -9   5  353.66   28.70
   2   9  -5  260.87   23.50
  -2  -9   5  247.48   23.90
  -2  -9   5  245.58   20.10
   1   9  -5  314.17   24.80
  -1  -9   5  270.47   20.70
  -1  -9   5  309.47   22.30
  -1  -9   5  322.87   27.20
   0   9  -5  179.78   19.80
   0  -9   5  146.69   17.40
   0  -9   5  140.39   14.60
  -1   9  -5  166.08   20.50
   1  -9   5  155.08   16.50
   1  -9   5  156.58   18.40
  -2   9  -5  272.87   26.70
   2  -9   5  279.77   27.70
   2  -9   5  249.48   22.40
  -3   9  -5   94.89   17.80
   3  -9   5   94.39   16.70
   3  -9   5   99.59   16.60
   8   8  -5   36.60   13.20
   8   8  -5   53.39    8.80
  -8  -8   5   45.70    8.30
  -8  -8   5   51.89   12.50
   7   8  -5   36.40    8.30
   7   8  -5   28.50   11.40
  -7  -8   5   30.60    7.80
  -7  -8   5   35.50    9.00
   6   8  -5   40.10   11.70
   6   8  -5   38.50    6.70
  -6  -8   5   36.30    6.30
  -6  -8   5   47.20   10.10
   5   8  -5   35.80   10.70
   5   8  -5   30.50    6.40
  -5  -8   5   36.70   10.80
  -5  -8   5   35.70    8.80
   4   8  -5   14.90    4.80
   4   8  -5   16.80    7.10
  -4  -8   5   19.40    7.40
  -4  -8   5   20.10    8.20
   3   8  -5    7.90    3.90
   3   8  -5    6.00    7.80
  -3  -8   5   14.30    7.60
  -3  -8   5    8.40    6.20
   2   8  -5   79.99   13.40
  -2  -8   5   73.49   13.40
  -2  -8   5   67.29   10.70
  -2  -8   5   59.39    7.30
   1   8  -5   -0.80    7.30
  -1  -8   5   -1.10    4.10
  -1  -8   5    2.10    5.50
  -1  -8   5    1.30    4.70
   0   8  -5   15.90    8.50
   0   8  -5    9.70    5.70
   0  -8   5   11.40    6.50
   0  -8   5   11.30    5.70
   0  -8   5   13.40    5.70
  -1   8  -5    3.10    8.10
  -1   8  -5    0.30    6.10
   1  -8   5    0.30    6.10
   1  -8   5   -1.00    5.90
  -2   8  -5   18.40   10.20
  -2   8  -5   12.60    5.90
   2  -8   5    6.90    5.80
   2  -8   5   15.80   10.10
  -3   8  -5   27.10   12.10
   3  -8   5   21.50    9.10
   3  -8   5   28.70   11.90
  -4   8  -5   -1.90   10.90
   4  -8   5    2.50    9.20
   4  -8   5    9.50   11.20
   9   7  -5   12.50   12.50
   9   7  -5   30.10    9.60
  -9  -7   5   27.80    9.30
  -9  -7   5   40.90   11.90
   8   7  -5  124.39   15.60
  -8  -7   5  119.19   15.50
  -8  -7   5  117.09   14.90
   7   7  -5   71.99   15.10
   7   7  -5  107.29   11.50
  -7  -7   5  103.59   11.10
  -7  -7   5  121.59   14.00
   6   7  -5  260.27   18.30
   6   7  -5  200.98   23.10
  -6  -7   5  252.07   20.00
  -6  -7   5  245.18   17.80
   5   7  -5  414.46   25.00
   5   7  -5  370.56   31.20
  -5  -7   5  431.36   29.20
  -5  -7   5  427.56   31.00
  -5  -7   5  396.86   24.70
   4   7  -5  530.65   30.90
   4   7  -5  498.25   37.10
  -4  -7   5  510.65   30.60
  -4  -7   5  578.84   36.00
  -4  -7   5  607.34   38.30
   3   7  -5  382.06   28.70
   3   7  -5  373.86   22.40
  -3  -7   5  372.86   25.90
  -3  -7   5  415.26   28.60
   2   7  -5  564.24   32.00
   2   7  -5  596.54   34.30
   2   7  -5  579.64   39.00
  -2  -7   5  622.34   37.40
  -2  -7   5  542.75   33.90
  -2  -7   5  628.44   40.00
   1   7  -5  706.03   41.30
   1   7  -5  732.23   46.40
  -1  -7   5  689.03   46.40
  -1  -7   5  749.73   43.80
  -1  -7   5  666.53   41.10
   0   7  -5  499.75   33.60
   0   7  -5  464.15   29.60
   0  -7   5  475.45   30.60
   0  -7   5  457.25   29.50
   0  -7   5  491.15   34.20
  -1   7  -5  485.05   31.70
  -1   7  -5  510.15   35.10
   1  -7   5  506.35   36.20
   1  -7   5  477.85   31.60
   1  -7   5  522.85   32.10
  -2   7  -5  458.45   32.60
  -2   7  -5  427.26   28.80
   2  -7   5  454.15   33.80
   2  -7   5  433.46   29.50
  -3   7  -5  107.29   12.60
  -3   7  -5  136.49   17.50
   3  -7   5  109.19   12.90
   3  -7   5  135.59   18.10
  -4   7  -5  103.79   15.90
  -4   7  -5  109.59   18.10
   4  -7   5   96.69   15.90
   4  -7   5  115.09   15.80
  -5   7  -5  108.49   19.80
   5  -7   5   99.69   17.60
   5  -7   5  121.09   17.10
   9   6  -5   19.40    8.90
   9   6  -5   25.90   12.10
  -9  -6   5   18.20    8.90
  -9  -6   5   25.80   10.90
   8   6  -5   58.99   13.70
   8   6  -5   54.89    9.80
  -8  -6   5   55.29    9.60
  -8  -6   5   61.99   11.90
   7   6  -5   -1.60    9.00
   7   6  -5    7.40    6.10
  -7  -6   5    9.10    6.00
  -7  -6   5    8.00    4.70
   6   6  -5   15.30    4.70
   6   6  -5  -12.70    8.10
  -6  -6   5   15.10    5.80
  -6  -6   5   15.30    4.60
   5   6  -5   13.90    9.00
   5   6  -5   29.50    5.60
  -5  -6   5   27.70    7.00
  -5  -6   5   23.90    5.20
  -5  -6   5   24.90    7.00
   4   6  -5   -9.80    6.30
   4   6  -5   -0.80    3.30
  -4  -6   5    2.30    4.90
  -4  -6   5   -3.20    3.10
  -4  -6   5   -0.40    4.70
   3   6  -5   12.70    6.90
   3   6  -5   16.30    3.90
  -3  -6   5   26.00    6.20
  -3  -6   5   17.80    3.90
  -3  -6   5   18.10    4.70
   2   6  -5   11.90    6.30
   2   6  -5    7.10    3.00
  -2  -6   5   10.70    3.70
  -2  -6   5   13.40    5.30
   1   6  -5  164.88   12.00
   1   6  -5  162.28   10.60
   1   6  -5  174.78   15.80
  -1  -6   5  175.18   15.20
  -1  -6   5  180.98   13.90
   0   6  -5   88.19   11.50
   0   6  -5   74.69    8.40
   0  -6   5   77.99   11.00
   0  -6   5   86.39    9.40
  -1   6  -5    9.40    4.00
  -1   6  -5   11.10    6.10
   1  -6   5    8.50    6.20
   1  -6   5   11.30    4.40
   1  -6   5    6.60    3.80
  -2   6  -5  136.49   12.40
  -2   6  -5  153.48   15.50
   2  -6   5  125.99   12.30
   2  -6   5  169.18   13.80
   2  -6   5  151.78   16.40
  -3   6  -5  107.59   14.60
  -3   6  -5   98.39   12.90
   3  -6   5  108.19   15.70
   3  -6   5   90.79   13.00
   3  -6   5  111.99   12.20
  -4   6  -5   28.00    8.70
  -4   6  -5   34.60   10.40
   4  -6   5   38.50    9.30
   4  -6   5   26.70    8.80
  -5   6  -5  114.19   16.50
  -5   6  -5  122.59   18.40
   5  -6   5  127.39   16.30
   5  -6   5  112.19   16.90
  -6   6  -5   58.09   14.60
  -6   6  -5   49.99   10.70
   6  -6   5   55.69   11.00
   6  -6   5   59.29   14.10
   9   5  -5   33.70    9.60
   9   5  -5   49.60   13.00
  -9  -5   5   39.00   11.00
  -9  -5   5   29.30    9.30
   8   5  -5  197.58   18.10
   8   5  -5  214.88   22.20
  -8  -5   5  191.28   17.80
  -8  -5   5  198.88   18.40
   7   5  -5  300.17   21.20
   7   5  -5  308.97   24.90
  -7  -5   5  309.47   24.00
  -7  -5   5  274.17   20.70
   6   5  -5  445.96   32.00
   6   5  -5  401.46   25.60
  -6  -5   5  400.26   25.40
  -6  -5   5  409.16   28.20
   5   5  -5  586.84   43.70
   5   5  -5  673.63   36.60
  -5  -5   5  640.44   36.40
  -5  -5   5  698.43   41.50
   4   5  -5  435.16   25.10
   4   5  -5  358.46   30.20
  -4  -5   5  499.95   30.10
  -4  -5   5  455.85   29.00
  -4  -5   5  436.26   25.10
   3   5  -5  765.32   42.10
   3   5  -5  675.63   48.30
   3   5  -5  741.93   40.70
  -3  -5   5  750.22   40.60
  -3  -5   5  855.71   48.30
  -3  -5   5  776.62   46.20
   2   5  -5 1807.92   98.19
   2   5  -5 1817.52  112.69
   2   5  -5 1933.31  103.79
  -2  -5   5 1790.42   99.89
  -2  -5   5 2019.60  109.39
  -2  -5   5 1991.00  114.19
   1   5  -5  580.24   37.40
   1   5  -5  549.85   30.10
   1   5  -5  540.55   32.70
  -1  -5   5  610.14   35.50
  -1  -5   5  578.54   37.00
   0   5  -5  618.04   38.80
   0   5  -5  588.84   31.30
   0   5  -5  568.44   34.90
   0  -5   5  580.54   39.00
   0  -5   5  647.44   37.30
  -1   5  -5  958.30   58.39
  -1   5  -5  872.21   53.89
   1  -5   5 1028.90   57.19
   1  -5   5  930.21   59.79
  -2   5  -5  602.04   39.20
  -2   5  -5  587.64   36.50
   2  -5   5  596.84   40.70
   2  -5   5  633.04   38.60
  -3   5  -5  296.17   21.60
  -3   5  -5  311.87   23.50
   3  -5   5  299.87   23.20
   3  -5   5  321.47   24.80
  -4   5  -5  316.27   24.30
  -4   5  -5  291.37   21.50
   4  -5   5  294.97   21.70
   4  -5   5  282.57   23.00
   4  -5   5  328.67   25.90
  -5   5  -5  126.99   16.80
  -5   5  -5  119.19   13.40
   5  -5   5  134.89   17.80
   5  -5   5  118.39   13.70
  -6   5  -5   15.50    7.50
  -6   5  -5   33.60   11.40
   6  -5   5   21.00    8.10
   6  -5   5   39.70   11.80
  -7   5  -5   59.29   14.90
  -7   5  -5   50.79   10.70
   7  -5   5   53.89   11.10
   7  -5   5   62.19   12.70
   9   4  -5   14.90   10.10
   9   4  -5    3.40    7.90
  -9  -4   5    8.60    8.60
  -9  -4   5    5.70    8.00
   8   4  -5    9.20    9.10
   8   4  -5    1.00    4.90
  -8  -4   5    1.00    4.80
  -8  -4   5    5.90    7.20
   7   4  -5    1.20    6.10
  -7  -4   5    4.20    6.30
  -7  -4   5    1.50    5.50
   6   4  -5   51.79    9.40
  -6  -4   5   44.10    7.90
  -6  -4   5   44.50    7.10
   5   4  -5   -0.10    4.80
  -5  -4   5    2.60    4.50
  -5  -4   5    2.80    3.90
   4   4  -5   -2.00    5.40
  -4  -4   5    5.70    3.30
  -4  -4   5    2.00    3.60
  -4  -4   5    7.90    3.50
   3   4  -5   -7.10    4.80
   3   4  -5    7.10    1.60
  -3  -4   5    4.70    2.90
  -3  -4   5    3.60    2.50
  -3  -4   5    7.50    3.70
   2   4  -5  185.88   11.40
   2   4  -5  174.78   15.20
  -2  -4   5  190.98   13.60
  -2  -4   5  180.28   11.20
  -2  -4   5  201.18   13.80
   1   4  -5  300.87   17.00
   1   4  -5  305.37   18.50
   1   4  -5  315.27   22.50
  -1  -4   5  336.07   21.00
  -1  -4   5  329.87   21.30
  -1  -4   5  296.37   16.90
   0   4  -5  164.88   11.70
   0   4  -5  180.28   14.30
   0   4  -5  171.18    9.60
   0  -4   5  180.88   13.90
   0  -4   5  186.28   13.80
  -1   4  -5  161.08   12.00
  -1   4  -5  170.08   13.30
   1  -4   5  177.68   14.40
   1  -4   5  166.38   14.00
  -2   4  -5  585.74   36.10
  -2   4  -5  618.24   38.70
   2  -4   5  596.44   38.80
   2  -4   5  643.14   40.60
  -3   4  -5  119.19   10.50
  -3   4  -5  128.39   12.60
   3  -4   5  107.29   12.50
   3  -4   5  129.99   13.80
  -4   4  -5  168.08   15.40
  -4   4  -5  148.89   13.10
   4  -4   5  140.19   14.50
   4  -4   5  171.88   15.60
  -5   4  -5  254.37   20.70
  -5   4  -5  271.87   22.20
   5  -4   5  274.17   23.80
   5  -4   5  255.97   21.10
   5  -4   5  263.07   21.20
  -6   4  -5  168.38   17.80
  -6   4  -5  173.98   19.00
   6  -4   5  165.88   18.30
   6  -4   5  171.88   20.00
  -7   4  -5   94.09   15.80
  -7   4  -5   72.89   14.50
   7  -4   5   97.69   17.90
   7  -4   5   75.79   13.30
   9   3  -5   94.29   15.80
   9   3  -5   53.39   10.50
  -9  -3   5   57.69   10.90
  -9  -3   5   84.79   14.90
   8   3  -5  145.89   15.60
  -8  -3   5  142.09   13.90
  -8  -3   5  155.28   16.50
   7   3  -5  207.18   19.30
  -7  -3   5  220.88   17.20
  -7  -3   5  200.88   16.90
   6   3  -5  615.34   39.50
  -6  -3   5  553.14   36.90
  -6  -3   5  596.84   34.30
   5   3  -5  775.82   47.20
  -5  -3   5  721.53   45.20
  -5  -3   5  722.23   40.90
   4   3  -5  680.93   41.00
   4   3  -5  670.93   35.40
  -4  -3   5  570.94   34.30
  -4  -3   5  590.24   38.40
   3   3  -5  913.01   55.09
   3   3  -5  839.12   49.40
  -3  -3   5  890.81   52.69
  -3  -3   5  859.61   47.10
  -3  -3   5  948.71   53.89
   2   3  -5 2528.55  149.69
  -2  -3   5 2538.25  194.88
  -2  -3   5 2460.95  204.98
  -2  -3   5 2462.55  133.29
   1   3  -5  342.57   25.40
   1   3  -5  392.96   22.30
  -1  -3   5  370.06   20.50
  -1  -3   5  388.16   24.60
  -1  -3   5  418.46   24.70
   0   3  -5  933.71   52.99
   0   3  -5  930.31   57.39
   0  -3   5  967.40   58.09
   0  -3   5  907.71   49.80
   0  -3   5 1003.70   56.59
  -1   3  -5 2106.59  124.69
  -1   3  -5 2277.87  130.19
   1  -3   5 2134.39  160.38
   1  -3   5 2216.88  126.29
  -2   3  -5 1155.98   70.49
  -2   3  -5 1095.39   64.29
  -2   3  -5 1151.28   68.09
   2  -3   5 1089.99   67.79
   2  -3   5 1207.98   70.79
  -3   3  -5  532.55   34.00
  -3   3  -5  523.55   32.20
  -3   3  -5  525.85   36.10
   3  -3   5  540.35   34.10
   3  -3   5  545.35   35.90
  -4   3  -5  523.85   37.90
  -4   3  -5  562.64   35.90
  -4   3  -5  532.65   34.00
   4  -3   5  606.34   35.70
   4  -3   5  570.14   38.10
  -5   3  -5   26.60    7.00
  -5   3  -5   27.20    8.90
  -5   3  -5   37.20    7.80
   5  -3   5   32.70    6.50
   5  -3   5   29.20    8.90
  -6   3  -5   94.39   13.80
  -6   3  -5   89.09   12.90
   6  -3   5   80.39   13.40
   6  -3   5   94.89   15.50
   6  -3   5   87.79   11.30
  -7   3  -5   73.59   13.20
  -7   3  -5   87.79   14.40
   7  -3   5   76.09   12.20
   7  -3   5   92.09   16.80
  -8   3  -5    4.20    8.70
  -8   3  -5   -6.30    9.40
   8  -3   5    3.20    9.80
   8  -3   5    0.20    8.90
   9   2  -5   16.30    9.60
  -9  -2   5    2.40    7.80
   8   2  -5   -2.70    7.50
  -8  -2   5    2.20    6.40
  -8  -2   5    2.50    6.20
   7   2  -5   -1.20    6.70
  -7  -2   5   -1.30    4.90
  -7  -2   5   -0.10    4.10
   6   2  -5    1.50    6.00
  -6  -2   5    1.60    3.40
  -6  -2   5    4.80    4.60
   5   2  -5   66.19    5.80
   5   2  -5   64.39    9.90
  -5  -2   5   60.79    7.00
  -5  -2   5   57.19    8.20
   4   2  -5   10.90    2.50
   4   2  -5    7.80    4.00
  -4  -2   5    7.90    2.90
  -4  -2   5    9.80    3.80
   3   2  -5  136.29   11.20
   3   2  -5  124.69    8.70
  -3  -2   5  129.49    9.30
  -3  -2   5  132.49   10.40
   2   2  -5  519.45   29.10
   2   2  -5  516.65   32.40
  -2  -2   5  476.85   30.60
  -2  -2   5  508.05   30.60
  -2  -2   5  498.05   27.30
   1   2  -5  969.20   54.79
  -1  -2   5 1023.60   57.69
  -1  -2   5  976.50   50.89
  -1  -2   5  956.30   58.79
   0   2  -5  351.66   21.80
   0   2  -5  309.67   22.40
   0   2  -5  344.37   20.10
   0  -2   5  358.56   22.00
   0  -2   5  331.97   17.90
   0  -2   5  316.67   22.20
  -1   2  -5 1121.69   61.49
  -1   2  -5 1106.09   67.09
  -1   2  -5 1096.69   65.29
   1  -2   5 1073.09   67.09
   1  -2   5 1138.89   57.29
   1  -2   5 1059.59   65.09
  -2   2  -5 1005.40   60.29
  -2   2  -5  981.80   62.99
  -2   2  -5  980.70   57.19
   2  -2   5 1018.50   60.09
   2  -2   5 1095.69   53.59
   2  -2   5 1010.40   63.09
  -3   2  -5  425.26   30.50
  -3   2  -5  439.36   27.10
  -3   2  -5  465.35   28.50
   3  -2   5  473.55   28.40
   3  -2   5  443.36   30.50
   3  -2   5  445.96   23.30
  -4   2  -5  984.70   56.29
  -4   2  -5  915.81   62.29
  -4   2  -5 1015.50   59.09
   4  -2   5  965.00   62.19
   4  -2   5 1003.80   57.79
   4  -2   5  964.60   50.19
  -5   2  -5  380.66   25.30
  -5   2  -5  351.56   24.10
  -5   2  -5  328.17   27.90
   5  -2   5  386.86   24.10
   5  -2   5  361.36   27.70
  -6   2  -5  341.97   24.50
  -6   2  -5  322.57   28.50
  -6   2  -5  365.56   26.30
   6  -2   5  345.57   28.00
   6  -2   5  365.56   23.80
  -7   2  -5  335.77   24.80
  -7   2  -5  284.37   28.10
  -7   2  -5  322.37   26.50
   7  -2   5  336.67   25.20
   7  -2   5  336.07   28.00
   7  -2   5  352.16   23.60
  -8   2  -5  183.08   18.90
  -8   2  -5  160.98   21.50
   8  -2   5  193.88   19.60
   8  -2   5  187.18   21.50
   9   1  -5  109.39   14.20
  -9  -1   5  102.29   13.50
   8   1  -5   77.69   11.60
  -8  -1   5   96.69   14.20
   7   1  -5  260.17   20.80
  -7  -1   5  254.37   19.60
  -7  -1   5  253.67   19.50
   6   1  -5  782.32   43.80
   6   1  -5  763.42   47.60
  -6  -1   5  734.13   46.60
  -6  -1   5  779.72   43.40
   5   1  -5  398.36   26.20
   5   1  -5  418.06   23.60
  -5  -1   5  375.06   23.60
  -5  -1   5  394.86   25.80
   4   1  -5  806.22   47.30
   4   1  -5  801.42   43.50
  -4  -1   5  764.32   42.20
  -4  -1   5  721.43   45.80
   3   1  -5 1452.05   76.89
   3   1  -5 1357.16   80.49
  -3  -1   5 1369.16   71.49
  -3  -1   5 1279.27   78.39
   2   1  -5 1482.95   86.09
   2   1  -5 1527.45   84.49
  -2  -1   5 1445.56   85.69
  -2  -1   5 1394.16   75.79
   1   1  -5 1599.14   83.59
   1   1  -5 1497.35   87.09
   1   1  -5 1458.55   90.89
  -1  -1   5 1428.86   78.99
  -1  -1   5 1373.06   89.99
  -1  -1   5 1531.95   85.49
   0   1  -5 1565.84   95.09
   0   1  -5 1612.24   89.79
   0   1  -5 1399.26   90.69
   0  -1   5 1476.25   93.89
   0  -1   5 1556.84   89.79
   0  -1   5 1687.63   81.49
  -1   1  -5 1783.82  107.49
  -1   1  -5 1913.41  149.59
  -1   1  -5 1802.82  122.89
   1  -1   5 1554.14  105.09
   1  -1   5 1904.71   94.89
   1  -1   5 1701.33  101.19
  -2   1  -5  723.53   49.30
  -2   1  -5  790.32   46.90
  -2   1  -5  788.02   44.90
   2  -1   5  852.71   57.29
   2  -1   5  821.02   46.90
  -3   1  -5  637.74   36.90
  -3   1  -5  572.74   39.90
  -3   1  -5  642.44   35.70
   3  -1   5  505.35   39.30
   3  -1   5  649.43   36.70
   3  -1   5  633.44   31.60
  -4   1  -5  496.95   36.40
  -4   1  -5  548.45   32.00
  -4   1  -5  553.24   33.00
   4  -1   5  458.55   35.70
   4  -1   5  552.94   28.00
   4  -1   5  563.54   32.60
  -5   1  -5   11.10    4.80
  -5   1  -5   10.40    4.30
  -5   1  -5    1.20    6.80
   5  -1   5    8.50    2.40
   5  -1   5   -4.60    6.10
   5  -1   5    8.90    3.10
  -6   1  -5   32.40   10.00
  -6   1  -5   39.90    7.80
  -6   1  -5   42.60    7.20
   6  -1   5   37.80    6.30
   6  -1   5   44.20    5.30
   6  -1   5   39.10    8.60
  -7   1  -5   36.40    9.80
  -7   1  -5   38.00    8.90
  -7   1  -5   45.50    8.30
   7  -1   5   42.00    7.10
   7  -1   5   34.10    8.90
  -8   1  -5    6.80    9.80
  -8   1  -5    7.00    7.10
   8  -1   5   -1.20    5.70
   8  -1   5    2.90    7.30
   8  -1   5   -1.80    8.60
  -9   1  -5    2.60   10.10
  -9   1  -5    1.50    7.80
   9  -1   5    0.90    8.00
   9  -1   5   -2.40    9.40
   9   0  -5   -2.50    8.60
  -9   0   5    7.10    8.10
   8   0  -5    0.10    7.50
  -8   0   5    4.50    7.10
   7   0  -5   -1.50    6.40
  -7   0   5    1.30    6.10
   6   0  -5   87.39   11.30
   6   0  -5  101.89    9.20
  -6   0   5   92.79   11.20
  -6   0   5   86.79    9.70
   5   0  -5   66.89    7.10
   5   0  -5   69.29    8.90
  -5   0   5   69.69    8.10
  -5   0   5   64.19    8.60
   4   0  -5   19.60    4.90
   4   0  -5   19.50    3.70
  -4   0   5   20.10    4.50
  -4   0   5   19.80    3.70
   3   0  -5  412.76   23.30
   3   0  -5  406.36   25.00
  -3   0   5  384.86   23.00
  -3   0   5  381.06   24.20
   2   0  -5 1059.89   60.29
   2   0  -5 1051.59   56.69
  -2   0   5  970.10   58.89
  -2   0   5 1000.60   53.89
   1   0  -5  975.00   56.99
   1   0  -5 1025.70   60.39
   1   0  -5 1182.48   63.99
  -1   0   5  924.01   53.59
  -1   0   5 1026.70   59.69
   0   0  -5  584.34   32.50
   0   0  -5  548.15   33.80
   0   0  -5  635.04   34.60
   0   0   5  511.75   30.00
   0   0   5  512.75   34.10
  -1   0  -5 2521.05  140.89
  -1   0  -5 2106.79  133.39
  -1   0  -5 2136.49  127.89
   1   0   5 2197.48  130.39
   1   0   5 2154.88  118.99
  -2   0  -5 2354.76  132.49
  -2   0  -5 2030.00  169.18
  -2   0  -5 1974.20  124.89
   2   0   5 2076.39  121.89
   2   0   5 2027.20  111.39
  -3   0  -5 1208.38   71.89
  -3   0  -5 1143.79   67.29
  -3   0  -5 1118.49   64.79
   3   0   5 1157.78   61.39
   3   0   5 1149.89   66.59
  -4   0  -5  978.90   65.99
  -4   0  -5 1019.00   61.19
  -4   0  -5 1042.10   59.09
   4   0   5 1083.29   60.59
   4   0   5 1076.69   53.99
  -5   0  -5  320.57   21.60
  -5   0  -5  321.27   21.10
  -5   0  -5  310.77   26.20
   5   0   5  348.37   18.60
   5   0   5  345.37   21.60
  -6   0  -5  578.54   37.70
  -6   0  -5  570.04   42.70
  -6   0  -5  608.34   36.60
   6   0   5  604.14   36.80
   6   0   5  635.24   32.60
  -7   0  -5  698.53   50.09
  -7   0  -5  727.13   43.70
  -7   0  -5  669.73   45.50
   7   0   5  799.12   44.60
   7   0   5  650.83   49.30
   7   0   5  765.02   39.10
  -8   0  -5  193.28   21.40
  -8   0  -5  214.68   18.10
   8   0   5  222.98   17.50
   8   0   5  202.48   20.50
  -9   0  -5   53.59   14.40
  -9   0  -5   60.29   10.40
   9   0   5   70.79   11.80
   9   0   5   58.29   10.60
   9   0   5   47.10   12.90
   8  -1  -5   61.69   11.40
  -8   1   5   59.39   10.30
   7  -1  -5  133.29   13.10
   7  -1  -5  139.09   13.70
  -7   1   5  138.09   15.00
   6  -1  -5  371.46   25.50
   6  -1  -5  384.16   24.10
  -6   1   5  361.96   23.70
   5  -1  -5  322.87   20.60
   5  -1  -5  329.17   21.80
  -5   1   5  304.87   20.60
  -5   1   5  319.67   20.90
  -5   1   5  319.67   21.90
   4  -1  -5  752.82   42.20
   4  -1  -5  771.52   44.80
   4  -1  -5  704.53   43.80
  -4   1   5  726.23   40.60
  -4   1   5  697.43   43.00
  -4   1   5  749.82   44.90
   3  -1  -5 1252.57   71.19
   3  -1  -5 1173.98   72.39
   3  -1  -5 1217.28   67.29
  -3   1   5 1132.79   68.99
  -3   1   5 1257.67   71.29
  -3   1   5 1212.58   64.19
   2  -1  -5  438.16   26.00
   2  -1  -5  442.56   26.60
   2  -1  -5  432.06   25.30
  -2   1   5  430.96   24.90
  -2   1   5  438.16   26.70
  -2   1   5  421.46   25.80
   1  -1  -5  921.81   54.09
   1  -1  -5  937.21   56.79
   1  -1  -5  928.71   51.49
  -1   1   5  877.61   49.00
  -1   1   5  945.31   53.89
   0  -1  -5 1188.98   72.39
   0  -1  -5 1260.77   71.19
   0  -1  -5 1177.68   67.19
   0   1   5 1170.98   61.79
   0   1   5 1099.89   68.39
  -1  -1  -5  804.02   42.20
  -1  -1  -5  725.43   42.90
  -1  -1  -5  629.14   44.60
   1   1   5  735.03   38.60
   1   1   5  756.62   42.70
  -2  -1  -5 1230.28   86.69
  -2  -1  -5 1552.64   80.59
  -2  -1  -5 1449.26   85.29
   2   1   5 1473.65   76.59
   2   1   5 1477.25   87.09
  -3  -1  -5  154.58   10.00
  -3  -1  -5  181.58   13.80
  -3  -1  -5  163.98   11.40
   3   1   5  150.58   10.80
   3   1   5  155.18    9.50
  -4  -1  -5   71.19    7.10
  -4  -1  -5   59.19    5.40
  -4  -1  -5   80.19    9.70
   4   1   5   67.69    6.30
   4   1   5   71.39    5.50
  -5  -1  -5   85.79   13.30
  -5  -1  -5   69.99    6.90
  -5  -1  -5   88.19    8.30
   5   1   5   84.99    6.60
   5   1   5   79.29    7.30
  -6  -1  -5  138.89   15.70
  -6  -1  -5  108.39   10.60
  -6  -1  -5  137.39   11.40
   6   1   5  115.99   10.30
   6   1   5  137.69    9.60
   6   1   5  150.08   11.00
  -7  -1  -5    8.40   10.20
  -7  -1  -5   17.40    5.60
   7   1   5   16.50    4.20
   7   1   5   17.80    5.90
  -8  -1  -5    3.10    5.30
  -8  -1  -5   -9.90    9.40
   8   1   5   -6.20    5.40
   8   1   5    0.40    4.10
   8   1   5  -16.50    8.50
  -9  -1  -5   -2.90   10.50
  -9  -1  -5    3.90    6.70
   9   1   5   -8.80    6.30
   8  -2  -5    0.50    9.00
  -8   2   5    2.30    7.60
   7  -2  -5    1.70    5.80
   7  -2  -5   -1.10    5.70
  -7   2   5    7.70    6.60
  -7   2   5    7.10    6.40
   6  -2  -5  144.79   14.90
   6  -2  -5  139.19   13.40
  -6   2   5  154.88   15.60
  -6   2   5  124.99   14.00
   5  -2  -5   57.39    9.50
   5  -2  -5   55.79    8.50
  -5   2   5   58.99    9.50
  -5   2   5   62.59    9.80
   4  -2  -5   94.09    8.90
   4  -2  -5   82.49    8.40
   4  -2  -5   81.09    7.20
  -4   2   5   87.49    8.60
  -4   2   5   80.09    7.00
  -4   2   5   91.59    8.60
   3  -2  -5  393.46   23.90
   3  -2  -5  372.46   22.50
   3  -2  -5  353.66   22.90
  -3   2   5  370.86   22.60
  -3   2   5  382.26   23.90
  -3   2   5  349.67   22.00
   2  -2  -5  240.98   15.10
   2  -2  -5  228.68   14.90
   2  -2  -5  232.48   15.20
  -2   2   5  234.48   15.10
  -2   2   5  224.08   14.20
  -2   2   5  233.38   15.30
   1  -2  -5  906.71   50.69
   1  -2  -5  855.91   53.99
   1  -2  -5  896.01   52.99
  -1   2   5  908.71   53.09
  -1   2   5  956.10   52.49
  -1   2   5  899.91   48.90
   0  -2  -5 4181.88  241.08
   0  -2  -5 4028.40  233.18
   0  -2  -5 4019.00  224.98
   0   2   5 3834.12  211.98
   0   2   5 3634.84  229.58
   0   2   5 4080.89  233.08
  -1  -2  -5  767.22   47.80
  -1  -2  -5  905.81   51.29
  -1  -2  -5  869.51   51.59
   1   2   5  864.01   49.00
   1   2   5  833.22   44.80
  -2  -2  -5  987.40   61.59
  -2  -2  -5 1034.80   57.49
  -2  -2  -5  928.11   58.49
  -2  -2  -5 1068.19   59.39
   2   2   5 1028.50   57.89
   2   2   5  994.90   52.49
  -3  -2  -5 1536.85   77.79
  -3  -2  -5 1216.48   83.79
   3   2   5 1373.66   70.99
  -4  -2  -5 1819.52   90.79
  -4  -2  -5 1677.63   92.89
  -4  -2  -5 1482.45   99.19
   4   2   5 1416.96   95.49
   4   2   5 1755.52  110.79
  -5  -2  -5 1504.95   88.79
  -5  -2  -5 1413.36   85.89
  -5  -2  -5 1695.13   96.69
   5   2   5 1553.74   79.79
  -6  -2  -5  885.51   52.39
  -6  -2  -5  920.31   54.49
   6   2   5  927.81   48.50
  -7  -2  -5  708.93   45.90
  -7  -2  -5  808.22   48.00
  -7  -2  -5  835.82   55.79
   7   2   5  805.62   42.90
  -8  -2  -5  250.37   27.20
  -8  -2  -5  241.78   18.20
   8   2   5  255.77   17.00
  -9  -2  -5  124.29   22.50
   9   2   5  155.88   13.40
   9   2   5  150.48   14.50
   7  -3  -5  129.09   15.50
   7  -3  -5  136.39   17.20
  -7   3   5  140.59   15.90
  -7   3   5  149.69   18.20
   6  -3  -5  264.37   21.10
   6  -3  -5  240.38   19.50
  -6   3   5  257.37   21.40
  -6   3   5  222.78   19.10
   5  -3  -5  295.07   21.20
   5  -3  -5  303.87   21.00
  -5   3   5  283.47   19.80
  -5   3   5  300.67   21.50
   4  -3  -5  512.75   31.40
   4  -3  -5  455.45   30.40
   4  -3  -5  468.15   29.80
  -4   3   5  513.05   31.50
  -4   3   5  456.55   29.00
   3  -3  -5  379.46   24.00
   3  -3  -5  362.76   23.00
   3  -3  -5  350.26   23.30
  -3   3   5  354.56   22.50
  -3   3   5  371.96   24.00
   2  -3  -5  422.66   25.30
   2  -3  -5  420.96   26.40
   2  -3  -5  425.26   26.40
  -2   3   5  429.06   26.40
  -2   3   5  383.26   24.10
  -2   3   5  444.96   25.70
   1  -3  -5 1003.00   57.19
   1  -3  -5  996.90   61.09
  -1   3   5 1008.20   59.69
  -1   3   5 1006.00   55.19
  -1   3   5 1069.59   58.19
   0  -3  -5  532.05   33.40
   0  -3  -5  538.05   31.20
   0   3   5  531.95   32.10
   0   3   5  564.74   30.80
   0   3   5  541.05   32.10
  -1  -3  -5  400.36   25.10
  -1  -3  -5  386.96   23.30
  -1  -3  -5  398.86   23.30
   1   3   5  396.16   23.30
   1   3   5  398.16   23.30
   1   3   5  367.16   22.10
  -2  -3  -5  611.64   38.30
  -2  -3  -5  690.93   41.30
  -2  -3  -5  690.13   39.30
   2   3   5  646.24   38.50
   2   3   5  661.83   35.50
  -3  -3  -5  212.68   15.70
  -3  -3  -5  216.98   13.80
  -3  -3  -5  192.18   15.00
   3   3   5  207.98   12.40
  -4  -3  -5  113.29   10.10
  -4  -3  -5   94.69   11.80
  -4  -3  -5  118.59    9.50
   4   3   5  122.49    8.40
  -5  -3  -5   82.29    7.80
  -5  -3  -5   87.69    8.20
   5   3   5   81.39    7.40
  -6  -3  -5   18.80    4.30
  -6  -3  -5   17.00    4.20
  -6  -3  -5   19.70    7.50
   6   3   5   15.70    4.30
  -7  -3  -5   25.80    6.20
  -7  -3  -5   29.00   11.30
  -7  -3  -5   20.50    5.20
   7   3   5   17.70    5.00
  -8  -3  -5    1.70   11.50
  -8  -3  -5   18.40    6.70
  -8  -3  -5   16.20    5.50
   8   3   5   11.90    5.30
  -9  -3  -5   -5.90   12.30
  -9  -3  -5   19.10    7.50
   9   3   5   12.20    6.00
 -10  -3  -5    3.30   13.50
  10   3   5   20.60    7.20
   7  -4  -5   30.90    8.20
   7  -4  -5   29.70   10.70
  -7   4   5   32.80    8.30
  -7   4   5   41.90   11.60
   6  -4  -5  100.19   14.40
   6  -4  -5  108.89   15.40
  -6   4   5  100.99   13.70
  -6   4   5  116.79   16.00
   5  -4  -5   29.50    8.40
   5  -4  -5   28.90    7.60
  -5   4   5   21.20    6.80
  -5   4   5   31.30    8.50
   4  -4  -5   83.09   11.00
   4  -4  -5   92.09   11.40
  -4   4   5   72.49   10.90
  -4   4   5   95.39   11.40
   3  -4  -5  450.05   29.00
   3  -4  -5  454.35   28.20
  -3   4   5  435.76   27.40
  -3   4   5  454.15   28.90
   2  -4  -5  771.82   45.20
   2  -4  -5  791.72   48.10
  -2   4   5  772.12   47.20
  -2   4   5  788.32   44.50
   1  -4  -5 1004.80   61.29
   1  -4  -5 1048.00   57.39
  -1   4   5  980.50   57.89
  -1   4   5 1019.30   59.59
  -1   4   5  999.20   55.49
   0  -4  -5 1852.41  102.29
   0  -4  -5 1718.13  109.69
   0   4   5 1871.21  105.79
   0   4   5 1881.71   95.69
   0   4   5 1763.02  108.59
  -1  -4  -5  458.85   28.70
  -1  -4  -5  457.15   26.70
   1   4   5  438.86   26.80
   1   4   5  435.86   25.90
   1   4   5  457.95   26.50
  -2  -4  -5 2211.68  126.89
  -2  -4  -5 2287.27  142.49
   2   4   5 2367.16  136.39
   2   4   5 2367.66  135.69
  -3  -4  -5 3526.45  187.48
  -3  -4  -5 3288.27  203.28
  -3  -4  -5 3082.59  189.68
  -3  -4  -5 3289.37  194.08
   3   4   5 3279.27  176.18
   3   4   5 3258.37  199.68
  -4  -4  -5 1625.44  103.99
  -4  -4  -5 1825.82   96.59
  -4  -4  -5 1706.83   98.09
   4   4   5 1683.63   88.59
  -5  -4  -5 1032.30   71.79
  -5  -4  -5 1120.89   66.69
  -5  -4  -5 1219.08   65.29
   5   4   5 1186.88   60.39
  -6  -4  -5  931.11   55.49
  -6  -4  -5  897.21   52.99
   6   4   5  947.71   49.99
  -7  -4  -5  518.05   33.30
  -7  -4  -5  579.34   42.20
  -7  -4  -5  559.34   35.60
   7   4   5  587.24   31.90
  -8  -4  -5  355.46   26.00
  -8  -4  -5  408.36   34.40
   8   4   5  375.56   23.20
  -9  -4  -5  199.78   28.50
  -9  -4  -5  241.88   19.70
   9   4   5  253.57   18.30
 -10  -4  -5  207.68   20.40
 -10  -4  -5  153.18   27.70
  10   4   5  190.88   17.10
   6  -5  -5   81.69   13.80
   6  -5  -5  105.49   15.90
  -6   5   5   94.79   13.80
  -6   5   5  118.99   17.20
   5  -5  -5  152.08   16.40
   5  -5  -5  150.98   17.10
  -5   5   5  157.98   17.00
  -5   5   5  141.89   15.10
   4  -5  -5  182.28   16.80
  -4   5   5  209.38   17.50
  -4   5   5  177.18   16.60
   3  -5  -5   38.90    7.10
   3  -5  -5   48.20    7.70
  -3   5   5   53.79    9.50
  -3   5   5   40.40    7.90
   2  -5  -5  423.66   28.20
   2  -5  -5  424.46   27.20
  -2   5   5  435.26   27.90
  -2   5   5  425.06   27.80
   1  -5  -5  286.87   19.00
   1  -5  -5  276.97   19.60
  -1   5   5  270.87   19.50
  -1   5   5  287.67   19.00
   0  -5  -5   31.90    5.50
   0  -5  -5   38.40    6.50
   0   5   5   44.60    4.30
   0   5   5   43.70    5.40
   0   5   5   35.30    6.60
  -1  -5  -5  236.28   16.60
  -1  -5  -5  239.48   15.30
   1   5   5  213.88   15.40
   1   5   5  231.68   15.10
   1   5   5  245.28   14.60
  -2  -5  -5  210.38   15.80
  -2  -5  -5  210.78   14.00
  -2  -5  -5  227.38   13.90
   2   5   5  200.38   13.50
   2   5   5  207.28   13.30
  -3  -5  -5   25.30    4.90
  -3  -5  -5   31.60    5.70
  -3  -5  -5   31.00    5.00
   3   5   5   26.40    4.60
   3   5   5   27.30    2.90
  -4  -5  -5   14.20    5.70
  -4  -5  -5   14.60    3.40
  -4  -5  -5    6.90    5.00
   4   5   5   11.30    3.30
  -5  -5  -5    4.70    4.80
  -5  -5  -5    5.10    4.70
  -5  -5  -5    4.70    4.00
   5   5   5    6.80    3.80
  -6  -5  -5    9.00    3.90
  -6  -5  -5   13.20    4.40
  -6  -5  -5    9.70    6.10
   6   5   5    8.50    4.50
  -7  -5  -5   22.20    6.70
  -7  -5  -5   21.70    9.90
   7   5   5   23.70    6.00
  -8  -5  -5   31.60    8.10
  -8  -5  -5   47.70   13.60
   8   5   5   25.20    6.90
  -9  -5  -5   45.70   13.30
  -9  -5  -5   49.40    9.90
   9   5   5   40.20    8.20
 -10  -5  -5   72.19   12.40
 -10  -5  -5   52.19   19.30
  10   5   5   61.29   10.00
   6  -6  -5   36.30   12.60
   6  -6  -5   34.10   11.30
  -6   6   5   46.30   12.80
   5  -6  -5   51.99   12.20
   5  -6  -5   54.79    9.80
  -5   6   5   66.89   12.30
  -5   6   5   47.40    9.10
   4  -6  -5  150.48   14.90
  -4   6   5  174.98   17.20
  -4   6   5  157.88   16.30
   3  -6  -5  195.28   17.10
   3  -6  -5  175.78   16.60
  -3   6   5  178.38   17.30
  -3   6   5  197.48   16.90
   2  -6  -5  560.54   34.10
   2  -6  -5  522.25   35.50
  -2   6   5  554.24   35.00
  -2   6   5  522.05   34.20
   1  -6  -5  689.03   40.70
   1  -6  -5  681.03   43.80
  -1   6   5  678.63   42.20
  -1   6   5  690.93   40.90
   0  -6  -5 1031.20   58.39
   0  -6  -5  999.50   62.89
   0   6   5  984.60   60.39
   0   6   5 1056.89   56.69
  -1  -6  -5  750.82   42.90
  -1  -6  -5  724.43   46.50
   1   6   5  727.53   41.20
   1   6   5  733.73   42.40
   1   6   5  742.03   44.00
  -2  -6  -5 1448.46   88.49
  -2  -6  -5 1541.55   83.29
  -2  -6  -5 1447.86   81.39
   2   6   5 1440.26   76.89
   2   6   5 1398.46   84.39
  -3  -6  -5 1747.13  101.99
  -3  -6  -5 1893.61  110.99
  -3  -6  -5 1976.50  104.99
   3   6   5 1817.22   95.69
   3   6   5 1729.23  108.19
  -4  -6  -5 1322.77   70.89
  -4  -6  -5 1200.58   76.29
  -4  -6  -5 1215.68   71.69
   4   6   5 1188.08   65.09
  -5  -6  -5  541.45   37.60
  -5  -6  -5  543.55   34.20
   5   6   5  555.04   31.30
  -6  -6  -5 1022.80   67.69
  -6  -6  -5 1026.60   62.19
  -6  -6  -5 1072.19   60.39
   6   6   5 1054.99   56.39
  -7  -6  -5  420.16   35.50
  -7  -6  -5  451.95   30.90
   7   6   5  493.15   28.20
  -8  -6  -5  429.86   31.00
   8   6   5  451.75   28.00
  -9  -6  -5  316.57   31.90
  -9  -6  -5  305.47   25.30
   9   6   5  302.97   22.40
 -10  -6  -5  123.59   23.10
 -10  -6  -5  123.59   15.50
  10   6   5  145.49   16.40
   5  -7  -5   41.10   10.50
   5  -7  -5   42.10   11.80
  -5   7   5   51.19   10.50
   4  -7  -5   74.59   12.50
  -4   7   5   60.79   10.40
  -4   7   5   76.99   12.00
   3  -7  -5   14.10    6.40
   3  -7  -5   10.70    7.80
  -3   7   5   16.80    8.10
  -3   7   5   12.90    7.60
   2  -7  -5  119.69   14.00
   2  -7  -5  130.79   14.50
  -2   7   5  118.09   16.10
  -2   7   5  130.19   13.90
   1  -7  -5   82.59    9.80
   1  -7  -5   82.49   11.70
  -1   7   5   62.79   11.40
  -1   7   5   96.49   10.70
   0  -7  -5   38.30    7.20
   0  -7  -5   33.50    7.40
   0   7   5   41.50    7.40
   0   7   5   30.50    7.00
  -1  -7  -5   33.90    7.30
  -1  -7  -5   35.20    6.50
   1   7   5   35.90    6.00
   1   7   5   33.60    7.90
  -2  -7  -5   23.50    5.30
  -2  -7  -5   26.30    4.00
  -2  -7  -5   25.80    6.80
   2   7   5   23.60    4.40
   2   7   5   18.90    4.70
  -3  -7  -5   86.49    8.40
  -3  -7  -5   71.29    8.60
  -3  -7  -5   81.69   10.90
   3   7   5   69.89    9.80
   3   7   5   68.59    6.60
  -4  -7  -5    5.00    4.50
  -4  -7  -5    1.50    3.90
  -4  -7  -5   -0.10    4.60
   4   7   5   -0.10    3.80
  -5  -7  -5   20.70    5.40
  -5  -7  -5   18.10    6.40
   5   7   5   20.20    5.80
  -6  -7  -5   74.99   10.80
  -6  -7  -5   74.29   11.90
   6   7   5   73.69    8.70
  -7  -7  -5  100.39   13.10
  -7  -7  -5   94.69   17.40
   7   7   5   97.89   12.00
  -8  -7  -5   88.99   17.00
  -8  -7  -5  103.39   14.60
   8   7   5  101.89   11.30
  -9  -7  -5   87.59   15.40
  -9  -7  -5   72.59   16.90
   9   7   5   92.39   14.00
   4  -8  -5   71.29   13.40
  -4   8   5  103.69   17.00
   3  -8  -5  149.88   18.20
   3  -8  -5  125.59   16.60
  -3   8   5  160.18   17.60
  -3   8   5  136.69   18.40
   2  -8  -5  308.67   25.20
   2  -8  -5  322.87   24.50
  -2   8   5  274.57   24.80
  -2   8   5  335.07   24.50
   1  -8  -5  507.75   36.40
   1  -8  -5  562.54   35.20
  -1   8   5  539.25   36.60
  -1   8   5  539.75   35.30
   0  -8  -5  412.56   27.20
   0  -8  -5  407.46   29.30
   0   8   5  388.26   26.70
   0   8   5  383.06   28.40
  -1  -8  -5  424.66   30.70
  -1  -8  -5  439.06   27.80
   1   8   5  425.86   29.20
   1   8   5  420.46   28.00
  -2  -8  -5  959.20   58.39
  -2  -8  -5  928.01   52.79
   2   8   5  881.11   54.19
   2   8   5  860.11   51.09
  -3  -8  -5  967.00   54.09
  -3  -8  -5  907.01   53.09
  -3  -8  -5  922.11   58.39
   3   8   5  860.41   50.29
  -4  -8  -5  828.12   54.19
  -4  -8  -5  971.60   60.29
  -4  -8  -5 1012.30   55.79
   4   8   5  926.21   51.49
  -5  -8  -5  550.24   35.30
  -5  -8  -5  572.64   38.50
   5   8   5  544.45   32.70
  -6  -8  -5  560.54   40.50
  -6  -8  -5  561.34   36.40
   6   8   5  564.14   33.30
  -7  -8  -5  402.06   32.90
  -7  -8  -5  381.56   27.90
   7   8   5  380.56   24.70
  -8  -8  -5  406.76   29.40
  -8  -8  -5  394.96   34.10
   8   8   5  452.95   28.20
  -9  -8  -5  188.28   18.80
  -9  -8  -5  210.08   26.80
   9   8   5  223.48   19.30
   3  -9  -5   14.80   10.60
  -3   9   5   17.90   10.50
   2  -9  -5   19.90    7.90
   2  -9  -5    8.00    9.30
  -2   9   5   17.20    9.00
  -2   9   5   26.50    9.70
   1  -9  -5    5.50    6.30
   1  -9  -5    2.10    8.40
  -1   9   5    8.70    7.60
  -1   9   5   -8.80    8.40
   0  -9  -5   -2.90    7.80
   0  -9  -5    4.10    7.20
   0   9   5  -11.80    7.50
   0   9   5    3.30    6.20
  -1  -9  -5   -0.20    6.20
  -1  -9  -5   -1.90    7.40
   1   9   5   -0.60    7.20
   1   9   5    2.90    5.20
  -2  -9  -5    1.50    7.70
  -2  -9  -5    1.10    5.50
   2   9   5   -4.20    7.50
   2   9   5   -1.30    5.00
  -3  -9  -5  108.59   14.80
  -3  -9  -5   92.19   10.90
   3   9   5   83.79   10.80
  -4  -9  -5   21.40    6.60
  -4  -9  -5   31.70    9.30
  -4  -9  -5   24.10    6.20
   4   9   5   21.00    7.90
  -5  -9  -5   41.20   10.80
  -5  -9  -5   41.50    7.40
   5   9   5   35.10    6.80
  -6  -9  -5  132.99   14.60
  -6  -9  -5  144.29   16.70
   6   9   5  150.78   16.60
  -7  -9  -5  125.79   15.60
  -7  -9  -5  134.99   20.60
   7   9   5  137.89   14.40
  -8  -9  -5  139.69   22.30
  -8  -9  -5  121.79   16.80
   8   9   5  150.18   17.00
  -9  -9  -5  137.49   24.30
  -9  -9  -5  131.49   18.30
   9   9   5  129.79   17.20
   2 -10  -5  115.49   15.60
   2 -10  -5  115.99   19.00
  -2  10   5  118.09   17.80
   1 -10  -5  202.68   22.50
   1 -10  -5  209.28   21.30
  -1  10   5  214.58   20.30
   0 -10  -5  178.78   18.30
   0 -10  -5  201.48   19.10
   0  10   5  146.89   22.30
   0  10   5  176.88   17.70
  -1 -10  -5  306.87   25.50
  -1 -10  -5  329.47   24.30
   1  10   5  307.87   25.70
   1  10   5  311.27   23.40
  -2 -10  -5  494.75   32.50
  -2 -10  -5  509.55   37.10
   2  10   5  485.45   34.50
  -3 -10  -5  265.57   24.10
  -3 -10  -5  245.38   19.20
   3  10   5  235.18   22.10
  -4 -10  -5  392.76   31.70
   4  10   5  394.46   27.20
  -5 -10  -5  439.66   34.20
   5  10   5  419.46   28.40
  -6 -10  -5  287.47   26.70
  -6 -10  -5  250.77   21.50
   6  10   5  273.77   23.00
  -7 -10  -5  228.38   23.20
  -7 -10  -5  209.28   20.60
   7  10   5  255.77   22.30
  -8 -10  -5  151.18   24.10
  -8 -10  -5  136.89   16.00
   8  10   5  184.68   19.80
   0 -11  -5    2.30   10.70
   0 -11  -5    8.10    9.20
   0  11   5    1.60    8.50
  -1 -11  -5    6.60   10.90
  -1 -11  -5    1.00    6.20
   1  11   5    7.80    9.00
  -2 -11  -5   22.80    8.50
  -2 -11  -5   29.50   12.30
   2  11   5   24.20    9.80
  -3 -11  -5   67.69   14.10
   3  11   5   41.70   11.90
  -4 -11  -5   67.49   14.40
   4  11   5   61.19   11.30
  -5 -11  -5   96.79   15.40
   5  11   5   72.19   11.90
  -6 -11  -5   68.19   13.30
   6  11   5   56.69   13.10
  -7 -11  -5   70.49   14.30
  -7 -11  -5   61.89   10.90
   7  11   5   63.19   12.70
  -3 -12  -5  155.98   19.50
   3  12   5  139.29   23.30
  -4 -12  -5  248.68   26.40
   4  12   5  196.98   24.70
   6  11  -6   78.09   16.00
  -6 -11   6   57.09   13.70
   5  11  -6   70.89   15.60
  -5 -11   6   42.40   17.00
  -5 -11   6   45.40   12.20
   4  11  -6  110.09   17.10
  -4 -11   6  102.29   18.20
  -4 -11   6  118.09   17.60
   3  11  -6  142.59   22.10
  -3 -11   6  149.19   23.90
  -3 -11   6  131.59   17.60
   2  11  -6   77.59   16.90
  -2 -11   6   79.59   17.50
   1  11  -6   52.29   15.90
  -1 -11   6   49.20   15.60
   0  11  -6  104.79   18.10
   0 -11   6   84.39   18.80
   7  10  -6   15.00   11.40
   7  10  -6    6.10    7.80
  -7 -10   6   20.00   11.60
   6  10  -6    1.20   10.30
   6  10  -6    3.40    6.50
  -6 -10   6    0.40    9.40
   5  10  -6    4.00   10.70
  -5 -10   6    2.80   12.20
  -5 -10   6   -0.90    6.40
   4  10  -6    1.50    7.90
  -4 -10   6   -4.20    8.00
  -4 -10   6    5.50   10.70
   3  10  -6    5.10    8.30
  -3 -10   6    3.70    7.80
  -3 -10   6    3.60   11.00
   2  10  -6    1.90   10.70
  -2 -10   6    1.20    6.80
  -2 -10   6    3.20   10.60
   1  10  -6   -2.10   11.10
  -1 -10   6   -1.80   10.90
   0  10  -6   15.90   12.60
   0 -10   6   14.30   12.50
   0 -10   6    6.30    7.90
  -1  10  -6   23.50   13.80
   1 -10   6   17.50    8.70
   1 -10   6   33.50   14.70
  -2  10  -6    2.20   14.20
   2 -10   6   10.90    9.20
   2 -10   6   11.30   14.20
   8   9  -6   37.20   14.30
   8   9  -6   51.69   10.80
  -8  -9   6   47.60   13.50
   7   9  -6   94.39   17.80
   7   9  -6  128.49   15.60
  -7  -9   6  132.79   16.50
   6   9  -6  108.09   19.60
   6   9  -6  136.39   14.70
  -6  -9   6  149.79   19.00
   5   9  -6  104.09   18.30
   5   9  -6  120.29   12.80
  -5  -9   6  139.09   17.40
  -5  -9   6  117.79   19.20
   4   9  -6  272.27   26.50
  -4  -9   6  298.37   26.90
  -4  -9   6  293.17   24.10
   3   9  -6  266.97   24.40
  -3  -9   6  312.17   27.00
  -3  -9   6  299.07   23.80
   2   9  -6  182.78   21.10
  -2  -9   6  178.48   20.80
  -2  -9   6  179.38   17.20
   1   9  -6  171.88   18.70
  -1  -9   6  159.28   14.50
  -1  -9   6  179.78   21.20
  -1  -9   6  187.48   16.70
   0   9  -6  169.78   21.20
   0  -9   6  139.19   14.90
   0  -9   6  176.08   21.40
  -1   9  -6   67.59   14.70
   1  -9   6   54.59   10.20
   1  -9   6   75.29   15.10
  -2   9  -6  104.09   17.20
   2  -9   6  114.89   17.60
   2  -9   6   92.29   15.30
  -3   9  -6   47.10   16.00
   3  -9   6   40.20   11.30
   3  -9   6   58.19   13.70
   8   8  -6   14.50    6.80
   8   8  -6  -11.20   11.20
  -8  -8   6   12.80    6.40
  -8  -8   6   12.50   10.90
   7   8  -6    8.20    5.50
   7   8  -6  -10.60   10.50
  -7  -8   6    8.50    9.20
  -7  -8   6    3.60    5.00
   6   8  -6    8.40    6.20
   6   8  -6  -15.40    9.60
  -6  -8   6   11.80    8.50
  -6  -8   6    1.20    5.60
   5   8  -6    1.00    4.70
   5   8  -6   -4.40    9.10
  -5  -8   6    0.00    7.50
  -5  -8   6    1.50    5.50
   4   8  -6    0.60    4.10
   4   8  -6   -9.30    7.90
  -4  -8   6    3.80    7.40
  -4  -8   6    2.70    5.10
   3   8  -6   32.70   10.80
  -3  -8   6   38.90    7.50
  -3  -8   6   49.99    9.40
   2   8  -6    5.20    8.40
  -2  -8   6    7.20    4.60
  -2  -8   6    5.40    7.80
   1   8  -6   19.00    6.10
   1   8  -6   24.30    9.90
  -1  -8   6   26.60    6.90
  -1  -8   6   23.60    6.10
  -1  -8   6   24.70    7.80
   0   8  -6  163.58   14.70
   0   8  -6  180.18   19.60
   0  -8   6  160.98   15.20
   0  -8   6  165.98   17.40
   0  -8   6  152.58   14.40
  -1   8  -6   43.10    8.80
  -1   8  -6   47.90   12.00
   1  -8   6   68.79   12.60
   1  -8   6   75.39   11.70
   1  -8   6   45.30    8.90
  -2   8  -6   36.00    9.10
  -2   8  -6   37.80   12.40
   2  -8   6   29.30    8.90
   2  -8   6   39.20   12.40
  -3   8  -6   71.79   15.50
  -3   8  -6   56.79   11.50
   3  -8   6   73.79   15.70
   3  -8   6   50.79   11.20
  -4   8  -6   48.60   15.00
   4  -8   6   33.80   11.40
   4  -8   6   53.79   13.30
   9   7  -6   20.10    9.60
   9   7  -6   25.10   13.80
  -9  -7   6   23.10    9.70
  -9  -7   6   26.70   11.90
   8   7  -6   91.59   18.30
   8   7  -6  133.89   16.40
  -8  -7   6  160.18   20.00
  -8  -7   6  116.89   15.70
   7   7  -6  179.68   15.20
  -7  -7   6  158.88   14.60
  -7  -7   6  197.38   20.20
   6   7  -6  174.88   15.50
  -6  -7   6  170.98   15.00
  -6  -7   6  194.78   18.90
   5   7  -6  229.78   16.70
  -5  -7   6  250.67   20.60
  -5  -7   6  215.28   16.20
   4   7  -6  404.26   33.50
   4   7  -6  449.36   26.20
  -4  -7   6  492.95   33.50
  -4  -7   6  425.26   25.80
  -4  -7   6  450.15   30.30
   3   7  -6  304.87   25.80
   3   7  -6  322.17   20.20
  -3  -7   6  360.56   25.00
  -3  -7   6  369.96   26.50
   2   7  -6  273.27   17.20
   2   7  -6  274.17   22.90
   2   7  -6  295.77   18.50
  -2  -7   6  290.27   20.80
  -2  -7   6  278.07   18.30
  -2  -7   6  313.87   23.40
   1   7  -6  435.96   26.90
   1   7  -6  441.76   32.00
  -1  -7   6  456.45   29.30
  -1  -7   6  408.96   26.70
  -1  -7   6  411.96   30.60
   0   7  -6  105.39   13.30
   0   7  -6  105.59   11.10
   0  -7   6  124.09   12.60
   0  -7   6  125.99   15.20
   0  -7   6  107.09   11.00
  -1   7  -6  234.88   21.80
  -1   7  -6  218.38   18.20
   1  -7   6  241.88   22.30
   1  -7   6  221.58   18.10
   1  -7   6  265.17   19.10
  -2   7  -6  249.97   21.80
  -2   7  -6  248.38   20.20
   2  -7   6  269.37   20.20
   2  -7   6  260.67   24.20
   2  -7   6  240.38   20.20
  -3   7  -6   53.79   10.40
  -3   7  -6   57.29   11.50
   3  -7   6   46.30   10.30
   3  -7   6   50.29   12.40
  -4   7  -6   21.20    9.60
  -4   7  -6   27.90   12.10
   4  -7   6   22.50    9.70
   4  -7   6   30.00   12.30
  -5   7  -6   26.80   11.00
  -5   7  -6   37.60   11.60
   5  -7   6   32.00   13.10
   5  -7   6   25.00   10.80
   9   6  -6   -0.50    8.60
   9   6  -6   19.20   12.60
  -9  -6   6    3.80    9.70
  -9  -6   6    0.00    8.40
   8   6  -6   -1.30   10.30
   8   6  -6    2.10    7.60
  -8  -6   6   -0.20    7.30
  -8  -6   6   -1.10    6.40
   7   6  -6    1.20   10.50
   7   6  -6    2.20    4.90
  -7  -6   6    1.80    4.70
  -7  -6   6    9.50    7.90
   6   6  -6    8.90    5.90
   6   6  -6    2.90    7.70
  -6  -6   6   16.40    7.60
  -6  -6   6    7.90    5.60
   5   6  -6   -2.20    4.30
  -5  -6   6   -1.80    4.10
  -5  -6   6    0.80    5.80
   4   6  -6   24.50   10.30
   4   6  -6   52.79    7.40
  -4  -6   6   42.50    7.00
  -4  -6   6   63.69   10.80
  -4  -6   6   56.29    8.50
   3   6  -6   61.79   11.20
   3   6  -6   83.19    7.80
  -3  -6   6   84.99    7.60
  -3  -6   6  103.29   11.40
  -3  -6   6  103.99   11.40
   2   6  -6   58.69   11.10
   2   6  -6   81.99    7.10
   2   6  -6   86.69    7.40
  -2  -6   6   90.89   10.70
  -2  -6   6   77.79    6.80
  -2  -6   6   83.09   10.50
   1   6  -6  127.09   14.50
   1   6  -6  122.99    8.40
   1   6  -6  115.09    9.90
  -1  -6   6  140.69   12.70
  -1  -6   6  134.09   12.50
   0   6  -6  273.87   22.30
   0   6  -6  259.87   18.40
   0  -6   6  291.17   20.70
   0  -6   6  283.17   22.20
  -1   6  -6   77.09    9.80
  -1   6  -6   76.69   12.60
   1  -6   6   85.19   12.90
   1  -6   6   85.59   11.70
  -2   6  -6  348.37   26.20
  -2   6  -6  308.37   22.30
   2  -6   6  354.36   24.70
   2  -6   6  319.17   25.80
  -3   6  -6  319.07   24.00
  -3   6  -6  323.67   25.50
   3  -6   6  310.87   24.10
   3  -6   6  337.47   25.00
   3  -6   6  358.76   28.30
  -4   6  -6   96.99   16.80
  -4   6  -6   95.69   12.30
   4  -6   6  114.89   17.90
   4  -6   6   87.19   12.30
  -5   6  -6   82.79   15.40
  -5   6  -6   71.69   12.90
   5  -6   6  108.29   19.00
   5  -6   6   92.89   15.90
  -6   6  -6   75.69   14.20
  -6   6  -6   70.99   16.50
   6  -6   6   93.49   17.30
   6  -6   6   75.09   13.80
   9   5  -6   20.10    9.60
   9   5  -6   51.69   13.70
  -9  -5   6   36.00   11.10
  -9  -5   6   26.80    9.70
   8   5  -6  197.18   18.90
   8   5  -6  256.57   24.20
  -8  -5   6  190.78   18.60
  -8  -5   6  192.28   21.00
   7   5  -6  255.57   23.10
   7   5  -6  185.98   15.80
  -7  -5   6  216.38   19.70
  -7  -5   6  181.28   15.60
   6   5  -6  212.68   17.30
   6   5  -6  278.07   23.50
  -6  -5   6  235.28   19.90
  -6  -5   6  216.68   17.10
   5   5  -6  395.06   28.50
   5   5  -6  345.07   22.10
  -5  -5   6  347.07   22.10
  -5  -5   6  385.96   26.40
   4   5  -6  398.76   33.20
   4   5  -6  482.65   27.30
  -4  -5   6  472.55   27.20
  -4  -5   6  523.35   32.10
  -4  -5   6  518.65   32.50
   3   5  -6  302.57   18.40
   3   5  -6  258.47   24.30
   3   5  -6  303.97   18.10
  -3  -5   6  340.37   22.40
  -3  -5   6  359.26   22.80
  -3  -5   6  303.57   18.30
   2   5  -6 1021.80   54.29
   2   5  -6  972.40   64.89
   2   5  -6 1020.90   57.79
  -2  -5   6 1101.99   62.29
  -2  -5   6 1021.30   54.19
  -2  -5   6 1087.89   64.49
   1   5  -6  853.01   54.29
   1   5  -6  853.71   48.40
   1   5  -6  845.02   44.50
  -1  -5   6  910.91   52.09
  -1  -5   6  865.81   53.89
  -1  -5   6  804.12   44.30
   0   5  -6  119.39   13.40
   0   5  -6  122.49   10.20
   0  -5   6  138.29   13.00
   0  -5   6  139.09   12.60
  -1   5  -6  295.27   20.30
  -1   5  -6  310.87   22.60
   1  -5   6  309.37   23.60
   1  -5   6  320.37   22.90
  -2   5  -6  376.26   25.20
  -2   5  -6  404.76   28.00
   2  -5   6  381.06   29.00
   2  -5   6  389.76   27.60
  -3   5  -6   93.29   12.80
  -3   5  -6   73.59   11.00
   3  -5   6   69.29   11.20
   3  -5   6   96.69   14.20
  -4   5  -6   75.59   12.20
  -4   5  -6   73.39   13.60
   4  -5   6   86.39   12.90
   4  -5   6   53.99   10.20
  -5   5  -6   53.69   11.70
  -5   5  -6   55.69   10.60
   5  -5   6   79.79   13.60
   5  -5   6   56.89   10.90
  -6   5  -6   -3.00    8.40
  -6   5  -6   -6.50    9.60
   6  -5   6    6.40   10.50
   6  -5   6   -4.00    8.60
  -7   5  -6   -3.40    9.70
  -7   5  -6   -4.80   11.50
   7  -5   6    7.20   11.50
   7  -5   6   -9.10    9.60
   9   4  -6    7.90    9.90
   9   4  -6   -5.40    8.00
  -9  -4   6   -0.80    8.00
  -9  -4   6   -3.50    8.20
   8   4  -6   -1.10    5.20
   8   4  -6   -0.70    8.80
  -8  -4   6    2.60    5.40
  -8  -4   6    5.70    7.70
   7   4  -6   26.50   10.00
  -7  -4   6   20.30    6.40
  -7  -4   6   18.90    7.00
   6   4  -6    8.60    8.40
  -6  -4   6   13.10    6.20
  -6  -4   6    9.90    5.50
   5   4  -6   30.00    8.90
  -5  -4   6   19.80    5.30
  -5  -4   6   21.80    5.40
   4   4  -6  345.07   24.40
  -4  -4   6  298.47   19.50
  -4  -4   6  318.17   22.50
   3   4  -6   98.99   14.10
   3   4  -6  143.19    9.00
  -3  -4   6  130.39    9.70
  -3  -4   6  144.29   11.20
  -3  -4   6  141.19   12.30
   2   4  -6  517.15   39.30
   2   4  -6  607.44   34.00
  -2  -4   6  628.64   38.00
  -2  -4   6  585.84   32.10
  -2  -4   6  648.94   37.60
   1   4  -6  418.76   24.60
   1   4  -6  392.56   29.10
  -1  -4   6  402.66   22.40
  -1  -4   6  424.26   27.70
  -1  -4   6  456.65   27.50
   0   4  -6  475.95   25.70
   0   4  -6  507.05   29.20
   0   4  -6  494.55   33.10
   0  -4   6  525.35   32.10
   0  -4   6  507.05   32.70
   0  -4   6  466.15   25.60
  -1   4  -6  570.94   36.70
  -1   4  -6  548.45   33.10
   1  -4   6  581.54   37.50
   1  -4   6  548.45   36.40
  -2   4  -6 1001.90   61.89
  -2   4  -6 1001.30   58.19
   2  -4   6 1026.70   64.49
   2  -4   6 1021.00   61.99
  -3   4  -6  504.95   32.60
  -3   4  -6  564.34   35.60
   3  -4   6  531.05   37.40
   3  -4   6  530.15   35.60
  -4   4  -6  226.58   19.60
  -4   4  -6  226.18   18.20
   4  -4   6  235.68   19.50
   4  -4   6  238.78   21.70
  -5   4  -6  268.57   21.80
  -5   4  -6  284.97   23.30
   5  -4   6  280.77   25.60
   5  -4   6  270.87   22.00
  -6   4  -6  210.78   18.40
  -6   4  -6  221.48   21.90
   6  -4   6  216.98   21.30
   6  -4   6  197.58   18.40
  -7   4  -6   97.99   16.40
  -7   4  -6  105.39   17.10
   7  -4   6  109.09   16.60
   7  -4   6  110.29   17.60
   9   3  -6  118.79   17.30
  -9  -3   6  100.09   15.80
  -9  -3   6   72.09   12.60
   8   3  -6  261.47   23.00
  -8  -3   6  226.38   18.90
  -8  -3   6  246.38   21.70
   7   3  -6  149.39   15.30
  -7  -3   6  155.08   15.80
  -7  -3   6  143.19   13.40
   6   3  -6  230.18   19.80
  -6  -3   6  212.78   18.00
  -6  -3   6  216.08   16.90
   5   3  -6  463.35   29.90
  -5  -3   6  396.86   25.30
  -5  -3   6  424.46   28.50
   4   3  -6  699.53   43.60
   4   3  -6  756.12   38.70
  -4  -3   6  629.74   37.40
  -4  -3   6  623.14   41.60
   3   3  -6 1201.98   64.59
   3   3  -6  970.40   57.99
  -3  -3   6  996.40   61.39
  -3  -3   6 1017.50   54.89
  -3  -3   6 1022.50   62.49
   2   3  -6  866.91   59.69
   2   3  -6  990.70   54.59
  -2  -3   6 1014.30   59.09
  -2  -3   6  994.20   51.29
  -2  -3   6 1001.60   58.09
   1   3  -6  438.06   25.00
   1   3  -6  366.46   28.50
  -1  -3   6  427.66   22.80
  -1  -3   6  449.76   27.40
  -1  -3   6  420.06   27.10
   0   3  -6  201.58   16.80
   0   3  -6  226.08   14.20
   0  -3   6  213.38   15.80
   0  -3   6  213.78   11.80
   0  -3   6  220.08   16.80
  -1   3  -6  451.05   29.70
  -1   3  -6  450.15   23.20
  -1   3  -6  476.15   27.30
   1  -3   6  467.35   30.40
   1  -3   6  437.46   30.10
   1  -3   6  433.06   23.20
  -2   3  -6  386.96   24.60
  -2   3  -6  406.36   28.30
  -2   3  -6  411.76   26.80
   2  -3   6  408.66   27.70
   2  -3   6  394.66   27.90
  -3   3  -6   26.50    5.90
  -3   3  -6   25.90    4.90
  -3   3  -6   19.10    7.10
   3  -3   6   24.80    7.10
   3  -3   6   21.10    6.20
  -4   3  -6   51.89    7.60
  -4   3  -6   65.09    9.70
  -4   3  -6   48.20   10.30
   4  -3   6   55.29   10.10
   4  -3   6   60.79    9.60
  -5   3  -6   58.69   11.20
  -5   3  -6   74.19   11.20
  -5   3  -6   82.29   11.80
   5  -3   6   82.39   14.30
   5  -3   6   89.49   11.10
  -6   3  -6    8.50    7.70
  -6   3  -6    5.10    7.10
  -6   3  -6    4.70    9.30
   6  -3   6   14.90    9.40
  -7   3  -6    5.90    6.10
  -7   3  -6   -2.30    8.40
   7  -3   6    6.00    9.80
   7  -3   6   -1.20    6.10
  -8   3  -6    3.10    9.00
   8  -3   6   -9.40    8.80
   8  -3   6   -1.30    7.70
   9   2  -6    5.90    9.30
  -9  -2   6   -1.40    8.20
   8   2  -6   12.80    8.80
  -8  -2   6   11.40    6.10
  -8  -2   6   16.20    7.20
   7   2  -6   17.40    8.40
  -7  -2   6   15.80    5.70
  -7  -2   6   19.50    6.60
   6   2  -6   58.29    9.70
  -6  -2   6   47.70    8.10
  -6  -2   6   63.79    9.80
   5   2  -6  265.17   15.80
   5   2  -6  257.47   19.90
  -5  -2   6  237.78   17.40
  -5  -2   6  250.07   18.60
   4   2  -6  610.34   33.90
   4   2  -6  605.64   38.30
  -4  -2   6  585.84   33.50
  -4  -2   6  570.94   36.60
   3   2  -6  542.55   32.90
   3   2  -6  487.55   29.20
  -3  -2   6  504.45   31.60
  -3  -2   6  494.25   28.30
   2   2  -6 1347.47   67.49
   2   2  -6 1239.58   72.39
  -2  -2   6 1156.58   70.39
  -2  -2   6 1134.29   72.09
  -2  -2   6 1142.19   62.89
   1   2  -6  996.90   54.99
   1   2  -6  883.51   58.99
  -1  -2   6  930.11   58.49
  -1  -2   6 1034.60   50.89
  -1  -2   6 1012.60   58.09
   0   2  -6  620.64   38.90
   0   2  -6  600.24   39.50
   0   2  -6  665.03   36.40
   0  -2   6  589.24   39.00
   0  -2   6  674.83   33.00
   0  -2   6  593.64   39.10
  -1   2  -6  528.95   30.60
  -1   2  -6  503.35   33.50
  -1   2  -6  507.35   32.80
   1  -2   6  562.84   27.10
   1  -2   6  475.65   33.50
   1  -2   6  514.05   33.40
  -2   2  -6 2331.97  137.69
  -2   2  -6 2370.66  132.29
  -2   2  -6 2197.48  139.79
   2  -2   6 2477.65  120.99
   2  -2   6 2157.48  139.69
   2  -2   6 2410.16  133.89
  -3   2  -6  737.63   44.50
  -3   2  -6  795.82   46.90
  -3   2  -6  682.73   49.60
   3  -2   6  814.12   43.40
   3  -2   6  863.41   46.90
   3  -2   6  699.03   49.50
  -4   2  -6  579.94   43.30
  -4   2  -6  656.23   38.90
  -4   2  -6  682.13   40.70
   4  -2   6  609.14   43.10
   4  -2   6  690.23   40.00
  -5   2  -6  460.85   37.50
  -5   2  -6  544.45   34.20
  -5   2  -6  530.85   32.90
   5  -2   6  490.15   37.00
   5  -2   6  544.65   33.10
  -6   2  -6  264.47   25.60
  -6   2  -6  315.37   22.90
  -6   2  -6  327.07   23.80
   6  -2   6  291.47   26.40
   6  -2   6  326.07   22.00
  -7   2  -6  258.37   21.20
  -7   2  -6  191.58   24.80
  -7   2  -6  265.37   22.90
   7  -2   6  243.58   23.00
   7  -2   6  271.77   19.90
  -8   2  -6  156.08   23.50
  -8   2  -6  207.58   20.30
   8  -2   6  204.38   23.70
   8  -2   6  217.98   20.80
   9   1  -6   71.29   12.60
  -9  -1   6   47.20    9.70
   8   1  -6  122.79   15.90
  -8  -1   6  104.49   16.00
   7   1  -6  100.19   13.80
  -7  -1   6  101.79   12.20
  -7  -1   6   96.99   11.70
   6   1  -6  235.78   15.80
   6   1  -6  245.08   19.20
  -6  -1   6  229.48   17.90
  -6  -1   6  228.98   18.30
   5   1  -6  356.16   20.80
   5   1  -6  352.86   23.80
  -5  -1   6  320.67   22.60
  -5  -1   6  317.67   21.10
   4   1  -6  439.66   24.10
   4   1  -6  414.96   27.10
  -4  -1   6  378.56   23.90
  -4  -1   6  389.96   25.90
   3   1  -6  523.25   33.30
   3   1  -6  545.55   30.20
  -3  -1   6  519.85   29.50
  -3  -1   6  503.85   32.10
   2   1  -6  969.00   57.29
   2   1  -6  884.61   53.29
  -2  -1   6 1014.20   50.89
  -2  -1   6  954.60   56.19
  -2  -1   6  940.61   60.79
   1   1  -6  733.53   41.20
   1   1  -6  667.23   40.20
  -1  -1   6  632.54   40.40
  -1  -1   6  583.24   40.20
  -1  -1   6  715.03   35.90
   0   1  -6  241.58   15.40
   0   1  -6  197.08   16.10
   0   1  -6  203.98   15.30
   0  -1   6  233.48   16.70
   0  -1   6  250.47   13.50
  -1   1  -6  475.95   27.10
  -1   1  -6  441.46   28.40
  -1   1  -6  374.26   28.70
   1  -1   6  474.15   23.90
   1  -1   6  448.96   28.60
  -2   1  -6  198.68   14.00
  -2   1  -6  205.58   13.90
   2  -1   6  208.28   14.70
   2  -1   6  202.68   11.50
  -3   1  -6   45.20    5.50
  -3   1  -6   44.60    5.60
  -3   1  -6   37.60    7.30
   3  -1   6   48.30    4.10
   3  -1   6   43.10    5.70
  -4   1  -6   51.79    9.80
  -4   1  -6   76.29    8.10
  -4   1  -6   76.49    8.60
   4  -1   6   77.69    5.30
   4  -1   6   71.49    8.10
  -5   1  -6   -5.80    7.30
  -5   1  -6    8.80    4.30
  -5   1  -6    8.20    5.00
   5  -1   6    9.90    2.30
   5  -1   6   -4.60    6.60
   5  -1   6    8.90    4.10
  -6   1  -6   15.30    5.90
  -6   1  -6   17.40    5.20
  -6   1  -6   -1.40    8.70
   6  -1   6   13.90    5.30
   6  -1   6   -0.20    8.00
  -7   1  -6    6.10    6.30
  -7   1  -6   -8.30    9.70
   7  -1   6   -4.30    5.00
   7  -1   6   -9.90    8.30
  -8   1  -6   12.70    7.70
  -8   1  -6    0.10   10.80
   8  -1   6   -1.20    5.80
   8  -1   6    1.10    9.60
  -9   1  -6    9.50    8.80
  -9   1  -6   -2.40   11.20
   9  -1   6   -3.60   10.20
   9  -1   6    2.20    8.50
   8   0  -6   37.60   10.00
  -8   0   6   23.10    9.10
   7   0  -6   13.60    7.60
  -7   0   6    8.10    7.20
   6   0  -6  155.38   14.60
   6   0  -6  149.69   12.10
  -6   0   6  150.18   14.60
  -6   0   6  146.99   13.60
   5   0  -6  368.16   21.90
   5   0  -6  353.76   23.60
  -5   0   6  341.57   22.70
  -5   0   6  333.57   22.80
   4   0  -6  526.45   29.10
   4   0  -6  498.65   31.40
  -4   0   6  459.35   30.20
  -4   0   6  482.05   29.00
   3   0  -6 1012.00   53.79
   3   0  -6  977.80   57.29
  -3   0   6  950.50   51.79
  -3   0   6  890.91   55.79
   2   0  -6  566.34   32.40
   2   0  -6  570.74   34.60
  -2   0   6  564.04   31.50
  -2   0   6  551.24   34.10
   1   0  -6  837.02   50.99
   1   0  -6  941.01   54.19
  -1   0   6  943.81   48.60
  -1   0   6  914.71   54.19
   0   0  -6 2105.99  114.99
   0   0  -6 1932.01  105.69
   0   0  -6 1787.52  108.09
   0   0   6 1682.73   97.59
   0   0   6 1645.24  105.39
  -1   0  -6 3098.29  174.28
  -1   0  -6 2683.03  179.58
   1   0   6 3248.18  162.48
   1   0   6 3118.69  181.68
  -2   0  -6 4030.20  231.28
  -2   0  -6 3837.42  310.47
   2   0   6 4171.08  239.78
   2   0   6 4157.68  280.17
  -3   0  -6  799.62   46.30
  -3   0  -6  783.32   47.20
   3   0   6  796.42   47.20
   3   0   6  817.22   41.60
  -4   0  -6 1672.73   90.49
  -4   0  -6 1331.67   83.89
  -4   0  -6 1364.76   80.89
   4   0   6 1378.96   82.79
   4   0   6 1460.85   75.59
  -5   0  -6 1254.77   78.39
  -5   0  -6 1332.47   84.79
  -5   0  -6 1272.07   75.39
   5   0   6 1368.66   77.39
   5   0   6 1421.86   68.89
  -6   0  -6  600.24   45.50
  -6   0  -6  637.24   38.50
  -6   0  -6  594.84   39.60
   6   0   6  665.53   39.10
   6   0   6  659.03   34.10
  -7   0  -6  418.06   36.50
  -7   0  -6  459.65   29.70
   7   0   6  507.05   29.90
   7   0   6  386.26   34.70
  -8   0  -6  210.18   26.20
  -8   0  -6  244.98   20.00
   8   0   6  201.58   24.80
   8   0   6  275.47   19.60
  -9   0  -6   37.40    9.40
  -9   0  -6   26.40   13.70
   9   0   6   24.00   12.20
   9   0   6   37.30    9.60
   9   0   6   36.80    8.50
   8  -1  -6   48.00   11.10
  -8   1   6   43.20   10.30
   7  -1  -6  154.48   16.40
   7  -1  -6  146.89   13.70
  -7   1   6  134.19   16.20
   6  -1  -6  151.38   13.20
   6  -1  -6  160.98   15.30
  -6   1   6  152.28   15.20
   5  -1  -6  143.69   11.60
   5  -1  -6  139.29   13.00
  -5   1   6  131.89   11.30
  -5   1   6  141.79   12.20
   4  -1  -6  278.57   17.40
   4  -1  -6  266.77   18.70
  -4   1   6  266.87   17.70
  -4   1   6  243.28   17.00
   3  -1  -6  686.03   41.10
   3  -1  -6  732.43   39.90
   3  -1  -6  708.03   42.10
  -3   1   6  654.73   40.70
  -3   1   6  678.83   38.70
   2  -1  -6  786.32   41.70
   2  -1  -6  723.33   43.70
   2  -1  -6  713.23   43.40
  -2   1   6  709.23   42.90
  -2   1   6  718.23   40.20
   1  -1  -6  121.99    8.60
   1  -1  -6  127.09    9.20
   1  -1  -6  128.49    9.10
  -1   1   6  118.39   10.20
  -1   1   6  123.29   10.00
   0  -1  -6   26.90    3.90
   0  -1  -6   19.70    4.00
   0  -1  -6   24.70    3.80
   0   1   6   23.70    4.80
   0   1   6   24.50    4.20
  -1  -1  -6  289.67   17.70
  -1  -1  -6  267.07   17.00
   1   1   6  246.38   17.20
   1   1   6  253.97   15.50
  -2  -1  -6   13.90    4.00
  -2  -1  -6    9.90    2.20
  -2  -1  -6    3.70    4.10
   2   1   6    8.10    2.50
   2   1   6    9.40    2.30
  -3  -1  -6   30.50    6.80
  -3  -1  -6   26.30    5.40
  -3  -1  -6   26.50    3.00
   3   1   6   30.30    4.00
   3   1   6   21.70    4.00
  -4  -1  -6    4.10    3.70
  -4  -1  -6    1.10    5.90
  -4  -1  -6    0.10    1.90
   4   1   6    1.50    2.00
   4   1   6    2.20    2.20
  -5  -1  -6  282.17   18.40
  -5  -1  -6  234.58   17.00
   5   1   6  280.97   15.50
   5   1   6  260.87   17.70
  -6  -1  -6   22.80    5.00
  -6  -1  -6   23.40    8.50
   6   1   6   19.00    3.70
   6   1   6   17.50    5.20
  -7  -1  -6  -13.00    9.80
  -7  -1  -6    7.50    5.40
   7   1   6    5.70    3.60
   7   1   6    3.40    5.20
  -8  -1  -6   72.59   10.90
  -8  -1  -6   60.19   14.00
   8   1   6   73.89   13.50
   8   1   6   66.09   11.30
  -9  -1  -6   15.80   13.80
  -9  -1  -6   23.60    8.50
   9   1   6   26.60    7.90
   9   1   6   26.10   13.00
   8  -2  -6   39.00    9.50
  -8   2   6   39.60   10.60
   7  -2  -6   39.10   10.20
   7  -2  -6   41.00    8.40
  -7   2   6   35.00    9.10
   6  -2  -6  249.88   18.80
   6  -2  -6  273.57   20.70
  -6   2   6  219.38   18.30
   5  -2  -6  396.36   25.50
   5  -2  -6  411.76   27.20
  -5   2   6  372.66   25.90
  -5   2   6  403.26   27.40
   4  -2  -6  183.28   14.40
   4  -2  -6  179.48   13.60
  -4   2   6  181.88   14.50
  -4   2   6  159.48   14.50
   3  -2  -6  690.43   40.50
   3  -2  -6  643.34   40.00
   3  -2  -6  708.53   38.90
  -3   2   6  642.44   37.70
  -3   2   6  679.33   40.60
  -3   2   6  622.94   38.70
   2  -2  -6 2167.68  132.99
   2  -2  -6 2343.57  123.89
   2  -2  -6 2185.08  133.79
  -2   2   6 2218.48  132.29
  -2   2   6 2162.78  115.69
   1  -2  -6 1806.12   99.29
   1  -2  -6 1644.64  130.59
   1  -2  -6 1716.43  106.19
  -1   2   6 1782.62  104.29
  -1   2   6 1760.52   91.49
  -1   2   6 1692.43   99.89
   0  -2  -6 2404.76  145.69
   0  -2  -6 2387.66  141.49
   0  -2  -6 2352.96  136.29
   0   2   6 2288.07  137.09
   0   2   6 2376.16  127.59
  -1  -2  -6 2608.44  167.48
  -1  -2  -6 3135.89  177.78
  -1  -2  -6 2996.40  183.68
   1   2   6 3134.29  177.68
   1   2   6 3157.18  161.88
  -2  -2  -6 2143.39  129.09
  -2  -2  -6 1886.01  132.59
  -2  -2  -6 2426.06  127.59
   2   2   6 2201.78  129.99
   2   2   6 2286.37  117.49
  -3  -2  -6 2359.26  125.19
   3   2   6 2226.18  119.99
   3   2   6 2135.99  131.39
  -4  -2  -6 1589.34  101.79
  -4  -2  -6 1701.53   93.29
   4   2   6 1668.63   96.89
   4   2   6 1665.03   85.49
  -5  -2  -6 1212.78   69.49
   5   2   6 1239.88   63.69
   5   2   6 1203.08   70.89
  -6  -2  -6  616.34   38.40
   6   2   6  671.43   35.10
   6   2   6  632.74   39.10
  -7  -2  -6  620.74   40.20
   7   2   6  702.33   41.80
   7   2   6  681.83   36.90
  -8  -2  -6  246.28   19.80
  -8  -2  -6  250.27   28.80
   8   2   6  275.27   17.60
   8   2   6  276.17   21.00
  -9  -2  -6   58.49   14.60
   9   2   6   57.49   10.30
   7  -3  -6   40.70    9.40
   7  -3  -6   41.40    9.30
  -7   3   6   51.09   10.10
  -7   3   6   44.20   10.10
   6  -3  -6   89.99   10.90
   6  -3  -6   95.69   14.10
  -6   3   6   83.09   11.70
  -6   3   6  112.49   14.90
   5  -3  -6   93.09   10.60
   5  -3  -6   88.29    9.90
  -5   3   6   78.99   12.40
  -5   3   6   96.09   10.80
   4  -3  -6  134.79   11.50
   4  -3  -6  128.89   12.10
  -4   3   6  115.49   11.90
  -4   3   6  128.19   11.50
   3  -3  -6  147.89   11.30
   3  -3  -6  134.29   10.50
   3  -3  -6  141.49   11.40
  -3   3   6  157.68   11.70
  -3   3   6  135.29   13.40
   2  -3  -6   38.10    5.40
   2  -3  -6   37.10    6.10
   2  -3  -6   36.30    4.80
  -2   3   6   35.70    6.10
  -2   3   6   37.00    3.80
  -2   3   6   25.50    6.30
   1  -3  -6  176.58   12.10
   1  -3  -6  161.38   11.70
   1  -3  -6  172.78   11.70
  -1   3   6  168.08   11.80
  -1   3   6  161.68   13.40
  -1   3   6  155.68   11.70
   0  -3  -6   10.20    3.20
   0  -3  -6    7.70    2.70
   0  -3  -6    9.40    2.50
   0   3   6    5.20    2.90
   0   3   6    7.20    3.20
   0   3   6   10.60    2.60
  -1  -3  -6    9.40    2.10
  -1  -3  -6    9.30    2.80
  -1  -3  -6    9.00    3.40
   1   3   6   12.50    2.20
   1   3   6    6.90    3.30
   1   3   6    9.90    2.80
  -2  -3  -6   36.90    6.20
  -2  -3  -6   39.90    3.40
  -2  -3  -6   48.10    6.50
   2   3   6   40.10    4.80
   2   3   6   37.70    5.10
  -3  -3  -6   33.70    6.40
  -3  -3  -6   29.80    5.90
   3   3   6   35.00    4.40
   3   3   6   41.00    5.20
  -4  -3  -6   99.99   10.50
  -4  -3  -6   87.19   11.30
   4   3   6   96.99    7.30
  -5  -3  -6  181.38   13.10
  -5  -3  -6  178.08   13.40
  -5  -3  -6  146.79   15.60
   5   3   6  183.68   11.80
  -6  -3  -6   72.29    8.60
  -6  -3  -6   76.19   13.20
  -6  -3  -6   71.19    9.20
   6   3   6   69.79    7.70
  -7  -3  -6  136.69   12.30
  -7  -3  -6  148.89   12.80
   7   3   6  141.99   11.70
  -8  -3  -6  214.38   17.10
   8   3   6  243.58   16.50
  -9  -3  -6   11.20   14.50
   9   3   6   26.00    6.60
   7  -4  -6   43.90   11.90
   7  -4  -6   39.30   10.40
  -7   4   6   55.49   12.80
  -7   4   6   39.80   10.10
   6  -4  -6  169.18   17.20
   6  -4  -6  166.48   16.40
  -6   4   6  181.38   17.00
  -6   4   6  160.78   17.80
   5  -4  -6  149.99   15.60
   5  -4  -6  169.28   16.70
  -5   4   6  184.98   17.10
  -5   4   6  139.59   16.30
   4  -4  -6  200.08   15.60
   4  -4  -6  178.88   14.80
  -4   4   6  174.88   17.10
  -4   4   6  203.78   15.60
   3  -4  -6  597.24   36.50
   3  -4  -6  626.14   38.40
   3  -4  -6  587.94   38.00
  -3   4   6  631.94   38.40
  -3   4   6  594.54   36.90
   2  -4  -6 1446.46   84.29
   2  -4  -6 1520.25   88.49
   2  -4  -6 1482.05   90.19
  -2   4   6 1563.34   81.69
  -2   4   6 1510.65   88.39
   1  -4  -6  855.31   52.29
   1  -4  -6  870.31   49.30
  -1   4   6  885.81   48.60
  -1   4   6  821.72   49.10
  -1   4   6  855.11   50.99
   0  -4  -6 1792.22  106.09
   0  -4  -6 1756.12   98.39
   0   4   6 1798.32  106.49
   0   4   6 1681.33  101.29
   0   4   6 1850.91   93.89
  -1  -4  -6 1485.55   83.89
  -1  -4  -6 1561.94   90.69
   1   4   6 1499.65   86.89
   1   4   6 1449.85   79.19
   1   4   6 1537.85   90.49
  -2  -4  -6 1353.06   77.19
  -2  -4  -6 1146.99   72.79
  -2  -4  -6 1339.97   78.99
   2   4   6 1251.07   68.29
   2   4   6 1286.47   74.39
   2   4   6 1429.36   77.89
  -3  -4  -6 2624.74  136.49
  -3  -4  -6 2325.87  143.19
   3   4   6 2231.38  126.09
  -4  -4  -6 1512.35   97.09
  -4  -4  -6 1661.13   90.69
  -4  -4  -6 1592.24   91.49
   4   4   6 1593.54   82.79
  -5  -4  -6  691.53   41.50
  -5  -4  -6  606.64   44.90
  -5  -4  -6  741.73   41.80
   5   4   6  687.73   37.30
  -6  -4  -6  772.02   46.60
  -6  -4  -6  745.53   45.40
   6   4   6  782.22   42.00
  -7  -4  -6  914.91   54.99
  -7  -4  -6  927.81   61.19
  -7  -4  -6  817.72   52.29
   7   4   6  950.00   49.40
  -8  -4  -6  231.18   19.10
  -8  -4  -6  299.47   26.30
   8   4   6  232.68   17.50
  -9  -4  -6  133.29   14.10
  -9  -4  -6  139.29   25.50
   9   4   6  117.79   13.10
 -10  -4  -6   44.50   19.00
  10   4   6   58.69    9.30
   6  -5  -6   19.80    8.50
   6  -5  -6   20.60    7.70
  -6   5   6   29.80    8.90
  -6   5   6   16.10    8.30
   5  -5  -6    5.50    8.30
   5  -5  -6    1.60    7.20
  -5   5   6    2.60    7.00
  -5   5   6    8.20    8.10
   4  -5  -6   44.20    7.70
   4  -5  -6   42.20    9.30
  -4   5   6   52.89    9.50
  -4   5   6   42.30    9.40
   3  -5  -6   44.00    8.00
   3  -5  -6   41.30    7.80
   3  -5  -6   40.80    7.00
  -3   5   6   42.50    9.20
  -3   5   6   50.89    7.90
   2  -5  -6   86.49    8.90
   2  -5  -6   73.29    8.60
  -2   5   6   69.69   10.50
  -2   5   6   78.49    9.60
   1  -5  -6   33.10    5.70
   1  -5  -6   37.20    6.40
  -1   5   6   39.10    6.40
  -1   5   6   23.10    7.60
   0  -5  -6   -2.10    3.70
   0  -5  -6   -1.10    3.30
   0   5   6    0.00    2.40
   0   5   6   -1.70    2.60
   0   5   6   -5.30    4.50
  -1  -5  -6   69.69    7.60
  -1  -5  -6   67.09    7.10
   1   5   6   65.49    5.90
   1   5   6   62.79    5.80
   1   5   6   65.99    7.40
  -2  -5  -6    2.80    2.70
  -2  -5  -6    3.20    3.10
   2   5   6    2.30    2.00
   2   5   6    1.20    2.10
   2   5   6    0.40    3.30
  -3  -5  -6  110.69    9.00
  -3  -5  -6   82.99    9.60
  -3  -5  -6  106.99   11.00
   3   5   6  102.99    8.70
   3   5   6  112.89    6.80
  -4  -5  -6  645.34   43.20
  -4  -5  -6  712.93   40.80
  -4  -5  -6  654.63   39.90
   4   5   6  633.14   36.20
  -5  -5  -6  171.58   16.00
  -5  -5  -6  169.08   15.40
  -5  -5  -6  183.58   14.30
   5   5   6  194.38   13.40
  -6  -5  -6  375.76   24.30
  -6  -5  -6  316.57   27.00
  -6  -5  -6  355.46   24.30
   6   5   6  362.36   21.50
  -7  -5  -6  392.06   25.60
  -7  -5  -6  391.26   26.70
   7   5   6  401.76   24.00
  -8  -5  -6  231.78   20.10
  -8  -5  -6  264.77   26.80
   8   5   6  225.98   16.60
  -9  -5  -6  132.19   24.50
  -9  -5  -6  107.29   15.70
   9   5   6  114.59   13.40
 -10  -5  -6  162.28   29.50
 -10  -5  -6  157.08   18.90
  10   5   6  152.48   16.10
   5  -6  -6   55.09   12.20
   5  -6  -6   51.69    9.70
  -5   6   6   71.19   12.40
  -5   6   6   42.30   10.00
   4  -6  -6  246.68   21.30
   4  -6  -6  204.88   19.80
  -4   6   6  258.67   20.80
  -4   6   6  193.88   20.70
   3  -6  -6  331.27   25.50
   3  -6  -6  362.06   24.80
  -3   6   6  397.66   26.40
  -3   6   6  369.06   26.20
   2  -6  -6  537.55   33.80
   2  -6  -6  527.65   35.70
  -2   6   6  558.64   35.10
  -2   6   6  560.44   35.10
   1  -6  -6  705.93   41.60
  -1   6   6  677.93   42.50
  -1   6   6  689.83   42.20
   0  -6  -6 1236.68   75.59
   0  -6  -6 1235.38   70.19
   0   6   6 1225.68   72.79
   0   6   6 1236.38   67.89
  -1  -6  -6  937.31   53.09
  -1  -6  -6  937.21   57.49
   1   6   6  932.41   51.49
   1   6   6  880.71   53.09
   1   6   6  935.11   54.59
  -2  -6  -6 1016.30   57.59
  -2  -6  -6 1050.39   62.79
   2   6   6  992.00   58.89
   2   6   6  974.40   54.69
  -3  -6  -6 1428.36   85.59
  -3  -6  -6 1235.58   78.39
  -3  -6  -6 1534.05   80.59
   3   6   6 1376.96   73.79
  -4  -6  -6  829.02   46.30
  -4  -6  -6  741.63   49.50
  -4  -6  -6  774.52   46.10
   4   6   6  729.53   42.20
  -5  -6  -6  659.23   44.20
  -5  -6  -6  679.03   40.90
  -5  -6  -6  665.83   42.10
   5   6   6  652.03   37.00
  -6  -6  -6  614.74   44.60
  -6  -6  -6  650.73   40.40
   6   6   6  663.03   36.80
  -7  -6  -6  383.46   25.70
  -7  -6  -6  329.47   30.60
   7   6   6  390.66   23.90
  -8  -6  -6  139.19   15.70
  -8  -6  -6  107.29   19.50
   8   6   6  145.69   14.10
  -9  -6  -6  166.78   25.20
  -9  -6  -6  157.28   18.10
   9   6   6  157.98   15.90
   5  -7  -6    4.90   10.00
   5  -7  -6   -7.30   10.50
  -5   7   6   13.80   10.60
   4  -7  -6   15.40    9.40
  -4   7   6    9.40    8.30
  -4   7   6   18.40    9.50
   3  -7  -6    2.70    5.70
  -3   7   6    0.90    5.50
  -3   7   6   -5.50    8.00
   2  -7  -6   21.60    6.50
   2  -7  -6   17.70    7.00
  -2   7   6   10.10    9.00
  -2   7   6   22.00    7.50
   1  -7  -6    2.10    6.10
   1  -7  -6   -2.50    5.50
  -1   7   6    0.70    5.30
   0  -7  -6   20.90    6.40
   0  -7  -6   14.80    6.30
   0   7   6   14.10    6.00
   0   7   6   17.60    5.10
  -1  -7  -6   89.99   11.40
  -1  -7  -6   81.89    8.90
   1   7   6   83.79    8.30
   1   7   6   80.29   12.70
  -2  -7  -6   93.49   10.30
  -2  -7  -6  103.49   10.10
   2   7   6   88.89    8.10
   2   7   6   78.49   11.40
   2   7   6   90.19    7.70
  -3  -7  -6  412.06   28.30
  -3  -7  -6  364.26   25.00
  -3  -7  -6  418.76   25.10
   3   7   6  381.56   24.30
  -4  -7  -6  922.91   55.99
  -4  -7  -6  966.70   60.59
  -4  -7  -6  987.50   56.69
   4   7   6  940.21   52.39
  -5  -7  -6   84.79   13.10
  -5  -7  -6   80.09   13.50
  -5  -7  -6   88.79   10.40
   5   7   6   82.09    9.70
  -6  -7  -6  376.96   29.70
  -6  -7  -6  395.36   26.40
   6   7   6  407.86   25.30
  -7  -7  -6  444.96   31.00
  -7  -7  -6  440.46   35.80
   7   7   6  471.15   28.60
  -8  -7  -6  262.37   21.70
  -8  -7  -6  225.28   26.00
   8   7   6  252.07   18.20
  -9  -7  -6  158.78   24.60
  -9  -7  -6  201.68   20.00
   9   7   6  189.38   16.00
   4  -8  -6  150.78   20.20
  -4   8   6  175.28   20.20
   3  -8  -6  173.68   19.50
  -3   8   6  144.89   20.30
  -3   8   6  185.88   18.70
   2  -8  -6  222.98   20.20
   2  -8  -6  208.18   19.60
  -2   8   6  222.98   19.30
  -2   8   6  190.78   20.00
   1  -8  -6  392.36   30.20
   1  -8  -6  445.46   29.20
  -1   8   6  401.86   29.80
  -1   8   6  419.96   28.60
   0  -8  -6  512.55   32.10
   0  -8  -6  477.65   34.10
   0   8   6  472.35   31.50
   0   8   6  476.05   32.00
  -1  -8  -6  329.67   24.40
  -1  -8  -6  339.57   23.20
   1   8   6  313.07   22.00
   1   8   6  330.27   22.90
  -2  -8  -6  652.73   38.50
  -2  -8  -6  658.63   42.60
   2   8   6  602.94   37.90
   2   8   6  612.54   38.70
  -3  -8  -6  465.65   32.30
  -3  -8  -6  459.85   29.30
  -3  -8  -6  499.05   29.10
   3   8   6  425.96   27.90
  -4  -8  -6  191.58   14.40
  -4  -8  -6  149.29   14.30
  -4  -8  -6  184.18   16.50
   4   8   6  181.38   14.70
  -5  -8  -6  453.05   28.00
  -5  -8  -6  391.06   30.30
  -5  -8  -6  371.76   26.40
   5   8   6  370.56   24.40
  -6  -8  -6  369.06   29.40
  -6  -8  -6  399.36   27.00
   6   8   6  380.96   24.40
  -7  -8  -6  165.28   21.20
  -7  -8  -6  156.38   16.30
   7   8   6  152.68   14.50
  -8  -8  -6  114.19   15.30
  -8  -8  -6   95.39   16.40
   8   8   6   76.69   11.30
  -9  -8  -6   45.60   14.60
  -9  -8  -6   39.80    8.90
   9   8   6   35.80    9.40
   3  -9  -6   11.50   10.70
  -3   9   6   13.80   10.10
   2  -9  -6   -7.90    8.10
   2  -9  -6    1.70    7.10
  -2   9   6    1.80    8.40
  -2   9   6  -11.10    8.50
   1  -9  -6   22.90    9.10
   1  -9  -6   23.40    7.70
  -1   9   6   21.60    8.20
  -1   9   6    1.00    9.50
   0  -9  -6   78.99   14.70
   0  -9  -6   87.29   14.00
   0   9   6   79.49   12.60
   0   9   6   64.59   12.90
  -1  -9  -6   84.39   12.80
  -1  -9  -6   87.59   14.60
   1   9   6   70.89   11.70
  -2  -9  -6  193.48   18.90
  -2  -9  -6  179.08   15.90
   2   9   6  149.19   16.80
  -3  -9  -6  211.78   18.50
  -3  -9  -6  197.78   16.50
   3   9   6  196.98   18.80
  -4  -9  -6  200.78   16.70
  -4  -9  -6  226.38   19.40
   4   9   6  205.28   16.30
  -5  -9  -6  274.77   23.00
  -5  -9  -6  268.07   20.30
   5   9   6  267.37   22.00
  -6  -9  -6  403.36   28.00
  -6  -9  -6  393.96   32.40
   6   9   6  392.06   26.30
  -7  -9  -6  302.97   28.90
  -7  -9  -6  300.67   23.90
   7   9   6  302.37   21.60
  -8  -9  -6  188.28   21.70
  -8  -9  -6  180.68   17.30
   8   9   6  183.38   19.30
   1 -10  -6  225.38   22.00
   1 -10  -6  204.88   22.40
  -1  10   6  207.28   19.90
  -1  10   6  200.98   24.60
   0 -10  -6  131.69   16.00
   0 -10  -6  152.38   17.80
   0  10   6  131.39   15.30
   0  10   6  131.29   20.60
  -1 -10  -6  187.08   20.60
  -1 -10  -6  191.28   18.60
   1  10   6  174.68   18.00
  -2 -10  -6  242.68   20.00
  -2 -10  -6  241.18   21.60
   2  10   6  244.48   23.70
  -3 -10  -6  117.89   13.90
  -3 -10  -6  139.29   18.60
   3  10   6  127.09   18.00
  -4 -10  -6  152.88   17.00
   4  10   6  144.99   14.50
  -5 -10  -6  234.08   21.80
   5  10   6  230.68   21.20
  -6 -10  -6  142.99   17.50
  -6 -10  -6  125.29   16.10
   6  10   6  137.39   15.90
  -7 -10  -6   51.19   14.10
  -7 -10  -6   46.90    9.80
   7  10   6   45.40    9.80
  -8 -10  -6   27.00    9.50
  -8 -10  -6   46.40   14.90
   8  10   6   31.00   11.00
  -1 -11  -6   19.60    9.60
  -1 -11  -6   20.00   11.80
   1  11   6   25.20   10.60
  -2 -11  -6  119.39   16.70
  -2 -11  -6  120.19   15.80
   2  11   6  123.79   18.60
  -3 -11  -6  187.78   18.30
  -3 -11  -6  235.08   23.90
   3  11   6  187.18   20.50
  -4 -11  -6  207.18   23.40
   4  11   6  173.68   21.50
  -5 -11  -6  291.77   27.80
   5  11   6  255.57   22.90
  -6 -11  -6  161.88   19.90
   6  11   6  171.38   18.60
   5  11  -7   43.70   15.70
  -5 -11   7   45.50   10.90
   4  11  -7   59.99   16.50
  -4 -11   7   57.89   11.20
  -4 -11   7   38.50   15.40
   3  11  -7   69.09   15.00
  -3 -11   7   83.89   17.80
  -3 -11   7   62.69   12.30
   2  11  -7   51.39   14.20
  -2 -11   7   54.79   14.10
   1  11  -7   18.40   12.00
  -1 -11   7   32.60   15.70
   6  10  -7   -6.30   11.40
  -6 -10   7    1.60   10.00
   5  10  -7    2.40   12.20
  -5 -10   7   18.80   10.40
   4  10  -7   -1.20   11.80
  -4 -10   7    3.40    9.00
  -4 -10   7    5.90   12.30
   3  10  -7   14.40   12.60
  -3 -10   7   19.70    9.00
  -3 -10   7   15.50    9.60
   2  10  -7   56.39   15.70
  -2 -10   7   61.69   15.20
  -2 -10   7   54.39   10.70
   1  10  -7   18.80   13.70
  -1 -10   7   28.00   13.30
   0  10  -7   23.90   11.60
   0 -10   7   26.10   14.10
  -1  10  -7   52.19   16.70
   1 -10   7   52.09   10.70
   1 -10   7   60.89   14.90
   7   9  -7   65.59   17.10
   7   9  -7  115.19   15.40
  -7  -9   7  105.59   15.90
   6   9  -7   56.99   15.80
   6   9  -7   95.99   13.30
  -6  -9   7  106.59   18.00
   5   9  -7   48.70   14.50
  -5  -9   7   95.09   16.50
   4   9  -7  108.09   17.20
  -4  -9   7  151.98   19.90
  -4  -9   7  140.69   15.50
   3   9  -7  124.59   20.30
  -3  -9   7  148.29   19.70
  -3  -9   7  163.98   17.90
   2   9  -7   75.39   15.90
  -2  -9   7   91.89   17.50
  -2  -9   7  110.29   14.80
   1   9  -7   47.70   12.20
  -1  -9   7   56.79   10.10
  -1  -9   7   63.69   12.40
   0   9  -7   54.09   15.00
   0   9  -7   57.09    9.80
   0  -9   7   67.09   11.70
   0  -9   7   86.49   12.80
   0  -9   7   58.39   14.90
  -1   9  -7   38.80   14.30
  -1   9  -7   45.90    9.90
   1  -9   7   38.80    9.40
   1  -9   7   47.00   14.50
  -2   9  -7   15.20   11.00
  -2   9  -7   15.50    9.30
   2  -9   7   20.40    9.30
   2  -9   7   29.00   14.10
  -3   9  -7   13.20   15.70
   3  -9   7   25.00   14.90
   3  -9   7   17.30   10.20
   8   8  -7    2.30    6.20
   8   8  -7  -15.60   12.30
  -8  -8   7   -1.50    5.90
  -8  -8   7    7.70   11.00
   7   8  -7    7.90    5.80
   7   8  -7  -22.50   11.50
  -7  -8   7    1.00    5.10
  -7  -8   7   10.10    9.90
   6   8  -7    0.90   12.20
   6   8  -7   28.60    7.60
  -6  -8   7   20.20    7.00
  -6  -8   7   29.80   10.40
   5   8  -7   16.00    9.90
   5   8  -7   27.60    6.50
  -5  -8   7   22.70    6.20
  -5  -8   7   31.00    9.80
   4   8  -7   37.50    6.80
   4   8  -7   14.00   11.30
  -4  -8   7   37.90   10.10
  -4  -8   7   42.20    9.70
   3   8  -7   96.59   15.30
  -3  -8   7  133.49   15.50
  -3  -8   7  128.89   16.70
   2   8  -7  125.69   19.20
  -2  -8   7  156.38   16.30
  -2  -8   7  154.38   18.10
   1   8  -7   75.39   14.70
   1   8  -7   94.09   10.60
  -1  -8   7  109.19   13.70
  -1  -8   7  103.09   16.10
  -1  -8   7   89.19   11.10
   0   8  -7  194.38   22.60
   0   8  -7  208.18   17.00
   0  -8   7  211.38   22.40
   0  -8   7  185.28   16.60
   0  -8   7  220.88   18.70
  -1   8  -7  212.78   23.40
  -1   8  -7  181.48   16.30
   1  -8   7  233.98   19.70
   1  -8   7  170.28   16.00
   1  -8   7  229.58   23.60
  -2   8  -7   66.19   15.10
  -2   8  -7   79.69   13.90
   2  -8   7   62.99   11.20
   2  -8   7   84.89   16.20
  -3   8  -7   57.59   11.80
  -3   8  -7   57.79   16.10
   3  -8   7   62.19   11.90
   3  -8   7   60.09   13.70
  -4   8  -7  104.89   19.90
  -4   8  -7  107.49   15.40
   4  -8   7  138.09   23.60
   4  -8   7  112.79   15.20
   8   7  -7   51.39   10.60
   8   7  -7   63.79   16.60
  -8  -7   7   50.19   13.00
  -8  -7   7   51.19   10.50
   7   7  -7  140.09   14.10
   7   7  -7  120.89   22.60
  -7  -7   7  175.08   20.00
  -7  -7   7  138.59   15.50
   6   7  -7  131.49   12.40
   6   7  -7   84.39   17.60
  -6  -7   7  152.78   17.50
  -6  -7   7  131.09   13.60
   5   7  -7   71.79   15.80
   5   7  -7  108.49   11.60
  -5  -7   7  107.39   13.00
  -5  -7   7   94.69   11.10
   4   7  -7  224.18   16.00
  -4  -7   7  232.28   20.20
  -4  -7   7  218.28   21.00
  -4  -7   7  200.58   15.40
   3   7  -7  212.18   14.20
   3   7  -7  177.38   21.40
  -3  -7   7  221.38   19.80
  -3  -7   7  200.28   13.80
  -3  -7   7  236.18   19.30
   2   7  -7   16.50    9.90
  -2  -7   7   32.40    8.60
  -2  -7   7   35.50    7.10
   1   7  -7  228.18   16.60
   1   7  -7  230.38   22.60
  -1  -7   7  233.28   21.20
  -1  -7   7  251.37   19.90
   0   7  -7  154.28   13.60
   0   7  -7  142.19   16.50
   0  -7   7  170.08   16.00
   0  -7   7  150.48   16.00
  -1   7  -7   24.50    7.10
  -1   7  -7   25.10   10.50
   1  -7   7   30.70    7.70
   1  -7   7   29.50   10.00
  -2   7  -7   32.20    8.60
  -2   7  -7   31.30   11.30
   2  -7   7   30.60    8.40
   2  -7   7   38.30    8.40
   2  -7   7   39.70   10.00
  -3   7  -7   13.40    8.30
  -3   7  -7    6.90    8.60
   3  -7   7   13.10    8.60
   3  -7   7    9.10    6.40
  -4   7  -7   -6.70    8.40
  -4   7  -7   -7.80   10.80
   4  -7   7    0.10   11.50
   4  -7   7   -6.00    8.50
  -5   7  -7    6.30    7.90
  -5   7  -7   -6.20   11.80
   5  -7   7   -3.50    6.80
   5  -7   7   -2.60   12.40
   8   6  -7   27.00   13.60
   8   6  -7   15.70    8.80
  -8  -6   7   12.10    8.50
  -8  -6   7   22.70    8.60
   7   6  -7   54.09   14.70
   7   6  -7   33.10    7.40
  -7  -6   7   38.20   10.40
  -7  -6   7   26.70    6.90
   6   6  -7   96.49   12.90
   6   6  -7  124.89   16.80
  -6  -6   7  101.29   13.20
  -6  -6   7  105.99   12.70
   5   6  -7   49.00    7.50
   5   6  -7   39.10   12.70
  -5  -6   7   53.89    9.70
  -5  -6   7   47.50    7.30
   4   6  -7   76.79    9.20
   4   6  -7   69.89   12.60
  -4  -6   7   79.39    8.90
  -4  -6   7   93.79   11.80
  -4  -6   7  107.79   13.10
   3   6  -7  449.86   36.60
   3   6  -7  496.05   28.30
  -3  -6   7  547.25   33.60
  -3  -6   7  532.15   34.80
  -3  -6   7  484.55   28.10
   2   6  -7  409.26   23.50
   2   6  -7  432.96   25.20
   2   6  -7  379.26   31.40
  -2  -6   7  458.35   30.50
  -2  -6   7  410.16   23.30
  -2  -6   7  421.06   28.50
   1   6  -7  404.66   24.60
   1   6  -7  367.26   30.00
  -1  -6   7  433.16   28.20
  -1  -6   7  382.06   28.30
   0   6  -7  437.96   33.70
   0   6  -7  470.35   29.70
   0  -6   7  518.15   33.00
   0  -6   7  503.15   34.70
  -1   6  -7  279.57   20.60
  -1   6  -7  283.17   23.60
   1  -6   7  319.27   23.50
   1  -6   7  303.07   24.90
  -2   6  -7  290.57   23.90
  -2   6  -7  284.27   21.60
   2  -6   7  290.97   24.60
   2  -6   7  320.47   24.30
  -3   6  -7  418.06   31.50
  -3   6  -7  377.06   27.50
   3  -6   7  385.46   29.50
   3  -6   7  387.06   31.00
  -4   6  -7  196.38   22.40
  -4   6  -7  200.68   19.40
   4  -6   7  192.28   19.40
   4  -6   7  191.88   23.40
  -5   6  -7  103.99   16.70
  -5   6  -7   68.19   15.40
   5  -6   7   80.99   13.70
   5  -6   7   91.89   17.30
  -6   6  -7   61.89   14.00
  -6   6  -7   57.39   16.80
   6  -6   7   65.79   13.50
   6  -6   7   75.29   15.30
   9   5  -7   27.00   10.30
   9   5  -7   47.10   14.10
  -9  -5   7   41.40   11.80
  -9  -5   7   26.10   10.40
   8   5  -7  118.89   16.60
   8   5  -7  158.78   20.60
  -8  -5   7  105.69   16.10
  -8  -5   7  136.99   18.70
   7   5  -7  165.18   14.90
  -7  -5   7  159.58   16.50
  -7  -5   7  165.88   14.80
   6   5  -7  126.39   17.90
  -6  -5   7   87.49   11.90
  -6  -5   7  101.49   14.30
   5   5  -7  108.69   16.80
  -5  -5   7   99.19   13.20
  -5  -5   7   84.09   10.50
   4   5  -7  212.18   19.60
  -4  -5   7  217.58   18.10
  -4  -5   7  199.18   14.60
   3   5  -7  211.98   13.60
  -3  -5   7  230.58   17.50
  -3  -5   7  216.18   17.00
  -3  -5   7  207.38   14.00
   2   5  -7   19.20    3.30
   2   5  -7   23.70    4.00
  -2  -5   7   19.60    3.30
  -2  -5   7   26.20    6.40
  -2  -5   7   25.50    5.70
   1   5  -7  365.86   21.60
   1   5  -7  337.97   19.10
   1   5  -7  308.77   26.40
  -1  -5   7  330.87   19.00
  -1  -5   7  364.56   25.20
  -1  -5   7  383.06   25.30
   0   5  -7   25.80    7.00
   0   5  -7   30.10    5.40
   0  -5   7   24.50    6.00
   0  -5   7   33.10    7.30
  -1   5  -7    1.70    6.70
  -1   5  -7    5.70    4.60
   1  -5   7    9.70    6.30
   1  -5   7   -0.10    5.80
  -2   5  -7   75.89   10.20
  -2   5  -7   68.29   12.20
   2  -5   7   80.09   13.20
   2  -5   7   57.89   10.40
  -3   5  -7    0.60    5.70
  -3   5  -7    0.30    7.10
   3  -5   7   -0.40    7.50
   3  -5   7   -9.60    5.90
  -4   5  -7   20.10    7.80
  -4   5  -7   26.40   10.00
   4  -5   7   23.40   10.50
   4  -5   7   19.10    8.50
  -5   5  -7  -11.10    7.10
  -5   5  -7   -1.10    8.60
   5  -5   7    5.90   10.40
  -6   5  -7    2.20    6.90
  -6   5  -7   -8.90   10.10
   6  -5   7    2.60    7.10
   6  -5   7    3.10   11.20
   9   4  -7   11.40    9.20
   9   4  -7   35.10   12.20
  -9  -4   7    8.00    9.40
  -9  -4   7   24.40   10.50
   8   4  -7   77.99   14.40
  -8  -4   7   50.09    9.30
  -8  -4   7   59.99   11.60
   7   4  -7   89.79   16.20
  -7  -4   7   58.89   10.10
  -7  -4   7   88.89   14.20
   6   4  -7  149.19   17.30
  -6  -4   7  113.09   14.40
  -6  -4   7  104.89   12.70
   5   4  -7  108.59   12.80
  -5  -4   7   79.89    9.10
  -5  -4   7   88.09   12.30
  -4  -4   7  648.24   36.10
  -4  -4   7  642.94   40.80
   3   4  -7  945.21   53.59
   3   4  -7 1015.90   60.79
  -3  -4   7  906.01   57.69
  -3  -4   7  959.80   51.19
  -3  -4   7  958.20   58.89
   2   4  -7  440.36   25.30
   2   4  -7  364.86   30.30
  -2  -4   7  449.86   28.80
  -2  -4   7  428.66   28.20
  -2  -4   7  434.86   23.80
   1   4  -7  576.04   32.40
   1   4  -7  484.95   37.10
  -1  -4   7  545.85   29.40
  -1  -4   7  591.24   36.10
  -1  -4   7  554.94   35.80
   0   4  -7 1066.89   58.89
   0   4  -7 1013.40   64.59
   0  -4   7 1023.20   64.69
   0  -4   7 1122.89   63.69
   0  -4   7  967.60   53.09
  -1   4  -7  587.24   34.30
  -1   4  -7  546.45   37.50
   1  -4   7  591.84   38.10
   1  -4   7  556.04   38.40
  -2   4  -7  816.42   48.80
  -2   4  -7  851.11   52.79
   2  -4   7  784.82   53.89
   2  -4   7  870.91   52.79
  -3   4  -7  708.13   45.20
  -3   4  -7  785.52   49.20
   3  -4   7  730.83   50.79
   3  -4   7  826.42   49.30
  -4   4  -7  130.59   15.30
  -4   4  -7  121.99   13.80
   4  -4   7  119.79   17.20
   4  -4   7  144.79   15.50
  -5   4  -7  314.37   25.60
  -5   4  -7  275.17   22.30
   5  -4   7  332.17   24.60
   5  -4   7  299.97   26.30
  -6   4  -7  233.08   23.30
  -6   4  -7  224.38   21.40
   6  -4   7  220.18   25.30
  -7   4  -7   69.09   13.30
  -7   4  -7   74.09   15.20
   7  -4   7   89.79   17.40
   7  -4   7   69.09   13.40
   9   3  -7   23.20    9.00
  -9  -3   7    6.60    7.20
  -9  -3   7   18.60    9.30
   8   3  -7   95.69   16.20
  -8  -3   7   78.59   12.50
  -8  -3   7   99.79   16.80
   7   3  -7  115.59   13.80
  -7  -3   7  117.79   14.60
  -7  -3   7  102.19   14.40
   6   3  -7   17.80    8.30
  -6  -3   7   20.70    6.90
  -6  -3   7   16.40    6.70
   5   3  -7  171.38   14.90
  -5  -3   7  143.69   13.30
  -5  -3   7  138.79   13.20
   4   3  -7  183.08   15.20
  -4  -3   7  145.59   13.40
  -4  -3   7  163.68   12.10
   3   3  -7   76.99    7.80
   3   3  -7   93.49   10.20
  -3  -3   7   74.09    7.90
  -3  -3   7   81.79    9.90
  -3  -3   7   67.39    7.00
   2   3  -7   84.19    8.00
   2   3  -7  109.49   12.50
  -2  -3   7   90.09    8.00
  -2  -3   7   87.59    9.40
  -2  -3   7   96.39    7.70
   1   3  -7  186.38   18.40
   1   3  -7  240.38   15.40
  -1  -3   7  237.68   18.10
  -1  -3   7  244.48   13.60
  -1  -3   7  223.68   16.30
   0   3  -7   12.50    3.90
   0   3  -7   -2.10    5.20
   0  -3   7   12.50    2.10
   0  -3   7    9.50    4.40
   0  -3   7   16.80    4.60
  -1   3  -7    1.40    3.50
  -1   3  -7   -3.80    4.20
   1  -3   7    3.70    4.40
   1  -3   7    2.50    1.00
   1  -3   7   -6.90    4.60
  -2   3  -7    9.80    3.70
  -2   3  -7    2.10    5.40
  -2   3  -7    9.90    5.20
   2  -3   7    1.10    5.20
   2  -3   7    4.80    5.60
  -3   3  -7   35.20    6.00
  -3   3  -7   23.00    7.00
  -3   3  -7   32.50    7.10
   3  -3   7   35.70    6.80
   3  -3   7   27.10    7.00
  -4   3  -7   46.90    8.50
  -4   3  -7   43.50    7.50
  -4   3  -7   32.20    8.80
   4  -3   7   41.20    7.90
   4  -3   7   39.60    8.80
  -5   3  -7  -12.90    8.10
  -5   3  -7   -1.40    5.90
  -5   3  -7    3.60    4.80
   5  -3   7    6.70    5.50
   5  -3   7   -1.50    8.30
  -6   3  -7   65.29   12.20
  -6   3  -7   62.29   10.90
  -6   3  -7   39.90   11.60
   6  -3   7   56.59   11.80
   6  -3   7   78.59   11.80
  -7   3  -7   55.09   11.50
  -7   3  -7   48.60   12.10
   7  -3   7   46.10   13.50
  -8   3  -7   13.40   10.10
   8  -3   7   15.10   10.20
   8  -3   7    9.90   12.50
   8   2  -7   37.00    9.10
  -8  -2   7   26.10    9.40
  -8  -2   7   25.70    9.20
   7   2  -7  148.09   16.80
  -7  -2   7  130.69   13.90
  -7  -2   7  145.09   15.50
   6   2  -7  100.49   12.00
  -6  -2   7  112.49   12.50
  -6  -2   7  107.99   11.40
   5   2  -7  210.88   17.80
   5   2  -7  251.27   15.00
  -5  -2   7  218.08   17.00
  -5  -2   7  226.98   17.80
   4   2  -7  822.72   49.20
   4   2  -7  755.12   44.10
  -4  -2   7  772.12   47.70
  -4  -2   7  770.52   43.40
   3   2  -7  850.61   46.00
   3   2  -7  849.61   50.29
  -3  -2   7  754.12   48.90
  -3  -2   7  772.42   43.90
   2   2  -7 1230.98   67.49
  -2  -2   7 1092.29   65.89
  -2  -2   7 1006.50   65.99
  -2  -2   7 1106.89   58.69
   1   2  -7 1110.89   62.49
   1   2  -7 1007.10   57.69
  -1  -2   7  896.71   61.19
  -1  -2   7  976.90   60.89
  -1  -2   7 1077.29   53.49
   0   2  -7 1552.24   94.89
   0   2  -7 1714.33   88.59
   0   2  -7 1443.46   94.09
   0  -2   7 1373.26   94.89
   0  -2   7 1785.02   84.19
   0  -2   7 1606.54   93.09
  -1   2  -7  957.80   62.19
  -1   2  -7  873.21   62.89
  -1   2  -7 1078.99   58.59
   1  -2   7 1090.49   62.39
   1  -2   7 1109.39   52.99
  -2   2  -7 1711.83  101.39
  -2   2  -7 1727.93   96.09
  -2   2  -7 1443.66  104.39
   2  -2   7 1763.22  100.39
   2  -2   7 1932.01   89.49
  -3   2  -7  906.01   70.29
  -3   2  -7 1120.39   64.19
  -3   2  -7 1127.59   67.39
   3  -2   7 1222.78   67.09
   3  -2   7 1207.78   58.59
  -4   2  -7  261.67   19.40
  -4   2  -7  273.27   19.90
   4  -2   7  271.17   19.20
  -5   2  -7  771.52   44.10
  -5   2  -7  784.02   46.50
  -5   2  -7  603.24   49.80
   5  -2   7  806.82   45.10
   5  -2   7  617.74   49.00
  -6   2  -7  309.77   22.80
  -6   2  -7  319.47   24.30
   6  -2   7  275.97   27.80
   6  -2   7  345.27   23.30
  -7   2  -7   80.99   11.70
   7  -2   7   56.39   14.50
   7  -2   7   89.59   12.10
  -8   2  -7   83.39   12.80
  -8   2  -7   40.60   15.80
   8  -2   7   63.19   15.60
   8  -2   7   78.59   12.90
   8   1  -7   47.50   11.00
  -8  -1   7   35.00   10.40
   7   1  -7   73.09   13.20
  -7  -1   7   83.39   12.90
  -7  -1   7   50.09   10.20
   6   1  -7   46.10    9.10
  -6  -1   7   42.00    8.40
  -6  -1   7   42.10    7.70
   5   1  -7  143.29   10.40
   5   1  -7  125.39   12.20
  -5  -1   7  126.79   12.30
  -5  -1   7  130.29   11.80
   4   1  -7   43.30    7.30
   4   1  -7   52.39    5.90
  -4  -1   7   54.89    7.90
  -4  -1   7   41.80    6.90
   3   1  -7   32.30    5.80
   3   1  -7   40.30    5.20
  -3  -1   7   37.60    5.90
  -3  -1   7   40.90    6.80
   2   1  -7  141.19   11.90
   2   1  -7  127.89    9.90
  -2  -1   7  133.59   11.20
  -2  -1   7  145.39   10.70
  -2  -1   7  128.29    8.50
   1   1  -7    9.90    2.80
   1   1  -7   16.90    4.20
   1   1  -7   13.30    4.60
  -1  -1   7   15.80    3.10
  -1  -1   7    8.50    4.70
  -1  -1   7   10.80    3.30
   0   1  -7  157.68   12.80
   0   1  -7  165.08   13.90
   0   1  -7  186.28   13.40
   0  -1   7  177.68   11.30
   0  -1   7  183.68   15.20
  -1   1  -7   36.20    7.00
  -1   1  -7   35.50    6.60
  -1   1  -7   46.60    7.20
   1  -1   7   51.39    4.60
   1  -1   7   37.30    6.80
  -2   1  -7  121.29   10.90
  -2   1  -7  109.69   11.40
  -2   1  -7  114.39   10.20
   2  -1   7  128.49   11.60
   2  -1   7  133.89    8.10
  -3   1  -7  103.29   10.10
  -3   1  -7   82.09   11.00
  -3   1  -7   98.69    9.10
   3  -1   7   97.69    9.20
   3  -1   7  107.99    6.70
  -4   1  -7   15.50    5.50
  -4   1  -7    4.40    6.00
  -4   1  -7   15.70    4.40
   4  -1   7   18.10    2.80
   4  -1   7   12.80    4.70
  -5   1  -7  154.58   14.10
  -5   1  -7  153.28   13.20
   5  -1   7  157.68   13.20
  -6   1  -7  334.17   24.50
  -6   1  -7  352.16   24.30
  -6   1  -7  261.67   29.10
   6  -1   7  373.66   23.80
  -7   1  -7   39.20   12.40
  -7   1  -7   74.89   12.50
   7  -1   7   79.69   10.80
   7  -1   7   55.29   12.20
  -8   1  -7   52.29   10.50
  -8   1  -7   29.50   12.00
   8  -1   7   40.10   11.50
   8  -1   7   56.09    9.20
   8   0  -7   75.29   12.00
  -8   0   7   51.39   11.80
   7   0  -7  184.58   18.00
  -7   0   7  180.08   18.60
   6   0  -7  123.49   10.90
   6   0  -7  120.89   13.60
  -6   0   7  118.99   12.60
  -6   0   7  104.99   12.30
   5   0  -7  495.35   28.20
   5   0  -7  483.45   30.90
  -5   0   7  428.46   29.30
  -5   0   7  441.66   28.40
   4   0  -7  787.62   47.80
   4   0  -7  831.52   44.90
  -4   0   7  715.13   46.60
  -4   0   7  792.32   44.30
   3   0  -7  740.33   44.50
   3   0  -7  736.33   41.40
  -3   0   7  724.53   40.70
  -3   0   7  703.13   43.60
   2   0  -7 1405.36   79.39
   2   0  -7 1379.56   74.79
  -2   0   7 1324.57   78.39
  -2   0   7 1354.36   71.29
  -2   0   7 1251.97   79.99
   1   0  -7 1455.85   84.09
   1   0  -7 1332.17   79.49
  -1   0   7 1361.56   83.99
  -1   0   7 1569.14   75.49
   0   0  -7  968.70   51.19
   0   0  -7  914.21   53.29
   0   0   7  852.61   47.30
   0   0   7  809.52   53.69
  -1   0  -7 1844.52  115.69
  -1   0  -7 2023.80  110.49
   1   0   7 1958.10  114.19
   1   0   7 2091.89  103.49
  -2   0  -7 2994.50  160.88
  -2   0  -7 2741.73  167.38
   2   0   7 2859.91  168.28
   2   0   7 2779.82  149.29
  -3   0  -7 1098.29   60.69
  -3   0  -7 1014.40   61.59
   3   0   7 1052.09   54.29
   3   0   7 1021.30   61.29
  -4   0  -7  506.75   30.90
  -4   0  -7  466.75   30.20
   4   0   7  479.55   30.50
   4   0   7  502.85   26.30
  -5   0  -7  536.85   35.70
  -5   0  -7  576.24   35.50
   5   0   7  567.94   35.40
   5   0   7  620.54   31.00
  -6   0  -7  252.07   26.90
  -6   0  -7  288.47   21.10
   6   0   7  291.17   20.60
   6   0   7  300.37   16.90
  -7   0  -7  115.39   19.70
  -7   0  -7  152.58   13.70
   7   0   7  157.88   14.30
   7   0   7  123.09   20.10
  -8   0  -7   94.79   13.50
  -8   0  -7   59.09   17.10
   8   0   7   93.29   12.80
   8   0   7   87.89   16.80
  -9   0  -7   36.50    9.80
  -9   0  -7    0.30   13.70
   9   0   7   23.70    8.50
   9   0   7   21.80   13.10
   8  -1  -7    9.80    7.20
  -8   1   7    8.80    9.60
   7  -1  -7   12.00    6.70
  -7   1   7    3.80    8.00
   6  -1  -7   24.60    6.30
   6  -1  -7   26.30    6.70
  -6   1   7   26.40    8.20
   5  -1  -7   21.90    5.30
   5  -1  -7   21.40    6.40
  -5   1   7    7.00    5.00
   4  -1  -7    6.00    4.00
   4  -1  -7    2.80    4.80
  -4   1   7    6.70    3.40
  -4   1   7    0.10    5.20
   3  -1  -7   10.10    3.60
   3  -1  -7    8.20    3.70
  -3   1   7   12.00    3.20
  -3   1   7    1.70    4.60
   2  -1  -7   24.30    4.20
   2  -1  -7   19.20    2.70
   2  -1  -7   21.70    4.60
  -2   1   7   24.20    4.50
  -2   1   7   17.60    4.40
   1  -1  -7  110.69    8.70
   1  -1  -7  117.79    8.80
   1  -1  -7   91.89    7.70
  -1   1   7  113.89    9.80
  -1   1   7   89.79   10.50
   0  -1  -7   64.69    6.40
   0  -1  -7   71.49    6.40
   0  -1  -7   57.29    6.40
   0   1   7   81.19    7.50
   0   1   7   62.99    8.40
  -1  -1  -7   60.09    6.20
  -1  -1  -7   61.69    6.80
   1   1   7   53.19    7.20
   1   1   7   60.49    6.10
  -2  -1  -7  425.76   26.50
  -2  -1  -7  380.06   24.90
  -2  -1  -7  358.06   23.80
   2   1   7  377.26   21.30
   2   1   7  368.96   23.90
  -3  -1  -7  195.48   13.10
  -3  -1  -7  217.08   16.30
   3   1   7  217.58   12.60
   3   1   7  204.28   14.30
  -4  -1  -7   88.89    7.50
  -4  -1  -7  104.89   10.90
   4   1   7  107.49    9.50
   4   1   7  115.69    7.70
  -5  -1  -7  380.76   25.80
   5   1   7  402.76   21.90
   5   1   7  389.86   25.30
  -6  -1  -7  320.17   23.00
   6   1   7  347.17   22.80
   6   1   7  329.67   19.30
  -7  -1  -7  158.28   22.20
  -7  -1  -7  141.49   14.20
   7   1   7  132.19   11.00
   7   1   7  149.39   13.80
  -8  -1  -7  186.98   23.40
  -8  -1  -7  193.08   18.00
   8   1   7  227.38   22.70
   8   1   7  214.68   16.90
  -9  -1  -7   54.99   18.60
  -9  -1  -7   96.19   13.90
   9   1   7  111.49   18.80
   9   1   7  108.49   14.20
   7  -2  -7   93.79   13.00
   7  -2  -7   96.89   12.50
  -7   2   7   67.19   12.40
   6  -2  -7  154.38   14.80
   6  -2  -7  168.78   15.10
  -6   2   7  162.18   17.70
   5  -2  -7  373.46   24.00
   5  -2  -7  349.47   24.60
  -5   2   7  350.26   25.30
   4  -2  -7  326.37   21.50
   4  -2  -7  336.77   22.70
  -4   2   7  309.87   22.00
   3  -2  -7  463.45   28.60
   3  -2  -7  467.35   27.40
  -3   2   7  411.26   26.90
  -3   2   7  434.96   28.00
   2  -2  -7 1058.39   57.49
   2  -2  -7  997.20   60.29
   2  -2  -7  985.60   59.89
  -2   2   7  975.40   58.89
  -2   2   7 1044.40   55.79
   1  -2  -7 1575.74   83.79
   1  -2  -7 1516.45   87.59
   1  -2  -7 1516.55   91.59
  -1   2   7 1596.34   80.19
  -1   2   7 1310.77   87.29
   0  -2  -7  881.91   56.39
   0  -2  -7  851.81   52.69
   0  -2  -7  947.11   54.79
   0   2   7 1027.90   50.89
   0   2   7  962.00   55.79
  -1  -2  -7 2442.96  156.48
  -1  -2  -7 2469.65  149.59
  -1  -2  -7 2469.25  144.29
   1   2   7 2579.64  151.78
   1   2   7 2756.12  136.89
  -2  -2  -7 1264.07   76.39
  -2  -2  -7 1189.18   79.69
   2   2   7 1400.16   75.89
   2   2   7 1395.96   68.69
  -3  -2  -7  641.64   47.50
  -3  -2  -7  709.23   43.70
  -3  -2  -7  824.02   45.60
   3   2   7  786.32   40.10
   3   2   7  802.52   44.60
  -4  -2  -7 1477.25   84.09
  -4  -2  -7 1542.75   91.59
   4   2   7 1406.16   84.89
   4   2   7 1468.75   76.39
  -5  -2  -7  611.74   36.70
   5   2   7  593.14   32.00
   5   2   7  559.74   35.80
  -6  -2  -7  158.28   14.20
   6   2   7  171.58   11.50
   6   2   7  161.88   13.90
  -7  -2  -7  211.48   17.10
   7   2   7  213.98   14.30
   7   2   7  208.28   17.30
  -8  -2  -7  118.59   13.40
  -8  -2  -7  162.38   24.60
   8   2   7  132.19   11.20
   8   2   7  119.59   14.20
  -9  -2  -7   61.19   15.80
  -9  -2  -7   70.59   11.60
   9   2   7   53.89   10.40
   7  -3  -7    1.10    9.20
   7  -3  -7    7.40    7.70
  -7   3   7   -5.70    7.90
   6  -3  -7   14.00    7.20
   6  -3  -7   14.80    6.80
  -6   3   7    9.00    8.20
   5  -3  -7    2.40    5.90
   5  -3  -7   -0.20    4.80
  -5   3   7   -3.20    6.80
  -5   3   7    4.80    5.10
   4  -3  -7    2.80    4.20
   4  -3  -7    3.20    5.40
  -4   3   7   -7.80    6.00
  -4   3   7    4.90    4.30
   3  -3  -7   87.19    8.60
   3  -3  -7   74.79    9.60
  -3   3   7   72.19   11.90
  -3   3   7   91.09    9.90
   2  -3  -7  107.99    9.10
   2  -3  -7  105.19    8.40
   2  -3  -7  104.39    9.50
  -2   3   7  106.19    9.60
  -2   3   7   82.29   11.70
  -2   3   7   99.79    7.90
   1  -3  -7  210.58   14.10
   1  -3  -7  214.78   14.40
   1  -3  -7  197.18   13.90
  -1   3   7  195.98   15.70
  -1   3   7  172.68   14.60
  -1   3   7  225.08   14.20
   0  -3  -7    9.10    2.70
   0  -3  -7    8.00    3.60
   0  -3  -7    9.40    3.40
   0   3   7    4.00    3.60
   0   3   7    3.60    4.20
   0   3   7    9.30    2.80
  -1  -3  -7  471.15   26.80
  -1  -3  -7  456.25   28.70
  -1  -3  -7  405.36   26.80
   1   3   7  459.55   26.10
   1   3   7  435.36   27.30
  -2  -3  -7  678.03   38.90
  -2  -3  -7  633.54   41.80
  -2  -3  -7  706.93   39.50
   2   3   7  658.23   39.40
   2   3   7  644.84   36.20
  -3  -3  -7  355.46   26.50
  -3  -3  -7  449.26   25.60
   3   3   7  369.66   23.90
   3   3   7  370.96   21.80
  -4  -3  -7  305.37   21.90
   4   3   7  297.57   17.90
   4   3   7  292.07   19.60
  -5  -3  -7  514.55   39.20
  -5  -3  -7  608.44   36.60
   5   3   7  585.94   31.90
   5   3   7  598.04   35.40
  -6  -3  -7  577.24   37.20
  -6  -3  -7  473.45   31.60
   6   3   7  469.85   27.90
   6   3   7  474.15   31.50
  -7  -3  -7  481.55   32.30
   7   3   7  531.65   29.40
   7   3   7  513.85   33.30
  -8  -3  -7  370.36   27.10
   8   3   7  414.76   28.00
   8   3   7  433.96   24.90
  -9  -3  -7  263.67   30.40
   9   3   7  174.58   19.10
   9   3   7  191.18   15.30
   6  -4  -7  124.19   16.70
   6  -4  -7  110.19   15.20
  -6   4   7  156.68   17.60
  -6   4   7   79.49   13.40
   5  -4  -7  175.48   17.00
   5  -4  -7  152.68   15.90
  -5   4   7  182.68   17.20
  -5   4   7  128.69   15.50
   4  -4  -7  199.88   15.80
   4  -4  -7  180.58   16.20
  -4   4   7  175.98   16.90
  -4   4   7  203.38   15.90
   3  -4  -7 1013.00   61.19
   3  -4  -7 1001.40   58.59
  -3   4   7 1035.60   58.49
  -3   4   7 1010.60   61.19
   2  -4  -7  906.01   52.99
   2  -4  -7  888.61   55.69
   2  -4  -7  916.31   55.09
  -2   4   7  952.70   52.89
  -2   4   7  913.41   55.09
   1  -4  -7  629.84   38.10
   1  -4  -7  635.64   38.90
   1  -4  -7  634.44   37.20
  -1   4   7  636.44   38.10
  -1   4   7  565.04   37.10
  -1   4   7  657.53   37.60
   0  -4  -7  741.93   44.70
   0  -4  -7  729.93   43.40
   0  -4  -7  742.63   46.40
   0   4   7  771.52   42.30
   0   4   7  772.72   44.80
   0   4   7  752.12   45.10
  -1  -4  -7 1575.74   90.79
  -1  -4  -7 1535.95   88.39
  -1  -4  -7 1451.15   84.09
   1   4   7 1473.25   79.49
   1   4   7 1573.54   90.09
   1   4   7 1425.46   86.09
  -2  -4  -7 1478.05   79.19
  -2  -4  -7 1186.38   76.59
  -2  -4  -7 1446.36   83.29
   2   4   7 1316.97   71.89
   2   4   7 1400.76   78.49
  -3  -4  -7 1338.47   83.89
  -3  -4  -7 1553.84   78.49
   3   4   7 1300.87   71.89
   3   4   7 1306.07   78.89
  -4  -4  -7  339.77   26.20
  -4  -4  -7  359.36   25.30
   4   4   7  375.76   21.50
   4   4   7  369.26   23.20
  -5  -4  -7  369.46   24.90
  -5  -4  -7  301.57   25.40
   5   4   7  362.96   20.80
  -6  -4  -7  123.39   12.70
  -6  -4  -7  102.29   15.80
   6   4   7  128.59   10.70
  -7  -4  -7  331.87   28.50
  -7  -4  -7  274.57   21.40
   7   4   7  294.57   19.30
  -8  -4  -7  133.49   22.30
   8   4   7   84.99   10.90
  -9  -4  -7   19.60   15.50
   9   4   7   19.60    6.40
   9   4   7   13.20    6.70
   6  -5  -7    2.80    8.70
   6  -5  -7   -3.00    9.70
  -6   5   7  -10.90    8.40
  -6   5   7    9.60   10.20
   5  -5  -7   -2.30    6.30
   5  -5  -7   -1.60    7.30
  -5   5   7   -2.40    8.20
  -5   5   7    3.60    6.60
   4  -5  -7   12.80    7.50
   4  -5  -7   12.20    8.00
  -4   5   7   18.00    8.00
  -4   5   7    1.10    8.50
   3  -5  -7    0.60    6.10
   3  -5  -7    4.90    6.10
  -3   5   7    0.40    5.70
  -3   5   7    1.90    5.80
   2  -5  -7  196.58   15.80
   2  -5  -7  202.38   15.70
   2  -5  -7  188.78   14.70
  -2   5   7  198.28   15.40
  -2   5   7  173.58   18.80
   1  -5  -7  112.59   10.10
   1  -5  -7  113.79   10.30
   1  -5  -7  104.59   10.20
  -1   5   7  118.39   10.20
  -1   5   7   98.29   13.70
   0  -5  -7  157.78   12.80
   0  -5  -7  158.88   12.00
   0   5   7  152.38   13.00
   0   5   7  149.39   12.00
   0   5   7  163.58   11.90
  -1  -5  -7  696.13   43.70
  -1  -5  -7  704.13   40.70
  -1  -5  -7  694.83   41.30
   1   5   7  663.43   40.90
   1   5   7  716.73   41.40
   1   5   7  704.83   39.60
  -2  -5  -7  773.62   42.80
  -2  -5  -7  685.33   42.50
  -2  -5  -7  777.52   46.40
   2   5   7  725.13   42.80
   2   5   7  678.03   40.30
  -3  -5  -7  344.07   23.00
  -3  -5  -7  365.36   25.00
   3   5   7  337.77   21.10
   3   5   7  351.26   22.10
  -4  -5  -7  580.04   41.20
  -4  -5  -7  739.43   40.00
   4   5   7  586.24   35.10
  -5  -5  -7  800.32   48.50
  -5  -5  -7  849.22   49.99
  -5  -5  -7  758.42   52.89
   5   5   7  820.22   44.00
  -6  -5  -7  405.06   33.50
  -6  -5  -7  485.45   30.80
  -6  -5  -7  492.05   31.50
   6   5   7  486.85   27.90
  -7  -5  -7  673.03   41.10
  -7  -5  -7  534.95   44.50
  -7  -5  -7  652.93   40.00
   7   5   7  688.23   36.80
  -8  -5  -7  523.55   40.00
  -8  -5  -7  442.86   31.70
   8   5   7  470.65   28.90
   9   5   7  192.78   16.50
   5  -6  -7  123.29   17.10
   5  -6  -7  113.49   14.90
  -5   6   7  125.99   15.00
   4  -6  -7  222.08   20.60
   4  -6  -7  214.48   19.90
  -4   6   7  227.58   20.30
  -4   6   7  184.38   22.20
   3  -6  -7  428.26   28.90
   3  -6  -7  409.06   27.90
  -3   6   7  414.36   28.50
  -3   6   7  425.96   30.20
   2  -6  -7  255.07   19.40
   2  -6  -7  229.18   18.30
  -2   6   7  248.08   18.70
  -2   6   7  232.88   22.70
   1  -6  -7  173.18   14.20
   1  -6  -7  178.68   14.90
  -1   6   7  185.88   14.30
  -1   6   7  163.98   18.30
   0  -6  -7  671.53   43.50
   0  -6  -7  704.63   41.00
   0   6   7  668.53   41.40
   0   6   7  685.03   40.60
  -1  -6  -7  684.23   42.90
  -1  -6  -7  666.43   39.40
   1   6   7  650.33   39.40
   1   6   7  677.33   40.10
   1   6   7  653.23   38.50
  -2  -6  -7  420.76   27.60
  -2  -6  -7  398.96   25.60
   2   6   7  364.56   24.90
   2   6   7  413.86   24.90
   2   6   7  417.56   24.70
  -3  -6  -7  669.03   39.80
  -3  -6  -7  533.35   35.80
   3   6   7  576.54   33.60
   3   6   7  608.24   35.90
  -4  -6  -7  212.38   16.00
  -4  -6  -7  166.28   15.50
   4   6   7  172.38   13.20
  -5  -6  -7  259.77   23.20
  -5  -6  -7  277.47   23.70
  -5  -6  -7  302.77   20.10
   5   6   7  308.67   19.80
  -6  -6  -7  162.88   14.20
  -6  -6  -7  130.59   15.50
  -6  -6  -7  142.99   15.50
   6   6   7  148.19   11.80
  -7  -6  -7   83.29   15.10
  -7  -6  -7  122.69   13.40
   7   6   7   89.29   10.20
  -8  -6  -7   15.00   11.20
  -8  -6  -7   18.60    7.70
   8   6   7   10.10    6.40
  -9  -6  -7   13.70    8.40
  -9  -6  -7   17.90   13.50
   9   6   7    6.50    6.70
   4  -7  -7    1.50    9.70
   4  -7  -7    9.10    9.30
  -4   7   7   -6.90    9.00
  -4   7   7    7.70    9.10
   3  -7  -7   28.50    9.50
   3  -7  -7   34.70    9.90
  -3   7   7   18.10   11.10
  -3   7   7   36.70    9.30
   2  -7  -7   88.89   12.10
   2  -7  -7  114.69   14.30
  -2   7   7   76.89   14.20
  -2   7   7   99.09   12.70
   1  -7  -7   94.59   10.90
   1  -7  -7   85.69   11.60
  -1   7   7   91.39   11.00
  -1   7   7   73.49   12.80
   0  -7  -7  145.69   14.70
   0  -7  -7  153.48   13.20
   0   7   7  161.28   15.00
   0   7   7  149.39   12.70
  -1  -7  -7  443.36   27.60
  -1  -7  -7  453.15   30.50
   1   7   7  416.46   27.30
   1   7   7  430.36   27.60
  -2  -7  -7  692.73   40.80
  -2  -7  -7  714.53   44.60
   2   7   7  627.84   39.30
  -3  -7  -7  442.56   29.90
  -3  -7  -7  394.46   26.60
   3   7   7  415.36   25.80
   3   7   7  406.66   25.20
  -4  -7  -7  413.06   28.00
  -4  -7  -7  440.06   27.80
  -4  -7  -7  439.36   31.10
   4   7   7  419.66   26.50
  -5  -7  -7  689.13   39.50
  -5  -7  -7  591.14   37.70
  -5  -7  -7  564.54   40.70
   5   7   7  568.34   34.30
  -6  -7  -7  682.13   42.70
  -6  -7  -7  629.04   46.90
  -6  -7  -7  726.03   44.60
   6   7   7  677.83   39.40
  -7  -7  -7  606.54   47.10
  -7  -7  -7  666.83   42.40
   7   7   7  698.53   39.00
  -8  -7  -7  285.67   28.20
  -8  -7  -7  346.77   24.60
   8   7   7  343.67   22.40
  -9  -7  -7  195.28   25.50
  -9  -7  -7  166.68   19.30
   9   7   7  179.48   15.60
   3  -8  -7   95.39   16.80
  -3   8   7   57.69   14.30
  -3   8   7  107.89   15.60
   2  -8  -7  162.78   18.00
  -2   8   7  156.68   16.00
  -2   8   7  117.09   17.70
   1  -8  -7  169.78   17.10
   1  -8  -7  178.28   17.70
  -1   8   7  172.38   15.80
  -1   8   7  155.38   21.40
   0  -8  -7  232.78   19.80
   0  -8  -7  250.17   20.40
   0   8   7  242.38   18.60
   0   8   7  285.17   23.10
  -1  -8  -7  250.67   21.30
  -1  -8  -7  249.58   19.70
   1   8   7  240.18   18.00
   1   8   7  264.97   20.70
  -2  -8  -7  170.08   14.90
  -2  -8  -7  167.48   15.40
   2   8   7  151.98   15.50
  -3  -8  -7  421.56   27.90
  -3  -8  -7  448.26   30.80
   3   8   7  422.16   27.90
  -4  -8  -7   98.89   12.80
  -4  -8  -7  123.59   13.50
  -4  -8  -7  126.39   11.50
   4   8   7  111.09   11.20
  -5  -8  -7   49.99    9.30
  -5  -8  -7   36.10    7.10
  -5  -8  -7   36.60    8.70
   5   8   7   40.80    8.70
  -6  -8  -7   69.59   11.40
  -6  -8  -7   63.69   12.90
   6   8   7   66.69   11.00
  -7  -8  -7   29.20   11.70
  -7  -8  -7   17.50    7.30
   7   8   7   18.60    6.20
  -8  -8  -7    5.80    7.60
  -8  -8  -7    9.50   11.20
   8   8   7   -3.00    7.70
  -9  -8  -7   10.60    9.10
  -9  -8  -7   10.50    6.90
   9   8   7  -11.80    8.50
   2  -9  -7   42.20    9.80
  -2   9   7   39.30   10.10
  -2   9   7   25.40   12.30
   1  -9  -7  141.69   17.20
   1  -9  -7  135.89   15.20
  -1   9   7  114.69   17.80
  -1   9   7  139.39   15.40
   0  -9  -7  191.68   19.80
   0  -9  -7  208.08   19.40
   0   9   7  209.48   19.90
   0   9   7  195.58   17.10
  -1  -9  -7  295.17   23.70
  -1  -9  -7  297.87   21.80
   1   9   7  309.47   24.60
  -2  -9  -7  328.27   23.90
  -2  -9  -7  344.87   27.10
   2   9   7  329.07   25.70
  -3  -9  -7  445.86   31.80
  -3  -9  -7  399.46   27.60
   3   9   7  398.56   28.30
  -4  -9  -7  516.45   35.80
  -4  -9  -7  426.46   30.60
   4   9   7  490.05   30.70
  -5  -9  -7  403.36   32.00
  -5  -9  -7  403.16   27.50
   5   9   7  397.66   27.70
  -6  -9  -7  512.45   38.70
  -6  -9  -7  500.05   33.80
   6   9   7  504.75   31.90
  -7  -9  -7  454.65   37.30
  -7  -9  -7  445.16   32.10
   7   9   7  489.45   32.00
  -8  -9  -7  282.77   23.50
  -8  -9  -7  243.58   25.50
   8   9   7  269.87   23.30
   1 -10  -7   69.29   13.30
   1 -10  -7   89.39   16.70
  -1  10   7   94.49   14.70
  -1  10   7   40.70   14.10
   0 -10  -7   76.99   13.60
   0 -10  -7   85.49   13.10
   0  10   7   74.39   14.50
  -1 -10  -7   88.69   14.80
  -1 -10  -7   90.89   16.50
   1  10   7   78.29   13.20
  -2 -10  -7   43.20    9.90
  -2 -10  -7   38.80    9.20
   2  10   7   33.20    9.90
  -3 -10  -7   25.80    8.00
  -3 -10  -7   34.00   11.00
   3  10   7   22.90    9.50
  -4 -10  -7   28.00   11.10
  -4 -10  -7   18.20    7.10
   4  10   7   21.90    9.60
  -5 -10  -7   19.60   11.20
   5  10   7   10.40    8.10
  -6 -10  -7   23.90   11.90
  -6 -10  -7   16.70    7.10
   6  10   7   17.40   10.60
  -7 -10  -7   -0.90    7.00
  -7 -10  -7    1.80   11.10
   7  10   7    2.10    9.40
  -1 -11  -7  107.29   17.20
  -1 -11  -7   86.09   15.40
   1  11   7   92.29   15.30
  -2 -11  -7  170.48   18.50
  -2 -11  -7  173.28   22.10
   2  11   7  182.88   21.00
  -3 -11  -7  306.27   23.90
  -3 -11  -7  313.97   26.80
   3  11   7  308.77   27.60
  -4 -11  -7  300.37   27.60
   4  11   7  247.08   24.80
  -5 -11  -7  254.07   26.10
   5  11   7  215.88   21.30
  -6 -11  -7  277.37   28.20
   6  11   7  244.38   22.90
   4  11  -8   -6.90   14.20
   3  11  -8    8.50   15.10
  -3 -11   8    6.40   14.00
  -3 -11   8   12.10   10.00
   2  11  -8  -16.40   14.00
  -2 -11   8    7.50   14.90
   6  10  -8   -9.80   12.30
  -6 -10   8   15.40   11.60
   5  10  -8   11.40   14.40
  -5 -10   8   40.60   12.70
   4  10  -8   14.80   14.60
   3  10  -8   19.20   14.70
  -3 -10   8   24.10   13.50
  -3 -10   8   30.90    8.90
   2  10  -8   45.20   16.30
  -2 -10   8   61.69   12.00
  -2 -10   8   62.99   16.00
   1  10  -8   40.90   16.70
  -1 -10   8   54.29   11.20
  -1 -10   8   64.59   16.90
   0  10  -8   35.50   13.70
   0 -10   8   43.20   13.50
  -1  10  -8   48.70   18.20
   1 -10   8   60.69   11.50
   1 -10   8   63.59   18.60
   7   9  -8   15.50   12.40
  -7  -9   8   19.00    8.90
  -7  -9   8   27.10   10.20
   6   9  -8   36.30    8.40
   6   9  -8   11.30   14.30
  -6  -9   8   34.50   12.10
   5   9  -8    2.80   10.00
  -5  -9   8   26.40   11.10
   4   9  -8   -0.20   12.80
  -4  -9   8   22.70   10.10
   3   9  -8   22.00   13.90
  -3  -9   8   44.30   12.90
  -3  -9   8   48.00   11.20
   2   9  -8   -2.40   11.70
  -2  -9   8   12.60   10.90
  -2  -9   8   12.00    8.60
   1   9  -8  -20.80   11.10
  -1  -9   8   -0.30   10.50
  -1  -9   8   -3.40    7.30
   0   9  -8    9.60    7.30
   0   9  -8    4.50    9.90
   0  -9   8   10.30    7.00
   0  -9   8    8.00    7.50
   0  -9   8   13.70    9.70
  -1   9  -8   -6.20   13.20
  -1   9  -8    4.20    7.90
   1  -9   8    4.50    7.80
   1  -9   8    9.70    9.90
  -2   9  -8   -4.10    8.50
  -2   9  -8  -19.50   12.80
   2  -9   8  -11.00   12.30
   2  -9   8   -3.40    8.40
   7   8  -8   23.70    8.50
   7   8  -8   -4.30   13.90
  -7  -8   8   23.50   11.90
  -7  -8   8   13.90    8.20
   6   8  -8   54.99    9.40
   6   8  -8   30.50   15.50
  -6  -8   8   59.09   12.90
  -6  -8   8   52.09    9.10
   5   8  -8  133.19   13.40
  -5  -8   8  134.39   18.60
  -5  -8   8  107.49   12.70
   4   8  -8   42.50   14.70
   3   8  -8   90.79   17.80
  -3  -8   8  145.59   17.30
  -3  -8   8  131.29   17.60
   2   8  -8  158.68   20.20
  -2  -8   8  212.18   21.30
  -2  -8   8  220.58   20.20
   1   8  -8  169.48   14.60
   1   8  -8  134.19   21.70
  -1  -8   8  175.88   20.70
  -1  -8   8  169.98   15.00
  -1  -8   8  184.18   16.90
   0   8  -8  111.49   21.30
   0   8  -8  148.19   14.70
   0  -8   8  154.98   20.50
   0  -8   8  167.18   17.60
   0  -8   8  140.59   14.40
  -1   8  -8  214.98   19.20
  -1   8  -8  197.28   25.40
   1  -8   8  238.18   25.60
   1  -8   8  245.18   21.00
   1  -8   8  194.28   18.90
  -2   8  -8   68.19   11.90
  -2   8  -8   70.99   17.00
   2  -8   8   67.79   16.10
   2  -8   8   69.79   11.80
  -3   8  -8   42.10   16.90
  -3   8  -8   36.10   11.20
   3  -8   8   41.40   11.30
   3  -8   8   46.40   16.10
  -4   8  -8   56.89   18.90
  -4   8  -8   60.39   13.60
   4  -8   8   68.69   13.70
   4  -8   8   77.39   16.40
   8   7  -8    4.20    8.90
   8   7  -8   19.50   14.70
  -8  -7   8   10.80   11.30
  -8  -7   8    0.80    8.90
   7   7  -8   32.70   15.40
   7   7  -8   24.50    7.10
  -7  -7   8   23.40    7.00
  -7  -7   8   32.40   11.50
   6   7  -8   28.30   11.90
   6   7  -8   30.90    7.90
  -6  -7   8   41.40    9.70
  -6  -7   8   27.80    7.70
   5   7  -8    7.00    9.80
   5   7  -8   17.30    6.10
  -5  -7   8   28.00    8.10
  -5  -7   8   18.30    6.20
   4   7  -8   26.80    5.60
  -4  -7   8   19.20    8.70
  -4  -7   8   23.20    5.40
   3   7  -8   20.80    9.70
  -3  -7   8   43.00   10.30
  -3  -7   8   46.80    9.70
  -2  -7   8   -3.30    4.60
  -2  -7   8   -3.90    6.40
   1   7  -8    0.20    4.20
  -1  -7   8    0.50    7.20
  -1  -7   8   -2.00    6.50
   0   7  -8   30.00    6.70
   0   7  -8   21.40    9.20
   0  -7   8   29.50   10.00
   0  -7   8   23.30    8.30
  -1   7  -8  -12.80    9.30
  -1   7  -8   -5.40    5.70
   1  -7   8   -2.00    6.50
   1  -7   8    2.20    6.80
  -2   7  -8   -5.40   10.40
  -2   7  -8    2.80    5.50
   2  -7   8    5.60    7.70
   2  -7   8    9.20   10.70
  -3   7  -8   -2.10    7.80
  -3   7  -8   -7.40    7.90
   3  -7   8    5.10   11.50
   3  -7   8   -7.30    7.70
  -4   7  -8  -10.30   12.20
  -4   7  -8    3.40    7.20
   4  -7   8    2.30    6.90
   4  -7   8    9.70   10.20
  -5   7  -8   -7.20   13.50
  -5   7  -8    7.60   11.00
   5  -7   8    7.80   10.50
   5  -7   8    8.30   10.90
   8   6  -8   77.59   16.80
   8   6  -8   39.70    9.10
  -8  -6   8   50.39   12.80
  -8  -6   8   35.60   10.30
   7   6  -8   50.69    8.90
   7   6  -8   86.19   16.70
  -7  -6   8   69.69   13.10
  -7  -6   8   45.10    8.60
   6   6  -8  162.28   22.30
   6   6  -8  109.79   14.30
  -6  -6   8  113.29   14.70
  -6  -6   8  110.29   13.90
   5   6  -8  141.29   14.00
   5   6  -8  179.68   22.40
  -5  -6   8  144.09   13.70
  -5  -6   8  162.38   17.90
   4   6  -8  102.49   16.40
   4   6  -8  139.19   12.20
  -4  -6   8  153.98   16.50
  -4  -6   8  146.79   12.00
   3   6  -8  521.45   43.00
   3   6  -8  618.64   34.10
  -3  -6   8  631.44   40.10
  -3  -6   8  624.24   41.10
  -3  -6   8  620.54   33.90
   2   6  -8  300.07   18.80
   2   6  -8  283.27   17.50
  -2  -6   8  284.87   23.00
  -2  -6   8  303.77   23.60
   1   6  -8  158.28   12.30
   1   6  -8  107.59   17.80
  -1  -6   8  149.09   15.80
  -1  -6   8  166.48   16.50
   0   6  -8  376.66   32.10
   0   6  -8  426.06   26.60
   0  -6   8  438.96   30.50
   0  -6   8  397.16   31.00
  -1   6  -8  362.56   24.80
  -1   6  -8  356.36   29.20
   1  -6   8  394.06   29.10
   1  -6   8  398.76   30.50
  -2   6  -8  171.98   16.30
  -2   6  -8  161.58   18.10
   2  -6   8  174.78   19.30
   2  -6   8  179.58   20.90
  -3   6  -8  210.68   19.20
  -3   6  -8  205.98   23.00
   3  -6   8  217.68   24.30
   3  -6   8  202.98   21.50
  -4   6  -8  124.09   14.70
  -4   6  -8  122.89   20.90
   4  -6   8  146.39   19.10
   4  -6   8  143.29   18.90
  -5   6  -8   55.79   15.70
  -5   6  -8   58.49   11.20
   5  -6   8   56.49   14.20
   5  -6   8   51.29   10.60
   8   5  -8   14.60   12.10
   8   5  -8   -1.70    8.60
  -8  -5   8   -4.70    8.50
  -8  -5   8    5.20    9.60
   7   5  -8   75.09   14.80
  -7  -5   8   41.10    9.60
  -7  -5   8   53.99   11.40
   6   5  -8   48.50   12.90
  -6  -5   8   23.60    7.60
  -6  -5   8   29.40    7.90
   5   5  -8    3.60    9.70
  -5  -5   8   -1.20    4.70
  -5  -5   8   -3.10    5.00
   4   5  -8   33.80    9.50
  -4  -5   8   25.70    6.60
  -4  -5   8   24.00    5.50
   3   5  -8   23.90   10.60
  -3  -5   8   30.90    5.20
  -3  -5   8   34.40    6.90
  -3  -5   8   37.10    7.10
   2   5  -8  -12.90    7.50
   2   5  -8    2.60    3.00
  -2  -5   8    5.40    4.60
  -2  -5   8   -3.70    5.30
  -2  -5   8    2.40    2.60
   1   5  -8   33.00    5.40
   1   5  -8   18.00    7.60
   1   5  -8   36.10    4.50
  -1  -5   8   28.30    7.90
  -1  -5   8   30.10    4.40
  -1  -5   8   32.70    7.10
   0   5  -8   -0.50    4.10
   0   5  -8  -12.70    6.60
   0  -5   8   -4.30    6.00
   0  -5   8    2.80    5.70
  -1   5  -8   60.99   11.90
  -1   5  -8   85.19   10.10
   1  -5   8   73.09   10.90
   1  -5   8   60.49   11.20
  -2   5  -8   14.10    7.10
  -2   5  -8   12.40    5.10
   2  -5   8   23.60    9.10
   2  -5   8    7.30    8.00
  -3   5  -8   10.80    5.40
  -3   5  -8    4.20    8.50
   3  -5   8    6.60    9.10
   3  -5   8    7.30    8.20
  -4   5  -8   32.20    7.60
  -4   5  -8   16.80   10.50
   4  -5   8   19.50    9.40
   4  -5   8   36.10   10.10
  -5   5  -8   70.49   14.40
  -5   5  -8   49.90   11.80
   5  -5   8   61.89   13.80
   5  -5   8   88.69   15.90
  -6   5  -8    3.80   11.90
  -6   5  -8   17.50   10.60
   6  -5   8   13.70   13.50
   6  -5   8   13.30   10.30
   8   4  -8   50.99   12.70
  -8  -4   8   36.50   10.90
  -8  -4   8   25.80   10.00
   7   4  -8  148.89   16.30
  -7  -4   8  101.69   15.40
  -7  -4   8  112.09   16.70
   6   4  -8  251.47   20.50
  -6  -4   8  199.68   20.10
  -6  -4   8  193.48   18.00
  -5  -4   8  258.97   21.10
  -5  -4   8  233.98   17.40
   4   4  -8  464.05   29.90
  -4  -4   8  370.86   28.00
  -4  -4   8  354.86   24.10
   3   4  -8  970.30   54.49
  -3  -4   8  957.60   58.79
  -3  -4   8  955.40   51.59
  -3  -4   8  945.91   59.19
   2   4  -8  436.46   25.40
   2   4  -8  387.96   30.50
  -2  -4   8  418.06   23.40
  -2  -4   8  389.46   27.50
  -2  -4   8  409.36   28.90
   1   4  -8  373.76   30.60
   1   4  -8  469.95   26.90
  -1  -4   8  411.06   29.30
  -1  -4   8  457.75   24.00
  -1  -4   8  447.56   30.00
   0   4  -8  920.41   49.30
   0   4  -8  775.12   54.29
   0  -4   8  803.02   53.89
   0  -4   8  862.41   53.69
   0  -4   8  846.52   43.70
  -1   4  -8  640.34   38.50
  -1   4  -8  592.24   42.40
   1  -4   8  618.24   43.20
   1  -4   8  728.63   43.60
  -2   4  -8  346.07   26.80
  -2   4  -8  347.37   23.80
   2  -4   8  320.87   27.50
   2  -4   8  389.76   26.80
  -3   4  -8  532.85   37.40
  -3   4  -8  519.05   34.40
   3  -4   8  619.24   38.20
   3  -4   8  493.55   39.30
  -4   4  -8  148.09   17.30
  -4   4  -8  149.09   14.20
   4  -4   8  116.39   19.20
   4  -4   8  180.18   17.80
  -5   4  -8  127.29   17.50
  -5   4  -8  132.79   16.20
   5  -4   8  117.59   20.50
  -6   4  -8  110.39   18.40
  -6   4  -8  132.29   15.00
   6  -4   8   90.79   16.70
  -7   4  -8   34.40   11.90
   7  -4   8   20.90   11.50
   7  -4   8   30.40   11.60
   8   3  -8   19.30   10.30
  -8  -3   8    4.00    9.00
  -8  -3   8   11.40    8.80
   7   3  -8   21.70    7.90
  -7  -3   8   17.40    8.00
  -7  -3   8    7.70    8.10
   6   3  -8    0.60    8.00
  -6  -3   8    1.30    6.30
  -6  -3   8   -3.80    6.40
   5   3  -8    8.30    7.70
  -5  -3   8   10.00    6.00
  -5  -3   8   13.50    6.60
   4   3  -8   36.90    8.90
  -4  -3   8   28.00    5.30
  -4  -3   8   28.10    7.10
   3   3  -8    0.40    3.50
   3   3  -8    4.10    6.50
  -3  -3   8   -1.40    4.90
  -3  -3   8   -0.70    3.70
   2   3  -8   30.20    6.00
   2   3  -8   47.70    9.20
  -2  -3   8   39.90    5.60
  -2  -3   8   39.30    6.10
  -2  -3   8   26.90    7.00
   1   3  -8   -2.40    3.60
  -1  -3   8   -0.40    2.70
  -1  -3   8    2.40    3.40
  -1  -3   8   -2.10    3.60
   0   3  -8   75.69    8.80
   0   3  -8   61.99   10.70
   0  -3   8   63.09   11.50
   0  -3   8   86.79    6.10
   0  -3   8   67.69    8.90
  -1   3  -8  235.58   15.90
  -1   3  -8  199.08   17.10
  -1   3  -8  202.08   18.60
   1  -3   8  250.97   12.40
   1  -3   8  235.18   19.70
   1  -3   8  187.08   17.20
  -2   3  -8   55.49   10.40
  -2   3  -8   71.59    9.50
  -2   3  -8   71.29   10.50
   2  -3   8   52.59    9.80
   2  -3   8   70.59   10.20
  -3   3  -8  233.38   18.00
  -3   3  -8  233.98   19.00
   3  -3   8  176.18   20.30
   3  -3   8  273.27   19.30
  -4   3  -8  182.98   16.40
  -4   3  -8  181.28   17.30
   4  -3   8  184.78   17.30
  -5   3  -8  109.69   14.20
  -5   3  -8  107.39   14.50
   5  -3   8  118.39   14.10
   5  -3   8   86.79   14.90
  -6   3  -8   86.99   14.20
  -6   3  -8   64.89   14.80
  -6   3  -8   82.99   14.60
   6  -3   8  104.89   13.80
   6  -3   8   72.09   15.40
  -7   3  -8   76.19   13.10
   7  -3   8   54.39   15.70
   7  -3   8  102.59   14.10
   8   2  -8   34.00    9.30
  -8  -2   8   30.90   10.80
   7   2  -8  208.68   18.70
  -7  -2   8  195.18   20.10
  -7  -2   8  224.48   19.80
   6   2  -8  212.38   19.20
  -6  -2   8  221.38   18.70
  -6  -2   8  188.88   16.70
   5   2  -8  266.97   20.20
  -5  -2   8  263.17   20.60
  -5  -2   8  251.77   18.60
   4   2  -8  717.43   44.30
   4   2  -8  813.52   49.30
  -4  -2   8  792.52   48.40
  -4  -2   8  789.22   44.10
   3   2  -8  864.31   44.60
   3   2  -8  782.52   48.40
  -3  -2   8  730.73   42.60
  -3  -2   8  700.23   47.70
   2   2  -8  847.92   48.10
  -2  -2   8  740.23   41.60
  -2  -2   8  685.23   47.10
   1   2  -8 1160.38   64.49
   1   2  -8 1033.50   59.69
  -1  -2   8  883.91   62.99
  -1  -2   8 1077.39   55.29
   0   2  -8  917.51   63.19
   0   2  -8  910.41   62.89
   0   2  -8 1089.89   59.39
   0  -2   8 1065.49   63.19
   0  -2   8 1153.48   54.29
  -1   2  -8  813.12   46.80
  -1   2  -8  673.33   49.50
   1  -2   8  825.82   41.60
   1  -2   8  841.52   50.09
  -2   2  -8  447.66   29.60
  -2   2  -8  415.36   31.00
   2  -2   8  486.05   31.40
   2  -2   8  512.95   25.10
  -3   2  -8  855.91   55.69
  -3   2  -8  914.41   53.59
   3  -2   8  948.11   55.39
  -4   2  -8  165.98   14.50
  -4   2  -8  174.88   16.10
   4  -2   8  196.28   16.00
  -5   2  -8  213.48   18.50
  -5   2  -8  208.78   18.20
   5  -2   8  219.38   17.00
  -6   2  -8  172.68   17.70
   6  -2   8  176.38   16.30
  -7   2  -8   38.60   10.30
   7  -2   8   46.90    8.70
   7  -2   8   25.50   13.10
  -8   2  -8   10.20    9.60
  -8   2  -8  -12.40    9.30
   8  -2   8   13.50    8.00
   8  -2   8   -2.30    8.90
   8   1  -8   16.40    9.90
  -8  -1   8   -2.20    6.90
   7   1  -8    2.40    6.10
  -7  -1   8   -6.90    7.90
   6   1  -8   -2.80    4.90
  -6  -1   8   -3.00    4.90
  -6  -1   8   -0.70    5.00
   5   1  -8    1.10    6.10
   5   1  -8    3.80    3.70
  -5  -1   8    6.50    4.90
  -5  -1   8   -1.40    5.80
   4   1  -8   24.60    4.40
   4   1  -8   19.80    6.50
  -4  -1   8   20.60    5.70
  -4  -1   8   17.70    6.20
   3   1  -8   38.40    5.80
   3   1  -8   40.90    7.20
  -3  -1   8   39.60    6.80
  -3  -1   8   37.90    6.80
   2   1  -8  102.39   10.30
   2   1  -8  102.59    8.60
  -2  -1   8   78.99    6.40
  -2  -1   8   98.79    8.70
  -2  -1   8   85.99   10.70
   1   1  -8   53.29    5.90
  -1  -1   8   51.69    8.60
  -1  -1   8   43.00    5.50
   0   1  -8  134.39   11.50
   0   1  -8  151.08   13.00
   0   1  -8  159.08   12.50
   0  -1   8  137.79   10.10
   0  -1   8  124.89   13.90
  -1   1  -8  594.24   38.70
  -1   1  -8  682.73   41.80
   1  -1   8  669.33   34.80
   1  -1   8  635.04   40.90
  -2   1  -8  265.77   19.90
  -2   1  -8  265.37   19.80
   2  -1   8  298.87   16.00
   2  -1   8  284.87   20.60
  -3   1  -8  463.65   29.10
  -3   1  -8  445.16   29.30
   3  -1   8  495.05   29.70
   3  -1   8  397.86   32.00
   3  -1   8  467.15   24.60
  -4   1  -8  287.97   20.70
  -4   1  -8  292.87   21.60
  -4   1  -8  343.97   25.20
   4  -1   8  307.87   16.70
   4  -1   8  303.07   21.20
   4  -1   8  252.77   23.20
  -5   1  -8  143.79   13.10
  -5   1  -8  135.69   13.10
  -5   1  -8  134.79   16.80
   5  -1   8  146.39   12.30
   5  -1   8  122.79   15.50
  -6   1  -8  378.26   26.40
   6  -1   8  299.57   30.50
   6  -1   8  388.36   25.40
  -7   1  -8  188.58   18.30
   7  -1   8  147.09   19.90
   7  -1   8  194.38   16.70
  -8   1  -8   50.99   11.40
  -8   1  -8   16.10   15.50
   8  -1   8   51.39    8.90
   8  -1   8   32.40   14.30
   8   0  -8   55.49   11.90
  -8   0   8   35.90    9.80
   7   0  -8  198.58   19.10
  -7   0   8  171.88   19.80
   6   0  -8  156.48   12.80
   6   0  -8  151.28   15.70
  -6   0   8  129.29   16.80
   5   0  -8  237.68   16.10
   5   0  -8  227.88   18.00
  -5   0   8  194.78   18.20
  -5   0   8  200.78   16.60
   4   0  -8  642.14   34.90
   4   0  -8  563.84   37.00
  -4   0   8  558.34   36.80
  -4   0   8  578.34   34.90
   3   0  -8  751.72   41.80
   3   0  -8  730.23   44.80
  -3   0   8  735.93   41.60
  -3   0   8  674.13   44.20
   2   0  -8  807.72   49.20
   2   0  -8  802.82   46.20
  -2   0   8  767.62   49.50
  -2   0   8  849.81   45.30
   1   0  -8 1156.78   65.59
   1   0  -8 1171.38   69.19
  -1   0   8 1027.00   69.69
  -1   0   8 1292.77   62.59
   0   0  -8 1594.64   92.59
   0   0  -8 1747.33   88.59
   0   0   8 1389.46   92.29
   0   0   8 1556.94   82.29
  -1   0  -8  756.32   53.19
  -1   0  -8  984.90   51.79
   1   0   8  910.91   46.80
   1   0   8  861.31   53.39
  -2   0  -8  967.10   55.29
  -2   0  -8  833.82   56.29
   2   0   8  979.40   49.30
   2   0   8  963.10   56.09
  -3   0  -8  564.14   36.80
  -3   0  -8  626.14   37.70
   3   0   8  598.04   37.20
   3   0   8  622.64   32.30
  -4   0  -8  318.67   22.50
  -4   0  -8  291.67   20.50
   4   0   8  343.37   18.00
   4   0   8  295.37   20.80
  -5   0  -8  502.85   33.30
   5   0   8  526.75   32.90
  -6   0  -8  200.98   18.20
  -6   0  -8  253.87   25.40
   6   0   8  208.78   17.10
  -7   0  -8   13.80    7.50
  -7   0  -8  -11.00   11.80
   7   0   8   13.60    6.10
   7   0   8   25.40   12.10
  -8   0  -8    5.00    7.60
   8   0   8    7.20    6.50
   8   0   8   -1.30   11.40
  -9   0  -8    7.80    9.00
  -9   0  -8  -21.90   13.50
   9   0   8   11.10    7.60
   9   0   8   -0.90   12.70
   7  -1  -8    0.20    8.20
  -7   1   8   -0.40    6.60
   6  -1  -8    0.60    7.00
   6  -1  -8   -2.00    5.40
  -6   1   8   -4.60    5.40
   5  -1  -8    2.30    5.90
   5  -1  -8    4.00    4.90
  -5   1   8   -3.50    6.60
   4  -1  -8   74.69   10.00
   4  -1  -8   77.69    8.80
  -4   1   8   68.79    8.10
  -4   1   8   56.19    9.60
   3  -1  -8  127.89   11.60
   3  -1  -8  143.69   11.10
  -3   1   8  118.39   10.90
  -3   1   8  132.19   13.50
   2  -1  -8   63.79    7.20
   2  -1  -8   55.69    4.60
   2  -1  -8   56.99    7.40
  -2   1   8   48.10    8.30
  -2   1   8   51.39    7.60
   1  -1  -8  765.32   43.90
   1  -1  -8  652.93   43.80
   1  -1  -8  721.33   41.80
  -1   1   8  684.23   45.30
  -1   1   8  801.12   41.10
   0  -1  -8  316.97   20.80
   0  -1  -8  296.27   21.30
   0  -1  -8  330.07   21.20
   0   1   8  355.96   20.00
   0   1   8  335.67   23.30
  -1  -1  -8  376.36   22.00
  -1  -1  -8  381.86   22.10
  -1  -1  -8  318.37   22.60
   1   1   8  296.57   22.50
   1   1   8  306.37   19.60
  -2  -1  -8  638.34   43.50
  -2  -1  -8  799.02   43.90
  -2  -1  -8  835.02   46.10
   2   1   8  671.13   43.20
   2   1   8  661.33   38.40
  -3  -1  -8 1476.05   78.99
  -3  -1  -8 1240.18   79.29
   3   1   8 1402.26   70.89
   3   1   8 1345.47   79.19
  -4  -1  -8 1024.60   57.09
  -4  -1  -8  826.02   55.59
   4   1   8  954.40   56.39
   4   1   8 1008.60   50.09
  -5  -1  -8  660.43   41.80
   5   1   8  660.73   41.20
   5   1   8  692.33   36.20
  -6  -1  -8  575.64   37.40
   6   1   8  591.24   32.00
   6   1   8  584.34   36.50
  -7  -1  -8  268.67   21.60
   7   1   8  284.27   21.00
  -8  -1  -8  185.28   23.50
  -8  -1  -8  160.28   17.30
   8   1   8  168.98   15.50
   8   1   8  227.08   22.60
  -9  -1  -8  290.47   25.20
   9   1   8  306.27   25.30
   9   1   8  368.66   33.40
   7  -2  -8  131.89   16.80
  -7   2   8   93.79   15.20
   6  -2  -8  112.09   14.50
   6  -2  -8  106.79   12.50
  -6   2   8   70.19   12.90
   5  -2  -8  192.18   16.00
   5  -2  -8  217.88   16.40
  -5   2   8  172.68   19.10
   4  -2  -8  345.17   24.20
   4  -2  -8  363.26   23.20
  -4   2   8  329.37   25.20
   3  -2  -8  834.92   49.70
   3  -2  -8  895.41   47.70
  -3   2   8  733.63   48.10
  -3   2   8  796.72   47.30
   2  -2  -8  769.12   50.49
   2  -2  -8  891.51   48.80
   2  -2  -8  864.21   50.79
  -2   2   8  912.21   48.40
  -2   2   8  795.22   50.39
   1  -2  -8 1120.29   64.59
   1  -2  -8 1002.80   65.49
   1  -2  -8 1097.99   61.99
  -1   2   8 1011.70   65.59
  -1   2   8 1252.67   60.39
   0  -2  -8  485.35   32.10
   0  -2  -8  499.55   34.00
   0  -2  -8  558.94   33.30
   0   2   8  626.64   31.80
   0   2   8  581.24   35.20
  -1  -2  -8  551.04   32.60
  -1  -2  -8  554.84   32.60
  -1  -2  -8  458.35   34.00
   1   2   8  585.84   30.60
   1   2   8  548.85   33.60
  -2  -2  -8  898.11   51.39
  -2  -2  -8  750.12   53.59
   2   2   8  890.31   51.19
   2   2   8  909.71   46.30
  -3  -2  -8  334.47   24.40
  -3  -2  -8  356.56   24.10
  -3  -2  -8  305.47   19.80
   3   2   8  348.37   19.30
   3   2   8  341.67   21.90
  -4  -2  -8  214.48   18.60
  -4  -2  -8  256.37   19.20
   4   2   8  209.98   15.60
   4   2   8  227.78   14.30
  -5  -2  -8  295.17   22.10
   5   2   8  291.67   17.50
   5   2   8  283.47   20.10
  -6  -2  -8   47.10    9.00
   6   2   8   63.59    9.10
   6   2   8   51.09    7.10
  -7  -2  -8    2.60    6.10
  -7  -2  -8    7.80    9.10
   7   2   8    3.00    5.50
   7   2   8   -0.30    3.60
  -8  -2  -8    9.60    7.10
  -8  -2  -8    5.80   13.90
   8   2   8    8.30    6.70
  -9  -2  -8  -11.00   10.20
  -9  -2  -8   -0.10    7.00
   9   2   8    4.00    7.40
   7  -3  -8    3.50    7.40
   7  -3  -8    7.70    8.10
  -7   3   8   -1.40    9.80
   6  -3  -8    4.80    8.40
   6  -3  -8    2.50    6.80
  -6   3   8   -2.10    6.40
   5  -3  -8    5.60    5.60
   5  -3  -8    4.70    6.60
  -5   3   8  -10.80    7.90
   4  -3  -8  178.88   14.80
   4  -3  -8  163.58   14.90
  -4   3   8  126.49   17.50
   3  -3  -8  577.84   37.00
   3  -3  -8  607.94   35.80
  -3   3   8  592.74   37.10
  -3   3   8  563.84   37.00
   2  -3  -8  136.69   10.80
   2  -3  -8  128.79   10.10
   2  -3  -8  143.39   11.10
  -2   3   8  123.29   12.80
  -2   3   8  138.59   11.00
   1  -3  -8  440.06   26.40
   1  -3  -8  418.56   25.50
   1  -3  -8  414.56   26.30
  -1   3   8  461.85   26.40
  -1   3   8  346.37   27.20
   0  -3  -8  257.47   17.90
   0  -3  -8  247.28   17.40
   0  -3  -8  266.67   16.90
   0   3   8  273.07   17.50
   0   3   8  263.77   18.80
  -1  -3  -8  770.82   43.80
  -1  -3  -8  749.82   46.10
  -1  -3  -8  648.64   42.90
   1   3   8  762.92   44.50
   1   3   8  769.62   41.00
  -2  -3  -8 2874.51  152.18
  -2  -3  -8 2948.21  161.08
  -2  -3  -8 2546.95  160.98
   2   3   8 2641.64  156.58
   2   3   8 2494.35  140.79
  -3  -3  -8 1485.05   96.89
   3   3   8 1606.64   82.89
   3   3   8 1676.03   91.69
  -4  -3  -8  452.95   30.30
   4   3   8  442.36   25.30
   4   3   8  429.66   27.50
  -5  -3  -8  942.51   61.29
  -5  -3  -8  971.10   57.09
   5   3   8  942.31   56.19
   5   3   8  927.31   50.39
  -6  -3  -8  809.52   52.19
  -6  -3  -8 1006.70   58.49
   6   3   8  809.22   46.20
   6   3   8  825.92   51.59
  -7  -3  -8  447.16   30.70
   7   3   8  442.26   30.40
   7   3   8  468.05   26.60
  -8  -3  -8  314.87   24.30
   8   3   8  330.87   24.10
   8   3   8  348.37   21.20
   9   3   8  230.28   21.30
   6  -4  -8   48.50   10.20
   6  -4  -8   46.70   11.50
  -6   4   8   28.80   11.80
   5  -4  -8  161.88   17.00
   5  -4  -8  156.28   16.20
  -5   4   8  129.89   19.60
  -5   4   8  167.08   17.20
   4  -4  -8  141.39   14.50
   4  -4  -8  138.89   14.60
  -4   4   8  107.79   15.20
  -4   4   8  147.89   14.80
   3  -4  -8  393.36   26.70
   3  -4  -8  388.56   26.10
  -3   4   8  386.36   28.80
  -3   4   8  392.16   26.80
   2  -4  -8  582.94   35.70
   2  -4  -8  595.84   36.60
   2  -4  -8  555.54   36.60
  -2   4   8  592.24   36.30
  -2   4   8  596.24   36.60
   1  -4  -8  326.27   21.50
   1  -4  -8  315.67   21.20
   1  -4  -8  317.57   21.90
  -1   4   8  320.87   21.50
  -1   4   8  376.66   23.80
   0  -4  -8  155.68   11.40
   0  -4  -8  153.58   12.60
   0  -4  -8  156.68   11.90
   0   4   8  156.98   13.80
   0   4   8  169.28   11.60
   0   4   8  153.48   13.10
  -1  -4  -8  437.76   25.70
  -1  -4  -8  403.16   26.10
  -1  -4  -8  444.16   27.90
   1   4   8  412.16   25.00
   1   4   8  407.26   26.30
  -2  -4  -8  235.88   17.10
  -2  -4  -8  229.08   13.80
  -2  -4  -8  198.68   15.20
   2   4   8  219.88   15.10
   2   4   8  210.28   14.70
  -3  -4  -8  122.59   11.50
  -3  -4  -8   90.69   10.00
   3   4   8   85.29    8.60
   3   4   8   94.59    8.90
  -4  -4  -8  193.28   17.70
  -4  -4  -8  267.87   19.50
   4   4   8  223.88   16.00
   4   4   8  216.88   14.50
  -5  -4  -8   63.99   11.20
  -5  -4  -8   56.39   10.80
   5   4   8   75.99    9.00
   5   4   8   66.39    7.60
  -6  -4  -8    8.50    6.90
  -6  -4  -8   14.00    8.70
   6   4   8   14.80    3.90
   6   4   8   19.20    5.80
  -7  -4  -8    1.00    7.20
  -7  -4  -8    1.80    6.10
   7   4   8   12.50    5.10
   7   4   8   -3.90    4.70
  -8  -4  -8    9.40    9.80
  -8  -4  -8    8.90    6.40
   8   4   8    4.00    5.00
   8   4   8   -8.70    6.30
  -9  -4  -8   29.20   15.80
   9   4   8   15.40    6.20
   9   4   8   15.20    6.80
   5  -5  -8   49.99    9.70
   5  -5  -8   47.40   10.40
  -5   5   8   47.60    9.60
  -5   5   8   25.00   11.80
   4  -5  -8  136.69   15.40
   4  -5  -8  118.49   12.90
  -4   5   8   85.99   15.60
  -4   5   8  137.99   15.30
   3  -5  -8  161.18   15.40
   3  -5  -8  164.68   15.60
  -3   5   8  161.68   15.30
  -3   5   8  134.49   19.50
   2  -5  -8  173.28   15.20
   2  -5  -8  166.98   13.40
  -2   5   8  170.78   14.30
  -2   5   8  140.29   18.30
   1  -5  -8  420.66   27.20
   1  -5  -8  408.76   27.80
   1  -5  -8  406.86   27.10
  -1   5   8  467.05   28.30
  -1   5   8  409.36   27.00
   0  -5  -8  469.35   29.70
   0  -5  -8  462.45   31.00
   0  -5  -8  460.05   29.60
   0   5   8  497.85   29.40
   0   5   8  492.95   29.80
  -1  -5  -8  873.51   50.49
  -1  -5  -8  817.12   49.40
  -1  -5  -8  862.71   53.29
   1   5   8  914.61   50.69
   1   5   8  817.82   50.19
   1   5   8  835.82   47.50
  -2  -5  -8 1267.47   77.99
  -2  -5  -8 1494.35   80.69
  -2  -5  -8 1459.35   84.69
   2   5   8 1315.77   73.49
   2   5   8 1371.36   79.59
  -3  -5  -8 1394.86   77.39
  -3  -5  -8 1423.06   83.69
   3   5   8 1270.27   71.59
   3   5   8 1333.67   78.29
  -4  -5  -8  343.67   25.60
   4   5   8  331.57   20.70
   4   5   8  341.37   22.40
  -5  -5  -8 1222.28   84.49
  -5  -5  -8 1405.06   80.19
   5   5   8 1368.56   79.19
   5   5   8 1427.46   72.19
  -6  -5  -8  976.80   57.99
   6   5   8  893.21   55.99
   6   5   8  947.61   50.99
  -7  -5  -8  462.25   37.00
  -7  -5  -8  495.15   33.70
   7   5   8  541.25   30.20
  -8  -5  -8  525.35   38.30
   8   5   8  447.46   31.70
   8   5   8  457.55   28.90
   9   5   8  200.78   20.70
   9   5   8  221.58   16.10
   5  -6  -8  105.19   14.40
   5  -6  -8  112.09   17.10
  -5   6   8  107.29   14.20
  -5   6   8   61.29   15.00
   4  -6  -8   74.99   12.30
   4  -6  -8   63.99   11.50
  -4   6   8   41.90   13.50
  -4   6   8   87.19   14.50
   3  -6  -8  150.08   15.70
   3  -6  -8  144.19   15.90
  -3   6   8  104.89   17.00
  -3   6   8  138.69   15.20
   2  -6  -8  194.78   16.90
   2  -6  -8  203.38   17.70
  -2   6   8  181.48   21.40
  -2   6   8  203.38   16.70
   1  -6  -8  114.39   11.70
   1  -6  -8  113.69   11.60
   1  -6  -8  123.49   13.50
  -1   6   8  118.09   11.50
  -1   6   8  121.49   14.20
   0  -6  -8   90.19    9.40
   0  -6  -8   93.99   10.80
   0  -6  -8   95.19   10.00
   0   6   8   97.69   13.50
   0   6   8   98.59    9.30
  -1  -6  -8  221.48   15.60
  -1  -6  -8  235.58   18.10
  -1  -6  -8  225.28   17.00
   1   6   8  227.08   17.50
   1   6   8  229.68   15.40
  -2  -6  -8   18.80    5.60
   2   6   8   14.20    4.50
   2   6   8   14.30    4.00
  -3  -6  -8   28.60    5.60
  -3  -6  -8   37.70    7.70
   3   6   8   24.20    4.90
   3   6   8   26.60    4.80
  -4  -6  -8  210.08   16.50
  -4  -6  -8  166.88   17.00
   4   6   8  186.98   14.00
   4   6   8  163.88   13.00
  -5  -6  -8   -3.10    6.90
  -5  -6  -8   -1.00    5.10
   5   6   8   -1.10    3.10
   5   6   8    0.50    4.30
  -6  -6  -8   24.40    8.20
  -6  -6  -8   15.40    9.00
   6   6   8   26.20    7.30
  -7  -6  -8   -1.90    8.90
  -7  -6  -8    2.10    6.70
   7   6   8    3.00    5.50
  -8  -6  -8   19.90   11.90
   8   6   8   14.40    6.00
  -9  -6  -8   45.10   15.60
   9   6   8   25.30    6.90
   4  -7  -8   57.89   12.20
   4  -7  -8   57.89   12.70
  -4   7   8   72.59   12.70
   3  -7  -8   78.29   12.40
   3  -7  -8   74.39   12.40
  -3   7   8   95.89   14.10
  -3   7   8   55.49   14.90
   2  -7  -8  292.47   23.30
   2  -7  -8  298.57   22.90
  -2   7   8  305.37   22.40
  -2   7   8  261.27   24.70
   1  -7  -8  300.27   21.50
   1  -7  -8  271.27   22.10
   1  -7  -8  298.87   21.80
  -1   7   8  328.67   26.30
  -1   7   8  293.47   21.30
   0  -7  -8  322.57   24.20
   0  -7  -8  313.27   22.40
   0   7   8  353.86   23.80
   0   7   8  319.37   22.10
  -1  -7  -8  794.52   49.99
  -1  -7  -8  756.02   45.90
   1   7   8  775.42   46.70
   1   7   8  768.32   45.00
  -2  -7  -8  867.91   52.49
  -2  -7  -8  819.12   48.10
   2   7   8  740.83   45.30
  -3  -7  -8  898.21   52.29
  -3  -7  -8  717.73   46.70
   3   7   8  742.53   44.60
   3   7   8  827.42   47.40
  -4  -7  -8  728.43   43.00
  -4  -7  -8  704.43   46.90
   4   7   8  680.73   39.90
   4   7   8  683.53   42.20
  -5  -7  -8  775.22   52.09
   5   7   8  777.42   44.40
  -6  -7  -8  544.95   40.90
   6   7   8  584.14   34.20
  -7  -7  -8  493.85   40.70
  -7  -7  -8  556.44   35.80
   7   7   8  581.54   33.90
  -8  -7  -8  295.77   30.40
   8   7   8  368.06   23.90
  -9  -7  -8  175.78   21.70
   9   7   8  158.98   17.50
   3  -8  -8   40.50   11.60
   3  -8  -8   45.80   11.70
  -3   8   8   43.60   10.70
  -3   8   8   18.30   13.40
   2  -8  -8   40.30   10.50
   2  -8  -8   45.10   11.20
  -2   8   8   24.50   13.00
  -2   8   8   44.60    9.80
   1  -8  -8    6.20    7.10
   1  -8  -8   10.80    6.50
  -1   8   8   -9.50    9.40
  -1   8   8    7.10    6.50
   0  -8  -8   53.99   10.00
   0  -8  -8   50.29    9.80
   0   8   8   51.09   11.40
   0   8   8   44.60    7.60
  -1  -8  -8   50.59    9.80
  -1  -8  -8   46.00    9.00
   1   8   8   38.90    9.30
  -2  -8  -8    2.90    6.00
  -2  -8  -8    1.90    6.90
   2   8   8    0.80    7.10
  -3  -8  -8    5.30    7.30
  -3  -8  -8    3.60    5.90
   3   8   8   -0.60    6.70
  -4  -8  -8    2.00    5.50
  -4  -8  -8    1.70    7.70
   4   8   8    0.20    5.60
  -5  -8  -8   35.30   10.60
  -5  -8  -8   48.10    9.60
   5   8   8   32.80    8.20
  -6  -8  -8   34.70   11.40
   6   8   8   41.90    8.00
  -7  -8  -8   27.20   12.00
  -7  -8  -8   25.90    7.90
   7   8   8   24.50    7.60
  -8  -8  -8   55.69   10.40
  -8  -8  -8   56.69   14.50
   8   8   8   61.09   11.10
   2  -9  -8  121.49   18.10
   2  -9  -8  150.48   19.50
  -2   9   8  141.89   16.60
  -2   9   8  100.09   18.70
   1  -9  -8  155.88   16.40
   1  -9  -8  140.89   17.40
  -1   9   8  162.18   16.20
  -1   9   8  150.68   19.70
   0  -9  -8  247.38   22.30
   0  -9  -8  238.08   22.60
   0   9   8  291.67   25.40
  -1  -9  -8  443.26   33.80
  -1  -9  -8  444.76   30.50
   1   9   8  507.55   32.70
  -2  -9  -8  314.47   25.70
  -2  -9  -8  310.37   23.00
   2   9   8  275.57   23.30
  -3  -9  -8  282.27   22.30
  -3  -9  -8  340.27   26.40
   3   9   8  286.47   23.70
  -4  -9  -8  448.96   33.10
  -4  -9  -8  606.34   38.90
   4   9   8  516.25   33.50
  -5  -9  -8  415.46   27.70
  -5  -9  -8  353.66   29.00
   5   9   8  353.06   25.80
  -6  -9  -8  405.16   32.30
   6   9   8  427.86   29.80
  -7  -9  -8  334.87   30.20
  -7  -9  -8  382.06   27.70
   7   9   8  391.76   27.50
  -8  -9  -8  126.39   16.80
  -8  -9  -8  128.79   21.80
   8   9   8  129.79   16.10
   0 -10  -8   18.20    9.90
   0 -10  -8   18.10   10.20
   0  10   8   22.70   11.60
  -1 -10  -8   -0.70    8.10
  -1 -10  -8    1.50    8.80
   1  10   8   13.20    9.50
  -2 -10  -8    1.10    9.20
  -2 -10  -8    5.20    7.90
   2  10   8    8.10    8.20
  -3 -10  -8    5.40    7.30
  -3 -10  -8   -1.50    6.60
   3  10   8    2.10    8.70
  -4 -10  -8   21.30    7.40
  -4 -10  -8   43.00   12.00
   4  10   8   23.50    7.20
  -5 -10  -8   33.00   10.00
   5  10   8   23.70    7.40
  -6 -10  -8   26.00   12.10
   6  10   8   17.00    8.80
  -7 -10  -8   87.29   14.10
  -7 -10  -8   77.99   16.50
   7  10   8   66.59   13.50
  -2 -11  -8  186.88   23.10
  -2 -11  -8  174.28   19.70
   2  11   8  218.38   22.10
  -3 -11  -8  307.37   28.00
  -3 -11  -8  256.77   22.80
   3  11   8  279.27   26.30
  -4 -11  -8  274.87   27.10
   4  11   8  245.68   25.10
  -5 -11  -8  145.89   18.70
   5  11   8  134.79   20.50
   5  10  -9   21.30   13.20
  -5 -10   9   49.80   14.00
   4  10  -9   20.70   16.50
   3  10  -9   21.70   13.00
  -3 -10   9   25.10   14.50
  -3 -10   9   41.50   12.30
   2  10  -9   43.10   14.60
  -2 -10   9   55.39   12.40
  -2 -10   9   37.90   15.40
   1  10  -9   33.40   17.70
  -1 -10   9   54.69   16.30
  -1 -10   9   63.19   13.40
   0  10  -9   14.20   17.20
   0 -10   9   22.70   16.00
  -6  -9   9   -6.80   10.90
  -5  -9   9   -1.20   10.60
  -4  -9   9   -4.10    7.10
  -3  -9   9    2.20    9.40
  -3  -9   9  -16.70    8.90
  -2  -9   9   -5.60    8.40
  -2  -9   9   -8.80    9.50
  -1  -9   9    2.70    8.80
  -1  -9   9   -3.50    8.10
   0  -9   9   -5.10    8.20
   0  -9   9   -8.10   12.00
  -1   9  -9  -24.90   13.10
  -1   9  -9   -4.10    8.10
   1  -9   9  -14.60   12.30
   1  -9   9   -8.90    7.60
  -2   9  -9    0.60    9.30
  -2   9  -9  -17.90   14.60
   2  -9   9   -8.50   13.90
   2  -9   9    0.30    9.00
   7   8  -9   39.80   17.20
   7   8  -9   32.60    9.80
  -7  -8   9   23.80   12.90
  -7  -8   9   29.80    9.80
   6   8  -9   37.80   16.80
   6   8  -9   39.80    9.00
  -6  -8   9   35.70    8.80
  -6  -8   9   40.80   12.90
   5   8  -9   45.60   16.70
   4   8  -9   69.69   15.30
   3   8  -9   69.09   15.10
  -3  -8   9   94.29   16.30
   2   8  -9  113.69   20.40
  -2  -8   9  156.78   19.70
  -2  -8   9  170.58   17.30
   1   8  -9   93.19   17.00
  -1  -8   9  116.29   18.60
  -1  -8   9  143.39   18.20
   0   8  -9  125.89   14.20
   0   8  -9   87.49   19.00
   0  -8   9  136.09   17.80
   0  -8   9  102.09   19.80
  -1   8  -9  136.39   14.20
  -1   8  -9   96.49   20.00
   1  -8   9  120.69   22.10
   1  -8   9  166.28   19.30
   1  -8   9  143.09   15.90
  -2   8  -9   55.49   10.00
  -2   8  -9   38.50   16.30
   2  -8   9   58.19   10.30
   2  -8   9   69.79   16.90
  -3   8  -9   21.80   10.80
  -3   8  -9   -3.50   15.50
   3  -8   9    8.90   11.40
   3  -8   9   17.80   10.30
   7   7  -9    6.80   14.40
   7   7  -9   -6.20    7.60
  -7  -7   9  -11.50    7.30
  -7  -7   9   -4.20   10.40
   6   7  -9    7.80    5.70
   6   7  -9    8.30   13.80
  -6  -7   9    7.00   10.10
  -6  -7   9    1.50    5.10
   5   7  -9   -4.10    5.40
  -5  -7   9   -7.30    5.20
  -5  -7   9   -0.40    6.50
   4   7  -9    0.40    4.40
  -4  -7   9   -7.60    8.00
  -4  -7   9   -2.40    4.20
  -3  -7   9   -0.10    6.70
  -3  -7   9   -2.50    7.90
  -2  -7   9   -6.00    6.50
  -2  -7   9   -5.90    7.30
   1   7  -9    5.70   11.50
   1   7  -9   39.50    7.00
  -1  -7   9   34.30    9.00
  -1  -7   9   34.30   10.10
   0   7  -9    3.60    5.90
   0  -7   9    2.00    8.60
   0  -7   9   -1.80    7.70
  -1   7  -9   23.90    7.90
  -1   7  -9   -5.50   11.60
   1  -7   9   14.00    9.10
   1  -7   9   20.10   11.10
  -2   7  -9   59.09   13.80
  -2   7  -9   67.49   11.50
   2  -7   9   70.29   14.00
   2  -7   9   66.79   13.00
  -3   7  -9   35.20   10.40
  -3   7  -9   18.80   14.20
   3  -7   9   28.10   10.80
   3  -7   9   26.80   11.90
  -4   7  -9  -12.60   14.40
  -4   7  -9   10.20   10.40
   4  -7   9    5.30    9.80
   4  -7   9   14.30   14.40
   8   6  -9   76.29   17.30
   8   6  -9   33.70   10.80
  -8  -6   9   33.00   11.20
  -8  -6   9   39.00   11.20
   7   6  -9   50.09   10.70
  -7  -6   9   44.70   10.50
  -7  -6   9   62.99   13.60
   6   6  -9   90.29   14.30
  -6  -6   9  101.99   14.90
  -6  -6   9   84.89   13.80
   5   6  -9  230.58   18.30
  -5  -6   9  230.38   23.00
  -5  -6   9  225.68   18.00
   4   6  -9  196.58   23.80
   4   6  -9  186.08   15.00
  -4  -6   9  188.38   18.30
  -4  -6   9  188.78   14.90
   3   6  -9  170.38   23.90
   3   6  -9  226.88   15.70
  -3  -6   9  261.17   22.20
  -3  -6   9  244.78   15.70
   2   6  -9  312.77   29.60
   2   6  -9  407.36   24.50
  -2  -6   9  362.36   28.60
  -2  -6   9  447.76   30.50
   1   6  -9  220.68   16.20
  -1  -6   9  223.58   21.10
  -1  -6   9  194.78   19.70
   0   6  -9  179.98   15.10
   0  -6   9  165.88   18.80
   0  -6   9  173.68   17.60
  -1   6  -9  281.77   20.60
  -1   6  -9  227.38   25.80
   1  -6   9  266.67   22.90
   1  -6   9  257.07   24.90
  -2   6  -9  132.69   15.00
  -2   6  -9  104.49   16.40
   2  -6   9  109.39   16.30
   2  -6   9  121.79   18.70
  -3   6  -9   41.80    8.70
  -3   6  -9   31.70   13.10
   3  -6   9   39.40   12.00
   3  -6   9   37.10   11.70
  -4   6  -9   66.89   17.20
  -4   6  -9   82.79   13.20
   4  -6   9  102.59   18.20
   4  -6   9   69.49   17.60
  -5   6  -9    1.60   13.90
  -5   6  -9   12.50    8.60
   5  -6   9    6.00    7.80
   5  -6   9   -1.90   13.80
   8   5  -9    8.70   11.90
  -8  -5   9  -15.60    8.30
  -8  -5   9   -8.50   10.00
   7   5  -9    4.60    8.70
  -7  -5   9   -2.70    6.70
  -7  -5   9  -10.80    7.60
   6   5  -9   -0.80   10.70
  -6  -5   9   -5.10    6.70
  -6  -5   9   -0.60    6.20
   5   5  -9   11.90    8.80
  -5  -5   9    2.70    6.30
  -5  -5   9    8.10    8.20
   4   5  -9   21.60   11.50
  -4  -5   9   10.60    7.70
  -4  -5   9   12.30    5.30
   3   5  -9   18.70   10.50
  -3  -5   9   21.10    8.00
  -3  -5   9   15.50    5.30
   2   5  -9   30.20   11.70
   2   5  -9   66.89    8.50
  -2  -5   9   59.99    7.30
  -2  -5   9   52.09    9.00
  -2  -5   9   59.19   10.80
   1   5  -9  139.39   12.00
   1   5  -9   81.49   15.00
  -1  -5   9  109.39   15.60
  -1  -5   9  113.89   13.10
   0   5  -9   39.70   12.10
   0   5  -9   83.69    9.90
   0  -5   9   67.39   12.10
   0  -5   9   60.39   11.50
  -1   5  -9  221.68   23.70
  -1   5  -9  269.47   19.50
   1  -5   9  237.78   23.00
   1  -5   9  272.67   24.10
  -2   5  -9  115.89   18.10
  -2   5  -9  149.19   14.90
   2  -5   9  149.59   19.20
   2  -5   9  134.39   16.50
  -3   5  -9   72.29   11.40
  -3   5  -9   63.09   13.70
   3  -5   9   81.29   13.60
   3  -5   9   74.39   13.60
  -4   5  -9   74.09   15.20
  -4   5  -9   81.59   12.30
   4  -5   9  110.19   17.40
   4  -5   9   62.29   16.00
  -5   5  -9  129.69   21.70
  -5   5  -9  147.89   16.30
   5  -5   9  126.09   23.50
  -6   5  -9   33.10   14.60
  -6   5  -9   51.29   13.20
   6  -5   9   45.30   14.10
  -8  -4   9   37.60   11.60
  -8  -4   9   43.10   12.40
   7   4  -9   81.09   13.60
  -7  -4   9   57.79   12.10
  -7  -4   9   48.30    9.60
   6   4  -9  215.28   19.20
  -6  -4   9  172.18   19.90
  -6  -4   9  157.38   17.70
  -5  -4   9  317.17   25.70
  -5  -4   9  305.37   22.30
  -4  -4   9  212.48   16.40
  -4  -4   9  208.38   18.50
   3   4  -9  449.56   28.10
  -3  -4   9  453.15   26.90
  -3  -4   9  443.66   32.40
   2   4  -9  219.08   16.20
   2   4  -9  241.88   21.70
  -2  -4   9  197.48   18.30
  -2  -4   9  225.58   14.40
  -2  -4   9  184.58   16.40
   1   4  -9  158.78   12.70
   1   4  -9  122.49   15.40
  -1  -4   9  132.29   13.70
  -1  -4   9  160.88   10.40
  -1  -4   9  131.59   16.20
   0   4  -9  399.96   33.80
   0   4  -9  516.55   29.80
   0  -4   9  528.05   34.60
   0  -4   9  406.46   32.10
  -1   4  -9  499.25   29.60
  -1   4  -9  415.26   33.20
   1  -4   9  507.25   33.00
   1  -4   9  374.56   31.50
  -2   4  -9   79.09   13.40
  -2   4  -9   97.89   12.10
   2  -4   9  106.79   15.80
   2  -4   9   80.39   13.60
  -3   4  -9   62.69    9.60
  -3   4  -9   47.50   10.90
   3  -4   9   67.29   11.70
   3  -4   9   41.60   12.20
  -4   4  -9  120.99   17.70
  -4   4  -9  129.89   15.90
   4  -4   9  161.68   18.00
  -5   4  -9    1.20    9.60
  -5   4  -9    9.00    8.80
   5  -4   9   -0.20   11.50
   5  -4   9   20.90    8.90
  -6   4  -9    7.10    9.70
  -6   4  -9    4.30   10.70
   6  -4   9   11.30   10.80
   6  -4   9   28.50   10.30
  -7   4  -9   12.50   11.50
   7  -4   9   -3.70   14.00
   8   3  -9    0.50    9.80
  -8  -3   9  -16.20    8.80
  -8  -3   9   -1.20    8.70
   7   3  -9    4.50    7.20
  -7  -3   9   -3.90    7.50
  -7  -3   9  -14.20    7.90
   6   3  -9    1.40    8.70
  -6  -3   9   -2.00    5.30
  -6  -3   9    1.40    7.00
   5   3  -9   77.49   13.60
  -5  -3   9   49.40    8.10
  -5  -3   9   47.30    9.80
   4   3  -9   42.90    9.60
  -4  -3   9   25.00    6.80
  -4  -3   9   21.70    7.60
  -3  -3   9   41.20    6.90
  -3  -3   9   38.50    7.90
   2   3  -9  330.47   21.10
  -2  -3   9  347.57   19.80
  -2  -3   9  259.97   20.60
  -2  -3   9  291.27   23.20
   1   3  -9  349.17   25.50
   1   3  -9  307.57   21.50
  -1  -3   9  346.27   19.30
  -1  -3   9  244.18   23.00
   0   3  -9  240.68   18.10
   0   3  -9  191.98   20.40
   0  -3   9  246.18   21.50
   0  -3   9  260.37   14.70
  -1   3  -9  489.45   33.00
  -1   3  -9  472.45   32.50
   1  -3   9  420.96   32.40
  -2   3  -9  202.18   14.80
  -2   3  -9  130.59   17.00
  -2   3  -9  197.28   17.50
   2  -3   9  133.69   16.80
  -3   3  -9  188.88   16.90
  -3   3  -9  179.18   17.50
  -4   3  -9  374.96   27.40
  -4   3  -9  358.96   29.30
   4  -3   9  404.26   27.70
  -5   3  -9  309.07   25.20
  -5   3  -9  295.97   26.10
   5  -3   9  353.26   25.60
  -6   3  -9  138.59   16.20
   6  -3   9  178.98   17.70
  -7   3  -9  128.49   16.10
   7  -3   9   85.99   19.20
   8   2  -9   55.59   10.90
  -8  -2   9   41.20   10.50
   7   2  -9   80.09   12.10
  -7  -2   9   59.69   10.80
  -7  -2   9   56.39   10.60
   6   2  -9  240.78   21.10
  -6  -2   9  212.28   20.70
  -6  -2   9  233.48   20.80
   5   2  -9  182.08   17.30
  -5  -2   9  161.48   17.00
  -5  -2   9  169.68   16.80
   4   2  -9  168.28   12.20
   4   2  -9  179.08   16.10
  -4  -2   9  151.48   13.70
  -4  -2   9  147.79   15.90
   3   2  -9  537.35   34.70
   3   2  -9  602.44   31.50
  -3  -2   9  478.65   30.80
  -3  -2   9  423.26   34.20
  -2  -2   9  295.97   22.40
  -2  -2   9  253.07   17.90
   1   2  -9  434.46   26.90
   1   2  -9  449.66   29.40
  -1  -2   9  358.76   23.90
   0   2  -9  717.33   50.89
   0   2  -9  855.21   48.90
   0   2  -9  772.42   51.89
   0  -2   9  891.51   44.10
   0  -2   9  846.02   52.59
  -1   2  -9  360.66   25.50
  -1   2  -9  350.06   26.70
   1  -2   9  391.86   21.40
   1  -2   9  398.26   27.30
  -2   2  -9   90.69   12.20
  -2   2  -9  108.19   13.70
  -2   2  -9  114.09   12.20
   2  -2   9   71.99   12.20
  -3   2  -9  204.38   17.60
  -3   2  -9  182.98   20.20
  -3   2  -9  194.38   17.20
   3  -2   9  229.78   18.30
  -4   2  -9   16.20   10.90
  -4   2  -9   42.40    8.50
  -4   2  -9   40.30    7.80
   4  -2   9   53.09    8.70
  -5   2  -9   -4.70    6.50
  -5   2  -9    1.60    5.40
   5  -2   9    5.60    6.30
   5  -2   9  -10.70    6.30
  -6   2  -9  -10.40    8.40
  -6   2  -9    8.40    8.50
   6  -2   9   12.80    7.00
   6  -2   9    2.70    8.80
  -7   2  -9   -5.40    8.50
   7  -2   9    3.90    6.70
  -8   2  -9   -3.90    9.80
   8  -2   9   10.70    7.60
   8   1  -9    2.60    9.40
  -8  -1   9  -12.10   10.00
   7   1  -9    4.80    8.80
  -7  -1   9    1.10    7.00
   6   1  -9   23.00    8.70
  -6  -1   9   30.20    7.60
  -6  -1   9   12.30    8.70
   5   1  -9   25.30    6.70
   5   1  -9   24.50    5.10
  -5  -1   9   10.70    6.00
  -5  -1   9   16.70    6.40
   4   1  -9   61.39    8.90
   4   1  -9   65.69    8.40
  -4  -1   9   58.89   10.30
  -4  -1   9   51.59    9.20
   3   1  -9  370.66   24.40
   3   1  -9  336.07   22.20
  -3  -1   9  333.17   24.90
  -3  -1   9  370.96   23.90
   2   1  -9  453.85   29.90
   2   1  -9  477.45   28.00
  -2  -1   9  431.46   27.10
   1   1  -9  500.75   33.50
   1   1  -9  625.64   35.20
  -1  -1   9  560.24   31.10
  -1  -1   9  452.95   35.90
   0   1  -9 1026.10   62.39
   0   1  -9 1058.69   62.29
   0   1  -9 1124.59   59.19
   0  -1   9  965.40   54.09
   0  -1   9  882.71   61.79
  -1   1  -9 1245.98   76.29
   1  -1   9 1292.57   79.29
   1  -1   9 1433.36   69.49
  -2   1  -9  253.47   20.40
   2  -1   9  288.67   21.10
   2  -1   9  271.37   22.20
   2  -1   9  330.77   17.00
  -3   1  -9  521.65   37.60
  -3   1  -9  557.94   37.50
   3  -1   9  611.84   38.00
   3  -1   9  666.33   41.30
   3  -1   9  599.54   31.60
  -4   1  -9  880.41   58.09
  -4   1  -9  894.81   56.69
   4  -1   9 1070.49   63.39
   4  -1   9  967.60   57.79
  -5   1  -9  439.36   33.20
  -5   1  -9  580.54   40.90
   5  -1   9  493.15   33.50
   5  -1   9  559.54   39.40
  -6   1  -9  377.16   33.60
  -6   1  -9  329.07   26.50
   6  -1   9  382.16   32.00
   6  -1   9  321.67   24.10
  -7   1  -9  227.58   20.10
  -7   1  -9  202.98   25.60
   7  -1   9  238.68   24.50
   7  -1   9  239.58   19.80
  -8   1  -9   51.79   12.40
   8  -1   9   73.79   13.10
   8  -1   9   56.99   16.80
   7   0  -9  106.79   13.40
  -7   0   9   73.39   13.80
   6   0  -9  118.89   14.80
  -6   0   9   97.09   14.20
   5   0  -9  119.79   10.90
   5   0  -9  101.19   11.70
  -5   0   9  119.49   13.30
  -5   0   9   99.19   13.10
   4   0  -9  301.57   21.80
   4   0  -9  294.47   19.30
  -4   0   9  288.07   21.10
  -4   0   9  275.67   21.30
   3   0  -9  362.26   22.10
   3   0  -9  330.07   23.50
  -3   0   9  366.16   24.30
  -3   0   9  332.97   24.70
   2   0  -9  219.38   15.70
   2   0  -9  234.18   17.30
  -2   0   9  198.98   18.60
  -2   0   9  267.07   17.00
   1   0  -9  138.89   11.90
   1   0  -9  141.29   10.80
  -1   0   9  144.69   12.10
  -1   0   9  116.69   14.50
   0   0  -9  842.32   50.79
   0   0  -9  931.01   49.10
   0   0   9  739.23   51.79
   0   0   9  812.82   45.20
  -1   0  -9  219.78   18.20
  -1   0  -9  258.67   18.60
   1   0   9  235.78   18.20
   1   0   9  243.28   15.10
  -2   0  -9   60.09   10.70
  -2   0  -9   49.99    8.80
   2   0   9   71.59    9.90
   2   0   9   84.39    6.90
  -3   0  -9  136.79   11.30
  -3   0  -9  110.19   12.20
   3   0   9  121.49    9.10
   3   0   9  122.59   12.00
  -4   0  -9   48.40    7.60
  -4   0  -9   50.59    9.80
   4   0   9   67.79    6.00
   4   0   9   65.79    7.90
  -5   0  -9    2.20    9.70
  -5   0  -9   -8.90    6.00
   5   0   9   -1.90    4.60
  -6   0  -9   33.20   11.00
  -6   0  -9   24.00    8.90
   6   0   9   27.30    7.00
   6   0   9   55.89   11.20
  -7   0  -9    2.00    7.80
  -7   0  -9   -2.30   13.10
   7   0   9   18.20   11.80
   7   0   9    4.40    4.80
  -8   0  -9    0.30    8.20
  -8   0  -9  -18.70   14.10
   8   0   9    4.70   12.60
   8   0   9    7.30    5.40
   7  -1  -9   22.70    7.90
  -7   1   9    7.80   10.80
   6  -1  -9   61.99   10.50
   6  -1  -9   60.79   10.70
  -6   1   9   36.30   11.50
   5  -1  -9   32.50    6.90
   5  -1  -9   35.70    6.80
  -5   1   9   18.10    9.30
   4  -1  -9  104.89   11.90
   4  -1  -9  114.69   10.90
  -4   1   9   77.69   12.00
  -4   1   9   91.49   11.00
   3  -1  -9  790.02   48.40
   3  -1  -9  824.22   45.90
  -3   1   9  711.23   47.90
  -3   1   9  822.42   46.50
   2  -1  -9  537.65   33.20
   2  -1  -9  526.65   31.40
  -2   1   9  460.45   34.30
  -2   1   9  588.24   32.90
   1  -1  -9  421.76   24.00
   1  -1  -9  359.46   24.10
   1  -1  -9  319.77   23.20
  -1   1   9  414.26   23.70
  -1   1   9  358.76   27.10
   0  -1  -9 1126.19   69.19
   0  -1  -9 1224.38   73.99
   0  -1  -9 1221.68   72.49
   0   1   9 1339.87   65.79
   0   1   9 1219.78   73.69
  -1  -1  -9 1040.00   56.69
  -1  -1  -9 1049.89   55.19
  -1  -1  -9  921.61   57.99
   1   1   9  819.52   56.49
   1   1   9  873.31   50.29
   2   1   9  747.93   39.30
   2   1   9  703.03   44.40
  -3  -1  -9 1047.10   69.99
  -3  -1  -9 1306.77   70.69
   3   1   9 1199.18   70.09
   3   1   9 1228.28   62.59
  -4  -1  -9  796.22   48.90
   4   1   9  747.43   47.40
   4   1   9  804.42   41.80
  -5  -1  -9  437.36   30.60
   5   1   9  409.46   28.00
   5   1   9  457.35   24.70
  -6  -1  -9  707.03   45.80
   6   1   9  724.53   38.90
   6   1   9  722.03   44.40
  -7  -1  -9  296.17   24.40
   7   1   9  307.27   22.90
  -8  -1  -9  159.28   22.20
  -8  -1  -9   95.99   15.60
   8   1   9  104.29   14.50
  -9  -1  -9  120.49   24.10
  -9  -1  -9  115.59   17.50
   9   1   9  131.29   16.30
   7  -2  -9   71.09   12.20
  -7   2   9   30.90   12.70
   6  -2  -9   58.39    9.40
   6  -2  -9   58.29   10.80
  -6   2   9   28.40   12.00
   5  -2  -9   96.39   12.90
   5  -2  -9   92.99   11.90
  -5   2   9   72.29   11.90
   4  -2  -9  205.68   17.10
   4  -2  -9  219.78   16.50
  -4   2   9  175.28   19.90
   3  -2  -9   13.30    4.70
   3  -2  -9   19.10    5.70
  -3   2   9   14.80    6.30
  -3   2   9   18.30    4.90
   2  -2  -9  195.78   14.00
   2  -2  -9  174.78   13.10
  -2   2   9  179.78   16.30
  -2   2   9  151.18   14.40
   1  -2  -9  350.56   21.70
   1  -2  -9  277.27   21.00
   1  -2  -9  325.87   20.90
  -1   2   9  391.06   22.20
  -1   2   9  314.57   24.20
   0  -2  -9  135.59   11.70
   0  -2  -9  176.18   12.10
   0  -2  -9  141.29   11.50
   0   2   9  173.98   14.70
  -1  -2  -9   10.30    4.80
  -1  -2  -9    8.60    3.50
  -1  -2  -9    3.70    3.70
   1   2   9    3.20    4.10
   1   2   9    4.90    3.90
  -2  -2  -9   58.29    7.20
  -2  -2  -9   49.30    8.20
   2   2   9   66.19    6.80
   2   2   9   60.29    8.00
  -3  -2  -9   -2.70    5.90
  -3  -2  -9    3.40    5.50
   3   2   9   -0.20    2.80
   3   2   9    2.70    2.90
  -4  -2  -9   12.60    5.80
  -4  -2  -9   -3.60    6.70
   4   2   9    7.50    3.40
   4   2   9    4.40    4.40
  -5  -2  -9    5.60    6.30
  -5  -2  -9   -7.90    6.60
   5   2   9    3.50    3.60
  -6  -2  -9   -1.80    7.30
  -6  -2  -9   15.00   10.70
   6   2   9    7.10    4.20
   6   2   9    6.40    4.40
  -7  -2  -9   66.99   10.80
   7   2   9   85.79   11.70
   7   2   9   63.49    8.80
  -8  -2  -9   16.50   11.80
  -8  -2  -9    5.80    7.80
   8   2   9   11.20    7.20
  -9  -2  -9    9.60    8.70
  -9  -2  -9    6.30   16.00
   9   2   9    3.00    7.70
   6  -3  -9   29.00   10.00
   6  -3  -9   29.70    8.70
  -6   3   9    6.70   11.20
   5  -3  -9   48.10    7.90
   5  -3  -9   47.70    9.90
  -5   3   9   27.90   11.80
   4  -3  -9  139.49   14.20
   4  -3  -9  148.19   14.00
  -4   3   9  100.69   15.30
   3  -3  -9  589.04   36.00
   3  -3  -9  564.54   37.10
  -3   3   9  607.34   38.40
   2  -3  -9  218.18   16.30
   2  -3  -9  223.68   16.70
  -2   3   9  210.88   19.20
   1  -3  -9  524.35   31.80
   1  -3  -9  533.25   31.40
   1  -3  -9  478.35   31.90
  -1   3   9  435.06   33.40
  -1   3   9  590.24   31.80
   0  -3  -9  946.91   61.59
   0  -3  -9  997.60   59.89
   0  -3  -9  889.11   57.59
   0   3   9 1159.88   55.99
   0   3   9 1095.09   61.59
  -1  -3  -9  729.93   46.10
  -1  -3  -9  757.22   43.80
  -1  -3  -9  625.74   42.60
   1   3   9  798.32   41.10
   1   3   9  761.62   44.80
  -2  -3  -9 1372.86   70.89
  -2  -3  -9 1078.99   75.29
  -2  -3  -9 1423.56   71.99
   2   3   9 1143.99   71.79
   2   3   9 1137.09   65.19
  -3  -3  -9 1254.67   85.49
   3   3   9 1476.25   81.29
   3   3   9 1452.85   73.49
  -4  -3  -9  788.62   45.10
  -4  -3  -9  610.34   46.50
   4   3   9  707.33   43.00
   4   3   9  743.33   39.00
  -5  -3  -9  674.73   43.70
  -5  -3  -9  645.54   42.00
   5   3   9  627.94   35.30
   5   3   9  597.84   38.90
  -6  -3  -9  983.90   60.59
   6   3   9 1008.80   52.99
   6   3   9  954.10   58.99
  -7  -3  -9  347.47   27.10
   7   3   9  359.56   21.80
   7   3   9  360.36   24.80
  -8  -3  -9  190.88   18.70
   8   3   9  201.98   16.80
   8   3   9  179.38   15.30
   9   3   9  164.48   18.20
   6  -4  -9   14.50    9.60
   6  -4  -9   11.40    6.80
  -6   4   9  -15.20   10.70
   5  -4  -9   63.29   11.00
   5  -4  -9   59.49   10.20
  -5   4   9   29.00   12.70
   4  -4  -9  149.39   15.90
   4  -4  -9  161.98   15.80
  -4   4   9  135.79   17.80
   3  -4  -9   18.10    6.80
   3  -4  -9   21.70    5.90
  -3   4   9   19.60    6.70
  -3   4   9   11.20    7.40
   2  -4  -9   86.89   10.10
   2  -4  -9   83.19   11.20
  -2   4   9   68.69   12.00
  -2   4   9   95.29   10.30
   1  -4  -9  142.99   12.20
   1  -4  -9  148.99   12.20
   1  -4  -9  145.19   12.00
  -1   4   9  160.08   14.20
   0  -4  -9    0.80    3.50
   0  -4  -9   -1.90    3.50
   0  -4  -9    1.80    4.50
   0   4   9   -3.60    5.10
   0   4   9   -2.60    3.80
  -1  -4  -9   27.20    5.20
  -1  -4  -9   32.70    5.00
  -1  -4  -9   34.90    6.20
   1   4   9   35.00    5.70
   1   4   9   31.30    5.40
  -2  -4  -9   63.69    9.20
  -2  -4  -9   74.79    9.60
   2   4   9   67.79    7.50
   2   4   9   74.19    8.00
  -3  -4  -9  130.69   12.50
  -3  -4  -9   93.79   10.60
   3   4   9   98.39    9.70
   3   4   9   94.49   10.00
  -4  -4  -9    1.50    6.70
  -4  -4  -9   -2.30    5.70
   4   4   9   -3.70    3.80
   4   4   9    0.00    2.80
  -5  -4  -9   29.60    9.10
  -5  -4  -9   36.90   10.20
   5   4   9   35.70    6.50
   5   4   9   41.50    6.70
  -6  -4  -9  126.69   17.40
  -6  -4  -9  112.09   16.50
   6   4   9  142.89   13.40
   6   4   9  123.19   12.20
  -7  -4  -9  117.79   16.00
  -7  -4  -9   78.49   14.20
   7   4   9   86.89   10.20
   7   4   9  109.99   13.30
  -8  -4  -9   71.49   16.50
  -8  -4  -9   39.40    9.70
   8   4   9   35.70    7.20
   8   4   9   37.30    9.10
   9   4   9   47.80    8.40
   9   4   9   55.19   10.90
   5  -5  -9   68.49   12.40
   5  -5  -9   65.09   11.60
  -5   5   9   29.30   13.80
  -5   5   9   94.09   15.60
   4  -5  -9  213.48   19.20
   4  -5  -9  200.38   18.80
  -4   5   9  156.38   24.30
  -4   5   9  216.68   19.20
   3  -5  -9  235.18   18.10
   3  -5  -9  224.38   18.00
  -3   5   9  251.37   25.30
  -3   5   9  228.98   18.00
   2  -5  -9  238.78   18.50
   2  -5  -9  249.78   19.40
  -2   5   9  244.58   18.60
  -2   5   9  230.58   22.80
   1  -5  -9  657.93   41.80
   1  -5  -9  634.64   42.60
   1  -5  -9  680.63   41.30
  -1   5   9  744.93   41.50
  -1   5   9  692.13   42.00
   0  -5  -9  766.22   47.10
   0  -5  -9  770.12   47.80
   0  -5  -9  772.12   49.80
   0   5   9  860.41   46.40
   0   5   9  823.12   48.10
  -1  -5  -9 1109.19   61.69
  -1  -5  -9 1083.49   64.89
  -1  -5  -9  955.90   59.99
   1   5   9 1038.00   61.69
   1   5   9 1051.29   57.29
  -2  -5  -9 1119.49   62.69
  -2  -5  -9  851.71   57.09
   2   5   9 1020.20   54.59
   2   5   9  996.80   58.49
  -3  -5  -9  751.62   43.00
  -3  -5  -9  718.13   46.20
   3   5   9  658.43   39.60
   3   5   9  702.03   42.60
  -4  -5  -9  718.73   47.50
   4   5   9  720.23   43.40
   4   5   9  706.13   40.00
  -5  -5  -9  833.52   48.20
  -5  -5  -9  629.74   49.00
   5   5   9  753.42   45.30
   5   5   9  747.33   41.60
  -6  -5  -9  603.34   41.20
   6   5   9  587.54   38.00
   6   5   9  603.74   34.60
  -7  -5  -9  255.27   22.90
  -7  -5  -9  254.97   23.70
   7   5   9  277.07   18.90
   7   5   9  246.98   19.40
  -8  -5  -9  275.07   27.80
   8   5   9  217.08   17.50
   8   5   9  243.58   21.00
  -9  -5  -9  189.58   27.30
   9   5   9  118.69   17.60
   9   5   9  134.79   14.80
   4  -6  -9   -0.70    8.70
   4  -6  -9    7.40    6.90
  -4   6   9    9.70    8.80
  -4   6   9  -11.00   11.70
   3  -6  -9    6.40    8.20
   3  -6  -9    4.70    7.70
  -3   6   9   -7.80   11.00
  -3   6   9    8.10    7.50
   2  -6  -9   17.40    6.30
   2  -6  -9   13.20    6.70
  -2   6   9    0.90    9.80
  -2   6   9   20.00    6.80
   1  -6  -9    5.70    5.40
   1  -6  -9    3.60    5.00
   1  -6  -9    8.70    6.80
  -1   6   9   11.60    5.50
  -1   6   9    6.00    6.50
   0  -6  -9   -4.70    3.80
   0  -6  -9    0.00    4.80
   0  -6  -9    2.20    4.40
   0   6   9   -0.50    6.60
   0   6   9    1.30    4.20
  -1  -6  -9    3.80    3.80
  -1  -6  -9    2.90    4.00
  -1  -6  -9    4.80    5.30
   1   6   9    2.40    4.30
  -2  -6  -9    2.40    5.50
  -2  -6  -9    3.50    3.90
   2   6   9    3.10    4.80
   2   6   9    4.50    3.30
  -3  -6  -9  148.59   14.00
  -3  -6  -9  164.08   15.80
   3   6   9  166.98   12.50
   3   6   9  134.49   12.00
  -4  -6  -9    6.50    7.40
  -4  -6  -9   12.70    6.70
   4   6   9    3.70    5.00
   4   6   9    3.40    4.40
  -5  -6  -9   56.59   11.20
  -5  -6  -9   41.00   10.20
   5   6   9   58.49    9.40
   5   6   9   42.60    7.70
  -6  -6  -9  211.18   22.10
  -6  -6  -9  201.48   21.90
   6   6   9  229.98   18.00
   6   6   9  222.78   17.40
  -7  -6  -9  158.28   19.10
  -7  -6  -9  117.09   19.30
   7   6   9  170.58   16.20
   7   6   9  178.78   16.20
  -8  -6  -9   71.69   14.00
   8   6   9  102.89   14.80
   8   6   9   82.29   13.10
  -9  -6  -9  177.68   22.20
   9   6   9  163.48   19.30
   9   6   9  124.79   14.90
   3  -7  -9  112.49   16.20
   3  -7  -9  132.19   17.40
  -3   7   9  126.69   15.80
  -3   7   9   74.89   17.30
   2  -7  -9  315.87   24.00
   2  -7  -9  326.47   24.90
  -2   7   9  310.77   23.60
  -2   7   9  285.27   29.20
   1  -7  -9  363.66   25.70
   1  -7  -9  334.57   24.90
  -1   7   9  382.76   29.40
  -1   7   9  365.26   25.60
   0  -7  -9  353.36   24.30
   0  -7  -9  344.77   26.10
   0  -7  -9  367.16   25.80
   0   7   9  404.56   26.00
   0   7   9  353.06   24.20
  -1  -7  -9  573.44   37.40
  -1  -7  -9  535.15   34.30
   1   7   9  544.55   34.30
  -2  -7  -9  608.04   38.20
  -2  -7  -9  520.65   34.70
   2   7   9  537.55   34.00
  -3  -7  -9  372.16   28.30
  -3  -7  -9  497.25   32.30
   3   7   9  469.95   27.90
   3   7   9  417.76   27.30
  -4  -7  -9  497.35   35.10
  -4  -7  -9  526.35   32.20
   4   7   9  453.05   29.60
   4   7   9  466.05   30.70
  -5  -7  -9  579.14   40.30
   5   7   9  560.14   34.40
   5   7   9  594.94   36.60
  -6  -7  -9  305.87   26.50
   6   7   9  330.67   22.30
   6   7   9  341.47   23.70
  -7  -7  -9  211.48   24.50
   7   7   9  254.67   20.60
   7   7   9  271.17   20.10
   8   7   9  239.58   21.50
   8   7   9  237.08   21.20
   2  -8  -9    8.30    9.60
   2  -8  -9   -1.40    8.00
  -2   8   9   -4.50    8.80
  -2   8   9    4.60    7.60
   1  -8  -9    5.50    6.60
   1  -8  -9   -3.30    7.50
  -1   8   9   -2.70    9.80
  -1   8   9   -3.10    7.00
   0  -8  -9    3.60    6.80
   0  -8  -9    8.90    8.00
   0   8   9    3.00    8.90
  -1  -8  -9   26.80    8.60
  -1  -8  -9   34.30    7.40
   1   8   9   34.10    9.30
  -2  -8  -9   30.80    8.20
  -2  -8  -9   33.40    9.10
   2   8   9   23.00    7.80
  -3  -8  -9   28.80    9.10
  -3  -8  -9   19.00    7.00
   3   8   9   21.70    6.00
  -4  -8  -9   85.39   12.20
  -4  -8  -9   91.29   15.20
   4   8   9   70.39    9.50
   4   8   9   85.19   13.70
  -5  -8  -9  213.38   18.40
  -5  -8  -9  158.58   17.60
   5   8   9  151.98   15.90
   5   8   9  171.18   15.00
  -6  -8  -9  226.88   21.90
   6   8   9  239.78   19.00
   6   8   9  233.98   18.80
  -7  -8  -9  155.98   21.50
   7   8   9  171.48   16.30
   7   8   9  168.18   16.70
  -8  -8  -9   67.69   15.50
   8   8   9   85.69   12.30
   8   8   9   70.49   11.50
   1  -9  -9  120.29   14.90
   1  -9  -9   94.59   15.10
  -1   9   9  108.69   17.40
   0  -9  -9  165.88   19.30
   0  -9  -9  196.18   20.40
   0   9   9  237.68   23.60
  -1  -9  -9  321.77   25.00
  -1  -9  -9  303.27   26.30
   1   9   9  335.47   26.10
  -2  -9  -9  359.76   28.40
  -2  -9  -9  331.67   25.70
   2   9   9  354.86   26.00
  -3  -9  -9  330.97   26.50
  -3  -9  -9  283.87   22.60
   3   9   9  283.37   23.70
  -4  -9  -9  367.86   27.00
  -4  -9  -9  309.27   23.90
   4   9   9  303.07   22.50
  -5  -9  -9  292.77   26.40
   5   9   9  264.07   20.30
  -6  -9  -9  179.58   22.20
   6   9   9  182.98   16.70
   6   9   9  174.78   18.00
  -7  -9  -9  124.09   18.00
   7   9   9  154.98   16.10
   7   9   9  155.68   20.00
  -1 -10  -9   29.80   10.40
  -1 -10  -9   27.40    8.90
   1  10   9   36.00   11.20
  -2 -10  -9  149.19   17.00
  -2 -10  -9  146.19   19.30
   2  10   9  129.49   15.40
  -3 -10  -9   96.09   14.10
  -3 -10  -9  114.79   18.00
   3  10   9   79.99   13.60
  -4 -10  -9  111.89   15.40
  -4 -10  -9   95.29   14.80
   4  10   9   82.79   13.40
  -5 -10  -9  125.69   20.20
   5  10   9  107.79   18.00
  -6 -10  -9  189.98   20.40
   6  10   9  160.78   16.30
   4  10 -10   -6.80   15.90
  -4 -10  10   33.10   13.90
   3  10 -10  -25.30   14.80
  -3 -10  10   29.30   13.20
   2  10 -10  -24.30   15.20
  -2 -10  10   -0.60   13.80
  -2 -10  10   29.90   12.60
   1  10 -10  -13.60   16.50
  -1 -10  10   18.90   15.50
  -1 -10  10   35.20   12.50
  -5  -9  10   -5.50    8.20
  -4  -9  10   -1.60   11.20
   3   9 -10  -20.20    9.80
  -3  -9  10   -0.90   10.40
   2   9 -10  -17.30   10.10
  -2  -9  10   -0.20   10.30
  -2  -9  10  -12.50   12.00
  -1  -9  10   -4.30   12.10
  -1  -9  10   11.10    8.30
   0   9 -10  -13.20   15.80
   0  -9  10   31.90   11.30
   0  -9  10   18.90   15.10
  -1   9 -10   11.00    9.40
   1  -9  10   -9.30   14.30
   1  -9  10   14.20    9.00
   6   8 -10   23.50    8.40
   6   8 -10   40.70   17.30
  -6  -8  10   27.70   11.00
   5   8 -10   50.49   18.10
  -5  -8  10   69.79   13.40
   4   8 -10   64.39   15.90
   3   8 -10    0.20   10.70
  -3  -8  10   19.30   11.10
   2   8 -10   23.80   12.70
  -2  -8  10   43.40   12.70
  -2  -8  10   54.09   13.10
   1   8 -10   32.40   16.40
  -1  -8  10   69.49   13.70
  -1  -8  10   51.39   14.10
   0   8 -10   27.10    9.20
   0  -8  10   23.60   10.70
   0  -8  10   23.80   11.20
  -1   8 -10  -15.50   13.70
  -1   8 -10   11.70    8.70
   1  -8  10   19.10   10.80
   1  -8  10   11.70   10.50
  -2   8 -10   20.90   10.10
  -2   8 -10    1.70   12.20
   2  -8  10    5.00   14.60
   2  -8  10   18.70   11.00
  -3   8 -10   -6.20    9.90
  -3   8 -10  -14.30   11.60
   3  -8  10   -0.50    9.70
   3  -8  10  -22.50   14.00
   7   7 -10   -1.90    8.60
   7   7 -10   15.40   12.10
  -7  -7  10   -8.70   11.40
  -7  -7  10  -12.90    8.20
   6   7 -10    4.30   15.00
   6   7 -10   -0.80    7.20
  -6  -7  10   -7.60    7.00
  -6  -7  10  -13.30   10.70
   5   7 -10    0.70   14.00
   5   7 -10   -3.10    6.10
  -5  -7  10   -1.40    6.40
  -5  -7  10   -1.50   10.10
   4   7 -10   28.70   15.20
  -4  -7  10   32.40    9.80
   3   7 -10    7.90   13.90
  -3  -7  10   40.10    9.90
   2   7 -10   -9.00    8.70
  -2  -7  10    5.30    8.30
  -2  -7  10    4.60    9.50
   1   7 -10   71.39   11.50
   1   7 -10   22.70   14.60
  -1  -7  10   51.59   12.30
  -1  -7  10   61.39   12.90
   0   7 -10   55.49   16.90
   0   7 -10   85.99   12.30
   0  -7  10   67.19   13.30
   0  -7  10   61.29   13.90
  -1   7 -10   52.19   10.20
  -1   7 -10   33.20   13.40
   1  -7  10   39.80   12.10
   1  -7  10   49.70   14.60
  -2   7 -10   53.29   17.70
  -2   7 -10  108.49   15.90
   2  -7  10   75.39   14.80
   2  -7  10   74.19   17.00
  -3   7 -10   57.89   11.10
  -3   7 -10   32.10   17.00
   3  -7  10   57.89   15.10
   3  -7  10   49.40   13.30
  -4   7 -10   21.20   11.90
  -4   7 -10    2.40   16.80
   4  -7  10   15.90   16.40
   7   6 -10   11.60    9.40
   7   6 -10   49.50   15.90
  -7  -6  10    8.00    9.50
  -7  -6  10    9.60   11.70
   6   6 -10   81.49   17.20
  -6  -6  10   33.90    9.40
  -6  -6  10   41.10   13.00
  -5  -6  10  100.79   13.40
  -5  -6  10   82.89   15.10
   4   6 -10  194.48   24.10
  -4  -6  10  145.39   13.90
  -4  -6  10  126.29   19.50
   3   6 -10   23.50   13.40
  -3  -6  10   32.50   10.80
   2   6 -10   89.49   15.50
  -2  -6  10   82.59   14.50
  -2  -6  10  109.09   17.50
   1   6 -10   58.89    8.80
   1   6 -10   19.30   13.00
  -1  -6  10   52.59   10.70
  -1  -6  10   41.50   10.20
   0   6 -10   26.80    7.40
   0   6 -10    8.60    9.70
   0  -6  10   25.90    8.90
   0  -6  10   25.00    9.70
  -1   6 -10   33.40   14.30
  -1   6 -10   60.89   10.10
   1  -6  10   50.59   12.70
   1  -6  10   52.99   13.30
  -2   6 -10   14.60   13.40
  -2   6 -10   38.30    8.40
   2  -6  10   38.90   12.50
   2  -6  10   29.40   10.70
  -3   6 -10   -2.70    6.20
   3  -6  10  -11.80    9.30
   3  -6  10   -9.20    8.50
  -4   6 -10  -11.90   13.00
  -4   6 -10    1.80    9.50
   4  -6  10  -13.40   13.40
   4  -6  10   17.00   10.80
  -5   6 -10   -2.20   10.50
   7   5 -10   18.90   12.70
  -7  -5  10    0.90   10.00
  -7  -5  10   -1.50    6.70
   6   5 -10   23.60   10.40
  -6  -5  10   -8.60    7.40
  -6  -5  10   -6.20    9.10
  -5  -5  10   56.59    9.90
  -5  -5  10   58.99   12.90
  -4  -5  10  130.59   18.60
  -4  -5  10  124.89   13.40
   3   5 -10   34.50   12.30
  -3  -5  10   15.60    9.30
  -3  -5  10   20.30    6.30
   2   5 -10   31.70    6.40
   2   5 -10   21.30   11.70
  -2  -5  10   22.30    8.20
  -2  -5  10   29.70    5.20
  -2  -5  10   31.10    7.50
   1   5 -10  286.27   19.00
   1   5 -10  205.28   24.20
  -1  -5  10  217.08   20.50
  -1  -5  10  259.67   22.40
   0   5 -10  225.38   16.60
   0   5 -10  129.09   21.40
   0  -5  10  197.28   21.40
   0  -5  10  160.18   18.20
  -1   5 -10  241.38   18.70
  -1   5 -10  166.58   23.30
   1  -5  10  257.97   24.00
   1  -5  10  176.08   21.40
  -2   5 -10  195.68   24.50
  -2   5 -10  241.28   20.30
   2  -5  10  278.17   22.90
   2  -5  10  183.78   23.40
  -3   5 -10   37.30   13.40
  -3   5 -10   58.39   11.20
   3  -5  10   35.20   13.60
   3  -5  10   64.69   13.10
  -4   5 -10  100.39   16.50
  -4   5 -10   92.59   17.90
   4  -5  10   69.19   17.70
  -5   5 -10  134.29   16.50
  -5   5 -10   98.79   19.70
   5  -5  10   95.39   21.00
  -6   5 -10   49.99   14.10
   6  -5  10   40.10   15.20
   7   4 -10   30.10   12.00
  -7  -4  10    2.10    9.60
  -7  -4  10   12.00   10.40
  -6  -4  10   51.39    9.60
  -6  -4  10   52.49   12.30
  -5  -4  10  174.08   20.80
  -5  -4  10  178.88   17.70
  -4  -4  10   93.19   12.30
  -4  -4  10   77.59   13.50
   3   4 -10   83.39   10.30
  -3  -4  10   84.09   13.20
  -3  -4  10   97.39   10.90
   2   4 -10  217.78   17.20
  -2  -4  10  239.58   15.70
  -2  -4  10  190.28   21.40
   1   4 -10   30.20    7.20
   1   4 -10   26.90    9.40
  -1  -4  10   20.40    9.30
  -1  -4  10   20.30    6.80
  -1  -4  10   31.70    5.00
   0   4 -10   63.19   10.50
   0   4 -10   53.19   11.10
   0  -4  10   50.39    9.80
   0  -4  10   61.99   12.20
  -1   4 -10   84.09   12.20
  -1   4 -10   63.09   13.70
   1  -4  10   56.89   11.70
   1  -4  10   83.19   13.50
  -2   4 -10   17.90   10.60
  -2   4 -10   30.90    8.80
   2  -4  10   39.70   11.00
   2  -4  10   18.50    9.80
  -3   4 -10   -3.00    5.20
  -3   4 -10  -14.80    7.50
   3  -4  10   -2.90    5.90
  -4   4 -10    4.10    8.60
  -4   4 -10  -10.30    9.10
   4  -4  10   21.20    9.20
   4  -4  10    4.40    9.10
  -5   4 -10   -8.70    8.50
   5  -4  10    8.40    8.60
  -6   4 -10   -0.40   10.20
   6  -4  10   15.40   10.00
   7   3 -10   23.10    8.90
  -7  -3  10   -8.00    9.40
  -7  -3  10   10.90    9.60
   6   3 -10   36.10   10.80
  -6  -3  10   23.50    9.90
  -6  -3  10   10.40    9.20
   5   3 -10  177.28   18.20
  -5  -3  10  130.69   18.10
  -5  -3  10  126.19   16.40
  -4  -3  10   88.39   15.40
  -4  -3  10   98.59   13.20
   3   3 -10  270.27   23.60
   3   3 -10  288.57   19.80
   2   3 -10  561.14   35.00
   2   3 -10  621.14   39.10
  -2  -3  10  481.45   32.10
   1   3 -10  384.96   26.70
  -1  -3  10  439.56   23.80
  -1  -3  10  343.07   28.90
   0   3 -10  346.77   30.00
   0   3 -10  409.96   27.50
   0  -3  10  432.06   30.30
  -1   3 -10  624.04   36.40
  -1   3 -10  555.04   38.90
  -1   3 -10  509.95   39.60
  -2   3 -10  321.17   26.70
  -2   3 -10  332.37   26.30
   2  -3  10  258.67   25.20
  -3   3 -10  144.79   20.20
  -3   3 -10  172.08   18.00
  -3   3 -10  207.88   18.00
   3  -3  10  120.29   18.90
  -4   3 -10  301.27   24.50
  -4   3 -10  207.38   26.20
   4  -3  10  211.68   25.10
  -5   3 -10  256.07   24.00
  -5   3 -10  272.67   24.00
  -6   3 -10   74.59   12.50
   6  -3  10   44.10   16.30
  -7   3 -10   33.20   12.60
   7  -3  10   22.30   16.20
   7   2 -10   25.50   10.00
  -7  -2  10    3.20   10.30
  -7  -2  10   14.10    9.00
   6   2 -10   96.69   15.00
  -6  -2  10   68.29   12.20
  -6  -2  10   71.59   12.90
   5   2 -10  124.29   15.50
  -5  -2  10  101.99   13.40
  -5  -2  10  105.79   16.00
   4   2 -10   63.79   10.00
  -4  -2  10   44.50    9.30
  -4  -2  10   43.20    9.90
   3   2 -10  259.07   16.90
   3   2 -10  228.38   19.60
  -3  -2  10  189.78   17.80
   2   2 -10  138.59   14.10
  -2  -2  10   69.09   12.30
  -2  -2  10  102.19   11.40
   1   2 -10   19.60    7.60
   1   2 -10   14.80    6.30
  -1  -2  10   11.50    4.50
  -1  -2  10    8.20    4.60
  -1  -2  10    3.30    6.00
   0   2 -10   60.39    9.10
   0   2 -10   73.99   12.40
   0   2 -10   62.89    9.90
   0  -2  10   72.59    8.30
   0  -2  10   46.30    8.40
   0  -2  10   61.39   11.30
  -1   2 -10   34.30    8.20
  -1   2 -10   27.70    8.50
  -1   2 -10   13.30    8.10
   1  -2  10   19.00    6.90
   1  -2  10   35.70    4.90
   1  -2  10   45.60    8.60
  -2   2 -10   -3.50    5.10
   2  -2  10   -1.90    4.30
   2  -2  10   -0.10    6.40
  -3   2 -10   -6.10    6.50
  -3   2 -10  -13.40    7.80
  -3   2 -10   -9.90    6.20
   3  -2  10   -4.20    7.10
   3  -2  10    0.10    6.40
  -4   2 -10   -5.50    5.80
  -4   2 -10  -10.00    4.70
   4  -2  10   -0.80    6.20
   4  -2  10   -7.40    8.30
  -5   2 -10   17.50    7.40
  -5   2 -10    0.20   12.10
   5  -2  10   21.00   12.10
   5  -2  10   29.60    6.90
  -6   2 -10  -11.90    8.20
   6  -2  10    7.10    6.80
   6  -2  10    1.90   11.60
  -7   2 -10   -5.40    9.70
   7  -2  10    1.10    7.00
   7  -2  10   -8.90   12.80
   7   1 -10   13.40    9.50
  -7  -1  10   -0.90   10.50
   6   1 -10   76.09   13.60
  -6  -1  10   55.39   12.60
  -6  -1  10   61.29   11.30
   5   1 -10  235.08   19.80
  -5  -1  10  208.38   20.00
  -5  -1  10  218.48   21.20
   4   1 -10  205.68   17.20
   4   1 -10  174.88   13.50
  -4  -1  10  162.28   17.50
  -4  -1  10  171.98   16.10
   3   1 -10  329.67   23.30
   3   1 -10  318.97   20.80
  -3  -1  10  256.37   24.30
  -3  -1  10  327.97   21.90
   2   1 -10  860.91   48.00
   2   1 -10  835.12   51.19
  -2  -1  10  760.12   46.00
   1   1 -10  271.97   19.20
   1   1 -10  333.47   21.50
  -1  -1  10  235.78   22.20
  -1  -1  10  276.77   19.10
   0   1 -10  866.01   53.19
   0   1 -10  963.00   51.19
   0   1 -10  903.61   53.59
   0  -1  10  719.33   53.49
   0  -1  10  786.42   46.10
  -1   1 -10 1239.78   72.89
   1  -1  10 1362.36   65.89
   1  -1  10 1089.59   76.89
   1  -1  10 1297.67   75.79
  -2   1 -10  570.54   41.80
   2  -1  10  694.23   44.60
   2  -1  10  673.33   43.10
   2  -1  10  713.83   35.90
  -3   1 -10  438.36   32.00
   3  -1  10  484.05   31.70
  -4   1 -10  535.05   35.90
  -4   1 -10  471.85   34.40
   4  -1  10  556.54   34.30
  -5   1 -10  331.47   26.30
   5  -1  10  381.36   26.20
  -6   1 -10  210.48   22.30
  -6   1 -10  277.97   29.40
   6  -1  10  237.38   20.20
  -7   1 -10  182.08   23.90
  -7   1 -10  132.59   19.50
   7  -1  10  205.58   22.60
   7  -1  10  146.79   15.00
  -8   1 -10   72.49   13.20
  -8   1 -10   64.39   20.80
   8  -1  10   97.99   20.30
   8  -1  10  104.79   12.80
   7   0 -10   21.30   10.20
  -7   0  10    3.70   11.20
   6   0 -10   37.10    9.70
  -6   0  10   12.00   10.90
   5   0 -10   27.10    6.20
   5   0 -10   17.50    8.20
  -5   0  10    9.30    9.30
  -5   0  10   22.40    7.20
   4   0 -10  127.09   11.20
   4   0 -10  110.79   13.40
  -4   0  10  109.09   13.50
  -4   0  10   93.39   15.50
   3   0 -10   44.50    7.80
   3   0 -10   34.60    7.60
  -3   0  10   25.30    8.40
  -3   0  10   29.20    7.90
   2   0 -10   24.20    5.40
   2   0 -10   26.20    5.60
  -2   0  10   24.00    6.20
  -2   0  10    7.70    7.20
   1   0 -10   43.20    6.30
   1   0 -10   42.40    6.80
   1   0 -10   34.30    6.60
  -1   0  10   17.10    8.30
  -1   0  10   26.30    6.60
   0   0 -10   60.59    9.50
   0   0 -10   67.79    8.60
   0   0 -10   76.89   10.00
   0   0  10   52.99    7.00
   0   0  10   37.60    9.30
  -1   0 -10    1.70    4.50
  -1   0 -10   -2.80    4.50
  -1   0 -10   -0.80    4.50
   1   0  10   -0.90    5.70
   1   0  10   -0.10    3.20
  -2   0 -10    3.30    7.30
  -2   0 -10   36.50    6.90
   2   0  10   23.10    4.00
   2   0  10   15.00    6.40
  -3   0 -10    5.80    7.20
   3   0  10   -2.60    3.60
   3   0  10    2.20    2.50
  -4   0 -10    5.60    8.00
  -4   0 -10   43.00   10.90
   4   0  10   22.10    4.10
   4   0  10   14.80    6.00
  -5   0 -10   41.40   10.50
  -5   0 -10   80.99   14.40
   5   0  10   44.60    8.10
  -6   0 -10   40.30   11.90
  -6   0 -10   13.50    9.50
  -7   0 -10   22.40   10.50
  -7   0 -10   61.29   17.60
   7   0  10   38.90    8.50
  -8   0 -10   63.09   19.80
  -8   0 -10   36.90   12.10
   8   0  10   46.00    9.80
   8   0  10   88.69   18.70
   7  -1 -10   29.80   10.60
  -7   1  10    7.00   12.00
   6  -1 -10   92.19   12.10
  -6   1  10   57.09   14.10
   5  -1 -10  157.78   13.80
   5  -1 -10  143.89   15.40
  -5   1  10   95.99   15.60
   4  -1 -10  259.87   20.80
   4  -1 -10  287.97   19.40
  -4   1  10  249.38   21.50
   3  -1 -10  314.17   22.80
   3  -1 -10  314.77   21.30
  -3   1  10  323.87   24.60
   2  -1 -10  628.94   36.50
   2  -1 -10  588.64   34.50
  -2   1  10  496.95   38.60
   1  -1 -10  399.46   27.30
   1  -1 -10  428.66   28.40
  -1   1  10  421.16   31.70
  -1   1  10  522.55   28.30
   0  -1 -10 1282.97   70.89
   0  -1 -10 1080.29   69.09
   0  -1 -10 1106.99   66.49
   0   1  10 1102.29   70.69
   0   1  10 1247.38   62.99
  -1  -1 -10 1932.61  111.39
  -1  -1 -10 1978.10  108.69
  -1  -1 -10 2000.10  104.39
   1   1  10 1711.03   96.29
   1   1  10 1620.64  107.49
   2   1  10  666.43   35.90
   2   1  10  640.64   41.10
  -3  -1 -10  899.41   54.19
   3   1  10  859.61   53.29
   3   1  10  879.11   47.00
  -4  -1 -10 1201.08   71.79
   4   1  10 1209.78   63.19
   4   1  10 1190.98   71.19
  -5  -1 -10  357.96   28.70
   5   1  10  396.86   21.80
   5   1  10  355.06   25.00
  -6  -1 -10  272.87   24.50
   6   1  10  289.57   20.80
  -7  -1 -10  201.88   21.70
   7   1  10  231.18   19.20
  -8  -1 -10  115.09   17.80
   8   1  10  120.49   15.40
   6  -2 -10   20.20    7.60
   6  -2 -10   18.60    7.70
  -6   2  10    0.90   11.60
   5  -2 -10    9.20    6.80
   5  -2 -10    8.00    7.80
  -5   2  10   -6.70    7.30
   4  -2 -10   98.19   12.80
   4  -2 -10  111.79   12.30
  -4   2  10   75.19   13.70
   3  -2 -10   15.20    6.20
   3  -2 -10   14.00    6.10
  -3   2  10   10.60    6.80
   2  -2 -10    1.00    3.70
   2  -2 -10    0.90    4.80
  -2   2  10   -2.60    4.90
   1  -2 -10    1.40    3.40
   1  -2 -10    3.00    4.30
  -1   2  10   -1.90    4.00
   0  -2 -10   -3.20    4.30
   0  -2 -10   -1.80    3.30
   0  -2 -10   -2.10    3.30
   0   2  10   -4.70    5.00
   0   2  10   -0.60    4.70
  -1  -2 -10  154.48   11.50
  -1  -2 -10  156.68   13.10
  -1  -2 -10  116.89   12.30
   1   2  10  141.89   13.60
   1   2  10  151.68   11.20
  -2  -2 -10  119.09   10.10
  -2  -2 -10   98.89   11.00
   2   2  10   92.79    9.10
   2   2  10   77.99    9.40
  -3  -2 -10   37.80    8.10
  -3  -2 -10   39.50    7.80
   3   2  10   26.90    5.00
   3   2  10   25.90    6.00
  -4  -2 -10  220.68   21.10
   4   2  10  215.78   16.60
   4   2  10  239.08   14.80
  -5  -2 -10   92.89   16.40
   5   2  10  119.19    9.60
   5   2  10  112.79   11.00
  -6  -2 -10  124.69   18.30
   6   2  10  172.48   12.70
   6   2  10  154.58   13.60
  -7  -2 -10  143.79   16.50
   7   2  10  167.88   16.20
  -8  -2 -10  118.99   17.50
   8   2  10  137.09   16.10
   6  -3 -10   63.69   10.70
   6  -3 -10   67.39   12.30
   5  -3 -10  127.09   15.50
   5  -3 -10  116.19   14.50
  -5   3  10   72.49   16.10
   4  -3 -10  392.46   26.40
   4  -3 -10  382.76   27.30
  -4   3  10  361.56   31.00
   3  -3 -10  420.56   28.00
   3  -3 -10  423.36   28.60
  -3   3  10  425.66   30.00
   2  -3 -10  397.86   26.10
   2  -3 -10  381.66   26.10
  -2   3  10  408.06   27.20
   1  -3 -10  416.76   26.10
   1  -3 -10  413.56   26.10
  -1   3  10  368.26   28.90
   0  -3 -10 1083.89   61.59
   0  -3 -10  917.01   59.29
   0  -3 -10  973.90   63.19
   0   3  10 1175.58   63.69
  -1  -3 -10 1186.78   69.99
  -1  -3 -10 1233.08   71.99
  -1  -3 -10 1115.09   74.69
   1   3  10 1312.47   65.89
   1   3  10 1286.47   72.89
  -2  -3 -10  798.02   58.99
  -2  -3 -10 1106.99   56.09
   2   3  10  962.30   56.89
   2   3  10  943.01   51.49
  -3  -3 -10  304.07   24.60
   3   3  10  354.36   21.20
   3   3  10  358.16   22.80
  -4  -3 -10  756.52   49.40
   4   3  10  761.42   41.40
   4   3  10  743.03   46.00
  -5  -3 -10  429.56   30.70
  -5  -3 -10  371.56   28.80
   5   3  10  378.76   26.30
   5   3  10  374.96   23.00
  -6  -3 -10  458.55   35.60
   6   3  10  504.35   32.50
   6   3  10  494.65   28.70
  -7  -3 -10  207.68   22.70
   7   3  10  261.77   17.10
   7   3  10  242.08   18.70
  -8  -3 -10   81.59   17.70
  -8  -3 -10   30.30   10.80
   8   3  10   37.80    9.20
  -9  -3 -10   22.40   11.40
  -9  -3 -10   72.19   19.80
   9   3  10   28.00    9.70
   5  -4 -10    0.00    6.40
   5  -4 -10    3.10    8.10
  -5   4  10  -24.50   11.00
   4  -4 -10    5.20    7.50
   4  -4 -10    5.40    5.60
  -4   4  10   -1.50    8.20
   3  -4 -10    7.40    6.90
   3  -4 -10    8.80    6.40
  -3   4  10  -16.70    8.90
   2  -4 -10    8.80    5.60
   2  -4 -10    8.50    4.90
  -2   4  10  -10.50    7.80
   1  -4 -10   10.40    6.00
   1  -4 -10   11.90    4.90
  -1   4  10    6.50    5.60
   0  -4 -10   75.29    9.40
   0  -4 -10   79.19    8.20
   0  -4 -10   77.59   10.30
   0   4  10   81.89   11.60
   0   4  10   92.59   10.20
  -1  -4 -10  296.07   21.20
  -1  -4 -10  301.77   19.20
  -1  -4 -10  249.18   20.00
   1   4  10  329.47   20.30
   1   4  10  297.27   20.80
  -2  -4 -10   43.70    7.30
  -2  -4 -10   40.90    7.70
   2   4  10   46.60    6.80
   2   4  10   36.90    6.60
  -3  -4 -10   61.89    9.00
  -3  -4 -10   89.79   11.70
   3   4  10   63.59    8.30
   3   4  10   66.49    8.70
  -4  -4 -10  386.86   31.40
   4   4  10  466.15   26.40
   4   4  10  466.45   28.50
  -5  -4 -10  336.57   26.20
  -5  -4 -10  285.87   26.20
   5   4  10  343.97   21.20
   5   4  10  369.66   23.70
  -6  -4 -10  226.08   21.90
  -6  -4 -10  257.17   23.80
   6   4  10  231.18   18.10
   6   4  10  256.47   17.90
  -7  -4 -10  229.18   23.90
   7   4  10  273.37   18.40
   7   4  10  252.47   20.70
  -8  -4 -10  113.09   17.60
   8   4  10  144.79   14.30
   8   4  10  130.99   15.80
   9   4  10  103.09   16.00
   5  -5 -10   65.29   11.90
   5  -5 -10   70.59   12.80
  -5   5  10   42.30   16.10
   4  -5 -10  127.59   15.90
   4  -5 -10  129.69   16.30
  -4   5  10   81.19   17.80
   3  -5 -10  237.28   19.90
   3  -5 -10  231.08   19.20
  -3   5  10  188.28   22.00
   2  -5 -10  210.18   17.20
   2  -5 -10  215.08   18.50
  -2   5  10  215.68   20.30
   1  -5 -10  476.35   32.50
   1  -5 -10  512.65   33.20
  -1   5  10  595.84   35.20
   0  -5 -10  780.02   50.79
   0  -5 -10  815.22   49.10
   0  -5 -10  763.02   48.20
   0   5  10  900.61   47.60
  -1  -5 -10  401.46   26.90
  -1  -5 -10  353.66   25.40
   1   5  10  405.46   25.10
   1   5  10  385.56   25.70
  -2  -5 -10  443.16   30.50
  -2  -5 -10  523.15   32.80
   2   5  10  473.55   30.50
   2   5  10  495.95   29.20
  -3  -5 -10  437.26   26.20
  -3  -5 -10  367.66   27.40
   3   5  10  350.76   23.70
   3   5  10  346.27   24.40
  -4  -5 -10  475.25   35.90
   4   5  10  572.54   33.60
   4   5  10  525.45   30.90
  -5  -5 -10  373.86   31.20
   5   5  10  436.86   28.00
   5   5  10  433.46   25.70
  -6  -5 -10  365.76   29.80
  -6  -5 -10  289.87   28.00
   6   5  10  346.07   23.80
   6   5  10  367.26   23.10
  -7  -5 -10  115.79   15.70
  -7  -5 -10   95.49   15.90
   7   5  10   72.79   13.10
   7   5  10  105.19   12.30
  -8  -5 -10   64.79   15.60
  -8  -5 -10   43.60   12.20
   8   5  10   43.90    9.00
   8   5  10   36.90    9.50
   4  -6 -10    0.80    6.70
   4  -6 -10  -10.70    8.60
  -4   6  10    6.90    9.10
   3  -6 -10   14.90    8.30
   3  -6 -10   23.20    9.40
  -3   6  10   21.90    8.20
  -3   6  10   -1.20   12.30
   2  -6 -10   33.40    7.70
   2  -6 -10   25.80    7.80
  -2   6  10   15.10   11.50
  -2   6  10   31.90    8.00
   1  -6 -10    9.40    7.40
   1  -6 -10   10.10    5.80
  -1   6  10    5.90    9.00
  -1   6  10   13.10    5.90
   0  -6 -10   53.29    9.40
   0  -6 -10   52.49    9.00
   0  -6 -10   57.59    9.20
   0   6  10   65.59    9.30
   0   6  10   52.89    9.90
  -1  -6 -10  191.28   16.00
  -1  -6 -10  168.48   14.40
   1   6  10  171.08   16.10
  -2  -6 -10  126.29   13.40
  -2  -6 -10  153.48   14.80
   2   6  10  126.59   11.50
   2   6  10  144.69   13.60
  -3  -6 -10  246.58   19.10
  -3  -6 -10  267.77   21.20
   3   6  10  243.68   17.50
   3   6  10  220.88   16.70
  -4  -6 -10  481.65   35.60
  -4  -6 -10  582.64   33.20
   4   6  10  496.25   31.90
   4   6  10  441.66   30.10
  -5  -6 -10  396.66   31.30
   5   6  10  432.96   26.90
   5   6  10  453.35   28.80
  -6  -6 -10  325.67   29.40
  -6  -6 -10  359.46   30.20
   6   6  10  361.16   25.40
   6   6  10  376.66   23.50
  -7  -6 -10  300.27   29.60
  -7  -6 -10  248.68   27.40
   7   6  10  347.77   24.30
   7   6  10  326.87   21.50
  -8  -6 -10  184.98   21.60
   8   6  10  206.38   19.80
   8   6  10  190.18   17.80
   3  -7 -10  143.19   17.40
   3  -7 -10  145.19   18.70
  -3   7  10  104.99   17.90
  -3   7  10  156.68   17.10
   2  -7 -10  230.98   20.10
   2  -7 -10  251.97   22.00
  -2   7  10  246.38   24.00
  -2   7  10  222.28   19.70
   1  -7 -10  276.77   21.50
   1  -7 -10  281.67   21.20
  -1   7  10  306.77   24.20
  -1   7  10  273.57   21.10
   0  -7 -10  282.67   21.60
   0  -7 -10  285.37   23.20
   0   7  10  319.67   22.80
  -1  -7 -10  165.88   16.20
  -1  -7 -10  167.38   16.30
   1   7  10  163.68   14.90
  -2  -7 -10  364.56   25.70
  -2  -7 -10  294.87   22.30
   2   7  10  325.37   22.00
  -3  -7 -10  325.37   24.50
  -3  -7 -10  405.86   27.90
   3   7  10  324.87   23.50
  -4  -7 -10  163.78   15.80
  -4  -7 -10  136.59   15.40
   4   7  10  155.08   13.40
   4   7  10  135.59   15.20
  -5  -7 -10  213.28   21.80
   5   7  10  219.08   17.50
   5   7  10  204.98   17.10
  -6  -7 -10  189.28   21.50
  -6  -7 -10  145.19   19.90
   6   7  10  161.68   14.20
   6   7  10  185.18   16.40
  -7  -7 -10   20.20    9.10
   7   7  10   32.30    8.20
   7   7  10   28.20    7.60
  -8  -7 -10   65.79   14.90
   8   7  10   64.89   10.90
   8   7  10  101.39   15.30
   2  -8 -10   24.10    9.50
   2  -8 -10   41.20   11.70
  -2   8  10   12.90   13.70
  -2   8  10   41.20    9.60
   1  -8 -10   20.20    7.90
   1  -8 -10   19.20    9.90
  -1   8  10   18.10   11.80
   0  -8 -10   94.39   13.80
   0  -8 -10  120.69   16.30
   0   8  10  138.09   19.00
  -1  -8 -10  137.99   16.00
  -1  -8 -10  125.49   13.70
   1   8  10  144.79   17.00
  -2  -8 -10  251.57   21.90
  -2  -8 -10  234.68   20.10
   2   8  10  239.08   18.60
  -3  -8 -10  453.15   31.20
  -3  -8 -10  353.56   27.10
   3   8  10  394.16   27.60
  -4  -8 -10  317.17   23.40
  -4  -8 -10  312.77   26.30
   4   8  10  279.97   22.80
  -5  -8 -10  298.77   26.30
   5   8  10  254.27   21.30
   5   8  10  302.17   21.90
  -6  -8 -10  390.36   33.00
   6   8  10  396.36   26.10
   6   8  10  409.36   28.20
  -7  -8 -10  205.38   22.50
   7   8  10  250.97   19.90
   7   8  10  249.18   21.00
   0  -9 -10   77.09   13.40
   0   9  10   94.49   15.10
  -1  -9 -10   98.59   15.90
  -1  -9 -10   90.49   15.80
   1   9  10  120.39   17.60
  -2  -9 -10   85.89   12.00
  -2  -9 -10  110.49   16.30
   2   9  10   91.09   12.70
  -3  -9 -10   89.09   16.00
  -3  -9 -10   53.49   10.00
   3   9  10   61.59   11.40
  -4  -9 -10   80.79   12.70
  -4  -9 -10   77.39   13.70
   4   9  10   60.89   11.70
  -5  -9 -10  182.38   18.20
  -5  -9 -10  153.38   20.50
   5   9  10  138.39   18.40
  -6  -9 -10   26.30   12.00
   6   9  10   37.60    8.50
   6   9  10   26.70    8.90
  -7  -9 -10    6.90   11.20
   7   9  10    7.90    7.70
   7   9  10    0.70    7.80
  -2 -10 -10  238.18   22.10
  -2 -10 -10  253.57   24.50
   2  10  10  250.27   22.70
  -3 -10 -10  212.88   22.20
  -3 -10 -10  161.48   18.00
   3  10  10  159.78   16.60
  -4 -10 -10  200.68   22.60
  -4 -10 -10  169.78   17.50
   4  10  10  163.38   18.60
  -5 -10 -10  222.58   21.70
   5  10  10  183.08   17.60
   4   9 -11  -26.60   14.50
  -4  -9  11    6.00   12.90
  -3  -9  11   10.20   12.80
   2   9 -11  -25.00   15.20
  -2  -9  11   19.60   13.30
  -1  -9  11   10.00   12.10
   0  -9  11   -7.90   13.80
   0  -9  11   31.80   13.40
   6   8 -11   31.60   17.10
  -6  -8  11   -5.90   13.10
   5   8 -11   17.80   16.50
  -5  -8  11    6.20   13.10
   4   8 -11   -3.50   14.80
  -4  -8  11   15.00   13.20
  -3  -8  11   -4.10   11.60
  -2  -8  11   -0.20    8.70
  -1  -8  11   -1.00   11.20
  -1  -8  11   11.30   11.90
   0   8 -11  -19.40   10.60
   0  -8  11   -6.20   10.30
   0  -8  11  -18.30   11.00
  -1   8 -11   -8.70    8.20
   1  -8  11  -10.80   10.10
  -2   8 -11  -14.80    8.80
   2  -8  11  -16.70    9.70
   6   7 -11   12.80    8.40
   6   7 -11   36.80   16.70
  -6  -7  11   11.50   10.20
  -6  -7  11    3.50    8.60
   5   7 -11   42.90   16.70
  -5  -7  11    4.20   12.50
   4   7 -11   88.99   17.30
  -4  -7  11   76.29   16.20
   3   7 -11   42.40   16.70
  -3  -7  11   63.69   15.10
   2   7 -11   25.10   12.60
  -2  -7  11   33.20   13.00
   1   7 -11   16.80   15.20
  -1  -7  11   38.50   12.40
  -1  -7  11   64.79   14.60
   0   7 -11  154.88   16.20
   0   7 -11   95.09   21.20
   0  -7  11   99.69   18.30
   0  -7  11  143.49   18.70
  -1   7 -11   71.29   12.00
  -1   7 -11   20.80   16.70
   1  -7  11   63.79   14.70
   1  -7  11   46.30   15.50
  -2   7 -11   54.59   12.10
  -2   7 -11   11.60   16.60
   2  -7  11   49.20   13.90
   2  -7  11   29.00   15.60
  -3   7 -11   60.69   13.70
  -3   7 -11   21.40   18.00
   3  -7  11   27.20   16.90
   3  -7  11   67.29   14.80
   7   6 -11   36.50   15.90
   7   6 -11    3.10    9.50
  -7  -6  11    4.10   10.00
  -7  -6  11   -3.70   12.50
   6   6 -11   29.70   15.10
  -6  -6  11    0.00    8.40
  -6  -6  11   -6.00   11.60
   5   6 -11   30.10   15.10
  -5  -6  11    1.20    7.40
  -5  -6  11    2.20   11.40
  -4  -6  11   27.60    7.40
  -4  -6  11   19.40   12.00
   3   6 -11   -9.40   12.70
  -3  -6  11   -7.90    9.80
   2   6 -11    8.90   10.40
  -2  -6  11   14.00    8.80
   1   6 -11   14.80    7.60
  -1  -6  11    0.30    7.70
  -1  -6  11   -5.20    9.70
   0   6 -11   -8.40    6.30
   0  -6  11   -5.70    7.10
  -1   6 -11  -11.60    7.00
  -2   6 -11   -1.60    6.20
   2  -6  11   -5.20    7.50
  -3   6 -11   -7.60    6.50
   3  -6  11   -8.40    9.90
  -4   6 -11    7.70    8.70
   4  -6  11   22.60   11.80
   7   5 -11   46.00   14.80
  -7  -5  11    8.30   12.60
  -7  -5  11    2.60   10.60
  -6  -5  11   25.90   10.20
  -6  -5  11   24.80   12.40
  -5  -5  11   61.79   10.90
  -5  -5  11   49.99   11.90
  -4  -5  11  167.18   16.10
  -4  -5  11  142.49   18.80
  -3  -5  11  180.58   14.80
  -3  -5  11  143.39   21.60
   2   5 -11  122.99   13.50
  -2  -5  11   92.19   15.90
   1   5 -11  274.87   21.20
   1   5 -11  240.58   26.30
  -1  -5  11  243.08   23.70
   0   5 -11  280.67   20.20
   0   5 -11  208.98   23.60
   0  -5  11  271.37   24.40
  -1   5 -11  143.29   16.00
  -1   5 -11  110.99   19.20
   1  -5  11   96.09   16.50
  -2   5 -11  131.39   20.30
   2  -5  11  103.09   18.00
  -3   5 -11   87.99   17.90
  -3   5 -11  107.19   16.90
   3  -5  11   70.39   17.80
  -4   5 -11   42.30   15.90
  -4   5 -11   84.19   14.20
   4  -5  11   41.40   17.50
  -5   5 -11   56.09   12.40
  -5   5 -11   32.90   16.20
   5  -5  11   13.70   16.50
   7   4 -11   25.70   12.50
  -7  -4  11  -19.60    9.20
  -7  -4  11   -7.10   10.10
   6   4 -11   14.80   11.20
  -6  -4  11    1.60    7.90
  -6  -4  11   -7.00    8.80
   5   4 -11   32.20    9.80
  -5  -4  11   15.90    7.10
  -5  -4  11    7.70   10.50
   4   4 -11   28.30    9.40
  -4  -4  11   -3.20    9.60
  -4  -4  11    6.00    7.20
   3   4 -11   -5.40    9.60
  -3  -4  11  -10.70    5.00
   2   4 -11    9.90    8.10
   2   4 -11  -12.80    6.40
  -2  -4  11  -14.40    8.20
  -2  -4  11    0.80    4.70
   1   4 -11  -10.90    5.90
   1   4 -11   -9.60    9.20
  -1  -4  11   -9.60    5.20
  -1  -4  11  -14.40    7.90
   0  -4  11   -8.60    5.60
   0  -4  11  -11.10    5.70
  -1   4 -11   -7.50    5.10
   1  -4  11   -6.60    6.40
  -2   4 -11   -8.30    7.70
  -2   4 -11  -17.90    8.90
   2  -4  11  -14.30    8.20
   2  -4  11    4.10    7.10
  -3   4 -11   21.80    8.00
  -3   4 -11    2.10   10.80
   3  -4  11   43.10   11.50
   3  -4  11    6.20   11.40
  -4   4 -11   19.50   10.40
  -4   4 -11    4.90   11.40
   4  -4  11   11.50   10.50
  -5   4 -11   -5.30   10.00
   5  -4  11   17.40    9.70
  -6   4 -11    5.00   11.70
   6  -4  11  -22.00   14.50
  -7  -3  11   21.20    9.90
  -7  -3  11   23.60   12.80
   6   3 -11   55.39   12.30
  -6  -3  11   33.30    9.70
  -6  -3  11   29.50   11.70
  -5  -3  11  130.89   17.30
  -5  -3  11  109.49   19.10
   4   3 -11  372.06   26.40
  -4  -3  11  231.48   26.80
  -4  -3  11  299.27   23.60
   3   3 -11  198.18   18.40
   3   3 -11  239.98   16.80
  -3  -3  11  146.49   16.70
   2   3 -11  509.85   33.90
   2   3 -11  473.95   29.90
  -2  -3  11  365.36   27.20
   1   3 -11  569.64   36.50
  -1  -3  11  586.54   32.90
  -1  -3  11  511.95   40.50
   0   3 -11  317.47   26.40
   0   3 -11  284.67   23.60
   0  -3  11  292.37   27.00
  -1   3 -11  201.48   18.40
  -1   3 -11  135.29   18.90
   1  -3  11  140.89   16.70
  -2   3 -11  389.26   28.80
  -2   3 -11  270.97   27.50
  -2   3 -11  384.46   26.90
   2  -3  11  275.27   27.20
  -3   3 -11  183.68   19.10
  -3   3 -11  138.69   18.50
  -3   3 -11  165.88   21.70
   3  -3  11  161.68   20.70
  -4   3 -11  118.79   22.50
  -4   3 -11  110.89   19.60
  -4   3 -11  162.18   19.20
   4  -3  11  155.08   22.10
  -5   3 -11  104.69   20.00
  -5   3 -11  143.99   20.00
   5  -3  11  144.39   20.20
  -6   3 -11   63.79   12.90
  -6   3 -11   42.40   18.70
   6  -3  11   69.59   18.40
   7   2 -11    3.30    9.80
  -7  -2  11  -11.90    7.50
   6   2 -11    9.20    9.20
  -6  -2  11   -8.80    8.00
  -6  -2  11   -5.90    7.00
   5   2 -11    7.20    8.50
  -5  -2  11   -6.30    8.30
  -5  -2  11   -8.70    8.50
   4   2 -11    1.80    7.70
  -4  -2  11  -12.60    7.30
   3   2 -11    3.50    7.40
   3   2 -11    4.30    5.10
  -3  -2  11  -14.40    7.20
  -3  -2  11   -4.90    4.70
   2   2 -11    0.20    7.20
   2   2 -11    3.20    5.80
  -2  -2  11  -10.90    5.20
   1   2 -11   -1.40    7.00
   1   2 -11    2.20    6.20
  -1  -2  11  -14.20    7.30
   0   2 -11   19.70    7.00
   0   2 -11   26.50    8.90
   0   2 -11   30.70    8.90
   0  -2  11   17.60    7.70
   0  -2  11   21.30    5.60
   0  -2  11   13.60    6.20
  -1   2 -11   22.70    7.90
  -1   2 -11   19.30    7.30
   1  -2  11   16.40    7.00
   1  -2  11   30.10    8.10
   1  -2  11   26.60    5.00
  -2   2 -11   42.00   10.70
  -2   2 -11   60.49   11.70
   2  -2  11   60.19   11.20
   2  -2  11   61.29   10.90
  -3   2 -11  127.69   16.00
  -3   2 -11   98.79   14.20
   3  -2  11  145.49   14.50
   3  -2  11  126.29   15.40
  -4   2 -11   41.70   11.60
  -4   2 -11   25.50    8.90
   4  -2  11   41.60    8.30
   4  -2  11   51.89   11.30
  -5   2 -11   65.29   14.50
  -5   2 -11   93.69   18.70
   5  -2  11  123.29   21.20
   5  -2  11  114.09   15.30
  -6   2 -11   94.59   16.80
  -6   2 -11  106.09   21.40
   6  -2  11  123.59   16.10
   6  -2  11  152.98   24.30
  -7   2 -11   11.70   12.30
  -7   2 -11    8.80   17.10
   7  -2  11   40.50    8.70
   7  -2  11   60.89   18.40
   7   1 -11   34.90    9.20
  -7  -1  11   22.60   13.30
   6   1 -11   36.60   10.20
  -6  -1  11   30.00   10.10
   5   1 -11  188.08   17.50
  -5  -1  11  141.69   20.10
  -5  -1  11  120.79   19.50
   4   1 -11  338.87   23.70
   4   1 -11  326.97   21.20
  -4  -1  11  318.67   24.10
  -4  -1  11  275.17   26.40
   3   1 -11  260.67   18.00
   3   1 -11  252.07   20.50
  -3  -1  11  231.88   19.40
   2   1 -11  551.64   31.80
   2   1 -11  513.65   33.90
  -2  -1  11  441.46   31.40
   1   1 -11  708.63   42.30
  -1  -1  11  592.04   37.10
   0   1 -11  497.85   32.80
   0   1 -11  520.05   33.70
   0   1 -11  538.15   32.00
   0  -1  11  418.96   34.80
   0  -1  11  467.85   28.80
  -1   1 -11  971.90   55.69
  -1   1 -11  781.12   54.79
  -1   1 -11  931.91   53.49
   1  -1  11  871.71   46.80
   1  -1  11  858.11   55.29
   1  -1  11  784.52   55.09
   2  -1  11  750.82   48.40
   2  -1  11  721.43   39.20
   2  -1  11  706.83   46.90
  -3   1 -11  196.88   18.50
  -3   1 -11  155.08   17.50
   3  -1  11  238.18   17.60
  -4   1 -11  290.47   26.50
   4  -1  11  341.77   24.70
  -5   1 -11  255.57   25.20
   5  -1  11  284.57   21.20
  -6   1 -11   43.30   12.70
  -6   1 -11   65.09   14.80
   6  -1  11   40.80    8.10
  -7   1 -11   28.70   17.30
  -7   1 -11   24.70   10.20
   7  -1  11   66.99   17.20
   7  -1  11   30.20    9.10
  -7   0  11  -24.70   10.50
   6   0 -11    6.80    8.70
  -6   0  11  -14.10   10.50
   5   0 -11    5.60    5.40
   5   0 -11   -1.50    5.70
   4   0 -11   17.80    5.80
   4   0 -11   12.90    7.40
  -4   0  11   -0.30    6.80
  -4   0  11   -4.20    8.80
   3   0 -11    6.70    6.50
   3   0 -11   10.30    5.10
  -3   0  11   -7.70    7.50
  -3   0  11   -3.70    6.90
   2   0 -11   38.90    7.60
   2   0 -11   39.50    6.90
  -2   0  11   23.80    8.30
   1   0 -11  151.18   14.00
   1   0 -11  174.98   14.20
  -1   0  11  146.99   13.30
   0   0 -11  115.09   12.10
   0   0 -11  128.99   11.70
   0   0 -11  127.29   13.30
   0   0  11   96.19   11.20
  -1   0 -11  131.49   12.70
  -1   0 -11  107.69   13.40
  -1   0 -11  132.59   14.60
   1   0  11  108.09   10.80
   1   0  11  101.09   12.60
  -2   0 -11  446.56   30.40
   2   0  11  423.76   24.10
   2   0  11  386.86   28.60
  -3   0 -11  163.58   19.40
   3   0  11  195.38   12.50
   3   0  11  179.68   15.60
  -4   0 -11  168.98   21.00
   4   0  11  234.48   18.30
  -5   0 -11  216.18   21.40
   5   0  11  254.77   19.00
  -6   0 -11  121.89   19.60
   6   0  11  165.68   14.70
  -7   0 -11   70.79   15.50
  -7   0 -11  153.08   21.70
   7   0  11  112.59   14.70
  -8   0 -11  101.59   17.80
   8   0  11  158.98   17.20
   6  -1 -11   95.49   16.00
   5  -1 -11  174.08   15.20
   5  -1 -11  171.28   17.80
  -5   1  11  126.79   18.70
   4  -1 -11  294.87   22.60
   4  -1 -11  322.67   21.90
  -4   1  11  312.07   25.00
   3  -1 -11  168.98   14.70
   3  -1 -11  170.28   15.70
  -3   1  11  175.98   17.20
   2  -1 -11  307.07   19.90
   2  -1 -11  325.87   21.10
  -2   1  11  231.68   25.00
   1  -1 -11  360.56   23.60
   1  -1 -11  380.96   24.90
  -1   1  11  358.46   29.00
   0  -1 -11  486.95   31.00
   0  -1 -11  456.25   31.20
   0  -1 -11  546.15   32.00
   0   1  11  522.55   29.80
   0   1  11  439.46   34.10
  -1  -1 -11 1108.29   61.59
  -1  -1 -11 1090.69   64.79
  -1  -1 -11 1079.19   63.29
   1   1  11  980.70   56.19
   1   1  11  972.00   63.79
  -2  -1 -11  460.85   31.80
   2   1  11  500.75   27.60
   2   1  11  477.35   32.30
  -3  -1 -11  172.98   18.00
   3   1  11  158.68   11.30
   3   1  11  139.69   13.40
  -4  -1 -11  237.28   21.20
   4   1  11  234.78   19.20
   4   1  11  244.18   15.80
  -5  -1 -11  153.08   17.70
   5   1  11  156.68   13.90
  -6  -1 -11   24.10    9.50
   6   1  11   33.90    7.00
  -7  -1 -11   46.60   13.00
   7   1  11   55.69    9.80
  -8  -1 -11   55.59   18.60
   6  -2 -11    3.00    7.60
   6  -2 -11    2.70    9.00
  -6   2  11  -25.10   11.70
   5  -2 -11    1.40    8.20
   5  -2 -11    6.60    6.90
  -5   2  11  -11.70    8.10
   4  -2 -11   76.29   12.60
   4  -2 -11   76.89   11.80
  -4   2  11   44.30   11.20
   3  -2 -11    8.30    4.90
   3  -2 -11    5.20    6.30
  -3   2  11  -14.60    8.60
   2  -2 -11   32.20    7.00
   2  -2 -11   34.40    7.00
  -2   2  11    1.30    7.50
  -2   2  11   19.80    8.80
   1  -2 -11  129.49   11.60
   1  -2 -11  147.89   13.00
  -1   2  11  126.29   16.40
   0  -2 -11  119.19   11.20
   0  -2 -11  131.59   12.60
   0  -2 -11  130.19   11.70
   0   2  11  119.79   14.90
   0   2  11  159.08   12.20
  -1  -2 -11  491.55   30.50
  -1  -2 -11  426.96   31.50
  -1  -2 -11  500.45   30.60
   1   2  11  505.45   32.80
   1   2  11  500.55   28.80
  -2  -2 -11  601.64   38.00
   2   2  11  543.75   36.80
   2   2  11  573.64   32.60
  -3  -2 -11   17.90    7.00
  -3  -2 -11   12.70    8.10
   3   2  11    6.10    5.60
   3   2  11   10.10    4.70
  -4  -2 -11  369.76   27.70
   4   2  11  314.17   22.80
   4   2  11  320.67   20.40
  -5  -2 -11  580.74   40.20
   5   2  11  596.34   32.70
   5   2  11  565.14   37.50
  -6  -2 -11  285.47   25.20
   6   2  11  290.57   21.30
  -7  -2 -11  176.58   23.10
   7   2  11  234.18   19.40
  -8  -2 -11  109.29   18.00
   8   2  11  150.78   16.60
   5  -3 -11  106.69   14.80
   5  -3 -11   95.19   15.20
  -5   3  11   61.49   16.90
   4  -3 -11  130.79   14.80
   4  -3 -11  112.99   14.30
  -4   3  11   88.59   14.90
   3  -3 -11  172.08   14.80
   3  -3 -11  180.98   16.10
  -3   3  11  165.68   21.90
   2  -3 -11  313.77   22.50
   2  -3 -11  298.07   21.60
  -2   3  11  360.66   26.20
   1  -3 -11  171.08   15.40
   1  -3 -11  187.68   14.60
  -1   3  11  229.38   18.20
  -1   3  11  151.68   17.50
   0  -3 -11  403.56   28.60
   0  -3 -11  473.15   28.80
   0  -3 -11  401.66   29.20
   0   3  11  540.95   32.70
  -1  -3 -11  563.74   37.20
  -1  -3 -11  596.44   37.70
   1   3  11  653.53   40.10
   1   3  11  669.23   36.00
   2   3  11  213.28   17.30
   2   3  11  227.08   15.80
  -3  -3 -11  271.87   21.50
   3   3  11  274.77   18.30
   3   3  11  267.37   20.10
  -4  -3 -11  187.28   17.80
   4   3  11  158.28   15.00
   4   3  11  168.58   12.20
  -5  -3 -11   53.29   11.60
  -5  -3 -11   88.99   15.00
   5   3  11   48.20    8.40
   5   3  11   62.09    8.40
  -6  -3 -11   54.99   14.30
   6   3  11   57.39    9.50
   6   3  11   79.39    9.10
  -7  -3 -11   60.79   14.60
   7   3  11   73.09   10.90
   7   3  11  103.89   11.70
  -8  -3 -11   -9.50    9.10
  -8  -3 -11   34.00   15.40
   8   3  11    3.00    8.00
   5  -4 -11   23.90   10.10
   5  -4 -11   15.00    9.30
  -5   4  11  -10.10   13.20
   4  -4 -11    1.30    7.80
   4  -4 -11    9.60    8.20
  -4   4  11  -20.80   11.30
   3  -4 -11    9.20    7.10
   3  -4 -11    7.90    7.60
  -3   4  11   -9.30   10.50
   2  -4 -11  117.29   12.50
   2  -4 -11  115.09   12.20
  -2   4  11  131.49   15.80
   1  -4 -11  196.48   17.00
   1  -4 -11  194.48   16.00
  -1   4  11  214.48   17.70
   0  -4 -11  185.28   15.90
   0  -4 -11  193.48   16.10
   0  -4 -11  221.18   15.70
   0   4  11  255.27   17.20
   0   4  11  238.08   18.70
  -1  -4 -11  244.98   19.80
  -1  -4 -11  223.18   18.90
   1   4  11  294.57   20.30
   1   4  11  287.17   18.30
  -2  -4 -11  396.16   24.60
  -2  -4 -11  331.47   25.80
   2   4  11  371.96   22.60
   2   4  11  362.06   24.90
  -3  -4 -11   95.39   12.80
   3   4  11  117.99   11.80
   3   4  11  112.39   11.60
  -4  -4 -11  579.24   45.00
   4   4  11  735.43   43.00
   4   4  11  745.43   39.20
  -5  -4 -11  704.83   48.40
   5   4  11  723.53   45.00
   5   4  11  733.13   40.50
  -6  -4 -11  461.45   33.70
  -6  -4 -11  358.46   33.20
   6   4  11  419.06   28.80
   6   4  11  403.36   25.20
  -7  -4 -11  245.48   27.90
   7   4  11  351.56   24.50
   7   4  11  304.37   21.40
  -8  -4 -11  184.68   24.30
   8   4  11  286.57   22.30
   8   4  11  240.48   18.40
   4  -5 -11   90.79   15.00
   4  -5 -11  100.59   16.20
  -4   5  11   72.99   15.30
   3  -5 -11  165.58   17.60
   3  -5 -11  149.29   16.00
  -3   5  11  119.69   19.20
   2  -5 -11  113.09   13.00
   2  -5 -11  124.99   13.40
  -2   5  11  133.09   20.50
   1  -5 -11  179.08   15.90
   1  -5 -11  191.18   15.60
  -1   5  11  240.28   21.00
   0  -5 -11  433.46   28.10
   0  -5 -11  409.96   29.30
   0  -5 -11  408.26   28.70
   0   5  11  499.35   29.60
  -1  -5 -11  146.29   15.30
  -1  -5 -11  190.98   15.80
   1   5  11  200.28   14.80
  -2  -5 -11  102.69   12.40
  -2  -5 -11   90.69   11.70
   2   5  11  100.19   10.10
   2   5  11   91.19   11.10
  -3  -5 -11  199.58   16.50
  -3  -5 -11  160.48   16.50
   3   5  11  159.88   14.60
   3   5  11  147.39   13.90
  -4  -5 -11   63.89   11.00
   4   5  11   64.89   10.10
   4   5  11   73.09    8.60
  -5  -5 -11    2.40    5.80
  -5  -5 -11   12.00    9.60
   5   5  11   12.40    4.70
   5   5  11   13.70    6.30
  -6  -5 -11   29.10   13.00
  -6  -5 -11   45.20   12.00
   6   5  11   64.59   10.20
   6   5  11   73.39   11.60
  -7  -5 -11   -8.00   10.50
  -7  -5 -11   16.10    8.90
   7   5  11   16.50    7.70
   7   5  11    5.80    7.20
  -8  -5 -11    5.80   12.30
  -8  -5 -11  -12.50    9.70
   8   5  11    1.40    7.60
   8   5  11   -9.30    7.20
   3  -6 -11   64.79   11.10
   3  -6 -11   71.59   12.20
  -3   6  11   44.50   15.90
   2  -6 -11  139.99   14.60
   2  -6 -11  131.49   15.70
  -2   6  11  121.39   18.10
   1  -6 -11  102.99   14.60
   1  -6 -11  100.69   11.50
  -1   6  11   92.59   14.00
   0  -6 -11  285.17   22.30
   0   6  11  366.06   25.10
  -1  -6 -11  277.07   22.00
  -1  -6 -11  313.17   22.90
   1   6  11  299.47   20.80
  -2  -6 -11  321.77   23.50
  -2  -6 -11  248.08   20.30
   2   6  11  313.97   21.10
  -3  -6 -11  468.95   33.10
  -3  -6 -11  492.25   30.90
   3   6  11  429.76   29.50
   3   6  11  443.76   28.90
  -4  -6 -11  467.15   33.50
   4   6  11  462.95   30.60
   4   6  11  473.55   29.50
  -5  -6 -11  406.56   33.70
   5   6  11  449.06   28.20
   5   6  11  481.55   29.80
  -6  -6 -11  330.77   29.70
   6   6  11  433.96   25.80
   6   6  11  406.66   27.70
  -7  -6 -11  254.97   26.60
  -7  -6 -11  256.77   28.10
   7   6  11  309.27   21.50
   7   6  11  275.97   22.40
  -8  -6 -11  293.87   26.40
   8   6  11  282.07   22.30
   8   6  11  231.68   22.90
   2  -7 -11   30.30   10.70
   2  -7 -11   15.40    8.40
  -2   7  11   34.70    8.80
  -2   7  11   14.00   12.90
   1  -7 -11  106.79   13.70
  -1   7  11  132.59   16.90
   0  -7 -11   91.69   12.40
   0   7  11  111.09   14.10
  -1  -7 -11   46.40    9.20
  -1  -7 -11   41.10    9.30
   1   7  11   43.60    9.30
  -2  -7 -11   62.69   10.40
  -2  -7 -11   89.69   13.40
   2   7  11   80.49   12.60
  -3  -7 -11   53.39   10.60
  -3  -7 -11   40.70    7.70
   3   7  11   44.90    9.10
  -4  -7 -11   21.30    8.20
  -4  -7 -11   15.30    9.00
   4   7  11    8.10    5.40
   4   7  11   14.20    7.60
  -5  -7 -11   15.60    9.20
  -5  -7 -11    7.30    8.90
   5   7  11    7.10    7.40
  -6  -7 -11    9.80    9.80
  -6  -7 -11   10.40   10.60
   6   7  11   -2.00    6.00
   6   7  11    7.70    5.30
  -7  -7 -11  -16.80   10.80
  -7  -7 -11    2.60    7.30
   7   7  11  -11.10    6.40
   7   7  11    0.00    4.90
   1  -8 -11   75.59   13.40
  -1   8  11   73.79   15.20
   0  -8 -11  243.18   23.10
   0   8  11  299.57   25.40
  -1  -8 -11  264.87   23.20
  -1  -8 -11  248.28   22.00
   1   8  11  262.67   20.70
  -2  -8 -11  192.48   19.10
  -2  -8 -11  235.88   21.10
   2   8  11  227.88   19.70
  -3  -8 -11  324.57   25.00
  -3  -8 -11  365.76   28.30
   3   8  11  339.77   23.40
  -4  -8 -11  343.37   24.50
  -4  -8 -11  298.47   25.30
   4   8  11  291.67   21.60
  -5  -8 -11  401.96   32.00
   5   8  11  364.66   27.30
  -6  -8 -11  393.86   32.10
   6   8  11  378.06   25.10
   6   8  11  344.17   26.40
  -7  -8 -11  212.58   23.80
   7   8  11  215.98   17.40
   7   8  11  185.48   18.90
   0  -9 -11   22.10    8.60
   0   9  11   25.50   11.50
  -1  -9 -11   24.00    8.00
   1   9  11   37.80   10.60
  -2  -9 -11   31.10   10.30
  -2  -9 -11   29.80    9.60
   2   9  11   26.10    9.20
  -3  -9 -11   16.20   10.00
  -3  -9 -11   12.20    7.80
   3   9  11   14.40    6.50
  -4  -9 -11    7.80    7.50
  -4  -9 -11    2.00    9.80
   4   9  11    3.20    5.60
  -5  -9 -11   18.60    9.00
  -5  -9 -11    6.80   10.70
   5   9  11    9.80    9.20
  -6  -9 -11    5.50    8.30
   6   9  11    4.70    5.90
   3   9 -12  -28.30   15.80
   2   9 -12  -32.20   15.90
  -2  -9  12   20.20   15.00
   5   8 -12   -5.90   11.80
  -5  -8  12  -14.10    9.80
   3   8 -12  -18.10   10.60
   0  -8  12  -21.20   10.90
  -1   8 -12  -12.90    8.70
   1  -8  12  -19.40   11.10
   5   7 -12   68.29   15.50
  -5  -7  12   12.40   14.90
   4   7 -12   55.69   18.50
  -4  -7  12   24.70   14.60
  -3  -7  12   31.60   14.80
   2   7 -12   57.19   15.40
  -2  -7  12   55.79   16.20
   1   7 -12  -11.80   14.90
  -1  -7  12   31.40   14.20
   0   7 -12   27.50   17.80
   0   7 -12   65.79   11.70
   0  -7  12   29.50   14.10
   0  -7  12   63.49   13.60
  -1   7 -12   49.70   12.20
  -1   7 -12    6.50   16.90
   1  -7  12    7.30   13.60
   1  -7  12   57.39   15.20
  -2   7 -12    0.60   10.30
   2  -7  12  -20.90   12.90
   2  -7  12   10.90    9.60
  -3   7 -12  -22.90   17.00
  -3   7 -12   20.10   12.80
   3  -7  12  -10.30   15.90
   3  -7  12   46.70   14.70
   6   6 -12   13.60   14.90
  -6  -6  12  -21.30   12.10
   5   6 -12    3.10   10.70
   4   6 -12   -0.10   13.30
  -4  -6  12  -23.40   11.00
   3   6 -12   -8.40    9.50
   2   6 -12   -1.90    9.90
  -2  -6  12   -8.10    8.20
   1   6 -12  -11.20    6.40
  -1  -6  12  -13.50    7.60
   0   6 -12  -10.60    7.30
   0  -6  12   -2.10    8.30
  -1   6 -12   -5.40    8.70
   1  -6  12  -20.00   10.20
   1  -6  12   -9.40   11.20
  -2   6 -12   -8.60    9.10
   2  -6  12   -2.20   11.70
  -3   6 -12  -14.30    9.90
   3  -6  12    2.50   11.20
  -4   6 -12   22.80   10.60
  -4   6 -12  -21.80   15.90
   4  -6  12  -18.70   15.80
  -6  -5  12   23.30   14.60
  -6  -5  12   45.60   10.40
  -5  -5  12   28.60   14.50
  -5  -5  12   30.40    9.90
  -4  -5  12   87.09   14.10
  -4  -5  12   53.99   15.60
   3   5 -12  187.98   24.40
   2   5 -12  101.89   16.50
  -2  -5  12   30.80   13.80
   1   5 -12  145.89   16.70
   1   5 -12  183.18   23.50
  -1  -5  12  149.29   23.00
   0   5 -12  184.38   18.90
   0   5 -12  134.09   21.10
   0  -5  12  204.88   24.40
  -1   5 -12   17.50   14.40
  -1   5 -12   56.49   12.00
   1  -5  12   32.80   12.70
   1  -5  12   66.89   15.20
  -2   5 -12   24.40   11.00
  -2   5 -12   -0.90   13.50
   2  -5  12   48.00   11.60
   2  -5  12    6.30   12.40
  -3   5 -12   68.99   13.90
  -3   5 -12   28.60   16.10
   3  -5  12   35.60   16.20
  -4   5 -12   45.30   11.80
  -4   5 -12    3.20   15.10
  -5   5 -12   -3.10   12.60
   5  -5  12   51.29   13.10
   6   4 -12    9.00   11.80
  -6  -4  12  -18.60    9.20
  -6  -4  12  -20.70   11.20
   5   4 -12    2.40    8.30
   4   4 -12    7.80   10.90
  -4  -4  12  -13.70    7.00
   3   4 -12   12.00   11.30
  -3  -4  12   -4.90    6.30
   2   4 -12   -9.00    7.70
   2   4 -12   14.50   11.30
  -2  -4  12    3.40    5.60
   1   4 -12   -5.50   10.50
   1   4 -12  -14.00    7.00
  -1  -4  12   -5.60    7.30
   0   4 -12   29.60   10.00
   0   4 -12   51.29   11.70
   0  -4  12   27.90    9.20
   0  -4  12   31.80   12.50
  -1   4 -12    1.30    9.20
  -1   4 -12  -12.30   10.10
   1  -4  12   11.80   11.20
   1  -4  12    2.50    8.60
  -2   4 -12   26.70    9.10
   2  -4  12    8.30   11.00
   2  -4  12   48.70   10.90
  -3   4 -12   64.59   13.90
  -3   4 -12   34.80   13.90
   3  -4  12   46.00   15.00
  -4   4 -12   75.69   13.90
   4  -4  12   69.99   18.60
  -5   4 -12    7.40   12.70
   5  -4  12   -1.50   15.60
  -6  -3  12   29.40   13.00
  -6  -3  12   40.70   10.80
   5   3 -12   77.39   12.80
  -5  -3  12   44.50   10.20
  -5  -3  12   20.60   12.70
  -4  -3  12  117.19   19.50
  -4  -3  12  189.28   18.90
   3   3 -12  309.37   25.00
   3   3 -12  370.66   24.00
  -3  -3  12  247.68   23.00
  -2  -3  12   54.49   14.50
  -2  -3  12   97.49   12.40
   1   3 -12  487.95   31.60
   1   3 -12  465.65   30.20
  -1  -3  12  324.87   33.20
  -1  -3  12  369.06   26.10
   0   3 -12  133.89   17.30
   0  -3  12  108.19   15.20
  -1   3 -12   49.60   13.50
  -1   3 -12   74.89   13.50
   1  -3  12   75.29   12.60
  -2   3 -12  218.68   21.60
  -2   3 -12  166.98   18.10
  -2   3 -12  137.29   20.70
   2  -3  12  185.58   20.80
  -3   3 -12   85.79   16.00
  -3   3 -12  107.59   15.40
  -3   3 -12  115.49   20.40
   3  -3  12  127.99   19.70
  -4   3 -12   25.30   12.20
  -4   3 -12   50.49   13.70
   4  -3  12   58.69   14.10
   4  -3  12   94.89   16.50
  -5   3 -12   10.60   12.50
  -5   3 -12   15.80   16.10
   5  -3  12   47.70   16.60
  -6   3 -12   -9.80   11.90
  -6   3 -12  -16.40   15.30
   6  -3  12   21.40   15.60
   6  -3  12   29.40   10.40
   6   2 -12    0.80    7.20
  -6  -2  12  -15.10    9.10
  -6  -2  12  -20.10   10.00
   5   2 -12   -1.70    6.40
  -5  -2  12  -18.90    8.90
   4   2 -12   52.29   11.10
  -4  -2  12   35.10   10.90
  -4  -2  12   15.40   11.80
   3   2 -12   61.49   11.40
   2   2 -12   17.50    7.10
   2   2 -12    8.50    8.30
  -2  -2  12   -6.60    6.80
  -2  -2  12  -10.30    6.00
  -1  -2  12   89.49   11.70
  -1  -2  12   67.09   14.20
   0   2 -12  253.77   21.70
   0   2 -12  314.57   23.90
   0   2 -12  316.77   24.40
   0  -2  12  259.37   19.10
   0  -2  12  255.87   26.10
  -1   2 -12  143.79   15.20
  -1   2 -12   99.19   14.90
  -1   2 -12   90.89   14.10
   1  -2  12  115.69   14.40
   1  -2  12  130.79   15.60
  -2   2 -12  264.07   23.50
   2  -2  12  245.68   23.10
   2  -2  12  265.27   22.10
  -3   2 -12  336.17   29.30
   3  -2  12  319.07   28.60
   3  -2  12  322.27   26.80
  -4   2 -12  167.88   23.90
   4  -2  12  166.48   19.10
   4  -2  12  210.58   24.00
  -5   2 -12  110.89   19.30
   5  -2  12  149.69   19.60
   5  -2  12  104.69   13.90
  -6   2 -12  113.59   22.30
   6  -2  12  110.29   14.40
   6  -2  12  170.98   25.70
   6   1 -12   37.70   11.00
  -6  -1  12   11.90   10.00
  -5  -1  12   85.79   15.00
  -5  -1  12   99.59   16.20
   4   1 -12  211.38   19.30
   4   1 -12  204.08   15.60
  -4  -1  12  159.98   18.50
   3   1 -12  193.68   15.10
   3   1 -12  176.38   17.30
  -3  -1  12  142.29   18.70
   2   1 -12  143.69   13.90
   2   1 -12  176.48   14.60
  -2  -1  12  117.89   16.00
   1   1 -12  457.75   31.70
   1   1 -12  495.25   30.50
  -1  -1  12  410.46   28.60
   0   1 -12  294.07   21.30
   0   1 -12  264.47   20.90
   0   1 -12  243.48   19.20
   0  -1  12  236.08   17.30
   0  -1  12  213.88   19.00
   0  -1  12  195.58   23.00
  -1   1 -12  168.18   18.10
  -1   1 -12  209.18   17.60
  -1   1 -12  176.28   17.20
   1  -1  12  182.58   14.20
   1  -1  12  174.08   19.90
   1  -1  12  217.48   17.50
  -2   1 -12  363.26   26.20
   2  -1  12  281.47   24.20
  -3   1 -12   72.29   12.70
   3  -1  12   98.59   14.40
  -4   1 -12   71.69   14.30
   4  -1  12   45.10    9.80
  -5   1 -12   53.89   14.70
   5  -1  12   91.39   14.30
  -6   1 -12    5.50    9.40
  -6   1 -12   23.90   15.50
   6  -1  12   14.90    8.20
  -7   1 -12  -15.10   14.80
   7  -1  12   15.50   15.30
   7  -1  12    2.10    5.80
   6   0 -12   11.50    9.20
   5   0 -12   -1.00    8.20
   4   0 -12  119.19   14.60
   4   0 -12  100.59   11.40
  -4   0  12   65.29   13.40
  -4   0  12  102.69   15.70
   3   0 -12   53.79    9.10
   3   0 -12   49.00    7.90
  -3   0  12   42.30    9.60
   2   0 -12   31.90    7.90
   2   0 -12   37.30    7.40
  -2   0  12   30.80    7.80
   1   0 -12  246.88   19.90
   1   0 -12  280.67   19.90
  -1   0  12  255.97   20.20
   0   0 -12  477.75   30.20
   0   0 -12  450.05   30.40
   0   0 -12  482.75   30.30
   0   0  12  442.76   27.60
   0   0  12  377.76   33.00
  -1   0 -12  371.26   24.80
  -1   0 -12  361.16   24.40
  -1   0 -12  338.37   25.10
   1   0  12  298.07   25.00
   1   0  12  313.57   20.90
  -2   0 -12  542.15   34.60
   2   0  12  449.56   33.50
   2   0  12  466.45   27.50
  -3   0 -12  320.37   27.90
   3   0  12  316.07   25.20
   3   0  12  348.87   20.10
  -4   0 -12   92.39   15.90
   4   0  12  136.69   15.00
  -5   0 -12  274.77   28.80
   5   0  12  328.97   24.50
  -6   0 -12  168.58   24.20
   6   0  12  235.88   20.10
  -7   0 -12   84.39   17.60
   7   0  12  111.89   13.30
   6  -1 -12   33.10    9.00
  -6   1  12   -2.40   13.50
   5  -1 -12  128.99   16.30
   5  -1 -12  134.79   14.00
  -5   1  12   86.99   17.60
   4  -1 -12   52.59   10.30
   4  -1 -12   70.99   11.20
  -4   1  12   38.40   13.00
   3  -1 -12  116.49   12.70
   3  -1 -12  116.99   12.10
  -3   1  12  109.49   15.60
   2  -1 -12  254.57   19.60
   2  -1 -12  257.07   20.40
  -2   1  12  315.77   21.90
   1  -1 -12  271.27   19.20
   1  -1 -12  258.47   18.90
  -1   1  12  201.78   23.10
   0  -1 -12  127.39   12.00
   0  -1 -12  123.09   11.90
   0   1  12  129.89   13.00
   0   1  12  108.29   16.00
  -1  -1 -12  286.17   20.80
  -1  -1 -12  263.57   19.20
  -1  -1 -12  254.27   18.80
   1   1  12  231.58   17.10
   1   1  12  218.48   19.80
  -2  -1 -12  198.88   16.40
  -2  -1 -12  196.38   16.30
   2   1  12  137.99   16.10
   2   1  12  147.79   12.50
  -3  -1 -12  261.07   20.30
   3   1  12  210.28   14.40
   3   1  12  185.58   17.10
  -4  -1 -12   55.79   11.90
   4   1  12   65.99    8.20
   4   1  12   56.99    9.60
  -5  -1 -12   -2.00   11.10
  -5  -1 -12   43.30   12.30
   5   1  12   18.50    6.20
  -6  -1 -12    7.60    9.50
  -6  -1 -12  -21.90   10.20
   6   1  12   -2.90    6.50
  -7  -1 -12   11.40   14.80
   7   1  12   -0.70    5.30
   5  -2 -12   27.70    8.30
   5  -2 -12   23.30    8.40
  -5   2  12   -1.80   13.00
   4  -2 -12  123.89   14.30
   4  -2 -12  119.99   15.20
  -4   2  12   90.59   15.40
   3  -2 -12   42.90    7.50
   3  -2 -12   48.30    9.20
  -3   2  12   34.70   10.10
   2  -2 -12  110.09   12.60
   2  -2 -12  100.39   11.00
  -2   2  12  136.79   17.90
   1  -2 -12  295.97   21.30
   1  -2 -12  307.17   21.20
  -1   2  12  280.37   25.70
   0  -2 -12  464.65   31.20
   0  -2 -12  458.75   30.90
   0   2  12  543.35   30.50
   0   2  12  475.35   34.40
  -1  -2 -12  408.96   26.10
  -1  -2 -12  392.76   25.90
  -1  -2 -12  364.86   26.50
   1   2  12  385.86   28.20
   1   2  12  400.56   24.60
  -2  -2 -12  865.71   46.50
  -2  -2 -12  786.82   48.30
   2   2  12  652.03   46.40
   2   2  12  701.13   41.40
  -3  -2 -12  784.92   44.20
   3   2  12  594.64   36.10
   3   2  12  579.54   41.20
  -4  -2 -12  476.45   32.00
   4   2  12  363.86   23.30
   4   2  12  348.57   26.20
  -5  -2 -12  500.35   39.10
   5   2  12  528.35   34.90
   5   2  12  528.15   30.10
  -6  -2 -12  297.97   30.20
   6   2  12  331.57   23.70
  -7  -2 -12  154.28   23.90
   7   2  12  199.48   18.60
  -8  -2 -12  124.69   20.80
   8   2  12  175.38   16.40
   5  -3 -12   94.29   15.50
   5  -3 -12   86.09   14.70
  -5   3  12   43.80   17.10
   4  -3 -12  104.59   14.60
   4  -3 -12  100.29   14.50
  -4   3  12   74.59   17.00
   3  -3 -12   90.59   11.30
   3  -3 -12   94.29   13.10
  -3   3  12   82.09   13.60
   2  -3 -12  146.69   14.10
   2  -3 -12  125.39   12.80
  -2   3  12  159.38   19.70
   1  -3 -12   78.39   10.20
   1  -3 -12   66.69   11.40
  -1   3  12  114.59   15.20
   0  -3 -12   44.40    7.20
   0  -3 -12   36.40    6.80
   0   3  12   65.29    9.60
   0   3  12   45.50    9.50
  -1  -3 -12  207.38   17.50
   1   3  12  220.88   16.70
   1   3  12  206.48   18.40
  -2  -3 -12    8.10    5.50
  -2  -3 -12   11.10    5.60
   2   3  12    5.10    5.60
   2   3  12   10.90    5.30
  -3  -3 -12   47.90    9.90
  -3  -3 -12   26.10    7.80
   3   3  12   16.10    6.50
   3   3  12   23.30    5.70
  -4  -3 -12   16.20    8.00
  -4  -3 -12   14.10    9.50
   4   3  12    7.60    4.80
   4   3  12    2.20    4.60
  -5  -3 -12   11.30    9.40
  -5  -3 -12  -13.80    6.90
   5   3  12    1.10    5.20
   5   3  12   -3.20    4.30
  -6  -3 -12   -9.90    7.90
  -6  -3 -12   12.50   10.90
   6   3  12    8.20    5.30
   6   3  12   -1.80    6.50
  -7  -3 -12   16.50   13.00
   7   3  12   -3.60    5.10
  -8  -3 -12  -12.70   11.40
  -8  -3 -12   38.90   16.50
   8   3  12   15.30    8.60
   4  -4 -12  112.29   16.00
   4  -4 -12  105.39   15.30
  -4   4  12   66.99   17.40
   3  -4 -12   90.59   14.40
   3  -4 -12   74.99   12.90
  -3   4  12   55.19   12.90
   2  -4 -12  149.69   14.80
   2  -4 -12  148.09   16.10
  -2   4  12  184.68   21.30
   1  -4 -12  314.07   23.50
   1  -4 -12  295.97   22.30
  -1   4  12  367.26   24.20
   0  -4 -12  360.86   25.20
   0  -4 -12  398.36   25.50
  -1  -4 -12  386.36   30.20
  -1  -4 -12  406.56   28.70
   1   4  12  519.35   29.00
   1   4  12  514.05   31.30
  -2  -4 -12  370.56   29.60
  -2  -4 -12  512.15   29.70
   2   4  12  437.56   26.30
   2   4  12  420.36   29.20
  -3  -4 -12  363.06   30.40
   3   4  12  473.45   29.60
   3   4  12  465.35   26.80
  -4  -4 -12  585.24   40.70
   4   4  12  572.34   37.20
   4   4  12  597.24   34.00
  -5  -4 -12  578.04   38.90
   5   4  12  505.25   31.30
   5   4  12  502.55   34.70
  -6  -4 -12  237.28   27.70
   6   4  12  295.27   19.20
   6   4  12  270.37   22.00
  -7  -4 -12  133.99   23.60
   7   4  12  160.48   17.60
   7   4  12  186.58   14.50
  -8  -4 -12  127.59   23.30
   8   4  12  185.78   19.10
   3  -5 -12   52.69   10.10
   3  -5 -12   52.99   11.20
  -3   5  12   41.10   14.90
   2  -5 -12   41.70    8.50
   2  -5 -12   42.00    8.70
  -2   5  12   33.70   12.60
   1  -5 -12   20.30    8.40
   1  -5 -12   23.40    7.10
  -1   5  12   24.60    9.80
   0  -5 -12    3.70    5.10
   0   5  12    9.50    5.90
  -1  -5 -12   13.50    5.50
  -1  -5 -12   13.90    6.60
   1   5  12   18.80    7.10
  -2  -5 -12   -0.50    4.70
  -2  -5 -12   -0.10    6.00
   2   5  12    0.30    4.90
   2   5  12    4.20    5.80
  -3  -5 -12    6.40    7.30
  -3  -5 -12   -0.10    6.60
   3   5  12   -0.30    5.30
   3   5  12    2.70    5.20
  -4  -5 -12    5.70    7.80
  -4  -5 -12   17.10    9.00
   4   5  12   -0.70    5.40
   4   5  12    5.20    5.50
  -5  -5 -12   12.20    8.10
  -5  -5 -12    1.10    8.10
   5   5  12    5.30    4.90
   5   5  12    9.40    6.60
  -6  -5 -12   21.30   12.90
  -6  -5 -12   29.50   10.90
   6   5  12   32.10    6.10
   6   5  12   21.10    7.80
  -7  -5 -12    3.00    8.20
  -7  -5 -12  -23.50   10.80
   7   5  12    4.10    5.50
  -8  -5 -12   45.40   15.50
  -8  -5 -12   93.89   17.50
   8   5  12  103.49   15.80
   8   5  12   67.69   10.30
   3  -6 -12  112.99   15.60
   3  -6 -12  109.69   17.20
  -3   6  12   78.59   18.60
   2  -6 -12  116.79   14.30
   2  -6 -12  119.19   14.30
  -2   6  12  120.39   18.30
   1  -6 -12  181.38   19.00
  -1   6  12  207.88   22.40
   0  -6 -12  231.68   21.20
   0   6  12  293.37   21.00
  -1  -6 -12  386.16   27.70
  -1  -6 -12  333.67   26.50
   1   6  12  423.06   26.70
  -2  -6 -12  489.75   34.10
  -2  -6 -12  453.25   31.80
   2   6  12  505.85   30.60
  -3  -6 -12  465.85   29.00
  -3  -6 -12  390.96   30.40
   3   6  12  377.06   27.20
   3   6  12  404.16   26.60
  -4  -6 -12  462.15   34.20
   4   6  12  458.55   29.00
   4   6  12  456.85   30.70
  -5  -6 -12  341.27   28.50
   5   6  12  392.56   25.60
   5   6  12  382.06   26.60
  -6  -6 -12  236.28   24.90
  -6  -6 -12  338.77   28.30
   6   6  12  283.07   22.00
   6   6  12  243.68   19.90
  -7  -6 -12  235.58   29.80
  -7  -6 -12  320.67   29.10
   7   6  12  309.87   22.10
   7   6  12  327.17   23.50
   2  -7 -12    8.00   10.00
  -2   7  12   -7.50   12.00
   1  -7 -12    4.40    6.90
  -1   7  12    6.40   10.70
   0  -7 -12    4.50    8.20
   0   7  12    5.20    6.70
  -1  -7 -12    4.70    5.80
   1   7  12    8.30    8.10
  -2  -7 -12    0.40    7.30
  -2  -7 -12    0.10    5.00
   2   7  12    3.70    6.70
  -3  -7 -12    5.10    7.10
  -3  -7 -12    2.10    7.80
   3   7  12    5.30    5.00
  -4  -7 -12   13.40    9.20
  -4  -7 -12   20.00    8.70
   4   7  12    4.30    5.70
   4   7  12   12.20    5.50
  -5  -7 -12   91.29   16.30
   5   7  12   63.99    9.90
   5   7  12   69.89   10.80
  -6  -7 -12   46.60   10.90
  -6  -7 -12   85.89   15.00
   6   7  12   49.99    8.20
  -7  -7 -12    0.70   12.30
  -7  -7 -12   20.70   11.50
   7   7  12   29.60    8.70
   7   7  12   23.20    7.80
   0  -8 -12  209.38   19.60
   0   8  12  261.77   24.00
  -1  -8 -12  343.97   27.10
   1   8  12  364.36   25.50
  -2  -8 -12  230.28   21.20
  -2  -8 -12  270.27   23.10
   2   8  12  261.27   21.50
  -3  -8 -12  230.88   19.60
  -3  -8 -12  267.87   23.80
   3   8  12  262.67   21.10
  -4  -8 -12  274.17   22.50
  -4  -8 -12  258.77   24.80
   4   8  12  252.57   22.20
  -5  -8 -12  254.77   23.20
   5   8  12  250.17   20.70
  -6  -8 -12  177.48   19.50
   6   8  12  166.28   19.30
  -2  -9 -12   31.90    9.40
  -2  -9 -12   30.00   10.40
   2   9  12   31.70    9.80
  -3  -9 -12    5.80    6.10
  -3  -9 -12    9.80    9.90
   3   9  12   15.30    8.40
  -4  -9 -12   40.90   12.40
  -4  -9 -12   38.20   10.00
   4   9  12   33.80   10.40
  -5  -9 -12  134.99   17.00
  -5  -9 -12  113.89   19.70
   5   9  12   86.29   12.80
   3   8 -13  -21.20   11.00
   2   8 -13  -20.40   10.60
  -1  -8  13  -24.70   12.70
   4   7 -13   31.40   17.20
  -4  -7  13    8.10   11.90
   3   7 -13   44.80   18.00
  -3  -7  13   16.30   12.70
   2   7 -13   44.50   17.90
  -2  -7  13    5.30   15.00
   1   7 -13  -11.50   15.50
  -1  -7  13    8.90   14.40
   0  -7  13    4.20   13.50
   0  -7  13  -10.90   11.20
  -1   7 -13   24.50   11.70
  -1   7 -13    1.40   12.90
   1  -7  13   29.90   14.50
   1  -7  13   -7.30   12.90
  -2   7 -13   -4.20    8.20
   2  -7  13   -1.10   12.70
   5   6 -13   16.10   15.30
   4   6 -13   18.80   15.20
   3   6 -13  -10.60   13.90
   2   6 -13    6.90   14.70
  -2  -6  13    2.70   10.30
   1   6 -13   28.00   15.30
  -1  -6  13   31.70   12.60
   0   6 -13   -0.70    9.00
   0  -6  13    0.30   12.90
   0  -6  13  -15.20   11.20
  -1   6 -13  -18.20   13.50
  -1   6 -13   12.10   10.80
   1  -6  13   -6.20   11.90
   1  -6  13   30.80   11.90
  -2   6 -13   10.20   11.80
   2  -6  13   32.50   11.80
   2  -6  13    7.10   11.30
  -3   6 -13    0.60   12.80
  -3   6 -13  -26.20   15.50
   3  -6  13    0.60   11.90
  -6  -5  13   23.30   12.30
  -5  -5  13   27.40   10.90
  -5  -5  13    5.00   14.90
   4   5 -13   73.59   17.00
   3   5 -13  145.29   23.00
   2   5 -13   75.79   16.90
  -2  -5  13   14.20   14.00
   1   5 -13   16.50   10.50
  -1  -5  13   27.10   14.10
   0   5 -13   30.80   10.80
   0   5 -13   51.09   13.50
   0  -5  13   33.40   14.10
   0  -5  13   25.80   11.20
  -1   5 -13   26.30    9.50
   1  -5  13   51.59   12.70
   1  -5  13    7.90   11.40
  -2   5 -13   -4.30    7.50
   2  -5  13    6.20   11.90
  -3   5 -13   -7.50   11.20
   3  -5  13    0.00   10.90
   3  -5  13   32.90   13.00
  -4   5 -13  -21.10   11.60
   4  -5  13  -13.00   15.10
   4  -5  13   27.40   12.70
   6   4 -13   23.80   13.10
  -6  -4  13  -19.80   12.90
  -6  -4  13  -21.80   10.20
   5   4 -13   28.30   12.90
  -5  -4  13  -15.60    8.90
  -4  -4  13  -19.80   12.00
  -4  -4  13   -0.10    8.70
  -3  -4  13   22.40   15.00
  -3  -4  13   52.69   10.00
   2   4 -13   82.29   12.50
  -2  -4  13   40.90   15.30
   1   4 -13   41.10   11.30
  -1  -4  13   33.70   14.00
   0   4 -13   65.39   13.50
   0   4 -13   98.89   16.50
   0  -4  13   54.09   12.90
   0  -4  13  102.39   17.20
  -1   4 -13   75.29   13.00
  -1   4 -13   60.99   15.60
   1  -4  13  111.69   17.40
   1  -4  13   81.49   14.90
  -2   4 -13   70.79   15.20
   2  -4  13   91.69   16.70
  -3   4 -13   45.00   15.90
  -3   4 -13   64.59   13.40
   3  -4  13   86.89   17.80
  -4   4 -13   80.49   17.70
   4  -4  13  103.69   20.60
  -5   4 -13   29.30   12.40
   5  -4  13   33.50   17.80
  -6  -3  13   14.60   12.90
  -5  -3  13  -10.20   12.80
  -5  -3  13   14.80    8.90
  -4  -3  13   11.10    9.80
  -4  -3  13  -13.00   11.90
  -3  -3  13   26.80   11.90
  -3  -3  13   50.89   10.90
   2   3 -13   72.09   13.30
   2   3 -13   69.49   11.40
   1   3 -13  104.59   16.40
   1   3 -13  120.59   18.20
   0   3 -13   94.69   14.90
   0   3 -13   74.79   13.90
   0  -3  13   58.09   14.40
  -1   3 -13   -8.90    9.70
  -1   3 -13   -2.00    7.70
   1  -3  13   10.80   10.90
   1  -3  13    5.90    8.00
  -2   3 -13  -11.30    9.30
  -2   3 -13  -20.10    9.30
   2  -3  13   14.20   10.40
   2  -3  13    5.70    9.80
  -3   3 -13    2.30   12.00
   3  -3  13   27.30   13.00
   3  -3  13   39.10   11.60
  -4   3 -13  -10.30   12.90
  -4   3 -13  -23.70   10.90
   4  -3  13   21.90   10.30
   4  -3  13   10.60   14.00
   5  -3  13   17.30   15.10
   5  -3  13    6.60    9.60
   6   2 -13   41.00   11.80
  -6  -2  13  -11.50   12.00
  -5  -2  13   11.00   11.80
  -5  -2  13    2.70   12.00
   4   2 -13   25.90   10.20
  -4  -2  13  -16.90   11.20
  -4  -2  13    2.50   10.10
   3   2 -13  261.07   19.70
   3   2 -13  242.18   22.70
  -2  -2  13   81.49   11.30
  -2  -2  13   48.30   15.00
   1   2 -13  248.28   21.20
   1   2 -13  221.58   21.80
   0   2 -13  420.46   31.30
   0   2 -13  470.85   31.30
   0  -2  13  332.87   33.10
  -1   2 -13  255.17   22.40
  -1   2 -13  233.18   23.80
  -1   2 -13  228.98   22.80
   1  -2  13  241.48   22.40
   1  -2  13  254.87   22.90
  -2   2 -13  215.08   21.70
   2  -2  13  197.58   19.90
   2  -2  13  214.48   21.40
  -3   2 -13  336.47   28.10
   3  -2  13  348.17   28.50
   3  -2  13  332.77   28.10
  -4   2 -13  303.87   28.20
   4  -2  13  306.47   26.80
   4  -2  13  338.17   28.50
  -5   2 -13  220.18   28.60
   5  -2  13  190.28   21.60
   5  -2  13  270.07   28.80
  -6   2 -13  130.99   22.50
   6  -2  13  165.58   22.50
   6  -2  13  127.69   18.40
   6   1 -13   26.40   10.80
  -6  -1  13   -7.00    9.50
   5   1 -13   36.80   11.10
  -5  -1  13   11.20   12.50
   4   1 -13   37.30   10.20
  -4  -1  13   13.20    9.00
  -4  -1  13  -16.90   12.00
   3   1 -13   72.39   10.90
   3   1 -13   52.29   10.80
   2   1 -13   50.49   10.00
   2   1 -13   80.39   12.00
  -2  -1  13   43.70    9.10
   1   1 -13  178.88   16.60
   1   1 -13  159.38   16.60
  -1  -1  13  113.29   15.20
   0   1 -13   88.89   13.80
   0   1 -13   98.99   14.90
   0  -1  13   49.10   12.80
   0  -1  13   65.99   10.90
  -1   1 -13   15.40    7.20
  -1   1 -13    0.60    8.20
  -1   1 -13    7.70    9.60
   1  -1  13    9.20    4.90
   1  -1  13    5.40    9.00
   1  -1  13   26.80    7.10
  -2   1 -13   17.10    8.50
  -2   1 -13    4.10   10.20
   2  -1  13   10.80    8.90
  -3   1 -13    0.40    9.30
   3  -1  13    3.70    8.10
  -4   1 -13    3.80   11.00
   4  -1  13    4.00    7.80
  -5   1 -13   21.00   10.70
   5  -1  13    9.40    8.10
  -6   1 -13   -3.20   10.50
   6  -1  13   14.30   11.00
   6  -1  13    5.60    7.80
   5   0 -13   50.09   11.00
  -5   0  13   27.30   11.50
   4   0 -13   80.89   11.00
   4   0 -13   58.29   10.60
  -4   0  13   27.10   13.00
   3   0 -13  203.58   18.70
   3   0 -13  200.58   16.70
  -3   0  13  169.78   22.00
   2   0 -13  231.68   17.90
   2   0 -13  200.38   18.40
  -2   0  13  213.78   21.10
   1   0 -13  359.36   27.00
   1   0 -13  400.66   26.80
  -1   0  13  401.86   26.90
   0   0 -13  636.04   40.80
   0   0 -13  709.03   40.40
   0   0  13  618.34   36.90
   0   0  13  539.05   43.30
  -1   0 -13  422.76   28.60
  -1   0 -13  444.36   29.50
  -1   0 -13  380.46   28.10
   1   0  13  354.66   30.20
   1   0  13  380.86   24.30
  -2   0 -13  258.77   20.20
  -2   0 -13  240.38   20.30
   2   0  13  209.38   15.10
   2   0  13  190.28   18.90
  -3   0 -13  777.52   48.60
   3   0  13  647.34   45.30
  -4   0 -13  284.07   26.50
   4   0  13  317.07   23.70
  -5   0 -13  127.29   21.10
   5   0  13  181.48   18.20
  -6   0 -13  124.79   21.40
   6   0  13  184.38   18.40
   7   0  13  127.89   17.40
   5  -1 -13   24.60   10.00
  -5   1  13    1.10   13.50
   4  -1 -13   22.10    7.20
   4  -1 -13   20.10    8.90
  -4   1  13  -15.40   11.20
   3  -1 -13   15.40    7.90
   3  -1 -13   19.70    7.10
  -3   1  13   11.60   11.00
   2  -1 -13   13.10    7.00
   2  -1 -13   16.70    6.90
  -2   1  13    2.90    9.00
  -2   1  13  -13.70    8.50
   1  -1 -13   85.29   11.90
   1  -1 -13   69.69   10.70
  -1   1  13   50.99   12.70
  -1   1  13   74.89   11.20
   0  -1 -13    7.80    6.40
   0  -1 -13    5.90    5.40
   0   1  13   -5.00    7.50
   0   1  13    6.20    4.80
  -1  -1 -13    4.00    5.50
  -1  -1 -13   15.50    8.00
   1   1  13   -2.60    7.40
   1   1  13    4.10    5.20
  -2  -1 -13    4.10    6.20
  -2  -1 -13    1.50    8.10
   2   1  13    0.60    4.20
   2   1  13    0.50    7.00
  -3  -1 -13   39.30   11.70
  -3  -1 -13   43.40    9.80
   3   1  13   24.30    8.30
   3   1  13   32.20    5.40
  -4  -1 -13   11.50    9.10
   4   1  13   14.40    7.80
  -5  -1 -13  -22.90   10.80
  -5  -1 -13   15.00   11.10
   5   1  13   -1.90    7.10
  -6  -1 -13   46.70   14.60
  -6  -1 -13   -5.10    9.60
   6   1  13   14.10    8.10
  -7  -1 -13   50.49   14.10
   7   1  13   33.90    9.80
   5  -2 -13   50.09   11.70
   5  -2 -13   50.79   10.00
  -5   2  13   21.50   15.50
   4  -2 -13  142.99   15.30
   4  -2 -13  124.09   16.10
  -4   2  13   95.19   18.50
   3  -2 -13  133.79   15.00
   3  -2 -13  118.09   12.60
  -3   2  13  149.19   22.10
   2  -2 -13  134.59   14.30
   2  -2 -13  118.39   12.50
  -2   2  13  175.38   17.10
   1  -2 -13  326.87   22.60
   1  -2 -13  304.07   22.00
  -1   2  13  282.27   26.90
   0  -2 -13  437.46   30.20
   0  -2 -13  449.46   31.00
   0   2  13  477.35   34.80
   0   2  13  556.34   31.00
  -1  -2 -13  395.26   27.60
  -1  -2 -13  434.96   28.20
   1   2  13  396.66   24.80
   1   2  13  385.66   29.60
  -2  -2 -13  214.48   18.10
  -2  -2 -13  235.48   19.60
   2   2  13  187.48   15.00
   2   2  13  159.58   17.90
   3   2  13  479.25   33.60
   3   2  13  498.25   28.60
   4   2  13  309.17   23.60
   4   2  13  332.57   20.40
  -5  -2 -13  335.87   31.00
   5   2  13  326.47   25.30
  -6  -2 -13  172.18   26.10
   6   2  13  212.48   18.00
  -7  -2 -13   21.60   15.40
   7   2  13   62.29   10.70
   4  -3 -13   12.90    8.30
   4  -3 -13   13.90    8.90
  -4   3  13  -14.50   12.30
   3  -3 -13   13.50    7.90
   3  -3 -13    7.10    7.90
  -3   3  13   -3.60   11.50
   2  -3 -13    9.10    7.50
   2  -3 -13   15.70    7.70
  -2   3  13   14.30    8.10
   1  -3 -13    5.10    5.10
   1  -3 -13    1.50    6.10
  -1   3  13    2.20    8.10
   0  -3 -13   21.40    7.70
   0   3  13   20.30    8.40
   0   3  13   28.70    8.20
  -1  -3 -13    4.70    6.90
   1   3  13    1.20    5.80
   1   3  13   -1.90    6.50
  -2  -3 -13    7.90    5.90
  -2  -3 -13    3.40    5.60
   2   3  13    2.20    5.20
   2   3  13   -1.30    5.90
  -3  -3 -13   71.79   10.30
   3   3  13   71.09   12.00
   3   3  13   65.19    8.20
  -4  -3 -13  115.69   18.20
  -4  -3 -13  103.29   15.10
   4   3  13   79.59   11.10
   4   3  13   81.59   11.10
  -5  -3 -13   20.60    9.90
  -5  -3 -13   27.50   10.40
   5   3  13   18.40    5.50
   5   3  13   14.40    6.00
  -6  -3 -13   38.20   12.70
   6   3  13   39.80    9.30
  -7  -3 -13    8.00   11.00
  -7  -3 -13   58.89   15.30
   7   3  13   22.80    9.10
   4  -4 -13   97.89   16.20
  -4   4  13   67.99   16.00
   3  -4 -13  118.39   15.10
   3  -4 -13  115.49   16.20
  -3   4  13  100.79   18.10
   2  -4 -13  145.99   16.50
   2  -4 -13  140.39   15.30
  -2   4  13  173.68   22.10
   1  -4 -13  289.87   22.20
   1  -4 -13  331.77   22.70
   0  -4 -13  175.58   16.60
  -1  -4 -13  256.77   21.10
   1   4  13  272.87   19.30
   1   4  13  292.67   22.20
  -2  -4 -13  507.65   32.20
   2   4  13  466.65   29.30
   2   4  13  455.45   32.20
  -3  -4 -13  388.96   30.30
   3   4  13  421.56   28.60
   3   4  13  450.65   26.50
  -4  -4 -13  370.36   27.80
   4   4  13  347.57   23.30
   4   4  13  331.77   25.40
  -5  -4 -13  399.16   28.70
   5   4  13  318.07   22.30
   5   4  13  284.47   23.40
  -6  -4 -13  175.18   20.90
  -6  -4 -13  109.49   19.10
   6   4  13  142.09   14.20
   6   4  13  115.09   15.70
  -7  -4 -13   98.59   19.60
   7   4  13  111.69   15.80
   3  -5 -13    9.90    9.50
   3  -5 -13    6.70    9.10
  -3   5  13  -21.10   12.30
   2  -5 -13    7.80    7.20
   2  -5 -13    7.10    6.70
  -2   5  13    7.80    8.60
   1  -5 -13    4.00    8.10
  -1   5  13    2.70    9.40
   0  -5 -13   12.40    7.60
   0   5  13   13.90    6.50
  -1  -5 -13    3.20    7.10
   1   5  13   10.20    7.20
  -2  -5 -13   63.89   12.70
  -2  -5 -13   87.49   13.60
   2   5  13   88.19   12.40
   2   5  13   94.49   12.00
  -3  -5 -13   66.19   12.70
  -3  -5 -13  117.89   14.90
   3   5  13   80.19   11.90
   3   5  13   83.99   11.70
  -4  -5 -13   43.90   10.30
   4   5  13   57.09    9.20
   4   5  13   54.89    9.20
  -5  -5 -13   87.39   13.10
   5   5  13  100.09   13.20
   5   5  13   79.59   12.90
  -6  -5 -13  166.48   23.80
  -6  -5 -13  147.19   17.10
   6   5  13  110.99   15.40
   6   5  13  139.29   15.00
  -7  -5 -13  159.18   18.60
   7   5  13  128.89   13.70
   7   5  13   96.89   15.90
   2  -6 -13  132.49   15.40
  -2   6  13  148.59   19.50
   1  -6 -13  178.08   19.80
  -1   6  13  228.58   23.30
   0  -6 -13  172.78   18.70
   0   6  13  200.98   17.80
  -1  -6 -13  234.38   18.70
  -2  -6 -13  331.77   27.00
  -2  -6 -13  363.26   26.30
   2   6  13  385.46   25.20
  -3  -6 -13  196.18   16.20
  -3  -6 -13  144.29   17.40
   3   6  13  168.48   15.90
  -4  -6 -13  180.78   19.60
   4   6  13  201.38   17.90
   4   6  13  178.38   16.90
  -5  -6 -13  160.68   19.50
   5   6  13  174.58   16.90
   5   6  13  173.48   17.00
  -6  -6 -13  106.09   17.30
  -6  -6 -13   62.59   13.60
   6   6  13   60.39   10.40
   6   6  13   69.09   10.90
  -7  -6 -13  121.09   20.40
  -7  -6 -13  153.98   21.40
   7   6  13  109.39   14.00
   7   6  13  140.09   14.90
   1  -7 -13   26.00   10.60
  -1   7  13   28.60   12.30
   0  -7 -13   31.00   10.50
   0   7  13   34.60   10.70
  -1  -7 -13   32.90    9.70
   1   7  13   40.00    8.30
  -2  -7 -13   77.29   13.80
  -2  -7 -13   80.99   14.00
   2   7  13   87.19   14.30
  -3  -7 -13   55.49   11.50
  -3  -7 -13   59.89   11.10
   3   7  13   53.59    9.60
  -4  -7 -13   56.99   12.30
  -4  -7 -13   88.99   15.10
   4   7  13   50.29   10.20
  -5  -7 -13  180.68   21.40
   5   7  13  209.88   18.00
   5   7  13  188.58   17.90
  -6  -7 -13  131.99   19.50
   6   7  13  141.49   13.80
   6   7  13  131.39   15.90
  -1  -8 -13  166.68   19.60
   1   8  13  216.88   20.80
  -2  -8 -13   91.49   15.20
   2   8  13  122.69   15.70
  -3  -8 -13  122.59   15.90
  -3  -8 -13  100.69   16.80
   3   8  13  124.79   15.30
  -4  -8 -13  241.08   20.90
  -4  -8 -13  177.68   21.60
   4   8  13  176.68   18.40
  -5  -8 -13   97.59   18.10
   5   8  13   88.79   12.20
   3   7 -14    6.40   16.20
  -3  -7  14  -22.00   10.60
   2   7 -14   -0.40   16.10
   1   7 -14  -26.90   14.10
  -1  -7  14  -23.60   13.30
   0  -7  14  -26.40   12.60
   4   6 -14   39.60   16.40
   3   6 -14   36.60   16.20
  -3  -6  14  -11.40   11.30
   2   6 -14   54.79   17.20
   1   6 -14   68.19   15.40
  -1  -6  14   28.00   16.80
   0   6 -14    7.20   15.10
   0   6 -14    2.10   10.40
   0  -6  14   14.10   14.70
  -1   6 -14  -12.20   14.10
  -1   6 -14   -0.20   11.50
   1  -6  14   -7.50   12.20
   1  -6  14   34.70   15.70
  -2   6 -14   12.50   13.10
   2  -6  14    1.90   15.10
   5   5 -14   43.50   15.60
   4   5 -14   19.30   14.60
   3   5 -14    6.00   13.10
   2   5 -14   23.80   14.40
  -2  -5  14   -1.60   10.90
   1   5 -14  -23.60   12.10
  -1  -5  14  -12.20    8.90
   0   5 -14  -24.00   11.90
   0  -5  14  -11.00    8.90
   1  -5  14  -11.90   12.00
   2  -5  14   -4.30   12.10
   3  -5  14   13.50   12.50
  -5  -4  14    1.60   11.00
  -5  -4  14  -20.40   14.20
   4   4 -14   43.90   14.40
  -4  -4  14   -8.80    9.10
  -2  -4  14   78.49   16.50
   1   4 -14  112.69   18.00
  -1  -4  14   74.99   17.80
   0   4 -14   74.09   15.70
   0   4 -14   31.30   12.50
   0  -4  14   60.19   15.80
  -1   4 -14   88.09   16.90
  -1   4 -14   60.69   14.70
   1  -4  14   72.19   15.50
  -2   4 -14   42.60   16.70
  -2   4 -14   44.50   14.60
   2  -4  14   88.49   17.00
   3  -4  14   73.29   18.60
   4  -4  14   76.29   17.30
   5   3 -14   27.70   11.90
  -5  -3  14  -11.10    7.80
   4   3 -14   29.10   12.50
  -4  -3  14  -11.60    9.50
   3   3 -14   20.80    9.40
  -3  -3  14   -8.90    8.50
   2   3 -14   24.70    9.50
   2   3 -14   17.00   11.30
   1   3 -14    1.30    9.90
   1   3 -14   -6.80    8.90
   0   3 -14   -5.00    9.80
   0   3 -14    1.40   10.30
   0  -3  14  -15.80   10.70
  -1   3 -14  -10.10    9.70
   1  -3  14   -3.50   10.80
   1  -3  14   -5.30    8.20
  -2   3 -14  -15.60    8.80
   2  -3  14    6.00   10.70
   2  -3  14    0.90    9.30
   3  -3  14    6.10   10.40
   3  -3  14   -2.70   11.60
  -4   3 -14  -18.80   12.20
   4  -3  14    3.70   13.10
   4  -3  14    8.90    7.90
  -5   3 -14   18.70   13.00
   5  -3  14   37.70   14.00
   5  -3  14   33.40   11.60
  -5  -2  14   15.10   15.70
  -5  -2  14   49.40   14.80
  -4  -2  14   17.10   11.50
  -3  -2  14   57.19   15.10
  -3  -2  14   86.29   13.70
   2   2 -14  321.77   23.80
   2   2 -14  277.77   25.60
   1   2 -14  207.28   17.80
   1   2 -14  213.08   20.70
  -1  -2  14  149.29   16.80
   0   2 -14  372.46   27.50
   0   2 -14  322.87   26.70
   0  -2  14  252.37   26.80
  -1   2 -14  321.17   28.10
  -1   2 -14  386.56   30.30
   1  -2  14  353.86   28.90
   1  -2  14  331.27   28.20
  -2   2 -14  121.49   20.00
  -2   2 -14  164.18   19.80
   2  -2  14  199.28   20.60
   2  -2  14  182.28   19.10
  -3   2 -14  145.89   21.20
   3  -2  14  151.58   20.40
   3  -2  14  192.08   22.20
  -4   2 -14  242.18   27.70
   4  -2  14  317.07   29.00
   4  -2  14  220.98   22.00
  -5   2 -14   80.59   16.40
   5  -2  14  123.79   19.40
   5  -2  14  109.19   18.40
   5   1 -14    4.30    7.60
   4   1 -14   11.40    9.40
  -4  -1  14  -19.60   10.70
   3   1 -14    9.40    6.90
   3   1 -14   17.60    7.50
  -3  -1  14    2.90    7.50
   2   1 -14   12.30    8.60
   2   1 -14    7.60    7.40
  -2  -1  14  -10.80    7.90
   1   1 -14    8.50    8.10
   1   1 -14    2.40    8.70
  -1  -1  14   -9.00    6.30
   0   1 -14   -1.90    7.40
   0   1 -14    1.20    6.50
   0  -1  14   -3.60    5.60
   0  -1  14  -12.70    9.10
  -1   1 -14   15.40    9.10
  -1   1 -14   29.70   11.40
   1  -1  14   12.60   10.30
  -2   1 -14    5.50    8.20
  -2   1 -14   -7.10   10.30
   2  -1  14    5.20    9.40
  -3   1 -14   29.20   11.10
  -3   1 -14   17.30   10.60
   3  -1  14   25.70    8.40
  -4   1 -14    8.30   10.80
  -4   1 -14   45.20   13.30
   4  -1  14   36.20    8.80
  -5   1 -14   55.69   15.70
   5  -1  14   47.10   11.20
  -6   1 -14   15.60   15.70
   6  -1  14   21.00    9.80
  -5   0  14   33.80   15.30
   4   0 -14   40.50    8.40
   4   0 -14   39.00   10.60
  -4   0  14   10.40   12.70
   3   0 -14  157.28   17.50
   3   0 -14  176.48   15.80
  -3   0  14  152.28   18.30
   2   0 -14  201.68   18.80
   2   0 -14  222.98   18.10
  -2   0  14  171.08   20.80
   1   0 -14  285.47   21.90
   1   0 -14  257.27   21.60
  -1   0  14  266.17   22.10
   0   0 -14  397.86   28.60
   0   0 -14  437.66   28.80
   0   0  14  328.07   31.60
   0   0  14  381.26   25.80
  -1   0 -14  386.46   27.50
   1   0  14  323.77   22.00
   1   0  14  308.57   28.20
  -2   0 -14  217.38   19.80
  -2   0 -14  243.38   23.40
   2   0  14  186.48   21.30
  -3   0 -14  303.07   24.60
  -3   0 -14  250.87   26.60
   3   0  14  241.08   23.60
  -4   0 -14  225.28   24.50
   4   0  14  271.57   23.50
  -5   0 -14   65.59   18.50
   5   0  14  109.69   13.70
   6   0  14   66.19   12.00
   4  -1 -14    7.40    8.60
   4  -1 -14    7.50    6.80
  -4   1  14  -11.60    8.80
   3  -1 -14    7.40    8.00
   3  -1 -14    4.40    6.70
  -3   1  14  -21.00    9.90
   2  -1 -14    1.70    7.00
   2  -1 -14    5.50    7.00
  -2   1  14   -7.00    9.10
   1  -1 -14   13.40    7.80
   1  -1 -14    7.70    6.50
  -1   1  14  -15.00    8.70
  -1   1  14    0.50    7.80
   0  -1 -14   17.70    6.60
   0  -1 -14   22.20    8.50
   0   1  14   16.20    7.30
   0   1  14   13.50    7.50
  -1  -1 -14  141.29   16.60
   1   1  14  115.49   13.00
   1   1  14  122.29   17.30
  -2  -1 -14    5.20    6.70
  -2  -1 -14   11.10    9.70
   2   1  14    6.30    5.40
   2   1  14    4.70    8.00
  -3  -1 -14   77.29   14.50
  -3  -1 -14   97.49   14.40
   3   1  14   48.20   10.80
  -4  -1 -14  192.18   20.30
   4   1  14  135.99   15.50
  -5  -1 -14   53.39   16.80
   5   1  14   63.09   11.30
  -6  -1 -14    9.90   11.90
   6   1  14   30.00    9.50
   4  -2 -14   51.29    9.70
   4  -2 -14   44.70    9.70
  -4   2  14   46.90   13.10
   3  -2 -14  126.39   13.20
   3  -2 -14  136.79   15.70
  -3   2  14  162.78   19.50
   2  -2 -14  137.09   15.10
   2  -2 -14  137.19   15.40
  -2   2  14  160.88   17.50
   1  -2 -14  226.88   18.10
   1  -2 -14  229.78   17.60
  -1   2  14  187.48   24.30
   0  -2 -14  364.66   25.60
   0   2  14  367.86   25.00
   0   2  14  307.97   28.20
  -1  -2 -14  336.67   24.00
   1   2  14  266.17   24.60
   1   2  14  292.87   21.20
  -2  -2 -14  425.26   28.10
  -2  -2 -14  369.76   26.30
   2   2  14  327.87   22.80
   2   2  14  316.47   27.20
  -3  -2 -14  445.46   29.20
  -3  -2 -14  439.26   29.60
   3   2  14  343.67   23.60
   3   2  14  338.97   28.60
   4   2  14  168.08   13.10
   4   2  14  150.48   15.50
  -5  -2 -14  128.19   19.10
   5   2  14  114.59   13.80
  -6  -2 -14   58.79   18.40
   6   2  14   98.49   15.40
  -7  -2 -14   17.00   12.90
   7   2  14   42.10    9.10
   3  -3 -14   19.30    7.00
   3  -3 -14   17.40    8.50
  -3   3  14    6.60    9.70
   2  -3 -14   21.20    7.70
   2  -3 -14   20.50    8.30
  -2   3  14   21.60    9.50
   1  -3 -14   30.80    8.70
  -1   3  14   37.70   10.40
   0  -3 -14   37.20    7.80
   0   3  14   39.20    9.30
   0   3  14   32.90   10.50
  -1  -3 -14  121.39   13.00
   1   3  14  116.89   15.50
   1   3  14  117.79   14.10
  -2  -3 -14  106.09   14.00
  -2  -3 -14  118.09   13.30
   2   3  14  103.49   10.80
   2   3  14  103.79   14.60
  -3  -3 -14  278.47   21.40
   3   3  14  209.78   20.50
   3   3  14  226.48   16.40
  -4  -3 -14  298.97   23.30
   4   3  14  233.08   17.30
   4   3  14  219.88   19.70
  -5  -3 -14  146.49   22.50
   5   3  14  111.89   12.80
   5   3  14  105.79   13.20
  -6  -3 -14   92.09   16.60
   6   3  14   81.89   14.90
  -7  -3 -14  129.09   23.20
   7   3  14  188.68   19.60
   3  -4 -14   55.49   11.50
   3  -4 -14   58.59   11.20
  -3   4  14   45.20   15.30
   2  -4 -14  134.59   15.00
   2  -4 -14  117.99   13.90
  -2   4  14  135.69   21.40
   1  -4 -14  195.38   19.50
  -1   4  14  266.37   20.70
   0  -4 -14  179.48   15.90
  -1  -4 -14  146.89   16.70
   1   4  14  171.38   16.50
  -2  -4 -14  191.68   18.00
  -2  -4 -14  133.69   15.40
   2   4  14  173.28   17.10
   2   4  14  171.78   15.60
  -3  -4 -14  194.78   18.50
   3   4  14  200.38   16.10
   3   4  14  182.18   17.70
  -4  -4 -14  116.79   15.90
   4   4  14   99.79   14.20
   4   4  14  110.29   12.40
  -5  -4 -14  140.19   17.50
  -5  -4 -14  121.49   17.60
   5   4  14   93.49   13.10
   5   4  14   85.09   12.20
  -6  -4 -14   55.69   16.00
  -6  -4 -14   63.89   13.90
   6   4  14   41.90   10.00
   6   4  14   37.70    8.20
   2  -5 -14   14.90    9.40
  -2   5  14   15.40   11.80
   1  -5 -14   57.89   11.30
  -1   5  14   54.69   12.30
   0  -5 -14  108.19   15.30
   0   5  14  136.49   17.40
  -1  -5 -14   79.99   11.70
   1   5  14   99.29   12.10
  -2  -5 -14  179.38   18.20
   2   5  14  173.88   15.00
  -3  -5 -14  159.18   17.80
   3   5  14  205.18   15.30
   3   5  14  190.88   17.60
  -4  -5 -14  159.58   16.70
   4   5  14  166.98   17.10
   4   5  14  190.98   15.80
  -5  -5 -14  185.88   20.30
   5   5  14  151.28   17.10
   5   5  14  161.18   16.40
  -6  -5 -14  205.28   25.30
  -6  -5 -14  192.08   22.10
   6   5  14  148.39   16.50
   6   5  14  135.79   17.30
   1  -6 -14   96.79   16.40
  -1   6  14   95.09   15.10
   0  -6 -14   50.59    9.50
  -1  -6 -14  102.59   15.30
   1   6  14  113.29   13.40
  -2  -6 -14  122.09   13.80
   2   6  14  119.99   13.00
  -3  -6 -14   77.79   13.70
  -3  -6 -14   93.29   12.80
   3   6  14   83.69   10.90
  -4  -6 -14   62.59   11.90
   4   6  14   78.09   12.50
   4   6  14   57.09    9.90
  -5  -6 -14   36.10   10.90
  -5  -6 -14   64.39   11.40
   5   6  14   33.20    9.30
   5   6  14   29.90    8.50
  -6  -6 -14   39.00   10.40
  -6  -6 -14   55.49   14.60
   6   6  14   19.80    8.80
   6   6  14   28.20    9.20
  -1  -7 -14   98.39   15.60
   1   7  14  104.29   13.60
  -2  -7 -14  131.89   17.00
   2   7  14  137.49   14.30
  -3  -7 -14  175.78   20.10
  -3  -7 -14  237.98   20.70
   3   7  14  201.28   18.50
  -4  -7 -14  248.28   23.70
   4   7  14  248.28   20.50
  -5  -7 -14  184.38   19.60
   5   7  14  215.88   18.70
   5   7  14  205.88   19.90
   2   6 -15   51.49   17.50
  -2  -6  15    2.30   16.70
   1   6 -15   67.09   18.40
  -1  -6  15   32.70   17.50
   0   6 -15   36.20   13.80
   0  -6  15    9.20   15.20
  -1   6 -15  -24.10   11.00
   3   5 -15    8.60   13.80
   2   5 -15   -6.40   13.20
   1   5 -15  -13.20   12.60
   0   5 -15  -19.00   12.60
   0  -5  15  -17.80   12.90
  -1   5 -15  -24.30   12.20
   1  -5  15   -3.10   13.10
   2  -5  15  -12.70   12.70
   2  -5  15    4.20   12.80
   1   4 -15  135.79   18.00
   1   4 -15  117.59   19.30
   0   4 -15   38.90   15.10
   0   4 -15   35.30   13.30
   0  -4  15   29.20   15.20
  -1   4 -15   47.90   15.00
  -1   4 -15   35.40   14.10
   1  -4  15   83.09   16.90
  -2   4 -15   44.30   13.50
   2  -4  15   75.29   16.60
   3  -4  15   67.99   15.40
   3  -4  15   33.30   16.10
   4   3 -15   12.40   11.90
   3   3 -15    5.20    8.70
   2   3 -15    3.50   11.00
   1   3 -15   32.60   11.50
   1   3 -15   28.20   11.80
  -1  -3  15    0.30   13.00
   0   3 -15   24.00   11.90
   0   3 -15   16.80   11.40
   0  -3  15   20.60   11.00
  -1   3 -15    2.80   12.10
  -1   3 -15   -1.00   12.10
   1  -3  15   12.10   12.50
  -2   3 -15    2.90   13.30
   2  -3  15   55.39   14.10
   2  -3  15   37.20   12.80
  -3   3 -15   13.90   12.40
   3  -3  15   46.50   14.60
  -4   3 -15   12.10   14.40
   4  -3  15   29.50    9.80
   4  -3  15   42.80   16.80
  -4  -2  15   32.60   10.60
  -4  -2  15   -6.10   15.80
  -3  -2  15   -7.20   14.20
  -3  -2  15   32.10   11.20
   2   2 -15  228.98   20.40
   2   2 -15  194.08   21.90
   1   2 -15  173.68   20.40
   1   2 -15  194.88   20.40
   0   2 -15  107.09   17.00
   0   2 -15  120.39   18.60
   0  -2  15   67.29   14.20
  -1   2 -15  118.59   20.50
   1  -2  15  107.49   17.30
  -2   2 -15  132.09   21.00
  -2   2 -15  152.68   19.70
   2  -2  15  192.08   20.90
   2  -2  15  175.38   22.40
  -3   2 -15   20.70   12.40
  -3   2 -15   47.00   13.20
   3  -2  15   46.30   10.60
  -4   2 -15   81.99   17.30
   4  -2  15  112.69   18.80
   4  -2  15  142.69   22.80
  -5   2 -15   60.09   17.70
   5  -2  15   67.59   13.30
   4   1 -15    7.30    9.90
   3   1 -15   14.20    8.40
   3   1 -15    9.20    9.40
  -3  -1  15  -19.90    9.30
   2   1 -15   22.90    9.70
   2   1 -15   31.60    8.90
  -2  -1  15    2.70    9.00
  -1  -1  15   45.80   14.20
  -1  -1  15   51.19   10.10
   0   1 -15   51.99   11.90
   0   1 -15   41.90   10.30
   0  -1  15   13.40   11.40
  -1   1 -15   59.39   13.90
   1  -1  15   47.20   13.00
  -2   1 -15  140.39   17.60
  -2   1 -15  116.89   17.80
   2  -1  15  178.18   18.40
   2  -1  15  126.19   17.10
  -3   1 -15  112.79   17.60
  -3   1 -15   78.49   15.60
   3  -1  15   80.99   14.30
  -4   1 -15  154.98   21.80
   4  -1  15  147.79   20.00
  -5   1 -15  168.08   24.90
   5  -1  15  132.19   16.70
   4   0 -15   40.10   11.00
  -4   0  15   23.40   11.00
   3   0 -15  120.89   14.20
   3   0 -15   93.09   15.40
  -3   0  15   73.99   15.10
   2   0 -15  196.98   17.80
   2   0 -15  157.58   17.60
  -2   0  15  169.28   17.90
   1   0 -15  119.39   15.20
   1   0 -15  120.89   13.50
  -1   0  15  114.59   16.60
   0   0 -15  193.88   19.10
   0   0  15  160.38   16.40
   0   0  15  132.19   21.70
  -1   0 -15  136.79   15.60
   1   0  15  116.79   14.10
   1   0  15  120.69   19.50
  -2   0 -15  222.58   20.90
   2   0  15  203.48   22.40
  -3   0 -15   85.09   15.90
  -3   0 -15   73.09   13.70
   3   0  15   49.60   11.70
  -4   0 -15   63.29   14.80
  -4   0 -15   98.69   17.90
   4   0  15   50.39   10.40
  -5   0 -15   41.30   14.20
  -5   0 -15  -20.40   13.80
   5   0  15   28.30   10.20
   4  -1 -15    9.80    7.50
  -4   1  15  -18.50   12.30
   3  -1 -15   20.70    7.90
   3  -1 -15   17.30    9.00
  -3   1  15    9.50    9.20
   2  -1 -15   92.69   13.70
   2  -1 -15   84.19   13.60
  -2   1  15   57.49   13.00
   1  -1 -15  145.19   15.10
   1  -1 -15  126.79   13.90
  -1   1  15  147.29   18.20
   0  -1 -15  108.49   15.50
   0   1  15   56.69   13.30
   0   1  15   88.49   14.00
  -1  -1 -15  172.88   18.40
   1   1  15  127.89   18.90
   1   1  15  137.69   14.50
  -2  -1 -15  283.87   22.50
   2   1  15  254.27   18.40
   2   1  15  249.48   24.10
  -3  -1 -15  241.48   22.30
  -3  -1 -15  267.27   22.20
   3   1  15  200.48   20.10
  -4  -1 -15  176.38   24.80
   4   1  15  167.68   19.60
  -5  -1 -15  165.08   26.20
   5   1  15  151.38   16.70
  -6  -1 -15  149.49   24.20
   3  -2 -15   39.30    9.70
   3  -2 -15   31.30    9.10
  -3   2  15   29.10   13.60
   2  -2 -15   87.39   13.60
   2  -2 -15  101.99   14.50
  -2   2  15   77.29   14.30
   1  -2 -15   59.09   10.70
  -1   2  15   56.39   11.20
   0  -2 -15  176.18   17.70
   0   2  15  183.68   17.50
   0   2  15  128.89   19.80
  -1  -2 -15  113.59   16.30
   1   2  15   93.19   11.10
   1   2  15   88.69   16.40
  -2  -2 -15   45.90   11.40
   2   2  15   34.50    9.70
   2   2  15   38.30    7.10
  -3  -2 -15   37.90    9.50
  -3  -2 -15   41.80   12.40
   3   2  15   28.30    6.20
   3   2  15   19.10    8.70
  -4  -2 -15   61.79   14.90
  -4  -2 -15   49.80   11.60
   4   2  15   29.50    9.80
  -5  -2 -15    6.00   10.20
  -5  -2 -15   16.50   11.00
   5   2  15    3.50    8.10
  -6  -2 -15   39.00   13.90
  -6  -2 -15  -20.90   13.50
   6   2  15    7.40    9.20
   2  -3 -15  107.19   15.30
  -2   3  15   96.49   15.90
   1  -3 -15  139.19   16.70
  -1   3  15  162.48   19.70
   0  -3 -15  115.89   15.90
   0   3  15  113.59   16.10
  -1  -3 -15  164.48   15.70
   1   3  15  160.88   16.30
   1   3  15  152.68   18.50
  -2  -3 -15  141.19   15.10
   2   3  15  139.49   14.30
   2   3  15  128.39   16.80
  -3  -3 -15  278.27   21.40
  -3  -3 -15  259.57   21.50
   3   3  15  206.48   21.30
   3   3  15  214.18   17.60
  -4  -3 -15  376.46   27.00
   4   3  15  256.67   24.50
   4   3  15  290.57   20.50
  -5  -3 -15  257.77   25.00
  -5  -3 -15  234.98   27.60
  -6  -3 -15   96.39   19.20
   6   3  15   87.69   16.10
   2  -4 -15   33.30    9.80
  -2   4  15   40.90   10.90
   1  -4 -15   32.90    9.80
  -1   4  15   46.80   10.10
   0  -4 -15   83.69   15.10
   0   4  15  100.39   13.30
  -1  -4 -15   65.89   11.20
   1   4  15   46.80    8.20
  -2  -4 -15   29.10    9.80
   2   4  15   17.00    5.80
   2   4  15   20.10    8.20
  -3  -4 -15   38.00    9.40
  -3  -4 -15   49.60   11.30
   3   4  15   32.00    7.30
   3   4  15   25.30    8.30
  -4  -4 -15   12.20    9.10
  -4  -4 -15   14.30    8.40
   4   4  15    6.30    7.50
   4   4  15   12.80    6.20
  -5  -4 -15    2.60    9.90
  -5  -4 -15   -3.00   11.60
   5   4  15    2.70    5.40
   5   4  15    1.20    5.80
  -6  -4 -15   23.20   11.50
  -6  -4 -15   28.90   12.20
   6   4  15    4.20    8.70
   1  -5 -15   46.40    9.40
  -1   5  15   64.79   13.10
   0  -5 -15  106.89   13.40
  -1  -5 -15  224.58   20.80
   1   5  15  223.98   20.30
  -2  -5 -15  167.58   16.50
   2   5  15  177.08   17.30
  -3  -5 -15  182.48   19.00
   3   5  15  194.78   18.90
   3   5  15  208.78   17.60
  -4  -5 -15  395.46   26.60
  -4  -5 -15  334.67   27.40
   4   5  15  307.37   22.80
   4   5  15  289.57   25.40
  -5  -5 -15  210.08   21.60
   5   5  15  166.98   18.90
   5   5  15  175.78   16.50
  -1  -6 -15   12.70    7.20
   1   6  15   19.90    8.80
  -2  -6 -15   22.60    9.70
   2   6  15   13.80    8.00
  -3  -6 -15   13.30    9.50
   3   6  15    7.30    7.20
  -4  -6 -15   28.40   10.70
  -4  -6 -15    7.40    8.60
   4   6  15    9.30    7.50
   4   6  15   13.70    5.80
   1   5 -16  -12.60   12.90
   0   5 -16    1.30   14.90
   0   5 -16  -13.90   11.10
   0  -5  16    1.20   14.30
   2   4 -16   32.30   14.00
  -2  -4  16   -6.40   15.70
   1   4 -16   59.39   14.90
  -1  -4  16   14.00   15.50
   0   4 -16   25.20   12.60
   0   4 -16   23.30   13.20
   0  -4  16   19.60   11.80
  -1   4 -16   -7.00    9.00
   1  -4  16   10.00   14.00
  -2   4 -16    7.30   11.20
   2  -4  16   54.29   15.50
   3   3 -16   27.80   12.50
   2   3 -16   23.40   12.60
  -2  -3  16  -25.10   13.30
   1   3 -16   49.40   14.30
   1   3 -16   47.80   12.70
  -1  -3  16   14.10   14.70
   0   3 -16   61.89   15.00
   0   3 -16   76.59   15.50
   0  -3  16   47.10   15.80
  -1   3 -16   25.50   14.20
   1  -3  16   18.90   10.90
   2  -3  16  122.19   22.50
   3  -3  16   88.39   17.70
   3   2 -16   39.20   12.70
  -3  -2  16    4.60   10.60
   2   2 -16   57.79   12.50
  -2  -2  16    1.30   14.60
   1   2 -16   71.49   13.80
   1   2 -16  106.69   17.90
   0   2 -16   46.00   12.90
   0  -2  16   15.80   13.10
  -1   2 -16   35.40   13.90
   1  -2  16   32.80   11.10
  -2   2 -16   43.50   15.50
   2  -2  16   39.60   13.30
  -3   2 -16  -14.90   13.80
  -3   2 -16   14.80   11.60
   3  -2  16   38.50   13.40
   3  -2  16   25.30   11.40
  -3  -1  16  -28.00   13.30
  -3  -1  16    7.80   11.00
   2   1 -16   57.19   12.20
  -2  -1  16   41.10   11.00
   1   1 -16  177.68   19.20
   1   1 -16  178.68   19.10
  -1  -1  16  121.89   18.10
   0  -1  16  126.49   18.80
  -1   1 -16   54.99   11.70
   1  -1  16   37.50   10.80
  -2   1 -16  257.67   27.30
   2  -1  16  237.58   25.50
  -3   1 -16  193.88   22.10
  -3   1 -16  159.88   26.50
   3  -1  16  203.98   23.60
   3  -1  16  229.38   23.50
  -4   1 -16   44.70   14.50
  -4   1 -16   71.39   14.70
   4  -1  16   58.69   11.40
   3   0 -16   30.10    9.00
   3   0 -16   17.90    9.80
  -3   0  16   -7.20   10.90
   2   0 -16   46.20   11.10
   2   0 -16   81.59   14.10
  -2   0  16   37.50   11.70
   1   0 -16   40.10   10.30
  -1   0  16   20.30    9.40
  -1   0  16    6.90   11.90
   0   0 -16   40.60   11.30
   0   0  16   16.10    7.70
   0   0  16   10.30   11.10
  -1   0 -16   42.70   10.30
   1   0  16   35.40   10.20
  -2   0 -16   30.20   12.90
   2   0  16   23.80    8.90
  -3   0 -16    1.20   13.00
  -3   0 -16   13.50    9.30
   3   0  16   11.90   10.10
  -4   0 -16   13.90   10.60
  -4   0 -16  -13.40   13.50
   4   0  16    6.80    9.80
   2  -1 -16  126.79   16.10
   2  -1 -16  115.69   17.00
  -2   1  16   94.89   16.00
   1  -1 -16  180.28   18.70
  -1   1  16  156.88   19.60
   0  -1 -16  183.48   18.90
   0   1  16  126.59   21.00
   0   1  16  144.19   16.90
  -1  -1 -16  138.09   15.70
   1   1  16  118.49   14.30
   1   1  16  137.39   19.90
  -2  -1 -16  262.77   22.50
   2   1  16  249.38   24.60
  -3  -1 -16  204.68   24.20
   3   1  16  175.98   21.30
  -4  -1 -16  181.08   25.40
  -4  -1 -16  204.68   21.60
   4   1  16  157.98   20.80
  -5  -1 -16  135.79   21.80
   5   1  16  131.89   19.20
   2  -2 -16   33.20    9.40
  -2   2  16    8.80   11.20
   1  -2 -16    7.80    6.80
  -1   2  16    1.80    7.00
   0  -2 -16   32.50    9.80
   0   2  16   15.50    8.40
   0   2  16    7.90    9.80
  -1  -2 -16   49.30   11.60
   1   2  16   40.00   11.20
   1   2  16   40.30    8.60
  -2  -2 -16   16.90   10.70
   2   2  16   10.90    9.20
   2   2  16    9.50    6.20
  -3  -2 -16    9.50   11.10
   3   2  16    5.40    8.80
  -4  -2 -16    3.50   12.10
  -4  -2 -16    5.70    9.20
   4   2  16    1.00    8.60
  -5  -2 -16   -9.10   13.30
  -5  -2 -16    8.80   11.20
   5   2  16    0.50    9.00
   1  -3 -16  117.89   14.20
  -1   3  16  139.09   19.40
   0  -3 -16  124.99   14.60
   0   3  16  138.19   14.90
  -1  -3 -16  312.97   24.70
   1   3  16  260.77   24.90
   1   3  16  285.97   22.10
  -2  -3 -16  323.57   23.80
   2   3  16  288.57   21.60
   2   3  16  276.27   25.20
  -3  -3 -16  241.18   20.50
   3   3  16  195.98   17.00
   3   3  16  200.88   21.10
  -4  -3 -16  238.78   22.00
  -4  -3 -16  237.68   22.30
   4   3  16  182.88   21.30
  -5  -3 -16  191.28   21.60
  -5  -3 -16  151.78   20.40
   5   3  16  129.59   18.80
   0  -4 -16    9.70    7.00
   0   4  16   11.00    8.90
  -1  -4 -16   13.80    9.70
  -2  -4 -16   20.10    7.90
   2   4  16   14.00    8.40
   2   4  16   20.00    7.70
  -3  -4 -16   13.40   10.30
   3   4  16    4.00    7.80
   3   4  16    3.40    4.90
  -4  -4 -16   23.40   11.40
  -4  -4 -16   17.50    9.50
   4   4  16   13.40    8.50
   4   4  16   20.40    6.90
  -1  -5 -16  215.88   21.20
   1   5  16  211.48   20.30
  -2  -5 -16  179.98   19.60
   2   5  16  163.18   17.20
  -3  -5 -16  204.58   18.90
   3   5  16  186.28   18.00
   1   3 -17   45.20   12.70
   0  -3  17   61.59   17.20
  -1   3 -17   66.49   16.50
   1   2 -17   20.90   11.50
  -1  -2  17   -2.10    9.60
   0   2 -17   16.70   12.30
   0  -2  17   -1.50   12.40
  -1   2 -17    0.10   12.70
   1  -2  17   -1.50    9.00
  -2   2 -17   -1.90   10.00
   2  -2  17    3.20   12.00
   1   1 -17  126.49   17.60
  -1  -1  17   39.70   15.70
   0  -1  17   66.99   13.80
   1  -1  17   61.29   12.70
  -2   1 -17  131.29   19.20
   2  -1  17  146.99   22.50
  -3   1 -17  183.58   26.80
   3  -1  17  177.68   23.10
  -1   0  17   -0.80    8.80
  -1   0  17   -9.90   11.00
   0   0 -17   18.70   11.00
   0   0  17    0.70   11.30
  -1   0 -17   10.20   11.30
   1   0  17    0.70   10.60
  -2   0 -17   11.10   12.70
   2   0  17   16.00   11.10
  -3   0 -17   19.30   10.90
   3   0  17   12.10    8.60
  -1   1  17   81.69   13.10
  -1   1  17   52.29   14.90
   0   1  17  130.89   16.00
   0   1  17   88.29   16.30
  -1  -1 -17  130.09   16.00
   1   1  17  118.49   20.30
  -2  -1 -17  257.97   25.10
   2   1  17  215.88   24.40
  -3  -1 -17  182.48   23.80
   3   1  17  148.09   20.60
   0   2  17    7.70    8.60
  -1  -2 -17   41.20   11.60
   1   2  17   25.30    8.10
   1   2  17   30.20   11.10
  -2  -2 -17   61.19   13.10
   2   2  17   43.30   11.40
  -3  -2 -17   50.39   11.60
   3   2  17   41.80   11.40
  -1  -3 -17  104.69   17.70
   1   3  17   92.69   15.40
  -2  -3 -17  152.78   16.80
   2   3  17  139.59   19.10
   2   3  17  141.19   15.60
  -3  -3 -17  208.38   22.20
   3   3  17  160.88   20.30
   3   3  17  158.28   15.80
   0   0   0    0.00    0.00

_computing_structure_solution     'SHELXT 2018/2 (Sheldrick, 2018)'
;
_shelx_hkl_checksum              32553
_shelx_fab_file
;
    1    0    0    -23.42      0.00
    2    0    0      0.63      0.00
    3    0    0     -0.07      0.00
    4    0    0      3.78      0.00
    5    0    0     -3.10      0.00
    6    0    0      0.27      0.00
    7    0    0      0.30      0.00
    8    0    0      0.42      0.00
    9    0    0     -0.38      0.00
   -9    1    0     -0.42      0.00
   -8    1    0      0.54      0.00
   -7    1    0      0.08      0.00
   -6    1    0      0.07      0.00
   -5    1    0     -2.50      0.00
   -4    1    0      3.54      0.00
   -3    1    0     -0.23      0.00
   -2    1    0      0.22      0.00
   -1    1    0    -17.47      0.00
    0    1    0     38.29      0.00
    1    1    0    -22.58      0.00
    2    1    0     -0.45      0.00
    3    1    0      0.60      0.00
    4    1    0      3.90      0.00
    5    1    0     -3.17      0.00
    6    1    0      0.29      0.00
    7    1    0      0.54      0.00
    8    1    0      0.21      0.00
    9    1    0     -0.39      0.00
   -8    2    0      0.51      0.00
   -7    2    0     -0.04      0.00
   -6    2    0     -0.03      0.00
   -5    2    0     -1.65      0.00
   -4    2    0      3.14      0.00
   -3    2    0     -0.73      0.00
   -2    2    0      0.27      0.00
   -1    2    0    -10.87      0.00
    0    2    0     25.79      0.00
    1    2    0    -15.74      0.00
    2    2    0     -3.04      0.00
    3    2    0      2.50      0.00
    4    2    0      3.15      0.00
    5    2    0     -2.70      0.00
    6    2    0     -0.09      0.00
    7    2    0      0.75      0.00
    8    2    0      0.02      0.00
    9    2    0     -0.54      0.00
   10    2    0     -0.27      0.00
   -8    3    0      0.37      0.00
   -7    3    0     -0.01      0.00
   -6    3    0     -0.08      0.00
   -5    3    0     -0.97      0.00
   -4    3    0      2.28      0.00
   -3    3    0     -0.93      0.00
   -2    3    0      0.50      0.00
   -1    3    0     -6.99      0.00
    0    3    0     15.89      0.00
    1    3    0     -9.26      0.00
    2    3    0     -4.39      0.00
    3    3    0      4.20      0.00
    4    3    0      1.55      0.00
    5    3    0     -2.00      0.00
    6    3    0     -0.52      0.00
    7    3    0      0.96      0.00
    8    3    0     -0.08      0.00
    9    3    0     -0.65      0.00
   10    3    0      0.04      0.00
   -8    4    0      0.24      0.00
   -7    4    0      0.01      0.00
   -6    4    0     -0.27      0.00
   -5    4    0     -0.54      0.00
   -4    4    0      1.45      0.00
   -3    4    0     -0.59      0.00
   -2    4    0     -0.10      0.00
   -1    4    0     -3.96      0.00
    0    4    0      9.83      0.00
    1    4    0     -5.75      0.00
    2    4    0     -3.71      0.00
    3    4    0      4.50      0.00
    4    4    0      0.02      0.00
    5    4    0     -1.44      0.00
    6    4    0     -0.44      0.00
    7    4    0      1.08      0.00
    8    4    0     -0.20      0.00
    9    4    0     -0.55      0.00
   10    4    0      0.27      0.00
   -7    5    0     -0.16      0.00
   -6    5    0     -0.37      0.00
   -5    5    0     -0.04      0.00
   -4    5    0      0.96      0.00
   -3    5    0     -0.41      0.00
   -2    5    0     -0.66      0.00
   -1    5    0     -1.09      0.00
    0    5    0      5.28      0.00
    1    5    0     -3.67      0.00
    2    5    0     -2.60      0.00
    3    5    0      4.10      0.00
    4    5    0     -0.95      0.00
    5    5    0     -0.97      0.00
    6    5    0     -0.01      0.00
    7    5    0      1.03      0.00
    8    5    0     -0.46      0.00
    9    5    0     -0.35      0.00
   10    5    0      0.30      0.00
   -6    6    0     -0.14      0.00
   -5    6    0      0.48      0.00
   -4    6    0      0.42      0.00
   -3    6    0     -0.42      0.00
   -2    6    0     -0.56      0.00
   -1    6    0      0.42      0.00
    0    6    0      2.07      0.00
    1    6    0     -2.15      0.00
    2    6    0     -1.66      0.00
    3    6    0      3.58      0.00
    4    6    0     -1.46      0.00
    5    6    0     -0.42      0.00
    6    6    0      0.09      0.00
    7    6    0      0.91      0.00
    8    6    0     -0.76      0.00
    9    6    0     -0.19      0.00
   10    6    0      0.30      0.00
   -6    7    0      0.13      0.00
   -5    7    0      0.64      0.00
   -4    7    0     -0.17      0.00
   -3    7    0     -0.31      0.00
   -2    7    0     -0.40      0.00
   -1    7    0      0.81      0.00
    0    7    0      0.47      0.00
    1    7    0     -1.18      0.00
    2    7    0     -0.79      0.00
    3    7    0      2.83      0.00
    4    7    0     -1.63      0.00
    5    7    0     -0.08      0.00
    6    7    0     -0.09      0.00
    7    7    0      0.72      0.00
    8    7    0     -0.79      0.00
    9    7    0     -0.07      0.00
   10    7    0      0.31      0.00
   -5    8    0      0.48      0.00
   -4    8    0     -0.49      0.00
   -3    8    0     -0.19      0.00
   -2    8    0     -0.31      0.00
   -1    8    0      0.96      0.00
    0    8    0     -0.17      0.00
    1    8    0     -0.65      0.00
    2    8    0     -0.37      0.00
    3    8    0      2.17      0.00
    4    8    0     -1.70      0.00
    5    8    0     -0.09      0.00
    6    8    0      0.13      0.00
    7    8    0      0.25      0.00
    8    8    0     -0.36      0.00
    9    8    0     -0.02      0.00
   -4    9    0     -0.52      0.00
   -3    9    0     -0.05      0.00
   -2    9    0     -0.13      0.00
   -1    9    0      0.90      0.00
    0    9    0     -0.36      0.00
    1    9    0     -0.67      0.00
    2    9    0     -0.12      0.00
    3    9    0      1.78      0.00
    4    9    0     -1.76      0.00
    5    9    0     -0.12      0.00
    6    9    0      0.70      0.00
    7    9    0     -0.35      0.00
    8    9    0      0.24      0.00
    9    9    0     -0.09      0.00
   -2   10    0     -0.10      0.00
   -1   10    0      0.69      0.00
    0   10    0     -0.51      0.00
    1   10    0     -0.82      0.00
    2   10    0      0.39      0.00
    3   10    0      1.30      0.00
    4   10    0     -1.47      0.00
    5   10    0     -0.09      0.00
    6   10    0      0.95      0.00
    7   10    0     -0.55      0.00
    8   10    0      0.40      0.00
   -1   11    0      0.45      0.00
    0   11    0     -0.68      0.00
    1   11    0     -0.41      0.00
    2   11    0      0.65      0.00
    3   11    0      0.73      0.00
    4   11    0     -0.84      0.00
    5   11    0     -0.22      0.00
    6   11    0      0.75      0.00
    7   11    0     -0.30      0.00
    1   12    0      0.14      0.00
    2   12    0      0.40      0.00
    3   12    0      0.38      0.00
    4   12    0     -0.28      0.00
    5   12    0     -0.44      0.00
    6   12    0      0.43      0.00
   -6  -12    1      0.38      0.00
   -5  -12    1      0.02      0.00
   -4  -12    1     -0.43      0.00
   -3  -12    1     -0.10      0.00
   -2  -12    1      0.61      0.00
   -1  -12    1      0.32      0.00
   -7  -11    1     -0.47      0.00
   -6  -11    1      0.42      0.00
   -5  -11    1      0.60      0.00
   -4  -11    1     -1.00      0.00
   -3  -11    1      0.03      0.00
   -2  -11    1      1.23      0.00
   -1  -11    1     -0.15      0.00
    0  -11    1     -0.86      0.00
    1  -11    1      0.39      0.00
   -8  -10    1      0.42      0.00
   -7  -10    1     -0.65      0.00
   -6  -10    1      0.53      0.00
   -5  -10    1      1.03      0.00
   -4  -10    1     -1.79      0.00
   -3  -10    1      0.64      0.00
   -2  -10    1      1.09      0.00
   -1  -10    1     -0.62      0.00
    0  -10    1     -0.94      0.00
    1  -10    1      0.57      0.00
    2  -10    1      0.20      0.00
   -9   -9    1     -0.15      0.00
   -8   -9    1      0.25      0.00
   -7   -9    1     -0.39      0.00
   -6   -9    1      0.47      0.00
   -5   -9    1      0.96      0.00
   -4   -9    1     -2.23      0.00
   -3   -9    1      1.14      0.00
   -2   -9    1      0.59      0.00
   -1   -9    1     -0.60      0.00
    0   -9    1     -0.93      0.00
    1   -9    1      0.78      0.00
    2   -9    1      0.38      0.00
    3   -9    1     -0.11      0.00
    4   -9    1     -0.57      0.00
   -9   -8    1      0.11      0.00
   -8   -8    1     -0.31      0.00
   -7   -8    1      0.11      0.00
   -6   -8    1      0.17      0.00
   -5   -8    1      0.75      0.00
   -4   -8    1     -2.40      0.00
   -3   -8    1      1.33      0.00
   -2   -8    1      0.68      0.00
   -1   -8    1     -0.73      0.00
    0   -8    1     -0.79      0.00
    1   -8    1      0.88      0.00
    2   -8    1      0.43      0.00
    3   -8    1     -0.35      0.00
    4   -8    1     -0.67      0.00
    5   -8    1      0.13      0.00
   -9   -7    1      0.19      0.00
   -8   -7    1     -0.70      0.00
   -7   -7    1      0.28      0.00
   -6   -7    1      0.15      0.00
   -5   -7    1      0.70      0.00
   -4   -7    1     -2.70      0.00
   -3   -7    1      1.84      0.00
   -2   -7    1      1.05      0.00
   -1   -7    1     -1.51      0.00
    0   -7    1     -0.36      0.00
    1   -7    1      0.81      0.00
    2   -7    1      0.50      0.00
    3   -7    1     -0.68      0.00
    4   -7    1     -0.49      0.00
    5   -7    1      0.33      0.00
    6   -7    1      0.47      0.00
  -10   -6    1      0.18      0.00
   -9   -6    1      0.07      0.00
   -8   -6    1     -0.70      0.00
   -7   -6    1      0.22      0.00
   -6   -6    1      0.57      0.00
   -5   -6    1      0.42      0.00
   -4   -6    1     -2.82      0.00
   -3   -6    1      2.43      0.00
   -2   -6    1      1.19      0.00
   -1   -6    1     -3.00      0.00
    0   -6    1      0.85      0.00
    1   -6    1      0.63      0.00
    2   -6    1      0.53      0.00
    3   -6    1     -1.04      0.00
    4   -6    1      0.03      0.00
    5   -6    1      0.47      0.00
    6   -6    1      0.36      0.00
  -10   -5    1      0.23      0.00
   -9   -5    1     -0.14      0.00
   -8   -5    1     -0.53      0.00
   -7   -5    1      0.44      0.00
   -6   -5    1      0.75      0.00
   -5   -5    1     -0.23      0.00
   -4   -5    1     -2.31      0.00
   -3   -5    1      2.57      0.00
   -2   -5    1      1.30      0.00
   -1   -5    1     -5.18      0.00
    0   -5    1      3.71      0.00
    1   -5    1     -0.54      0.00
    2   -5    1      0.64      0.00
    3   -5    1     -1.36      0.00
    4   -5    1      0.61      0.00
    5   -5    1      0.30      0.00
    6   -5    1      0.07      0.00
    7   -5    1     -0.36      0.00
  -10   -4    1      0.33      0.00
   -9   -4    1     -0.35      0.00
   -8   -4    1     -0.39      0.00
   -7   -4    1      0.81      0.00
   -6   -4    1      0.42      0.00
   -5   -4    1     -1.02      0.00
   -4   -4    1     -1.29      0.00
   -3   -4    1      2.65      0.00
   -2   -4    1      1.23      0.00
   -1   -4    1     -7.74      0.00
    0   -4    1      7.71      0.00
    1   -4    1     -3.03      0.00
    2   -4    1      1.28      0.00
    3   -4    1     -1.85      0.00
    4   -4    1      1.17      0.00
    5   -4    1      0.02      0.00
    6   -4    1      0.03      0.00
    7   -4    1     -0.30      0.00
    8   -4    1      0.31      0.00
  -10   -3    1      0.27      0.00
   -9   -3    1     -0.50      0.00
   -8   -3    1     -0.30      0.00
   -7   -3    1      0.83      0.00
   -6   -3    1      0.25      0.00
   -5   -3    1     -1.89      0.00
   -4   -3    1      0.17      0.00
   -3   -3    1      2.64      0.00
   -2   -3    1      1.42      0.00
   -1   -3    1    -11.62      0.00
    0   -3    1     12.34      0.00
    1   -3    1     -5.42      0.00
    2   -3    1      1.93      0.00
    3   -3    1     -2.37      0.00
    4   -3    1      2.00      0.00
    5   -3    1     -0.18      0.00
    6   -3    1      0.15      0.00
    7   -3    1     -0.38      0.00
    8   -3    1      0.46      0.00
  -10   -2    1      0.03      0.00
   -9   -2    1     -0.55      0.00
   -8   -2    1     -0.20      0.00
   -7   -2    1      0.53      0.00
   -6   -2    1      0.64      0.00
   -5   -2    1     -2.75      0.00
   -4   -2    1      1.77      0.00
   -3   -2    1      1.80      0.00
   -2   -2    1      2.98      0.00
   -1   -2    1    -18.73      0.00
    0   -2    1     19.82      0.00
    1   -2    1     -7.56      0.00
    2   -2    1      1.83      0.00
    3   -2    1     -2.33      0.00
    4   -2    1      2.98      0.00
    5   -2    1     -0.52      0.00
    6   -2    1      0.11      0.00
    7   -2    1     -0.51      0.00
    8   -2    1      0.60      0.00
    9   -2    1     -0.49      0.00
   -9   -1    1     -0.51      0.00
   -8   -1    1     -0.05      0.00
   -7   -1    1      0.32      0.00
   -6   -1    1      1.08      0.00
   -5   -1    1     -3.28      0.00
   -4   -1    1      2.64      0.00
   -3   -1    1      0.76      0.00
   -2   -1    1      4.62      0.00
   -1   -1    1    -26.29      0.00
    0   -1    1     30.16      0.00
    1   -1    1    -10.90      0.00
    2   -1    1      1.50      0.00
    3   -1    1     -2.04      0.00
    4   -1    1      3.68      0.00
    5   -1    1     -1.16      0.00
    6   -1    1     -0.12      0.00
    7   -1    1     -0.43      0.00
    8   -1    1      0.59      0.00
    9   -1    1     -0.47      0.00
   -9    0    1     -0.44      0.00
   -8    0    1      0.10      0.00
   -7    0    1      0.32      0.00
   -6    0    1      1.03      0.00
   -5    0    1     -3.37      0.00
   -4    0    1      2.72      0.00
   -3    0    1      0.61      0.00
   -2    0    1      3.75      0.00
   -1    0    1    -27.17      0.00
    1    0    1    -13.65      0.00
    2    0    1      0.77      0.00
    3    0    1     -2.05      0.00
    4    0    1      4.17      0.00
    5    0    1     -1.83      0.00
    6    0    1     -0.36      0.00
    7    0    1     -0.07      0.00
    8    0    1      0.46      0.00
    9    0    1     -0.21      0.00
   -9    1    1     -0.35      0.00
   -8    1    1      0.20      0.00
   -7    1    1      0.34      0.00
   -6    1    1      0.62      0.00
   -5    1    1     -2.98      0.00
   -4    1    1      2.68      0.00
   -3    1    1      0.68      0.00
   -2    1    1      1.37      0.00
   -1    1    1    -20.26      0.00
    0    1    1     31.98      0.00
    1    1    1    -12.07      0.00
    2    1    1     -1.83      0.00
    3    1    1     -1.34      0.00
    4    1    1      4.34      0.00
    5    1    1     -2.07      0.00
    6    1    1     -0.56      0.00
    7    1    1      0.40      0.00
    8    1    1      0.27      0.00
    9    1    1     -0.05      0.00
   -8    2    1      0.25      0.00
   -7    2    1      0.27      0.00
   -6    2    1      0.29      0.00
   -5    2    1     -2.17      0.00
   -4    2    1      2.44      0.00
   -3    2    1      0.35      0.00
   -2    2    1      0.18      0.00
   -1    2    1    -12.31      0.00
    0    2    1     22.11      0.00
    1    2    1     -7.23      0.00
    2    2    1     -5.49      0.00
    3    2    1      0.93      0.00
    4    2    1      3.65      0.00
    5    2    1     -1.70      0.00
    6    2    1     -0.86      0.00
    7    2    1      0.68      0.00
    8    2    1      0.13      0.00
    9    2    1     -0.22      0.00
   10    2    1     -0.42      0.00
   -8    3    1      0.19      0.00
   -7    3    1      0.26      0.00
   -6    3    1      0.16      0.00
   -5    3    1     -1.41      0.00
   -4    3    1      1.69      0.00
   -3    3    1      0.35      0.00
   -2    3    1     -0.17      0.00
   -1    3    1     -7.54      0.00
    0    3    1     13.99      0.00
    1    3    1     -3.48      0.00
    2    3    1     -7.23      0.00
    3    3    1      3.30      0.00
    4    3    1      2.23      0.00
    5    3    1     -1.09      0.00
    6    3    1     -1.25      0.00
    7    3    1      0.80      0.00
    8    3    1      0.05      0.00
    9    3    1     -0.43      0.00
   10    3    1     -0.18      0.00
   -7    4    1      0.31      0.00
   -6    4    1     -0.10      0.00
   -5    4    1     -0.98      0.00
   -4    4    1      0.98      0.00
   -3    4    1      0.71      0.00
   -2    4    1     -0.95      0.00
   -1    4    1     -4.38      0.00
    0    4    1      8.98      0.00
    1    4    1     -1.91      0.00
    2    4    1     -6.48      0.00
    3    4    1      4.15      0.00
    4    4    1      0.99      0.00
    5    4    1     -0.79      0.00
    6    4    1     -1.36      0.00
    7    4    1      0.99      0.00
    8    4    1     -0.06      0.00
    9    4    1     -0.40      0.00
   10    4    1      0.08      0.00
   -7    5    1      0.17      0.00
   -6    5    1     -0.47      0.00
   -5    5    1     -0.50      0.00
   -4    5    1      0.69      0.00
   -3    5    1      0.72      0.00
   -2    5    1     -1.45      0.00
   -1    5    1     -1.75      0.00
    0    5    1      5.34      0.00
    1    5    1     -1.08      0.00
    2    5    1     -5.10      0.00
    3    5    1      3.89      0.00
    4    5    1      0.31      0.00
    5    5    1     -0.74      0.00
    6    5    1     -1.08      0.00
    7    5    1      1.22      0.00
    8    5    1     -0.24      0.00
    9    5    1     -0.27      0.00
   10    5    1      0.16      0.00
   -6    6    1     -0.49      0.00
   -5    6    1      0.15      0.00
   -4    6    1      0.40      0.00
   -3    6    1      0.53      0.00
   -2    6    1     -1.25      0.00
   -1    6    1     -0.36      0.00
    0    6    1      2.83      0.00
    1    6    1     -0.59      0.00
    2    6    1     -3.84      0.00
    3    6    1      3.45      0.00
    4    6    1     -0.11      0.00
    5    6    1     -0.51      0.00
    6    6    1     -0.81      0.00
    7    6    1      1.33      0.00
    8    6    1     -0.45      0.00
    9    6    1     -0.28      0.00
   10    6    1      0.15      0.00
   -5    7    1      0.50      0.00
   -4    7    1      0.04      0.00
   -3    7    1      0.45      0.00
   -2    7    1     -1.08      0.00
   -1    7    1      0.14      0.00
    0    7    1      1.43      0.00
    1    7    1     -0.43      0.00
    2    7    1     -2.56      0.00
    3    7    1      2.97      0.00
    4    7    1     -0.45      0.00
    5    7    1     -0.26      0.00
    6    7    1     -0.68      0.00
    7    7    1      1.11      0.00
    8    7    1     -0.51      0.00
    9    7    1     -0.32      0.00
   10    7    1      0.15      0.00
   -5    8    1      0.44      0.00
   -4    8    1     -0.16      0.00
   -3    8    1      0.26      0.00
   -2    8    1     -0.93      0.00
   -1    8    1      0.44      0.00
    0    8    1      0.70      0.00
    1    8    1     -0.31      0.00
    2    8    1     -1.59      0.00
    3    8    1      2.46      0.00
    4    8    1     -0.70      0.00
    5    8    1     -0.39      0.00
    6    8    1     -0.28      0.00
    7    8    1      0.52      0.00
    8    8    1     -0.24      0.00
    9    8    1     -0.27      0.00
   -4    9    1     -0.27      0.00
   -3    9    1      0.11      0.00
   -2    9    1     -0.55      0.00
   -1    9    1      0.50      0.00
    0    9    1      0.40      0.00
    1    9    1     -0.41      0.00
    2    9    1     -1.00      0.00
    3    9    1      1.99      0.00
    4    9    1     -0.82      0.00
    5    9    1     -0.67      0.00
    6    9    1      0.32      0.00
    7    9    1     -0.08      0.00
    8    9    1      0.18      0.00
    9    9    1     -0.18      0.00
   -2   10    1     -0.29      0.00
   -1   10    1      0.42      0.00
    0   10    1      0.11      0.00
    1   10    1     -0.58      0.00
    2   10    1     -0.48      0.00
    3   10    1      1.47      0.00
    4   10    1     -0.68      0.00
    5   10    1     -0.72      0.00
    6   10    1      0.58      0.00
    7   10    1     -0.22      0.00
    8   10    1      0.29      0.00
   -1   11    1      0.28      0.00
    0   11    1     -0.29      0.00
    1   11    1     -0.34      0.00
    2   11    1     -0.09      0.00
    3   11    1      0.93      0.00
    4   11    1     -0.29      0.00
    5   11    1     -0.62      0.00
    6   11    1      0.39      0.00
    7   11    1      0.00      0.00
    1   12    1      0.03      0.00
    2   12    1      0.07      0.00
    3   12    1      0.46      0.00
    4   12    1      0.05      0.00
    5   12    1     -0.49      0.00
    6   12    1      0.08      0.00
   -5  -12    2      0.41      0.00
   -4  -12    2     -0.09      0.00
   -3  -12    2     -0.73      0.00
   -2  -12    2      0.54      0.00
   -1  -12    2      0.41      0.00
   -7  -11    2     -0.34      0.00
   -6  -11    2     -0.40      0.00
   -5  -11    2      1.16      0.00
   -4  -11    2     -0.56      0.00
   -3  -11    2     -0.82      0.00
   -2  -11    2      1.26      0.00
   -1  -11    2      0.22      0.00
    0  -11    2     -0.60      0.00
    1  -11    2      0.09      0.00
   -8  -10    2      0.22      0.00
   -7  -10    2     -0.47      0.00
   -6  -10    2     -0.42      0.00
   -5  -10    2      1.83      0.00
   -4  -10    2     -1.41      0.00
   -3  -10    2     -0.14      0.00
   -2  -10    2      1.25      0.00
   -1  -10    2     -0.09      0.00
    0  -10    2     -0.85      0.00
    1  -10    2      0.08      0.00
    2  -10    2      0.35      0.00
   -9   -9    2     -0.09      0.00
   -8   -9    2      0.06      0.00
   -7   -9    2     -0.32      0.00
   -6   -9    2     -0.18      0.00
   -5   -9    2      1.86      0.00
   -4   -9    2     -2.00      0.00
   -3   -9    2      0.40      0.00
   -2   -9    2      0.87      0.00
   -1   -9    2     -0.22      0.00
    0   -9    2     -1.01      0.00
    1   -9    2      0.19      0.00
    2   -9    2      0.62      0.00
    3   -9    2      0.13      0.00
    4   -9    2     -0.43      0.00
   -9   -8    2      0.23      0.00
   -8   -8    2     -0.31      0.00
   -7   -8    2     -0.06      0.00
   -6   -8    2     -0.06      0.00
   -5   -8    2      1.66      0.00
   -4   -8    2     -2.41      0.00
   -3   -8    2      0.31      0.00
   -2   -8    2      1.29      0.00
   -1   -8    2     -0.55      0.00
    0   -8    2     -0.93      0.00
    1   -8    2      0.26      0.00
    2   -8    2      0.83      0.00
    3   -8    2     -0.06      0.00
    4   -8    2     -0.58      0.00
    5   -8    2     -0.32      0.00
   -9   -7    2      0.39      0.00
   -8   -7    2     -0.47      0.00
   -7   -7    2     -0.19      0.00
   -6   -7    2      0.12      0.00
   -5   -7    2      1.69      0.00
   -4   -7    2     -3.05      0.00
   -3   -7    2      0.29      0.00
   -2   -7    2      2.40      0.00
   -1   -7    2     -1.34      0.00
    0   -7    2     -0.78      0.00
    1   -7    2      0.17      0.00
    2   -7    2      1.11      0.00
    3   -7    2     -0.43      0.00
    4   -7    2     -0.62      0.00
    5   -7    2     -0.22      0.00
    6   -7    2      0.49      0.00
  -10   -6    2     -0.17      0.00
   -9   -6    2      0.35      0.00
   -8   -6    2     -0.43      0.00
   -7   -6    2     -0.51      0.00
   -6   -6    2      0.62      0.00
   -5   -6    2      1.60      0.00
   -4   -6    2     -3.34      0.00
   -3   -6    2      0.23      0.00
   -2   -6    2      3.62      0.00
   -1   -6    2     -2.74      0.00
    0   -6    2     -0.39      0.00
    1   -6    2      0.12      0.00
    2   -6    2      1.50      0.00
    3   -6    2     -0.94      0.00
    4   -6    2     -0.39      0.00
    5   -6    2      0.06      0.00
    6   -6    2      0.59      0.00
  -10   -5    2     -0.12      0.00
   -9   -5    2      0.24      0.00
   -8   -5    2     -0.43      0.00
   -7   -5    2     -0.33      0.00
   -6   -5    2      1.00      0.00
   -5   -5    2      1.04      0.00
   -4   -5    2     -2.78      0.00
   -3   -5    2     -0.45      0.00
   -2   -5    2      4.87      0.00
   -1   -5    2     -4.82      0.00
    0   -5    2      1.25      0.00
    1   -5    2     -0.50      0.00
    2   -5    2      2.05      0.00
    3   -5    2     -1.57      0.00
    4   -5    2     -0.01      0.00
    5   -5    2      0.16      0.00
    6   -5    2      0.47      0.00
    7   -5    2     -0.29      0.00
  -10   -4    2      0.10      0.00
   -9   -4    2      0.12      0.00
   -8   -4    2     -0.46      0.00
   -7   -4    2      0.19      0.00
   -6   -4    2      0.93      0.00
   -5   -4    2      0.17      0.00
   -4   -4    2     -1.83      0.00
   -3   -4    2     -1.09      0.00
   -2   -4    2      5.72      0.00
   -1   -4    2     -6.79      0.00
    0   -4    2      3.80      0.00
    1   -4    2     -2.22      0.00
    2   -4    2      2.98      0.00
    3   -4    2     -2.45      0.00
    4   -4    2      0.37      0.00
    5   -4    2      0.07      0.00
    6   -4    2      0.49      0.00
    7   -4    2     -0.36      0.00
    8   -4    2      0.24      0.00
  -10   -3    2      0.26      0.00
   -9   -3    2     -0.03      0.00
   -8   -3    2     -0.39      0.00
   -7   -3    2      0.32      0.00
   -6   -3    2      0.92      0.00
   -5   -3    2     -0.89      0.00
   -4   -3    2     -0.77      0.00
   -3   -3    2     -1.20      0.00
   -2   -3    2      6.44      0.00
   -1   -3    2     -8.97      0.00
    0   -3    2      6.02      0.00
    1   -3    2     -3.96      0.00
    2   -3    2      3.82      0.00
    3   -3    2     -3.39      0.00
    4   -3    2      0.94      0.00
    5   -3    2      0.11      0.00
    6   -3    2      0.72      0.00
    7   -3    2     -0.48      0.00
    8   -3    2      0.38      0.00
   -9   -2    2     -0.16      0.00
   -8   -2    2     -0.27      0.00
   -7   -2    2      0.01      0.00
   -6   -2    2      1.28      0.00
   -5   -2    2     -1.95      0.00
   -4   -2    2      0.43      0.00
   -3   -2    2     -1.39      0.00
   -2   -2    2      8.02      0.00
   -1   -2    2    -13.60      0.00
    0   -2    2      9.18      0.00
    1   -2    2     -4.97      0.00
    2   -2    2      4.08      0.00
    3   -2    2     -3.77      0.00
    4   -2    2      1.79      0.00
    5   -2    2      0.27      0.00
    6   -2    2      0.77      0.00
    7   -2    2     -0.66      0.00
    8   -2    2      0.46      0.00
    9   -2    2     -0.44      0.00
   -9   -1    2     -0.24      0.00
   -8   -1    2     -0.21      0.00
   -7   -1    2     -0.18      0.00
   -6   -1    2      1.63      0.00
   -5   -1    2     -2.60      0.00
   -4   -1    2      1.19      0.00
   -3   -1    2     -1.37      0.00
   -2   -1    2      9.11      0.00
   -1   -1    2    -19.46      0.00
    0   -1    2     14.47      0.00
    1   -1    2     -5.84      0.00
    2   -1    2      4.02      0.00
    3   -1    2     -3.73      0.00
    4   -1    2      2.66      0.00
    5   -1    2      0.24      0.00
    6   -1    2      0.38      0.00
    7   -1    2     -0.72      0.00
    8   -1    2      0.39      0.00
    9   -1    2     -0.40      0.00
   -9    0    2     -0.24      0.00
   -8    0    2     -0.20      0.00
   -7    0    2      0.00      0.00
   -6    0    2      1.50      0.00
   -5    0    2     -2.79      0.00
   -4    0    2      1.31      0.00
   -3    0    2     -0.53      0.00
   -2    0    2      7.26      0.00
   -1    0    2    -20.83      0.00
    0    0    2     18.25      0.00
    1    0    2     -5.80      0.00
    2    0    2      3.20      0.00
    3    0    2     -3.69      0.00
    4    0    2      3.30      0.00
    5    0    2     -0.03      0.00
    6    0    2     -0.32      0.00
    7    0    2     -0.45      0.00
    8    0    2      0.25      0.00
    9    0    2     -0.05      0.00
   -9    1    2     -0.24      0.00
   -8    1    2     -0.12      0.00
   -7    1    2      0.22      0.00
   -6    1    2      0.96      0.00
   -5    1    2     -2.52      0.00
   -4    1    2      1.31      0.00
   -3    1    2      0.38      0.00
   -2    1    2      3.69      0.00
   -1    1    2    -16.08      0.00
    0    1    2     16.71      0.00
    1    1    2     -3.42      0.00
    2    1    2      0.24      0.00
    3    1    2     -2.92      0.00
    4    1    2      3.45      0.00
    5    1    2     -0.23      0.00
    6    1    2     -0.93      0.00
    7    1    2      0.04      0.00
    8    1    2      0.17      0.00
    9    1    2      0.19      0.00
   -8    2    2      0.03      0.00
   -7    2    2      0.20      0.00
   -6    2    2      0.52      0.00
   -5    2    2     -1.82      0.00
   -4    2    2      1.14      0.00
   -3    2    2      0.81      0.00
   -2    2    2      1.32      0.00
   -1    2    2    -10.19      0.00
    0    2    2     12.08      0.00
    1    2    2     -0.18      0.00
    2    2    2     -3.99      0.00
    3    2    2     -0.66      0.00
    4    2    2      2.81      0.00
    5    2    2     -0.02      0.00
    6    2    2     -1.29      0.00
    7    2    2      0.38      0.00
    8    2    2      0.13      0.00
    9    2    2      0.06      0.00
   10    2    2     -0.46      0.00
   -8    3    2      0.07      0.00
   -7    3    2      0.15      0.00
   -6    3    2      0.42      0.00
   -5    3    2     -1.14      0.00
   -4    3    2      0.59      0.00
   -3    3    2      1.31      0.00
   -2    3    2      0.06      0.00
   -1    3    2     -6.56      0.00
    0    3    2      8.36      0.00
    1    3    2      1.33      0.00
    2    3    2     -6.54      0.00
    3    3    2      1.85      0.00
    4    3    2      1.72      0.00
    5    3    2      0.42      0.00
    6    3    2     -1.61      0.00
    7    3    2      0.47      0.00
    8    3    2      0.05      0.00
    9    3    2     -0.16      0.00
   10    3    2     -0.32      0.00
   -7    4    2      0.30      0.00
   -6    4    2      0.25      0.00
   -5    4    2     -0.88      0.00
   -4    4    2      0.20      0.00
   -3    4    2      1.68      0.00
   -2    4    2     -1.10      0.00
   -1    4    2     -4.16      0.00
    0    4    2      5.97      0.00
    1    4    2      1.40      0.00
    2    4    2     -6.57      0.00
    3    4    2      2.94      0.00
    4    4    2      1.00      0.00
    5    4    2      0.54      0.00
    6    4    2     -1.90      0.00
    7    4    2      0.59      0.00
    8    4    2     -0.05      0.00
    9    4    2     -0.16      0.00
   10    4    2     -0.10      0.00
   -7    5    2      0.31      0.00
   -6    5    2     -0.20      0.00
   -5    5    2     -0.64      0.00
   -4    5    2      0.17      0.00
   -3    5    2      1.45      0.00
   -2    5    2     -1.56      0.00
   -1    5    2     -2.28      0.00
    0    5    2      4.06      0.00
    1    5    2      1.38      0.00
    2    5    2     -5.67      0.00
    3    5    2      2.79      0.00
    4    5    2      0.81      0.00
    5    5    2      0.28      0.00
    6    5    2     -1.95      0.00
    7    5    2      0.88      0.00
    8    5    2     -0.03      0.00
    9    5    2     -0.07      0.00
   10    5    2      0.00      0.00
   -6    6    2     -0.43      0.00
   -5    6    2     -0.18      0.00
   -4    6    2      0.10      0.00
   -3    6    2      1.17      0.00
   -2    6    2     -1.33      0.00
   -1    6    2     -1.30      0.00
    0    6    2      2.74      0.00
    1    6    2      1.18      0.00
    2    6    2     -4.74      0.00
    3    6    2      2.46      0.00
    4    6    2      0.66      0.00
    5    6    2      0.13      0.00
    6    6    2     -1.75      0.00
    7    6    2      1.15      0.00
    8    6    2      0.07      0.00
    9    6    2     -0.19      0.00
   10    6    2     -0.03      0.00
   -5    7    2      0.08      0.00
   -4    7    2      0.07      0.00
   -3    7    2      1.08      0.00
   -2    7    2     -1.29      0.00
   -1    7    2     -0.76      0.00
    0    7    2      1.91      0.00
    1    7    2      0.69      0.00
    2    7    2     -3.61      0.00
    3    7    2      2.29      0.00
    4    7    2      0.37      0.00
    5    7    2      0.11      0.00
    6    7    2     -1.42      0.00
    7    7    2      1.10      0.00
    8    7    2      0.15      0.00
    9    7    2     -0.42      0.00
   10    7    2     -0.07      0.00
   -4    8    2      0.17      0.00
   -3    8    2      0.66      0.00
   -2    8    2     -1.23      0.00
   -1    8    2     -0.29      0.00
    0    8    2      1.29      0.00
    1    8    2      0.32      0.00
    2    8    2     -2.45      0.00
    3    8    2      2.02      0.00
    4    8    2      0.14      0.00
    5    8    2     -0.15      0.00
    6    8    2     -0.90      0.00
    7    8    2      0.66      0.00
    8    8    2      0.24      0.00
    9    8    2     -0.50      0.00
   -3    9    2      0.20      0.00
   -2    9    2     -0.77      0.00
   -1    9    2     -0.07      0.00
    0    9    2      0.93      0.00
    1    9    2      0.07      0.00
    2    9    2     -1.60      0.00
    3    9    2      1.59      0.00
    4    9    2      0.04      0.00
    5    9    2     -0.53      0.00
    6    9    2     -0.35      0.00
    7    9    2      0.17      0.00
    8    9    2      0.39      0.00
    9    9    2     -0.41      0.00
   -2   10    2     -0.37      0.00
   -1   10    2      0.05      0.00
    0   10    2      0.54      0.00
    1   10    2     -0.10      0.00
    2   10    2     -1.04      0.00
    3   10    2      1.12      0.00
    4   10    2      0.07      0.00
    5   10    2     -0.63      0.00
    6   10    2     -0.10      0.00
    7   10    2      0.03      0.00
    8   10    2      0.38      0.00
   -1   11    2      0.10      0.00
    0   11    2      0.01      0.00
    1   11    2     -0.03      0.00
    2   11    2     -0.62      0.00
    3   11    2      0.70      0.00
    4   11    2      0.18      0.00
    5   11    2     -0.50      0.00
    6   11    2     -0.13      0.00
    7   11    2      0.13      0.00
    1   12    2      0.06      0.00
    2   12    2     -0.21      0.00
    3   12    2      0.32      0.00
    4   12    2      0.25      0.00
    5   12    2     -0.29      0.00
    6   12    2     -0.18      0.00
   -5  -12    3      0.30      0.00
   -4  -12    3      0.45      0.00
   -3  -12    3     -1.06      0.00
   -2  -12    3      0.26      0.00
   -7  -11    3     -0.05      0.00
   -6  -11    3     -0.88      0.00
   -5  -11    3      0.94      0.00
   -4  -11    3      0.15      0.00
   -3  -11    3     -1.30      0.00
   -2  -11    3      0.78      0.00
   -1  -11    3      0.38      0.00
    0  -11    3     -0.08      0.00
    1  -11    3     -0.12      0.00
   -8  -10    3      0.05      0.00
   -7  -10    3     -0.20      0.00
   -6  -10    3     -1.05      0.00
   -5  -10    3      1.68      0.00
   -4  -10    3     -0.66      0.00
   -3  -10    3     -0.63      0.00
   -2  -10    3      0.80      0.00
   -1  -10    3      0.43      0.00
    0  -10    3     -0.35      0.00
    1  -10    3     -0.29      0.00
    2  -10    3      0.08      0.00
   -8   -9    3     -0.05      0.00
   -7   -9    3     -0.31      0.00
   -6   -9    3     -0.71      0.00
   -5   -9    3      1.93      0.00
   -4   -9    3     -1.26      0.00
   -3   -9    3     -0.13      0.00
   -2   -9    3      0.63      0.00
   -1   -9    3      0.37      0.00
    0   -9    3     -0.68      0.00
    1   -9    3     -0.37      0.00
    2   -9    3      0.35      0.00
    3   -9    3      0.46      0.00
    4   -9    3     -0.18      0.00
   -9   -8    3      0.44      0.00
   -8   -8    3     -0.20      0.00
   -7   -8    3     -0.34      0.00
   -6   -8    3     -0.33      0.00
   -5   -8    3      2.00      0.00
   -4   -8    3     -1.72      0.00
   -3   -8    3     -0.54      0.00
   -2   -8    3      1.29      0.00
   -1   -8    3     -0.06      0.00
    0   -8    3     -0.69      0.00
    1   -8    3     -0.41      0.00
    2   -8    3      0.70      0.00
    3   -8    3      0.31      0.00
    4   -8    3     -0.21      0.00
    5   -8    3     -0.47      0.00
   -9   -7    3      0.56      0.00
   -8   -7    3     -0.13      0.00
   -7   -7    3     -0.66      0.00
   -6   -7    3     -0.07      0.00
   -5   -7    3      2.26      0.00
   -4   -7    3     -2.45      0.00
   -3   -7    3     -1.16      0.00
   -2   -7    3      2.74      0.00
   -1   -7    3     -0.65      0.00
    0   -7    3     -0.70      0.00
    1   -7    3     -0.65      0.00
    2   -7    3      1.14      0.00
    3   -7    3      0.00      0.00
    4   -7    3     -0.35      0.00
    5   -7    3     -0.54      0.00
   -9   -6    3      0.55      0.00
   -8   -6    3     -0.02      0.00
   -7   -6    3     -1.12      0.00
   -6   -6    3      0.35      0.00
   -5   -6    3      2.33      0.00
   -4   -6    3     -2.73      0.00
   -3   -6    3     -1.91      0.00
   -2   -6    3      4.55      0.00
   -1   -6    3     -1.48      0.00
    0   -6    3     -1.03      0.00
    1   -6    3     -0.87      0.00
    2   -6    3      1.83      0.00
    3   -6    3     -0.48      0.00
    4   -6    3     -0.38      0.00
    5   -6    3     -0.34      0.00
    6   -6    3      0.45      0.00
  -10   -5    3     -0.45      0.00
   -9   -5    3      0.50      0.00
   -8   -5    3     -0.12      0.00
   -7   -5    3     -1.08      0.00
   -6   -5    3      0.76      0.00
   -5   -5    3      1.96      0.00
   -4   -5    3     -2.08      0.00
   -3   -5    3     -3.23      0.00
   -2   -5    3      6.47      0.00
   -1   -5    3     -2.98      0.00
    0   -5    3     -0.77      0.00
    1   -5    3     -1.24      0.00
    2   -5    3      2.88      0.00
    3   -5    3     -1.13      0.00
    4   -5    3     -0.23      0.00
    5   -5    3     -0.20      0.00
    6   -5    3      0.56      0.00
    7   -5    3     -0.17      0.00
  -10   -4    3     -0.24      0.00
   -9   -4    3      0.42      0.00
   -8   -4    3     -0.21      0.00
   -7   -4    3     -0.66      0.00
   -6   -4    3      0.98      0.00
   -5   -4    3      1.33      0.00
   -4   -4    3     -1.31      0.00
   -3   -4    3     -4.35      0.00
   -2   -4    3      7.68      0.00
   -1   -4    3     -4.21      0.00
    0   -4    3      0.32      0.00
    1   -4    3     -2.22      0.00
    2   -4    3      4.27      0.00
    3   -4    3     -2.09      0.00
    4   -4    3     -0.15      0.00
    5   -4    3     -0.31      0.00
    6   -4    3      0.68      0.00
    7   -4    3     -0.30      0.00
    8   -4    3      0.09      0.00
   -9   -3    3      0.32      0.00
   -8   -3    3     -0.09      0.00
   -7   -3    3     -0.57      0.00
   -6   -3    3      1.29      0.00
   -5   -3    3      0.44      0.00
   -4   -3    3     -0.83      0.00
   -3   -3    3     -4.62      0.00
   -2   -3    3      8.10      0.00
   -1   -3    3     -4.47      0.00
    0   -3    3      0.90      0.00
    1   -3    3     -3.31      0.00
    2   -3    3      5.42      0.00
    3   -3    3     -3.23      0.00
    4   -3    3     -0.12      0.00
    5   -3    3     -0.29      0.00
    6   -3    3      0.98      0.00
    7   -3    3     -0.36      0.00
    8   -3    3      0.17      0.00
   -9   -2    3      0.23      0.00
   -8   -2    3      0.05      0.00
   -7   -2    3     -0.83      0.00
   -6   -2    3      1.74      0.00
   -5   -2    3     -0.59      0.00
   -4   -2    3     -0.32      0.00
   -3   -2    3     -4.49      0.00
   -2   -2    3      8.93      0.00
   -1   -2    3     -5.57      0.00
    0   -2    3      1.03      0.00
    1   -2    3     -3.82      0.00
    2   -2    3      5.83      0.00
    3   -2    3     -3.97      0.00
    4   -2    3      0.11      0.00
    5   -2    3      0.13      0.00
    6   -2    3      1.25      0.00
    7   -2    3     -0.46      0.00
    8   -2    3      0.24      0.00
   -9   -1    3      0.17      0.00
   -8   -1    3     -0.01      0.00
   -7   -1    3     -0.85      0.00
   -6   -1    3      1.95      0.00
   -5   -1    3     -1.27      0.00
   -4   -1    3     -0.03      0.00
   -3   -1    3     -3.89      0.00
   -2   -1    3      9.58      0.00
   -1   -1    3     -8.27      0.00
    0   -1    3      2.10      0.00
    1   -1    3     -3.77      0.00
    2   -1    3      5.78      0.00
    3   -1    3     -4.09      0.00
    4   -1    3      0.61      0.00
    5   -1    3      0.76      0.00
    6   -1    3      1.07      0.00
    7   -1    3     -0.60      0.00
    8   -1    3      0.18      0.00
    9   -1    3     -0.12      0.00
   -9    0    3      0.11      0.00
   -8    0    3     -0.19      0.00
   -7    0    3     -0.46      0.00
   -6    0    3      1.64      0.00
   -5    0    3     -1.49      0.00
   -4    0    3     -0.17      0.00
   -3    0    3     -2.41      0.00
   -2    0    3      8.09      0.00
   -1    0    3     -9.68      0.00
    0    0    3      3.47      0.00
    1    0    3     -2.71      0.00
    2    0    3      5.04      0.00
    3    0    3     -3.84      0.00
    4    0    3      1.10      0.00
    5    0    3      1.22      0.00
    6    0    3      0.31      0.00
    7    0    3     -0.60      0.00
    8    0    3      0.10      0.00
    9    0    3      0.11      0.00
   -9    1    3     -0.04      0.00
   -8    1    3     -0.20      0.00
   -7    1    3     -0.06      0.00
   -6    1    3      0.97      0.00
   -5    1    3     -1.38      0.00
   -4    1    3     -0.37      0.00
   -3    1    3     -0.73      0.00
   -2    1    3      5.14      0.00
   -1    1    3     -8.21      0.00
    0    1    3      3.59      0.00
    1    1    3     -0.21      0.00
    2    1    3      2.48      0.00
    3    1    3     -2.95      0.00
    4    1    3      1.24      0.00
    5    1    3      1.40      0.00
    6    1    3     -0.55      0.00
    7    1    3     -0.32      0.00
    8    1    3      0.15      0.00
    9    1    3      0.31      0.00
   -8    2    3     -0.02      0.00
   -7    2    3     -0.04      0.00
   -6    2    3      0.45      0.00
   -5    2    3     -0.95      0.00
   -4    2    3     -0.51      0.00
   -3    2    3      0.60      0.00
   -2    2    3      2.78      0.00
   -1    2    3     -6.02      0.00
    0    2    3      3.07      0.00
    1    2    3      2.28      0.00
    2    2    3     -1.48      0.00
    3    2    3     -1.05      0.00
    4    2    3      0.86      0.00
    5    2    3      1.54      0.00
    6    2    3     -1.04      0.00
    7    2    3      0.01      0.00
    8    2    3      0.20      0.00
    9    2    3      0.24      0.00
   10    2    3     -0.50      0.00
   -8    3    3      0.08      0.00
   -7    3    3     -0.16      0.00
   -6    3    3      0.41      0.00
   -5    3    3     -0.56      0.00
   -4    3    3     -0.63      0.00
   -3    3    3      1.69      0.00
   -2    3    3      1.04      0.00
   -1    3    3     -4.59      0.00
    0    3    3      2.85      0.00
    1    3    3      3.16      0.00
    2    3    3     -4.43      0.00
    3    3    3      0.98      0.00
    4    3    3      0.28      0.00
    5    3    3      1.79      0.00
    6    3    3     -1.30      0.00
    7    3    3      0.16      0.00
    8    3    3      0.07      0.00
    9    3    3      0.02      0.00
   10    3    3     -0.46      0.00
   -7    4    3     -0.02      0.00
   -6    4    3      0.44      0.00
   -5    4    3     -0.51      0.00
   -4    4    3     -0.43      0.00
   -3    4    3      2.06      0.00
   -2    4    3     -0.44      0.00
   -1    4    3     -3.35      0.00
    0    4    3      2.48      0.00
    1    4    3      3.04      0.00
    2    4    3     -5.17      0.00
    3    4    3      1.80      0.00
    4    4    3      0.14      0.00
    5    4    3      1.86      0.00
    6    4    3     -1.68      0.00
    7    4    3      0.19      0.00
    8    4    3     -0.10      0.00
    9    4    3     -0.05      0.00
   10    4    3     -0.27      0.00
   -7    5    3      0.13      0.00
   -6    5    3      0.12      0.00
   -5    5    3     -0.47      0.00
   -4    5    3     -0.14      0.00
   -3    5    3      1.58      0.00
   -2    5    3     -0.98      0.00
   -1    5    3     -2.31      0.00
    0    5    3      1.88      0.00
    1    5    3      2.93      0.00
    2    5    3     -4.75      0.00
    3    5    3      1.49      0.00
    4    5    3      0.46      0.00
    5    5    3      1.54      0.00
    6    5    3     -2.02      0.00
    7    5    3      0.29      0.00
    8    5    3      0.00      0.00
    9    5    3      0.01      0.00
   10    5    3     -0.11      0.00
   -6    6    3     -0.13      0.00
   -5    6    3     -0.27      0.00
   -4    6    3     -0.15      0.00
   -3    6    3      1.28      0.00
   -2    6    3     -0.88      0.00
   -1    6    3     -1.76      0.00
    0    6    3      1.58      0.00
    1    6    3      2.57      0.00
    2    6    3     -4.19      0.00
    3    6    3      1.13      0.00
    4    6    3      0.65      0.00
    5    6    3      1.10      0.00
    6    6    3     -2.07      0.00
    7    6    3      0.45      0.00
    8    6    3      0.38      0.00
    9    6    3     -0.06      0.00
   10    6    3     -0.12      0.00
   -5    7    3     -0.23      0.00
   -4    7    3     -0.04      0.00
   -3    7    3      1.32      0.00
   -2    7    3     -1.06      0.00
   -1    7    3     -1.27      0.00
    0    7    3      1.41      0.00
    1    7    3      1.75      0.00
    2    7    3     -3.44      0.00
    3    7    3      1.11      0.00
    4    7    3      0.56      0.00
    5    7    3      0.75      0.00
    6    7    3     -1.78      0.00
    7    7    3      0.51      0.00
    8    7    3      0.68      0.00
    9    7    3     -0.29      0.00
   10    7    3     -0.18      0.00
   -4    8    3      0.32      0.00
   -3    8    3      0.91      0.00
   -2    8    3     -1.17      0.00
   -1    8    3     -0.78      0.00
    0    8    3      1.16      0.00
    1    8    3      0.95      0.00
    2    8    3     -2.42      0.00
    3    8    3      1.07      0.00
    4    8    3      0.47      0.00
    5    8    3      0.31      0.00
    6    8    3     -1.24      0.00
    7    8    3      0.33      0.00
    8    8    3      0.76      0.00
    9    8    3     -0.47      0.00
   -3    9    3      0.29      0.00
   -2    9    3     -0.81      0.00
   -1    9    3     -0.51      0.00
    0    9    3      0.97      0.00
    1    9    3      0.47      0.00
    2    9    3     -1.54      0.00
    3    9    3      0.80      0.00
    4    9    3      0.45      0.00
    5    9    3     -0.10      0.00
    6    9    3     -0.73      0.00
    7    9    3      0.03      0.00
    8    9    3      0.76      0.00
    9    9    3     -0.48      0.00
   -2   10    3     -0.44      0.00
   -1   10    3     -0.23      0.00
    0   10    3      0.63      0.00
    1   10    3      0.29      0.00
    2   10    3     -1.06      0.00
    3   10    3      0.51      0.00
    4   10    3      0.42      0.00
    5   10    3     -0.26      0.00
    6   10    3     -0.47      0.00
    7   10    3     -0.08      0.00
    8   10    3      0.64      0.00
   -1   11    3     -0.01      0.00
    0   11    3      0.12      0.00
    1   11    3      0.28      0.00
    2   11    3     -0.77      0.00
    3   11    3      0.30      0.00
    4   11    3      0.42      0.00
    5   11    3     -0.28      0.00
    6   11    3     -0.30      0.00
    7   11    3     -0.02      0.00
    2   12    3     -0.38      0.00
    3   12    3      0.14      0.00
    4   12    3      0.33      0.00
    5   12    3     -0.25      0.00
   -4  -12    4      0.70      0.00
   -3  -12    4     -0.92      0.00
   -2  -12    4      0.03      0.00
   -7  -11    4      0.06      0.00
   -6  -11    4     -0.51      0.00
   -5  -11    4      0.26      0.00
   -4  -11    4      0.59      0.00
   -3  -11    4     -1.20      0.00
   -2  -11    4      0.17      0.00
   -1  -11    4      0.24      0.00
    0  -11    4      0.21      0.00
    1  -11    4      0.03      0.00
   -8  -10    4      0.05      0.00
   -7  -10    4     -0.03      0.00
   -6  -10    4     -0.83      0.00
   -5  -10    4      0.83      0.00
   -4  -10    4     -0.05      0.00
   -3  -10    4     -0.67      0.00
   -2  -10    4      0.04      0.00
   -1  -10    4      0.68      0.00
    0  -10    4      0.09      0.00
    1  -10    4     -0.22      0.00
    2  -10    4     -0.33      0.00
   -8   -9    4      0.09      0.00
   -7   -9    4     -0.27      0.00
   -6   -9    4     -0.68      0.00
   -5   -9    4      1.20      0.00
   -4   -9    4     -0.45      0.00
   -3   -9    4     -0.31      0.00
   -2   -9    4     -0.03      0.00
   -1   -9    4      0.89      0.00
    0   -9    4     -0.24      0.00
    1   -9    4     -0.53      0.00
    2   -9    4     -0.04      0.00
    3   -9    4      0.44      0.00
   -9   -8    4      0.53      0.00
   -8   -8    4      0.13      0.00
   -7   -8    4     -0.49      0.00
   -6   -8    4     -0.42      0.00
   -5   -8    4      1.56      0.00
   -4   -8    4     -0.69      0.00
   -3   -8    4     -0.92      0.00
   -2   -8    4      0.66      0.00
   -1   -8    4      0.51      0.00
    0   -8    4     -0.27      0.00
    1   -8    4     -0.76      0.00
    2   -8    4      0.39      0.00
    3   -8    4      0.26      0.00
    4   -8    4      0.22      0.00
    5   -8    4     -0.28      0.00
   -9   -7    4      0.59      0.00
   -8   -7    4      0.33      0.00
   -7   -7    4     -0.86      0.00
   -6   -7    4     -0.25      0.00
   -5   -7    4      2.05      0.00
   -4   -7    4     -1.27      0.00
   -3   -7    4     -1.87      0.00
   -2   -7    4      1.96      0.00
   -1   -7    4      0.11      0.00
    0   -7    4     -0.13      0.00
    1   -7    4     -1.17      0.00
    2   -7    4      0.85      0.00
    3   -7    4      0.05      0.00
    4   -7    4      0.11      0.00
    5   -7    4     -0.48      0.00
   -9   -6    4      0.57      0.00
   -8   -6    4      0.47      0.00
   -7   -6    4     -1.30      0.00
   -6   -6    4      0.00      0.00
   -5   -6    4      2.21      0.00
   -4   -6    4     -1.53      0.00
   -3   -6    4     -2.91      0.00
   -2   -6    4      3.68      0.00
   -1   -6    4     -0.09      0.00
    0   -6    4     -0.57      0.00
    1   -6    4     -1.70      0.00
    2   -6    4      1.50      0.00
    3   -6    4     -0.23      0.00
    4   -6    4     -0.08      0.00
    5   -6    4     -0.44      0.00
    6   -6    4      0.28      0.00
   -9   -5    4      0.48      0.00
   -8   -5    4      0.37      0.00
   -7   -5    4     -1.41      0.00
   -6   -5    4      0.27      0.00
   -5   -5    4      2.03      0.00
   -4   -5    4     -1.00      0.00
   -3   -5    4     -4.33      0.00
   -2   -5    4      5.80      0.00
   -1   -5    4     -0.86      0.00
    0   -5    4     -1.16      0.00
    1   -5    4     -2.26      0.00
    2   -5    4      2.63      0.00
    3   -5    4     -0.59      0.00
    4   -5    4     -0.10      0.00
    5   -5    4     -0.35      0.00
    6   -5    4      0.53      0.00
    7   -5    4     -0.20      0.00
   -9   -4    4      0.32      0.00
   -8   -4    4      0.35      0.00
   -7   -4    4     -1.30      0.00
   -6   -4    4      0.56      0.00
   -5   -4    4      1.85      0.00
   -4   -4    4     -0.53      0.00
   -3   -4    4     -5.44      0.00
   -2   -4    4      7.28      0.00
   -1   -4    4     -1.81      0.00
    0   -4    4     -1.21      0.00
    1   -4    4     -2.95      0.00
    2   -4    4      4.26      0.00
    3   -4    4     -1.10      0.00
    4   -4    4     -0.16      0.00
    5   -4    4     -0.50      0.00
    6   -4    4      0.63      0.00
    7   -4    4     -0.32      0.00
   -9   -3    4      0.20      0.00
   -8   -3    4      0.58      0.00
   -7   -3    4     -1.43      0.00
   -6   -3    4      1.09      0.00
   -5   -3    4      1.45      0.00
   -4   -3    4     -0.53      0.00
   -3   -3    4     -5.69      0.00
   -2   -3    4      7.45      0.00
   -1   -3    4     -1.51      0.00
    0   -3    4     -1.45      0.00
    1   -3    4     -3.46      0.00
    2   -3    4      5.73      0.00
    3   -3    4     -1.84      0.00
    4   -3    4     -0.58      0.00
    5   -3    4     -0.67      0.00
    6   -3    4      0.79      0.00
    7   -3    4     -0.31      0.00
    8   -3    4     -0.07      0.00
   -9   -2    4      0.23      0.00
   -8   -2    4      0.69      0.00
   -7   -2    4     -1.64      0.00
   -6   -2    4      1.64      0.00
   -5   -2    4      0.78      0.00
   -4   -2    4     -0.55      0.00
   -3   -2    4     -5.52      0.00
   -2   -2    4      7.36      0.00
   -1   -2    4     -0.62      0.00
    0   -2    4     -2.40      0.00
    1   -2    4     -3.46      0.00
    2   -2    4      6.29      0.00
    3   -2    4     -2.49      0.00
    4   -2    4     -1.14      0.00
    5   -2    4     -0.42      0.00
    6   -2    4      1.09      0.00
    7   -2    4     -0.29      0.00
    8   -2    4      0.01      0.00
   -9   -1    4      0.33      0.00
   -8   -1    4      0.45      0.00
   -7   -1    4     -1.45      0.00
   -6   -1    4      1.76      0.00
   -5   -1    4      0.34      0.00
   -4   -1    4     -0.68      0.00
   -3   -1    4     -4.97      0.00
   -2   -1    4      7.42      0.00
   -1   -1    4     -0.76      0.00
    0   -1    4     -3.16      0.00
    1   -1    4     -3.10      0.00
    2   -1    4      6.10      0.00
    3   -1    4     -2.67      0.00
    4   -1    4     -1.46      0.00
    5   -1    4      0.36      0.00
    6   -1    4      1.25      0.00
    7   -1    4     -0.41      0.00
    8   -1    4      0.09      0.00
    9   -1    4      0.22      0.00
   -9    0    4      0.34      0.00
   -8    0    4      0.07      0.00
   -7    0    4     -0.85      0.00
   -6    0    4      1.41      0.00
   -5    0    4      0.21      0.00
   -4    0    4     -1.15      0.00
   -3    0    4     -3.67      0.00
   -2    0    4      6.63      0.00
   -1    0    4     -1.57      0.00
    0    0    4     -3.12      0.00
    1    0    4     -2.12      0.00
    2    0    4      5.37      0.00
    3    0    4     -2.38      0.00
    4    0    4     -1.52      0.00
    5    0    4      1.31      0.00
    6    0    4      0.88      0.00
    7    0    4     -0.58      0.00
    8    0    4      0.11      0.00
    9    0    4      0.28      0.00
   -8    1    4     -0.09      0.00
   -7    1    4     -0.29      0.00
   -6    1    4      0.81      0.00
   -5    1    4      0.13      0.00
   -4    1    4     -1.64      0.00
   -3    1    4     -2.00      0.00
   -2    1    4      5.08      0.00
   -1    1    4     -2.05      0.00
    0    1    4     -2.54      0.00
    1    1    4     -0.15      0.00
    2    1    4      3.49      0.00
    3    1    4     -1.68      0.00
    4    1    4     -1.51      0.00
    5    1    4      1.94      0.00
    6    1    4      0.16      0.00
    7    1    4     -0.53      0.00
    8    1    4      0.17      0.00
    9    1    4      0.43      0.00
   -8    2    4      0.03      0.00
   -7    2    4     -0.20      0.00
   -6    2    4      0.32      0.00
   -5    2    4      0.08      0.00
   -4    2    4     -1.86      0.00
   -3    2    4     -0.30      0.00
   -2    2    4      3.60      0.00
   -1    2    4     -2.30      0.00
    0    2    4     -1.60      0.00
    1    2    4      1.99      0.00
    2    2    4      0.47      0.00
    3    2    4     -0.50      0.00
    4    2    4     -1.60      0.00
    5    2    4      2.17      0.00
    6    2    4     -0.36      0.00
    7    2    4     -0.24      0.00
    8    2    4      0.22      0.00
    9    2    4      0.47      0.00
   10    2    4     -0.43      0.00
   -8    3    4      0.13      0.00
   -7    3    4     -0.38      0.00
   -6    3    4      0.30      0.00
   -5    3    4     -0.03      0.00
   -4    3    4     -1.60      0.00
   -3    3    4      1.20      0.00
   -2    3    4      2.05      0.00
   -1    3    4     -2.31      0.00
    0    3    4     -0.73      0.00
    1    3    4      3.08      0.00
    2    3    4     -2.12      0.00
    3    3    4      0.64      0.00
    4    3    4     -1.66      0.00
    5    3    4      2.33      0.00
    6    3    4     -0.58      0.00
    7    3    4      0.04      0.00
    8    3    4      0.11      0.00
    9    3    4      0.27      0.00
   10    3    4     -0.47      0.00
   -7    4    4     -0.34      0.00
   -6    4    4      0.44      0.00
   -5    4    4     -0.23      0.00
   -4    4    4     -0.83      0.00
   -3    4    4      1.70      0.00
   -2    4    4      0.57      0.00
   -1    4    4     -1.87      0.00
    0    4    4     -0.51      0.00
    1    4    4      3.29      0.00
    2    4    4     -2.99      0.00
    3    4    4      0.94      0.00
    4    4    4     -1.35      0.00
    5    4    4      2.46      0.00
    6    4    4     -0.85      0.00
    7    4    4      0.10      0.00
    8    4    4     -0.11      0.00
    9    4    4      0.02      0.00
   10    4    4     -0.30      0.00
   -6    5    4      0.29      0.00
   -5    5    4     -0.24      0.00
   -4    5    4     -0.26      0.00
   -3    5    4      1.20      0.00
   -2    5    4     -0.07      0.00
   -1    5    4     -1.45      0.00
    0    5    4     -0.55      0.00
    1    5    4      3.27      0.00
    2    5    4     -2.73      0.00
    3    5    4      0.48      0.00
    4    5    4     -0.72      0.00
    5    5    4      2.28      0.00
    6    5    4     -1.22      0.00
    7    5    4     -0.05      0.00
    8    5    4     -0.12      0.00
    9    5    4     -0.02      0.00
   10    5    4     -0.12      0.00
   -6    6    4      0.11      0.00
   -5    6    4     -0.11      0.00
   -4    6    4     -0.33      0.00
   -3    6    4      0.98      0.00
   -2    6    4     -0.20      0.00
   -1    6    4     -1.28      0.00
    0    6    4     -0.25      0.00
    1    6    4      2.95      0.00
    2    6    4     -2.42      0.00
    3    6    4      0.11      0.00
    4    6    4     -0.21      0.00
    5    6    4      1.79      0.00
    6    6    4     -1.43      0.00
    7    6    4     -0.20      0.00
    8    6    4      0.23      0.00
    9    6    4      0.03      0.00
   10    6    4     -0.12      0.00
   -5    7    4     -0.22      0.00
   -4    7    4     -0.29      0.00
   -3    7    4      1.22      0.00
   -2    7    4     -0.55      0.00
   -1    7    4     -1.02      0.00
    0    7    4      0.17      0.00
    1    7    4      2.12      0.00
    2    7    4     -2.11      0.00
    3    7    4      0.14      0.00
    4    7    4      0.04      0.00
    5    7    4      1.20      0.00
    6    7    4     -1.30      0.00
    7    7    4     -0.23      0.00
    8    7    4      0.62      0.00
    9    7    4     -0.05      0.00
   -4    8    4      0.15      0.00
   -3    8    4      0.97      0.00
   -2    8    4     -0.75      0.00
   -1    8    4     -0.81      0.00
    0    8    4      0.49      0.00
    1    8    4      1.14      0.00
    2    8    4     -1.51      0.00
    3    8    4      0.20      0.00
    4    8    4      0.24      0.00
    5    8    4      0.61      0.00
    6    8    4     -0.92      0.00
    7    8    4     -0.27      0.00
    8    8    4      0.78      0.00
    9    8    4     -0.21      0.00
   -3    9    4      0.41      0.00
   -2    9    4     -0.58      0.00
   -1    9    4     -0.72      0.00
    0    9    4      0.67      0.00
    1    9    4      0.51      0.00
    2    9    4     -0.90      0.00
    3    9    4      0.10      0.00
    4    9    4      0.35      0.00
    5    9    4      0.20      0.00
    6    9    4     -0.55      0.00
    7    9    4     -0.40      0.00
    8    9    4      0.79      0.00
    9    9    4     -0.28      0.00
   -2   10    4     -0.41      0.00
   -1   10    4     -0.40      0.00
    0   10    4      0.49      0.00
    1   10    4      0.38      0.00
    2   10    4     -0.65      0.00
    3   10    4     -0.02      0.00
    4   10    4      0.38      0.00
    5   10    4      0.00      0.00
    6   10    4     -0.32      0.00
    7   10    4     -0.43      0.00
    8   10    4      0.71      0.00
    0   11    4      0.09      0.00
    1   11    4      0.41      0.00
    2   11    4     -0.60      0.00
    3   11    4     -0.09      0.00
    4   11    4      0.46      0.00
    5   11    4     -0.19      0.00
    6   11    4     -0.11      0.00
    7   11    4     -0.29      0.00
    2   12    4     -0.39      0.00
    3   12    4     -0.07      0.00
    4   12    4      0.42      0.00
    5   12    4     -0.36      0.00
   -3  -12    5     -0.56      0.00
   -6  -11    5      0.26      0.00
   -5  -11    5     -0.24      0.00
   -4  -11    5      0.65      0.00
   -3  -11    5     -0.73      0.00
   -2  -11    5     -0.17      0.00
   -1  -11    5     -0.04      0.00
    0  -11    5      0.08      0.00
   -7  -10    5     -0.05      0.00
   -6  -10    5     -0.03      0.00
   -5  -10    5      0.01      0.00
   -4  -10    5      0.25      0.00
   -3  -10    5     -0.34      0.00
   -2  -10    5     -0.57      0.00
   -1  -10    5      0.53      0.00
    0  -10    5      0.25      0.00
    1  -10    5      0.04      0.00
    2  -10    5     -0.37      0.00
   -8   -9    5      0.18      0.00
   -7   -9    5     -0.14      0.00
   -6   -9    5     -0.19      0.00
   -5   -9    5      0.28      0.00
   -4   -9    5      0.15      0.00
   -3   -9    5     -0.13      0.00
   -2   -9    5     -0.74      0.00
   -1   -9    5      0.99      0.00
    0   -9    5      0.16      0.00
    1   -9    5     -0.49      0.00
    2   -9    5     -0.10      0.00
    3   -9    5      0.05      0.00
   -8   -8    5      0.34      0.00
   -7   -8    5     -0.30      0.00
   -6   -8    5     -0.27      0.00
   -5   -8    5      0.74      0.00
   -4   -8    5      0.26      0.00
   -3   -8    5     -0.76      0.00
   -2   -8    5     -0.20      0.00
   -1   -8    5      0.69      0.00
    0   -8    5      0.24      0.00
    1   -8    5     -0.91      0.00
    2   -8    5      0.30      0.00
    3   -8    5     -0.12      0.00
    4   -8    5      0.48      0.00
   -9   -7    5      0.38      0.00
   -8   -7    5      0.61      0.00
   -7   -7    5     -0.57      0.00
   -6   -7    5     -0.29      0.00
   -5   -7    5      1.32      0.00
   -4   -7    5     -0.04      0.00
   -3   -7    5     -1.67      0.00
   -2   -7    5      0.65      0.00
   -1   -7    5      0.26      0.00
    0   -7    5      0.65      0.00
    1   -7    5     -1.28      0.00
    2   -7    5      0.62      0.00
    3   -7    5     -0.13      0.00
    4   -7    5      0.43      0.00
    5   -7    5     -0.31      0.00
   -9   -6    5      0.39      0.00
   -8   -6    5      0.74      0.00
   -7   -6    5     -0.88      0.00
   -6   -6    5     -0.21      0.00
   -5   -6    5      1.52      0.00
   -4   -6    5     -0.35      0.00
   -3   -6    5     -2.57      0.00
   -2   -6    5      1.73      0.00
   -1   -6    5      0.42      0.00
    0   -6    5      0.62      0.00
    1   -6    5     -1.80      0.00
    2   -6    5      0.90      0.00
    3   -6    5     -0.13      0.00
    4   -6    5      0.10      0.00
    5   -6    5     -0.43      0.00
    6   -6    5      0.28      0.00
   -9   -5    5      0.27      0.00
   -8   -5    5      0.69      0.00
   -7   -5    5     -1.03      0.00
   -6   -5    5     -0.17      0.00
   -5   -5    5      1.49      0.00
   -4   -5    5     -0.16      0.00
   -3   -5    5     -3.75      0.00
   -2   -5    5      3.55      0.00
   -1   -5    5      0.42      0.00
    0   -5    5     -0.05      0.00
    1   -5    5     -2.55      0.00
    2   -5    5      1.50      0.00
    3   -5    5     -0.15      0.00
    4   -5    5     -0.06      0.00
    5   -5    5     -0.36      0.00
    6   -5    5      0.56      0.00
    7   -5    5     -0.33      0.00
   -9   -4    5     -0.03      0.00
   -8   -4    5      0.82      0.00
   -7   -4    5     -1.20      0.00
   -6   -4    5     -0.05      0.00
   -5   -4    5      1.64      0.00
   -4   -4    5      0.01      0.00
   -3   -4    5     -4.79      0.00
   -2   -4    5      5.40      0.00
   -1   -4    5     -0.14      0.00
    0   -4    5     -0.78      0.00
    1   -4    5     -3.38      0.00
    2   -4    5      2.77      0.00
    3   -4    5     -0.10      0.00
    4   -4    5     -0.11      0.00
    5   -4    5     -0.40      0.00
    6   -4    5      0.62      0.00
    7   -4    5     -0.33      0.00
   -9   -3    5     -0.21      0.00
   -8   -3    5      1.14      0.00
   -7   -3    5     -1.58      0.00
   -6   -3    5      0.42      0.00
   -5   -3    5      1.68      0.00
   -4   -3    5     -0.13      0.00
   -3   -3    5     -5.19      0.00
   -2   -3    5      6.07      0.00
   -1   -3    5     -0.06      0.00
    0   -3    5     -1.66      0.00
    1   -3    5     -3.82      0.00
    2   -3    5      4.29      0.00
    3   -3    5     -0.08      0.00
    4   -3    5     -0.58      0.00
    5   -3    5     -0.57      0.00
    6   -3    5      0.55      0.00
    7   -3    5     -0.30      0.00
    8   -3    5     -0.23      0.00
   -9   -2    5     -0.07      0.00
   -8   -2    5      1.18      0.00
   -7   -2    5     -1.80      0.00
   -6   -2    5      0.90      0.00
   -5   -2    5      1.46      0.00
   -4   -2    5     -0.26      0.00
   -3   -2    5     -5.18      0.00
   -2   -2    5      5.82      0.00
   -1   -2    5      1.04      0.00
    0   -2    5     -2.99      0.00
    1   -2    5     -3.56      0.00
    2   -2    5      5.22      0.00
    3   -2    5     -0.17      0.00
    4   -2    5     -1.49      0.00
    5   -2    5     -0.58      0.00
    6   -2    5      0.62      0.00
    7   -2    5     -0.28      0.00
    8   -2    5     -0.17      0.00
   -9   -1    5      0.20      0.00
   -8   -1    5      0.80      0.00
   -7   -1    5     -1.55      0.00
   -6   -1    5      0.94      0.00
   -5   -1    5      1.40      0.00
   -4   -1    5     -0.49      0.00
   -3   -1    5     -4.83      0.00
   -2   -1    5      5.38      0.00
   -1   -1    5      1.94      0.00
    0   -1    5     -4.21      0.00
    1   -1    5     -3.02      0.00
    2   -1    5      5.31      0.00
    3   -1    5     -0.18      0.00
    4   -1    5     -2.46      0.00
    5   -1    5     -0.16      0.00
    6   -1    5      0.88      0.00
    7   -1    5     -0.37      0.00
    8   -1    5      0.03      0.00
    9   -1    5      0.35      0.00
   -9    0    5      0.34      0.00
   -8    0    5      0.30      0.00
   -7    0    5     -0.99      0.00
   -6    0    5      0.74      0.00
   -5    0    5      1.51      0.00
   -4    0    5     -1.05      0.00
   -3    0    5     -3.95      0.00
   -2    0    5      4.70      0.00
   -1    0    5      1.88      0.00
    0    0    5     -4.65      0.00
    1    0    5     -2.32      0.00
    2    0    5      4.92      0.00
    3    0    5      0.04      0.00
    4    0    5     -3.17      0.00
    5    0    5      0.66      0.00
    6    0    5      0.95      0.00
    7    0    5     -0.52      0.00
    8    0    5      0.10      0.00
    9    0    5      0.31      0.00
   -8    1    5      0.02      0.00
   -7    1    5     -0.45      0.00
   -6    1    5      0.49      0.00
   -5    1    5      1.38      0.00
   -4    1    5     -1.70      0.00
   -3    1    5     -2.77      0.00
   -2    1    5      3.87      0.00
   -1    1    5      1.19      0.00
    0    1    5     -4.29      0.00
    1    1    5     -1.01      0.00
    2    1    5      3.94      0.00
    3    1    5      0.39      0.00
    4    1    5     -3.53      0.00
    5    1    5      1.41      0.00
    6    1    5      0.61      0.00
    7    1    5     -0.53      0.00
    8    1    5      0.02      0.00
    9    1    5      0.47      0.00
   -8    2    5      0.03      0.00
   -7    2    5     -0.24      0.00
   -6    2    5      0.27      0.00
   -5    2    5      0.97      0.00
   -4    2    5     -2.13      0.00
   -3    2    5     -1.37      0.00
   -2    2    5      3.10      0.00
   -1    2    5      0.46      0.00
    0    2    5     -3.54      0.00
    1    2    5      0.75      0.00
    2    2    5      2.15      0.00
    3    2    5      0.77      0.00
    4    2    5     -3.57      0.00
    5    2    5      1.74      0.00
    6    2    5      0.21      0.00
    7    2    5     -0.28      0.00
    8    2    5     -0.03      0.00
    9    2    5      0.66      0.00
   -7    3    5     -0.38      0.00
   -6    3    5      0.27      0.00
   -5    3    5      0.43      0.00
   -4    3    5     -1.94      0.00
   -3    3    5      0.11      0.00
   -2    3    5      2.12      0.00
   -1    3    5      0.15      0.00
    0    3    5     -2.89      0.00
    1    3    5      1.99      0.00
    2    3    5      0.36      0.00
    3    3    5      1.05      0.00
    4    3    5     -3.41      0.00
    5    3    5      1.85      0.00
    6    3    5      0.05      0.00
    7    3    5      0.08      0.00
    8    3    5     -0.03      0.00
    9    3    5      0.52      0.00
   10    3    5     -0.20      0.00
   -7    4    5     -0.43      0.00
   -6    4    5      0.38      0.00
   -5    4    5      0.00      0.00
   -4    4    5     -1.08      0.00
   -3    4    5      0.81      0.00
   -2    4    5      1.08      0.00
   -1    4    5      0.17      0.00
    0    4    5     -2.62      0.00
    1    4    5      2.35      0.00
    2    4    5     -0.40      0.00
    3    4    5      0.91      0.00
    4    4    5     -2.96      0.00
    5    4    5      2.02      0.00
    6    4    5      0.00      0.00
    7    4    5      0.24      0.00
    8    4    5     -0.13      0.00
    9    4    5      0.15      0.00
   10    4    5     -0.04      0.00
   -6    5    5      0.30      0.00
   -5    5    5      0.01      0.00
   -4    5    5     -0.44      0.00
   -3    5    5      0.59      0.00
   -2    5    5      0.53      0.00
   -1    5    5      0.06      0.00
    0    5    5     -2.35      0.00
    1    5    5      2.30      0.00
    2    5    5     -0.36      0.00
    3    5    5      0.46      0.00
    4    5    5     -2.24      0.00
    5    5    5      2.01      0.00
    6    5    5     -0.12      0.00
    7    5    5      0.03      0.00
    8    5    5     -0.26      0.00
    9    5    5     -0.01      0.00
   10    5    5      0.05      0.00
   -6    6    5      0.17      0.00
   -5    6    5      0.16      0.00
   -4    6    5     -0.55      0.00
   -3    6    5      0.53      0.00
   -2    6    5      0.27      0.00
   -1    6    5     -0.14      0.00
    0    6    5     -1.72      0.00
    1    6    5      2.11      0.00
    2    6    5     -0.36      0.00
    3    6    5      0.12      0.00
    4    6    5     -1.48      0.00
    5    6    5      1.65      0.00
    6    6    5     -0.24      0.00
    7    6    5     -0.34      0.00
    8    6    5     -0.17      0.00
    9    6    5      0.11      0.00
   10    6    5     -0.05      0.00
   -5    7    5      0.01      0.00
   -4    7    5     -0.62      0.00
   -3    7    5      0.83      0.00
   -2    7    5     -0.03      0.00
   -1    7    5     -0.23      0.00
    0    7    5     -0.92      0.00
    1    7    5      1.57      0.00
    2    7    5     -0.49      0.00
    3    7    5      0.00      0.00
    4    7    5     -0.83      0.00
    5    7    5      1.09      0.00
    6    7    5     -0.27      0.00
    7    7    5     -0.55      0.00
    8    7    5      0.09      0.00
    9    7    5      0.16      0.00
   -4    8    5     -0.19      0.00
   -3    8    5      0.77      0.00
   -2    8    5     -0.12      0.00
   -1    8    5     -0.47      0.00
    0    8    5     -0.18      0.00
    1    8    5      0.78      0.00
    2    8    5     -0.37      0.00
    3    8    5     -0.10      0.00
    4    8    5     -0.29      0.00
    5    8    5      0.56      0.00
    6    8    5     -0.18      0.00
    7    8    5     -0.60      0.00
    8    8    5      0.28      0.00
    9    8    5      0.04      0.00
   -3    9    5      0.43      0.00
   -2    9    5     -0.09      0.00
   -1    9    5     -0.70      0.00
    0    9    5      0.31      0.00
    1    9    5      0.25      0.00
    2    9    5     -0.15      0.00
    3    9    5     -0.20      0.00
    4    9    5     -0.01      0.00
    5    9    5      0.27      0.00
    6    9    5     -0.05      0.00
    7    9    5     -0.68      0.00
    8    9    5      0.39      0.00
    9    9    5     -0.04      0.00
   -2   10    5     -0.22      0.00
   -1   10    5     -0.45      0.00
    0   10    5      0.31      0.00
    1   10    5      0.23      0.00
    2   10    5     -0.15      0.00
    3   10    5     -0.27      0.00
    4   10    5      0.09      0.00
    5   10    5      0.15      0.00
    6   10    5      0.01      0.00
    7   10    5     -0.68      0.00
    8   10    5      0.44      0.00
    0   11    5      0.05      0.00
    1   11    5      0.33      0.00
    2   11    5     -0.26      0.00
    3   11    5     -0.33      0.00
    4   11    5      0.30      0.00
    5   11    5     -0.09      0.00
    6   11    5      0.10      0.00
    7   11    5     -0.45      0.00
    3   12    5     -0.27      0.00
    4   12    5      0.40      0.00
   -6  -11    6      0.67      0.00
   -5  -11    6     -0.39      0.00
   -4  -11    6      0.58      0.00
   -3  -11    6     -0.26      0.00
   -2  -11    6     -0.11      0.00
   -1  -11    6     -0.25      0.00
    0  -11    6     -0.16      0.00
   -7  -10    6     -0.16      0.00
   -6  -10    6      0.56      0.00
   -5  -10    6     -0.41      0.00
   -4  -10    6      0.37      0.00
   -3  -10    6      0.07      0.00
   -2  -10    6     -0.68      0.00
   -1  -10    6      0.05      0.00
    0  -10    6      0.34      0.00
    1  -10    6      0.03      0.00
    2  -10    6     -0.05      0.00
   -8   -9    6     -0.01      0.00
   -7   -9    6     -0.02      0.00
   -6   -9    6      0.25      0.00
   -5   -9    6     -0.36      0.00
   -4   -9    6      0.51      0.00
   -3   -9    6      0.23      0.00
   -2   -9    6     -1.05      0.00
   -1   -9    6      0.53      0.00
    0   -9    6      0.65      0.00
    1   -9    6     -0.54      0.00
    2   -9    6      0.06      0.00
    3   -9    6     -0.32      0.00
   -8   -8    6      0.15      0.00
   -7   -8    6      0.03      0.00
   -6   -8    6     -0.11      0.00
   -5   -8    6     -0.07      0.00
   -4   -8    6      0.99      0.00
   -3   -8    6     -0.27      0.00
   -2   -8    6     -0.72      0.00
   -1   -8    6      0.32      0.00
    0   -8    6      0.83      0.00
    1   -8    6     -1.01      0.00
    2   -8    6      0.22      0.00
    3   -8    6     -0.38      0.00
    4   -8    6      0.58      0.00
   -9   -7    6      0.07      0.00
   -8   -7    6      0.40      0.00
   -7   -7    6     -0.06      0.00
   -6   -7    6     -0.27      0.00
   -5   -7    6      0.40      0.00
   -4   -7    6      1.04      0.00
   -3   -7    6     -0.90      0.00
   -2   -7    6     -0.29      0.00
   -1   -7    6     -0.27      0.00
    0   -7    6      1.24      0.00
    1   -7    6     -1.16      0.00
    2   -7    6      0.29      0.00
    3   -7    6     -0.09      0.00
    4   -7    6      0.61      0.00
    5   -7    6     -0.28      0.00
   -9   -6    6      0.17      0.00
   -8   -6    6      0.49      0.00
   -7   -6    6     -0.15      0.00
   -6   -6    6     -0.25      0.00
   -5   -6    6      0.61      0.00
   -4   -6    6      0.71      0.00
   -3   -6    6     -1.36      0.00
   -2   -6    6     -0.07      0.00
   -1   -6    6     -0.14      0.00
    0   -6    6      1.52      0.00
    1   -6    6     -1.23      0.00
    2   -6    6      0.21      0.00
    3   -6    6      0.21      0.00
    4   -6    6      0.22      0.00
    5   -6    6     -0.47      0.00
    6   -6    6      0.27      0.00
   -9   -5    6      0.09      0.00
   -8   -5    6      0.47      0.00
   -7   -5    6     -0.18      0.00
   -6   -5    6     -0.37      0.00
   -5   -5    6      0.64      0.00
   -4   -5    6      0.59      0.00
   -3   -5    6     -2.15      0.00
   -2   -5    6      0.79      0.00
   -1   -5    6      0.48      0.00
    0   -5    6      1.24      0.00
    1   -5    6     -1.68      0.00
    2   -5    6      0.19      0.00
    3   -5    6      0.34      0.00
    4   -5    6     -0.08      0.00
    5   -5    6     -0.51      0.00
    6   -5    6      0.41      0.00
    7   -5    6     -0.32      0.00
   -9   -4    6     -0.25      0.00
   -8   -4    6      0.71      0.00
   -7   -4    6     -0.44      0.00
   -6   -4    6     -0.43      0.00
   -5   -4    6      0.86      0.00
   -4   -4    6      0.64      0.00
   -3   -4    6     -3.24      0.00
   -2   -4    6      2.42      0.00
   -1   -4    6      0.74      0.00
    0   -4    6      0.53      0.00
    1   -4    6     -2.63      0.00
    2   -4    6      0.68      0.00
    3   -4    6      0.59      0.00
    4   -4    6     -0.14      0.00
    5   -4    6     -0.45      0.00
    6   -4    6      0.51      0.00
    7   -4    6     -0.14      0.00
   -9   -3    6     -0.46      0.00
   -8   -3    6      1.07      0.00
   -7   -3    6     -0.92      0.00
   -6   -3    6     -0.15      0.00
   -5   -3    6      1.04      0.00
   -4   -3    6      0.68      0.00
   -3   -3    6     -4.14      0.00
   -2   -3    6      3.66      0.00
   -1   -3    6      1.06      0.00
    0   -3    6     -0.59      0.00
    1   -3    6     -3.50      0.00
    2   -3    6      1.78      0.00
    3   -3    6      1.07      0.00
    4   -3    6     -0.43      0.00
    5   -3    6     -0.37      0.00
    6   -3    6      0.40      0.00
    7   -3    6     -0.08      0.00
    8   -3    6     -0.19      0.00
   -9   -2    6     -0.27      0.00
   -8   -2    6      1.07      0.00
   -7   -2    6     -1.14      0.00
   -6   -2    6      0.09      0.00
   -5   -2    6      1.08      0.00
   -4   -2    6      0.69      0.00
   -3   -2    6     -4.53      0.00
   -2   -2    6      3.86      0.00
   -1   -2    6      2.09      0.00
    0   -2    6     -2.14      0.00
    1   -2    6     -3.70      0.00
    2   -2    6      2.91      0.00
    3   -2    6      1.51      0.00
    4   -2    6     -1.17      0.00
    5   -2    6     -0.33      0.00
    6   -2    6      0.26      0.00
    7   -2    6     -0.16      0.00
    8   -2    6     -0.18      0.00
   -9   -1    6      0.04      0.00
   -8   -1    6      0.73      0.00
   -7   -1    6     -1.00      0.00
   -6   -1    6     -0.01      0.00
   -5   -1    6      1.32      0.00
   -4   -1    6      0.45      0.00
   -3   -1    6     -4.24      0.00
   -2   -1    6      3.34      0.00
   -1   -1    6      3.25      0.00
    0   -1    6     -3.56      0.00
    1   -1    6     -3.47      0.00
    2   -1    6      3.52      0.00
    3   -1    6      1.87      0.00
    4   -1    6     -2.17      0.00
    5   -1    6     -0.25      0.00
    6   -1    6      0.36      0.00
    7   -1    6     -0.27      0.00
    8   -1    6      0.05      0.00
    9   -1    6      0.23      0.00
   -8    0    6      0.34      0.00
   -7    0    6     -0.78      0.00
   -6    0    6     -0.09      0.00
   -5    0    6      1.69      0.00
   -4    0    6     -0.10      0.00
   -3    0    6     -3.41      0.00
   -2    0    6      2.48      0.00
   -1    0    6      3.70      0.00
    0    0    6     -4.31      0.00
    1    0    6     -3.17      0.00
    2    0    6      3.71      0.00
    3    0    6      2.25      0.00
    4    0    6     -3.16      0.00
    5    0    6      0.09      0.00
    6    0    6      0.60      0.00
    7    0    6     -0.31      0.00
    8    0    6      0.08      0.00
    9    0    6      0.16      0.00
   -8    1    6      0.04      0.00
   -7    1    6     -0.48      0.00
   -6    1    6      0.03      0.00
   -5    1    6      1.75      0.00
   -4    1    6     -0.74      0.00
   -3    1    6     -2.56      0.00
   -2    1    6      1.70      0.00
   -1    1    6      3.43      0.00
    0    1    6     -4.42      0.00
    1    1    6     -2.44      0.00
    2    1    6      3.58      0.00
    3    1    6      2.54      0.00
    4    1    6     -3.86      0.00
    5    1    6      0.58      0.00
    6    1    6      0.59      0.00
    7    1    6     -0.24      0.00
    8    1    6     -0.22      0.00
    9    1    6      0.32      0.00
   -8    2    6     -0.06      0.00
   -7    2    6     -0.22      0.00
   -6    2    6      0.12      0.00
   -5    2    6      1.41      0.00
   -4    2    6     -1.34      0.00
   -3    2    6     -1.74      0.00
   -2    2    6      1.26      0.00
   -1    2    6      2.93      0.00
    0    2    6     -4.19      0.00
    1    2    6     -1.12      0.00
    2    2    6      2.92      0.00
    3    2    6      2.57      0.00
    4    2    6     -4.11      0.00
    5    2    6      0.83      0.00
    6    2    6      0.38      0.00
    7    2    6     -0.04      0.00
    8    2    6     -0.44      0.00
    9    2    6      0.60      0.00
   -7    3    6     -0.23      0.00
   -6    3    6      0.18      0.00
   -5    3    6      0.85      0.00
   -4    3    6     -1.57      0.00
   -3    3    6     -0.74      0.00
   -2    3    6      1.00      0.00
   -1    3    6      2.50      0.00
    0    3    6     -3.80      0.00
    1    3    6      0.03      0.00
    2    3    6      1.94      0.00
    3    3    6      2.37      0.00
    4    3    6     -4.03      0.00
    5    3    6      0.85      0.00
    6    3    6      0.29      0.00
    7    3    6      0.21      0.00
    8    3    6     -0.33      0.00
    9    3    6      0.54      0.00
   -7    4    6     -0.30      0.00
   -6    4    6      0.27      0.00
   -5    4    6      0.35      0.00
   -4    4    6     -1.14      0.00
   -3    4    6     -0.04      0.00
   -2    4    6      0.76      0.00
   -1    4    6      2.02      0.00
    0    4    6     -3.32      0.00
    1    4    6      0.44      0.00
    2    4    6      1.29      0.00
    3    4    6      1.99      0.00
    4    4    6     -3.68      0.00
    5    4    6      0.92      0.00
    6    4    6      0.42      0.00
    7    4    6      0.38      0.00
    8    4    6     -0.19      0.00
    9    4    6      0.20      0.00
   10    4    6      0.28      0.00
   -6    5    6      0.24      0.00
   -5    5    6      0.29      0.00
   -4    5    6     -0.66      0.00
   -3    5    6      0.09      0.00
   -2    5    6      0.57      0.00
   -1    5    6      1.38      0.00
    0    5    6     -2.78      0.00
    1    5    6      0.49      0.00
    2    5    6      1.03      0.00
    3    5    6      1.54      0.00
    4    5    6     -3.04      0.00
    5    5    6      0.95      0.00
    6    5    6      0.62      0.00
    7    5    6      0.26      0.00
    8    5    6     -0.30      0.00
    9    5    6      0.06      0.00
   10    5    6      0.25      0.00
   -5    6    6      0.40      0.00
   -4    6    6     -0.72      0.00
   -3    6    6      0.15      0.00
   -2    6    6      0.34      0.00
   -1    6    6      0.85      0.00
    0    6    6     -2.09      0.00
    1    6    6      0.64      0.00
    2    6    6      0.75      0.00
    3    6    6      1.10      0.00
    4    6    6     -2.23      0.00
    5    6    6      0.81      0.00
    6    6    6      0.70      0.00
    7    6    6     -0.10      0.00
    8    6    6     -0.43      0.00
    9    6    6      0.21      0.00
   -5    7    6      0.21      0.00
   -4    7    6     -0.79      0.00
   -3    7    6      0.32      0.00
   -2    7    6      0.21      0.00
   -1    7    6      0.50      0.00
    0    7    6     -1.29      0.00
    1    7    6      0.61      0.00
    2    7    6      0.45      0.00
    3    7    6      0.61      0.00
    4    7    6     -1.40      0.00
    5    7    6      0.56      0.00
    6    7    6      0.59      0.00
    7    7    6     -0.38      0.00
    8    7    6     -0.35      0.00
    9    7    6      0.25      0.00
   -4    8    6     -0.45      0.00
   -3    8    6      0.32      0.00
   -2    8    6      0.36      0.00
   -1    8    6     -0.02      0.00
    0    8    6     -0.48      0.00
    1    8    6      0.25      0.00
    2    8    6      0.37      0.00
    3    8    6      0.11      0.00
    4    8    6     -0.71      0.00
    5    8    6      0.36      0.00
    6    8    6      0.43      0.00
    7    8    6     -0.49      0.00
    8    8    6     -0.18      0.00
    9    8    6      0.09      0.00
   -3    9    6      0.26      0.00
   -2    9    6      0.36      0.00
   -1    9    6     -0.46      0.00
    0    9    6      0.07      0.00
    1    9    6     -0.01      0.00
    2    9    6      0.34      0.00
    3    9    6     -0.15      0.00
    4    9    6     -0.39      0.00
    5    9    6      0.32      0.00
    6    9    6      0.30      0.00
    7    9    6     -0.61      0.00
    8    9    6     -0.02      0.00
   -1   10    6     -0.36      0.00
    0   10    6      0.16      0.00
    1   10    6      0.07      0.00
    2   10    6      0.18      0.00
    3   10    6     -0.22      0.00
    4   10    6     -0.30      0.00
    5   10    6      0.35      0.00
    6   10    6      0.17      0.00
    7   10    6     -0.64      0.00
    8   10    6      0.10      0.00
    1   11    6      0.15      0.00
    2   11    6      0.04      0.00
    3   11    6     -0.31      0.00
    4   11    6     -0.06      0.00
    5   11    6      0.14      0.00
    6   11    6      0.12      0.00
   -5  -11    7     -0.44      0.00
   -4  -11    7      0.55      0.00
   -3  -11    7     -0.03      0.00
   -2  -11    7      0.20      0.00
   -1  -11    7     -0.37      0.00
   -6  -10    7      0.57      0.00
   -5  -10    7     -0.55      0.00
   -4  -10    7      0.41      0.00
   -3  -10    7      0.31      0.00
   -2  -10    7     -0.31      0.00
   -1  -10    7     -0.56      0.00
    0  -10    7      0.54      0.00
    1  -10    7     -0.17      0.00
   -7   -9    7      0.00      0.00
   -6   -9    7      0.33      0.00
   -5   -9    7     -0.76      0.00
   -4   -9    7      0.65      0.00
   -3   -9    7      0.57      0.00
   -2   -9    7     -0.86      0.00
   -1   -9    7     -0.27      0.00
    0   -9    7      1.16      0.00
    1   -9    7     -0.46      0.00
    2   -9    7      0.02      0.00
    3   -9    7     -0.37      0.00
   -8   -8    7     -0.19      0.00
   -7   -8    7      0.20      0.00
   -6   -8    7     -0.06      0.00
   -5   -8    7     -0.85      0.00
   -4   -8    7      1.40      0.00
   -3   -8    7      0.28      0.00
   -2   -8    7     -0.76      0.00
   -1   -8    7     -0.28      0.00
    0   -8    7      1.38      0.00
    1   -8    7     -0.83      0.00
    2   -8    7     -0.21      0.00
    3   -8    7     -0.34      0.00
    4   -8    7      0.54      0.00
   -8   -7    7     -0.06      0.00
   -7   -7    7      0.26      0.00
   -6   -7    7     -0.21      0.00
   -5   -7    7     -0.68      0.00
   -4   -7    7      1.80      0.00
   -3   -7    7     -0.02      0.00
   -2   -7    7     -0.53      0.00
   -1   -7    7     -0.83      0.00
    0   -7    7      1.45      0.00
    1   -7    7     -0.85      0.00
    2   -7    7     -0.38      0.00
    3   -7    7      0.12      0.00
    4   -7    7      0.63      0.00
    5   -7    7     -0.18      0.00
   -8   -6    7     -0.09      0.00
   -7   -6    7      0.36      0.00
   -6   -6    7     -0.15      0.00
   -5   -6    7     -0.53      0.00
   -4   -6    7      1.51      0.00
   -3   -6    7      0.09      0.00
   -2   -6    7     -0.91      0.00
   -1   -6    7     -0.95      0.00
    0   -6    7      1.53      0.00
    1   -6    7     -0.48      0.00
    2   -6    7     -0.53      0.00
    3   -6    7      0.59      0.00
    4   -6    7      0.40      0.00
    5   -6    7     -0.28      0.00
    6   -6    7      0.03      0.00
   -9   -5    7      0.15      0.00
   -8   -5    7     -0.15      0.00
   -7   -5    7      0.50      0.00
   -6   -5    7     -0.24      0.00
   -5   -5    7     -0.46      0.00
   -4   -5    7      1.13      0.00
   -3   -5    7      0.00      0.00
   -2   -5    7     -1.20      0.00
   -1   -5    7     -0.30      0.00
    0   -5    7      1.55      0.00
    1   -5    7     -0.33      0.00
    2   -5    7     -0.75      0.00
    3   -5    7      0.72      0.00
    4   -5    7      0.17      0.00
    5   -5    7     -0.50      0.00
    6   -5    7     -0.05      0.00
   -9   -4    7     -0.16      0.00
   -8   -4    7      0.10      0.00
   -7   -4    7      0.30      0.00
   -6   -4    7     -0.37      0.00
   -5   -4    7     -0.29      0.00
   -4   -4    7      1.16      0.00
   -3   -4    7     -0.83      0.00
   -2   -4    7     -0.58      0.00
   -1   -4    7      0.47      0.00
    0   -4    7      1.40      0.00
    1   -4    7     -0.93      0.00
    2   -4    7     -0.83      0.00
    3   -4    7      0.79      0.00
    4   -4    7      0.08      0.00
    5   -4    7     -0.59      0.00
    6   -4    7      0.04      0.00
    7   -4    7      0.02      0.00
   -9   -3    7     -0.34      0.00
   -8   -3    7      0.43      0.00
   -7   -3    7     -0.12      0.00
   -6   -3    7     -0.27      0.00
   -5   -3    7     -0.13      0.00
   -4   -3    7      1.50      0.00
   -3   -3    7     -2.06      0.00
   -2   -3    7      0.35      0.00
   -1   -3    7      1.28      0.00
    0   -3    7      0.82      0.00
    1   -3    7     -2.00      0.00
    2   -3    7     -0.44      0.00
    3   -3    7      1.19      0.00
    4   -3    7     -0.13      0.00
    5   -3    7     -0.34      0.00
    6   -3    7      0.04      0.00
    7   -3    7      0.16      0.00
    8   -3    7      0.07      0.00
   -8   -2    7      0.44      0.00
   -7   -2    7     -0.25      0.00
   -6   -2    7     -0.25      0.00
   -5   -2    7      0.07      0.00
   -4   -2    7      1.70      0.00
   -3   -2    7     -2.92      0.00
   -2   -2    7      0.68      0.00
   -1   -2    7      2.53      0.00
    0   -2    7     -0.31      0.00
    1   -2    7     -2.82      0.00
    2   -2    7      0.32      0.00
    3   -2    7      1.77      0.00
    4   -2    7     -0.58      0.00
    5   -2    7     -0.05      0.00
    6   -2    7     -0.11      0.00
    7   -2    7      0.07      0.00
    8   -2    7      0.04      0.00
   -8   -1    7      0.31      0.00
   -7   -1    7     -0.21      0.00
   -6   -1    7     -0.52      0.00
   -5   -1    7      0.52      0.00
   -4   -1    7      1.37      0.00
   -3   -1    7     -2.84      0.00
   -2   -1    7      0.32      0.00
   -1   -1    7      3.92      0.00
    0   -1    7     -1.56      0.00
    1   -1    7     -3.22      0.00
    2   -1    7      0.95      0.00
    3   -1    7      2.38      0.00
    4   -1    7     -1.22      0.00
    5   -1    7     -0.02      0.00
    6   -1    7     -0.11      0.00
    7   -1    7     -0.07      0.00
    8   -1    7      0.21      0.00
   -8    0    7      0.22      0.00
   -7    0    7     -0.34      0.00
   -6    0    7     -0.62      0.00
   -5    0    7      1.02      0.00
   -4    0    7      0.76      0.00
   -3    0    7     -2.05      0.00
   -2    0    7     -0.39      0.00
   -1    0    7      4.76      0.00
    0    0    7     -2.47      0.00
    1    0    7     -3.44      0.00
    2    0    7      1.30      0.00
    3    0    7      3.05      0.00
    4    0    7     -2.01      0.00
    5    0    7     -0.03      0.00
    6    0    7      0.08      0.00
    7    0    7     -0.03      0.00
    8    0    7      0.21      0.00
    9    0    7      0.05      0.00
   -8    1    7      0.03      0.00
   -7    1    7     -0.35      0.00
   -6    1    7     -0.40      0.00
   -5    1    7      1.28      0.00
   -4    1    7      0.26      0.00
   -3    1    7     -1.41      0.00
   -2    1    7     -0.97      0.00
   -1    1    7      4.84      0.00
    0    1    7     -3.02      0.00
    1    1    7     -3.28      0.00
    2    1    7      1.53      0.00
    3    1    7      3.63      0.00
    4    1    7     -2.73      0.00
    5    1    7      0.10      0.00
    6    1    7      0.20      0.00
    7    1    7      0.19      0.00
    8    1    7     -0.21      0.00
    9    1    7      0.21      0.00
   -7    2    7     -0.10      0.00
   -6    2    7     -0.22      0.00
   -5    2    7      1.29      0.00
   -4    2    7     -0.27      0.00
   -3    2    7     -1.19      0.00
   -2    2    7     -0.99      0.00
   -1    2    7      4.42      0.00
    0    2    7     -3.22      0.00
    1    2    7     -2.51      0.00
    2    2    7      1.56      0.00
    3    2    7      3.82      0.00
    4    2    7     -3.12      0.00
    5    2    7      0.18      0.00
    6    2    7      0.16      0.00
    7    2    7      0.34      0.00
    8    2    7     -0.56      0.00
    9    2    7      0.43      0.00
   -7    3    7      0.02      0.00
   -6    3    7     -0.13      0.00
   -5    3    7      1.06      0.00
   -4    3    7     -0.80      0.00
   -3    3    7     -0.93      0.00
   -2    3    7     -0.51      0.00
   -1    3    7      3.70      0.00
    0    3    7     -2.95      0.00
    1    3    7     -1.64      0.00
    2    3    7      1.30      0.00
    3    3    7      3.59      0.00
    4    3    7     -3.20      0.00
    5    3    7      0.08      0.00
    6    3    7      0.17      0.00
    7    3    7      0.37      0.00
    8    3    7     -0.43      0.00
    9    3    7      0.39      0.00
   -6    4    7      0.03      0.00
   -5    4    7      0.66      0.00
   -4    4    7     -0.91      0.00
   -3    4    7     -0.48      0.00
   -2    4    7      0.06      0.00
   -1    4    7      2.79      0.00
    0    4    7     -2.39      0.00
    1    4    7     -1.22      0.00
    2    4    7      0.95      0.00
    3    4    7      3.12      0.00
    4    4    7     -3.03      0.00
    5    4    7     -0.03      0.00
    6    4    7      0.39      0.00
    7    4    7      0.39      0.00
    8    4    7     -0.15      0.00
    9    4    7      0.19      0.00
   -6    5    7      0.14      0.00
   -5    5    7      0.46      0.00
   -4    5    7     -0.70      0.00
   -3    5    7     -0.14      0.00
   -2    5    7      0.28      0.00
   -1    5    7      1.87      0.00
    0    5    7     -1.91      0.00
    1    5    7     -0.97      0.00
    2    5    7      0.68      0.00
    3    5    7      2.58      0.00
    4    5    7     -2.59      0.00
    5    5    7     -0.06      0.00
    6    5    7      0.77      0.00
    7    5    7      0.34      0.00
    8    5    7     -0.19      0.00
    9    5    7      0.18      0.00
   -5    6    7      0.44      0.00
   -4    6    7     -0.64      0.00
   -3    6    7     -0.01      0.00
   -2    6    7      0.14      0.00
   -1    6    7      1.24      0.00
    0    6    7     -1.56      0.00
    1    6    7     -0.52      0.00
    2    6    7      0.50      0.00
    3    6    7      1.98      0.00
    4    6    7     -1.97      0.00
    5    6    7     -0.02      0.00
    6    6    7      1.00      0.00
    7    6    7      0.13      0.00
    8    6    7     -0.37      0.00
    9    6    7      0.31      0.00
   -4    7    7     -0.63      0.00
   -3    7    7     -0.04      0.00
   -2    7    7      0.10      0.00
   -1    7    7      0.84      0.00
    0    7    7     -1.09      0.00
    1    7    7     -0.17      0.00
    2    7    7      0.50      0.00
    3    7    7      1.19      0.00
    4    7    7     -1.32      0.00
    5    7    7      0.09      0.00
    6    7    7      0.90      0.00
    7    7    7     -0.08      0.00
    8    7    7     -0.35      0.00
    9    7    7      0.24      0.00
   -3    8    7     -0.11      0.00
   -2    8    7      0.39      0.00
   -1    8    7      0.36      0.00
    0    8    7     -0.53      0.00
    1    8    7     -0.12      0.00
    2    8    7      0.60      0.00
    3    8    7      0.41      0.00
    4    8    7     -0.80      0.00
    5    8    7      0.22      0.00
    6    8    7      0.64      0.00
    7    8    7     -0.21      0.00
    8    8    7     -0.20      0.00
    9    8    7     -0.02      0.00
   -2    9    7      0.48      0.00
   -1    9    7     -0.09      0.00
    0    9    7     -0.15      0.00
    1    9    7     -0.10      0.00
    2    9    7      0.53      0.00
    3    9    7      0.05      0.00
    4    9    7     -0.61      0.00
    5    9    7      0.39      0.00
    6    9    7      0.41      0.00
    7    9    7     -0.35      0.00
    8    9    7     -0.07      0.00
   -1   10    7     -0.16      0.00
    0   10    7      0.00      0.00
    1   10    7      0.05      0.00
    2   10    7      0.29      0.00
    3   10    7      0.02      0.00
    4   10    7     -0.60      0.00
    5   10    7      0.52      0.00
    6   10    7      0.16      0.00
    7   10    7     -0.42      0.00
    1   11    7      0.05      0.00
    2   11    7      0.13      0.00
    3   11    7     -0.05      0.00
    4   11    7     -0.39      0.00
    5   11    7      0.35      0.00
    6   11    7     -0.01      0.00
   -4  -11    8      0.51      0.00
   -3  -11    8     -0.07      0.00
   -2  -11    8      0.46      0.00
   -6  -10    8      0.29      0.00
   -5  -10    8     -0.58      0.00
   -4  -10    8      0.32      0.00
   -3  -10    8      0.34      0.00
   -2  -10    8      0.18      0.00
   -1  -10    8     -0.98      0.00
    0  -10    8      0.63      0.00
    1  -10    8     -0.17      0.00
   -7   -9    8      0.00      0.00
   -6   -9    8      0.25      0.00
   -5   -9    8     -0.99      0.00
   -4   -9    8      0.44      0.00
   -3   -9    8      0.85      0.00
   -2   -9    8     -0.52      0.00
   -1   -9    8     -0.95      0.00
    0   -9    8      1.21      0.00
    1   -9    8      0.02      0.00
    2   -9    8     -0.26      0.00
   -7   -8    8      0.20      0.00
   -6   -8    8      0.07      0.00
   -5   -8    8     -1.56      0.00
   -4   -8    8      1.23      0.00
   -3   -8    8      0.83      0.00
   -2   -8    8     -0.70      0.00
   -1   -8    8     -0.73      0.00
    0   -8    8      1.48      0.00
    1   -8    8     -0.10      0.00
    2   -8    8     -0.69      0.00
    3   -8    8     -0.10      0.00
    4   -8    8      0.24      0.00
   -8   -7    8     -0.26      0.00
   -7   -7    8      0.30      0.00
   -6   -7    8      0.07      0.00
   -5   -7    8     -1.81      0.00
   -4   -7    8      1.84      0.00
   -3   -7    8      0.73      0.00
   -2   -7    8     -0.50      0.00
   -1   -7    8     -0.95      0.00
    0   -7    8      1.31      0.00
    1   -7    8     -0.22      0.00
    2   -7    8     -0.95      0.00
    3   -7    8      0.19      0.00
    4   -7    8      0.24      0.00
    5   -7    8      0.09      0.00
   -8   -6    8     -0.46      0.00
   -7   -6    8      0.48      0.00
   -6   -6    8      0.24      0.00
   -5   -6    8     -1.69      0.00
   -4   -6    8      1.53      0.00
   -3   -6    8      1.22      0.00
   -2   -6    8     -0.85      0.00
   -1   -6    8     -1.23      0.00
    0   -6    8      1.04      0.00
    1   -6    8      0.08      0.00
    2   -6    8     -1.00      0.00
    3   -6    8      0.54      0.00
    4   -6    8      0.31      0.00
    5   -6    8      0.22      0.00
   -8   -5    8     -0.60      0.00
   -7   -5    8      0.72      0.00
   -6   -5    8      0.21      0.00
   -5   -5    8     -1.46      0.00
   -4   -5    8      0.78      0.00
   -3   -5    8      1.87      0.00
   -2   -5    8     -1.56      0.00
   -1   -5    8     -1.10      0.00
    0   -5    8      1.04      0.00
    1   -5    8      0.56      0.00
    2   -5    8     -1.05      0.00
    3   -5    8      0.58      0.00
    4   -5    8      0.44      0.00
    5   -5    8     -0.09      0.00
    6   -5    8     -0.27      0.00
   -8   -4    8     -0.38      0.00
   -7   -4    8      0.61      0.00
   -6   -4    8      0.02      0.00
   -5   -4    8     -1.24      0.00
   -4   -4    8      0.53      0.00
   -3   -4    8      1.84      0.00
   -2   -4    8     -1.81      0.00
   -1   -4    8     -0.71      0.00
    0   -4    8      1.32      0.00
    1   -4    8      0.61      0.00
    2   -4    8     -1.26      0.00
    3   -4    8      0.46      0.00
    4   -4    8      0.45      0.00
    5   -4    8     -0.37      0.00
    6   -4    8     -0.27      0.00
    7   -4    8     -0.25      0.00
   -8   -3    8     -0.14      0.00
   -7   -3    8      0.30      0.00
   -6   -3    8     -0.08      0.00
   -5   -3    8     -1.05      0.00
   -4   -3    8      0.98      0.00
   -3   -3    8      1.05      0.00
   -2   -3    8     -1.69      0.00
   -1   -3    8     -0.10      0.00
    0   -3    8      1.45      0.00
    1   -3    8      0.09      0.00
    2   -3    8     -1.44      0.00
    3   -3    8      0.57      0.00
    4   -3    8      0.24      0.00
    5   -3    8     -0.17      0.00
    6   -3    8     -0.33      0.00
    7   -3    8     -0.05      0.00
   -8   -2    8     -0.16      0.00
   -7   -2    8      0.28      0.00
   -6   -2    8     -0.27      0.00
   -5   -2    8     -0.71      0.00
   -4   -2    8      1.46      0.00
   -3   -2    8      0.08      0.00
   -2   -2    8     -1.79      0.00
   -1   -2    8      0.97      0.00
    0   -2    8      1.14      0.00
    1   -2    8     -0.57      0.00
    2   -2    8     -1.41      0.00
    3   -2    8      0.96      0.00
    4   -2    8     -0.05      0.00
    5   -2    8      0.22      0.00
    6   -2    8     -0.46      0.00
    7   -2    8      0.03      0.00
    8   -2    8      0.34      0.00
   -8   -1    8     -0.10      0.00
   -7   -1    8      0.32      0.00
   -6   -1    8     -0.62      0.00
   -5   -1    8     -0.16      0.00
   -4   -1    8      1.35      0.00
   -3   -1    8     -0.35      0.00
   -2   -1    8     -2.16      0.00
   -1   -1    8      2.34      0.00
    0   -1    8      0.56      0.00
    1   -1    8     -1.10      0.00
    2   -1    8     -1.33      0.00
    3   -1    8      1.54      0.00
    4   -1    8     -0.37      0.00
    5   -1    8      0.29      0.00
    6   -1    8     -0.47      0.00
    7   -1    8     -0.07      0.00
    8   -1    8      0.40      0.00
   -8    0    8      0.11      0.00
   -7    0    8      0.05      0.00
   -6    0    8     -0.76      0.00
   -5    0    8      0.31      0.00
   -4    0    8      0.89      0.00
   -3    0    8     -0.16      0.00
   -2    0    8     -2.50      0.00
   -1    0    8      3.42      0.00
    0    0    8     -0.07      0.00
    1    0    8     -1.57      0.00
    2    0    8     -1.35      0.00
    3    0    8      2.30      0.00
    4    0    8     -0.81      0.00
    5    0    8      0.16      0.00
    6    0    8     -0.36      0.00
    7    0    8      0.00      0.00
    8    0    8      0.37      0.00
    9    0    8      0.13      0.00
   -7    1    8     -0.12      0.00
   -6    1    8     -0.65      0.00
   -5    1    8      0.57      0.00
   -4    1    8      0.64      0.00
   -3    1    8      0.00      0.00
   -2    1    8     -2.58      0.00
   -1    1    8      3.85      0.00
    0    1    8     -0.70      0.00
    1    1    8     -1.87      0.00
    2    1    8     -1.29      0.00
    3    1    8      3.06      0.00
    4    1    8     -1.30      0.00
    5    1    8      0.12      0.00
    6    1    8     -0.30      0.00
    7    1    8      0.32      0.00
    8    1    8      0.01      0.00
    9    1    8      0.35      0.00
   -7    2    8      0.11      0.00
   -6    2    8     -0.57      0.00
   -5    2    8      0.79      0.00
   -4    2    8      0.44      0.00
   -3    2    8     -0.30      0.00
   -2    2    8     -2.20      0.00
   -1    2    8      3.62      0.00
    0    2    8     -1.11      0.00
    1    2    8     -1.78      0.00
    2    2    8     -1.04      0.00
    3    2    8      3.50      0.00
    4    2    8     -1.61      0.00
    5    2    8      0.07      0.00
    6    2    8     -0.30      0.00
    7    2    8      0.52      0.00
    8    2    8     -0.32      0.00
    9    2    8      0.51      0.00
   -7    3    8      0.27      0.00
   -6    3    8     -0.48      0.00
   -5    3    8      0.86      0.00
   -4    3    8     -0.01      0.00
   -3    3    8     -0.64      0.00
   -2    3    8     -1.40      0.00
   -1    3    8      2.99      0.00
    0    3    8     -1.01      0.00
    1    3    8     -1.51      0.00
    2    3    8     -0.75      0.00
    3    3    8      3.46      0.00
    4    3    8     -1.75      0.00
    5    3    8     -0.11      0.00
    6    3    8     -0.23      0.00
    7    3    8      0.42      0.00
    8    3    8     -0.24      0.00
    9    3    8      0.44      0.00
   -6    4    8     -0.22      0.00
   -5    4    8      0.61      0.00
   -4    4    8     -0.40      0.00
   -3    4    8     -0.54      0.00
   -2    4    8     -0.56      0.00
   -1    4    8      2.29      0.00
    0    4    8     -0.67      0.00
    1    4    8     -1.39      0.00
    2    4    8     -0.56      0.00
    3    4    8      3.04      0.00
    4    4    8     -1.75      0.00
    5    4    8     -0.34      0.00
    6    4    8      0.03      0.00
    7    4    8      0.30      0.00
    8    4    8     -0.01      0.00
    9    4    8      0.36      0.00
   -5    5    8      0.33      0.00
   -4    5    8     -0.44      0.00
   -3    5    8     -0.15      0.00
   -2    5    8     -0.14      0.00
   -1    5    8      1.68      0.00
    0    5    8     -0.59      0.00
    1    5    8     -1.25      0.00
    2    5    8     -0.44      0.00
    3    5    8      2.46      0.00
    4    5    8     -1.56      0.00
    5    5    8     -0.46      0.00
    6    5    8      0.45      0.00
    7    5    8      0.28      0.00
    8    5    8      0.00      0.00
    9    5    8      0.44      0.00
   -5    6    8      0.24      0.00
   -4    6    8     -0.32      0.00
   -3    6    8      0.07      0.00
   -2    6    8     -0.18      0.00
   -1    6    8      1.22      0.00
    0    6    8     -0.72      0.00
    1    6    8     -0.92      0.00
    2    6    8     -0.25      0.00
    3    6    8      1.88      0.00
    4    6    8     -1.25      0.00
    5    6    8     -0.38      0.00
    6    6    8      0.77      0.00
    7    6    8      0.21      0.00
    8    6    8     -0.08      0.00
    9    6    8      0.46      0.00
   -4    7    8     -0.25      0.00
   -3    7    8     -0.05      0.00
   -2    7    8     -0.23      0.00
   -1    7    8      0.90      0.00
    0    7    8     -0.70      0.00
    1    7    8     -0.58      0.00
    2    7    8      0.14      0.00
    3    7    8      1.21      0.00
    4    7    8     -0.91      0.00
    5    7    8     -0.15      0.00
    6    7    8      0.75      0.00
    7    7    8      0.12      0.00
    8    7    8     -0.02      0.00
    9    7    8      0.21      0.00
   -3    8    8     -0.22      0.00
   -2    8    8      0.02      0.00
   -1    8    8      0.60      0.00
    0    8    8     -0.51      0.00
    1    8    8     -0.35      0.00
    2    8    8      0.49      0.00
    3    8    8      0.55      0.00
    4    8    8     -0.62      0.00
    5    8    8      0.04      0.00
    6    8    8      0.59      0.00
    7    8    8      0.06      0.00
    8    8    8      0.09      0.00
   -2    9    8      0.22      0.00
   -1    9    8      0.29      0.00
    0    9    8     -0.36      0.00
    1    9    8     -0.12      0.00
    2    9    8      0.48      0.00
    3    9    8      0.27      0.00
    4    9    8     -0.53      0.00
    5    9    8      0.21      0.00
    6    9    8      0.42      0.00
    7    9    8     -0.07      0.00
    8    9    8      0.12      0.00
    0   10    8     -0.20      0.00
    1   10    8      0.10      0.00
    2   10    8      0.21      0.00
    3   10    8      0.30      0.00
    4   10    8     -0.58      0.00
    5   10    8      0.41      0.00
    6   10    8      0.12      0.00
    7   10    8     -0.16      0.00
    2   11    8      0.03      0.00
    3   11    8      0.23      0.00
    4   11    8     -0.41      0.00
    5   11    8      0.37      0.00
   -5  -10    9     -0.42      0.00
   -4  -10    9      0.04      0.00
   -3  -10    9      0.35      0.00
   -2  -10    9      0.41      0.00
   -1  -10    9     -0.99      0.00
    0  -10    9      0.31      0.00
   -6   -9    9      0.31      0.00
   -5   -9    9     -0.86      0.00
   -4   -9    9     -0.20      0.00
   -3   -9    9      1.17      0.00
   -2   -9    9     -0.30      0.00
   -1   -9    9     -1.15      0.00
    0   -9    9      0.53      0.00
    1   -9    9      0.62      0.00
    2   -9    9     -0.43      0.00
   -7   -8    9      0.11      0.00
   -6   -8    9      0.47      0.00
   -5   -8    9     -1.72      0.00
   -4   -8    9      0.34      0.00
   -3   -8    9      1.43      0.00
   -2   -8    9     -0.73      0.00
   -1   -8    9     -0.89      0.00
    0   -8    9      0.83      0.00
    1   -8    9      0.72      0.00
    2   -8    9     -0.67      0.00
    3   -8    9      0.31      0.00
   -7   -7    9      0.17      0.00
   -6   -7    9      0.66      0.00
   -5   -7    9     -2.28      0.00
   -4   -7    9      1.00      0.00
   -3   -7    9      1.32      0.00
   -2   -7    9     -0.55      0.00
   -1   -7    9     -0.83      0.00
    0   -7    9      0.84      0.00
    1   -7    9      0.47      0.00
    2   -7    9     -0.80      0.00
    3   -7    9      0.22      0.00
    4   -7    9     -0.46      0.00
   -8   -6    9     -0.40      0.00
   -7   -6    9      0.33      0.00
   -6   -6    9      0.85      0.00
   -5   -6    9     -2.10      0.00
   -4   -6    9      0.73      0.00
   -3   -6    9      1.63      0.00
   -2   -6    9     -0.48      0.00
   -1   -6    9     -1.13      0.00
    0   -6    9      0.64      0.00
    1   -6    9      0.43      0.00
    2   -6    9     -0.82      0.00
    3   -6    9      0.18      0.00
    4   -6    9     -0.18      0.00
    5   -6    9      0.32      0.00
   -8   -5    9     -0.58      0.00
   -7   -5    9      0.61      0.00
   -6   -5    9      0.78      0.00
   -5   -5    9     -1.54      0.00
   -4   -5    9     -0.37      0.00
   -3   -5    9      2.40      0.00
   -2   -5    9     -0.78      0.00
   -1   -5    9     -1.48      0.00
    0   -5    9      0.60      0.00
    1   -5    9      0.76      0.00
    2   -5    9     -0.79      0.00
    3   -5    9      0.12      0.00
    4   -5    9      0.24      0.00
    5   -5    9      0.07      0.00
    6   -5    9      0.37      0.00
   -8   -4    9     -0.39      0.00
   -7   -4    9      0.64      0.00
   -6   -4    9      0.46      0.00
   -5   -4    9     -1.11      0.00
   -4   -4    9     -1.23      0.00
   -3   -4    9      3.05      0.00
   -2   -4    9     -1.02      0.00
   -1   -4    9     -1.69      0.00
    0   -4    9      0.80      0.00
    1   -4    9      1.22      0.00
    2   -4    9     -0.93      0.00
    3   -4    9     -0.07      0.00
    4   -4    9      0.39      0.00
    5   -4    9     -0.08      0.00
    6   -4    9      0.32      0.00
    7   -4    9     -0.84      0.00
   -8   -3    9     -0.24      0.00
   -7   -3    9      0.48      0.00
   -6   -3    9      0.11      0.00
   -5   -3    9     -0.93      0.00
   -4   -3    9     -1.13      0.00
   -3   -3    9      3.21      0.00
   -2   -3    9     -1.22      0.00
   -1   -3    9     -1.68      0.00
    0   -3    9      0.94      0.00
    1   -3    9      1.60      0.00
    2   -3    9     -1.36      0.00
    3   -3    9     -0.19      0.00
    4   -3    9      0.27      0.00
    5   -3    9      0.19      0.00
    6   -3    9     -0.09      0.00
    7   -3    9     -0.65      0.00
   -8   -2    9     -0.33      0.00
   -7   -2    9      0.51      0.00
   -6   -2    9     -0.26      0.00
   -5   -2    9     -0.74      0.00
   -4   -2    9     -0.35      0.00
   -3   -2    9      2.78      0.00
   -2   -2    9     -1.63      0.00
   -1   -2    9     -1.33      0.00
    0   -2    9      0.91      0.00
    1   -2    9      1.80      0.00
    2   -2    9     -1.88      0.00
    3   -2    9     -0.01      0.00
    4   -2    9      0.16      0.00
    5   -2    9      0.52      0.00
    6   -2    9     -0.43      0.00
    7   -2    9     -0.33      0.00
    8   -2    9      0.42      0.00
   -8   -1    9     -0.22      0.00
   -7   -1    9      0.53      0.00
   -6   -1    9     -0.59      0.00
   -5   -1    9     -0.38      0.00
   -4   -1    9      0.26      0.00
   -3   -1    9      1.97      0.00
   -2   -1    9     -2.06      0.00
   -1   -1    9     -0.64      0.00
    0   -1    9      0.89      0.00
    1   -1    9      1.77      0.00
    2   -1    9     -2.33      0.00
    3   -1    9      0.46      0.00
    4   -1    9      0.03      0.00
    5   -1    9      0.54      0.00
    6   -1    9     -0.48      0.00
    7   -1    9     -0.30      0.00
    8   -1    9      0.34      0.00
   -7    0    9      0.26      0.00
   -6    0    9     -0.70      0.00
   -5    0    9     -0.09      0.00
   -4    0    9      0.43      0.00
   -3    0    9      1.30      0.00
   -2    0    9     -2.21      0.00
   -1    0    9      0.20      0.00
    0    0    9      0.85      0.00
    1    0    9      1.43      0.00
    2    0    9     -2.66      0.00
    3    0    9      1.06      0.00
    4    0    9     -0.22      0.00
    5    0    9      0.44      0.00
    6    0    9     -0.49      0.00
    7    0    9     -0.26      0.00
    8    0    9      0.25      0.00
   -7    1    9      0.08      0.00
   -6    1    9     -0.68      0.00
   -5    1    9      0.04      0.00
   -4    1    9      0.52      0.00
   -3    1    9      0.87      0.00
   -2    1    9     -2.08      0.00
   -1    1    9      0.87      0.00
    0    1    9      0.58      0.00
    1    1    9      0.91      0.00
    2    1    9     -2.78      0.00
    3    1    9      1.63      0.00
    4    1    9     -0.46      0.00
    5    1    9      0.41      0.00
    6    1    9     -0.64      0.00
    7    1    9      0.08      0.00
    8    1    9      0.00      0.00
    9    1    9      0.54      0.00
   -7    2    9      0.25      0.00
   -6    2    9     -0.68      0.00
   -5    2    9      0.18      0.00
   -4    2    9      0.65      0.00
   -3    2    9      0.37      0.00
   -2    2    9     -1.79      0.00
   -1    2    9      1.11      0.00
    0    2    9      0.30      0.00
    1    2    9      0.43      0.00
    2    2    9     -2.55      0.00
    3    2    9      2.07      0.00
    4    2    9     -0.57      0.00
    5    2    9      0.36      0.00
    6    2    9     -0.78      0.00
    7    2    9      0.35      0.00
    8    2    9     -0.22      0.00
    9    2    9      0.71      0.00
   -6    3    9     -0.56      0.00
   -5    3    9      0.29      0.00
   -4    3    9      0.51      0.00
   -3    3    9     -0.11      0.00
   -2    3    9     -1.43      0.00
   -1    3    9      1.11      0.00
    0    3    9      0.33      0.00
    1    3    9      0.01      0.00
    2    3    9     -2.02      0.00
    3    3    9      2.24      0.00
    4    3    9     -0.68      0.00
    5    3    9      0.16      0.00
    6    3    9     -0.76      0.00
    7    3    9      0.30      0.00
    8    3    9     -0.19      0.00
    9    3    9      0.67      0.00
   -6    4    9     -0.25      0.00
   -5    4    9      0.16      0.00
   -4    4    9      0.14      0.00
   -3    4    9     -0.22      0.00
   -2    4    9     -1.02      0.00
   -1    4    9      1.15      0.00
    0    4    9      0.50      0.00
    1    4    9     -0.40      0.00
    2    4    9     -1.39      0.00
    3    4    9      2.01      0.00
    4    4    9     -0.80      0.00
    5    4    9     -0.14      0.00
    6    4    9     -0.56      0.00
    7    4    9      0.19      0.00
    8    4    9     -0.07      0.00
    9    4    9      0.69      0.00
   -5    5    9     -0.07      0.00
   -4    5    9     -0.06      0.00
   -3    5    9      0.03      0.00
   -2    5    9     -0.65      0.00
   -1    5    9      1.17      0.00
    0    5    9      0.38      0.00
    1    5    9     -0.70      0.00
    2    5    9     -0.91      0.00
    3    5    9      1.55      0.00
    4    5    9     -0.82      0.00
    5    5    9     -0.38      0.00
    6    5    9     -0.17      0.00
    7    5    9      0.17      0.00
    8    5    9      0.00      0.00
    9    5    9      0.79      0.00
   -4    6    9     -0.02      0.00
   -3    6    9      0.27      0.00
   -2    6    9     -0.47      0.00
   -1    6    9      0.99      0.00
    0    6    9      0.03      0.00
    1    6    9     -0.77      0.00
    2    6    9     -0.57      0.00
    3    6    9      1.16      0.00
    4    6    9     -0.72      0.00
    5    6    9     -0.41      0.00
    6    6    9      0.17      0.00
    7    6    9      0.18      0.00
    8    6    9      0.12      0.00
    9    6    9      0.63      0.00
   -3    7    9      0.21      0.00
   -2    7    9     -0.45      0.00
   -1    7    9      0.76      0.00
    0    7    9     -0.25      0.00
    1    7    9     -0.66      0.00
    2    7    9     -0.20      0.00
    3    7    9      0.85      0.00
    4    7    9     -0.51      0.00
    5    7    9     -0.32      0.00
    6    7    9      0.27      0.00
    7    7    9      0.25      0.00
    8    7    9      0.27      0.00
   -2    8    9     -0.34      0.00
   -1    8    9      0.63      0.00
    0    8    9     -0.39      0.00
    1    8    9     -0.45      0.00
    2    8    9      0.15      0.00
    3    8    9      0.52      0.00
    4    8    9     -0.20      0.00
    5    8    9     -0.35      0.00
    6    8    9      0.31      0.00
    7    8    9      0.33      0.00
    8    8    9      0.30      0.00
   -1    9    9      0.48      0.00
    0    9    9     -0.44      0.00
    1    9    9     -0.16      0.00
    2    9    9      0.20      0.00
    3    9    9      0.38      0.00
    4    9    9     -0.06      0.00
    5    9    9     -0.32      0.00
    6    9    9      0.35      0.00
    7    9    9      0.25      0.00
    1   10    9      0.09      0.00
    2   10    9      0.03      0.00
    3   10    9      0.43      0.00
    4   10    9     -0.17      0.00
    5   10    9      0.01      0.00
    6   10    9      0.10      0.00
   -4  -10   10     -0.39      0.00
   -3  -10   10      0.50      0.00
   -2  -10   10      0.43      0.00
   -1  -10   10     -0.63      0.00
   -5   -9   10     -0.17      0.00
   -4   -9   10     -1.04      0.00
   -3   -9   10      1.42      0.00
   -2   -9   10     -0.09      0.00
   -1   -9   10     -0.83      0.00
    0   -9   10     -0.46      0.00
    1   -9   10      0.75      0.00
   -6   -8   10      0.78      0.00
   -5   -8   10     -0.95      0.00
   -4   -8   10     -0.89      0.00
   -3   -8   10      1.80      0.00
   -2   -8   10     -0.54      0.00
   -1   -8   10     -0.72      0.00
    0   -8   10     -0.27      0.00
    1   -8   10      0.92      0.00
    2   -8   10     -0.25      0.00
    3   -8   10      0.73      0.00
   -7   -7   10     -0.03      0.00
   -6   -7   10      1.03      0.00
   -5   -7   10     -1.60      0.00
   -4   -7   10     -0.18      0.00
   -3   -7   10      1.56      0.00
   -2   -7   10     -0.41      0.00
   -1   -7   10     -0.72      0.00
    0   -7   10      0.03      0.00
    1   -7   10      0.75      0.00
    2   -7   10     -0.07      0.00
    3   -7   10      0.32      0.00
    4   -7   10     -0.66      0.00
   -7   -6   10      0.09      0.00
   -6   -6   10      1.12      0.00
   -5   -6   10     -1.39      0.00
   -4   -6   10     -0.02      0.00
   -3   -6   10      1.37      0.00
   -2   -6   10     -0.14      0.00
   -1   -6   10     -1.08      0.00
    0   -6   10      0.28      0.00
    1   -6   10      0.61      0.00
    2   -6   10     -0.18      0.00
    3   -6   10     -0.05      0.00
    4   -6   10     -0.27      0.00
    5   -6   10     -0.48      0.00
   -7   -5   10      0.39      0.00
   -6   -5   10      0.99      0.00
   -5   -5   10     -0.57      0.00
   -4   -5   10     -0.90      0.00
   -3   -5   10      1.57      0.00
   -2   -5   10     -0.11      0.00
   -1   -5   10     -1.54      0.00
    0   -5   10      0.52      0.00
    1   -5   10      0.69      0.00
    2   -5   10     -0.35      0.00
    3   -5   10     -0.09      0.00
    4   -5   10      0.04      0.00
    5   -5   10     -0.76      0.00
    6   -5   10      1.36      0.00
   -7   -4   10      0.61      0.00
   -6   -4   10      0.65      0.00
   -5   -4   10      0.09      0.00
   -4   -4   10     -2.23      0.00
   -3   -4   10      2.20      0.00
   -2   -4   10     -0.17      0.00
   -1   -4   10     -1.70      0.00
    0   -4   10      0.53      0.00
    1   -4   10      1.14      0.00
    2   -4   10     -0.44      0.00
    3   -4   10     -0.22      0.00
    4   -4   10     -0.05      0.00
    5   -4   10     -0.43      0.00
    6   -4   10      1.40      0.00
   -7   -3   10      0.64      0.00
   -6   -3   10      0.24      0.00
   -5   -3   10      0.14      0.00
   -4   -3   10     -2.88      0.00
   -3   -3   10      3.04      0.00
   -2   -3   10     -0.27      0.00
   -1   -3   10     -1.64      0.00
    0   -3   10      0.10      0.00
    1   -3   10      1.99      0.00
    2   -3   10     -0.80      0.00
    3   -3   10     -0.55      0.00
    4   -3   10     -0.15      0.00
    5   -3   10      0.27      0.00
    6   -3   10      0.61      0.00
    7   -3   10     -0.98      0.00
   -7   -2   10      0.66      0.00
   -6   -2   10     -0.12      0.00
   -5   -2   10     -0.20      0.00
   -4   -2   10     -2.23      0.00
   -3   -2   10      3.39      0.00
   -2   -2   10     -0.43      0.00
   -1   -2   10     -1.74      0.00
    0   -2   10     -0.34      0.00
    1   -2   10      2.87      0.00
    2   -2   10     -1.52      0.00
    3   -2   10     -0.60      0.00
    4   -2   10     -0.04      0.00
    5   -2   10      0.66      0.00
    6   -2   10     -0.05      0.00
    7   -2   10     -0.50      0.00
   -7   -1   10      0.60      0.00
   -6   -1   10     -0.37      0.00
   -5   -1   10     -0.42      0.00
   -4   -1   10     -0.95      0.00
   -3   -1   10      2.73      0.00
   -2   -1   10     -0.51      0.00
   -1   -1   10     -1.99      0.00
    0   -1   10     -0.28      0.00
    1   -1   10      3.24      0.00
    2   -1   10     -2.16      0.00
    3   -1   10     -0.18      0.00
    4   -1   10      0.00      0.00
    5   -1   10      0.66      0.00
    6   -1   10     -0.18      0.00
    7   -1   10     -0.37      0.00
    8   -1   10      0.12      0.00
   -7    0   10      0.36      0.00
   -6    0   10     -0.48      0.00
   -5    0   10     -0.36      0.00
   -4    0   10     -0.09      0.00
   -3    0   10      1.66      0.00
   -2    0   10     -0.45      0.00
   -1    0   10     -1.94      0.00
    0    0   10      0.12      0.00
    1    0   10      3.01      0.00
    2    0   10     -2.39      0.00
    3    0   10      0.27      0.00
    4    0   10     -0.16      0.00
    5    0   10      0.65      0.00
    6    0   10     -0.29      0.00
    7    0   10     -0.36      0.00
    8    0   10     -0.05      0.00
   -7    1   10      0.18      0.00
   -6    1   10     -0.52      0.00
   -5    1   10     -0.25      0.00
   -4    1   10      0.20      0.00
   -3    1   10      0.99      0.00
   -2    1   10     -0.40      0.00
   -1    1   10     -1.48      0.00
    0    1   10      0.32      0.00
    1    1   10      2.46      0.00
    2    1   10     -2.36      0.00
    3    1   10      0.47      0.00
    4    1   10     -0.21      0.00
    5    1   10      0.75      0.00
    6    1   10     -0.65      0.00
    7    1   10     -0.11      0.00
    8    1   10     -0.29      0.00
   -6    2   10     -0.50      0.00
   -5    2   10     -0.23      0.00
   -4    2   10      0.38      0.00
   -3    2   10      0.73      0.00
   -2    2   10     -0.58      0.00
   -1    2   10     -0.94      0.00
    0    2   10      0.29      0.00
    1    2   10      1.85      0.00
    2    2   10     -2.23      0.00
    3    2   10      0.69      0.00
    4    2   10     -0.09      0.00
    5    2   10      0.76      0.00
    6    2   10     -0.99      0.00
    7    2   10      0.17      0.00
    8    2   10     -0.47      0.00
   -6    3   10     -0.33      0.00
   -5    3   10     -0.26      0.00
   -4    3   10      0.49      0.00
   -3    3   10      0.56      0.00
   -2    3   10     -0.98      0.00
   -1    3   10     -0.45      0.00
    0    3   10      0.39      0.00
    1    3   10      1.18      0.00
    2    3   10     -1.86      0.00
    3    3   10      1.04      0.00
    4    3   10     -0.09      0.00
    5    3   10      0.60      0.00
    6    3   10     -1.13      0.00
    7    3   10      0.23      0.00
    8    3   10     -0.52      0.00
    9    3   10      0.60      0.00
   -5    4   10     -0.32      0.00
   -4    4   10      0.35      0.00
   -3    4   10      0.40      0.00
   -2    4   10     -1.23      0.00
   -1    4   10      0.09      0.00
    0    4   10      0.64      0.00
    1    4   10      0.46      0.00
    2    4   10     -1.18      0.00
    3    4   10      1.12      0.00
    4    4   10     -0.25      0.00
    5    4   10      0.29      0.00
    6    4   10     -1.09      0.00
    7    4   10      0.17      0.00
    8    4   10     -0.52      0.00
    9    4   10      0.74      0.00
   -5    5   10     -0.38      0.00
   -4    5   10      0.12      0.00
   -3    5   10      0.33      0.00
   -2    5   10     -0.97      0.00
   -1    5   10      0.47      0.00
    0    5   10      0.73      0.00
    1    5   10     -0.12      0.00
    2    5   10     -0.59      0.00
    3    5   10      0.84      0.00
    4    5   10     -0.39      0.00
    5    5   10     -0.06      0.00
    6    5   10     -0.84      0.00
    7    5   10      0.10      0.00
    8    5   10     -0.36      0.00
   -4    6   10      0.02      0.00
   -3    6   10      0.37      0.00
   -2    6   10     -0.49      0.00
   -1    6   10      0.47      0.00
    0    6   10      0.49      0.00
    1    6   10     -0.38      0.00
    2    6   10     -0.41      0.00
    3    6   10      0.61      0.00
    4    6   10     -0.39      0.00
    5    6   10     -0.26      0.00
    6    6   10     -0.56      0.00
    7    6   10      0.08      0.00
    8    6   10      0.02      0.00
   -3    7   10      0.40      0.00
   -2    7   10     -0.31      0.00
   -1    7   10      0.36      0.00
    0    7   10      0.11      0.00
    1    7   10     -0.36      0.00
    2    7   10     -0.41      0.00
    3    7   10      0.50      0.00
    4    7   10     -0.14      0.00
    5    7   10     -0.41      0.00
    6    7   10     -0.41      0.00
    7    7   10      0.26      0.00
    8    7   10      0.30      0.00
   -2    8   10     -0.34      0.00
   -1    8   10      0.40      0.00
    0    8   10     -0.21      0.00
    1    8   10     -0.24      0.00
    2    8   10     -0.31      0.00
    3    8   10      0.34      0.00
    4    8   10      0.33      0.00
    5    8   10     -0.72      0.00
    6    8   10     -0.18      0.00
    7    8   10      0.52      0.00
    0    9   10     -0.34      0.00
    1    9   10     -0.12      0.00
    2    9   10     -0.19      0.00
    3    9   10      0.25      0.00
    4    9   10      0.58      0.00
    5    9   10     -0.84      0.00
    6    9   10      0.11      0.00
    7    9   10      0.52      0.00
    2   10   10     -0.16      0.00
    3   10   10      0.32      0.00
    4   10   10      0.34      0.00
    5   10   10     -0.37      0.00
   -4   -9   11     -1.54      0.00
   -3   -9   11      1.25      0.00
   -2   -9   11      0.22      0.00
   -1   -9   11     -0.24      0.00
    0   -9   11     -0.97      0.00
   -6   -8   11      0.53      0.00
   -5   -8   11      0.32      0.00
   -4   -8   11     -1.58      0.00
   -3   -8   11      1.43      0.00
   -2   -8   11     -0.03      0.00
   -1   -8   11     -0.20      0.00
    0   -8   11     -1.04      0.00
    1   -8   11      0.45      0.00
    2   -8   11      0.12      0.00
   -6   -7   11      0.67      0.00
   -5   -7   11     -0.34      0.00
   -4   -7   11     -0.80      0.00
   -3   -7   11      1.15      0.00
   -2   -7   11      0.09      0.00
   -1   -7   11     -0.33      0.00
    0   -7   11     -0.79      0.00
    1   -7   11      0.48      0.00
    2   -7   11      0.57      0.00
    3   -7   11      0.01      0.00
   -7   -6   11     -0.10      0.00
   -6   -6   11      0.62      0.00
   -5   -6   11     -0.43      0.00
   -4   -6   11      0.07      0.00
   -3   -6   11      0.82      0.00
   -2   -6   11      0.21      0.00
   -1   -6   11     -0.87      0.00
    0   -6   11     -0.28      0.00
    1   -6   11      0.61      0.00
    2   -6   11      0.30      0.00
    3   -6   11     -0.40      0.00
    4   -6   11      0.68      0.00
   -7   -5   11      0.13      0.00
   -6   -5   11      0.52      0.00
   -5   -5   11      0.22      0.00
   -4   -5   11      0.11      0.00
   -3   -5   11      0.67      0.00
   -2   -5   11     -0.13      0.00
   -1   -5   11     -1.34      0.00
    0   -5   11      0.33      0.00
    1   -5   11      0.64      0.00
    2   -5   11     -0.16      0.00
    3   -5   11     -0.09      0.00
    4   -5   11      0.58      0.00
    5   -5   11     -1.86      0.00
   -7   -4   11      0.41      0.00
   -6   -4   11      0.41      0.00
   -5   -4   11      0.99      0.00
   -4   -4   11     -1.02      0.00
   -3   -4   11      0.99      0.00
   -2   -4   11     -0.75      0.00
   -1   -4   11     -1.06      0.00
    0   -4   11      0.43      0.00
    1   -4   11      0.82      0.00
    2   -4   11     -0.12      0.00
    3   -4   11      0.05      0.00
    4   -4   11     -0.16      0.00
    5   -4   11     -1.10      0.00
    6   -4   11      1.72      0.00
   -7   -3   11      0.58      0.00
   -6   -3   11      0.35      0.00
   -5   -3   11      1.06      0.00
   -4   -3   11     -2.40      0.00
   -3   -3   11      1.91      0.00
   -2   -3   11     -1.11      0.00
   -1   -3   11     -0.30      0.00
    0   -3   11     -0.32      0.00
    1   -3   11      1.60      0.00
    2   -3   11     -0.12      0.00
    3   -3   11     -0.47      0.00
    4   -3   11     -0.55      0.00
    5   -3   11      0.05      0.00
    6   -3   11      0.82      0.00
   -7   -2   11      0.61      0.00
   -6   -2   11      0.32      0.00
   -5   -2   11      0.27      0.00
   -4   -2   11     -2.53      0.00
   -3   -2   11      2.62      0.00
   -2   -2   11     -0.82      0.00
   -1   -2   11     -0.19      0.00
    0   -2   11     -1.13      0.00
    1   -2   11      2.60      0.00
    2   -2   11     -0.75      0.00
    3   -2   11     -0.80      0.00
    4   -2   11     -0.38      0.00
    5   -2   11      0.60      0.00
    6   -2   11      0.10      0.00
    7   -2   11     -0.30      0.00
   -7   -1   11      0.52      0.00
   -6   -1   11      0.18      0.00
   -5   -1   11     -0.51      0.00
   -4   -1   11     -1.35      0.00
   -3   -1   11      2.28      0.00
   -2   -1   11     -0.09      0.00
   -1   -1   11     -1.02      0.00
    0   -1   11     -1.13      0.00
    1   -1   11      2.94      0.00
    2   -1   11     -1.43      0.00
    3   -1   11     -0.45      0.00
    4   -1   11     -0.27      0.00
    5   -1   11      0.66      0.00
    6   -1   11      0.01      0.00
    7   -1   11     -0.17      0.00
   -7    0   11      0.36      0.00
   -6    0   11     -0.10      0.00
   -5    0   11     -0.55      0.00
   -4    0   11     -0.32      0.00
   -3    0   11      1.32      0.00
   -2    0   11      0.52      0.00
   -1    0   11     -1.82      0.00
    0    0   11     -0.55      0.00
    1    0   11      2.54      0.00
    2    0   11     -1.43      0.00
    3    0   11     -0.11      0.00
    4    0   11     -0.37      0.00
    5    0   11      0.80      0.00
    6    0   11     -0.07      0.00
    7    0   11     -0.20      0.00
    8    0   11     -0.10      0.00
   -6    1   11     -0.31      0.00
   -5    1   11     -0.23      0.00
   -4    1   11     -0.15      0.00
   -3    1   11      0.76      0.00
   -2    1   11      0.66      0.00
   -1    1   11     -1.85      0.00
    0    1   11     -0.18      0.00
    1    1   11      2.06      0.00
    2    1   11     -1.14      0.00
    3    1   11     -0.25      0.00
    4    1   11     -0.24      0.00
    5    1   11      0.99      0.00
    6    1   11     -0.43      0.00
    7    1   11     -0.03      0.00
    8    1   11     -0.38      0.00
   -6    2   11     -0.26      0.00
   -5    2   11     -0.20      0.00
   -4    2   11     -0.19      0.00
   -3    2   11      0.85      0.00
   -2    2   11      0.30      0.00
   -1    2   11     -1.41      0.00
    0    2   11     -0.19      0.00
    1    2   11      1.78      0.00
    2    2   11     -1.19      0.00
    3    2   11     -0.29      0.00
    4    2   11      0.11      0.00
    5    2   11      1.03      0.00
    6    2   11     -0.80      0.00
    7    2   11      0.22      0.00
    8    2   11     -0.61      0.00
   -5    3   11     -0.39      0.00
   -4    3   11      0.01      0.00
   -3    3   11      1.06      0.00
   -2    3   11     -0.40      0.00
   -1    3   11     -0.95      0.00
    0    3   11     -0.15      0.00
    1    3   11      1.43      0.00
    2    3   11     -1.28      0.00
    3    3   11      0.14      0.00
    4    3   11      0.28      0.00
    5    3   11      0.96      0.00
    6    3   11     -1.03      0.00
    7    3   11      0.35      0.00
    8    3   11     -0.81      0.00
   -5    4   11     -0.44      0.00
   -4    4   11      0.15      0.00
   -3    4   11      0.90      0.00
   -2    4   11     -0.90      0.00
   -1    4   11     -0.58      0.00
    0    4   11      0.20      0.00
    1    4   11      0.79      0.00
    2    4   11     -0.86      0.00
    3    4   11      0.52      0.00
    4    4   11      0.19      0.00
    5    4   11      0.75      0.00
    6    4   11     -1.14      0.00
    7    4   11      0.32      0.00
    8    4   11     -0.97      0.00
   -4    5   11      0.07      0.00
   -3    5   11      0.47      0.00
   -2    5   11     -0.69      0.00
   -1    5   11     -0.34      0.00
    0    5   11      0.56      0.00
    1    5   11      0.22      0.00
    2    5   11     -0.28      0.00
    3    5   11      0.47      0.00
    4    5   11      0.04      0.00
    5    5   11      0.41      0.00
    6    5   11     -1.06      0.00
    7    5   11      0.09      0.00
    8    5   11     -0.77      0.00
   -3    6   11      0.21      0.00
   -2    6   11     -0.08      0.00
   -1    6   11     -0.26      0.00
    0    6   11      0.52      0.00
    1    6   11      0.07      0.00
    2    6   11     -0.21      0.00
    3    6   11      0.34      0.00
    4    6   11     -0.05      0.00
    5    6   11      0.11      0.00
    6    6   11     -0.92      0.00
    7    6   11     -0.11      0.00
    8    6   11     -0.23      0.00
   -2    7   11      0.14      0.00
   -1    7   11     -0.15      0.00
    0    7   11      0.13      0.00
    1    7   11      0.20      0.00
    2    7   11     -0.48      0.00
    3    7   11      0.25      0.00
    4    7   11      0.15      0.00
    5    7   11     -0.18      0.00
    6    7   11     -0.85      0.00
    7    7   11      0.05      0.00
   -1    8   11      0.05      0.00
    0    8   11     -0.17      0.00
    1    8   11      0.21      0.00
    2    8   11     -0.53      0.00
    3    8   11      0.04      0.00
    4    8   11      0.66      0.00
    5    8   11     -0.66      0.00
    6    8   11     -0.61      0.00
    7    8   11      0.42      0.00
    0    9   11     -0.20      0.00
    1    9   11      0.03      0.00
    2    9   11     -0.35      0.00
    3    9   11     -0.07      0.00
    4    9   11      0.90      0.00
    5    9   11     -0.92      0.00
    6    9   11     -0.15      0.00
   -3   -9   12      0.63      0.00
   -2   -9   12      0.41      0.00
   -5   -8   12      1.08      0.00
   -3   -8   12      0.42      0.00
    0   -8   12     -0.96      0.00
    1   -8   12     -0.11      0.00
   -5   -7   12      0.40      0.00
   -4   -7   12     -0.53      0.00
   -3   -7   12      0.16      0.00
   -2   -7   12      0.36      0.00
   -1   -7   12      0.48      0.00
    0   -7   12     -1.01      0.00
    1   -7   12      0.03      0.00
    2   -7   12      0.98      0.00
    3   -7   12     -0.96      0.00
   -6   -6   12     -0.19      0.00
   -5   -6   12     -0.31      0.00
   -4   -6   12      0.64      0.00
   -3   -6   12      0.24      0.00
   -2   -6   12      0.38      0.00
   -1   -6   12     -0.06      0.00
    0   -6   12     -0.70      0.00
    1   -6   12      0.47      0.00
    2   -6   12      0.53      0.00
    3   -6   12     -1.29      0.00
    4   -6   12      1.75      0.00
   -6   -5   12     -0.17      0.00
   -5   -5   12     -0.36      0.00
   -4   -5   12      1.59      0.00
   -3   -5   12      0.52      0.00
   -2   -5   12     -0.33      0.00
   -1   -5   12     -0.66      0.00
    0   -5   12     -0.03      0.00
    1   -5   12      0.52      0.00
    2   -5   12     -0.22      0.00
    3   -5   12     -0.43      0.00
    4   -5   12      1.38      0.00
    5   -5   12     -1.79      0.00
   -6   -4   12      0.02      0.00
   -5   -4   12      0.33      0.00
   -4   -4   12      1.17      0.00
   -3   -4   12      0.97      0.00
   -2   -4   12     -1.70      0.00
   -1   -4   12     -0.33      0.00
    0   -4   12      0.19      0.00
    1   -4   12      0.32      0.00
    2   -4   12      0.02      0.00
    3   -4   12      0.21      0.00
    4   -4   12      0.13      0.00
    5   -4   12     -0.97      0.00
   -6   -3   12      0.37      0.00
   -5   -3   12      0.80      0.00
   -4   -3   12     -0.43      0.00
   -3   -3   12      1.68      0.00
   -2   -3   12     -2.65      0.00
   -1   -3   12      0.78      0.00
    0   -3   12     -0.51      0.00
    1   -3   12      0.80      0.00
    2   -3   12      0.57      0.00
    3   -3   12     -0.25      0.00
    4   -3   12     -0.61      0.00
    5   -3   12      0.15      0.00
    6   -3   12      0.26      0.00
   -6   -2   12      0.75      0.00
   -5   -2   12      0.25      0.00
   -4   -2   12     -1.43      0.00
   -3   -2   12      2.14      0.00
   -2   -2   12     -2.22      0.00
   -1   -2   12      1.18      0.00
    0   -2   12     -1.27      0.00
    1   -2   12      1.74      0.00
    2   -2   12      0.23      0.00
    3   -2   12     -0.75      0.00
    4   -2   12     -0.63      0.00
    5   -2   12      0.57      0.00
    6   -2   12     -0.15      0.00
   -6   -1   12      0.73      0.00
   -5   -1   12     -0.59      0.00
   -4   -1   12     -0.98      0.00
   -3   -1   12      1.80      0.00
   -2   -1   12     -0.83      0.00
   -1   -1   12      0.26      0.00
    0   -1   12     -1.16      0.00
    1   -1   12      1.97      0.00
    2   -1   12     -0.46      0.00
    3   -1   12     -0.51      0.00
    4   -1   12     -0.68      0.00
    5   -1   12      0.64      0.00
    6   -1   12      0.03      0.00
    7   -1   12     -0.13      0.00
   -6    0   12      0.21      0.00
   -5    0   12     -0.56      0.00
   -4    0   12     -0.27      0.00
   -3    0   12      1.00      0.00
   -2    0   12      0.33      0.00
   -1    0   12     -0.88      0.00
    0    0   12     -0.55      0.00
    1    0   12      1.42      0.00
    2    0   12     -0.38      0.00
    3    0   12     -0.33      0.00
    4    0   12     -0.80      0.00
    5    0   12      0.86      0.00
    6    0   12      0.15      0.00
    7    0   12     -0.20      0.00
   -6    1   12     -0.23      0.00
   -5    1   12      0.01      0.00
   -4    1   12     -0.28      0.00
   -3    1   12      0.54      0.00
   -2    1   12      0.71      0.00
   -1    1   12     -1.23      0.00
    0    1   12     -0.31      0.00
    1    1   12      1.11      0.00
    2    1   12      0.03      0.00
    3    1   12     -0.76      0.00
    4    1   12     -0.49      0.00
    5    1   12      0.99      0.00
    6    1   12     -0.02      0.00
    7    1   12     -0.08      0.00
   -5    2   12      0.11      0.00
   -4    2   12     -0.52      0.00
   -3    2   12      0.66      0.00
   -2    2   12      0.56      0.00
   -1    2   12     -0.98      0.00
    0    2   12     -0.55      0.00
    1    2   12      1.40      0.00
    2    2   12     -0.24      0.00
    3    2   12     -1.05      0.00
    4    2   12      0.05      0.00
    5    2   12      0.93      0.00
    6    2   12     -0.22      0.00
    7    2   12      0.18      0.00
    8    2   12     -0.32      0.00
   -5    3   12     -0.19      0.00
   -4    3   12     -0.38      0.00
   -3    3   12      0.95      0.00
   -2    3   12      0.15      0.00
   -1    3   12     -0.78      0.00
    0    3   12     -0.67      0.00
    1    3   12      1.54      0.00
    2    3   12     -0.83      0.00
    3    3   12     -0.66      0.00
    4    3   12      0.31      0.00
    5    3   12      0.92      0.00
    6    3   12     -0.42      0.00
    7    3   12      0.45      0.00
    8    3   12     -0.60      0.00
   -4    4   12     -0.08      0.00
   -3    4   12      0.86      0.00
   -2    4   12     -0.15      0.00
   -1    4   12     -0.84      0.00
    0    4   12     -0.31      0.00
    1    4   12      1.06      0.00
    2    4   12     -0.75      0.00
    3    4   12     -0.16      0.00
    4    4   12      0.32      0.00
    5    4   12      0.93      0.00
    6    4   12     -0.59      0.00
    7    4   12      0.52      0.00
    8    4   12     -0.89      0.00
   -3    5   12      0.33      0.00
   -2    5   12      0.02      0.00
   -1    5   12     -0.93      0.00
    0    5   12      0.18      0.00
    1    5   12      0.47      0.00
    2    5   12     -0.21      0.00
    3    5   12      0.01      0.00
    4    5   12      0.25      0.00
    5    5   12      0.74      0.00
    6    5   12     -0.59      0.00
    7    5   12      0.18      0.00
    8    5   12     -0.79      0.00
   -3    6   12     -0.08      0.00
   -2    6   12      0.42      0.00
   -1    6   12     -0.78      0.00
    0    6   12      0.24      0.00
    1    6   12      0.38      0.00
    2    6   12     -0.08      0.00
    3    6   12      0.08      0.00
    4    6   12      0.09      0.00
    5    6   12      0.50      0.00
    6    6   12     -0.55      0.00
    7    6   12     -0.26      0.00
   -2    7   12      0.49      0.00
   -1    7   12     -0.41      0.00
    0    7   12     -0.10      0.00
    1    7   12      0.56      0.00
    2    7   12     -0.34      0.00
    3    7   12      0.09      0.00
    4    7   12      0.11      0.00
    5    7   12      0.24      0.00
    6    7   12     -0.62      0.00
    7    7   12     -0.26      0.00
    0    8   12     -0.28      0.00
    1    8   12      0.45      0.00
    2    8   12     -0.35      0.00
    3    8   12     -0.14      0.00
    4    8   12      0.48      0.00
    5    8   12     -0.24      0.00
    6    8   12     -0.55      0.00
    2    9   12     -0.16      0.00
    3    9   12     -0.27      0.00
    4    9   12      0.67      0.00
    5    9   12     -0.62      0.00
   -3   -8   13     -0.35      0.00
   -2   -8   13     -0.11      0.00
   -1   -8   13      0.67      0.00
   -4   -7   13      0.09      0.00
   -3   -7   13     -0.63      0.00
   -2   -7   13     -0.17      0.00
   -1   -7   13      1.04      0.00
    0   -7   13     -0.50      0.00
    1   -7   13     -0.24      0.00
    2   -7   13      1.42      0.00
   -5   -6   13     -0.80      0.00
   -4   -6   13      0.78      0.00
   -3   -6   13     -0.28      0.00
   -2   -6   13      0.02      0.00
   -1   -6   13      0.85      0.00
    0   -6   13     -0.45      0.00
    1   -6   13      0.32      0.00
    2   -6   13      0.85      0.00
    3   -6   13     -2.05      0.00
   -6   -5   13     -0.23      0.00
   -5   -5   13     -1.68      0.00
   -4   -5   13      1.87      0.00
   -3   -5   13      0.47      0.00
   -2   -5   13     -0.25      0.00
   -1   -5   13      0.28      0.00
    0   -5   13     -0.01      0.00
    1   -5   13      0.30      0.00
    2   -5   13     -0.17      0.00
    3   -5   13     -0.96      0.00
    4   -5   13      1.19      0.00
   -6   -4   13     -0.04      0.00
   -5   -4   13     -1.31      0.00
   -4   -4   13      2.11      0.00
   -3   -4   13      1.21      0.00
   -2   -4   13     -1.37      0.00
   -1   -4   13      0.33      0.00
    0   -4   13      0.09      0.00
    1   -4   13     -0.31      0.00
    2   -4   13      0.06      0.00
    3   -4   13      0.03      0.00
    4   -4   13      0.10      0.00
    5   -4   13      0.04      0.00
   -6   -3   13      0.29      0.00
   -5   -3   13     -0.30      0.00
   -4   -3   13      0.91      0.00
   -3   -3   13      1.69      0.00
   -2   -3   13     -2.37      0.00
   -1   -3   13      1.10      0.00
    0   -3   13     -0.65      0.00
    1   -3   13     -0.20      0.00
    2   -3   13      0.97      0.00
    3   -3   13     -0.11      0.00
    4   -3   13     -0.50      0.00
    5   -3   13      0.60      0.00
   -6   -2   13      0.78      0.00
   -5   -2   13     -0.09      0.00
   -4   -2   13     -0.38      0.00
   -3   -2   13      1.71      0.00
   -2   -2   13     -2.05      0.00
   -1   -2   13      1.42      0.00
    0   -2   13     -1.36      0.00
    1   -2   13      0.70      0.00
    2   -2   13      0.97      0.00
    3   -2   13     -0.41      0.00
    4   -2   13     -0.66      0.00
    5   -2   13      0.52      0.00
    6   -2   13     -0.20      0.00
   -6   -1   13      0.85      0.00
   -5   -1   13     -0.57      0.00
   -4   -1   13     -0.53      0.00
   -3   -1   13      1.24      0.00
   -2   -1   13     -0.69      0.00
   -1   -1   13      0.68      0.00
    0   -1   13     -1.20      0.00
    1   -1   13      1.05      0.00
    2   -1   13      0.41      0.00
    3   -1   13     -0.18      0.00
    4   -1   13     -1.03      0.00
    5   -1   13      0.42      0.00
    6   -1   13      0.30      0.00
   -5    0   13     -0.52      0.00
   -4    0   13     -0.11      0.00
   -3    0   13      0.65      0.00
   -2    0   13      0.39      0.00
   -1    0   13     -0.27      0.00
    0    0   13     -0.66      0.00
    1    0   13      0.57      0.00
    2    0   13      0.53      0.00
    3    0   13     -0.17      0.00
    4    0   13     -1.30      0.00
    5    0   13      0.62      0.00
    6    0   13      0.63      0.00
    7    0   13     -0.47      0.00
   -5    1   13      0.06      0.00
   -4    1   13     -0.06      0.00
   -3    1   13      0.28      0.00
   -2    1   13      0.67      0.00
   -1    1   13     -0.60      0.00
    0    1   13     -0.62      0.00
    1    1   13      0.47      0.00
    2    1   13      0.97      0.00
    3    1   13     -0.78      0.00
    4    1   13     -0.90      0.00
    5    1   13      0.62      0.00
    6    1   13      0.67      0.00
    7    1   13     -0.44      0.00
   -5    2   13      0.21      0.00
   -4    2   13     -0.25      0.00
   -3    2   13      0.24      0.00
   -2    2   13      0.57      0.00
   -1    2   13     -0.46      0.00
    0    2   13     -0.98      0.00
    1    2   13      1.16      0.00
    2    2   13      0.61      0.00
    3    2   13     -1.19      0.00
    4    2   13     -0.31      0.00
    5    2   13      0.37      0.00
    6    2   13      0.57      0.00
    7    2   13     -0.20      0.00
   -4    3   13     -0.24      0.00
   -3    3   13      0.41      0.00
   -2    3   13      0.46      0.00
   -1    3   13     -0.43      0.00
    0    3   13     -1.08      0.00
    1    3   13      1.64      0.00
    2    3   13     -0.21      0.00
    3    3   13     -0.94      0.00
    4    3   13     -0.09      0.00
    5    3   13      0.35      0.00
    6    3   13      0.35      0.00
    7    3   13      0.24      0.00
   -4    4   13     -0.05      0.00
   -3    4   13      0.44      0.00
   -2    4   13      0.43      0.00
   -1    4   13     -0.76      0.00
    0    4   13     -0.62      0.00
    1    4   13      1.21      0.00
    2    4   13     -0.39      0.00
    3    4   13     -0.56      0.00
    4    4   13     -0.05      0.00
    5    4   13      0.52      0.00
    6    4   13      0.12      0.00
    7    4   13      0.53      0.00
   -3    5   13      0.14      0.00
   -2    5   13      0.51      0.00
   -1    5   13     -1.07      0.00
    0    5   13     -0.04      0.00
    1    5   13      0.51      0.00
    2    5   13      0.01      0.00
    3    5   13     -0.36      0.00
    4    5   13      0.01      0.00
    5    5   13      0.51      0.00
    6    5   13      0.12      0.00
    7    5   13      0.28      0.00
   -2    6   13      0.54      0.00
   -1    6   13     -0.87      0.00
    0    6   13      0.09      0.00
    1    6   13      0.35      0.00
    2    6   13      0.10      0.00
    3    6   13     -0.09      0.00
    4    6   13     -0.10      0.00
    5    6   13      0.40      0.00
    6    6   13      0.18      0.00
    7    6   13     -0.23      0.00
   -1    7   13     -0.35      0.00
    0    7   13     -0.17      0.00
    1    7   13      0.46      0.00
    2    7   13     -0.11      0.00
    3    7   13      0.11      0.00
    4    7   13     -0.21      0.00
    5    7   13      0.30      0.00
    6    7   13      0.04      0.00
    1    8   13      0.29      0.00
    2    8   13     -0.08      0.00
    3    8   13     -0.02      0.00
    4    8   13      0.00      0.00
    5    8   13      0.03      0.00
   -3   -7   14     -0.58      0.00
   -2   -7   14     -0.95      0.00
   -1   -7   14      0.66      0.00
    0   -7   14      0.12      0.00
   -4   -6   14      0.29      0.00
   -3   -6   14     -0.61      0.00
   -2   -6   14     -0.63      0.00
   -1   -6   14      0.85      0.00
    0   -6   14      0.16      0.00
    1   -6   14      0.19      0.00
    2   -6   14      1.24      0.00
   -5   -5   14     -2.07      0.00
   -4   -5   14      0.92      0.00
   -3   -5   14     -0.30      0.00
   -2   -5   14     -0.06      0.00
   -1   -5   14      0.67      0.00
    0   -5   14      0.49      0.00
    1   -5   14      0.20      0.00
    2   -5   14      0.13      0.00
    3   -5   14     -0.93      0.00
   -5   -4   14     -2.13      0.00
   -4   -4   14      1.47      0.00
   -2   -4   14     -0.01      0.00
   -1   -4   14      0.71      0.00
    0   -4   14      0.45      0.00
    1   -4   14     -0.62      0.00
    2   -4   14      0.04      0.00
    3   -4   14     -0.17      0.00
    4   -4   14     -0.33      0.00
   -5   -3   14     -0.96      0.00
   -4   -3   14      0.97      0.00
   -3   -3   14      0.26      0.00
   -2   -3   14     -0.30      0.00
   -1   -3   14      1.16      0.00
    0   -3   14     -0.43      0.00
    1   -3   14     -0.89      0.00
    2   -3   14      0.77      0.00
    3   -3   14     -0.10      0.00
    4   -3   14     -0.27      0.00
    5   -3   14      0.65      0.00
   -5   -2   14     -0.18      0.00
   -4   -2   14      0.00      0.00
   -3   -2   14      0.10      0.00
   -2   -2   14     -0.07      0.00
   -1   -2   14      1.32      0.00
    0   -2   14     -1.27      0.00
    1   -2   14     -0.22      0.00
    2   -2   14      0.93      0.00
    3   -2   14      0.04      0.00
    4   -2   14     -0.31      0.00
    5   -2   14      0.09      0.00
   -5   -1   14     -0.38      0.00
   -4   -1   14     -0.32      0.00
   -3   -1   14     -0.11      0.00
   -2   -1   14      0.63      0.00
   -1   -1   14      0.89      0.00
    0   -1   14     -1.23      0.00
    1   -1   14      0.13      0.00
    2   -1   14      0.64      0.00
    3   -1   14      0.49      0.00
    4   -1   14     -0.98      0.00
    5   -1   14     -0.20      0.00
    6   -1   14      0.76      0.00
   -5    0   14     -0.54      0.00
   -4    0   14     -0.02      0.00
   -3    0   14     -0.14      0.00
   -2    0   14      1.00      0.00
   -1    0   14      0.34      0.00
    0    0   14     -0.85      0.00
    1    0   14     -0.26      0.00
    2    0   14      0.87      0.00
    3    0   14      0.49      0.00
    4    0   14     -1.49      0.00
    5    0   14     -0.02      0.00
    6    0   14      1.21      0.00
   -4    1   14      0.25      0.00
   -3    1   14     -0.10      0.00
   -2    1   14      0.83      0.00
   -1    1   14      0.09      0.00
    0    1   14     -0.91      0.00
    1    1   14     -0.30      0.00
    2    1   14      1.31      0.00
    3    1   14     -0.09      0.00
    4    1   14     -1.16      0.00
    5    1   14     -0.05      0.00
    6    1   14      1.36      0.00
   -4    2   14      0.27      0.00
   -3    2   14     -0.08      0.00
   -2    2   14      0.51      0.00
   -1    2   14      0.05      0.00
    0    2   14     -1.20      0.00
    1    2   14      0.46      0.00
    2    2   14      1.02      0.00
    3    2   14     -0.41      0.00
    4    2   14     -0.60      0.00
    5    2   14     -0.34      0.00
    6    2   14      1.22      0.00
    7    2   14     -0.54      0.00
   -3    3   14      0.03      0.00
   -2    3   14      0.39      0.00
   -1    3   14     -0.09      0.00
    0    3   14     -1.13      0.00
    1    3   14      1.04      0.00
    2    3   14      0.32      0.00
    3    3   14     -0.24      0.00
    4    3   14     -0.47      0.00
    5    3   14     -0.37      0.00
    6    3   14      0.80      0.00
    7    3   14     -0.10      0.00
   -3    4   14      0.18      0.00
   -2    4   14      0.45      0.00
   -1    4   14     -0.50      0.00
    0    4   14     -0.57      0.00
    1    4   14      0.73      0.00
    2    4   14      0.12      0.00
    3    4   14     -0.14      0.00
    4    4   14     -0.44      0.00
    5    4   14     -0.16      0.00
    6    4   14      0.40      0.00
   -2    5   14      0.46      0.00
   -1    5   14     -0.88      0.00
    0    5   14      0.03      0.00
    1    5   14      0.16      0.00
    2    5   14      0.33      0.00
    3    5   14     -0.17      0.00
    4    5   14     -0.25      0.00
    5    5   14     -0.10      0.00
    6    5   14      0.36      0.00
   -1    6   14     -0.73      0.00
    0    6   14      0.19      0.00
    1    6   14      0.08      0.00
    2    6   14      0.23      0.00
    3    6   14      0.03      0.00
    4    6   14     -0.21      0.00
    5    6   14     -0.14      0.00
    6    6   14      0.48      0.00
    1    7   14      0.20      0.00
    2    7   14     -0.04      0.00
    3    7   14      0.29      0.00
    4    7   14     -0.34      0.00
    5    7   14     -0.07      0.00
   -2   -6   15     -0.85      0.00
   -1   -6   15     -0.01      0.00
    0   -6   15      0.31      0.00
    1   -6   15     -0.04      0.00
   -3   -5   15     -1.29      0.00
   -2   -5   15     -0.03      0.00
   -1   -5   15      0.19      0.00
    0   -5   15      0.70      0.00
    1   -5   15      0.26      0.00
    2   -5   15      0.38      0.00
   -1   -4   15      0.54      0.00
    0   -4   15      0.82      0.00
    1   -4   15     -0.33      0.00
    2   -4   15      0.02      0.00
    3   -4   15     -0.24      0.00
   -4   -3   15      0.76      0.00
   -3   -3   15     -2.06      0.00
   -2   -3   15      1.22      0.00
   -1   -3   15      1.01      0.00
    0   -3   15      0.15      0.00
    1   -3   15     -0.80      0.00
    2   -3   15      0.22      0.00
    3   -3   15     -0.30      0.00
    4   -3   15      0.25      0.00
   -4   -2   15      0.22      0.00
   -3   -2   15     -2.06      0.00
   -2   -2   15      1.34      0.00
   -1   -2   15      1.22      0.00
    0   -2   15     -0.54      0.00
    1   -2   15     -0.60      0.00
    2   -2   15      0.23      0.00
    3   -2   15      0.18      0.00
    4   -2   15      0.43      0.00
    5   -2   15     -0.51      0.00
   -4   -1   15     -0.17      0.00
   -3   -1   15     -1.67      0.00
   -2   -1   15      1.29      0.00
   -1   -1   15      1.14      0.00
    0   -1   15     -0.53      0.00
    1   -1   15     -0.56      0.00
    2   -1   15      0.16      0.00
    3   -1   15      0.95      0.00
    4   -1   15     -0.38      0.00
    5   -1   15     -0.83      0.00
   -4    0   15     -0.07      0.00
   -3    0   15     -0.96      0.00
   -2    0   15      1.02      0.00
   -1    0   15      0.98      0.00
    0    0   15     -0.25      0.00
    1    0   15     -1.02      0.00
    2    0   15      0.50      0.00
    3    0   15      1.10      0.00
    4    0   15     -1.18      0.00
    5    0   15     -0.66      0.00
   -4    1   15      0.25      0.00
   -3    1   15     -0.37      0.00
   -2    1   15      0.62      0.00
   -1    1   15      0.75      0.00
    0    1   15     -0.32      0.00
    1    1   15     -1.17      0.00
    2    1   15      0.82      0.00
    3    1   15      0.71      0.00
    4    1   15     -1.09      0.00
    5    1   15     -0.55      0.00
    6    1   15      1.46      0.00
   -3    2   15     -0.08      0.00
   -2    2   15      0.23      0.00
   -1    2   15      0.45      0.00
    0    2   15     -0.55      0.00
    1    2   15     -0.63      0.00
    2    2   15      0.58      0.00
    3    2   15      0.59      0.00
    4    2   15     -0.60      0.00
    5    2   15     -0.64      0.00
    6    2   15      1.31      0.00
   -2    3   15      0.02      0.00
   -1    3   15      0.19      0.00
    0    3   15     -0.51      0.00
    1    3   15     -0.14      0.00
    2    3   15      0.14      0.00
    3    3   15      0.76      0.00
    4    3   15     -0.44      0.00
    5    3   15     -0.58      0.00
    6    3   15      0.74      0.00
   -2    4   15      0.09      0.00
   -1    4   15     -0.15      0.00
    0    4   15     -0.14      0.00
    1    4   15     -0.21      0.00
    2    4   15      0.15      0.00
    3    4   15      0.65      0.00
    4    4   15     -0.37      0.00
    5    4   15     -0.39      0.00
    6    4   15      0.19      0.00
   -1    5   15     -0.51      0.00
    0    5   15      0.19      0.00
    1    5   15     -0.38      0.00
    2    5   15      0.34      0.00
    3    5   15      0.31      0.00
    4    5   15     -0.10      0.00
    5    5   15     -0.36      0.00
    1    6   15     -0.14      0.00
    2    6   15      0.19      0.00
    3    6   15      0.24      0.00
    4    6   15      0.06      0.00
   -1   -5   16     -0.40      0.00
    0   -5   16      0.20      0.00
   -2   -4   16      0.57      0.00
   -1   -4   16      0.00      0.00
    0   -4   16      0.59      0.00
    1   -4   16      0.16      0.00
    2   -4   16      0.06      0.00
   -3   -3   16     -2.93      0.00
   -2   -3   16      1.02      0.00
   -1   -3   16      0.45      0.00
    0   -3   16      0.53      0.00
    1   -3   16     -0.18      0.00
    2   -3   16     -0.15      0.00
    3   -3   16     -0.68      0.00
   -3   -2   16     -2.70      0.00
   -2   -2   16      0.95      0.00
   -1   -2   16      0.67      0.00
    0   -2   16      0.38      0.00
    1   -2   16     -0.41      0.00
    2   -2   16     -0.35      0.00
    3   -2   16     -0.15      0.00
   -3   -1   16     -1.94      0.00
   -2   -1   16      0.49      0.00
   -1   -1   16      0.79      0.00
    0   -1   16      0.60      0.00
    1   -1   16     -0.76      0.00
    2   -1   16     -0.31      0.00
    3   -1   16      0.79      0.00
    4   -1   16      0.30      0.00
   -3    0   16     -1.01      0.00
   -2    0   16      0.07      0.00
   -1    0   16      0.90      0.00
    0    0   16      0.89      0.00
    1    0   16     -1.26      0.00
    2    0   16      0.02      0.00
    3    0   16      1.17      0.00
    4    0   16     -0.65      0.00
   -2    1   16     -0.06      0.00
   -1    1   16      0.77      0.00
    0    1   16      0.84      0.00
    1    1   16     -1.44      0.00
    2    1   16      0.15      0.00
    3    1   16      0.96      0.00
    4    1   16     -0.87      0.00
    5    1   16     -0.53      0.00
   -2    2   16     -0.17      0.00
   -1    2   16      0.47      0.00
    0    2   16      0.59      0.00
    1    2   16     -1.16      0.00
    2    2   16     -0.17      0.00
    3    2   16      0.87      0.00
    4    2   16     -0.53      0.00
    5    2   16     -0.39      0.00
   -1    3   16      0.31      0.00
    0    3   16      0.40      0.00
    1    3   16     -0.87      0.00
    2    3   16     -0.44      0.00
    3    3   16      0.99      0.00
    4    3   16     -0.26      0.00
    5    3   16     -0.19      0.00
    0    4   16      0.32      0.00
    1    4   16     -0.81      0.00
    2    4   16     -0.28      0.00
    3    4   16      0.83      0.00
    4    4   16     -0.09      0.00
    1    5   16     -0.67      0.00
    2    5   16      0.02      0.00
    3    5   16      0.42      0.00
   -1   -3   17     -0.17      0.00
    0   -3   17      0.36      0.00
    1   -3   17      0.25      0.00
   -1   -2   17     -0.19      0.00
    0   -2   17      0.71      0.00
    1   -2   17     -0.15      0.00
    2   -2   17     -0.40      0.00
   -1   -1   17     -0.09      0.00
    0   -1   17      1.09      0.00
    1   -1   17     -0.67      0.00
    2   -1   17     -0.30      0.00
    3   -1   17      0.29      0.00
   -1    0   17      0.16      0.00
    0    0   17      1.30      0.00
    1    0   17     -1.00      0.00
    2    0   17      0.00      0.00
    3    0   17      0.82      0.00
   -1    1   17      0.24      0.00
    0    1   17      1.25      0.00
    1    1   17     -1.01      0.00
    2    1   17      0.03      0.00
    3    1   17      0.73      0.00
    0    2   17      1.04      0.00
    1    2   17     -0.84      0.00
    2    2   17     -0.29      0.00
    3    2   17      0.49      0.00
    1    3   17     -0.72      0.00
    2    3   17     -0.56      0.00
    3    3   17      0.42      0.00
    0    0    1     36.15      0.00
   -4   -8   12     -1.21      0.00
   -2   -8   12      0.25      0.00
   -1   -8   12      0.46      0.00
   -3   -4   14      0.09      0.00
   -3   -4   15     -1.82      0.00
   -2   -4   15      0.83      0.00
    0    0    0      0.00      0.00
# SQUEEZE RESULTS (Version = 190619)
# Note: Data are Listed for all Voids in the P1 Unit Cell
# i.e. Centre of Gravity, Solvent Accessible Volume,
# Recovered number of Electrons in the Void and
# Details about the Squeezed Material
loop_
  _platon_squeeze_void_nr
  _platon_squeeze_void_average_x
  _platon_squeeze_void_average_y
  _platon_squeeze_void_average_z
  _platon_squeeze_void_volume
  _platon_squeeze_void_count_electrons
  _platon_squeeze_void_content
   1  0.500  0.000  1.000       120        43 ' '
# Missing Reflections Below sin(th)/lambda = 0.25
loop_
  _platon_missing_refln_index_h
  _platon_missing_refln_index_k
  _platon_missing_refln_index_l
  _platon_missing_refln_theta
    0    0    1     1.547
_platon_squeeze_void_probe_radius                  1.20
_platon_squeeze_details
)
TITL HgClO42_O-NPE_a.res in P-1
CELL    7.7679    9.3962   13.2250     89.23     84.71     69.45
SPGR P-1
# Solvent Accessible Volume =       121
# Electrons Found in S.A.V. =        43
# Note: Atoms in Void are Labelled as Cxxx and Qxxx for all Others
C101 0.724 0.969 0.113 !       5.65 eA-3
C102 0.520 0.028 0.049 !       4.02 eA-3
Q103 0.969 0.750 0.486 !       3.64 eA-3
Q104 1.001 0.816 0.421 !       2.57 eA-3
Q105 0.063 0.657 0.423 !       2.49 eA-3
Q106 0.942 0.671 0.435 !       2.35 eA-3
Q107 0.998 0.705 0.378 !       2.18 eA-3
Q108 0.286 0.957 0.077 !       2.02 eA-3
Q109 0.910 0.839 0.432 !       1.83 eA-3
Q110 0.793 0.039 0.459 !       1.82 eA-3
Q111 0.027 0.336 0.501 !       1.66 eA-3
Q112 0.947 0.220 0.278 !       1.57 eA-3
Q113 1.001 0.825 0.346 !       1.53 eA-3
Q114 0.090 0.680 0.360 !       1.40 eA-3
Q115 0.941 0.647 0.356 !       1.19 eA-3
Q116 0.939 0.688 0.187 !       1.17 eA-3
Q117 0.155 0.419 0.410 !       1.13 eA-3
Q118 0.971 0.753 0.298 !       1.08 eA-3
Q119 0.025 0.903 0.437 !       1.04 eA-3
Q120 0.319 0.319 0.351 !       1.00 eA-3
Q121 0.975 0.157 0.502 !       1.00 eA-3
Q122 0.875 0.950 0.322 !       1.00 eA-3
Q123 0.903 0.343 0.503 !       0.99 eA-3
Q124 0.154 0.361 0.454 !       0.97 eA-3
Q125 0.025 0.288 0.432 !       0.94 eA-3
Q126 0.756 0.406 0.471 !       0.84 eA-3
C127 0.412 0.026 0.106 !       0.82 eA-3
Q128 0.192 0.718 0.311 !       0.80 eA-3
Q129 0.995 0.089 0.486 !       0.80 eA-3
Q130 0.317 0.316 0.477 !       0.80 eA-3
Q131 0.260 0.503 0.312 !       0.75 eA-3
Q132 0.467 0.239 0.269 !       0.73 eA-3
Q133 0.974 0.099 0.409 !       0.72 eA-3
Q134 1.001 0.157 0.338 !       0.72 eA-3
Q135 0.633 0.025 0.224 !       0.71 eA-3
Q136 0.316 0.167 0.405 !       0.71 eA-3
Q137 0.474 0.024 0.132 !       0.70 eA-3
Q138 0.030 0.659 0.236 !       0.70 eA-3
Q139 0.752 1.009 0.232 !       0.70 eA-3
Q140 0.307 0.374 0.434 !       0.69 eA-3
Q141 0.874 0.941 0.244 !       0.69 eA-3
Q142 0.907 0.466 0.478 !       0.68 eA-3
Q143 0.906 0.162-0.002 !       0.68 eA-3
Q144 0.994 0.982 0.470 !       0.67 eA-3
Q145 0.783 0.941 0.378 !       0.67 eA-3
Q146 0.210 0.284 0.264 !       0.67 eA-3
Q147 0.445 0.213 0.402 !       0.66 eA-3
Q148 0.842 0.127 0.393 !       0.66 eA-3
Q149 0.478 0.297 0.297 !       0.66 eA-3
Q150 0.340 0.680 0.439 !       0.66 eA-3
Q151 0.906 0.749 0.128 !       0.66 eA-3
Q152 0.840 0.522 0.453 !       0.64 eA-3
Q153 0.878 0.938 0.425 !       0.64 eA-3
Q154 0.873 0.263 0.233 !       0.64 eA-3
Q155 0.717 0.062 0.169 !       0.64 eA-3
Q156 0.529 0.811 0.365 !       0.63 eA-3
Q157 0.044 0.404 0.044 !       0.63 eA-3
Q158 0.088 0.159 0.391 !       0.62 eA-3
Q159 0.753 0.479 0.439 !       0.62 eA-3
Q160 0.629 0.619 0.407 !       0.62 eA-3
Q161 0.654 1.011 0.290 !       0.62 eA-3
Q162 0.650 0.098 0.229 !       0.61 eA-3
Q163 0.962 0.768 0.234 !       0.60 eA-3
Q164 0.905 0.470 0.408 !       0.60 eA-3
Q165 0.812 0.638 0.454 !       0.59 eA-3
Q166 0.756 0.842 0.345 !       0.59 eA-3
Q167 0.809 0.374 0.410 !       0.59 eA-3
Q168 0.348 0.624 0.488 !       0.59 eA-3
Q169 0.934 0.967 0.284 !       0.59 eA-3
Q170 0.155 0.134 0.474 !       0.58 eA-3
Q171 0.370 0.075 0.175 !       0.58 eA-3
Q172 0.527 0.688 0.059 !       0.57 eA-3
Q173 0.400 0.554 0.131 !       0.57 eA-3
Q174 0.539 0.061 0.288 !       0.57 eA-3
Q175 0.625 0.712 0.408 !       0.56 eA-3
Q176 0.776 0.706 0.450 !       0.56 eA-3
Q177 0.842 0.701 0.158 !       0.55 eA-3
Q178 0.091 0.968 0.407 !       0.55 eA-3
Q179 0.848 0.137 0.058 !       0.55 eA-3
Q180 0.376 0.355 0.433 !       0.54 eA-3
Q181 0.369 0.962 0.312 !       0.54 eA-3
Q182 0.914 0.590 0.421 !       0.54 eA-3
Q183 0.810 0.275 0.297 !       0.54 eA-3
Q184 0.459 0.048 0.218 !       0.53 eA-3
Q185 0.720 0.788 0.159 !       0.53 eA-3
Q186 0.996 0.209 0.207 !       0.53 eA-3
Q187 0.375 0.131 0.333 !       0.53 eA-3
Q188 0.616 0.554 0.370 !       0.53 eA-3
Q189 0.343 0.966 0.157 !       0.53 eA-3
Q190 0.781 0.023 0.330 !       0.52 eA-3
Q191 0.836 0.765 0.206 !       0.52 eA-3
Q192 0.996 0.277 0.234 !       0.52 eA-3
Q193 0.091 0.074 0.358 !       0.51 eA-3
Q194 0.964 0.993 0.390 !       0.51 eA-3
Q195 0.530 0.760 0.176 !       0.51 eA-3
Q196 0.591 0.636 0.293 !       0.51 eA-3
Q197 0.504 0.833 0.153 !       0.51 eA-3
Q198 0.992 0.230 0.388 !       0.51 eA-3
Q199 0.471 0.254 0.354 !       0.51 eA-3
)
;
_shelx_fab_checksum              90949
loop_
_space_group_symop_operation_xyz
'x, y, z'
'-x, -y, -z'
loop_
_atom_site_label
_atom_site_type_symbol
_atom_site_fract_x
_atom_site_fract_y
_atom_site_fract_z
_atom_site_U_iso_or_equiv
_atom_site_adp_type
_atom_site_occupancy
_atom_site_site_symmetry_order
_atom_site_calc_flag
_atom_site_refinement_flags_posn
_atom_site_refinement_flags_adp
_atom_site_refinement_flags_occupancy
_atom_site_disorder_assembly
_atom_site_disorder_group
Hg1 Hg 0.01399(4) 0.26377(3) 0.57354(2) 0.03636(10) Uani 1 1 d . U . . .
C13L C 0.2040(10) 0.3679(9) 0.7327(6) 0.0421(15) Uani 1 1 d . U . . .
H13 H 0.083958 0.441940 0.746171 0.051 Uiso 1 1 calc R U . . .
C14L C 0.3447(10) 0.3766(9) 0.7844(6) 0.0422(15) Uani 1 1 d . U . . .
H14 H 0.322453 0.455297 0.833638 0.051 Uiso 1 1 calc R U . . .
N12L N 0.2317(8) 0.2567(7) 0.6632(4) 0.0344(12) Uani 1 1 d . U . . .
C11L C 0.3980(9) 0.1507(8) 0.6461(6) 0.0382(14) Uani 1 1 d . U . . .
H11 H 0.415546 0.070464 0.598835 0.046 Uiso 1 1 calc R U . . .
C10L C 0.5463(10) 0.1538(8) 0.6951(6) 0.0388(14) Uani 1 1 d . U . . .
H10 H 0.664632 0.077428 0.681441 0.047 Uiso 1 1 calc R U . . .
C9L C 0.5187(9) 0.2702(8) 0.7644(6) 0.0376(14) Uani 1 1 d . U . . .
O8L O 0.8386(7) 0.2193(8) 0.7781(5) 0.0566(16) Uani 1 1 d . U . . .
C7L C 0.6826(10) 0.2789(10) 0.8122(6) 0.0438(15) Uani 1 1 d . U . . .
O6L O 0.6293(7) 0.3673(7) 0.8977(4) 0.0501(13) Uani 1 1 d . U . . .
C5L C 0.8042(10) 0.5244(10) 0.9201(6) 0.0460(16) Uani 1 1 d . U . . .
H5L H 0.731847 0.594584 0.874667 0.055 Uiso 1 1 calc R U . . .
C4L C 0.7728(10) 0.3945(10) 0.9431(6) 0.0461(15) Uani 1 1 d . U . . .
O4A O -0.4101(13) 0.5759(11) 0.6862(8) 0.099(3) Uani 1 1 d . U . . .
O1E O -0.2048(7) 0.0371(6) 0.4727(4) 0.0454(12) Uani 1 1 d . U . . .
C3L C 0.8704(12) 0.2877(11) 1.0114(7) 0.0543(18) Uani 1 1 d . U . . .
H3L H 0.842409 0.198501 1.026141 0.065 Uiso 1 1 calc R U . . .
C3E C -0.1128(14) 0.1430(11) 0.3246(7) 0.060(2) Uani 1 1 d . U . . .
H3EA H -0.084230 0.040665 0.296149 0.091 Uiso 1 1 calc R U . . .
H3EB H -0.001711 0.170390 0.316815 0.091 Uiso 1 1 calc R U . . .
H3EC H -0.209956 0.215945 0.288541 0.091 Uiso 1 1 calc R U . . .
O3A O -0.3832(16) 0.7513(14) 0.5676(8) 0.123(3) Uani 1 1 d . U . . .
C2L C 1.0076(12) 0.3162(11) 1.0563(7) 0.0538(18) Uani 1 1 d . U . . .
H2L H 1.074333 0.245939 1.103417 0.065 Uiso 1 1 calc R U . . .
O2A O -0.1306(10) 0.5873(9) 0.6339(9) 0.103(3) Uani 1 1 d . U . . .
C1L C 1.0518(10) 0.4460(9) 1.0345(6) 0.0436(16) Uani 1 1 d . U . . .
Cl1A Cl -0.3178(2) 0.6743(2) 0.65264(16) 0.0445(4) Uani 1 1 d . U . . .
O1A O -0.3333(17) 0.7808(11) 0.7297(8) 0.120(3) Uani 1 1 d . U . . .
C1E C -0.1765(9) 0.1462(8) 0.4324(6) 0.0384(14) Uani 1 1 d . U . . .
C2E C -0.2104(10) 0.2886(8) 0.4916(6) 0.0398(15) Uani 1 1 d . U . . .
H2E1 H -0.323716 0.310693 0.538703 0.048 Uiso 1 1 calc R U . . .
H2E2 H -0.228441 0.374842 0.444906 0.048 Uiso 1 1 calc R U . . .
loop_
_atom_site_aniso_label
_atom_site_aniso_U_11
_atom_site_aniso_U_22
_atom_site_aniso_U_33
_atom_site_aniso_U_23
_atom_site_aniso_U_13
_atom_site_aniso_U_12
Hg1 0.03701(15) 0.03485(15) 0.04162(17) -0.01005(10) -0.00957(11) -0.01626(11)
C13L 0.033(3) 0.048(3) 0.045(3) -0.020(3) -0.003(3) -0.013(3)
C14L 0.035(3) 0.050(3) 0.043(3) -0.024(3) -0.002(3) -0.016(3)
N12L 0.032(2) 0.039(3) 0.036(3) -0.012(2) -0.003(2) -0.018(2)
C11L 0.037(3) 0.039(3) 0.040(3) -0.015(3) -0.004(2) -0.014(2)
C10L 0.033(3) 0.040(3) 0.043(3) -0.015(3) -0.004(2) -0.010(2)
C9L 0.032(3) 0.045(3) 0.039(3) -0.014(3) -0.003(2) -0.017(2)
O8L 0.032(2) 0.078(4) 0.056(3) -0.029(3) -0.005(2) -0.012(3)
C7L 0.034(3) 0.057(4) 0.043(3) -0.016(3) -0.004(3) -0.018(3)
O6L 0.034(2) 0.073(3) 0.047(3) -0.026(2) -0.003(2) -0.022(2)
C5L 0.036(3) 0.062(4) 0.039(4) -0.015(3) -0.008(3) -0.015(3)
C4L 0.035(3) 0.066(4) 0.041(3) -0.019(3) -0.006(2) -0.021(3)
O4A 0.106(6) 0.099(6) 0.108(6) 0.005(5) 0.008(5) -0.060(5)
O1E 0.045(3) 0.035(3) 0.059(3) -0.011(2) -0.014(2) -0.014(2)
C3L 0.049(3) 0.065(4) 0.054(4) -0.010(3) -0.009(3) -0.024(3)
C3E 0.065(5) 0.062(5) 0.056(4) -0.016(4) 0.002(4) -0.026(4)
O3A 0.120(7) 0.152(8) 0.098(6) 0.058(5) -0.047(5) -0.042(6)
C2L 0.048(4) 0.064(4) 0.050(4) -0.006(3) -0.014(3) -0.019(3)
O2A 0.052(4) 0.065(5) 0.179(8) -0.024(5) -0.008(4) -0.004(3)
C1L 0.036(3) 0.058(4) 0.037(3) -0.015(3) -0.006(3) -0.014(3)
Cl1A 0.0379(8) 0.0407(9) 0.0517(11) 0.0001(8) -0.0089(8) -0.0086(7)
O1A 0.176(9) 0.073(5) 0.103(6) -0.033(4) 0.001(6) -0.036(5)
C1E 0.032(3) 0.036(3) 0.048(3) -0.011(3) -0.016(3) -0.010(2)
C2E 0.039(3) 0.035(3) 0.046(4) -0.004(3) -0.016(3) -0.011(3)
loop_
_atom_type_symbol
_atom_type_description
_atom_type_scat_dispersion_real
_atom_type_scat_dispersion_imag
_atom_type_scat_source
C C 0.0033 0.0016 'International Tables Vol C Tables 4.2.6.8 and 6.1.1.4'
H H 0.0000 0.0000 'International Tables Vol C Tables 4.2.6.8 and 6.1.1.4'
N N 0.0061 0.0033 'International Tables Vol C Tables 4.2.6.8 and 6.1.1.4'
O O 0.0106 0.0060 'International Tables Vol C Tables 4.2.6.8 and 6.1.1.4'
Cl Cl 0.1484 0.1585 'International Tables Vol C Tables 4.2.6.8 and 6.1.1.4'
Hg Hg -2.3894 9.2266 'International Tables Vol C Tables 4.2.6.8 and 6.1.1.4'
loop_
_geom_angle_atom_site_label_1
_geom_angle_atom_site_label_2
_geom_angle_atom_site_label_3
_geom_angle
_geom_angle_site_symmetry_1
_geom_angle_site_symmetry_3
_geom_angle_publ_flag
C2E Hg1 N12L 175.2(2) . . ?
N12L C13L C14L 121.5(7) . . ?
N12L C13L H13 119.2 . . ?
C14L C13L H13 119.2 . . ?
C13L C14L C9L 119.2(6) . . ?
C13L C14L H14 120.4 . . ?
C9L C14L H14 120.4 . . ?
C11L N12L C13L 119.5(6) . . ?
C11L N12L Hg1 120.8(4) . . ?
C13L N12L Hg1 119.5(5) . . ?
N12L C11L C10L 121.8(6) . . ?
N12L C11L H11 119.1 . . ?
C10L C11L H11 119.1 . . ?
C9L C10L C11L 118.6(6) . . ?
C9L C10L H10 120.7 . . ?
C11L C10L H10 120.7 . . ?
C14L C9L C10L 119.3(6) . . ?
C14L C9L C7L 122.3(6) . . ?
C10L C9L C7L 118.4(6) . . ?
O8L C7L O6L 124.5(7) . . ?
O8L C7L C9L 124.4(7) . . ?
O6L C7L C9L 111.1(6) . . ?
C7L O6L C4L 115.4(6) . . ?
C4L C5L C1L 118.6(8) . 2_767 ?
C4L C5L H5L 120.7 . . ?
C1L C5L H5L 120.7 2_767 . ?
C5L C4L C3L 124.0(7) . . ?
C5L C4L O6L 117.8(8) . . ?
C3L C4L O6L 118.2(8) . . ?
C2L C3L C4L 117.7(9) . . ?
C2L C3L H3L 121.1 . . ?
C4L C3L H3L 121.1 . . ?
C1E C3E H3EA 109.5 . . ?
C1E C3E H3EB 109.5 . . ?
H3EA C3E H3EB 109.5 . . ?
C1E C3E H3EC 109.5 . . ?
H3EA C3E H3EC 109.5 . . ?
H3EB C3E H3EC 109.5 . . ?
C3L C2L C1L 121.8(9) . . ?
C3L C2L H2L 119.1 . . ?
C1L C2L H2L 119.1 . . ?
C2L C1L C5L 122.1(8) . 2_767 ?
C2L C1L C1L 119.1(9) . 2_767 ?
C5L C1L C1L 118.8(10) 2_767 2_767 ?
O3A Cl1A O2A 110.4(7) . . ?
O3A Cl1A O4A 113.0(7) . . ?
O2A Cl1A O4A 107.5(6) . . ?
O3A Cl1A O1A 108.5(7) . . ?
O2A Cl1A O1A 107.1(7) . . ?
O4A Cl1A O1A 110.2(6) . . ?
O1E C1E C3E 121.6(7) . . ?
O1E C1E C2E 120.8(7) . . ?
C3E C1E C2E 117.6(7) . . ?
C1E C2E Hg1 109.5(5) . . ?
C1E C2E H2E1 109.8 . . ?
Hg1 C2E H2E1 109.8 . . ?
C1E C2E H2E2 109.8 . . ?
Hg1 C2E H2E2 109.8 . . ?
H2E1 C2E H2E2 108.2 . . ?
loop_
_geom_bond_atom_site_label_1
_geom_bond_atom_site_label_2
_geom_bond_distance
_geom_bond_site_symmetry_2
_geom_bond_publ_flag
Hg1 C2E 2.079(7) . ?
Hg1 N12L 2.135(5) . ?
C13L N12L 1.347(8) . ?
C13L C14L 1.368(10) . ?
C13L H13 0.9500 . ?
C14L C9L 1.374(10) . ?
C14L H14 0.9500 . ?
N12L C11L 1.327(9) . ?
C11L C10L 1.382(9) . ?
C11L H11 0.9500 . ?
C10L C9L 1.381(9) . ?
C10L H10 0.9500 . ?
C9L C7L 1.500(9) . ?
O8L C7L 1.190(9) . ?
C7L O6L 1.355(9) . ?
O6L C4L 1.413(8) . ?
C5L C4L 1.352(12) . ?
C5L C1L 1.427(10) 2_767 ?
C5L H5L 0.9500 . ?
C4L C3L 1.403(13) . ?
O4A Cl1A 1.400(8) . ?
O1E C1E 1.227(9) . ?
C3L C2L 1.372(11) . ?
C3L H3L 0.9500 . ?
C3E C1E 1.463(12) . ?
C3E H3EA 0.9800 . ?
C3E H3EB 0.9800 . ?
C3E H3EC 0.9800 . ?
O3A Cl1A 1.369(9) . ?
C2L C1L 1.398(13) . ?
C2L H2L 0.9500 . ?
O2A Cl1A 1.396(8) . ?
C1L C1L 1.430(16) 2_767 ?
Cl1A O1A 1.405(9) . ?
C1E C2E 1.489(9) . ?
C2E H2E1 0.9900 . ?
C2E H2E2 0.9900 . ?
loop_
_geom_torsion_atom_site_label_1
_geom_torsion_atom_site_label_2
_geom_torsion_atom_site_label_3
_geom_torsion_atom_site_label_4
_geom_torsion
_geom_torsion_site_symmetry_1
_geom_torsion_site_symmetry_2
_geom_torsion_site_symmetry_3
_geom_torsion_site_symmetry_4
_geom_torsion_publ_flag
N12L C13L C14L C9L 0.5(13) . . . . ?
C14L C13L N12L C11L 1.8(12) . . . . ?
C14L C13L N12L Hg1 -173.2(6) . . . . ?
C13L N12L C11L C10L -2.4(12) . . . . ?
Hg1 N12L C11L C10L 172.6(6) . . . . ?
N12L C11L C10L C9L 0.6(12) . . . . ?
C13L C14L C9L C10L -2.2(13) . . . . ?
C13L C14L C9L C7L 175.3(8) . . . . ?
C11L C10L C9L C14L 1.7(12) . . . . ?
C11L C10L C9L C7L -176.0(7) . . . . ?
C14L C9L C7L O8L -157.7(9) . . . . ?
C10L C9L C7L O8L 19.9(14) . . . . ?
C14L C9L C7L O6L 20.5(12) . . . . ?
C10L C9L C7L O6L -161.9(8) . . . . ?
O8L C7L O6L C4L 4.0(13) . . . . ?
C9L C7L O6L C4L -174.2(7) . . . . ?
C1L C5L C4L C3L 1.8(12) 2_767 . . . ?
C1L C5L C4L O6L 179.8(6) 2_767 . . . ?
C7L O6L C4L C5L 95.8(9) . . . . ?
C7L O6L C4L C3L -86.1(9) . . . . ?
C5L C4L C3L C2L -1.0(13) . . . . ?
O6L C4L C3L C2L -179.0(7) . . . . ?
C4L C3L C2L C1L -0.8(13) . . . . ?
C3L C2L C1L C5L -179.2(8) . . . 2_767 ?
C3L C2L C1L C1L 1.6(14) . . . 2_767 ?
O1E C1E C2E Hg1 81.4(7) . . . . ?
C3E C1E C2E Hg1 -100.0(7) . . . . ?
