#------------------------------------------------------------------------------
#$Date: 2021-10-29 02:32:06 +0300 (Fri, 29 Oct 2021) $
#$Revision: 270115 $
#$URL: file:///home/coder/svn-repositories/cod/cif/7/70/85/7708598.cif $
#------------------------------------------------------------------------------
#
# This file is available in the Crystallography Open Database (COD),
# http://www.crystallography.net/
#
# All data on this site have been placed in the public domain by the
# contributors.
#
data_7708598
loop_
_publ_author_name
'Perez, Hiram'
'Di Santo, Alejandro'
'Piro, Oscar E.'
'Echeverr\'ia, Gustavo A.'
'Gonz\'alez M., Marlene'
'Ben Altabef, Aida'
'Gomila, Rosa Maria'
'Frontera, Antonio'
'Gil, Diego M.'
_publ_section_title
;
 A novel 'main-part' isostructuralism in metal complexes with
 1-methylimidazole: crystal structures, energy calculations and magnetic
 properties
;
_journal_name_full               'Dalton Transactions'
_journal_paper_doi               10.1039/D1DT03159G
_journal_year                    2021
_chemical_formula_sum            'C16 H24 N14 Ni'
_chemical_formula_weight         471.20
_chemical_name_systematic        diazido-tetrakis(1-methylimidazole)nickel(II)
_space_group_crystal_system      triclinic
_space_group_IT_number           2
_space_group_name_Hall           '-P 1'
_space_group_name_H-M_alt        'P -1'
_atom_sites_solution_hydrogens   difmap
_atom_sites_solution_primary     dual
_atom_sites_solution_secondary   difmap
_audit_creation_method           SHELXL-2014/7
_audit_update_record
;
2021-08-30 deposited with the CCDC.	2021-10-27 downloaded from the CCDC.
;
_cell_angle_alpha                76.786(7)
_cell_angle_beta                 75.450(7)
_cell_angle_gamma                80.212(6)
_cell_formula_units_Z            1
_cell_length_a                   6.9174(5)
_cell_length_b                   9.0586(7)
_cell_length_c                   9.2754(8)
_cell_measurement_reflns_used    1323
_cell_measurement_temperature    297(2)
_cell_measurement_theta_max      24.5630
_cell_measurement_theta_min      4.5560
_cell_volume                     543.76(8)
_computing_cell_refinement       'CrysAlisPro 1.171.38.41 (Rigaku OD, 2015)'
_computing_data_collection       'CrysAlisPro 1.171.38.41 (Rigaku OD, 2015)'
_computing_data_reduction        'CrysAlisPro 1.171.38.41 (Rigaku OD, 2015)'
_computing_molecular_graphics    'ORTEP for Windows (Farrugia, 2012)'
_computing_publication_material  'SHELXL-2014/7 (Sheldrick, 2014)'
_computing_structure_refinement  'SHELXL-2014/7 (Sheldrick, 2014)'
_computing_structure_solution    'SHELXT (Sheldrick, 2015)'
_diffrn_ambient_temperature      297(2)
_diffrn_detector                 'CCD plate'
_diffrn_detector_area_resol_mean 16.0604
_diffrn_detector_type            Eos
_diffrn_measured_fraction_theta_full 0.997
_diffrn_measured_fraction_theta_max 0.819
_diffrn_measurement_device       'four-circle diffractometer'
_diffrn_measurement_device_type  'Xcalibur, Eos, Gemini'
_diffrn_radiation_monochromator  graphite
_diffrn_radiation_probe          x-ray
_diffrn_radiation_type           'Mo K\a'
_diffrn_radiation_wavelength     0.71073
_diffrn_reflns_av_R_equivalents  0.0283
_diffrn_reflns_av_unetI/netI     0.0570
_diffrn_reflns_Laue_measured_fraction_full 0.997
_diffrn_reflns_Laue_measured_fraction_max 0.819
_diffrn_reflns_limit_h_max       8
_diffrn_reflns_limit_h_min       -8
_diffrn_reflns_limit_k_max       12
_diffrn_reflns_limit_k_min       -12
_diffrn_reflns_limit_l_max       12
_diffrn_reflns_limit_l_min       -12
_diffrn_reflns_number            4064
_diffrn_reflns_point_group_measured_fraction_full 0.997
_diffrn_reflns_point_group_measured_fraction_max 0.819
_diffrn_reflns_theta_full        25.242
_diffrn_reflns_theta_max         28.800
_diffrn_reflns_theta_min         3.064
_diffrn_source                   'fine-focus sealed X-ray tube'
_diffrn_source_type              'Enhance (Mo) X-ray Source'
_exptl_absorpt_coefficient_mu    0.928
_exptl_absorpt_correction_T_max  1.00000
_exptl_absorpt_correction_T_min  0.95242
_exptl_absorpt_correction_type   multi-scan
_exptl_absorpt_process_details
;
CrysAlisPro 1.171.38.41 (Rigaku Oxford Diffraction, 2015)
Empirical absorption correction using spherical harmonics,
 implemented in SCALE3 ABSPACK scaling algorithm.
;
_exptl_crystal_colour            blue
_exptl_crystal_density_diffrn    1.439
_exptl_crystal_description       paralelepiped
_exptl_crystal_F_000             246
_exptl_crystal_recrystallization_method
'Re-crystallisation from solvent: Methanol'
_exptl_crystal_size_max          0.393
_exptl_crystal_size_mid          0.293
_exptl_crystal_size_min          0.218
_refine_diff_density_max         0.276
_refine_diff_density_min         -0.260
_refine_diff_density_rms         0.062
_refine_ls_extinction_method     none
_refine_ls_goodness_of_fit_ref   1.102
_refine_ls_hydrogen_treatment    refall
_refine_ls_matrix_type           full
_refine_ls_number_parameters     190
_refine_ls_number_reflns         2337
_refine_ls_number_restraints     0
_refine_ls_restrained_S_all      1.102
_refine_ls_R_factor_all          0.0528
_refine_ls_R_factor_gt           0.0415
_refine_ls_shift/su_max          0.001
_refine_ls_shift/su_mean         0.000
_refine_ls_structure_factor_coef Fsqd
_refine_ls_weighting_details
'w=1/[\s^2^(Fo^2^)+(0.0232P)^2^+0.1006P] where P=(Fo^2^+2Fc^2^)/3'
_refine_ls_weighting_scheme      calc
_refine_ls_wR_factor_gt          0.0738
_refine_ls_wR_factor_ref         0.0829
_reflns_Friedel_coverage         0.000
_reflns_number_gt                2006
_reflns_number_total             2337
_reflns_threshold_expression     'I > 2\s(I)'
_cod_data_source_file            d1dt03159g2.cif
_cod_data_source_block           shelx_CCDC1
_cod_database_code               7708598
_shelx_shelxl_version_number     2014/7
_shelx_space_group_comment
;
The symmetry employed for this shelxl refinement is uniquely defined
by the following loop, which should always be used as a source of
symmetry information in preference to the above space-group names.
They are only intended as comments.
;
_shelx_estimated_absorpt_t_min   0.712
_shelx_estimated_absorpt_t_max   0.823
_oxdiff_exptl_absorpt_empirical_full_min 0.909
_oxdiff_exptl_absorpt_empirical_full_max 1.132
_oxdiff_exptl_absorpt_empirical_details
;
Empirical correction (ABSPACK) includes:
- Absorption correction using spherical harmonics
- Frame scaling
;
_shelx_res_file
;

    shelx.res created by SHELXL-2014/7


TITL shelxt_a.res in P-1
CELL  0.71073   6.9174   9.0586   9.2754   76.786   75.450   80.212
ZERR     1.00   0.0005   0.0007   0.0008    0.007    0.007    0.006
LATT   1
SFAC  C    H    N    NI
UNIT  16   24   14   1
MERG   2
CONF
SIZE  0.218 0.293 0.393
TEMP  24
REM   Crystal shape/color: paralelepiped/blue
FMAP   2
PLAN  -3
ACTA
EQIV $1 x-1, y, z
HTAB C11 N1_$1
HTAB C14 N3_$1
HTAB C22 N1_$1
EQIV $2 -x+1, -y+1, -z+1
HTAB C23 N3_$2
EQIV $3 -x+2, -y+1, -z+1
HTAB C24 N3_$3
L.S.  6
WGHT    0.023200    0.100600
FVAR      13.06539
C11   1    0.182913    0.765258    0.886270    11.00000    0.03003    0.02699 =
         0.03620   -0.00825   -0.01008   -0.00250
C12   1    0.443727    0.851433    0.903691    11.00000    0.03504    0.03217 =
         0.06025   -0.00477   -0.01585   -0.00845
C13   1    0.325457    0.972292    0.846090    11.00000    0.04753    0.02862 =
         0.06540   -0.00509   -0.01035   -0.00815
C14   1   -0.009632    1.005952    0.771526    11.00000    0.05536    0.04490 =
         0.07064   -0.00585   -0.03353    0.01164
C21   1    0.593513    0.362010    0.713373    11.00000    0.02894    0.03737 =
         0.03559   -0.00918   -0.00825   -0.00307
C22   1    0.274843    0.415327    0.779785    11.00000    0.02862    0.02963 =
         0.03785   -0.00517   -0.01109    0.00116
C23   1    0.310589    0.354272    0.654014    11.00000    0.03901    0.03230 =
         0.03724   -0.00329   -0.01960   -0.00297
C24   1    0.623265    0.241624    0.489751    11.00000    0.06472    0.06123 =
         0.03867   -0.02177   -0.00016   -0.00888
N1    3    0.783773    0.567291    0.872542    11.00000    0.02458    0.04947 =
         0.03875   -0.00482   -0.00713   -0.00650
N2    3    0.818234    0.640810    0.747808    11.00000    0.02561    0.05170 =
         0.04034   -0.01503   -0.00835   -0.01175
N3    3    0.857311    0.714696    0.626578    11.00000    0.07265    0.09792 =
         0.03865    0.00383   -0.01385   -0.03981
N11   3    0.354753    0.720923    0.929196    11.00000    0.02938    0.02637 =
         0.03323   -0.00492   -0.01000   -0.00111
N12   3    0.159167    0.917279    0.834030    11.00000    0.03464    0.02873 =
         0.04186   -0.00356   -0.01229    0.00168
N21   3    0.453829    0.421159    0.817006    11.00000    0.02788    0.02988 =
         0.03099   -0.00749   -0.01178    0.00101
N22   3    0.514886    0.319335    0.613405    11.00000    0.03933    0.03176 =
         0.02700   -0.00597   -0.00580   -0.00519
NI    4    0.500000    0.500000    1.000000    10.50000    0.02340    0.02925 =
         0.02989   -0.00662   -0.00864   -0.00103
H12   2    0.570030    0.846615    0.931542    11.00000    0.04153
H13   2    0.340572    1.076072    0.821917    11.00000    0.05221
H14   2    0.088386    0.702421    0.889461    11.00000    0.02758
H14A  2   -0.087301    0.943030    0.748861    11.00000    0.08683
H14B  2    0.036935    1.064642    0.673608    11.00000    0.10044
H14C  2   -0.080745    1.079282    0.831580    11.00000    0.09253
H21   2    0.730358    0.349438    0.707316    11.00000    0.03028
H22   2    0.144966    0.449924    0.839159    11.00000    0.04893
H23   2    0.223322    0.341902    0.594194    11.00000    0.05767
H24A  2    0.571941    0.281597    0.405246    11.00000    0.08446
H24B  2    0.630400    0.137798    0.519519    11.00000    0.10452
H24C  2    0.769593    0.262630    0.467117    11.00000    0.09746
HKLF    4

REM  shelxt_a.res in P-1
REM R1 =  0.0415 for    2006 Fo > 4sig(Fo)  and  0.0528 for all    2337 data
REM    190 parameters refined using      0 restraints

END

WGHT      0.0235      0.0979

REM Highest difference peak  0.276,  deepest hole -0.260,  1-sigma level  0.062
Q1    1   0.5034  0.1789  0.4614  11.00000  0.05    0.28
Q2    1   0.5119  0.3451  0.8221  11.00000  0.05    0.27
Q3    1   0.7924  0.2221  0.7450  11.00000  0.05    0.26
;
_shelx_res_checksum              89767
_shelx_hkl_file
;
  -8  -5   0 7453.17 1789.43   5
  -8  -4   0 4594.72 1346.66   5
  -8  -4   1 1379.14 884.837   5
  -8  -4   2 2981.98 1235.47   5
  -8  -3   0 742.308 662.423   5
  -8  -3   1 162.959 505.445   5
  -8   2  -6 3921.86 1202.66   6
  -7  -7  -2 6132.19 1686.68   5
  -7  -7  -1 450.054 727.079   5
  -7  -6  -1 1419.92 910.589   5
  -7  -6   0 5195.69 1490.10   5
  -7  -6   1 110.487 815.011   5
  -7  -5  -1 16446.4 2381.80   5
  -7  -5   0 24628.3 2941.03   5
  -7  -5   1 2286.18 1039.91   5
  -7  -5   2 423.751 648.590   5
  -7  -4  -1 29275.1 3001.94   5
  -7  -4   0 13859.1 2145.52   5
  -7  -4   1 2906.61 966.765   5
  -7  -4   2 4588.57 1284.97   5
  -7  -4   3 5381.64 1500.57   5
  -7  -4   4 9817.91 2088.88   5
  -7  -3   0 4937.97 1236.20   5
  -7  -3   1 31.1722 442.088   5
  -7  -3   2 8911.57 1728.73   5
  -7  -3   3 5600.78 1428.13   5
  -7  -3   4 7303.18 1635.42   5
  -7  -2   0 90.0691 353.403   5
  -7  -2   1 582.824 507.787   5
  -7  -2   2 3099.73 997.942   5
  -7  -2   3 7652.73 1599.64   5
  -7  -1   1 13299.3 1790.65   5
  -7   0  -8 7974.35 1794.79   6
  -7   0  -7 5316.29 1341.90   6
  -7   1  -8 13433.4 2306.99   6
  -7   1  -7 7218.99 1620.43   6
  -7   1  -6 10492.8 1840.34   6
  -7   1  -5 1304.08 671.886   6
  -7   2  -7 6918.11 1634.40   6
  -7   2  -6 16318.2 2379.50   6
  -7   2  -5 3805.49 1038.31   6
  -7   2  -4 9397.21 1634.52   6
  -7   3  -7 15503.3 2458.75   6
  -7   3  -6 2359.83 907.468   6
  -7   3  -5 5802.35 1364.83   6
  -7   3  -4 21331.2 2451.69   6
  -7   4  -6 9688.86 1867.36   6
  -7   4  -5 12488.3 2043.81   6
  -6  -8  -2 8647.56 1912.12   5
  -6  -8  -1 8664.02 1983.19   5
  -6  -8   0 7909.56 1917.46   5
  -6  -7  -2 24621.6 2977.30   5
  -6  -7  -1 3869.97 1211.50   5
  -6  -7   0 23768.7 3011.15   5
  -6  -7   1 11102.7 2147.07   5
  -6  -7   2 472.052 715.795   5
  -6  -6  -2 4457.72 1259.76   5
  -6  -6  -1 540.452 682.556   5
  -6  -6   0 13756.2 2212.09   5
  -6  -6   1 5022.95 1351.88   5
  -6  -6   2 2953.51 1209.57   5
  -6  -6   2 3614.92 1006.64   2
  -6  -6   3 3089.24 1052.74   2
  -6  -6   4 5096.87 1373.28   2
  -6  -5  -2 25315.1 2723.81   5
  -6  -5  -1 32621.9 3130.87   5
  -6  -5   0 6746.53 1486.32   5
  -6  -5   1-312.452 541.734   5
  -6  -5   2 2261.22 1012.04   5
  -6  -5   3 825.116 631.160   2
  -6  -5   4 1604.36 731.906   2
  -6  -5   5 9481.31 1924.06   2
  -6  -4  -1 60707.1 4039.90   5
  -6  -4   0 29651.3 2890.62   5
  -6  -4   1 11059.1 1857.03   5
  -6  -4   2 22053.2 2645.21   5
  -6  -4   3 7548.24 1551.33   2
  -6  -4   4 288.872 551.032   2
  -6  -4   5-286.023 504.370   2
  -6  -3  -1 42032.6 3165.76   5
  -6  -3   0 6560.33 1370.51   5
  -6  -3   1 7196.73 1390.32   5
  -6  -3   2 35157.2 3178.71   5
  -6  -3   4 11482.2 2028.25   2
  -6  -3   5 1176.04 805.516   2
  -6  -2   0 1171.92 596.077   5
  -6  -2   1 20468.0 2192.55   5
  -6  -2   2 20735.3 2323.47   5
  -6  -2   5 397.876 558.911   2
  -6  -1  -9 5140.59 1459.44   6
  -6  -1  -8 30616.3 3265.05   6
  -6  -1  -7 12396.5 1976.97   6
  -6  -1   0 846.881 514.651   5
  -6  -1   1 8749.01 1358.78   5
  -6  -1   2 11010.7 1601.12   5
  -6   0  -9 2746.77 1067.00   6
  -6   0  -8 25200.1 3000.84   6
  -6   0  -7 2081.00 820.589   6
  -6   0  -6 18836.5 2344.83   6
  -6   0  -5 38064.0 3136.39   6
  -6   0   1 57402.2 3124.58   5
  -6   0   2 30311.5 2382.58   5
  -6   0   3 1105.70 555.174   5
  -6   1  -8 6123.72 1507.97   6
  -6   1  -7 94.9175 325.291   6
  -6   1  -6 19082.5 2408.51   6
  -6   1  -5 6287.51 1336.72   6
  -6   1  -4 21390.7 2254.14   6
  -6   1  -3 84739.3 4160.26   6
  -6   2  -8 239.159 312.660   6
  -6   2  -7 11459.2 1977.19   6
  -6   2  -6 22232.7 2619.62   6
  -6   2  -5 4066.98 1097.65   6
  -6   2  -4 19362.3 2180.44   6
  -6   2  -3 11141.9 1545.07   6
  -6   2  -2 225.520 270.846   6
  -6   3  -7 8396.65 1730.09   6
  -6   3  -6 15885.2 2241.12   6
  -6   3  -5 19192.4 2336.81   6
  -6   3  -4 50117.2 3550.24   6
  -6   3  -3 21062.9 2160.28   6
  -6   3  -2 1879.58 615.743   6
  -6   4  -7 5325.78 1402.44   6
  -6   4  -6 1695.19 814.574   6
  -6   4  -5 13227.8 2018.51   6
  -6   4  -4 26673.4 2681.50   6
  -6   4  -3 6993.65 1266.87   6
  -6   4  -2 18247.3 1916.66   6
  -6   5  -6 3005.61 1155.33   6
  -6   5  -5 20541.8 2607.46   6
  -6   5  -4 5836.82 1307.33   6
  -6   5  -3 523.813 360.949   6
  -6   6  -5 9092.00 1819.21   6
  -5  -9  -2 2107.33 971.953   5
  -5  -9  -1 17409.5 2666.21   5
  -5  -9   0 20299.5 2921.71   5
  -5  -8  -2 7779.95 1732.51   5
  -5  -8  -1 7537.89 1681.09   5
  -5  -8   0 1557.79 785.634   5
  -5  -8   1 13931.6 2404.48   5
  -5  -8   2 704.809 846.769   5
  -5  -7  -2 52922.1 4090.94   5
  -5  -7  -1 26254.1 2959.57   5
  -5  -7   0 12184.3 2067.14   5
  -5  -7   1 2025.07 645.544   2
  -5  -7   1 1619.10 903.846   5
  -5  -7   2 5233.54 1149.80   2
  -5  -7   3 4318.02 1100.89   2
  -5  -7   4 1173.38 702.209   2
  -5  -7   5 5927.44 1611.72   2
  -5  -6  -2 14703.4 2056.48   5
  -5  -6  -1 10492.4 1771.94   5
  -5  -6   0 20446.6 2517.88   5
  -5  -6   1 6048.77 1118.15   2
  -5  -6   1 7064.04 1548.12   5
  -5  -6   2 41928.3 3150.52   2
  -5  -6   3 9788.38 1685.69   2
  -5  -6   4-1346.67 752.251   2
  -5  -6   5 3378.19 1140.35   2
  -5  -5  -2 20674.0 2307.03   5
  -5  -5  -1 10792.2 1696.36   5
  -5  -5   0 747.221 679.701   5
  -5  -5   1-117.608 480.139   5
  -5  -5   1 140.761 337.565   2
  -5  -5   2 16785.7 1959.68   2
  -5  -5   3 36691.7 3165.58   2
  -5  -5   4 10170.6 1824.41   2
  -5  -5   5 2676.99 1037.60   2
  -5  -5   6-1195.15 786.491   2
  -5  -4  -2 27637.1 2502.91   5
  -5  -4  -1 59949.7 3740.58   5
  -5  -4   0 4394.83 1054.63   5
  -5  -4   1 25259.1 2560.65   5
  -5  -4   1 28611.4 2345.28   2
  -5  -4   2 9912.41 1497.12   2
  -5  -4   3 8709.42 1554.81   2
  -5  -4   4 8713.76 1665.71   2
  -5  -4   5 371.166 513.511   2
  -5  -4   6 884.151 694.078   2
  -5  -3  -1 8492.22 1357.21   5
  -5  -3   0 2088.07 629.742   5
  -5  -3   1 47237.5 3315.48   5
  -5  -3   2 42441.2 3082.11   2
  -5  -3   3 27125.3 2666.40   2
  -5  -3   4 38710.5 3424.24   2
  -5  -3   5 944.322 568.318   2
  -5  -3   6 759.420 651.776   2
  -5  -2 -10 2052.98 941.904   6
  -5  -2  -9 2942.04 1124.19   6
  -5  -2  -8 45995.3 3773.52   6
  -5  -2  -1 1065.99 504.139   5
  -5  -2   0 30871.3 2402.99   5
  -5  -2   1 33132.8 2588.31   5
  -5  -2   3 18110.4 2209.31   2
  -5  -2   4 15931.8 2224.75   2
  -5  -2   5 6027.90 1491.60   2
  -5  -2   6 18653.5 2686.00   2
  -5  -1 -10 6892.82 1642.48   6
  -5  -1  -9 8021.90 1710.34   6
  -5  -1  -8 31169.0 3141.77   6
  -5  -1  -7 1841.28 799.830   6
  -5  -1  -6 3420.48 994.090   6
  -5  -1  -5 88621.2 4439.78   6
  -5  -1   0 17124.7 1668.80   5
  -5  -1   1 45696.3 2830.22   5
  -5  -1   4 548.879 551.225   2
  -5  -1   5 14405.3 2205.94   2
  -5  -1   6 6722.82 1655.37   2
  -5  -1   7 192.524 401.709   2
  -5   0 -10 1825.56 877.155   6
  -5   0  -9 8796.63 1775.89   6
  -5   0  -8 8247.06 1597.60   6
  -5   0  -7 3526.67 1021.94   6
  -5   0  -6 21507.2 2334.87   6
  -5   0  -5 55970.1 3573.36   6
  -5   0  -4 17543.2 1879.77   6
  -5   0  -3 122091. 4627.23   6
  -5   0   0 5009.98 841.202   5
  -5   0   1 5695.66 925.683   5
  -5   0   2 11836.4 1390.38   5
  -5   0   5 47589.0 3949.01   2
  -5   0   6 20153.8 2757.74   2
  -5   0   7 1999.24 1039.69   2
  -5   1  -9 17859.0 2534.09   6
  -5   1  -8 28.8495 391.936   6
  -5   1  -7 4000.33 1106.97   6
  -5   1  -6 14805.3 1980.06   6
  -5   1  -5 34106.6 2812.21   6
  -5   1  -4 87764.9 4214.23   6
  -5   1  -3 50804.3 3025.86   6
  -5   1  -2 21577.1 1842.63   6
  -5   1   1 35381.5 1977.75   5
  -5   1   2 35989.8 2156.67   5
  -5   1   7 2982.59 1212.29   2
  -5   2  -9 25802.6 3147.33   6
  -5   2  -8-154.976 633.309   6
  -5   2  -7 674.655 514.358   6
  -5   2  -6 14814.9 2030.49   6
  -5   2  -5-363.648 389.686   6
  -5   2  -4 8917.92 1383.45   6
  -5   2  -3 2003.28 699.182   6
  -5   2  -2 29154.1 2147.78   6
  -5   2  -1 112184. 3857.10   6
  -5   2   2 39546.4 1883.11   5
  -5   3  -8 1246.34 718.030   6
  -5   3  -7 17010.8 2404.35   6
  -5   3  -6 19561.3 2419.03   6
  -5   3  -5 38586.6 3192.87   6
  -5   3  -4 28244.7 2560.95   6
  -5   3  -3-47.3688 274.412   6
  -5   3  -2 208.480 270.365   6
  -5   3  -1 25150.2 1868.09   6
  -5   3   0 30746.1 1814.17   6
  -5   4  -8-315.403 383.200   6
  -5   4  -7 7000.15 1591.85   6
  -5   4  -6 4620.82 1281.00   6
  -5   4  -5 29561.8 2935.70   6
  -5   4  -4 18465.6 2200.56   6
  -5   4  -3 17909.6 2010.13   6
  -5   4  -2 47138.2 2978.68   6
  -5   4  -1 28912.4 2081.34   6
  -5   4   0 17853.1 1460.02   6
  -5   5  -7 10716.9 2037.12   6
  -5   5  -6 2216.76 894.842   6
  -5   5  -5 6895.85 1509.30   6
  -5   5  -4 1945.00 733.676   6
  -5   5  -3 5447.61 1185.72   6
  -5   5  -2 32843.2 2648.68   6
  -5   5  -1 42585.8 2741.13   6
  -5   6  -6 17030.3 2562.13   6
  -5   6  -5 2059.46 874.144   6
  -5   6  -4-782.687 516.713   6
  -5   6  -3 2719.86 855.523   6
  -5   6  -2 15772.1 1943.59   6
  -5   7  -5-723.903 540.680   6
  -5   7  -4 906.608 574.108   6
  -5   7  -3 12542.5 1982.69   6
  -4 -10  -2 1239.12 819.528   5
  -4 -10  -1 1944.65 999.664   5
  -4 -10   0 6526.95 1666.48   5
  -4  -9  -2 11141.4 1961.57   5
  -4  -9  -1 13211.9 2230.30   5
  -4  -9   0 4150.57 1316.19   5
  -4  -9   1 1283.41 828.148   5
  -4  -9   2 7461.85 1875.56   5
  -4  -8  -2 5070.14 1240.49   5
  -4  -8  -1 36024.6 3426.46   5
  -4  -8   0 10064.9 1896.45   5
  -4  -8   1 5009.08 1402.52   5
  -4  -7  -2 42633.8 3426.81   5
  -4  -7  -1 10820.9 936.771   2
  -4  -7  -1 11462.8 1856.42   5
  -4  -7   0 459.744 307.136   2
  -4  -7   0 330.993 539.609   5
  -4  -7   1-403.128 571.081   5
  -4  -7   1 1395.45 542.585   2
  -4  -7   2 30370.7 2566.79   2
  -4  -6  -2 50560.6 3528.71   5
  -4  -6  -1 23614.4 2466.37   5
  -4  -6   0 25556.5 2647.99   5
  -4  -6   0 20701.1 1634.93   2
  -4  -6   1 1445.03 538.244   2
  -4  -6   2 9608.73 1438.33   2
  -4  -6   3 13848.0 1857.38   2
  -4  -5  -2 17606.1 1977.57   5
  -4  -5  -1 322.498 408.910   5
  -4  -5   0 1294.98 646.689   5
  -4  -5   0 1306.02 371.799   2
  -4  -5   1 16370.6 1645.39   2
  -4  -5   2 42608.7 2905.18   2
  -4  -5   3 7161.90 1350.75   2
  -4  -5   4 24751.9 2653.50   2
  -4  -5   5 8013.85 1690.55   2
  -4  -5   6 416.386 592.518   2
  -4  -4  -2 46016.5 2984.60   5
  -4  -4  -1 50537.8 3201.56   5
  -4  -4   0 3413.34 893.194   5
  -4  -4   0 4736.88 802.699   2
  -4  -4   1 26208.5 2039.17   2
  -4  -4   2 1268.94 550.514   2
  -4  -4   3 90.2520 358.159   2
  -4  -4   4 34327.8 3038.83   2
  -4  -4   5 21093.1 2600.35   2
  -4  -4   6 548.427 626.554   2
  -4  -4   7 6455.86 1712.55   2
  -4  -3  -2 27887.5 2178.97   5
  -4  -3  -1 50.8917 338.504   5
  -4  -3   0 26005.5 2187.43   5
  -4  -3   1 133953. 4585.45   2
  -4  -3   2 40024.7 2762.29   2
  -4  -3   3 17516.3 1989.69   2
  -4  -3   4 10869.1 1702.61   2
  -4  -3   5 2528.76 942.488   2
  -4  -3   6 10398.6 1924.39   2
  -4  -3   7 3744.61 1252.69   2
  -4  -2 -11 4443.07 1374.61   6
  -4  -2 -10 22271.2 2781.99   6
  -4  -2  -9 29156.7 3022.89   6
  -4  -2  -8 21571.3 2482.00   6
  -4  -2  -7 389.986 393.786   6
  -4  -2  -6 3790.78 948.900   6
  -4  -2  -1 969.658 432.810   5
  -4  -2   0 48830.5 2769.06   5
  -4  -2   1 16108.6 1609.10   2
  -4  -2   2 3096.39 789.376   2
  -4  -2   3 53306.7 3424.49   2
  -4  -2   4 27699.0 2662.16   2
  -4  -2   5 15178.0 2162.06   2
  -4  -2   6 53087.1 4232.68   2
  -4  -2   7 1056.74 901.285   2
  -4  -1 -11 2588.44 1090.95   6
  -4  -1 -10 29957.4 3296.35   6
  -4  -1  -9 28962.2 3055.66   6
  -4  -1  -8 14502.1 2065.65   6
  -4  -1  -7 10941.9 1678.57   6
  -4  -1  -6 10708.8 1558.34   6
  -4  -1  -5 44185.6 2952.39   6
  -4  -1  -4 11218.3 1390.89   6
  -4  -1  -1 64096.0 2836.26   5
  -4  -1   0 125670. 4043.55   5
  -4  -1   2 22603.0 2079.95   2
  -4  -1   3 27839.7 2452.72   2
  -4  -1   4 1919.62 766.888   2
  -4  -1   5 7347.25 1478.97   2
  -4  -1   6 44299.9 3810.15   2
  -4  -1   7 15086.3 2400.06   2
  -4  -1   8 3132.32 1284.21   2
  -4   0 -10 12126.2 2127.23   6
  -4   0  -9 64277.3 4554.24   6
  -4   0  -8 19887.1 2399.74   6
  -4   0  -7 5449.18 1196.81   6
  -4   0  -6 12872.4 1717.91   6
  -4   0  -5 108634. 4621.42   6
  -4   0  -4 92034.4 3968.91   6
  -4   0  -3 15845.4 1560.94   6
  -4   0  -2 4462.96 780.761   6
  -4   0   0 30528.6 1782.79   5
  -4   0   1 6239.20 870.011   5
  -4   0   3 38211.9 2895.68   2
  -4   0   4 1916.31 712.860   2
  -4   0   5 25418.7 2725.22   2
  -4   0   6 3559.33 1150.41   2
  -4   0   7 12516.3 2220.22   2
  -4   0   8 6262.45 1664.66   2
  -4   1 -10 235.950 494.256   6
  -4   1  -9 5889.41 1428.85   6
  -4   1  -8 2910.52 985.181   6
  -4   1  -7 2642.86 848.767   6
  -4   1  -6 67440.8 3966.91   6
  -4   1  -5 78755.8 4032.95   6
  -4   1  -4 49474.8 2947.65   6
  -4   1  -3 24794.1 1939.31   6
  -4   1  -2 28166.0 1905.02   6
  -4   1  -1 277437. 5442.71   6
  -4   1   1 228.873 176.041   5
  -4   1   5 27628.8 2832.95   2
  -4   1   6 5801.63 1381.24   2
  -4   1   7 21382.4 2828.94   2
  -4   1   8 8020.90 1929.40   2
  -4   2  -9 8005.25 1789.02   6
  -4   2  -8 4677.12 1241.65   6
  -4   2  -7-605.100 502.786   6
  -4   2  -6 5049.99 1156.39   6
  -4   2  -5 10729.9 1556.63   6
  -4   2  -4 30874.3 2466.30   6
  -4   2  -3 5548.68 940.644   6
  -4   2  -2 33291.8 2133.14   6
  -4   2  -1 135448. 3852.85   6
  -4   2   0 198499. 4095.04   6
  -4   2   2 20631.7 1235.40   5
  -4   2   6 2745.23 1007.49   2
  -4   2   7 7840.12 1780.26   2
  -4   2   8 13684.6 2379.84   2
  -4   3  -9 2218.70 931.876   6
  -4   3  -8 10433.1 1930.59   6
  -4   3  -7 54987.6 4174.19   6
  -4   3  -6 30968.8 2992.51   6
  -4   3  -5 5928.28 1207.08   6
  -4   3  -4 1057.58 508.020   6
  -4   3  -3 2390.48 686.746   6
  -4   3  -2 39594.8 2497.17   6
  -4   3  -1 18667.6 1530.85   6
  -4   3   0 38827.3 1897.49   6
  -4   3   1 160185. 3107.19   6
  -4   4  -8 3457.98 1135.13   6
  -4   4  -7 47315.4 4024.97   6
  -4   4  -6 33153.7 3196.39   6
  -4   4  -5 35545.2 3102.73   6
  -4   4  -4 6796.14 1280.99   6
  -4   4  -3 10575.0 1510.02   6
  -4   4  -2 10866.5 1376.82   6
  -4   4  -1 789.122 370.815   6
  -4   4   0 23912.0 1654.06   6
  -4   4   1 54541.2 2022.36   6
  -4   5  -7 14474.7 2338.31   6
  -4   5  -6 24599.7 2850.43   6
  -4   5  -5 9282.52 1680.64   6
  -4   5  -4 3364.62 971.382   6
  -4   5  -3 43613.4 3160.01   6
  -4   5  -2 39995.2 2817.69   6
  -4   5  -1 10012.5 1293.91   6
  -4   5   0 15731.1 1492.64   6
  -4   5   1 3284.71 577.383   6
  -4   6  -6 9180.63 1809.63   6
  -4   6  -5 725.617 487.435   6
  -4   6  -4 2609.25 800.454   6
  -4   6  -3 19086.7 2220.05   6
  -4   6  -2 15704.4 1902.53   6
  -4   6  -1 32184.8 2526.70   6
  -4   6   0 36246.6 2440.50   6
  -4   7  -6 8714.91 1838.60   6
  -4   7  -5-8.65811 92.5610   6
  -4   7  -4 4491.41 1212.93   6
  -4   7  -3 3876.05 1068.95   6
  -4   7  -2 3407.99 936.062   6
  -4   7  -1 18199.2 2054.72   6
  -4   8  -4 10924.1 1990.83   6
  -4   8  -3 2168.96 843.084   6
  -4   8  -2 2100.54 799.073   6
  -4   9  -3 1391.95 736.828   6
  -3 -11  -2 2041.01 971.355   5
  -3 -11  -1 1770.34 875.151   5
  -3 -11   0 4047.22 1342.45   5
  -3 -10  -2 2970.93 1062.75   5
  -3 -10  -1 7489.31 1620.82   5
  -3 -10   0 6516.95 1608.29   5
  -3 -10   1 291.086 591.328   5
  -3 -10   2 4993.71 1529.74   5
  -3  -9  -2 150.737 433.723   5
  -3  -9  -1 4308.64 1325.83   5
  -3  -9   0 6355.96 1490.69   5
  -3  -9   1 622.347 605.551   5
  -3  -8  -2 39727.6 3259.62   5
  -3  -8  -1 37840.7 3287.25   5
  -3  -8   0 1421.72 688.250   5
  -3  -7  -2 21837.6 2324.28   5
  -3  -7  -1 46091.1 3419.08   5
  -3  -7  -1 44765.3 1797.02   2
  -3  -7   0 21616.7 2416.60   5
  -3  -6  -2 94513.5 4518.94   5
  -3  -6  -1 18022.9 1089.73   2
  -3  -6  -1 17717.0 2001.67   5
  -3  -6   0 6581.01 1323.37   5
  -3  -5  -2 24814.0 2157.03   5
  -3  -5  -1 436.661 177.819   2
  -3  -5  -1 172.398 306.306   5
  -3  -5   0 34721.1 2687.09   5
  -3  -5   0 34576.2 1843.96   2
  -3  -5   2 32902.1 2223.92   1
  -3  -4  -2 171812. 5277.60   5
  -3  -4  -1 11479.1 1406.81   5
  -3  -4   0 3730.77 607.661   2
  -3  -4   0 4641.59 846.473   1
  -3  -4   1 21239.8 1742.03   1
  -3  -4   2 9742.04 1164.38   1
  -3  -4   3 6446.82 927.102   1
  -3  -3 -10 4466.33 1211.58   6
  -3  -3  -9 53943.9 3871.53   6
  -3  -3  -2 45434.9 2527.94   5
  -3  -3  -1 215724. 5466.03   1
  -3  -3  -1 196032. 5315.15   5
  -3  -3   0 161152. 4593.14   1
  -3  -3   0 154790. 3818.90   2
  -3  -3   1 181426. 4709.24   2
  -3  -3   1 183202. 4847.13   1
  -3  -3   2 1403.45 413.005   1
  -3  -3   2 1333.45 511.470   2
  -3  -3   3 27156.1 1838.39   1
  -3  -3   4 7082.27 912.050   1
  -3  -2 -11-410.519 522.305   6
  -3  -2 -10 14104.8 2133.55   6
  -3  -2  -9 24149.8 2641.77   6
  -3  -2  -8 590.475 392.807   6
  -3  -2  -7 16083.4 1899.30   6
  -3  -2  -6 30117.9 2425.33   6
  -3  -2  -4 257455. 6179.33   1
  -3  -2  -1 73106.4 2973.77   5
  -3  -2   0 71310.4 3012.02   5
  -3  -2   0 76216.5 3074.02   1
  -3  -2   1 87009.8 3262.86   1
  -3  -2   1 85897.1 3254.43   2
  -3  -2   2 90066.5 3334.07   1
  -3  -2   2 87521.2 3637.55   2
  -3  -2   3 111398. 4502.49   2
  -3  -2   3 107353. 3666.65   1
  -3  -2   4 26129.5 1820.03   1
  -3  -2   4 28712.7 2492.82   2
  -3  -2   5 1508.41 446.969   1
  -3  -2   8 8812.98 1940.33   2
  -3  -1 -11 3221.91 1213.64   6
  -3  -1 -10 16451.8 2333.28   6
  -3  -1  -9 20565.9 2445.71   6
  -3  -1  -8 22535.0 2401.11   6
  -3  -1  -7 3954.86 971.086   6
  -3  -1  -6 2249.38 579.000   1
  -3  -1  -6 2154.85 651.744   6
  -3  -1  -5 18542.0 1618.88   1
  -3  -1  -4 141659. 4299.54   1
  -3  -1  -1 219691. 4647.12   5
  -3  -1   0 453391. 6847.79   5
  -3  -1   1 7132.36 941.739   1
  -3  -1   1 6217.56 910.338   2
  -3  -1   2 65052.8 2851.97   1
  -3  -1   2 56696.3 2938.16   2
  -3  -1   3 43226.0 2790.37   2
  -3  -1   3 42373.2 2352.38   1
  -3  -1   4 16660.7 1504.58   1
  -3  -1   4 17220.4 1932.30   2
  -3  -1   5 14577.3 1456.06   1
  -3  -1   5 13851.4 1877.99   2
  -3  -1   6 10441.6 1792.77   2
  -3  -1   7 14648.5 2178.02   2
  -3  -1   8 19215.3 2727.51   2
  -3   0 -11 15541.5 2412.74   6
  -3   0 -10 15479.7 2301.48   6
  -3   0  -9 4174.52 1138.04   6
  -3   0  -8 45797.3 3468.04   6
  -3   0  -7 43295.6 3158.62   6
  -3   0  -6 38793.0 2787.52   6
  -3   0  -6 44027.2 2442.08   1
  -3   0  -5 100691. 3577.15   1
  -3   0  -4 146.152 201.914   1
  -3   0  -3 288.490 312.330   6
  -3   0  -3 219.590 130.576   1
  -3   0  -2 12306.7 1144.98   6
  -3   0   0 200442. 3963.56   5
  -3   0   1 65718.3 2877.62   1
  -3   0   2 149638. 4456.73   1
  -3   0   2 156092. 4878.94   2
  -3   0   3 55969.7 3175.99   2
  -3   0   3 59454.7 2894.48   1
  -3   0   4 670.831 502.608   2
  -3   0   5 39599.1 3112.91   2
  -3   0   6 4723.59 1198.08   2
  -3   0   7 25479.2 2868.21   2
  -3   0   8 15877.8 2410.02   2
  -3   0   9 3509.61 1318.42   2
  -3   1 -10 706.215 604.475   6
  -3   1  -9-129.453 448.430   6
  -3   1  -8 26706.0 2767.21   6
  -3   1  -7 39160.0 3140.44   6
  -3   1  -6 66370.9 2853.44   1
  -3   1  -6 67079.0 3836.63   6
  -3   1  -5 210773. 4977.35   1
  -3   1  -5 196842. 6170.71   6
  -3   1  -4 66882.6 3302.95   6
  -3   1  -4 66111.9 2809.72   1
  -3   1  -3 38070.7 2138.18   1
  -3   1  -3 37492.2 2263.26   6
  -3   1  -2 1190.89 398.654   6
  -3   1  -2 1239.62 413.049   1
  -3   1  -1 2383.46 461.232   6
  -3   1   0 32750.7 1428.80   6
  -3   1   3 9386.27 1352.42   2
  -3   1   4 10967.2 1542.55   2
  -3   1   5 23594.6 2411.18   2
  -3   1   6 3594.15 1050.82   2
  -3   1   7 10458.0 1853.50   2
  -3   1   8 9683.17 1929.49   2
  -3   1   9 10603.0 2135.03   2
  -3   2 -10 1770.94 871.066   6
  -3   2  -9-451.655 519.763   6
  -3   2  -8-44.4296 312.406   6
  -3   2  -7 21227.8 2423.60   6
  -3   2  -6 75343.6 4237.96   6
  -3   2  -6 83430.8 3025.97   1
  -3   2  -5 32296.6 1935.11   1
  -3   2  -5 34354.0 2659.69   6
  -3   2  -4 19766.3 1894.10   6
  -3   2  -4 19183.1 1526.86   1
  -3   2  -3 39556.1 2450.84   6
  -3   2  -3 36754.0 2145.10   1
  -3   2  -2 331067. 6516.74   1
  -3   2  -2 325609. 6315.25   6
  -3   2  -1 68216.3 2555.16   6
  -3   2   0 718.365 253.876   6
  -3   2   1 129927. 2258.06   6
  -3   2   1 129362. 2051.67   5
  -3   2   4 51216.6 3325.00   2
  -3   2   5 5446.33 1207.15   2
  -3   2   6 24179.0 2622.39   2
  -3   2   7 1063.38 713.341   2
  -3   2   8-1930.03 967.662   2
  -3   2   9 5246.62 1487.36   2
  -3   3  -9 5035.67 1391.87   6
  -3   3  -8 332.614 455.358   6
  -3   3  -7 6822.52 1421.93   6
  -3   3  -6 39094.0 3198.49   6
  -3   3  -6 42289.3 2133.06   1
  -3   3  -5 8645.03 1426.21   6
  -3   3  -5 11640.5 1178.14   1
  -3   3  -4 18179.4 1532.65   1
  -3   3  -4 15920.1 1765.79   6
  -3   3  -3 8497.98 1224.74   6
  -3   3  -3 8940.56 1110.03   1
  -3   3  -2 50300.7 2640.27   6
  -3   3  -1 13280.0 1222.50   6
  -3   3   0 54011.4 2158.49   6
  -3   3   1 249056. 3723.58   6
  -3   3   6 28412.6 2813.75   2
  -3   3   7 3294.74 1088.89   2
  -3   3   8 617.223 684.911   2
  -3   3   9 4603.35 1460.61   2
  -3   4  -9 6518.08 1611.27   6
  -3   4  -8 7031.62 1584.52   6
  -3   4  -7 21703.9 2662.32   6
  -3   4  -6 30890.4 2974.63   6
  -3   4  -5 7424.28 1344.49   6
  -3   4  -5 5931.64 881.533   1
  -3   4  -4-191.824 205.830   1
  -3   4  -4 545.655 375.496   6
  -3   4  -3 48467.1 3082.54   6
  -3   4  -2 60571.8 3159.23   6
  -3   4  -1 12194.3 1303.51   6
  -3   4   0 3537.16 637.230   6
  -3   4   1 11471.7 958.057   6
  -3   4   2 21948.3 1008.49   6
  -3   4   9 5947.24 1641.23   2
  -3   5  -8 9411.45 1960.17   6
  -3   5  -7 14376.5 2254.57   6
  -3   5  -6 14377.9 2124.18   6
  -3   5  -5 30398.4 2938.68   6
  -3   5  -4 15154.2 1943.25   6
  -3   5  -3 22931.5 2242.87   6
  -3   5  -2 710.220 395.519   6
  -3   5  -1 12797.0 1467.16   6
  -3   5   0 81337.5 3350.92   6
  -3   5   1 5373.14 782.825   6
  -3   5   2 3635.38 555.403   6
  -3   5   3 33887.5 1162.12   6
  -3   6  -7 1431.56 732.637   6
  -3   6  -6 3098.38 1044.48   6
  -3   6  -5 10283.9 1812.47   6
  -3   6  -4 52916.6 3885.06   6
  -3   6  -3 54459.0 3713.99   6
  -3   6  -2 17951.4 2019.04   6
  -3   6  -1 10610.0 1450.50   6
  -3   6   0 4792.11 890.100   6
  -3   6   1 3644.30 712.258   6
  -3   6   2 29908.0 1846.92   6
  -3   7  -6-295.517 396.704   6
  -3   7  -5 548.494 460.268   6
  -3   7  -4 27140.1 2938.55   6
  -3   7  -3 10655.0 1755.75   6
  -3   7  -2 14085.7 1906.67   6
  -3   7  -1 59454.6 3718.00   6
  -3   7   0 28267.3 2398.25   6
  -3   7   1 2769.74 683.938   6
  -3   8  -5 22.1834 383.982   6
  -3   8  -4 7196.77 1590.10   6
  -3   8  -3 6978.14 1490.14   6
  -3   8  -2 6643.92 1429.63   6
  -3   8  -1 11145.1 1724.60   6
  -3   8   0 997.405 516.158   6
  -3   9  -4-155.227 422.297   6
  -3   9  -3 702.279 517.959   6
  -3   9  -2 6163.95 1421.71   6
  -3   9  -1 2810.20 923.368   6
  -3  10  -2 7009.68 1639.42   6
  -2 -12  -1 792.595 719.112   5
  -2 -11  -1 2733.38 1066.89   5
  -2 -11   0 10343.5 1938.16   5
  -2 -11   1 3533.24 1291.17   5
  -2 -10  -2 5218.40 1260.21   5
  -2 -10  -1 12531.2 1966.44   5
  -2 -10   0 10921.1 1938.62   5
  -2 -10   1 1835.20 920.115   5
  -2  -9  -2 621.304 571.631   5
  -2  -9  -1 16423.6 2168.42   5
  -2  -9   0 29539.7 2973.21   5
  -2  -9   1 20046.4 2589.57   5
  -2  -8  -2 4155.99 1029.39   5
  -2  -8  -1 6551.04 1303.38   5
  -2  -8   0 353.499 386.549   5
  -2  -7  -2 95791.8 4449.10   5
  -2  -7  -1 78108.3 4125.23   5
  -2  -7   0 9418.30 1516.98   5
  -2  -6  -2 90885.1 4051.23   5
  -2  -6  -1 57178.1 3311.46   5
  -2  -5  -2 83236.8 3603.40   5
  -2  -5  -1 5771.19 987.250   5
  -2  -4  -2 2171.10 556.940   5
  -2  -4  -1 44686.2 2499.36   5
  -2  -3 -11 3055.16 1009.39   6
  -2  -3 -10 6197.59 1344.85   6
  -2  -3  -9 63198.0 3988.31   6
  -2  -3  -8 2017.77 704.163   6
  -2  -3  -1 239717. 5289.65   5
  -2  -3  -1 240365. 2824.18   2
  -2  -3   0 8887.07 953.360   1
  -2  -3   1 109917. 3234.97   1
  -2  -3   2 76260.2 2567.31   1
  -2  -3   3 26921.5 1467.54   1
  -2  -3   4 13689.1 995.611   1
  -2  -3   5-123.623 123.011   1
  -2  -2 -12 1601.35 768.581   6
  -2  -2 -11 2316.33 978.227   6
  -2  -2 -10 1404.67 784.705   6
  -2  -2  -9 6379.96 1313.27   6
  -2  -2  -8 5125.92 1115.73   6
  -2  -2  -7 80840.6 3977.99   6
  -2  -2  -6 53363.1 3017.07   6
  -2  -2  -1 28988.3 1645.47   5
  -2  -2   0 244342. 4548.90   1
  -2  -2   0 249508. 3936.55   2
  -2  -2   1 177527. 3827.52   1
  -2  -2   2 93338.1 2749.07   1
  -2  -2   3 66344.2 2305.70   1
  -2  -2   4 44917.6 1907.68   1
  -2  -2   5 8163.21 814.334   1
  -2  -1 -12 2861.04 1120.66   6
  -2  -1 -11 9637.44 1825.65   6
  -2  -1 -10 18982.9 2392.33   6
  -2  -1  -9 10403.2 1678.42   6
  -2  -1  -8 3256.91 900.934   6
  -2  -1  -7 37243.2 2710.99   6
  -2  -1  -6 15336.8 1626.71   6
  -2  -1  -4 146989. 3900.14   1
  -2  -1  -1 64504.4 2148.69   5
  -2  -1   1 165196. 3627.21   1
  -2  -1   1 167215. 3875.30   2
  -2  -1   2 253447. 4555.29   1
  -2  -1   2 259947. 5514.94   2
  -2  -1   3 112802. 3114.82   1
  -2  -1   4 10662.3 994.293   1
  -2  -1   5 8181.67 890.294   1
  -2  -1   6 35865.2 1915.30   1
  -2   0 -11 18521.5 2544.99   6
  -2   0 -10 27956.7 2958.31   6
  -2   0  -9 30.9414 366.661   6
  -2   0  -8 24978.6 2486.05   6
  -2   0  -7 22466.2 2209.11   6
  -2   0  -6 375.304 244.641   6
  -2   0  -5 87415.4 2866.87   1
  -2   0  -4 74494.2 2559.28   1
  -2   0  -3 58295.5 2167.20   1
  -2   0  -1 20892.7 1129.99   6
  -2   0   0 17567.7 958.852   5
  -2   0   1 186687. 4192.54   2
  -2   0   2 126213. 3380.85   1
  -2   0   2 125012. 3848.57   2
  -2   0   3 169237. 4908.90   2
  -2   0   3 177989. 4203.46   1
  -2   0   4 63897.3 3347.58   2
  -2   0   4 62627.4 2623.30   1
  -2   0   5 80322.0 3105.11   1
  -2   0   6 44488.0 2408.54   1
  -2   1 -11 20875.9 2797.66   6
  -2   1 -10 3568.52 1159.48   6
  -2   1  -9 5980.08 1417.21   6
  -2   1  -8 8060.52 1502.93   6
  -2   1  -7 33275.9 2801.84   6
  -2   1  -6 94328.1 4361.16   6
  -2   1  -5 128646. 3221.49   1
  -2   1  -4 6490.66 710.266   1
  -2   1  -3 31555.9 1553.18   1
  -2   1  -2 81301.6 2739.09   6
  -2   1  -2 82360.2 2558.42   1
  -2   1  -1 192998. 3592.62   6
  -2   1   0 56799.9 1527.20   6
  -2   1   2 63683.9 2758.81   2
  -2   1   2 69615.1 2731.97   1
  -2   1   3 2962.09 669.366   2
  -2   1   3 4306.83 719.413   1
  -2   1   4 3833.50 713.538   1
  -2   1   4 3375.87 838.382   2
  -2   1   5 86811.3 4204.22   2
  -2   1   5 96538.2 3714.52   1
  -2   1   6 108000. 5135.88   2
  -2   1   7 61094.7 4088.09   2
  -2   1   8 1674.92 809.038   2
  -2   1   9 4987.72 1436.60   2
  -2   1  10 10645.9 2160.47   2
  -2   2 -10-420.075 569.591   6
  -2   2  -9 21981.1 2698.85   6
  -2   2  -8 6996.28 1444.23   6
  -2   2  -7 750.196 652.403   6
  -2   2  -6 46273.4 3202.65   6
  -2   2  -5 68426.7 2145.39   1
  -2   2  -4 150668. 3351.13   1
  -2   2  -3 189664. 3940.05   1
  -2   2  -2 54689.8 2444.31   6
  -2   2  -2 56728.9 2227.79   1
  -2   2  -1 110368. 3024.01   6
  -2   2   0 9789.84 752.070   6
  -2   2   1 19133.9 759.475   6
  -2   2   3 5129.11 866.737   4
  -2   2   3 4666.52 870.056   2
  -2   2   4 37778.4 2602.82   2
  -2   2   4 32785.7 2261.68   4
  -2   2   5 12591.0 1637.34   2
  -2   2   6 22852.4 2346.65   2
  -2   2   7 4342.75 1160.42   2
  -2   2   8 664.130 609.741   2
  -2   2   9 18246.0 2558.17   2
  -2   2  10 19081.6 2824.78   2
  -2   3 -10 1344.20 837.656   6
  -2   3  -9 7012.74 1599.14   6
  -2   3  -8 6733.33 1500.54   6
  -2   3  -7 2786.80 911.096   6
  -2   3  -6 54501.1 3637.46   6
  -2   3  -6 56533.0 1598.31   1
  -2   3  -5 10606.9 844.603   1
  -2   3  -5 11789.4 1593.62   6
  -2   3  -4 9724.49 893.586   1
  -2   3  -4 7061.36 1161.79   6
  -2   3  -3 19776.6 1349.70   1
  -2   3  -3 17800.7 1682.47   6
  -2   3  -2 174242. 4804.24   6
  -2   3  -2 175635. 4256.54   1
  -2   3  -1 196281. 4711.46   1
  -2   3  -1 181235. 4393.57   6
  -2   3   0 169484. 3705.33   6
  -2   3   1 9073.44 722.310   6
  -2   3   2 25209.1 901.363   6
  -2   3   5 60407.5 3510.95   2
  -2   3   5 54326.7 1317.50   6
  -2   3   6 48305.1 3409.69   2
  -2   3   7 127.863 510.897   2
  -2   3   8 47.2850 461.255   2
  -2   3   9 213.361 503.721   2
  -2   3  10 1081.22 833.718   2
  -2   4  -9 7549.99 1750.82   6
  -2   4  -8 2609.28 1025.59   6
  -2   4  -7 1670.96 530.206   6
  -2   4  -6-180.486 254.745   6
  -2   4  -5 23700.8 2394.27   6
  -2   4  -5 28220.7 1443.85   1
  -2   4  -4 84452.1 2829.76   1
  -2   4  -4 81873.0 4165.60   6
  -2   4  -3 56782.5 2494.53   1
  -2   4  -3 58353.9 3269.96   6
  -2   4  -2 21294.3 1842.16   6
  -2   4  -2 18135.5 1494.47   1
  -2   4  -1 4390.17 785.547   6
  -2   4  -1 4161.38 793.121   4
  -2   4   0 91488.8 3161.69   6
  -2   4   1 40471.3 1897.92   6
  -2   4   2 682.867 220.929   6
  -2   4   3 86073.4 2000.17   6
  -2   4   4 57412.8 1347.80   6
  -2   4   5 77220.6 1530.12   6
  -2   4   6 17584.1 2080.87   2
  -2   4   7 3908.39 1118.41   2
  -2   4   8 14933.3 2174.22   2
  -2   4   9 3194.24 1245.94   2
  -2   4  10-348.417 697.373   2
  -2   5  -8 11578.8 2074.97   6
  -2   5  -7 31860.9 3320.75   6
  -2   5  -6-139.404 516.573   6
  -2   5  -5-183.133 340.390   6
  -2   5  -4 394.790 227.803   1
  -2   5  -4 1211.41 530.048   6
  -2   5  -3 32026.6 2618.51   6
  -2   5  -3 39659.6 2262.35   1
  -2   5  -2 74831.2 3743.98   6
  -2   5  -1 103589. 4098.51   6
  -2   5   0 57847.7 2851.99   6
  -2   5   1 4775.47 768.931   6
  -2   5   2 11113.6 1043.53   6
  -2   5   3 16297.0 1145.11   6
  -2   5   4 51260.2 2008.23   5
  -2   5   4 48137.4 1708.49   6
  -2   5   9 7038.62 1635.30   2
  -2   5  10 3742.13 1279.40   2
  -2   6  -7 18479.0 2620.03   6
  -2   6  -6 8185.03 1757.37   6
  -2   6  -5 16144.4 2226.84   6
  -2   6  -4 28128.1 2788.58   6
  -2   6  -3 8788.12 1475.47   6
  -2   6  -2-53.7600 234.470   6
  -2   6  -1 15175.2 1741.09   6
  -2   6   0 56650.3 3149.53   6
  -2   6   1 40491.4 2494.69   6
  -2   6   2 27380.5 1899.17   6
  -2   6   3 3911.86 657.444   6
  -2   6   4 31339.0 1718.58   6
  -2   7  -6 3787.34 1187.18   6
  -2   7  -5 2342.46 883.821   6
  -2   7  -4 15639.3 2211.32   6
  -2   7  -3 36950.7 3224.54   6
  -2   7  -2 54528.8 3728.01   6
  -2   7  -1 30446.0 2645.35   6
  -2   7   0 1044.69 403.332   6
  -2   7   1 1545.64 558.907   6
  -2   7   2 18583.5 1759.45   6
  -2   7   3 16392.0 1561.71   6
  -2   8  -5 2940.43 1051.81   6
  -2   8  -4 6386.52 1488.65   6
  -2   8  -3 2361.50 877.550   6
  -2   8  -2 12135.2 1872.84   6
  -2   8  -1 37156.0 3169.70   6
  -2   8   0 28441.2 2638.68   6
  -2   8   1 28891.4 2575.34   6
  -2   8   2 9114.18 1367.58   6
  -2   9  -4 261.888 425.913   6
  -2   9  -3 1067.29 621.304   6
  -2   9  -2 13291.9 2108.14   6
  -2   9  -1 5185.70 1251.80   6
  -2   9   0-1069.88 578.234   6
  -2   9   1 11068.5 1728.87   6
  -2   9   2 23796.3 2387.53   6
  -2  10  -2 2645.95 1017.58   6
  -2  10  -1-148.533 240.776   6
  -2  10   0 4486.41 1268.36   6
  -1 -11  -4 1189.44 756.286   4
  -1 -11  -3 2551.14 1179.28   4
  -1 -11  -2 331.138 495.144   4
  -1 -11  -1 5470.72 1357.71   5
  -1 -11   0 10562.8 1866.12   5
  -1 -11   1 3399.10 1167.29   5
  -1 -11   2 908.046 818.391   5
  -1 -10  -6 7238.41 1856.68   4
  -1 -10  -5 7466.85 1735.29   4
  -1 -10  -4 6944.55 1627.75   4
  -1 -10  -3 20431.8 2675.73   4
  -1 -10  -2 2965.13 1015.33   4
  -1 -10  -1 7158.37 1591.94   4
  -1 -10  -1 10506.7 1686.40   5
  -1 -10   0 4342.61 1193.23   5
  -1 -10   1 7948.19 1611.82   5
  -1  -9  -8 3810.29 1358.51   4
  -1  -9  -7 9938.52 1990.41   4
  -1  -9  -6 3207.24 1124.47   4
  -1  -9  -5 1153.17 741.546   4
  -1  -9  -4 769.423 637.754   4
  -1  -9  -3 3866.39 1117.57   4
  -1  -9  -2 14357.8 1798.32   5
  -1  -9  -2 13672.0 1999.25   4
  -1  -9  -1 51848.6 3757.45   4
  -1  -9  -1 48350.5 3420.18   5
  -1  -9   0 24316.0 2502.79   4
  -1  -9   0 27512.2 2679.46   5
  -1  -9   1 17803.9 2259.65   5
  -1  -8  -9 1916.49 844.503   4
  -1  -8  -8 12055.4 2185.07   4
  -1  -8  -7 32540.3 3364.05   4
  -1  -8  -6 38641.1 3555.83   4
  -1  -8  -5 6170.14 1417.53   4
  -1  -8  -4 3964.89 1121.76   4
  -1  -8  -3 3078.48 528.045   2
  -1  -8  -3 3948.11 1093.68   4
  -1  -8  -2 5062.18 1024.53   5
  -1  -8  -2 3514.65 931.122   4
  -1  -8  -1 4043.06 955.587   5
  -1  -8  -1 4551.86 1084.12   4
  -1  -8   0 9046.05 1454.60   5
  -1  -8   0 9451.83 1479.43   4
  -1  -7  -9 1607.44 801.488   4
  -1  -7  -8 15136.9 2269.40   4
  -1  -7  -7 17012.0 2310.96   4
  -1  -7  -6 16428.3 2211.63   4
  -1  -7  -5 101641. 5196.07   4
  -1  -7  -4 41194.9 3203.67   4
  -1  -7  -3 11368.2 924.083   2
  -1  -7  -3 10063.0 1546.79   4
  -1  -7  -2 36966.3 2822.11   4
  -1  -7  -2 35102.6 2469.55   5
  -1  -7  -1 9225.44 1326.84   5
  -1  -7  -1 9633.48 1408.49   4
  -1  -7   0 2660.89 746.474   5
  -1  -7   0 3618.39 851.130   4
  -1  -7   1-166.450 281.060   4
  -1  -6  -8 7982.15 1571.56   4
  -1  -6  -7 9956.18 1678.24   4
  -1  -6  -6 370.358 442.380   4
  -1  -6  -5 75468.8 4202.25   4
  -1  -6  -4 12564.4 1680.78   4
  -1  -6  -3 62353.8 1942.65   2
  -1  -6  -3 59553.7 3424.71   4
  -1  -6  -2 130120. 4893.91   4
  -1  -6  -2 133494. 4469.39   5
  -1  -6  -1 95919.3 3937.23   5
  -1  -6  -1 89989.3 3889.10   4
  -1  -6   0 38273.5 2432.85   4
  -1  -6   1 2560.69 640.781   4
  -1  -5  -8 26457.1 2626.75   4
  -1  -5  -7 1345.12 573.183   4
  -1  -5  -6 9898.42 1505.81   4
  -1  -5  -5 22387.2 2122.73   4
  -1  -5  -4 29812.5 2334.76   4
  -1  -5  -3 30343.3 2261.49   4
  -1  -5  -2 2954.75 635.399   5
  -1  -5  -2 2047.95 623.190   4
  -1  -5  -1 54228.2 2693.51   5
  -1  -5  -1 51961.1 2704.98   4
  -1  -5   0 108377. 3717.79   4
  -1  -4  -7 6668.62 1207.31   4
  -1  -4  -6 110934. 4576.70   4
  -1  -4  -5-398.212 339.725   4
  -1  -4  -4 100548. 3942.53   4
  -1  -4  -3 209390. 5448.59   4
  -1  -4  -2 10033.5 1155.97   4
  -1  -4  -2 11968.8 600.452   2
  -1  -4  -1 164.700 250.344   5
  -1  -4  -1 470.501 312.933   4
  -1  -4   0 14432.8 1208.24   4
  -1  -3 -10 12900.2 1851.97   6
  -1  -3  -9 14055.0 1796.22   6
  -1  -3  -8 3717.68 887.408   6
  -1  -3  -7 28835.8 2213.05   6
  -1  -3  -6 63234.6 3192.71   4
  -1  -3  -5 24873.4 1903.91   4
  -1  -3  -4 151085. 4406.16   4
  -1  -3  -3 303770. 5945.32   4
  -1  -3  -2 20285.1 1444.44   4
  -1  -3  -1 2277.21 479.874   5
  -1  -3  -1 1748.98 430.931   4
  -1  -2 -12-193.096 458.743   6
  -1  -2 -11 5205.57 1288.35   6
  -1  -2 -10 31559.4 2943.33   6
  -1  -2  -9 8819.34 1456.06   6
  -1  -2  -8 360.585 357.131   6
  -1  -2  -7 71036.6 3489.64   6
  -1  -2  -6 3203.93 718.917   6
  -1  -2  -5 87184.0 3284.39   6
  -1  -2  -4 181760. 4292.52   6
  -1  -2  -1 59156.2 1976.55   5
  -1  -2   0 288471. 4095.73   1
  -1  -2   1 561181. 5246.93   1
  -1  -2   2 42653.7 1323.35   1
  -1  -2   3 53594.4 1393.63   1
  -1  -2   4 12845.9 635.776   1
  -1  -2   5 6474.95 393.560   1
  -1  -1 -12 540.026 542.095   6
  -1  -1 -11 2189.76 889.838   6
  -1  -1 -10 25353.0 2669.63   6
  -1  -1  -9 2769.19 854.062   6
  -1  -1  -8 3534.41 884.028   6
  -1  -1  -7 27620.6 2219.54   6
  -1  -1  -6 708.240 361.596   6
  -1  -1  -5 39428.3 2214.80   6
  -1  -1   1 319226. 3576.88   1
  -1  -1   2 20100.9 910.114   1
  -1  -1   3 3390.66 393.504   1
  -1  -1   4 39985.8 2185.60   6
  -1  -1   4 42965.6 1471.00   1
  -1  -1   5 10054.9 1214.48   6
  -1  -1   5 10554.4 771.403   1
  -1  -1   6 111437. 2588.42   1
  -1   0 -12 3441.79 1174.42   6
  -1   0 -11 8127.31 1698.67   6
  -1   0 -10 17905.1 2319.87   6
  -1   0  -9 8147.59 1490.40   6
  -1   0  -8 18436.1 2063.50   6
  -1   0  -7 53.7891 345.760   6
  -1   0  -6 21031.9 1891.57   6
  -1   0  -3 10995.5 744.981   1
  -1   0   0 491476. 3572.58   5
  -1   0   1 246240. 3742.13   2
  -1   0   2 726243. 6220.42   1
  -1   0   3 191003. 3560.09   6
  -1   0   3 195934. 3382.08   4
  -1   0   3 192584. 3526.49   1
  -1   0   4 7871.87 735.028   4
  -1   0   4 7755.95 857.350   6
  -1   0   5 7498.26 770.202   4
  -1   0   5 7911.46 994.496   6
  -1   0   5 8683.82 864.483   1
  -1   0   6 54041.2 2137.54   4
  -1   0   6 53583.9 2265.11   1
  -1   1 -11 11081.5 2019.05   6
  -1   1 -10 1348.38 732.932   6
  -1   1  -9 28927.6 2901.66   6
  -1   1  -8 64350.1 4016.21   6
  -1   1  -7 679.750 484.370   6
  -1   1  -6 20573.2 1969.36   6
  -1   1  -3 165405. 2433.90   1
  -1   1  -2 68410.1 1608.17   1
  -1   1   0 336577. 3080.41   6
  -1   1   2 58775.7 2227.19   2
  -1   1   2 57970.8 2054.02   4
  -1   1   3 167459. 2720.76   6
  -1   1   3 163570. 4238.29   2
  -1   1   4 133291. 3074.40   6
  -1   1   4 141314. 3709.07   4
  -1   1   5 436423. 6584.34   6
  -1   1   5 454024. 6985.27   4
  -1   1   6 71238.0 3021.72   6
  -1   1   6 74442.9 3010.04   4
  -1   1   7 31172.6 2025.36   4
  -1   2 -10 1543.38 725.619   6
  -1   2  -9 15849.2 2259.83   6
  -1   2  -8 14331.6 2013.14   6
  -1   2  -7 5279.99 1119.02   6
  -1   2  -6 33974.6 2657.94   6
  -1   2  -4 50213.9 1178.28   1
  -1   2  -3 78827.2 1720.80   1
  -1   2  -2 7088.87 598.381   1
  -1   2   0 370000. 4489.61   6
  -1   2   3 26904.8 1003.48   6
  -1   2   3 28896.7 1799.42   2
  -1   2   3 30318.8 1827.87   4
  -1   2   4 8668.09 1103.87   2
  -1   2   4 8477.82 703.127   6
  -1   2   4 8510.55 1041.43   4
  -1   2   5 62764.1 2951.03   4
  -1   2   5 60164.3 2216.48   6
  -1   2   5 68490.4 3381.75   2
  -1   2   6 89242.0 3089.39   6
  -1   2   6 98708.1 3906.57   4
  -1   2   6 91781.4 4284.23   2
  -1   2   7 50912.2 2648.44   6
  -1   2   7 51375.2 3499.25   2
  -1   2   8 35565.3 3159.90   2
  -1   2   9 23259.8 2751.33   2
  -1   2  10 1281.83 829.379   2
  -1   3 -10-134.420 532.765   6
  -1   3  -9 23104.5 2818.54   6
  -1   3  -8 18427.4 2360.24   6
  -1   3  -7 24575.2 2567.91   6
  -1   3  -6 3262.72 925.406   6
  -1   3  -5 282.468 359.447   6
  -1   3  -4 56340.2 1350.70   1
  -1   3  -3 5904.74 555.116   1
  -1   3  -1 339133. 5978.15   6
  -1   3  -1 350824. 5571.88   4
  -1   3   0 323151. 5148.26   6
  -1   3   3 895.419 219.072   6
  -1   3   4 181897. 3306.75   6
  -1   3   4 182597. 5017.85   2
  -1   3   4 194702. 5404.77   4
  -1   3   5 13879.7 1544.78   2
  -1   3   5 16091.0 1091.70   6
  -1   3   6 1192.46 339.601   6
  -1   3   6 1986.35 683.266   2
  -1   3   7 10589.4 1595.07   2
  -1   3   8 24653.3 2619.54   2
  -1   3   9 43689.2 3711.26   2
  -1   3  10 9040.49 1849.80   2
  -1   3  11 1354.12 899.526   2
  -1   4  -9 8.80339 395.645   6
  -1   4  -8-963.146 647.516   6
  -1   4  -7 48257.0 3801.00   6
  -1   4  -6 55456.0 3843.26   6
  -1   4  -5 13941.1 1921.53   6
  -1   4  -4 8752.88 1354.69   6
  -1   4  -4 8329.41 642.925   1
  -1   4  -3 9223.06 822.392   1
  -1   4  -2 90548.3 3034.01   4
  -1   4  -2 86355.5 3684.41   6
  -1   4  -1 88337.7 3439.59   6
  -1   4  -1 94223.9 3282.48   4
  -1   4   0 86606.8 3332.01   4
  -1   4   0 83592.7 3067.10   6
  -1   4   2 53815.9 1751.30   5
  -1   4   4 78215.3 2397.60   6
  -1   4   5 62766.4 3272.11   2
  -1   4   5 63636.9 2292.82   6
  -1   4   6 11125.3 1027.87   6
  -1   4   6 13244.6 1641.67   2
  -1   4   7 4431.05 1057.79   2
  -1   4   8 13630.4 1948.73   2
  -1   4   9 6213.79 1416.59   2
  -1   4  10 1438.46 879.813   2
  -1   4  11 3214.81 1225.39   2
  -1   5  -8 3431.59 1215.34   6
  -1   5  -7 6810.18 1526.24   6
  -1   5  -6 1688.29 751.228   6
  -1   5  -5 8257.65 1485.52   6
  -1   5  -4 7414.04 729.210   1
  -1   5  -4 8606.00 1431.17   6
  -1   5  -3 58735.1 3516.88   6
  -1   5  -3 66242.9 2527.32   1
  -1   5  -2 75683.4 3793.67   6
  -1   5  -2 76283.0 3143.06   4
  -1   5  -1 24171.3 2007.63   6
  -1   5  -1 29470.5 2038.31   4
  -1   5   0 8206.75 1095.78   6
  -1   5   3 80509.0 2614.41   5
  -1   5   4 67329.0 2644.85   5
  -1   5   5 60220.7 2393.28   6
  -1   5   7 13302.2 1762.75   2
  -1   5   8 20897.0 2403.79   2
  -1   5   9 14776.2 2153.60   2
  -1   5  10 2047.14 940.970   2
  -1   5  11-176.733 589.040   2
  -1   6  -7 22053.7 2886.17   6
  -1   6  -6 23007.4 2778.50   6
  -1   6  -5 4912.04 1208.96   6
  -1   6  -4 15991.1 2078.33   6
  -1   6  -3 7039.12 1319.11   6
  -1   6  -2 41826.1 3066.88   6
  -1   6  -1 53392.2 3273.67   6
  -1   6   0 46621.8 2875.45   6
  -1   6   1 10138.7 1279.10   6
  -1   6   4 9916.33 1066.25   5
  -1   6   5 7659.87 1014.43   5
  -1   7  -6 15575.3 2426.09   6
  -1   7  -5 24307.3 2894.11   6
  -1   7  -4 21994.7 2596.55   6
  -1   7  -3 17043.4 2172.93   6
  -1   7  -2 7383.57 1398.65   6
  -1   7  -1 2972.16 848.040   6
  -1   7   0 12611.5 1632.22   6
  -1   7   1 4370.83 936.345   6
  -1   8  -5 1701.48 802.157   6
  -1   8  -4 8235.29 1710.37   6
  -1   8  -3 8490.60 1686.88   6
  -1   8  -2 27640.0 2898.23   6
  -1   8  -1 35198.8 3133.59   6
  -1   8   0 11931.1 1743.89   6
  -1   8   1 1474.26 596.136   6
  -1   8   2 24298.8 2297.63   6
  -1   9  -4 13830.9 2316.41   6
  -1   9  -3 3656.49 1108.27   6
  -1   9  -2-214.924 274.869   6
  -1   9  -1 4103.49 1133.33   6
  -1   9   0 5696.26 1282.02   6
  -1   9   1 23024.9 2522.11   6
  -1   9   2 30957.8 2811.93   6
  -1   9   3 32022.5 2767.00   6
  -1  10  -2 4719.66 1338.71   6
  -1  10  -1 2422.24 945.593   6
  -1  10   0-49.1774 132.221   6
  -1  10   1 4464.31 1175.79   6
  -1  10   2 12647.8 1936.60   6
  -1  11   0 3497.04 1213.65   6
  -1  11   1 8495.56 1766.08   6
   0 -11  -3 580.353 622.429   4
   0 -11  -2 3299.25 1215.79   4
   0 -11  -1 4186.34 1261.17   4
   0 -10  -6 22415.6 3080.68   4
   0 -10  -5 33764.8 3633.13   4
   0 -10  -4 2764.75 1123.02   4
   0 -10  -3 1856.99 909.591   4
   0 -10  -2 3518.36 1181.18   4
   0 -10  -1 12918.5 1729.96   5
   0 -10  -1 10515.7 1874.53   4
   0 -10   0 1066.61 577.912   5
   0 -10   0 1004.26 559.481   4
   0 -10   1 1056.57 623.772   5
   0  -9  -8-1404.44 900.848   4
   0  -9  -7 281.851 641.860   4
   0  -9  -6 8122.44 1793.38   4
   0  -9  -5 7994.86 1699.20   4
   0  -9  -4 2210.27 839.957   4
   0  -9  -3 17018.0 2328.43   4
   0  -9  -2 38635.1 3386.34   4
   0  -9  -1 27475.6 2353.19   5
   0  -9  -1 30027.2 2901.24   4
   0  -9   0 4555.40 1061.39   5
   0  -9   0 5742.62 1274.43   4
   0  -9   1 6475.04 1266.79   5
   0  -9   1 6502.87 1271.93   4
   0  -8  -9 7998.21 1831.39   4
   0  -8  -8 7194.88 1677.92   4
   0  -8  -7 7013.03 1626.27   4
   0  -8  -6 5281.45 1377.11   4
   0  -8  -5 1053.32 635.894   4
   0  -8  -4 6457.60 1420.66   4
   0  -8  -3 573.975 430.677   4
   0  -8  -3 2504.25 606.778   2
   0  -8  -2 27358.2 2671.13   4
   0  -8  -1 10968.7 1655.58   4
   0  -8  -1 10465.8 1373.90   5
   0  -8   0 14887.6 1716.88   5
   0  -8   0 15292.2 1883.60   4
   0  -8   1 13652.1 1703.75   4
   0  -8   2 4874.00 977.718   4
   0  -7 -10 4046.19 1317.71   4
   0  -7  -9 1810.81 897.003   4
   0  -7  -8 18785.0 2551.85   4
   0  -7  -7 41788.7 3636.06   4
   0  -7  -6 16926.7 2242.21   4
   0  -7  -5 4840.99 1199.41   4
   0  -7  -4 30886.4 2017.57   2
   0  -7  -4 26520.5 2610.55   4
   0  -7  -3 22822.1 1690.25   2
   0  -7  -3 24731.4 2449.68   4
   0  -7  -2 21488.8 2222.88   4
   0  -7  -1 1400.49 542.976   5
   0  -7  -1 1408.23 585.338   4
   0  -7   0 6195.96 1038.69   5
   0  -7   0 6142.24 1126.29   4
   0  -7   1 1754.20 563.649   4
   0  -7   2 2992.33 730.023   4
   0  -7   3 55059.3 2767.44   4
   0  -6 -10 1224.82 831.413   4
   0  -6  -9 3049.61 1081.82   4
   0  -6  -8 11544.0 1865.88   4
   0  -6  -7 18617.1 2298.88   4
   0  -6  -6 1391.44 654.233   4
   0  -6  -5 26345.5 2525.19   4
   0  -6  -4 92891.3 4576.50   4
   0  -6  -3 218632. 6706.90   4
   0  -6  -3 226985. 4997.58   2
   0  -6  -2 20504.3 2010.43   4
   0  -6  -1 10504.3 1190.97   5
   0  -6  -1 10215.8 1357.18   4
   0  -6   0 8680.40 1179.93   4
   0  -6   1 465.441 332.080   4
   0  -6   2 26171.1 1838.15   4
   0  -6   3 58566.4 2548.67   4
   0  -5 -10 1292.40 675.148   4
   0  -5  -9 2645.61 952.158   4
   0  -5  -8 13915.9 1905.12   4
   0  -5  -7 15395.0 1942.93   4
   0  -5  -6 4286.94 984.418   4
   0  -5  -5 3712.84 918.712   4
   0  -5  -4 12490.4 1559.07   4
   0  -5  -3 309547. 5460.88   2
   0  -5  -3 307994. 7398.92   4
   0  -5  -2 119083. 4364.22   4
   0  -5  -1 76635.1 2817.73   5
   0  -5  -1 78637.5 3387.30   4
   0  -5   0 21829.7 1697.60   4
   0  -5   1 172.270 277.611   4
   0  -5   2 133374. 3654.96   4
   0  -5   3 19174.3 1257.67   4
   0  -4  -9 14045.3 1887.77   4
   0  -4  -8 17187.4 2015.30   4
   0  -4  -7 223.003 371.250   4
   0  -4  -6 5607.59 1082.98   4
   0  -4  -5 8627.50 1234.44   4
   0  -4  -4 106784. 4177.69   4
   0  -4  -3 73281.0 2498.96   2
   0  -4  -3 72898.4 3261.22   4
   0  -4  -2 99082.0 2664.15   2
   0  -4  -2 97146.3 3578.54   4
   0  -4  -1 21983.9 1631.02   4
   0  -4  -1 21684.0 1335.40   5
   0  -4   0 33189.1 1851.33   4
   0  -4   1 135846. 3498.37   4
   0  -4   2 337994. 6283.97   3
   0  -4   2 329260. 4979.52   4
   0  -4   3 331.394 275.596   3
   0  -4   3 59.8292 105.721   4
   0  -4   4 1028.79 498.730   3
   0  -4   5 20621.8 2213.57   3
   0  -4   6 37089.5 3209.99   3
   0  -4   7 21028.9 2666.06   3
   0  -3  -9 39084.6 2898.80   4
   0  -3  -8 27471.4 2334.20   4
   0  -3  -7 18949.5 1849.63   4
   0  -3  -6 14985.2 1541.85   4
   0  -3  -5 654.817 420.200   4
   0  -3  -4 36874.4 2222.49   4
   0  -3  -3 476.695 297.990   4
   0  -3  -2 463028. 5230.80   2
   0  -3  -2 459497. 6908.18   4
   0  -3  -1 91399.9 2883.47   4
   0  -3  -1 94357.1 2360.57   5
   0  -3   0 77350.9 2445.62   4
   0  -3   1 406819. 5266.54   3
   0  -3   1 412870. 5160.10   4
   0  -3   2 181900. 4355.38   3
   0  -3   2 184442. 3004.00   4
   0  -3   3 4734.25 832.103   3
   0  -3   3 5347.20 398.753   4
   0  -3   4 64059.6 3375.74   3
   0  -3   5 18947.8 2047.83   3
   0  -3   6 51801.2 3696.85   3
   0  -3   7 24707.2 2766.34   3
   0  -3   8-60.0691 463.386   3
   0  -2 -11 271.232 339.057   6
   0  -2 -10 5671.44 1194.84   6
   0  -2  -9 40494.4 2934.50   6
   0  -2  -8 2564.58 692.717   6
   0  -2  -8 1965.99 619.853   4
   0  -2  -7 31863.5 2204.00   6
   0  -2  -7 30783.1 2130.03   4
   0  -2  -6 53870.3 2583.45   6
   0  -2  -6 57485.6 2751.01   4
   0  -2  -5 271596. 5272.73   6
   0  -2  -5 284579. 5756.56   4
   0  -2  -4 192448. 3895.37   6
   0  -2  -4 192842. 4466.58   4
   0  -2  -3 6472.96 785.756   4
   0  -2  -2 53896.6 2049.93   4
   0  -2  -1 45912.9 1724.13   4
   0  -2   0 19259.1 1003.27   4
   0  -2   1 981135. 6083.70   4
   0  -2   1 990925. 7451.95   3
   0  -2   2 16495.0 1275.97   6
   0  -2   2 17366.9 1279.24   3
   0  -2   2 15607.0 609.272   4
   0  -2   3 1752.04 466.355   3
   0  -2   3 1630.28 465.754   6
   0  -2   4 53696.8 2828.27   6
   0  -2   4 49854.2 2865.14   3
   0  -2   5 38456.6 2809.29   3
   0  -2   6 90092.7 4700.11   3
   0  -2   7 85630.2 5008.64   3
   0  -2   8 2058.40 862.336   3
   0  -2   9 3704.00 1270.95   3
   0  -1 -11 3271.04 1029.69   6
   0  -1 -10 5733.79 1246.15   6
   0  -1  -9 18743.4 2054.06   6
   0  -1  -8 11092.7 1448.95   6
   0  -1  -7 2260.61 651.728   6
   0  -1  -6 1789.46 528.502   6
   0  -1  -6 2449.49 525.893   4
   0  -1  -5 91705.5 3145.39   6
   0  -1  -5 97083.0 2934.15   4
   0  -1  -4 125979. 3239.13   6
   0  -1  -4 122840. 3063.73   4
   0  -1  -3 674996. 6286.76   6
   0  -1  -3 658420. 6499.38   4
   0  -1  -2 419641. 4625.24   4
   0  -1   1 365.130 168.009   6
   0  -1   2 98853.6 2814.66   3
   0  -1   2 94849.7 2605.18   6
   0  -1   3 11882.3 1193.64   3
   0  -1   3 12160.0 1092.08   6
   0  -1   4 15649.8 1552.01   3
   0  -1   4 16001.4 1429.55   6
   0  -1   5 24132.7 2140.07   3
   0  -1   5 25510.2 852.438   1
   0  -1   5 24693.9 826.652   1
   0  -1   5 24858.8 763.528   4
   0  -1   6 39883.6 3052.72   3
   0  -1   6 40734.9 1145.92   1
   0  -1   6 40125.1 1125.72   1
   0  -1   7 29868.3 938.950   1
   0  -1   7 28035.4 2801.16   3
   0  -1   8 27526.7 2987.54   3
   0  -1   9 2991.27 1194.22   3
   0  -1  10 10690.2 2197.51   3
   0   0 -11 6019.42 1360.57   6
   0   0 -10 7124.73 1458.08   6
   0   0  -9 717.140 560.872   6
   0   0  -8 46333.8 3162.17   6
   0   0  -7 3098.22 753.356   6
   0   0  -6 25670.7 1983.68   6
   0   0  -5 41730.4 2284.32   6
   0   0  -4 2733.91 572.725   6
   0   0  -4 1923.74 314.000   4
   0   0  -3 7787.26 539.390   4
   0   0  -2 20996.1 726.931   4
   0   0   2 20518.0 725.943   4
   0   0   2 19144.0 1164.33   3
   0   0   2 19027.5 966.833   6
   0   0   3 6499.09 697.293   6
   0   0   3 7155.14 534.620   4
   0   0   3 6710.93 867.266   3
   0   0   4 1709.86 421.986   6
   0   0   4 2025.24 328.348   4
   0   0   4 940.053 400.642   3
   0   0   5 34511.0 2494.25   3
   0   0   5 38026.4 1543.65   4
   0   0   5 36474.7 2159.45   6
   0   0   6 23685.1 2306.37   3
   0   0   6 27955.4 1401.70   4
   0   0   7 5231.73 1262.70   3
   0   0   7 3542.38 555.546   1
   0   0   7 4036.70 564.030   4
   0   0   8 41948.8 3602.11   3
   0   0   9 1259.23 570.676   3
   0   0  10 9192.98 1993.47   3
   0   1 -11 4197.98 1187.30   6
   0   1 -10 9767.77 1753.68   6
   0   1  -9 1704.69 719.298   6
   0   1  -8 29443.8 2652.03   6
   0   1  -7 35144.6 2663.38   6
   0   1  -6 45398.4 2786.70   6
   0   1  -5 24986.4 1922.24   6
   0   1  -4 16813.3 1431.98   6
   0   1   2 443880. 4169.55   6
   0   1   2 439262. 5056.67   3
   0   1   3 646294. 7821.53   3
   0   1   3 662562. 6305.77   6
   0   1   3 647283. 6529.58   4
   0   1   4 127503. 4053.61   3
   0   1   4 120716. 3239.87   6
   0   1   4 127229. 3160.50   4
   0   1   5 91009.5 3201.47   6
   0   1   5 90352.8 3886.11   3
   0   1   5 95127.4 2963.35   4
   0   1   6 1450.04 421.605   4
   0   1   6 1959.41 541.914   6
   0   1   6 2191.92 740.414   3
   0   1   7 1973.91 876.507   3
   0   1   7 2531.11 524.668   4
   0   1   8 9330.01 1688.15   3
   0   1   9 13688.6 2213.62   3
   0   1  10 4399.81 1438.05   3
   0   1  11 4068.59 1437.76   3
   0   2 -11 2699.17 1034.40   6
   0   2 -10 556.638 513.878   6
   0   2  -9 4740.18 1229.87   6
   0   2  -8 3331.87 970.664   6
   0   2  -7 74910.7 4120.84   6
   0   2  -6 85019.4 4144.41   6
   0   2  -5 40171.6 2649.26   6
   0   2  -2 16778.9 636.277   4
   0   2  -1 999999. 6203.83   4
   0   2   0 22851.8 723.896   3
   0   2   1 41614.9 1305.60   5
   0   2   2 51022.9 1625.62   2
   0   2   3 6524.89 628.851   6
   0   2   3 6661.08 731.719   2
   0   2   3 7066.64 816.655   4
   0   2   3 7606.59 810.939   3
   0   2   4 189739. 3936.84   6
   0   2   4 187567. 4658.22   3
   0   2   4 192071. 4495.63   4
   0   2   5 272833. 6436.01   3
   0   2   5 274179. 5770.52   4
   0   2   5 276792. 5314.21   6
   0   2   6 57534.2 3336.24   3
   0   2   6 56914.4 2712.10   6
   0   2   6 53665.8 2695.80   4
   0   2   7 32861.8 2790.92   3
   0   2   7 33852.6 2247.70   4
   0   2   8 1676.63 832.610   3
   0   2   9 40380.2 3658.29   3
   0   2  10 4348.18 1343.61   3
   0   2  11 497.925 924.999   3
   0   3 -10 5784.68 1479.15   6
   0   3  -9 8904.53 1718.19   6
   0   3  -8-651.758 545.378   6
   0   3  -7 24249.7 2525.81   6
   0   3  -6 59766.7 3688.36   6
   0   3  -5 18062.9 1908.29   6
   0   3  -3 5133.91 339.376   1
   0   3  -2 185271. 3030.74   4
   0   3  -1 411271. 5139.44   4
   0   3   2 464331. 5624.13   5
   0   3   2 458730. 3941.73   3
   0   3   3 279.669 164.470   3
   0   3   3 308.870 174.131   2
   0   3   4 32555.2 1667.00   6
   0   3   4 35503.2 2191.48   4
   0   3   4 36350.2 1942.10   3
   0   3   4 35266.0 1943.22   2
   0   3   5 330.943 270.933   4
   0   3   5 869.920 401.837   3
   0   3   5 112.081 201.870   6
   0   3   5 9.51187 246.826   2
   0   3   6 16043.5 1717.36   3
   0   3   6 19587.3 1565.65   6
   0   3   6 15133.0 1593.40   2
   0   3   7 19541.8 2101.56   3
   0   3   8 25271.3 2619.42   3
   0   3   9 38764.1 3519.88   3
   0   3  10 19324.6 2687.76   3
   0   3  10 20807.5 2605.22   2
   0   3  11-974.895 714.386   2
   0   4  -9 2857.35 1063.50   6
   0   4  -8 13030.1 2074.61   6
   0   4  -7 21593.5 2520.78   6
   0   4  -6 34637.0 3002.29   6
   0   4  -5 20400.9 2166.83   6
   0   4  -4 1251.29 537.591   6
   0   4  -3 78.6483 108.375   1
   0   4  -3 191.771 152.620   4
   0   4  -2 325203. 4962.05   4
   0   4  -1 143846. 3607.17   4
   0   4   0 35669.9 1928.87   4
   0   4   2 99819.3 2908.13   5
   0   4   3 78453.0 2049.91   3
   0   4   3 76848.9 2715.71   5
   0   4   4 94820.4 3102.72   6
   0   4   4 97609.4 2959.22   3
   0   4   5 11653.6 1134.12   6
   0   4   5 9129.57 1097.14   3
   0   4   5 10329.2 1180.16   2
   0   4   6 5443.87 987.028   3
   0   4   6 6014.57 1015.84   2
   0   4   6 4884.30 814.251   6
   0   4   7 1652.75 650.184   3
   0   4   7 354.496 285.306   2
   0   4   8 18337.0 2164.80   3
   0   4   8 17240.6 2022.47   2
   0   4   9 15112.9 2162.57   3
   0   4   9 15729.8 2127.52   2
   0   4  10 18952.4 2644.98   3
   0   4  10 17816.1 2399.44   2
   0   4  11 5211.96 1441.68   2
   0   5  -8 1108.22 741.022   6
   0   5  -7 3640.77 1195.40   6
   0   5  -6 16238.0 2211.52   6
   0   5  -5 58402.5 3909.50   6
   0   5  -4 48.7763 65.6625   1
   0   5  -4 15.5511 57.3160   1
   0   5  -3 20565.3 2116.61   6
   0   5  -3 18928.1 1206.13   1
   0   5  -3 19478.5 1286.47   4
   0   5  -2 133393. 3702.95   4
   0   5  -1 501.524 297.360   4
   0   5  -1-123.679 269.093   6
   0   5   0 25736.3 1857.02   4
   0   5   1 88995.1 3625.08   4
   0   5   3 311924. 5907.77   5
   0   5   4 12433.9 1239.02   5
   0   5   4 12678.3 970.932   3
   0   5   5 3098.64 610.359   3
   0   5   5 3514.24 688.467   6
   0   5   6 3248.91 709.982   6
   0   5   6 2747.57 672.195   3
   0   5   6 3527.37 783.451   2
   0   5   7 11592.6 1536.13   3
   0   5   7 11042.8 1485.61   2
   0   5   8 14183.3 1852.24   3
   0   5   8 14048.8 1804.03   2
   0   5   9 2070.18 838.159   3
   0   5   9 3033.52 997.502   2
   0   5  10 1630.63 784.617   2
   0   5  11 7179.77 1678.21   2
   0   6  -7 3989.73 1278.16   6
   0   6  -6 1520.87 813.342   6
   0   6  -5 9234.23 1649.02   6
   0   6  -4 1530.04 341.628   1
   0   6  -4 1369.00 304.072   1
   0   6  -3 61225.4 3925.43   6
   0   6  -3 63429.6 2561.93   1
   0   6  -3 60818.2 2610.20   4
   0   6  -2 25895.8 2433.29   6
   0   6  -2 26363.2 1869.73   4
   0   6  -1 655.976 428.837   6
   0   6   4 98786.3 3750.44   5
   0   6   9 584.268 558.276   2
   0   7  -6 15641.6 2432.80   6
   0   7  -5 2163.12 864.676   6
   0   7  -4 25012.2 2823.20   6
   0   7  -3 50203.1 3840.55   6
   0   7  -3 50263.0 2563.96   1
   0   7  -2 1814.35 703.024   6
   0   7  -1 2005.10 688.668   6
   0   8  -5-433.187 427.097   6
   0   8  -4 37856.1 3659.59   6
   0   8  -3 43997.7 3857.62   6
   0   8  -3 39960.7 2526.49   1
   0   8  -2 3538.46 1067.74   6
   0   8  -1 13977.4 2013.15   6
   0   8   0 18409.1 2211.76   6
   0   9  -4 15086.4 2442.78   6
   0   9  -3 7547.68 1683.51   6
   0   9  -2 3339.10 1079.36   6
   0   9  -2 3126.72 843.137   1
   0   9  -1 5487.82 1351.87   6
   0   9   0 1781.35 750.023   6
   0   9   1 29608.6 2904.03   6
   0  10  -2 1799.77 846.162   6
   0  10  -1 155.194 252.212   6
   0  10  -1 222.133 386.808   1
   0  10   0 1815.34 795.041   6
   0  10   1 11132.0 1916.26   6
   0  11   0 3104.47 1093.38   6
   0  11   1 5446.94 1420.35   6
   0  11   2 3551.29 1141.42   6
   0  11   3 190.156 352.450   6
   0  12   1 5596.28 1496.34   1
   0  12   2 2688.74 1091.37   6
   1 -11  -2 7577.79 1780.93   4
   1 -11  -1 10833.2 2053.30   4
   1 -11   0 5008.32 1371.26   4
   1 -10  -5 8233.67 1939.37   4
   1 -10  -4 853.856 686.254   4
   1 -10  -3 7351.01 1709.31   4
   1 -10  -2 15749.7 2409.85   4
   1 -10  -1 4412.94 1350.98   4
   1 -10   0 187.571 450.165   4
   1 -10   1 294.268 460.943   4
   1  -9  -7 4971.70 1465.08   4
   1  -9  -6 7142.77 1673.86   4
   1  -9  -4 2265.68 950.999   4
   1  -9  -3 30472.0 3237.60   4
   1  -9  -2 28585.1 3014.58   4
   1  -9  -1 30124.1 3028.54   4
   1  -9   0 4014.56 889.448   5
   1  -9   0 6517.62 1430.93   4
   1  -9   1 2931.33 821.666   5
   1  -9   1 2956.19 913.948   4
   1  -8  -8 2935.88 1103.00   4
   1  -8  -7 11139.9 2042.80   4
   1  -8  -6 9730.61 1870.11   4
   1  -8  -5 592.309 448.789   4
   1  -8  -4 6134.65 1416.51   4
   1  -8  -3 39438.2 3418.15   4
   1  -8  -2 25126.8 2683.71   4
   1  -8  -1 2981.70 657.688   5
   1  -8  -1 3635.96 1002.76   4
   1  -8   0 6637.32 1039.30   5
   1  -8   0 6209.02 1266.83   4
   1  -8   1 35939.7 2891.20   4
   1  -8   2 26457.0 2404.26   4
   1  -7 -10 9820.05 2031.79   4
   1  -7  -9 5805.30 1548.77   4
   1  -7  -8 12091.1 2070.23   4
   1  -7  -7 17897.2 2479.70   4
   1  -7  -6 3769.51 1143.30   4
   1  -7  -5 5721.15 1319.54   4
   1  -7  -4 15429.5 2115.04   4
   1  -7  -3 52307.8 3686.26   4
   1  -7  -2 51028.8 3538.81   4
   1  -7  -1 3372.43 625.530   5
   1  -7  -1 3705.04 957.892   4
   1  -7   0 9402.58 1139.00   5
   1  -7   0 10773.2 1532.46   4
   1  -7   1 1171.42 477.872   4
   1  -7   2 7965.94 1225.19   4
   1  -7   3 21030.6 1882.21   4
   1  -6 -10 7555.46 1671.11   4
   1  -6  -9 3331.65 1130.90   4
   1  -6  -8 18291.8 2389.08   4
   1  -6  -7 38048.2 3359.24   4
   1  -6  -6 8178.69 1523.21   4
   1  -6  -5 6833.31 1308.66   4
   1  -6  -4 9010.27 1550.30   4
   1  -6  -3 43528.0 3146.77   4
   1  -6  -2 25575.3 2336.42   4
   1  -6  -1 12323.1 1562.57   4
   1  -6  -1 13470.9 1115.38   5
   1  -6   0 45331.6 2233.93   5
   1  -6   0 41644.0 2774.59   4
   1  -6   1 52632.2 2972.63   4
   1  -6   2 45308.1 2389.72   3
   1  -6   2 44139.5 2601.66   4
   1  -6   3 8355.58 1191.52   3
   1  -6   3 8863.03 1109.16   4
   1  -6   4 17017.4 1894.05   3
   1  -6   4 17416.0 1428.71   4
   1  -6   5 7604.71 1428.52   3
   1  -6   6 25331.7 2790.57   3
   1  -6   7 23680.1 2872.30   3
   1  -5 -10 3408.84 1190.12   4
   1  -5  -9 16189.9 2223.66   4
   1  -5  -8 27064.2 2728.11   4
   1  -5  -7 12728.2 1820.15   4
   1  -5  -6-354.961 400.668   4
   1  -5  -5 61519.1 3718.74   4
   1  -5  -4 69227.6 3829.37   4
   1  -5  -3 80395.9 3351.40   2
   1  -5  -3 74852.7 3813.10   4
   1  -5  -2 16084.6 1716.25   4
   1  -5  -1 42412.5 1733.74   5
   1  -5  -1 39073.2 2539.71   4
   1  -5   0 7246.34 1044.07   4
   1  -5   0 7478.30 537.314   3
   1  -5   1 27453.1 1473.82   3
   1  -5   1 23989.9 1826.86   4
   1  -5   2 78505.9 3026.51   3
   1  -5   2 75837.8 3097.61   4
   1  -5   3 67225.5 2723.96   4
   1  -5   3 65030.6 3181.92   3
   1  -5   4 9200.63 921.763   4
   1  -5   4 6408.63 1150.01   3
   1  -5   5 8167.06 1459.83   3
   1  -5   6 848.975 709.880   3
   1  -5   7 7873.66 1688.89   3
   1  -5   8 3889.83 1315.10   3
   1  -5   9 2155.65 988.634   3
   1  -4 -10 451.786 492.866   4
   1  -4  -9 5841.64 1246.40   4
   1  -4  -8 10543.0 1599.99   4
   1  -4  -7 2142.92 732.395   4
   1  -4  -6 11819.1 1565.59   4
   1  -4  -5 63600.3 3506.20   4
   1  -4  -4 85653.8 3901.14   4
   1  -4  -3 4328.16 890.062   4
   1  -4  -3 4066.75 723.083   2
   1  -4  -2 53890.6 2461.06   2
   1  -4  -2 56287.6 2930.95   4
   1  -4  -1 260089. 5967.95   4
   1  -4   0 80867.0 3159.43   4
   1  -4   1 92363.8 3219.23   4
   1  -4   2 91637.8 3186.29   3
   1  -4   2 84057.5 2916.73   4
   1  -4   3 8050.23 1111.63   3
   1  -4   3 8900.51 895.016   4
   1  -4   4 9865.73 1391.95   3
   1  -4   4 9078.16 797.787   4
   1  -4   5 14094.5 1805.61   3
   1  -4   5 17573.1 883.230   4
   1  -4   6 62547.3 4079.92   3
   1  -4   7 49356.2 3938.73   3
   1  -4   8 177.868 456.839   3
   1  -4   9 893.912 745.814   3
   1  -3  -9 40154.3 2996.31   4
   1  -3  -8 27759.8 2407.33   4
   1  -3  -7 12311.5 1561.44   4
   1  -3  -6 987.269 438.034   4
   1  -3  -5 15547.1 1601.16   4
   1  -3  -4 191505. 5325.92   4
   1  -3  -3 1620.75 520.814   4
   1  -3  -3 1267.97 331.869   3
   1  -3  -3 1356.61 405.241   2
   1  -3  -2 4416.56 468.931   3
   1  -3  -2 3297.93 599.897   2
   1  -3  -2 3369.01 656.324   4
   1  -3  -1 133208. 3830.78   4
   1  -3   0 348286. 5879.86   4
   1  -3   1 339106. 5463.91   4
   1  -3   2 188702. 4936.68   6
   1  -3   2 180723. 3743.98   4
   1  -3   3 4451.48 547.714   4
   1  -3   4 63006.6 3314.22   3
   1  -3   4 62134.6 1812.40   4
   1  -3   5 759.960 159.290   4
   1  -3   5 696.338 436.429   3
   1  -3   6 3536.11 970.860   3
   1  -3   7 20153.4 2504.70   3
   1  -3   8 17629.1 2466.58   3
   1  -3   9 22336.6 3010.91   3
   1  -2  -9 26193.2 2228.67   6
   1  -2  -9 26074.6 2202.04   4
   1  -2  -8 35635.3 2393.60   6
   1  -2  -8 38189.2 2569.98   4
   1  -2  -7 55972.4 2700.25   6
   1  -2  -7 55218.4 2980.88   4
   1  -2  -6 91766.4 3089.97   6
   1  -2  -6 97754.7 3801.81   4
   1  -2  -5 68497.1 3036.14   4
   1  -2  -5 63899.1 2241.31   6
   1  -2  -4 9400.32 1129.29   3
   1  -2  -4 9102.22 1057.36   4
   1  -2  -3 29293.1 1697.58   3
   1  -2  -3 28576.7 1769.31   4
   1  -2  -2 6828.87 658.561   3
   1  -2  -2 6899.24 829.888   4
   1  -2  -1 17159.0 1217.78   4
   1  -2   0 364094. 5196.98   4
   1  -2   1 536979. 5978.68   4
   1  -2   1 559463. 6561.53   6
   1  -2   2 6467.22 825.592   6
   1  -2   2 7958.44 675.688   4
   1  -2   3 79214.7 3214.56   6
   1  -2   3 81209.1 2023.94   4
   1  -2   4 56065.5 1571.82   4
   1  -2   5 97219.5 1865.30   4
   1  -2   5 98159.6 1867.34   4
   1  -2   6 34472.2 2887.86   3
   1  -2   7 4386.65 1178.92   3
   1  -2   8 13549.6 2134.13   3
   1  -2   9 11629.7 2134.64   3
   1  -2  10 1187.31 1027.46   3
   1  -1 -10 7301.03 1304.83   6
   1  -1  -9 1877.92 641.685   6
   1  -1  -8-96.8932 306.030   6
   1  -1  -8 388.587 295.806   4
   1  -1  -7 30222.4 2094.61   6
   1  -1  -7 28119.9 1890.46   4
   1  -1  -6 77929.8 3009.31   4
   1  -1  -6 76166.9 3011.64   6
   1  -1  -5 440953. 6860.05   4
   1  -1  -5 438422. 6393.97   6
   1  -1  -4 141772. 4551.70   3
   1  -1  -4 138892. 3622.75   4
   1  -1  -4 141563. 3090.87   6
   1  -1  -3 176872. 2714.90   6
   1  -1  -3 172738. 3803.70   4
   1  -1  -2 59351.3 2073.70   4
   1  -1  -1 229383. 3809.04   4
   1  -1   0 351455. 3198.59   6
   1  -1   0 340039. 4330.73   4
   1  -1   1 403625. 4631.35   6
   1  -1   1 399488. 4137.93   1
   1  -1   2 66347.9 2265.62   6
   1  -1   2 67378.8 1601.41   1
   1  -1   3 166741. 2414.54   1
   1  -1   3 166211. 4146.59   6
   1  -1   4 26643.9 1862.01   6
   1  -1   4 26446.7 988.156   1
   1  -1   5 79681.9 1763.19   1
   1  -1   5 80601.6 2003.86   4
   1  -1   6 21666.1 924.472   1
   1  -1   6 20363.8 2151.78   3
   1  -1   6 22431.0 1085.56   4
   1  -1   7 708.501 174.596   1
   1  -1   7 685.255 580.399   3
   1  -1   7 697.013 188.949   4
   1  -1   8 63808.5 4491.12   3
   1  -1   9 21528.4 2841.96   3
   1  -1  10-397.991 702.794   3
   1   0 -10 12115.7 1774.13   6
   1   0  -9 557.835 499.999   6
   1   0  -8-192.353 307.091   6
   1   0  -7 38735.4 2547.49   6
   1   0  -7 36186.5 1797.58   4
   1   0  -6 45774.8 2524.12   6
   1   0  -6 56356.1 2167.00   4
   1   0  -5 8418.96 804.362   4
   1   0  -5 8090.27 952.191   6
   1   0  -4 8162.02 855.704   6
   1   0  -4 8617.76 760.236   4
   1   0  -3 198121. 3534.88   6
   1   0  -3 194439. 3365.54   4
   1   0  -2 735370. 5439.51   6
   1   0  -2 724981. 6094.21   4
   1   0  -1 243425. 3320.94   1
   1   0   1 3426.15 371.911   1
   1   0   2 16459.7 830.242   1
   1   0   2 18490.5 1070.97   6
   1   0   3 11422.7 1000.19   6
   1   0   3 9961.02 700.459   1
   1   0   4 87590.8 3160.34   6
   1   0   4 84197.7 2175.36   1
   1   0   4 84035.0 2298.47   4
   1   0   5 62784.2 2979.15   6
   1   0   5 57215.6 1948.87   1
   1   0   5 60173.8 2071.33   4
   1   0   6 18623.2 2017.67   3
   1   0   6 21565.4 1264.10   1
   1   0   6 21284.7 1306.65   4
   1   0   7-231.701 177.911   1
   1   0   7 75.6412 495.388   3
   1   0   7 878.286 272.557   4
   1   0   8 20682.3 1330.85   1
   1   0   8 17463.1 2342.59   3
   1   0   9 4720.47 1400.79   3
   1   0  10 15160.8 2498.87   3
   1   1 -10 8481.85 1592.37   6
   1   1  -9-194.896 330.901   6
   1   1  -8 128.398 372.029   6
   1   1  -7 16391.9 1780.08   6
   1   1  -6 108924. 2180.74   4
   1   1  -6 108225. 4232.16   6
   1   1  -5 10969.5 680.183   4
   1   1  -5 10047.4 1189.37   6
   1   1  -4 40938.4 2137.33   6
   1   1  -4 44028.1 1315.80   4
   1   1  -3 2308.09 511.716   6
   1   1  -3 3135.09 341.654   4
   1   1  -2 20744.0 1213.83   6
   1   1  -2 19483.1 896.740   1
   1   1  -1 311306. 3488.10   1
   1   1   1 141055. 2608.39   1
   1   1   2 746962. 6635.02   1
   1   1   2 759961. 6690.25   6
   1   1   3 43651.0 1759.63   4
   1   1   3 45338.2 1781.69   1
   1   1   3 43425.5 1880.21   6
   1   1   4 162337. 4104.45   6
   1   1   4 168834. 3719.93   1
   1   1   4 168267. 3703.82   4
   1   1   5 41884.1 2315.49   6
   1   1   5 39893.4 1944.17   4
   1   1   5 40125.9 1942.02   1
   1   1   6 716.722 334.785   1
   1   1   6 467.177 291.249   4
   1   1   7 28157.1 2643.66   3
   1   1   7 26697.0 1783.40   1
   1   1   7 27316.8 1812.61   4
   1   1   8 4455.93 762.543   1
   1   1   8 3787.34 1142.07   3
   1   1   9 2528.38 1088.18   3
   1   1  10 24781.6 3112.02   3
   1   1  11 3311.03 1350.89   3
   1   2 -11 7827.42 1743.31   6
   1   2 -10 1819.62 907.816   6
   1   2  -9 3877.98 1143.62   6
   1   2  -8 6533.06 1290.15   6
   1   2  -7 28670.4 2527.19   6
   1   2  -6 59290.5 3370.15   6
   1   2  -5 4480.75 903.488   6
   1   2  -4 14383.3 1437.83   6
   1   2  -3 56734.8 2615.92   6
   1   2  -3 53705.1 1103.46   4
   1   2  -3 56199.2 1408.08   1
   1   2  -2 41942.7 1290.12   1
   1   2  -1 551108. 5103.27   1
   1   2   0 283569. 4040.00   1
   1   2   1 58422.2 2011.29   1
   1   2   2 473743. 6169.21   1
   1   2   3 496555. 6443.52   6
   1   2   4 200453. 4583.13   4
   1   2   4 188662. 4387.29   6
   1   2   5 90589.0 3367.62   6
   1   2   5 87964.4 3242.39   4
   1   2   6 4097.31 758.400   4
   1   2   6 4052.60 757.932   1
   1   2   7 73286.4 4202.11   3
   1   2   7 70510.9 3234.40   4
   1   2   7 69524.1 3222.94   1
   1   2   8 418.395 365.269   1
   1   2   8 201.545 435.507   3
   1   2   9 9127.42 1787.57   3
   1   2   9 9344.87 1285.48   1
   1   2  10 27769.7 3241.08   3
   1   2  11 6925.44 1780.55   3
   1   3 -10-71.4962 325.923   6
   1   3  -9 806.311 580.588   6
   1   3  -8 7233.22 1470.50   6
   1   3  -7 18353.3 2189.87   6
   1   3  -6 22389.6 2234.60   6
   1   3  -5 95047.3 4319.80   6
   1   3  -4 30830.9 2323.21   6
   1   3  -3 1161.88 219.625   1
   1   3  -3 1602.66 497.703   3
   1   3  -3 1439.95 212.368   4
   1   3  -2 59177.2 2690.12   3
   1   3  -2 59208.7 1759.99   1
   1   3  -2 62374.3 1720.10   4
   1   3  -1 174665. 4002.84   3
   1   3  -1 177970. 3408.99   1
   1   3  -1 174973. 3269.60   4
   1   3   0 4363.94 604.458   1
   1   3   0 3678.37 521.257   4
   1   3   2 20034.9 1359.67   5
   1   3   3 303468. 3669.96   2
   1   3   4 145227. 4015.36   6
   1   3   4 148344. 4415.13   4
   1   3   5 25931.3 1802.80   6
   1   3   5 26903.1 1995.04   4
   1   3   7 27735.3 2500.04   3
   1   3   8 2888.58 763.258   1
   1   3   8 2325.97 807.206   3
   1   3   9 11671.4 1577.97   1
   1   3   9 13516.5 2064.48   3
   1   3  10 10237.6 2033.99   3
   1   3  11 8553.05 1977.40   3
   1   4  -9 88.3265 345.596   6
   1   4  -8 11119.0 1865.27   6
   1   4  -7 10743.8 1764.16   6
   1   4  -6 719.996 513.078   6
   1   4  -5 39912.7 3032.05   6
   1   4  -4 56191.1 3465.72   6
   1   4  -3 60698.2 1795.82   1
   1   4  -3 59559.9 1719.63   4
   1   4  -2 417720. 7568.56   3
   1   4  -2 411226. 5495.93   1
   1   4  -2 411705. 5393.99   4
   1   4  -1 963.694 342.224   3
   1   4  -1 142.581 161.080   1
   1   4  -1 744.165 265.160   4
   1   4   0 13870.0 1172.54   4
   1   4   0 14998.3 1238.66   1
   1   4   2 12602.1 1190.51   5
   1   4   3 223567. 5165.34   5
   1   4   4 91798.9 3389.82   6
   1   4   4 92545.5 2520.79   2
   1   4   5 357.585 372.429   6
   1   4   5 355.919 288.588   2
   1   4   6 103273. 3702.78   2
   1   4   7 6639.61 1211.46   3
   1   4   8 28823.3 2712.38   3
   1   4   9 9590.35 1583.75   1
   1   4   9 9966.44 1770.97   3
   1   4  10 3066.77 1121.07   3
   1   4  10 1254.55 611.167   1
   1   4  11 5037.46 1498.23   3
   1   4  11 4829.53 1307.34   2
   1   5  -8 8485.61 1770.26   6
   1   5  -7 3229.19 1053.55   6
   1   5  -6 244.858 560.543   6
   1   5  -5 5193.22 1212.51   6
   1   5  -4 19948.4 901.076   1
   1   5  -4 20111.8 2241.75   6
   1   5  -4 19045.0 803.782   4
   1   5  -3 66708.4 3826.70   6
   1   5  -3 69407.7 2276.66   1
   1   5  -3 69754.7 2250.39   4
   1   5  -2 199491. 5513.08   3
   1   5  -2 186645. 4255.54   1
   1   5  -2 193423. 4256.86   4
   1   5  -1 22196.4 1612.56   3
   1   5  -1 25356.0 1691.85   4
   1   5  -1 23686.7 1650.03   1
   1   5   0 107352. 3063.97   3
   1   5   0 113720. 3801.36   4
   1   5   1 57670.7 2854.65   4
   1   5   3 35831.2 2226.62   5
   1   5   4 38271.6 2409.94   5
   1   5   6 9493.63 1088.28   2
   1   5   7 1494.75 596.000   3
   1   5   7 1627.84 561.043   2
   1   5   8 29627.7 2665.70   3
   1   5   8 30682.8 2456.32   2
   1   5   9 20513.6 2440.97   3
   1   5   9 17006.2 2000.82   2
   1   5  10 1869.47 855.453   3
   1   5  10 982.105 594.305   1
   1   5  10 712.824 538.993   2
   1   5  11 4330.28 1357.58   3
   1   5  12 3878.85 1433.66   3
   1   6  -7 2030.16 926.250   6
   1   6  -6 2626.13 996.036   6
   1   6  -5-1207.76 713.978   6
   1   6  -4 929.788 620.144   6
   1   6  -4 1088.28 262.200   1
   1   6  -3 93705.3 3016.21   1
   1   6  -3 89431.0 2954.12   4
   1   6  -3 87939.1 4765.39   6
   1   6  -2 6773.08 900.303   4
   1   6  -2 6217.55 881.817   1
   1   6  -2 7694.27 1371.18   6
   1   6  -1 2127.03 536.150   4
   1   6  -1 2115.79 522.651   1
   1   6  -1 2400.18 583.844   3
   1   6   0 40251.0 1964.71   3
   1   6   1 94644.9 2501.92   3
   1   6   6 896.000 426.066   3
   1   6   7 12004.1 1499.43   3
   1   6   8 8845.68 1443.35   3
   1   6   8 10840.2 1437.25   2
   1   6   9 3198.01 1001.91   3
   1   6  10 1050.62 639.450   1
   1   6  11 4851.81 1367.04   1
   1   7  -6 8291.46 1826.10   6
   1   7  -5 405.416 514.711   6
   1   7  -4 15200.1 2214.50   6
   1   7  -3 74424.2 2988.87   1
   1   7  -3 66689.3 4454.79   6
   1   7  -2-32.6390 291.251   6
   1   7  -2 740.653 400.972   1
   1   7  -1-513.139 358.111   1
   1   7   0 3113.52 773.946   1
   1   7   1 8773.63 774.701   3
   1   7   2 36027.0 1168.04   3
   1   7   4 45266.6 1587.81   3
   1   7   5 104790. 3016.21   3
   1   7   6 13538.2 1312.59   3
   1   7  10 6445.01 1577.20   1
   1   7  11-4481.18 1359.73   1
   1   8  -5 207.742 539.344   6
   1   8  -4 19565.1 2701.25   6
   1   8  -3 26503.0 3024.48   6
   1   8  -2 20485.4 1919.01   1
   1   8  -2 22898.9 2707.79   6
   1   8  -1 26510.0 2800.77   6
   1   8  -1 28290.6 2381.98   1
   1   8   0 8214.31 1346.72   1
   1   9  -4 16917.7 2644.43   6
   1   9  -3 236.457 354.629   6
   1   9  -2 4710.20 999.348   1
   1   9  -2 3517.14 1161.92   6
   1   9  -1 15618.9 1916.79   1
   1   9  -1 14023.7 2190.32   6
   1   9   0 27884.5 2659.33   1
   1   9   1 47984.2 3604.70   1
   1  10  -2 7268.91 1700.74   6
   1  10  -1 11087.7 1764.97   1
   1  10  -1 9259.49 1864.30   6
   1  10   0 3546.51 1136.54   6
   1  10   0 2567.08 816.418   1
   1  10   1 7416.78 1516.58   1
   1  10   2 4195.38 1145.08   1
   1  11   0 10722.3 2068.29   6
   1  11   0 15228.9 2244.32   1
   1  11   1 5203.71 1415.85   6
   1  11   1 7749.24 1666.20   1
   1  11   2 806.980 726.297   1
   1  11   3 581.845 567.640   1
   1  12   1-160.571 468.855   1
   2 -11   0 1253.36 883.845   4
   2 -10  -3 4876.22 1438.66   4
   2 -10  -2 5688.21 1525.63   4
   2 -10  -1 4116.29 1373.76   4
   2 -10   0 3385.67 1181.05   4
   2 -10   1-18.5994 421.482   4
   2  -9  -5-188.491 472.017   4
   2  -9  -4 2001.13 1047.88   4
   2  -9  -3 47363.5 4157.29   4
   2  -9  -2 23858.0 2936.06   4
   2  -9  -1 11458.3 1969.84   4
   2  -9   0 994.873 687.850   4
   2  -9   1 4276.43 1159.11   4
   2  -9   2 11361.0 1798.04   4
   2  -8  -7 12173.4 2220.18   4
   2  -8  -6 8594.25 1820.35   4
   2  -8  -5 675.307 587.523   4
   2  -8  -4 834.690 654.467   4
   2  -8  -3 7538.03 1626.21   4
   2  -8  -2 7628.82 1618.93   4
   2  -8  -1 32463.2 3094.79   4
   2  -8   0 28932.7 2859.91   4
   2  -8   1 38906.8 2349.43   5
   2  -8   1 34793.7 3027.66   4
   2  -8   2 15208.0 1971.32   4
   2  -7  -9 4111.47 1364.71   4
   2  -7  -8 2499.17 1153.95   4
   2  -7  -7 5272.65 1509.68   4
   2  -7  -6 3106.73 1071.90   4
   2  -7  -5 5353.58 1376.92   4
   2  -7  -4 41400.0 3560.75   4
   2  -7  -3 14053.0 2043.09   4
   2  -7  -2 17288.6 2167.97   4
   2  -7  -1 480.458 422.465   4
   2  -7   0-123.308 481.660   4
   2  -7   0 696.567 310.471   5
   2  -7   1 35695.0 1720.06   3
   2  -7   1 34293.9 2811.70   4
   2  -7   2 61030.4 2811.20   3
   2  -7   2 61619.2 3667.25   4
   2  -7   3 44575.7 2792.84   3
   2  -7   3 39817.3 2816.80   4
   2  -7   4 18260.2 2001.82   3
   2  -7   5 1236.04 597.811   3
   2  -7   6 5051.43 1285.31   3
   2  -7   7 2369.70 992.393   3
   2  -7   8 5226.87 1508.32   3
   2  -6 -10 8487.17 1878.58   4
   2  -6  -9 6794.74 1575.91   4
   2  -6  -8 16530.1 2426.11   4
   2  -6  -7 9588.08 1765.44   4
   2  -6  -6 195.147 587.375   4
   2  -6  -5 12147.6 1880.51   4
   2  -6  -4 29264.9 2809.20   4
   2  -6  -3 3062.36 899.800   4
   2  -6  -2 22963.4 2353.23   4
   2  -6  -1 36179.0 2863.75   4
   2  -6   0 65741.4 1882.16   3
   2  -6   0 66132.5 2182.40   5
   2  -6   0 64837.2 3685.41   4
   2  -6   1 16936.0 1252.24   3
   2  -6   1 17534.1 1864.61   4
   2  -6   2 620.813 362.577   4
   2  -6   2 242.503 262.922   3
   2  -6   3 8213.73 1210.05   4
   2  -6   3 8925.40 1245.59   3
   2  -6   4 28609.1 2495.58   3
   2  -6   4 26657.9 2066.47   4
   2  -6   5 16072.6 2036.96   3
   2  -6   6 8678.55 1647.91   3
   2  -6   7 14609.1 2311.60   3
   2  -6   8 9475.00 2026.57   3
   2  -5 -10 2571.26 1029.91   4
   2  -5  -9 6579.44 1500.20   4
   2  -5  -8 21860.1 2580.77   4
   2  -5  -7 11776.5 1831.60   4
   2  -5  -6 3881.69 1062.02   4
   2  -5  -5 75915.2 4368.94   4
   2  -5  -4 47048.0 3345.22   4
   2  -5  -3 16740.1 1162.46   3
   2  -5  -3 16470.3 1937.61   4
   2  -5  -2 10102.9 1465.07   4
   2  -5  -2 13790.2 871.137   3
   2  -5  -1 5029.37 1004.53   4
   2  -5   0 59721.0 1775.68   5
   2  -5   0 58645.6 3287.89   4
   2  -5   1 109197. 4334.88   4
   2  -5   2 80663.6 3579.75   4
   2  -5   3 42351.5 2498.28   4
   2  -5   4 192.328 268.858   4
   2  -5   4 661.441 398.899   3
   2  -5   5 670.401 315.490   4
   2  -5   5 435.601 412.534   3
   2  -5   6-427.056 515.762   3
   2  -5   7 35679.2 3434.19   3
   2  -5   8 15984.6 2488.96   3
   2  -5   9 8088.53 1943.25   3
   2  -4  -9 5579.51 1268.99   4
   2  -4  -8 19276.3 2318.60   4
   2  -4  -7 4198.65 1070.54   4
   2  -4  -6 13452.0 1791.18   4
   2  -4  -5 86146.1 4391.40   4
   2  -4  -4 83230.8 3307.90   3
   2  -4  -4 81943.2 4078.99   4
   2  -4  -3 89203.8 2969.30   3
   2  -4  -3 91494.8 4169.82   4
   2  -4  -2 1362.61 602.558   4
   2  -4  -1 44783.3 2717.99   4
   2  -4   0 88060.3 1708.63   5
   2  -4   0 91356.8 3768.08   4
   2  -4   1 3332.78 684.134   4
   2  -4   2 18874.2 1608.38   4
   2  -4   3 55045.2 2626.11   4
   2  -4   4 85853.2 3138.00   4
   2  -4   5 24897.8 1603.24   4
   2  -4   6-74.1328 370.148   3
   2  -4   7 755.932 608.404   3
   2  -4   8 2951.65 1107.74   3
   2  -4   9 7231.49 1802.59   3
   2  -3  -9 294.139 376.229   4
   2  -3  -8-11.1194 310.624   4
   2  -3  -7 862.817 535.119   4
   2  -3  -6 52268.5 3258.01   4
   2  -3  -5 65259.4 3514.28   4
   2  -3  -4 83256.6 3471.20   3
   2  -3  -4 82596.3 3855.14   4
   2  -3  -3 27088.9 1753.40   3
   2  -3  -3 27313.3 2125.86   4
   2  -3  -2 25342.6 1978.69   4
   2  -3  -1 8432.65 1107.20   4
   2  -3   0 175438. 4781.38   4
   2  -3   1 186194. 4513.71   6
   2  -3   1 186703. 4825.53   4
   2  -3   2 171696. 4421.70   4
   2  -3   2 191779. 5072.66   6
   2  -3   3 20629.5 1483.23   4
   2  -3   4 7468.48 866.183   4
   2  -3   5 10806.4 1015.80   4
   2  -3   6 63356.9 2239.01   4
   2  -3   7 2620.08 892.192   3
   2  -3   8 4454.33 1265.27   3
   2  -3   9 4679.92 1409.70   3
   2  -3  10 54.1340 493.215   3
   2  -2  -8 2104.57 528.617   6
   2  -2  -8 2032.35 704.595   4
   2  -2  -7 4322.14 664.816   6
   2  -2  -7 3974.33 880.390   4
   2  -2  -6 18225.1 1173.99   6
   2  -2  -6 22076.3 1971.95   4
   2  -2  -5 12128.6 1407.81   4
   2  -2  -4 35255.6 2353.05   3
   2  -2  -4 36461.5 2360.11   4
   2  -2  -3 4288.36 773.198   4
   2  -2  -3 4014.13 734.829   3
   2  -2  -2 130240. 4079.41   4
   2  -2  -1 22385.9 1661.52   4
   2  -2   0 8853.86 737.419   6
   2  -2   0 9180.32 1026.45   4
   2  -2   1 117640. 3507.47   4
   2  -2   1 114542. 3135.92   6
   2  -2   2 57202.7 2505.69   6
   2  -2   2 55360.1 2320.10   4
   2  -2   3 194406. 5132.34   6
   2  -2   4 143309. 3275.70   1
   2  -2   5 70393.8 2163.36   1
   2  -2   8 7691.19 1624.79   3
   2  -2   9 24560.6 3060.63   3
   2  -2  10-17.3270 549.586   3
   2  -1  -8 1395.59 509.224   6
   2  -1  -8 1399.17 490.280   4
   2  -1  -7 63254.4 2815.11   6
   2  -1  -7 64156.9 3147.56   4
   2  -1  -6 114618. 3380.50   6
   2  -1  -6 118641. 4170.47   4
   2  -1  -5 99023.6 2727.64   6
   2  -1  -5 102250. 3706.73   4
   2  -1  -4 3428.28 702.076   4
   2  -1  -4 3730.74 433.256   6
   2  -1  -3 3467.16 302.092   6
   2  -1  -3 2898.81 596.649   4
   2  -1  -3 4157.98 776.301   3
   2  -1  -2 64076.9 2615.88   4
   2  -1  -1 98070.3 3131.30   4
   2  -1   0 62706.5 1646.98   6
   2  -1   0 62699.7 2383.13   1
   2  -1   1 200811. 3665.05   6
   2  -1   1 199460. 4084.59   1
   2  -1   2 81400.2 2745.42   6
   2  -1   2 83251.4 2570.09   1
   2  -1   3 31958.7 1937.34   6
   2  -1   3 32373.6 1572.18   1
   2  -1   4 5188.82 631.197   1
   2  -1   5 128931. 3091.10   1
   2  -1   6 98851.5 2705.18   1
   2  -1   7 33602.5 1533.99   1
   2  -1   7 33725.7 1763.11   4
   2  -1   8 11079.7 1927.52   3
   2  -1   9 4796.89 1368.78   3
   2  -1  10 5720.36 1655.13   3
   2   0  -9 3008.34 816.494   6
   2   0  -8 112.495 258.804   6
   2   0  -7 9702.40 1235.24   6
   2   0  -7 4678.55 761.921   4
   2   0  -6 47153.2 2342.01   4
   2   0  -6 46259.1 2419.21   6
   2   0  -5 75887.6 2793.30   6
   2   0  -5 76650.0 2888.76   4
   2   0  -4 65194.0 2275.56   6
   2   0  -4 63988.2 2554.78   4
   2   0  -3 174911. 3186.88   6
   2   0  -3 175049. 4102.51   4
   2   0  -2 127974. 3371.02   4
   2   0  -1 185335. 3978.24   1
   2   0   0 17426.9 1199.79   1
   2   0   0 17455.5 878.680   6
   2   0   1 22256.0 1321.82   1
   2   0   1 20082.3 1101.75   6
   2   0   1 22048.1 1103.28   5
   2   0   2 109807. 2991.47   6
   2   0   2 100092. 2811.34   1
   2   0   3 56033.1 2425.12   6
   2   0   3 58151.2 2166.87   1
   2   0   4 78897.9 2594.49   1
   2   0   4 75675.9 3118.51   6
   2   0   5 83647.3 2760.00   1
   2   0   6 424.746 240.166   1
   2   0   6 343.192 231.532   4
   2   0   7 22319.7 1507.26   1
   2   0   7 20940.6 1548.67   4
   2   0   8 24196.6 1572.71   1
   2   0   9-220.115 556.233   3
   2   0  10 27678.8 3338.37   3
   2   0  11 13736.3 2524.81   3
   2   1  -9 484.112 411.489   6
   2   1  -8 11043.6 1536.07   6
   2   1  -7 5258.75 981.738   6
   2   1  -7 5330.23 638.385   4
   2   1  -6 35343.1 2363.65   6
   2   1  -6 36790.9 1742.56   4
   2   1  -5 7984.81 1039.46   6
   2   1  -5 9006.31 883.915   4
   2   1  -4 9845.09 1046.12   6
   2   1  -4 11320.2 948.969   4
   2   1  -3 115041. 3022.44   4
   2   1  -3 110003. 3162.03   6
   2   1  -2 254006. 4571.51   1
   2   1  -1 166707. 3609.30   1
   2   1   0 217501. 4138.03   1
   2   1   0 210479. 3784.81   2
   2   1   1 69973.6 2207.80   6
   2   1   1 66823.5 2342.74   1
   2   1   2 215466. 4172.64   6
   2   1   2 216400. 4329.23   1
   2   1   3 76592.8 2795.47   6
   2   1   3 78754.1 2689.95   1
   2   1   4 143630. 4231.72   6
   2   1   4 143422. 3767.67   1
   2   1   5 77227.5 2877.32   1
   2   1   5 76082.7 2979.30   4
   2   1   6 17045.0 1412.18   1
   2   1   6 18924.6 1544.43   4
   2   1   7 40139.2 2261.87   1
   2   1   7 41181.4 2384.98   4
   2   1   8 3706.92 716.698   1
   2   1   9 9107.88 1800.93   3
   2   1  10 29956.0 3430.77   3
   2   1  11 8971.88 2086.04   3
   2   2  -9 516.171 594.175   6
   2   2  -8 17148.7 2039.14   6
   2   2  -7 4235.84 979.141   6
   2   2  -6-151.901 280.034   6
   2   2  -6 69.6904 80.7578   4
   2   2  -5 7796.69 1134.49   6
   2   2  -5 8619.77 691.954   4
   2   2  -4 48651.4 2664.18   6
   2   2  -4 47840.2 1729.41   4
   2   2  -3 65872.4 2285.26   1
   2   2  -3 69004.3 2910.01   6
   2   2  -2 89118.0 2633.43   1
   2   2  -1 177297. 3781.65   1
   2   2   0 242752. 4568.80   1
   2   2   1 28332.5 1622.23   1
   2   2   1 30403.2 1127.54   2
   2   2   2 32538.2 1789.05   1
   2   2   3 101254. 3312.86   6
   2   2   3 107779. 3407.51   1
   2   2   4 232279. 5338.87   6
   2   2   4 232066. 5203.00   1
   2   2   4 234241. 5380.11   4
   2   2   5 47737.5 2484.14   1
   2   2   5 48192.6 2537.95   4
   2   2   6 52322.9 2723.33   1
   2   2   6 50975.9 2717.68   4
   2   2   7 78232.0 3461.14   1
   2   2   8 2854.99 689.436   1
   2   2   9 5877.25 1450.67   3
   2   2   9 6041.94 1038.45   1
   2   2  10 2975.53 1075.45   3
   2   2  11 3756.77 1400.05   3
   2   3 -10-623.972 564.007   6
   2   3  -9 8183.53 1604.88   6
   2   3  -8 19974.7 2403.93   6
   2   3  -7 41068.8 3214.73   6
   2   3  -6 184.465 359.700   6
   2   3  -5 540.013 436.297   6
   2   3  -4 14081.2 1598.62   6
   2   3  -4 14744.0 876.646   4
   2   3  -3 25243.8 1388.76   1
   2   3  -3 26466.2 2033.32   6
   2   3  -2 79317.9 2565.03   1
   2   3  -1 111259. 3172.93   1
   2   3   0 8999.07 953.547   1
   2   3   1 239668. 5038.81   1
   2   3   2 2004.52 508.590   1
   2   3   3 172374. 4755.95   1
   2   3   4 119045. 4005.42   6
   2   3   4 118774. 4082.95   4
   2   3   4 114655. 4050.87   1
   2   3   5 3815.75 761.297   1
   2   3   6 62151.2 3252.96   1
   2   3   7 41402.9 2756.36   1
   2   3   8 3721.78 875.714   1
   2   3   9 58602.5 4352.45   3
   2   3   9 62854.4 3664.27   1
   2   3  10 3394.77 1194.28   3
   2   3  11 2066.40 997.961   3
   2   4  -9 7497.34 1622.88   6
   2   4  -8 12568.6 2041.25   6
   2   4  -7 23740.6 2624.43   6
   2   4  -6 5611.65 1234.59   6
   2   4  -5 10674.6 1630.51   6
   2   4  -4 51875.4 1554.40   4
   2   4  -4 52924.1 3356.26   6
   2   4  -4 52333.8 1901.70   1
   2   4  -3 29864.9 1562.09   1
   2   4  -3 30862.3 1477.39   4
   2   4  -3 31292.8 2479.68   6
   2   4  -2 29215.1 1673.13   1
   2   4  -2 30068.5 1619.64   4
   2   4  -1 10759.6 1089.13   1
   2   4  -1 11931.6 1100.22   4
   2   4   0 14144.5 1282.82   1
   2   4   0 14078.1 1264.70   4
   2   4   1 48440.1 2448.47   4
   2   4   1 46505.2 2446.80   1
   2   4   2 1311.56 499.419   1
   2   4   3 12128.5 1383.92   1
   2   4   4 106562. 2035.03   2
   2   4   4 102646. 4133.87   1
   2   4   5 88818.1 4004.26   1
   2   4   6 107636. 4606.94   1
   2   4   7 636.318 484.895   1
   2   4   8 10489.1 1618.80   1
   2   4   9 32783.3 3180.93   3
   2   4   9 36042.4 3003.93   1
   2   4  10 3465.78 975.508   1
   2   4  10 3910.06 1183.27   3
   2   4  11 1512.44 931.845   3
   2   5  -8 1776.11 879.132   6
   2   5  -7 1453.59 765.157   6
   2   5  -6 7211.34 1505.98   6
   2   5  -5 5063.03 1198.29   6
   2   5  -4 22326.9 1276.62   1
   2   5  -4 22772.5 1103.90   4
   2   5  -4 22861.7 2397.27   6
   2   5  -3 115425. 3330.78   1
   2   5  -3 117882. 3178.01   4
   2   5  -2 132979. 3852.26   1
   2   5  -2 132240. 3732.74   4
   2   5  -1 17760.3 1515.28   1
   2   5  -1 19848.9 1555.16   4
   2   5   0 41743.9 2400.35   1
   2   5   0 49256.0 2562.46   4
   2   5   1 4969.85 885.006   1
   2   5   1 7020.92 1016.70   4
   2   5   2 87652.8 3820.39   1
   2   5   3 23.9977 344.233   1
   2   5   4 11637.8 1512.90   1
   2   5   5 49233.8 1632.53   2
   2   5   5 46993.3 3141.61   1
   2   5   6 59668.0 2333.01   2
   2   5   6 58076.0 3621.38   1
   2   5   7 5065.16 1125.24   1
   2   5   7 6465.05 922.780   2
   2   5   8 68016.5 3349.94   2
   2   5   8 62081.6 4052.13   1
   2   5   9 14257.0 2128.34   3
   2   5   9 17427.5 1888.47   2
   2   5  10 6584.72 1569.11   3
   2   5  10 2044.58 826.597   1
   2   5  11 800.877 755.911   3
   2   5  12 1664.33 1072.05   3
   2   6  -7 522.978 567.627   6
   2   6  -6 777.782 593.497   6
   2   6  -5 569.164 555.203   6
   2   6  -4 179.869 390.754   6
   2   6  -4 478.820 223.641   1
   2   6  -3 29453.7 2812.83   6
   2   6  -3 30009.2 1835.80   1
   2   6  -3 33303.0 1864.64   4
   2   6  -2 39410.6 2292.89   1
   2   6  -2 43313.3 2352.84   4
   2   6  -1 59399.0 2949.90   1
   2   6  -1 55044.5 2811.56   4
   2   6   0 129926. 4616.18   1
   2   6   1 61282.0 3336.28   1
   2   6   2 97136.7 4328.84   1
   2   6   3 11307.4 1537.40   1
   2   6   4 301.552 390.343   1
   2   6   5 62199.4 3884.92   1
   2   6   6-806.439 509.905   1
   2   6   7 285.479 411.588   1
   2   6   7 990.224 355.773   2
   2   6   8 26553.0 2834.37   1
   2   6   9 9541.95 1721.20   1
   2   6   9 11134.9 1816.81   3
   2   6  10 6282.45 1479.85   3
   2   6  10 9425.50 1769.75   1
   2   6  11 4025.15 1235.86   1
   2   7  -6 9906.25 1979.16   6
   2   7  -5 10815.4 2024.33   6
   2   7  -4 244.534 516.180   6
   2   7  -3 796.239 591.967   6
   2   7  -3 683.907 350.738   1
   2   7  -2 106.612 288.667   1
   2   7  -1 11985.9 1444.49   1
   2   7   0 13487.7 1632.56   1
   2   7   0 13612.7 1411.14   3
   2   7   1 80586.9 4078.43   1
   2   7   2 92782.1 4532.92   1
   2   7   3 35870.6 2929.94   1
   2   7   4 11173.5 1709.81   1
   2   7   5 15605.0 2081.12   1
   2   7   6 3310.65 1026.12   1
   2   7   7 42329.8 3613.56   1
   2   7   8 8059.20 1673.24   1
   2   7   9 210.755 409.573   1
   2   7  10 1950.10 906.000   1
   2   7  11 2290.21 980.613   1
   2   8  -5 6157.76 1653.09   6
   2   8  -4 26035.0 3164.18   6
   2   8  -3 4269.79 1289.07   6
   2   8  -2 3149.91 1037.76   6
   2   8  -2 1483.40 555.110   1
   2   8  -1 9213.26 1424.20   1
   2   8   0 102.931 330.937   1
   2   8   1 5874.26 1207.95   1
   2   8   2 3563.46 1019.71   1
   2   8   3 10773.7 1714.29   1
   2   8   4 87040.8 4993.58   1
   2   8   5 3296.45 1080.54   1
   2   8   6 5931.20 1441.64   1
   2   8   7 29156.9 3202.76   1
   2   8   8 8733.48 1781.51   1
   2   8   9 4318.26 1193.24   1
   2   8  10 9103.40 1969.25   1
   2   9  -3 1497.11 762.826   6
   2   9  -2 5929.45 1495.81   6
   2   9  -1 19730.6 2143.24   1
   2   9   0 30859.0 2810.44   1
   2   9   1 19910.3 2343.95   1
   2   9   2 1002.83 456.224   1
   2   9   3-477.159 535.121   1
   2   9   4 5643.09 1388.44   1
   2   9   5 665.984 664.239   1
   2   9   6 16763.3 2498.28   1
   2   9   7 24328.1 3081.27   1
   2   9   8 10149.4 2044.71   1
   2  10  -2 1761.29 869.791   6
   2  10  -1-1726.69 860.924   6
   2  10   0 9952.75 1706.35   1
   2  10   1 13772.1 2082.42   1
   2  10   2 3913.15 1190.35   1
   2  10   3 27233.9 3075.47   1
   2  10   4 3727.10 1179.14   1
   2  10   5-153.135 582.942   1
   2  10   6-333.850 636.334   1
   2  10   7 233.215 534.087   1
   2  11   1 4865.50 1405.67   1
   2  11   2 3137.22 1097.38   1
   2  11   3 9336.17 1932.55   1
   2  11   4 897.303 699.539   1
   2  12   2 15567.3 2589.84   1
   3 -10  -1-400.392 746.345   4
   3 -10   0 1586.08 905.565   4
   3 -10   1 139.526 470.004   4
   3  -9  -4 19318.7 2895.82   4
   3  -9  -3 8721.72 1988.96   4
   3  -9  -2 2099.70 951.009   4
   3  -9  -1 6617.91 1537.74   4
   3  -9   0 1143.44 747.230   4
   3  -9   1 477.974 512.481   4
   3  -9   2 5926.26 1406.37   4
   3  -8  -6-1158.70 849.296   4
   3  -8  -5 1523.15 886.543   4
   3  -8  -4 8539.44 1838.97   4
   3  -8  -3 14112.4 2300.41   4
   3  -8  -2 25594.2 3006.44   4
   3  -8  -1 25712.7 2939.05   4
   3  -8   0-219.743 530.172   4
   3  -8   1 10448.2 1778.92   4
   3  -8   2 6876.63 1444.48   4
   3  -8   3 4202.54 1101.58   4
   3  -7  -7 4497.68 1414.85   4
   3  -7  -6 4562.34 1441.73   4
   3  -7  -5 21387.6 2778.61   4
   3  -7  -4 25728.2 2961.39   4
   3  -7  -3-1372.55 828.422   4
   3  -7  -2 443.809 583.139   4
   3  -7  -1 5241.67 1295.47   4
   3  -7   0 27273.7 2789.37   4
   3  -7   1 63221.7 4116.13   4
   3  -7   2 13835.4 1914.65   4
   3  -7   2 13977.0 1439.16   3
   3  -7   3 11040.8 1664.99   4
   3  -7   3 13210.0 1600.50   3
   3  -7   4 27656.4 2499.78   3
   3  -7   5-182.740 388.790   3
   3  -7   6-7.53515 458.596   3
   3  -7   7 1528.79 887.740   3
   3  -6  -9-916.948 756.015   4
   3  -6  -8 3665.74 1271.17   4
   3  -6  -7 2300.51 993.506   4
   3  -6  -6 3484.61 1148.10   4
   3  -6  -5 9649.92 1808.43   4
   3  -6  -4 30950.1 3106.53   4
   3  -6  -3 41434.4 3453.68   4
   3  -6  -2 30424.6 1563.69   3
   3  -6  -2 34012.1 3041.64   4
   3  -6  -1 3282.13 906.394   4
   3  -6   0 2889.64 837.287   4
   3  -6   1 11212.9 1649.53   4
   3  -6   2 18347.3 2076.93   4
   3  -6   3 54679.9 3434.34   4
   3  -6   4 50871.5 3221.50   4
   3  -6   5 9214.16 1623.51   3
   3  -6   6 2223.77 883.220   3
   3  -6   7 3091.43 1097.90   3
   3  -6   8 3304.86 1224.51   3
   3  -5  -9 929.018 892.800   4
   3  -5  -8 4836.93 1280.24   4
   3  -5  -7 3825.51 1226.43   4
   3  -5  -6 11363.4 1894.76   4
   3  -5  -5 28835.9 2896.37   4
   3  -5  -4 4480.79 1141.28   4
   3  -5  -4 9298.46 1185.05   3
   3  -5  -3 36024.2 2092.53   3
   3  -5  -3 34755.3 2974.99   4
   3  -5  -2 3946.05 1023.41   4
   3  -5  -1 4865.30 1099.09   4
   3  -5   0 82873.7 4255.68   4
   3  -5   1 10113.5 1463.24   4
   3  -5   2 977.738 518.587   4
   3  -5   3 25171.7 2182.19   4
   3  -5   4 13263.7 1576.00   4
   3  -5   5 31406.1 2295.39   4
   3  -5   6 15694.0 2180.01   3
   3  -5   7 17154.1 2470.49   3
   3  -5   8 6685.43 1632.20   3
   3  -5   9 3759.42 1321.13   3
   3  -4  -9 6387.48 1500.25   4
   3  -4  -8 2280.61 897.077   4
   3  -4  -7 4771.50 1207.22   4
   3  -4  -6 14525.9 2020.14   4
   3  -4  -5 36545.1 3069.54   4
   3  -4  -4 24250.9 2415.73   4
   3  -4  -3 131613. 5451.19   4
   3  -4  -2 20932.7 2137.73   4
   3  -4  -1 7743.44 1286.15   4
   3  -4   0 1925.24 667.757   4
   3  -4   1 12383.7 1332.08   6
   3  -4   1 11743.6 1491.04   4
   3  -4   2 65891.8 3428.08   4
   3  -4   3 46934.4 2837.82   4
   3  -4   4 786.352 361.271   4
   3  -4   5 5432.71 964.216   4
   3  -4   6 32204.0 2131.34   4
   3  -4   8 4474.85 1411.79   3
   3  -4   9 6663.20 1765.86   3
   3  -3  -8 423.757 491.736   4
   3  -3  -7 3611.79 982.260   4
   3  -3  -6 27167.1 2576.59   4
   3  -3  -5 13302.1 1738.57   4
   3  -3  -4 39371.4 2886.87   4
   3  -3  -3 15009.4 1751.37   4
   3  -3  -2 72973.9 3689.98   4
   3  -3  -1 248836. 6698.90   4
   3  -3   0 58581.8 2302.04   6
   3  -3   0 53752.4 3020.84   4
   3  -3   1 13884.7 1297.99   6
   3  -3   1 13620.6 1512.41   4
   3  -3   2 53425.5 2821.64   6
   3  -3   2 55052.7 2938.95   4
   3  -3   3 10984.8 1321.53   4
   3  -3   4 20845.9 1762.79   4
   3  -3   5 8664.35 1113.97   4
   3  -3   6 43184.9 2422.40   4
   3  -3   9 8885.38 1964.43   3
   3  -2  -8-26.1879 357.088   4
   3  -2  -7 781.526 346.199   4
   3  -2  -6 26055.1 2370.14   4
   3  -2  -5 5442.21 1077.11   4
   3  -2  -4 57467.6 3283.91   4
   3  -2  -3 208.789 271.136   4
   3  -2  -2 80145.2 3705.75   4
   3  -2  -1 134764. 2362.87   6
   3  -2  -1 127160. 4491.83   4
   3  -2   0 500.292 317.844   4
   3  -2   0 829.588 267.080   6
   3  -2   1 78967.4 2757.08   6
   3  -2   1 77105.4 1961.11   5
   3  -2   1 81004.9 3440.19   4
   3  -2   2 338637. 6432.57   6
   3  -2   2 317172. 6476.69   1
   3  -2   3 37580.4 2178.27   1
   3  -2   4 21017.3 1590.03   1
   3  -2   5 34643.5 1992.62   1
   3  -2   6 82066.0 2961.82   1
   3  -2   9 828.578 707.704   3
   3  -2  10 561.383 711.604   3
   3  -1  -7 9366.09 1363.15   4
   3  -1  -6 2854.71 772.536   4
   3  -1  -6 3817.73 538.256   6
   3  -1  -5 26706.0 1178.27   6
   3  -1  -5 30704.7 2307.75   4
   3  -1  -4 11472.7 586.287   6
   3  -1  -4 14205.3 1532.04   4
   3  -1  -3 10100.9 1261.47   4
   3  -1  -2 69346.1 3192.50   4
   3  -1  -1 169593. 2567.65   6
   3  -1  -1 175152. 4952.00   4
   3  -1   0 35562.7 1468.98   6
   3  -1   0 35431.9 2172.19   1
   3  -1   1 2907.64 507.701   6
   3  -1   1 3118.09 465.039   5
   3  -1   1 3346.55 673.751   1
   3  -1   2 1660.12 460.914   1
   3  -1   2 1705.41 442.722   6
   3  -1   3 35830.3 2073.79   1
   3  -1   3 38784.4 2295.85   6
   3  -1   4 67591.3 2834.62   1
   3  -1   5 207420. 4920.36   1
   3  -1   6 64837.0 2742.52   1
   3  -1   7 41192.1 2168.49   1
   3  -1  10 1978.81 872.381   3
   3   0  -7 28786.8 1989.00   6
   3   0  -7 31101.0 2234.53   4
   3   0  -6 4222.06 860.649   4
   3   0  -6 4262.03 694.633   6
   3   0  -5 35743.3 1817.52   6
   3   0  -5 36325.7 2329.62   4
   3   0  -4-166.210 257.021   4
   3   0  -4 96.8714 154.230   6
   3   0  -3 57517.5 1880.62   6
   3   0  -3 55177.7 2769.93   4
   3   0  -2 147874. 4389.20   4
   3   0  -1 68318.0 1948.53   6
   3   0  -1 68266.6 2970.39   1
   3   0   0 207631. 3693.35   6
   3   0   0 209260. 4980.92   2
   3   0   0 198700. 4937.98   1
   3   0   1 100282. 2859.38   6
   3   0   1 93678.9 2763.35   5
   3   0   1 94647.2 3381.41   1
   3   0   2 14796.2 1335.11   1
   3   0   2 13075.9 1173.30   6
   3   0   3 138.230 254.512   6
   3   0   3 243.491 235.980   1
   3   0   4 121.099 199.698   1
   3   0   5 102654. 3603.37   1
   3   0   6 43624.4 2386.25   1
   3   0   7 51948.6 2630.06   1
   3   0   8 50991.6 2627.55   1
   3   0  10 14710.9 2556.03   3
   3   1  -7 20501.6 1887.51   6
   3   1  -6 9754.27 1234.37   6
   3   1  -6 10495.1 1168.98   4
   3   1  -5 13923.9 1338.60   6
   3   1  -5 14486.5 1366.19   4
   3   1  -4 18103.0 1443.30   6
   3   1  -4 19964.1 1587.73   4
   3   1  -3 40615.6 1994.55   6
   3   1  -3 45657.7 2349.33   4
   3   1  -2 55463.9 2642.32   1
   3   1  -1 6882.57 933.272   1
   3   1   0 491423. 7596.30   1
   3   1   0 473485. 7188.63   2
   3   1   1 223760. 5218.20   1
   3   1   1 231431. 4654.35   6
   3   1   1 230852. 4768.79   5
   3   1   2 293.937 265.467   6
   3   1   2 403.238 227.478   5
   3   1   2 155.500 237.351   1
   3   1   3 449.561 258.927   6
   3   1   3 309.887 228.885   1
   3   1   4 132920. 4183.11   1
   3   1   5 20173.5 1676.32   1
   3   1   6 2262.56 600.078   1
   3   1   7 7189.20 1054.63   1
   3   1   8 20623.6 1820.54   1
   3   1  11 1715.24 1083.23   3
   3   2  -8 6118.37 1194.63   6
   3   2  -7 10818.7 1544.57   6
   3   2  -6 17006.9 1793.80   6
   3   2  -6 22291.9 1470.99   4
   3   2  -5 1313.31 412.484   4
   3   2  -5 1946.04 599.189   6
   3   2  -4 31342.7 2167.13   6
   3   2  -4 27109.2 1746.01   4
   3   2  -3 109364. 3681.66   1
   3   2  -2 94591.4 3364.12   1
   3   2  -1 79496.5 3065.48   1
   3   2   0 75080.9 3034.50   1
   3   2   1 75285.1 3082.67   1
   3   2   1 72505.1 2456.51   2
   3   2   2 23344.2 1664.03   6
   3   2   2 23129.9 1747.05   1
   3   2   3 7208.35 1148.31   1
   3   2   3 3715.20 717.009   6
   3   2   4 247472. 5957.73   1
   3   2   5 52810.6 2857.03   1
   3   2   6 31368.5 2270.88   1
   3   2   7 14023.8 1568.97   1
   3   2   8-142.236 267.577   1
   3   2   9 22238.7 2093.06   1
   3   2  11 1520.66 964.142   3
   3   3  -8 5722.45 1283.14   6
   3   3  -7 7536.07 1396.09   6
   3   3  -6 8112.53 1346.65   6
   3   3  -5 499.405 229.026   4
   3   3  -5 562.865 423.754   6
   3   3  -4 6250.77 1108.42   6
   3   3  -4 5398.03 811.690   1
   3   3  -4 7938.14 900.144   4
   3   3  -3 26026.2 1768.87   1
   3   3  -2 913.557 332.206   1
   3   3  -1 193580. 4948.89   1
   3   3   0 168615. 4674.14   1
   3   3   1 215718. 5459.98   1
   3   3   2 43310.3 2505.40   1
   3   3   2 47291.7 1625.21   2
   3   3   3 9300.49 1213.24   1
   3   3   4 16208.2 1615.93   1
   3   3   5 34555.8 2425.14   1
   3   3   6 36118.4 2568.13   1
   3   3   7 41389.4 2843.16   1
   3   3   8 12353.0 1630.93   1
   3   3   9 56477.4 3533.77   1
   3   3  10 3917.56 1007.36   1
   3   3  11-717.724 752.431   3
   3   4  -8 12239.0 2009.80   6
   3   4  -7 18158.5 2290.36   6
   3   4  -6 10759.2 1693.74   6
   3   4  -5 7981.79 1432.32   6
   3   4  -4 1740.68 642.296   6
   3   4  -4 1476.03 417.910   1
   3   4  -3 5452.33 831.377   1
   3   4  -2 9129.48 1095.14   1
   3   4  -1 20668.3 1683.31   1
   3   4   0 2696.67 663.471   1
   3   4   1 9813.28 1228.33   1
   3   4   2 175449. 5317.28   1
   3   4   3 292315. 7041.67   1
   3   4   4 8787.76 1273.70   1
   3   4   5 16350.5 1780.31   1
   3   4   6 23564.9 2201.33   1
   3   4   7 915.594 527.285   1
   3   4   8 26066.6 2488.40   1
   3   4   9 38805.8 3131.41   1
   3   4  10 14955.2 2000.34   1
   3   4  11 6210.68 1707.25   3
   3   5  -8 2410.66 904.403   6
   3   5  -7 6389.83 1481.16   6
   3   5  -6 11455.7 1919.27   6
   3   5  -5 52928.2 3905.76   6
   3   5  -4 25017.8 2539.68   6
   3   5  -4 23437.5 1656.41   1
   3   5  -3 177.002 261.872   1
   3   5  -3 49.8377 128.121   4
   3   5  -2 30944.3 2093.32   1
   3   5  -2 29778.0 1983.84   4
   3   5  -1 18895.5 1718.36   1
   3   5  -1 20147.6 1714.44   4
   3   5   0 34403.5 2380.58   1
   3   5   1 392.312 348.117   1
   3   5   2 21271.4 1974.67   1
   3   5   3 51367.6 3146.57   1
   3   5   4 2623.59 744.317   1
   3   5   5 20880.9 710.312   2
   3   5   5 23173.7 2266.95   1
   3   5   6 48762.7 3402.44   1
   3   5   7 2157.74 744.670   1
   3   5   8 51256.0 3699.38   1
   3   5   9 6910.39 1412.52   1
   3   5  10 7496.12 1492.41   1
   3   5  11 7296.10 1755.40   3
   3   5  11 4185.24 1175.77   1
   3   6  -7 579.079 553.310   6
   3   6  -6-321.541 442.998   6
   3   6  -5 17620.7 2423.73   6
   3   6  -4 26312.7 2833.43   6
   3   6  -3 13046.4 1379.25   1
   3   6  -3 13734.4 1962.46   6
   3   6  -2 51242.8 2861.04   1
   3   6  -1 24126.9 2024.06   1
   3   6   0 10375.4 1384.20   1
   3   6   1 20895.7 2011.49   1
   3   6   2 102600. 4576.94   1
   3   6   3 65214.4 3802.71   1
   3   6   4 8350.84 1455.81   1
   3   6   5 384.897 600.949   1
   3   6   6 1669.52 722.410   1
   3   6   7 19021.9 2360.46   1
   3   6   8 37545.5 3398.71   1
   3   6   9 7198.51 1555.02   1
   3   6  10 5467.13 1368.56   1
   3   6  11 2248.92 1187.14   3
   3   6  11 2132.06 900.840   1
   3   7  -6 2205.24 994.234   6
   3   7  -5 897.837 695.284   6
   3   7  -4 827.597 638.541   6
   3   7  -3 3014.51 1024.70   6
   3   7  -3 2597.15 706.332   1
   3   7  -2 2197.90 723.557   1
   3   7  -1 45253.6 2961.91   1
   3   7   0 22911.0 2176.14   1
   3   7   1 44851.3 3141.05   1
   3   7   2 21887.3 2292.93   1
   3   7   3 15146.3 1976.50   1
   3   7   4 58691.7 3984.15   1
   3   7   5 27799.6 2790.64   1
   3   7   6 40.1979 320.088   1
   3   7   7 29337.4 3083.70   1
   3   7   8 5552.61 1366.62   1
   3   7   9 4303.32 1225.67   1
   3   7  10-83.9529 396.790   1
   3   7  11 1543.23 797.841   1
   3   8  -4 7668.28 1787.02   6
   3   8  -3 12125.5 2208.46   6
   3   8  -2 465.115 391.486   1
   3   8  -1 166.739 309.386   1
   3   8   0 649.544 495.994   1
   3   8   1 40688.5 3144.95   1
   3   8   2 35799.3 3059.79   1
   3   8   3 25771.2 2717.69   1
   3   8   4 31459.1 3075.72   1
   3   8   5 368.609 340.196   1
   3   8   6 2042.69 930.753   1
   3   8   7 31162.0 3334.26   1
   3   8   8 10430.5 2020.84   1
   3   8   9 5236.51 1474.91   1
   3   8  10 1940.29 985.673   1
   3   9  -3 8719.80 1907.17   6
   3   9  -2 5652.95 1592.51   6
   3   9  -1 1397.69 543.348   1
   3   9   0 5308.12 1192.84   1
   3   9   1 4852.75 1200.91   1
   3   9   2 327.862 473.602   1
   3   9   3 8912.92 1723.56   1
   3   9   4 33256.0 3350.57   1
   3   9   5 8006.81 1701.20   1
   3   9   6 25348.7 3073.95   1
   3   9   7 1303.64 842.289   1
   3   9   8 1156.58 829.866   1
   3  10   0 5355.46 1248.30   1
   3  10   1 8295.81 1650.20   1
   3  10   2 5062.13 1305.38   1
   3  10   3 7724.73 1666.40   1
   3  10   4 558.193 593.802   1
   3  10   5 2849.83 1136.18   1
   3  10   6 24581.5 3196.15   1
   3  11   1 609.831 571.130   1
   3  11   2 3611.29 1228.73   1
   3  11   3 5555.44 1533.89   1
   3  11   4-360.607 643.997   1
   4  -9  -1 6043.36 1650.15   4
   4  -9   0-2959.02 1204.33   4
   4  -9   1-1151.05 829.003   4
   4  -9   2 3040.46 1088.92   4
   4  -8  -3 14046.4 2447.88   4
   4  -8  -2 10283.5 2051.09   4
   4  -8  -1 8047.85 1769.21   4
   4  -8   0 2284.08 947.609   4
   4  -8   1 5735.63 1437.90   4
   4  -8   2 3470.13 1189.43   4
   4  -8   3 3117.10 1072.20   4
   4  -7  -5 2851.42 1148.81   4
   4  -7  -4 1367.44 850.163   4
   4  -7  -3 19701.5 2711.06   4
   4  -7  -2 52215.2 4284.49   4
   4  -7  -1 9820.34 1899.75   4
   4  -7   0 3536.03 1073.05   4
   4  -7   1 17324.9 2346.92   4
   4  -7   2 2606.38 862.746   4
   4  -7   3 1169.86 654.646   4
   4  -6  -7 1043.23 744.812   4
   4  -6  -6 4412.62 1287.03   4
   4  -6  -5 6262.29 1525.87   4
   4  -6  -4 1101.75 759.393   4
   4  -6  -3 12070.9 2016.23   4
   4  -6  -2 25743.0 2858.09   4
   4  -6  -1-185.678 410.995   4
   4  -6   0 31594.4 3033.32   4
   4  -6   1 31157.9 2966.85   4
   4  -6   2 12595.3 1893.39   4
   4  -6   3 21681.2 2368.04   4
   4  -6   4 1860.84 693.602   4
   4  -6   7 2744.82 1063.46   3
   4  -6   8 7497.50 1755.71   3
   4  -5  -8 5104.87 1535.63   4
   4  -5  -7 2872.09 1066.70   4
   4  -5  -6 10359.2 1911.23   4
   4  -5  -5 1473.20 855.247   4
   4  -5  -4 52.2570 584.845   4
   4  -5  -3 26320.8 2817.15   4
   4  -5  -2 23079.3 2576.71   4
   4  -5  -1 3060.17 977.067   4
   4  -5   0 12662.6 1845.05   4
   4  -5   1 8579.71 1482.09   4
   4  -5   2 40522.1 3142.84   4
   4  -5   3 43711.5 3213.02   4
   4  -5   4 3884.77 1022.71   4
   4  -5   5 9275.79 1450.40   4
   4  -5   8 306.503 572.720   3
   4  -4  -8 1775.75 869.761   4
   4  -4  -7 4473.57 1313.84   4
   4  -4  -6 13719.1 2100.27   4
   4  -4  -5 19098.1 2398.38   4
   4  -4  -4 22242.5 2507.03   4
   4  -4  -3 24418.7 2577.80   4
   4  -4  -2 185.003 356.181   4
   4  -4  -1 51035.9 3539.22   4
   4  -4   0 22023.4 2284.39   4
   4  -4   1 734.178 641.193   4
   4  -4   2 11779.7 1636.75   4
   4  -4   3 8692.88 1371.87   4
   4  -4   4 8342.59 1377.22   4
   4  -4   5 35845.1 2706.06   4
   4  -4   6 33564.0 2579.84   4
   4  -4   9-2631.12 1202.06   3
   4  -3  -8 5098.15 1321.59   4
   4  -3  -7 8092.86 1618.26   4
   4  -3  -6 3002.26 920.653   4
   4  -3  -5 4605.32 1158.52   4
   4  -3  -4 42400.2 3303.56   4
   4  -3  -3 30613.5 2714.15   4
   4  -3  -2 20900.1 2212.40   4
   4  -3  -1 163274. 6052.77   4
   4  -3   0 44384.8 2106.62   6
   4  -3   0 45112.8 3122.66   4
   4  -3   1 19837.9 1633.98   6
   4  -3   1 18115.3 1963.13   4
   4  -3   2 38953.2 2833.81   4
   4  -3   3 2111.58 734.369   4
   4  -3   4 2731.62 753.521   4
   4  -3   5 3624.45 859.685   4
   4  -3   6 31409.7 2441.76   4
   4  -2  -8 11654.6 1835.40   4
   4  -2  -7 8575.87 1522.91   4
   4  -2  -6 2769.95 869.207   4
   4  -2  -5 5277.33 1179.03   4
   4  -2  -4 29994.4 2626.48   4
   4  -2  -3 2247.94 803.941   4
   4  -2  -2 21009.0 2119.05   4
   4  -2  -1 106692. 2399.43   6
   4  -2  -1 112606. 4786.21   4
   4  -2   0 208807. 4233.98   6
   4  -2   0 198616. 6305.88   4
   4  -2   1 148087. 4115.38   6
   4  -2   1 145634. 5273.31   4
   4  -2   2 39183.0 2349.55   6
   4  -2   2 37947.0 1827.60   5
   4  -2   2 36582.8 2573.43   1
   4  -2   3 6931.41 1117.73   1
   4  -2   4 32807.4 2344.06   1
   4  -2   5 12187.3 1415.89   1
   4  -2   6 7710.17 1108.95   1
   4  -2   7 362.887 289.385   1
   4  -1  -7 16989.4 2034.25   4
   4  -1  -6 6912.03 1283.03   4
   4  -1  -5 26483.5 2426.86   4
   4  -1  -4 11367.4 1566.90   4
   4  -1  -3 265.544 368.484   4
   4  -1  -2 30659.1 1004.43   6
   4  -1  -2 30546.5 2457.19   4
   4  -1  -1-33.7393 404.531   4
   4  -1  -1 299.223 143.180   6
   4  -1   0 58524.5 2175.35   6
   4  -1   0 55694.5 3156.84   1
   4  -1   1 283397. 5425.81   6
   4  -1   1 275736. 6957.77   1
   4  -1   2 28058.7 1918.28   6
   4  -1   2 28243.8 1697.48   5
   4  -1   2 28042.7 2179.05   1
   4  -1   3 31012.7 2269.28   1
   4  -1   4 46818.3 2795.21   1
   4  -1   5 83557.1 3688.68   1
   4  -1   6 69492.6 3350.79   1
   4  -1   7 2009.14 596.146   1
   4   0  -7 12875.1 1632.16   4
   4   0  -6 3434.14 852.213   4
   4   0  -5 28650.2 1527.27   6
   4   0  -5 32000.4 2510.26   4
   4   0  -4 3528.19 853.852   4
   4   0  -4 3251.71 483.509   6
   4   0  -3 37925.7 1580.65   6
   4   0  -3 42150.5 2786.12   4
   4   0  -2 55293.2 1913.64   6
   4   0  -2 55298.3 3136.21   4
   4   0  -1 6382.54 695.366   6
   4   0  -1 5788.22 1023.57   1
   4   0   0 31779.0 1664.50   6
   4   0   0 28925.0 2228.03   1
   4   0   1 112102. 4299.05   1
   4   0   1 109327. 3417.09   6
   4   0   2 3380.32 794.614   1
   4   0   2 3073.77 634.738   6
   4   0   2 3102.48 610.319   5
   4   0   3 17456.6 1689.85   1
   4   0   4 94731.7 3947.34   1
   4   0   5 118864. 4470.69   1
   4   0   6 18422.4 1776.24   1
   4   0   7 4950.41 952.941   1
   4   0   8 23202.8 1987.08   1
   4   1  -6 50669.9 2678.95   6
   4   1  -6 47895.8 2913.27   4
   4   1  -5 9164.05 1077.77   6
   4   1  -5 10546.2 1389.63   4
   4   1  -4 1615.17 594.275   4
   4   1  -4 948.238 351.912   6
   4   1  -3 34242.0 2393.51   4
   4   1  -2 22120.7 1963.80   1
   4   1  -1 46106.4 2778.81   1
   4   1   0 131799. 4631.28   1
   4   1   0 132912. 3778.87   6
   4   1   0 130796. 4462.65   2
   4   1   1 61366.0 3142.30   1
   4   1   1 66790.2 2792.21   6
   4   1   1 64022.6 2968.43   2
   4   1   2 60999.6 3155.31   1
   4   1   2 60532.1 2791.69   6
   4   1   2 59591.9 2844.44   5
   4   1   3 133.590 216.252   1
   4   1   3-116.961 206.236   5
   4   1   4 11339.5 1396.84   1
   4   1   5 48969.6 2929.55   1
   4   1   6 11742.8 1479.21   1
   4   1   7 13061.8 1578.90   1
   4   1   8 14579.4 1682.20   1
   4   1   9 29944.9 2435.68   1
   4   2  -6 48653.4 2989.74   6
   4   2  -5 12975.2 1484.65   6
   4   2  -5 14391.0 1535.74   4
   4   2  -4 28208.7 2089.46   6
   4   2  -4 27249.2 2101.50   4
   4   2  -3 53279.8 3009.21   1
   4   2  -2 3814.52 855.168   1
   4   2  -1 13207.7 1499.49   1
   4   2   0 50040.7 2862.43   1
   4   2   0 52456.8 2723.02   2
   4   2   1 932.040 434.326   1
   4   2   1 663.947 347.234   2
   4   2   2 200870. 5845.02   1
   4   2   3 133519. 4836.81   1
   4   2   4 92501.3 4103.13   1
   4   2   5 4454.61 949.195   1
   4   2   6 4190.69 932.873   1
   4   2   7 493.499 461.955   1
   4   2   8 26823.6 2418.37   1
   4   2   9 27865.2 2524.77   1
   4   3  -7 2220.82 781.880   6
   4   3  -6 10493.7 1535.00   6
   4   3  -5 4380.26 797.157   4
   4   3  -5 3438.64 870.379   6
   4   3  -4 13129.5 1605.47   6
   4   3  -4 9436.34 1186.63   4
   4   3  -4 10805.9 1364.82   1
   4   3  -3 17290.8 1714.71   1
   4   3  -2 40625.0 2590.03   1
   4   3  -1 131924. 4690.14   1
   4   3   0 29357.3 2271.32   1
   4   3   1 378.904 340.453   1
   4   3   2 30876.5 2365.85   1
   4   3   2 28923.4 1697.54   2
   4   3   3 211996. 6279.36   1
   4   3   4 64953.9 3560.98   1
   4   3   5 14230.8 1701.70   1
   4   3   6 15569.6 1828.98   1
   4   3   7 9195.24 1459.92   1
   4   3   8 4490.30 1094.85   1
   4   3   9 3658.39 1033.22   1
   4   3  10 3599.51 976.709   1
   4   4  -7 3940.53 1081.62   6
   4   4  -6-115.728 295.889   6
   4   4  -5 19175.4 2216.66   6
   4   4  -4 33973.7 2810.97   6
   4   4  -4 33949.0 2356.97   1
   4   4  -3 924.083 441.671   1
   4   4  -2 1117.96 528.867   1
   4   4  -1 26022.9 2123.23   1
   4   4   0 6418.15 1110.61   1
   4   4   1 51319.5 3109.50   1
   4   4   2 52724.9 3194.08   1
   4   4   3 250172. 7143.95   1
   4   4   3 251044. 4076.94   2
   4   4   4 56227.8 3454.54   1
   4   4   5 19.1685 425.680   1
   4   4   6 4045.71 1033.22   1
   4   4   7 32517.9 2821.57   1
   4   4   8 35016.9 3005.04   1
   4   4   9 12470.0 1877.17   1
   4   4  10-1874.13 777.790   1
   4   5  -7 9481.85 1782.11   6
   4   5  -6 898.018 596.915   6
   4   5  -5 7948.07 1559.77   6
   4   5  -4 21384.6 2413.51   6
   4   5  -4 24177.3 1993.16   1
   4   5  -3 5952.16 1029.60   1
   4   5  -2 39328.5 2645.83   1
   4   5  -1 15991.7 1738.98   1
   4   5   0 1257.38 618.573   1
   4   5   1 311.575 455.640   1
   4   5   2 17939.0 1976.94   1
   4   5   3 89156.2 4432.07   1
   4   5   4 81515.7 4314.35   1
   4   5   5 10612.7 1634.89   1
   4   5   5 12440.1 649.773   2
   4   5   6 12653.0 1846.72   1
   4   5   7 19695.7 2327.29   1
   4   5   8 26133.0 2710.54   1
   4   5   9 4525.87 1261.92   1
   4   5  10 11925.2 1946.54   1
   4   5  11 1367.66 685.164   1
   4   6  -7 73.2772 467.588   6
   4   6  -6 2637.03 1007.13   6
   4   6  -5 14527.6 2236.35   6
   4   6  -4 21830.4 2626.12   6
   4   6  -3 15777.2 1693.12   1
   4   6  -2 10690.1 1466.35   1
   4   6  -1 1773.14 584.518   1
   4   6   0 22392.9 2204.94   1
   4   6   1 23118.0 2301.14   1
   4   6   2 52264.8 3511.09   1
   4   6   3 2084.04 751.633   1
   4   6   4 6596.02 1312.32   1
   4   6   5 11449.1 1788.14   1
   4   6   6 2665.57 904.378   1
   4   6   7 20783.2 2501.00   1
   4   6   8 23888.8 2734.68   1
   4   6   9 4203.22 1200.25   1
   4   6  10 7909.73 1638.17   1
   4   6  11 667.360 572.543   1
   4   7  -5 695.596 726.317   6
   4   7  -4 2283.32 928.501   6
   4   7  -3 39276.1 3663.65   6
   4   7  -2 28944.4 2464.80   1
   4   7  -1 1506.96 619.124   1
   4   7   0 222.706 512.345   1
   4   7   1 12158.6 1788.74   1
   4   7   2 43606.4 3366.28   1
   4   7   3 24305.6 2547.53   1
   4   7   4 15286.8 2078.66   1
   4   7   5 30938.4 3004.14   1
   4   7   6 4870.78 1256.67   1
   4   7   7 5479.14 1353.59   1
   4   7   8-1158.51 767.405   1
   4   7   9 336.251 486.864   1
   4   7  10 97.3899 370.961   1
   4   8  -4 1552.31 839.656   6
   4   8  -3 6771.99 1702.74   6
   4   8  -2 7545.72 1340.35   1
   4   8  -1 5584.99 1176.67   1
   4   8   0 11814.5 1745.42   1
   4   8   1 33981.9 3044.47   1
   4   8   2 4957.85 1226.58   1
   4   8   3-1336.01 745.486   1
   4   8   4 2407.82 894.223   1
   4   8   5 24159.7 2819.36   1
   4   8   6 42395.1 3795.58   1
   4   8   7 23879.5 2940.38   1
   4   8   8 1653.93 900.073   1
   4   8   9 170.696 580.617   1
   4   9  -1 1600.55 718.057   1
   4   9   0 1778.29 645.185   1
   4   9   1 17287.7 2311.06   1
   4   9   2 15230.0 2192.16   1
   4   9   3 11020.4 1887.29   1
   4   9   4 2950.41 1073.54   1
   4   9   5 1461.91 836.788   1
   4   9   6 21674.5 2871.38   1
   4   9   7 8442.00 1826.02   1
   4   9   8 4897.51 1459.09   1
   4  10   0 7006.33 1519.10   1
   4  10   1 2700.31 1075.69   1
   4  10   2 541.789 622.539   1
   4  10   3 4050.45 1256.84   1
   4  10   4 6234.01 1616.17   1
   4  10   5 13866.0 2341.17   1
   4  10   6 19504.5 2890.51   1
   4  11   1-1030.38 810.665   1
   4  11   2-1105.92 773.022   1
   4  11   3 2143.66 968.351   1
   5  -8   0 359.077 713.401   4
   5  -8   1 10923.8 2156.69   4
   5  -8   2 13192.5 2259.09   4
   5  -8   3 5518.39 1465.12   4
   5  -7  -3 14332.4 2554.43   4
   5  -7  -2 14249.2 2390.48   4
   5  -7  -1 1169.46 860.715   4
   5  -7   0 590.271 633.286   4
   5  -7   1 7462.66 1740.39   4
   5  -7   2 4890.92 1368.79   4
   5  -7   3 9542.89 1817.87   4
   5  -6  -5 2643.95 1145.05   4
   5  -6  -4 5137.04 1525.92   4
   5  -6  -3 16761.3 2546.07   4
   5  -6  -2 26039.6 3123.86   4
   5  -6  -1 6834.86 1613.38   4
   5  -6   0 14698.6 2302.73   4
   5  -6   1 21998.5 2724.89   4
   5  -6   2 13389.3 2107.64   4
   5  -6   3 2353.38 927.175   4
   5  -6   4 906.973 652.084   4
   5  -5  -6 1871.15 806.555   4
   5  -5  -5 1851.74 844.896   4
   5  -5  -4 2540.84 1060.40   4
   5  -5  -3 3134.45 1074.39   4
   5  -5  -2 18.7267 681.125   4
   5  -5  -1 9273.78 1759.55   4
   5  -5   0 86667.5 5211.49   4
   5  -5   1 45586.4 3732.46   4
   5  -5   2 30354.4 3009.41   4
   5  -5   3 4521.40 1183.72   4
   5  -5   4 2120.78 862.771   4
   5  -5   5 4819.36 1200.02   4
   5  -4  -8 7164.85 1755.62   4
   5  -4  -7 7861.23 1770.78   4
   5  -4  -6 8340.63 1762.17   4
   5  -4  -5 5803.83 1492.04   4
   5  -4  -4 16462.9 2357.37   4
   5  -4  -3 8580.44 1701.15   4
   5  -4  -2 8352.75 1571.62   4
   5  -4  -1-206.297 553.365   4
   5  -4   0 19651.7 2411.28   4
   5  -4   1 36060.3 3204.16   4
   5  -4   2 52406.2 3799.06   4
   5  -4   3 19941.4 2323.50   4
   5  -4   4 18627.7 2245.22   4
   5  -4   5 30988.8 2850.18   4
   5  -4   6 4827.97 1179.75   4
   5  -3  -7 12449.2 2128.79   4
   5  -3  -6 5370.59 1436.44   4
   5  -3  -5 20766.3 2594.32   4
   5  -3  -4 41250.8 3560.88   4
   5  -3  -3 15075.9 2113.73   4
   5  -3  -2 747.282 716.690   4
   5  -3  -1 22463.8 2506.39   4
   5  -3   0 33429.2 1951.05   6
   5  -3   0 31001.5 2907.78   4
   5  -3   1 24731.3 2561.77   4
   5  -3   2 783.839 506.890   4
   5  -3   2 610.453 255.340   5
   5  -3   3 417.437 383.992   4
   5  -3   3 882.232 333.061   5
   5  -3   4 33131.9 2879.11   4
   5  -3   5 37427.1 3034.89   4
   5  -3   6 21555.5 2298.87   4
   5  -2  -7 3042.95 1029.74   4
   5  -2  -6 4096.84 1131.29   4
   5  -2  -5 7861.29 1544.26   4
   5  -2  -4 33509.4 3074.46   4
   5  -2  -3 5510.47 1230.99   4
   5  -2  -2 34482.2 3009.87   4
   5  -2  -1 25279.9 1290.17   6
   5  -2  -1 27514.2 2658.25   4
   5  -2   0 29132.8 1735.44   6
   5  -2   0 29590.5 2746.95   4
   5  -2   1 119267. 3993.40   6
   5  -2   1 105441. 5094.72   4
   5  -2   2 28583.7 1724.74   5
   5  -2   2 34214.6 2867.06   4
   5  -2   3 2052.75 492.610   5
   5  -2   3 1839.83 711.942   1
   5  -2   4 8038.80 1359.57   1
   5  -2   5-119.216 303.337   1
   5  -2   6 16044.7 1864.95   1
   5  -2   7 1818.74 673.019   1
   5  -1  -7 4176.47 1133.56   4
   5  -1  -6 14693.7 2018.37   4
   5  -1  -5 16647.1 2125.74   4
   5  -1  -4 2042.29 804.383   4
   5  -1  -3 1526.91 695.352   4
   5  -1  -2 35031.7 1256.65   6
   5  -1  -2 35008.4 2968.87   4
   5  -1  -1 35784.3 1643.59   6
   5  -1  -1 34862.3 2885.58   4
   5  -1   0 44932.8 2135.65   6
   5  -1   0 44571.4 3213.03   1
   5  -1   1 52335.8 2588.47   6
   5  -1   1 51950.7 3425.17   1
   5  -1   2 20717.7 1616.03   5
   5  -1   2 24958.0 2353.33   1
   5  -1   3 53028.5 2749.80   5
   5  -1   3 53925.9 3438.52   1
   5  -1   4 85140.6 4288.38   1
   5  -1   5 36910.0 2800.31   1
   5  -1   6 11449.2 1560.52   1
   5  -1   7 4167.17 999.853   1
   5   0  -6 19301.9 2233.26   4
   5   0  -5 44316.9 3334.36   4
   5   0  -4 1481.74 672.990   4
   5   0  -3 11140.8 892.634   6
   5   0  -3 15140.4 1893.27   4
   5   0  -2 11914.4 975.275   6
   5   0  -2 11706.9 1635.31   4
   5   0  -1 5851.38 747.667   6
   5   0  -1 5544.63 1145.93   1
   5   0   0 5716.95 808.568   6
   5   0   0 4706.00 1062.93   1
   5   0   1 11871.4 1616.25   1
   5   0   1 13042.8 1323.92   6
   5   0   2 79742.0 3382.50   5
   5   0   2 72174.8 3940.63   1
   5   0   3 123429. 5142.03   1
   5   0   4 16092.8 1856.63   1
   5   0   5 57854.4 3520.76   1
   5   0   6 23004.0 2234.29   1
   5   0   7 5723.40 1163.18   1
   5   0   8 8908.50 1411.78   1
   5   1  -6 10517.3 1598.69   4
   5   1  -5 17174.9 2001.07   4
   5   1  -4-321.424 394.860   4
   5   1  -4 401.053 260.371   6
   5   1  -3 43943.6 3096.11   4
   5   1  -2 35270.1 2810.35   1
   5   1  -1 46408.4 2368.25   6
   5   1  -1 50904.5 3335.26   1
   5   1   0 17677.9 1513.26   6
   5   1   0 17406.5 1946.49   1
   5   1   1 28019.2 2452.34   1
   5   1   2 1824.96 671.571   1
   5   1   3 118463. 5032.42   1
   5   1   4 77408.5 4085.17   1
   5   1   5 89987.2 4446.28   1
   5   1   6 1277.98 620.968   1
   5   1   7 1160.42 487.378   1
   5   1   8 32225.8 2754.01   1
   5   1   9 10051.3 1565.09   1
   5   2  -5 7393.14 1295.72   4
   5   2  -4 18081.0 1725.79   6
   5   2  -4 17046.6 1924.04   4
   5   2  -3 17199.4 1951.51   1
   5   2  -2 19939.9 2092.86   1
   5   2  -1 35134.0 2739.87   1
   5   2   0 32748.4 2633.45   1
   5   2   1 1053.46 484.227   1
   5   2   2 24111.3 2290.20   1
   5   2   3 32487.8 2700.62   1
   5   2   4 36576.7 2867.13   1
   5   2   5 2071.51 724.427   1
   5   2   6 10090.5 1544.60   1
   5   2   7 39790.9 3107.23   1
   5   2   8 50906.3 3583.61   1
   5   2   9 1968.72 689.124   1
   5   3  -5 581.479 441.136   6
   5   3  -4 47430.5 3131.47   6
   5   3  -4 49960.1 3169.25   4
   5   3  -3 31985.0 2646.86   1
   5   3  -2 44430.3 3084.20   1
   5   3  -1 47450.6 3164.80   1
   5   3   0 3321.14 912.391   1
   5   3   1 11681.7 1624.11   1
   5   3   2 13240.5 1761.17   1
   5   3   2 13428.8 1389.09   2
   5   3   3 50726.9 3403.02   1
   5   3   3 49541.3 2595.86   2
   5   3   4 161673. 6124.63   1
   5   3   5 328.945 398.442   1
   5   3   6 2668.07 810.017   1
   5   3   7 10830.2 1700.78   1
   5   3   8 18913.5 2286.37   1
   5   3   9 12365.9 1850.02   1
   5   3  10 3849.19 1101.55   1
   5   4  -5 27.3046 209.446   6
   5   4  -4 9700.62 1561.28   6
   5   4  -4 10141.3 1485.48   1
   5   4  -3 8204.05 1366.56   1
   5   4  -2 10969.5 1569.53   1
   5   4  -1 23066.2 2247.29   1
   5   4   0 4499.45 1047.28   1
   5   4   1 64360.3 3877.47   1
   5   4   2 28420.4 2587.53   1
   5   4   3 30759.3 2739.35   1
   5   4   3 35861.1 2002.04   2
   5   4   4 44238.0 3329.70   1
   5   4   4 44425.7 2165.62   2
   5   4   5 15632.7 2009.43   1
   5   4   6 18799.5 2289.13   1
   5   4   7 46056.3 3603.92   1
   5   4   8 788.009 664.735   1
   5   4   9 844.387 587.898   1
   5   4  10-106.045 272.423   1
   5   5  -6-698.780 613.189   6
   5   5  -5 4551.43 1194.90   6
   5   5  -4 6745.52 1415.61   6
   5   5  -4 10540.7 1535.84   1
   5   5  -3 33199.9 2712.91   1
   5   5  -2 16523.6 1918.77   1
   5   5  -1 200.531 333.076   1
   5   5   0 313.021 369.800   1
   5   5   1 10064.3 1563.92   1
   5   5   2 23569.6 2426.06   1
   5   5   3 35173.5 3015.00   1
   5   5   4 17710.0 2171.38   1
   5   5   5 34405.7 3103.79   1
   5   5   6 47481.0 3715.57   1
   5   5   7 33081.8 3147.94   1
   5   5   8 24741.1 2800.50   1
   5   5   9 4286.41 1210.78   1
   5   5  10 2791.70 1017.62   1
   5   5  11 1267.45 682.471   1
   5   6  -6 3476.31 588.998   6
   5   6  -5 4037.82 1225.78   6
   5   6  -4 169.526 323.539   6
   5   6  -3 10663.1 1572.51   1
   5   6  -2 43167.8 3157.27   1
   5   6  -1 5200.64 1161.57   1
   5   6   0 24495.4 2527.57   1
   5   6   1 8207.69 1477.29   1
   5   6   2 16079.1 2088.24   1
   5   6   3 905.669 779.191   1
   5   6   4 8939.75 1611.73   1
   5   6   5 9484.26 1714.73   1
   5   6   6 73764.5 4795.57   1
   5   6   7 18901.1 2500.17   1
   5   6   8 10067.4 1896.40   1
   5   6   9 6529.83 1480.39   1
   5   6  10 14536.1 2381.56   1
   5   6  11 2948.96 1107.10   1
   5   7  -5 2360.51 1036.92   6
   5   7  -4 4054.56 1271.51   6
   5   7  -2 4437.70 1076.72   1
   5   7  -1 2336.53 861.378   1
   5   7   0 9818.95 1643.69   1
   5   7   1 36141.0 3191.94   1
   5   7   2 51235.1 3884.01   1
   5   7   3 6765.98 1451.33   1
   5   7   4 643.151 482.252   1
   5   7   5 3751.57 1129.42   1
   5   7   6 14295.2 2253.16   1
   5   7   7 5865.93 1465.56   1
   5   7   8 2353.20 864.450   1
   5   7   9 9311.51 1885.65   1
   5   7  10 6347.01 1722.86   1
   5   8  -3 4968.36 1365.57   6
   5   8  -1 18935.3 2340.10   1
   5   8   0 1747.41 806.545   1
   5   8   1 9521.97 1806.68   1
   5   8   2 12016.0 1993.13   1
   5   8   3 1978.91 861.411   1
   5   8   4 5067.60 1331.22   1
   5   8   5 21772.4 2787.96   1
   5   8   6 17623.0 2534.33   1
   5   8   7 13657.6 2283.22   1
   5   8   8-1264.32 781.657   1
   5   9   0 16593.5 2315.78   1
   5   9   1 17927.3 2462.77   1
   5   9   2 3362.72 1046.68   1
   5   9   3 629.896 664.282   1
   5   9   4 5265.89 1432.70   1
   5   9   5 6898.39 1657.87   1
   5   9   6 5129.51 1430.93   1
   5   9   7 6437.14 1720.84   1
   5  10   0 9271.21 1858.77   1
   5  10   1 4975.85 1414.64   1
   5  10   2 1588.02 749.198   1
   5  10   3 4414.03 1438.66   1
   5  10   4 8558.79 1924.97   1
   5  11   1 5274.22 1527.06   1
   6  -7   3 7031.01 1836.72   4
   6  -6  -1-384.999 807.017   4
   6  -6   0 5798.98 1594.60   4
   6  -6   1 14016.9 2339.85   4
   6  -6   2 4482.26 1326.19   4
   6  -6   3 3577.12 1204.16   4
   6  -6   4 4065.32 1274.80   4
   6  -5  -3 15407.8 2549.75   4
   6  -5  -2 10043.2 2006.90   4
   6  -5  -1 4904.40 1502.19   4
   6  -5   0 26840.5 3159.19   4
   6  -5   1 18847.2 2641.30   4
   6  -5   2 6956.00 1598.39   4
   6  -5   3-757.906 665.550   4
   6  -5   4 2992.13 1116.15   4
   6  -5   5 17362.0 2438.85   4
   6  -4  -5 6738.02 1681.93   4
   6  -4  -4 5944.40 1605.72   4
   6  -4  -3 2031.11 1129.47   4
   6  -4  -2-125.035 496.255   4
   6  -4  -1 1900.88 1019.60   4
   6  -4   0 30996.8 3324.77   4
   6  -4   1 41183.5 3785.77   4
   6  -4   2 13852.8 2168.97   4
   6  -4   3 6199.95 1475.85   4
   6  -4   4 22652.8 2734.52   4
   6  -4   5 13647.9 2117.19   4
   6  -4   6 3217.50 1028.79   4
   6  -3  -6 10122.5 2021.07   4
   6  -3  -5 9379.75 1915.54   4
   6  -3  -4 5359.93 1451.48   4
   6  -3  -3 10366.8 1932.79   4
   6  -3  -2 4469.39 1330.26   4
   6  -3  -1 8004.70 1664.25   4
   6  -3   0 1318.38 846.418   4
   6  -3   1 2762.30 999.419   4
   6  -3   2 2411.39 997.370   4
   6  -3   3 19508.2 2511.76   4
   6  -3   4 49883.8 3933.19   4
   6  -3   5 23649.7 2685.96   4
   6  -3   6 14860.1 2146.77   4
   6  -2  -6 6880.33 1598.89   4
   6  -2  -5 16429.7 2412.61   4
   6  -2  -4 13485.4 2153.00   4
   6  -2  -3 2387.25 1013.78   4
   6  -2  -2 11724.5 1962.70   4
   6  -2  -1 52426.4 4053.27   4
   6  -2   0 23300.8 2702.64   4
   6  -2   1 1599.80 821.306   4
   6  -2   2 153.925 430.326   4
   6  -2   4 19376.6 2352.47   1
   6  -2   5 5264.90 1244.20   1
   6  -2   6 24706.2 2585.71   1
   6  -2   7 11786.0 1759.02   1
   6  -1  -6 2385.98 958.531   4
   6  -1  -5 5337.78 1358.52   4
   6  -1  -4 9034.51 1772.27   4
   6  -1  -3 9981.85 1784.18   4
   6  -1  -2 50993.6 3924.62   4
   6  -1  -1 40257.1 3476.43   4
   6  -1   0 15195.1 2122.43   4
   6  -1   1 1553.36 636.536   1
   6  -1   2 13037.9 1930.99   1
   6  -1   3 81922.9 4753.97   1
   6  -1   4 23938.7 2558.08   1
   6  -1   5 5657.77 1238.04   1
   6  -1   6 17883.5 2200.07   1
   6  -1   7-513.714 476.324   1
   6   0  -5 3884.10 1087.89   4
   6   0  -4-861.271 617.641   4
   6   0  -3 452.940 511.264   4
   6   0  -2 28497.4 2852.14   4
   6   0  -1 65637.0 4251.90   4
   6   0  -1 62733.9 4223.76   1
   6   0   0 58777.4 2843.63   6
   6   0   0 59708.7 4063.40   1
   6   0   1 2326.75 921.405   1
   6   0   2 857.618 617.202   1
   6   0   3 35363.6 3089.96   1
   6   0   4 17969.9 2228.70   1
   6   0   5 38267.2 3206.41   1
   6   0   6 18746.7 2249.88   1
   6   0   7 3212.88 953.358   1
   6   0   8 17617.3 2208.83   1
   6   1  -5 1793.86 769.085   4
   6   1  -4 2994.31 960.314   4
   6   1  -3 21056.2 2442.02   4
   6   1  -2 16170.2 2090.36   4
   6   1  -2 13698.8 1989.44   1
   6   1  -1 7787.14 1491.23   1
   6   1   0 1393.01 753.267   1
   6   1   1 9089.08 1588.56   1
   6   1   2 44099.2 3437.41   1
   6   1   3 48901.3 3628.13   1
   6   1   4 28896.2 2768.39   1
   6   1   5 28002.2 2729.67   1
   6   1   6 79.1309 302.127   1
   6   1   7 9463.32 1642.58   1
   6   1   8 23856.6 2586.55   1
   6   2  -4 5416.12 1252.82   4
   6   2  -3 28050.5 2736.90   4
   6   2  -2 18443.8 2239.36   1
   6   2  -1 20830.1 2386.19   1
   6   2   0 2304.02 771.452   1
   6   2   1 3749.07 1002.33   1
   6   2   2 5375.38 1249.96   1
   6   2   3 2030.55 736.752   1
   6   2   4 73348.3 4458.01   1
   6   2   5 74542.5 4527.65   1
   6   2   6 8335.78 1542.92   1
   6   2   7 25089.3 2697.49   1
   6   2   8 18510.7 2357.24   1
   6   2   9 4497.66 1179.44   1
   6   3  -4 13017.1 1829.41   4
   6   3  -3 39351.1 3282.66   1
   6   3  -2 36572.7 3174.61   1
   6   3  -1 6525.96 1304.92   1
   6   3   0 6018.68 1274.63   1
   6   3   1 43966.4 3426.35   1
   6   3   2 37888.8 3200.20   1
   6   3   3 2362.08 882.107   1
   6   3   4 452.891 522.013   1
   6   3   5 272.015 453.372   1
   6   3   6 15030.2 2136.20   1
   6   3   7 56034.9 4106.83   1
   6   3   8 27426.8 2929.19   1
   6   3   9 9750.49 1776.98   1
   6   3  10 9871.66 1824.09   1
   6   4  -4 453.248 427.942   6
   6   4  -3 5631.25 1220.90   1
   6   4  -2 19969.4 2380.90   1
   6   4  -1 10844.5 1711.14   1
   6   4   0 29256.8 2789.11   1
   6   4   1 71075.3 4422.32   1
   6   4   2 22261.4 2543.34   1
   6   4   3 30477.5 2952.48   1
   6   4   4 3480.69 1004.34   1
   6   4   5-35.5699 343.900   1
   6   4   6 8194.77 1638.13   1
   6   4   7 4202.65 1208.77   1
   6   4   8 1317.88 715.690   1
   6   4   9 8187.31 1668.41   1
   6   4  10 10397.8 1963.52   1
   6   5  -4 1196.09 615.768   6
   6   5  -3 1694.14 750.799   1
   6   5  -2 1494.71 724.858   1
   6   5  -1 76.1783 337.366   1
   6   5   0 8621.55 1583.22   1
   6   5   1 33796.9 3167.75   1
   6   5   2 24243.6 2666.55   1
   6   5   3 74175.6 4734.16   1
   6   5   4 846.353 627.977   1
   6   5   5 2276.73 917.871   1
   6   5   6 62328.0 4530.39   1
   6   5   7 15299.4 2324.38   1
   6   5   8 1873.31 863.018   1
   6   5   9 1903.46 883.787   1
   6   5  10 2037.32 887.052   1
   6   6  -4 9447.63 1734.89   6
   6   6  -2 2751.06 892.755   1
   6   6  -1 5642.83 1286.16   1
   6   6   0 15078.0 2171.37   1
   6   6   1 908.885 562.770   1
   6   6   2 3721.67 1148.64   1
   6   6   3 8310.84 1721.56   1
   6   6   4 1085.60 731.554   1
   6   6   5 5890.76 1475.49   1
   6   6   6 39662.5 3722.38   1
   6   6   7 21758.6 2805.12   1
   6   6   8 13134.9 2258.88   1
   6   6   9 6849.62 1632.84   1
   6   7  -4 3302.17 1199.30   6
   6   7  -2 257.383 476.976   1
   6   7  -1 10867.3 1848.44   1
   6   7   0 27852.9 2963.23   1
   6   7   1 7958.70 1667.84   1
   6   7   2 23850.9 2810.18   1
   6   7   3 89.3549 447.965   1
   6   7   4 648.396 812.793   1
   6   7   5 5549.55 1509.09   1
   6   7   6 2752.17 1120.49   1
   6   7   7 9081.17 1923.76   1
   6   7   8 9248.89 1992.11   1
   6   8  -1 5335.19 1340.15   1
   6   8   0 7104.48 1586.69   1
   6   8   1 9443.17 1847.12   1
   6   8   2 12601.1 2140.54   1
   6   8   3 2312.60 1073.17   1
   6   8   4 9069.11 1882.93   1
   6   8   5 18218.5 2691.59   1
   6   8   6-904.854 306.527   1
   6   8   7 1950.11 1088.53   1
   6   9   0 2844.46 1221.91   1
   6   9   1 12984.9 2230.71   1
   6   9   2 2883.35 1040.05   1
   6   9   3 3847.67 1284.25   1
   6   9   4 13850.6 2384.43   1
   6  10   1 6962.60 1823.62   1
   7  -5   3 2438.06 1136.49   4
   7  -5   4 9608.93 2058.05   4
   7  -5   5 2445.80 1161.48   4
   7  -4  -1 17651.2 2774.77   4
   7  -4   0 20476.7 2971.68   4
   7  -4   1 6499.12 1699.29   4
   7  -4   2 2049.46 1075.53   4
   7  -4   3 2399.42 1085.93   4
   7  -4   4 12997.0 2322.22   4
   7  -4   5 16129.9 2506.58   4
   7  -4   6 9843.85 1972.10   4
   7  -3  -3 4167.56 1373.57   4
   7  -3  -2 1519.59 921.531   4
   7  -3  -1 14495.2 2429.63   4
   7  -3   0 13064.6 2351.18   4
   7  -3   1 1192.34 758.501   4
   7  -3   2 1821.12 934.980   4
   7  -3   3 19699.3 2803.44   4
   7  -3   4 22320.1 2916.41   4
   7  -3   5 3339.28 1224.30   4
   7  -3   6 1879.92 962.041   4
   7  -2  -4 993.496 842.304   4
   7  -2  -3 3792.04 1307.30   4
   7  -2  -2 8117.75 1817.27   4
   7  -2  -1 28971.8 3319.59   4
   7  -2   0 19338.0 2674.41   4
   7  -2   1 301.258 605.387   4
   7  -2   2 162.100 562.375   4
   7  -2   3 15661.0 2444.57   4
   7  -2   4 8473.75 1778.19   4
   7  -2   5 8746.56 1844.14   4
   7  -1  -5 2572.16 1060.22   4
   7  -1  -4 9803.74 1936.32   4
   7  -1  -3 3279.02 1165.52   4
   7  -1  -2 5105.20 1445.28   4
   7  -1  -1 11270.9 2039.65   4
   7  -1   0 13591.3 2230.88   4
   7  -1   1 6768.89 1617.03   4
   7  -1   2 5216.22 1352.22   1
   7  -1   3 18221.1 2480.77   1
   7  -1   4 8575.02 1729.63   1
   7  -1   5 3691.38 1144.60   1
   7  -1   6 7143.32 1516.14   1
   7  -1   7 2633.87 947.983   1
   7   0  -5-423.877 683.172   4
   7   0  -4 4635.50 1350.05   4
   7   0  -3 13187.1 2195.36   4
   7   0  -2 42868.4 3898.31   4
   7   0  -1 23795.7 2855.74   4
   7   0   0 6420.58 1509.07   1
   7   0   1 2918.08 1010.90   1
   7   0   2 10150.4 1847.27   1
   7   0   3 3157.62 1026.67   1
   7   0   4 5162.02 1379.42   1
   7   0   5 22901.8 2753.17   1
   7   0   6 10143.1 1813.49   1
   7   0   7 2069.47 838.006   1
   7   0   8 7573.53 1604.48   1
   7   1  -4 1211.42 798.501   4
   7   1  -3 2531.97 1031.99   4
   7   1  -2 4960.67 1328.95   4
   7   1  -1 14826.8 2235.59   1
   7   1   0 15273.5 2255.33   1
   7   1   1 49381.5 4030.94   1
   7   1   2 56647.4 4323.36   1
   7   1   3 1959.49 796.680   1
   7   1   4 200.054 413.046   1
   7   1   5 19214.8 2493.20   1
   7   1   6 1299.75 719.812   1
   7   1   7 9694.66 1837.36   1
   7   1   8 12460.7 2031.18   1
   7   2  -4-551.543 539.848   4
   7   2  -3 7094.59 1545.04   4
   7   2  -2 4945.19 1334.26   1
   7   2  -1 260.504 511.300   1
   7   2   0 1247.87 745.428   1
   7   2   1 18432.1 2445.31   1
   7   2   2 63535.8 4526.15   1
   7   2   3 22494.0 2701.38   1
   7   2   4 13110.6 2119.32   1
   7   2   5 14183.7 2169.10   1
   7   2   6 2859.43 1010.57   1
   7   2   7 6830.86 1598.34   1
   7   2   8 2613.23 988.390   1
   7   2   9 8031.83 1692.27   1
   7   3  -3 3749.32 1062.16   4
   7   3  -2 8200.77 1656.03   1
   7   3  -1 784.007 599.746   1
   7   3   0 4077.21 1125.87   1
   7   3   1 9201.96 1760.86   1
   7   3   2 2659.56 1056.13   1
   7   3   3 4219.46 1134.74   1
   7   3   4 12589.0 2089.29   1
   7   3   5 1765.03 882.242   1
   7   3   6 18329.0 2521.32   1
   7   3   7 15281.1 2341.75   1
   7   3   8 11821.3 2093.70   1
   7   3   9 13273.8 2220.84   1
   7   4  -3 4389.81 1318.79   1
   7   4  -2 8579.48 1664.93   1
   7   4  -1 3731.37 1130.08   1
   7   4   0 19554.8 2543.25   1
   7   4   1 26060.7 2913.01   1
   7   4   2 4786.32 1263.25   1
   7   4   3 15406.3 2282.05   1
   7   4   4 4985.72 1371.55   1
   7   4   5 4439.13 1283.58   1
   7   4   6 6795.57 1582.05   1
   7   4   7 11547.2 2074.77   1
   7   4   8 7100.28 1631.52   1
   7   4   9 8813.48 1874.33   1
   7   5  -3 767.348 701.264   1
   7   5  -2-628.068 490.663   1
   7   5  -1 3437.77 1124.79   1
   7   5   0 23788.0 2839.21   1
   7   5   1 20136.3 2616.00   1
   7   5   2 7821.28 1705.76   1
   7   5   3 40614.7 3803.49   1
   7   5   4 17278.0 2512.91   1
   7   5   5 2308.56 952.472   1
   7   5   6-661.115 558.765   1
   7   5   7 385.577 489.395   1
   7   5   8 4265.80 1332.66   1
   7   6  -2 37.5766 426.017   1
   7   6  -1 396.737 572.463   1
   7   6   0 9597.10 1871.39   1
   7   6   1-327.985 499.453   1
   7   6   2 9744.17 1909.61   1
   7   6   3 20490.2 2746.92   1
   7   6   4 10817.5 2039.02   1
   7   6   5 26184.4 3189.95   1
   7   6   6 7939.57 1816.36   1
   7   6   7 5261.85 1502.72   1
   7   7  -1 2639.57 1027.22   1
   7   7   0 5402.96 1492.59   1
   7   7   1 2237.93 1011.90   1
   7   7   2 8594.31 1841.36   1
   7   7   3 1307.77 886.993   1
   7   7   4 4853.82 1429.26   1
   7   7   5 25055.5 3239.87   1
   7   7   6 4865.64 1416.84   1
   7   8   0 1519.63 874.190   1
   7   8   1 678.158 699.738   1
   7   8   2 1491.00 595.117   1
   7   8   3-252.154 558.139   1
   8  -1   0 4023.58 1422.47   4
   8  -1   1 16343.9 2667.78   4
   8  -1   2 16437.9 2667.46   4
   8  -1   3 5719.05 1626.03   1
   8  -1   4 2827.41 1096.57   1
   8  -1   5 4213.25 1356.13   1
   8  -1   6 5108.83 1476.31   1
   8  -1   7 1693.65 903.466   1
   8   0  -1 2268.79 1059.29   4
   8   0   0 433.116 683.123   4
   8   0   1 1462.51 845.851   1
   8   0   2 14820.9 2515.06   1
   8   0   3 16417.2 2553.31   1
   8   0   4 7449.65 1749.98   1
   8   0   5 5786.45 1559.17   1
   8   0   6 931.124 713.999   1
   8   0   7 1146.96 748.712   1
   8   0   8 3323.33 1219.21   1
   8   1  -2 11798.4 2171.08   4
   8   1  -1 10400.6 2057.12   4
   8   1   0 6493.74 1638.42   1
   8   1   1 3400.55 1260.25   1
   8   1   2 13400.3 2309.13   1
   8   1   3 15398.3 2466.43   1
   8   1   4 3015.85 1156.93   1
   8   1   5 5170.29 1471.26   1
   8   1   6 3185.09 1134.70   1
   8   1   7 1676.84 927.594   1
   8   1   8 429.921 472.709   1
   8   2  -3 550.322 750.013   4
   8   2  -2-30.9186 466.195   4
   8   2  -1 3178.37 1175.79   1
   8   2   0 2739.47 1125.94   1
   8   2   1 7807.02 1778.18   1
   8   2   2 11348.0 2164.36   1
   8   2   3 28519.8 3348.32   1
   8   2   4 21166.2 2900.92   1
   8   2   5 5641.45 1499.47   1
   8   2   6 900.088 660.970   1
   8   2   7 4137.69 1285.62   1
   8   3  -3 2921.67 1126.54   4
   8   3  -2 320.618 506.446   4
   8   3  -2-176.703 770.055   1
   8   3  -1-253.103 504.889   1
   8   3   0 1126.55 610.901   1
   8   3   1 3340.76 1288.49   1
   8   3   2 4698.16 1407.25   1
   8   3   3 10090.6 1967.06   1
   8   3   4 30169.1 3445.99   1
   8   3   5 4039.58 1234.88   1
   8   3   6 1236.75 890.931   1
   8   3   7 4427.84 1438.72   1
   8   4  -1 1796.84 912.096   1
   8   4   0 6793.71 1641.44   1
   8   4   1 4374.40 1353.25   1
   8   4   2 964.904 784.016   1
   8   4   3 2436.09 1134.55   1
   8   4   4 18157.2 2655.66   1
   8   4   5 8611.97 1938.48   1
   8   4   6 3550.78 1278.58   1
   8   5  -1 221.621 492.346   1
   8   5   0 10378.5 2099.11   1
   8   5   1 8100.61 1794.36   1
   8   5   2 5960.40 1609.23   1
   8   5   3 6411.86 1640.02   1
   8   5   4 3185.52 1381.64   1
   0   0   0    0.00    0.00   0

TITL Ni(1-MI)N3 in P1
REM P1 (#1 in standard setting)
CELL 0.71073   6.917374   9.058604   9.275449  76.7862  75.4495  80.2124
ZERR    2.00   0.000488   0.000675   0.000838   0.0070   0.0069   0.0060
LATT -1
SFAC C H N Ni
UNIT 16.00 24.00 14.00 2.00
TREF
HKLF 4
END
;
_shelx_hkl_checksum              44485
loop_
_space_group_symop_operation_xyz
'x, y, z'
'-x, -y, -z'
loop_
_atom_site_label
_atom_site_type_symbol
_atom_site_fract_x
_atom_site_fract_y
_atom_site_fract_z
_atom_site_U_iso_or_equiv
_atom_site_adp_type
_atom_site_occupancy
_atom_site_site_symmetry_order
_atom_site_calc_flag
_atom_site_refinement_flags_posn
_atom_site_refinement_flags_adp
_atom_site_refinement_flags_occupancy
_atom_site_disorder_assembly
_atom_site_disorder_group
C11 C 0.1829(4) 0.7653(3) 0.8863(3) 0.0303(6) Uani 1 1 d . . . . .
C12 C 0.4437(4) 0.8514(3) 0.9037(3) 0.0417(7) Uani 1 1 d . . . . .
C13 C 0.3255(4) 0.9723(3) 0.8461(3) 0.0478(8) Uani 1 1 d . . . . .
C14 C -0.0096(6) 1.0060(4) 0.7715(5) 0.0564(9) Uani 1 1 d . . . . .
C21 C 0.5935(4) 0.3620(3) 0.7134(3) 0.0335(6) Uani 1 1 d . . . . .
C22 C 0.2748(4) 0.4153(3) 0.7798(3) 0.0321(6) Uani 1 1 d . . . . .
C23 C 0.3106(4) 0.3543(3) 0.6540(3) 0.0349(6) Uani 1 1 d . . . . .
C24 C 0.6233(6) 0.2416(5) 0.4898(4) 0.0548(9) Uani 1 1 d . . . . .
N1 N 0.7838(3) 0.5673(3) 0.8725(2) 0.0379(5) Uani 1 1 d . . . . .
N2 N 0.8182(3) 0.6408(3) 0.7478(3) 0.0371(5) Uani 1 1 d . . . . .
N3 N 0.8573(4) 0.7147(4) 0.6266(3) 0.0687(8) Uani 1 1 d . . . . .
N11 N 0.3548(3) 0.7209(2) 0.9292(2) 0.0295(5) Uani 1 1 d . . . . .
N12 N 0.1592(3) 0.9173(2) 0.8340(2) 0.0356(5) Uani 1 1 d . . . . .
N21 N 0.4538(3) 0.4212(2) 0.8170(2) 0.0289(5) Uani 1 1 d . . . . .
N22 N 0.5149(3) 0.3193(2) 0.6134(2) 0.0328(5) Uani 1 1 d . . . . .
Ni Ni 0.5000 0.5000 1.0000 0.02713(15) Uani 1 2 d S . P . .
H12 H 0.570(4) 0.847(3) 0.932(3) 0.042(7) Uiso 1 1 d . . . . .
H13 H 0.341(4) 1.076(3) 0.822(3) 0.052(8) Uiso 1 1 d . . . . .
H14 H 0.088(3) 0.702(3) 0.889(2) 0.028(6) Uiso 1 1 d . . . . .
H14A H -0.087(6) 0.943(4) 0.749(4) 0.087(13) Uiso 1 1 d . . . . .
H14B H 0.037(6) 1.065(4) 0.674(4) 0.100(14) Uiso 1 1 d . . . . .
H14C H -0.081(5) 1.079(5) 0.832(4) 0.093(13) Uiso 1 1 d . . . . .
H21 H 0.730(4) 0.349(3) 0.707(2) 0.030(7) Uiso 1 1 d . . . . .
H22 H 0.145(4) 0.450(3) 0.839(3) 0.049(8) Uiso 1 1 d . . . . .
H23 H 0.223(4) 0.342(3) 0.594(3) 0.058(9) Uiso 1 1 d . . . . .
H24A H 0.572(5) 0.282(4) 0.405(4) 0.084(12) Uiso 1 1 d . . . . .
H24B H 0.630(6) 0.138(5) 0.520(4) 0.105(15) Uiso 1 1 d . . . . .
H24C H 0.770(6) 0.263(4) 0.467(4) 0.097(13) Uiso 1 1 d . . . . .
loop_
_atom_site_aniso_label
_atom_site_aniso_U_11
_atom_site_aniso_U_22
_atom_site_aniso_U_33
_atom_site_aniso_U_23
_atom_site_aniso_U_13
_atom_site_aniso_U_12
C11 0.0300(14) 0.0270(13) 0.0362(13) -0.0083(11) -0.0101(11) -0.0025(11)
C12 0.0350(16) 0.0322(14) 0.0603(18) -0.0048(13) -0.0159(14) -0.0084(12)
C13 0.0475(18) 0.0286(15) 0.0654(19) -0.0051(15) -0.0103(15) -0.0081(13)
C14 0.055(2) 0.0449(19) 0.071(2) -0.0059(19) -0.0335(19) 0.0116(17)
C21 0.0289(15) 0.0374(14) 0.0356(14) -0.0092(11) -0.0082(11) -0.0031(11)
C22 0.0286(14) 0.0296(13) 0.0378(14) -0.0052(11) -0.0111(11) 0.0012(11)
C23 0.0390(16) 0.0323(14) 0.0372(14) -0.0033(12) -0.0196(12) -0.0030(12)
C24 0.065(2) 0.061(2) 0.0387(18) -0.0218(17) -0.0002(16) -0.0089(19)
N1 0.0246(11) 0.0495(13) 0.0387(12) -0.0048(11) -0.0071(9) -0.0065(10)
N2 0.0256(12) 0.0517(14) 0.0403(13) -0.0150(12) -0.0083(9) -0.0118(10)
N3 0.073(2) 0.098(2) 0.0387(14) 0.0038(15) -0.0139(13) -0.0398(17)
N11 0.0294(11) 0.0264(10) 0.0332(11) -0.0049(9) -0.0100(9) -0.0011(9)
N12 0.0346(12) 0.0287(11) 0.0419(12) -0.0036(10) -0.0123(10) 0.0017(9)
N21 0.0279(11) 0.0299(11) 0.0310(10) -0.0075(9) -0.0118(9) 0.0010(9)
N22 0.0393(13) 0.0318(11) 0.0270(10) -0.0060(9) -0.0058(9) -0.0052(9)
Ni 0.0234(3) 0.0293(2) 0.0299(2) -0.00662(18) -0.00864(18) -0.00103(18)
loop_
_atom_type_symbol
_atom_type_description
_atom_type_scat_dispersion_real
_atom_type_scat_dispersion_imag
_atom_type_scat_source
C C 0.0033 0.0016 'International Tables Vol C Tables 4.2.6.8 and 6.1.1.4'
H H 0.0000 0.0000 'International Tables Vol C Tables 4.2.6.8 and 6.1.1.4'
N N 0.0061 0.0033 'International Tables Vol C Tables 4.2.6.8 and 6.1.1.4'
Ni Ni 0.3393 1.1124 'International Tables Vol C Tables 4.2.6.8 and 6.1.1.4'
loop_
_geom_angle_atom_site_label_1
_geom_angle_atom_site_label_2
_geom_angle_atom_site_label_3
_geom_angle
_geom_angle_site_symmetry_1
_geom_angle_site_symmetry_3
_geom_angle_publ_flag
N11 C11 N12 111.2(2) . . ?
C13 C12 N11 110.0(3) . . ?
C12 C13 N12 106.5(2) . . ?
N21 C21 N22 112.1(2) . . ?
C23 C22 N21 110.0(2) . . ?
C22 C23 N22 106.0(2) . . ?
N2 N1 Ni 126.68(17) . . ?
N3 N2 N1 177.7(3) . . ?
C11 N11 C12 105.4(2) . . ?
C11 N11 Ni 131.24(17) . . ?
C12 N11 Ni 123.01(17) . . ?
C11 N12 C13 106.8(2) . . ?
C11 N12 C14 126.6(3) . . ?
C13 N12 C14 126.6(3) . . ?
C21 N21 C22 104.8(2) . . ?
C21 N21 Ni 126.58(17) . . ?
C22 N21 Ni 128.64(17) . . ?
C21 N22 C23 107.1(2) . . ?
C21 N22 C24 127.0(3) . . ?
C23 N22 C24 125.8(3) . . ?
N21 Ni N21 180.0 . 2_667 ?
N21 Ni N11 87.83(7) . 2_667 ?
N21 Ni N11 92.17(7) 2_667 2_667 ?
N21 Ni N11 92.17(7) . . ?
N21 Ni N11 87.83(7) 2_667 . ?
N11 Ni N11 180.00(10) 2_667 . ?
N21 Ni N1 88.55(8) . 2_667 ?
N21 Ni N1 91.45(8) 2_667 2_667 ?
N11 Ni N1 90.89(8) 2_667 2_667 ?
N11 Ni N1 89.11(8) . 2_667 ?
N21 Ni N1 91.45(8) . . ?
N21 Ni N1 88.55(8) 2_667 . ?
N11 Ni N1 89.11(8) 2_667 . ?
N11 Ni N1 90.89(8) . . ?
N1 Ni N1 180.0 2_667 . ?
loop_
_geom_bond_atom_site_label_1
_geom_bond_atom_site_label_2
_geom_bond_distance
_geom_bond_site_symmetry_2
_geom_bond_publ_flag
C11 N11 1.317(3) . ?
C11 N12 1.348(3) . ?
C12 C13 1.342(4) . ?
C12 N11 1.371(3) . ?
C13 N12 1.367(4) . ?
C14 N12 1.467(4) . ?
C21 N21 1.318(3) . ?
C21 N22 1.339(3) . ?
C22 C23 1.353(4) . ?
C22 N21 1.378(3) . ?
C23 N22 1.369(3) . ?
C24 N22 1.460(4) . ?
N1 N2 1.184(3) . ?
N1 Ni 2.129(2) . ?
N2 N3 1.162(3) . ?
N11 Ni 2.1196(18) . ?
N21 Ni 2.0969(19) . ?
Ni N21 2.0970(19) 2_667 ?
Ni N11 2.1196(18) 2_667 ?
Ni N1 2.129(2) 2_667 ?
loop_
_geom_hbond_atom_site_label_D
_geom_hbond_atom_site_label_H
_geom_hbond_atom_site_label_A
_geom_hbond_distance_DH
_geom_hbond_distance_HA
_geom_hbond_distance_DA
_geom_hbond_angle_DHA
_geom_hbond_site_symmetry_A
C11 H14 N1 0.93(2) 2.66(2) 3.580(3) 169.7(18) 1_455
C14 H14A N3 0.93(4) 2.70(4) 3.562(5) 154(3) 1_455
C22 H22 N1 0.97(3) 2.52(3) 3.414(3) 154(2) 1_455
C23 H23 N3 0.95(3) 2.43(3) 3.320(4) 155(2) 2_666
C24 H24C N3 1.02(4) 2.54(4) 3.546(5) 169(3) 2_766
loop_
_geom_torsion_atom_site_label_1
_geom_torsion_atom_site_label_2
_geom_torsion_atom_site_label_3
_geom_torsion_atom_site_label_4
_geom_torsion
_geom_torsion_site_symmetry_1
_geom_torsion_site_symmetry_2
_geom_torsion_site_symmetry_3
_geom_torsion_site_symmetry_4
_geom_torsion_publ_flag
N11 C12 C13 N12 -0.4(3) . . . . ?
N21 C22 C23 N22 0.9(3) . . . . ?
N12 C11 N11 C12 0.4(3) . . . . ?
N12 C11 N11 Ni -172.96(15) . . . . ?
C13 C12 N11 C11 0.0(3) . . . . ?
C13 C12 N11 Ni 174.02(19) . . . . ?
N11 C11 N12 C13 -0.6(3) . . . . ?
N11 C11 N12 C14 177.6(3) . . . . ?
C12 C13 N12 C11 0.6(3) . . . . ?
C12 C13 N12 C14 -177.6(3) . . . . ?
N22 C21 N21 C22 0.0(3) . . . . ?
N22 C21 N21 Ni 178.53(14) . . . . ?
C23 C22 N21 C21 -0.6(3) . . . . ?
C23 C22 N21 Ni -179.05(16) . . . . ?
N21 C21 N22 C23 0.5(3) . . . . ?
N21 C21 N22 C24 -176.0(3) . . . . ?
C22 C23 N22 C21 -0.9(3) . . . . ?
C22 C23 N22 C24 175.7(3) . . . . ?
