#------------------------------------------------------------------------------
#$Date: 2021-10-20 02:22:44 +0300 (Wed, 20 Oct 2021) $
#$Revision: 270042 $
#$URL: file:///home/coder/svn-repositories/cod/cif/7/70/85/7708593.cif $
#------------------------------------------------------------------------------
#
# This file is available in the Crystallography Open Database (COD),
# http://www.crystallography.net/
#
# All data on this site have been placed in the public domain by the
# contributors.
#
data_7708593
loop_
_publ_author_name
'Jin, Jian-Ce'
'Zhuang, Ting-Hui'
'Lin, Yang-Peng'
'Lin, Bing-Ye'
'Jiang, Jiang'
'Du, Kezhao'
'Huang, Xiao-ying'
_publ_section_title
;
 Ionic Indium (III) Chloride Hybrids Incorporating
 2,2&#x2019;-bipyrimidine Ligand: Studies on Photoluminescence and
 Structural Transformation
;
_journal_name_full               'Dalton Transactions'
_journal_paper_doi               10.1039/D1DT03264J
_journal_year                    2021
_chemical_formula_sum            'C26 H34 Cl8 In2 N6'
_chemical_formula_weight         943.83
_space_group_crystal_system      triclinic
_space_group_IT_number           2
_space_group_name_Hall           '-P 1'
_space_group_name_H-M_alt        'P -1'
_atom_sites_solution_hydrogens   geom
_audit_creation_method           SHELXL-2018/3
_audit_update_record
;
2021-07-31 deposited with the CCDC.	2021-10-18 downloaded from the CCDC.
;
_cell_angle_alpha                64.232(9)
_cell_angle_beta                 73.673(8)
_cell_angle_gamma                83.411(6)
_cell_formula_units_Z            1
_cell_length_a                   8.5386(6)
_cell_length_b                   10.7576(8)
_cell_length_c                   11.5924(14)
_cell_measurement_reflns_used    5283
_cell_measurement_temperature    290(2)
_cell_measurement_theta_max      26.0400
_cell_measurement_theta_min      3.1760
_cell_volume                     920.23(17)
_computing_structure_refinement  'SHELXL-2018/3 (Sheldrick, 2018)'
_computing_structure_solution    'SHELXT 2014/5 (Sheldrick, 2014)'
_diffrn_ambient_temperature      290(2)
_diffrn_measured_fraction_theta_full 1.000
_diffrn_measured_fraction_theta_max 0.905
_diffrn_measurement_device_type  'SuperNova, Dual, Cu at home/near, Atlas'
_diffrn_radiation_type           MoK\a
_diffrn_radiation_wavelength     0.71073
_diffrn_reflns_av_R_equivalents  0.0721
_diffrn_reflns_av_unetI/netI     0.0722
_diffrn_reflns_Laue_measured_fraction_full 1.000
_diffrn_reflns_Laue_measured_fraction_max 0.905
_diffrn_reflns_limit_h_max       11
_diffrn_reflns_limit_h_min       -11
_diffrn_reflns_limit_k_max       15
_diffrn_reflns_limit_k_min       -15
_diffrn_reflns_limit_l_max       16
_diffrn_reflns_limit_l_min       -16
_diffrn_reflns_number            21945
_diffrn_reflns_point_group_measured_fraction_full 1.000
_diffrn_reflns_point_group_measured_fraction_max 0.905
_diffrn_reflns_theta_full        25.242
_diffrn_reflns_theta_max         30.358
_diffrn_reflns_theta_min         2.019
_exptl_absorpt_coefficient_mu    1.861
_exptl_absorpt_correction_T_max  1.00000
_exptl_absorpt_correction_T_min  0.50735
_exptl_absorpt_correction_type   multi-scan
_exptl_crystal_colour            light-brown
_exptl_crystal_density_diffrn    1.703
_exptl_crystal_description       block
_exptl_crystal_F_000             466
_exptl_crystal_size_max          0.350
_exptl_crystal_size_mid          0.300
_exptl_crystal_size_min          0.150
_refine_diff_density_max         1.215
_refine_diff_density_min         -1.137
_refine_diff_density_rms         0.148
_refine_ls_extinction_method     none
_refine_ls_goodness_of_fit_ref   1.057
_refine_ls_hydrogen_treatment    constr
_refine_ls_matrix_type           full
_refine_ls_number_parameters     191
_refine_ls_number_reflns         5010
_refine_ls_number_restraints     0
_refine_ls_restrained_S_all      1.057
_refine_ls_R_factor_all          0.0887
_refine_ls_R_factor_gt           0.0484
_refine_ls_shift/su_max          0.000
_refine_ls_shift/su_mean         0.000
_refine_ls_structure_factor_coef Fsqd
_refine_ls_weighting_details
'w=1/[\s^2^(Fo^2^)+(0.0596P)^2^] where P=(Fo^2^+2Fc^2^)/3'
_refine_ls_weighting_scheme      calc
_refine_ls_wR_factor_gt          0.1093
_refine_ls_wR_factor_ref         0.1313
_reflns_Friedel_coverage         0.000
_reflns_number_gt                3405
_reflns_number_total             5010
_reflns_threshold_expression     'I > 2\s(I)'
_cod_data_source_file            d1dt03264j2.cif
_cod_data_source_block           ck
_cod_original_cell_volume        920.23(16)
_cod_database_code               7708593
_shelx_shelxl_version_number     2018/3
_shelx_space_group_comment
;
The symmetry employed for this shelxl refinement is uniquely defined
by the following loop, which should always be used as a source of
symmetry information in preference to the above space-group names.
They are only intended as comments.
;
_shelx_estimated_absorpt_t_min   0.562
_shelx_estimated_absorpt_t_max   0.768
_shelx_res_file
;
TITL ck_a.res in P-1
    ck.res
    created by SHELXL-2018/3 at 22:13:54 on 03-Feb-2021
REM Old TITL ck in P1
REM SHELXT solution in P-1
REM R1 0.110, Rweak 0.005, Alpha 0.099, Orientation as input
REM Formula found by SHELXT: C13 N3 Cl4 In
CELL 0.71073 8.5386 10.7576 11.5924 64.232 73.673 83.411
ZERR 1 0.0006 0.0008 0.0014 0.009 0.008 0.006
LATT 1
SFAC C H Cl In N
UNIT 26 34 8 2 6

L.S. 10
PLAN  20
SIZE 0.35 0.3 0.15
TEMP 16.85
BOND $H
htab
HTAB C1 Cl3
EQIV $1 -x, -y+2, -z+1
HTAB C3 Cl1_$1
EQIV $2 x-1, y, z
HTAB C3 Cl2_$2
EQIV $3 -x+1, -y+1, -z+1
HTAB C6 Cl3_$3
EQIV $4 -x+1, -y+1, -z+2
HTAB C8 Cl4_$4
HTAB C9 Cl1_$4
EQIV $5 -x, -y+1, -z+2
HTAB C10 Cl4_$5
HTAB C10 Cl3
conf
list 4
fmap 2
acta

WGHT    0.059600
FVAR       0.50130
mole 1
IN1   4    0.233586    0.749256    0.581821    11.00000    0.03553    0.03467 =
         0.04387   -0.01962   -0.01673    0.00678
CL1   3    0.462678    0.730997    0.673993    11.00000    0.04459    0.05774 =
         0.05305   -0.02302   -0.02633    0.00990
CL2   3    0.392425    0.854857    0.350731    11.00000    0.04663    0.06452 =
         0.04420   -0.02343   -0.01125   -0.00461
CL3   3    0.213604    0.521374    0.586348    11.00000    0.07093    0.03673 =
         0.06577   -0.02712   -0.02882    0.00934
CL4   3    0.030665    0.686158    0.797287    11.00000    0.05180    0.06758 =
         0.04881   -0.02736   -0.00349   -0.00715
N1    5    0.006860    0.836366    0.491521    11.00000    0.03314    0.03346 =
         0.04861   -0.02427   -0.01454    0.00475
N2    5   -0.174707    1.022721    0.435652    11.00000    0.03255    0.03643 =
         0.04318   -0.01960   -0.01382    0.00265
C1    1   -0.076445    0.769484    0.453283    11.00000    0.04341    0.03533 =
         0.05267   -0.02359   -0.01747    0.00484
AFIX  43
H1    2   -0.042035    0.682344    0.458718    11.00000   -1.20000
AFIX   0
C2    1   -0.209434    0.824563    0.406850    11.00000    0.04026    0.04403 =
         0.06249   -0.03357   -0.02172    0.00233
AFIX  43
H2    2   -0.266472    0.776640    0.381121    11.00000   -1.20000
AFIX   0
C3    1   -0.256582    0.953675    0.399292    11.00000    0.03623    0.04411 =
         0.05375   -0.02557   -0.02251    0.00383
AFIX  43
H3    2   -0.347540    0.993770    0.368154    11.00000   -1.20000
AFIX   0
C4    1   -0.046399    0.961836    0.479772    11.00000    0.02726    0.03031 =
         0.03602   -0.01718   -0.00797   -0.00257
mole 2
N3    5    0.485316    0.365331    0.897019    11.00000    0.05540    0.05269 =
         0.04353   -0.02182   -0.01965    0.00492
C5    1    0.581741    0.403575    0.774390    11.00000    0.07574    0.04037 =
         0.03902   -0.01486   -0.02117    0.00588
AFIX  43
H5    2    0.537978    0.418423    0.704534    11.00000   -1.20000
AFIX   0
C6    1    0.745926    0.420833    0.752115    11.00000    0.06998    0.04990 =
         0.06171   -0.02299   -0.00605    0.00587
AFIX  43
H6    2    0.813459    0.445960    0.666891    11.00000   -1.20000
AFIX   0
C7    1    0.811230    0.401820    0.852430    11.00000    0.05695    0.05530 =
         0.08993   -0.03110   -0.01975   -0.00222
AFIX  43
H7    2    0.922021    0.416385    0.836698    11.00000   -1.20000
AFIX   0
C8    1    0.709453    0.360499    0.977830    11.00000    0.08599    0.07151 =
         0.07553   -0.03519   -0.04598    0.00837
AFIX  43
H8    2    0.751271    0.344640    1.048916    11.00000   -1.20000
AFIX   0
C9    1    0.549165    0.343007    0.997645    11.00000    0.07419    0.06255 =
         0.04859   -0.02928   -0.02202    0.00810
AFIX  43
H9    2    0.481031    0.314814    1.082968    11.00000   -1.20000
AFIX   0
C10   1    0.305361    0.349063    0.920454    11.00000    0.05547    0.09770 =
         0.07247   -0.02757   -0.01638   -0.00573
AFIX  23
H10A  2    0.249738    0.354203    1.003615    11.00000   -1.20000
H10B  2    0.268670    0.426047    0.850508    11.00000   -1.20000
AFIX   0
C11   1    0.257284    0.222831    0.925106    11.00000    0.08536    0.10381 =
         0.10901   -0.03563   -0.02437   -0.00197
AFIX  23
H11A  2    0.140901    0.224852    0.933275    11.00000   -1.20000
H11B  2    0.313053    0.216473    0.842532    11.00000   -1.20000
AFIX   0
C12   1    0.291895    0.109197    1.027797    11.00000    0.12556    0.09469 =
         0.16409   -0.05400   -0.08266    0.03629
AFIX  23
H12A  2    0.255277    0.123651    1.108163    11.00000   -1.20000
H12B  2    0.409132    0.096324    1.010417    11.00000   -1.20000
AFIX   0
C13   1    0.204447   -0.029970    1.050437    11.00000    0.24305    0.08647 =
         0.24982   -0.04616   -0.14013    0.00624
AFIX 137
H13A  2    0.247780   -0.049368    0.974135    11.00000   -1.50000
H13B  2    0.088897   -0.015879    1.063072    11.00000   -1.50000
H13C  2    0.225309   -0.106389    1.127401    11.00000   -1.50000
AFIX   0
HKLF 4




REM  ck_a.res in P-1
REM wR2 = 0.1313, GooF = S = 1.057, Restrained GooF = 1.057 for all data
REM R1 = 0.0484 for 3405 Fo > 4sig(Fo) and 0.0887 for all 5010 data
REM 191 parameters refined using 0 restraints

END

WGHT      0.0596      0.0000

REM Instructions for potential hydrogen bonds
HTAB C1 Cl3
HTAB C3 Cl1_$1
HTAB C3 Cl2_$2
HTAB C6 Cl3_$3
HTAB C8 Cl4_$4
HTAB C9 Cl1_$4
HTAB C10 Cl4_$5
HTAB C10 Cl3

REM Highest difference peak  1.215,  deepest hole -1.137,  1-sigma level  0.148
Q1    1   0.1606  0.1021  1.0024  11.00000  0.05    1.21
Q2    1   0.2802  0.8014  0.4790  11.00000  0.05    1.05
Q3    1   0.3016 -0.2474  1.2516  11.00000  0.05    1.00
Q4    1   0.2206  0.6856  0.6818  11.00000  0.05    0.96
Q5    1   0.1153  0.7123  0.6779  11.00000  0.05    0.90
Q6    1   0.1584  0.8068  0.4973  11.00000  0.05    0.78
Q7    1   0.3152  0.6965  0.6617  11.00000  0.05    0.77
Q8    1   0.2763  0.7554  0.5773  11.00000  0.05    0.68
Q9    1   0.0900  0.7777  0.6071  11.00000  0.05    0.66
Q10   1   0.3189  0.9781  0.2559  11.00000  0.05    0.64
Q11   1   0.1976  0.7471  0.5782  11.00000  0.05    0.62
Q12   1   0.2432 -0.0375  1.0602  11.00000  0.05    0.62
Q13   1   0.3793  0.7304  0.5426  11.00000  0.05    0.62
Q14   1   0.0157  0.7630  0.7014  11.00000  0.05    0.59
Q15   1   0.4221  0.7776  0.4338  11.00000  0.05    0.57
Q16   1   0.0676 -0.2257  1.1645  11.00000  0.05    0.54
Q17   1   0.6809  0.3765  1.1067  11.00000  0.05    0.54
Q18   1   0.4635  0.7740  0.4929  11.00000  0.05    0.53
Q19   1   0.2225  0.6227  0.7717  11.00000  0.05    0.52
Q20   1   0.0047  0.7275  0.6720  11.00000  0.05    0.50
;
_shelx_res_checksum              65445
_shelx_hkl_file
;
 -11  -7  -8   36.40   17.40
 -11  -6  -8   15.80   13.80
 -11  -2  -7   16.00    9.60
 -11  -1  -8   17.40   11.10
 -11  -1  -7   62.09   19.20
 -11  -1  -6    8.10    9.80
 -11  -1  -5   21.90   12.90
 -11   0  -8    1.20    7.40
 -11   0  -7   -0.40    4.60
 -11   0  -6   61.49   19.90
 -11   0  -5   85.79   21.70
 -11   0  -4   24.50   13.10
 -11   0  -3    1.80    7.80
 -11   0   1   25.10   14.10
 -11   0   2   17.30   12.50
 -11   1  -8   36.00   15.60
 -11   1  -7   61.19   21.10
 -11   1  -6   35.00   16.60
 -11   1  -5  -12.50    9.40
 -11   1  -4   49.90   19.10
 -11   1  -3   82.19   23.00
 -11   1  -2  112.49   26.70
 -11   1   1    1.70    4.80
 -11   1   2    1.90    5.90
 -11   2  -7   28.30   15.60
 -11   2  -6   70.09   22.80
 -11   2  -5  106.79   27.20
 -11   2  -4   60.89   20.80
 -11   2  -3   23.50   14.80
 -11   2  -2    3.70    5.60
 -10  -9 -10   54.99   20.90
 -10  -9  -9   17.30   12.40
 -10  -9  -8    8.10    8.60
 -10  -9  -6    8.20   15.40
 -10  -9  -5   30.00   21.10
 -10  -8 -10   13.80   12.20
 -10  -8  -9   58.69   21.10
 -10  -8  -8  135.19   29.20
 -10  -8  -7   78.09   20.90
 -10  -8  -5    4.50   22.60
 -10  -8  -4    9.90   10.40
 -10  -7 -10   49.30   21.10
 -10  -7  -9   18.20   12.40
 -10  -7  -8   -1.60    6.80
 -10  -7  -7   45.90   16.60
 -10  -7  -3  -12.50   15.40
 -10  -6 -10   27.40   14.20
 -10  -6  -9   21.60   12.20
 -10  -6  -8   34.10   16.20
 -10  -6  -7   27.90   12.70
 -10  -5 -10   87.09   24.40
 -10  -5  -9   31.10   16.30
 -10  -5  -8    7.70    8.10
 -10  -5  -7   45.00   16.50
 -10  -4 -10   40.00   16.30
 -10  -4  -9  202.08   35.50
 -10  -4  -8  148.39   29.80
 -10  -4  -7   92.79   23.20
 -10  -3  -9   31.70   14.10
 -10  -3  -8    3.90    7.80
 -10  -3  -8   13.90    6.80
 -10  -3  -7   29.10   13.80
 -10  -2  -9   96.09   26.20
 -10  -2  -9   93.79   18.50
 -10  -2  -8  186.08   33.60
 -10  -2  -8  139.79   23.00
 -10  -2  -7  123.49   22.10
 -10  -2  -6   21.80   10.50
 -10  -2   1   11.60    9.50
 -10  -2   2   -3.10    7.00
 -10  -1  -9   14.70   12.00
 -10  -1  -9    2.50    3.60
 -10  -1  -8   19.70   11.30
 -10  -1  -7   13.20    6.40
 -10  -1  -6   62.49   17.00
 -10  -1  -5   39.90   14.80
 -10  -1  -4    1.10    6.70
 -10  -1   1   59.89   19.50
 -10  -1   2   41.80   15.70
 -10  -1   3    7.50    8.40
 -10   0  -9   53.39   16.70
 -10   0  -8  134.99   25.10
 -10   0  -7   83.19   19.60
 -10   0  -6   28.80   12.60
 -10   0  -5   -5.90    6.40
 -10   0  -4   74.59   19.70
 -10   0  -3   61.19   17.90
 -10   0  -2   55.09   17.00
 -10   0   0   19.20   10.40
 -10   0   1    6.90    9.30
 -10   0   2    8.50    5.50
 -10   0   3   10.00    6.90
 -10   1 -10   57.89   20.50
 -10   1  -9   17.80   10.60
 -10   1  -8   -6.50    7.10
 -10   1  -7   41.60   15.90
 -10   1  -6  134.39   27.00
 -10   1  -5  118.59   25.80
 -10   1  -4   33.60   14.40
 -10   1  -3   13.80   10.00
 -10   1  -2   10.30    9.20
 -10   1  -1   -6.60    7.50
 -10   1   0   48.00   14.70
 -10   1   1   83.69   21.10
 -10   1   2   63.89   21.20
 -10   1   3   66.69   22.00
 -10   1   4    8.10   11.20
 -10   2  -9   58.59   22.40
 -10   2  -8  105.89   28.00
 -10   2  -7   84.19   23.80
 -10   2  -6   29.50   12.10
 -10   2  -5   -5.80    6.40
 -10   2  -4   48.70   17.00
 -10   2  -3   51.69   17.00
 -10   2  -2   51.79   17.60
 -10   2  -1   66.39   21.30
 -10   2   0   79.09   21.70
 -10   2   0   43.50   13.00
 -10   2   1    3.00    5.70
 -10   2   2   29.50   14.30
 -10   2   3   26.10   14.00
 -10   2   4   42.30   17.40
 -10   3  -8    0.10    6.60
 -10   3  -7   21.90   11.90
 -10   3  -6  111.19   26.90
 -10   3  -5  110.29   26.60
 -10   3  -4   52.39   18.50
 -10   3  -3   -5.50    7.20
 -10   3  -2  -10.20    8.90
 -10   3  -1   11.90    9.80
 -10   3   0   27.00   13.70
 -10   3   1    7.80    6.00
 -10   3   1   44.70   17.40
 -10   3   2   19.20   10.10
 -10   3   3    9.50   10.70
 -10   3   4    4.50    7.80
 -10   4  -5  -15.00   11.30
 -10   4  -4    8.00    8.30
 -10   4  -3   37.20   15.20
 -10   4  -2   55.59   19.20
 -10   4  -1   18.30   11.10
 -10   4   0   56.79   19.30
 -10   4   3   19.80   10.50
 -10   4   4   31.50   14.60
  -9 -11  -6    0.10   10.00
  -9 -10 -11   49.60   21.70
  -9 -10 -10    4.70    6.00
  -9 -10  -9    3.60    7.10
  -9 -10  -8  -23.20   11.50
  -9 -10  -7    1.70   12.40
  -9 -10  -6    9.10   20.10
  -9 -10  -5   17.80   19.80
  -9 -10  -4   -3.50   13.20
  -9  -9 -11    6.20    8.00
  -9  -9 -10   63.29   19.60
  -9  -9  -9   20.70   11.80
  -9  -9  -8   29.10   14.10
  -9  -9  -7   40.60   15.00
  -9  -9  -7   39.60   21.40
  -9  -9  -6  -17.80   15.60
  -9  -9  -5   23.50   18.50
  -9  -9  -4   11.50   15.10
  -9  -9  -3   39.60   25.70
  -9  -8 -11  165.28   32.30
  -9  -8 -10  139.39   29.30
  -9  -8  -9   37.60   15.00
  -9  -8  -8   -0.60    7.00
  -9  -8  -7    7.30    6.70
  -9  -8  -6   85.19   19.20
  -9  -8  -6   56.49   23.90
  -9  -8  -5   27.40   21.40
  -9  -8  -4    8.90   11.90
  -9  -8  -3   31.80   23.00
  -9  -8  -2    5.00   14.30
  -9  -7 -11   -5.50    8.40
  -9  -7 -10  103.69   25.80
  -9  -7  -9   85.19   22.90
  -9  -7  -8   50.69   17.40
  -9  -7  -7   45.70   15.50
  -9  -7  -6   15.80    8.30
  -9  -7  -5  -18.30   15.20
  -9  -7  -4   21.10   14.10
  -9  -7  -3    6.20   16.00
  -9  -7  -2    4.40   17.90
  -9  -7  -1   68.59   36.00
  -9  -6 -11   28.80   14.50
  -9  -6 -10   49.80   17.30
  -9  -6  -9   -8.50    7.60
  -9  -6  -8  -10.60    6.90
  -9  -6  -7   -8.50    7.40
  -9  -6  -6   32.80   12.50
  -9  -6  -4   56.39   25.10
  -9  -6  -3   16.30   17.40
  -9  -6  -2   -4.60   11.50
  -9  -6  -1   10.80   20.00
  -9  -6   0   68.59   33.30
  -9  -5 -11    9.40    8.00
  -9  -5 -10   72.09   21.80
  -9  -5  -9  217.18   35.20
  -9  -5  -8   94.39   22.60
  -9  -5  -7   12.60    9.50
  -9  -5  -6   -0.80    4.20
  -9  -5  -2   38.40   24.80
  -9  -5  -1   56.59   31.60
  -9  -5   0    8.40   14.00
  -9  -5   1   -6.90   13.70
  -9  -4 -11  109.99   26.40
  -9  -4 -10   41.20   17.50
  -9  -4  -9   29.10   13.70
  -9  -4  -8   15.00   10.50
  -9  -4  -7    5.30    4.40
  -9  -4  -6   39.30   13.90
  -9  -4   1   25.80   22.80
  -9  -4   2   22.20   14.80
  -9  -4   2  -13.50   19.00
  -9  -3 -11   39.60   16.30
  -9  -3 -10   -6.30    6.90
  -9  -3  -9  210.18   34.70
  -9  -3  -9  134.19   18.90
  -9  -3  -8  185.78   31.90
  -9  -3  -8  141.79   19.80
  -9  -3  -7  106.19   23.10
  -9  -3  -7  102.19   17.80
  -9  -3  -6   77.79   20.20
  -9  -3   1    9.40    8.40
  -9  -3   2    1.60    7.40
  -9  -3   3    2.40   10.10
  -9  -2 -11  132.19   31.40
  -9  -2 -10  103.29   25.90
  -9  -2 -10   74.69   15.70
  -9  -2  -9   18.40   11.50
  -9  -2  -9   25.70    9.60
  -9  -2  -8   32.90   13.70
  -9  -2  -8   34.80   10.20
  -9  -2  -7   35.20   13.30
  -9  -2  -7   32.20    9.50
  -9  -2  -6    5.80    8.00
  -9  -2  -6    3.90    5.90
  -9  -2  -5   13.60    6.80
  -9  -2   0  117.59   23.30
  -9  -2   1  232.38   35.90
  -9  -2   2   93.29   23.90
  -9  -2   3    9.20    6.80
  -9  -2   4    5.90   10.80
  -9  -1 -10   33.50   16.50
  -9  -1 -10   25.70   10.80
  -9  -1  -9   67.49   19.60
  -9  -1  -9   79.99   17.70
  -9  -1  -8   97.79   23.60
  -9  -1  -8   73.79   17.10
  -9  -1  -7   17.60    5.80
  -9  -1  -7   24.90   11.70
  -9  -1  -7   21.60   10.40
  -9  -1  -6   10.10    3.90
  -9  -1  -6    5.30    5.60
  -9  -1  -5    5.30    4.20
  -9  -1  -4   22.30   10.60
  -9  -1  -3  116.39   22.20
  -9  -1   0   39.10   13.80
  -9  -1   1   -2.40    5.20
  -9  -1   2   47.60   17.20
  -9  -1   3   -6.70    8.00
  -9  -1   4   11.40    9.80
  -9   0 -11   75.79   20.70
  -9   0 -10  119.09   29.90
  -9   0 -10  161.88   27.90
  -9   0  -9   49.30   17.90
  -9   0  -9   56.89   14.60
  -9   0  -9   38.20   13.30
  -9   0  -8   32.10   14.50
  -9   0  -8   28.80   10.70
  -9   0  -8   20.90    9.10
  -9   0  -7  110.99   17.90
  -9   0  -7   94.49   20.80
  -9   0  -6   80.69   18.50
  -9   0  -5   61.39   10.70
  -9   0  -5   55.99   15.70
  -9   0  -5   48.30   12.50
  -9   0  -4   56.59    9.00
  -9   0  -4   66.39   17.40
  -9   0  -3   19.30    5.50
  -9   0  -3   46.30   14.80
  -9   0  -2    1.60    2.50
  -9   0  -2   13.60    8.40
  -9   0   0   38.60   13.10
  -9   0   1  211.98   31.30
  -9   0   2   77.69   20.20
  -9   0   3   10.70    7.50
  -9   0   4  -13.90   10.60
  -9   0   5   12.20   11.10
  -9   1 -11    1.40    6.60
  -9   1 -10   20.10   12.20
  -9   1  -9   91.99   24.10
  -9   1  -9   98.19   21.50
  -9   1  -9   97.99   22.90
  -9   1  -8  141.89   24.10
  -9   1  -8  159.28   28.10
  -9   1  -7   82.19   17.20
  -9   1  -7   50.19   15.80
  -9   1  -6   19.80    8.60
  -9   1  -6   14.00    8.80
  -9   1  -5   21.20    7.90
  -9   1  -5   33.70   12.80
  -9   1  -4    9.90    8.00
  -9   1  -3   78.29   19.20
  -9   1  -2  269.17   36.00
  -9   1  -1  347.57   33.40
  -9   1  -1  353.96   41.60
  -9   1   0  198.68   27.20
  -9   1   0  267.27   37.10
  -9   1   1    6.50    6.60
  -9   1   2   66.29   18.00
  -9   1   3   93.69   22.40
  -9   1   4   11.70   12.60
  -9   1   5   16.50   12.50
  -9   2 -11   18.90   16.80
  -9   2 -10   86.39   25.40
  -9   2  -9   56.79   17.90
  -9   2  -9   40.10   18.00
  -9   2  -8   -1.00    5.00
  -9   2  -8    5.80    5.30
  -9   2  -7   45.30   14.30
  -9   2  -7   53.49   16.90
  -9   2  -6   52.59   14.50
  -9   2  -6   62.89   18.50
  -9   2  -5   80.89   17.10
  -9   2  -5   88.79   22.00
  -9   2  -4   58.89   14.30
  -9   2  -4   78.59   19.10
  -9   2  -3   33.00    9.70
  -9   2  -3   39.50   15.40
  -9   2  -2   -1.50    4.40
  -9   2  -2   -5.80    6.80
  -9   2  -1   14.10    7.20
  -9   2  -1    5.00    4.20
  -9   2  -1   -4.60    7.80
  -9   2   0   57.09   13.00
  -9   2   0   72.89   15.60
  -9   2   0   69.39   19.40
  -9   2   1  154.88   22.20
  -9   2   1  171.58   25.90
  -9   2   1  183.98   31.90
  -9   2   2   79.19   17.10
  -9   2   2   90.29   19.80
  -9   2   3   20.00   11.30
  -9   2   4  -10.70    9.10
  -9   2   5    0.50    4.80
  -9   2   6   14.50   12.50
  -9   3 -10    3.80   13.10
  -9   3  -9   70.39   22.10
  -9   3  -9  106.29   27.70
  -9   3  -8   66.29   20.00
  -9   3  -8   93.29   25.40
  -9   3  -7   25.40   12.20
  -9   3  -7   37.00   16.00
  -9   3  -6   -5.90    6.30
  -9   3  -6   -1.50    4.00
  -9   3  -5    1.20    5.90
  -9   3  -5    1.40    4.60
  -9   3  -4   -4.60    7.50
  -9   3  -4  -14.90    9.80
  -9   3  -3    8.10    6.80
  -9   3  -3   19.20   11.00
  -9   3  -2   28.60   10.20
  -9   3  -2   53.89   17.10
  -9   3  -1   72.29   15.70
  -9   3  -1   64.79   17.50
  -9   3  -1   65.49   12.10
  -9   3   0   91.69   17.80
  -9   3   0   87.89   16.20
  -9   3   0   91.39   22.70
  -9   3   1   15.00    8.80
  -9   3   1   31.10   15.10
  -9   3   1    6.60    6.50
  -9   3   2   38.60   12.00
  -9   3   2   42.30   12.70
  -9   3   2   52.69   19.40
  -9   3   3   83.89   19.30
  -9   3   3   91.59   21.50
  -9   3   4   30.20   13.70
  -9   3   5   33.40   16.10
  -9   3   6   16.60   13.00
  -9   4  -9    7.60   10.90
  -9   4  -8    5.60   10.80
  -9   4  -8   -8.50    9.50
  -9   4  -7   24.00   11.70
  -9   4  -7   38.70   17.30
  -9   4  -6   44.80   17.30
  -9   4  -6  102.39   25.40
  -9   4  -5   82.99   20.90
  -9   4  -5   66.29   20.80
  -9   4  -4   64.79   18.30
  -9   4  -4   70.29   21.30
  -9   4  -3   54.09   16.10
  -9   4  -3   80.39   21.70
  -9   4  -2    0.00    6.30
  -9   4  -2    4.40    7.10
  -9   4  -1   12.30    7.10
  -9   4  -1   40.30   15.10
  -9   4   0   57.19   15.00
  -9   4   0  100.49   24.40
  -9   4   0   73.39   14.00
  -9   4   1  124.39   22.70
  -9   4   1   88.69   17.00
  -9   4   1  127.69   26.90
  -9   4   2   69.69   18.10
  -9   4   2  103.79   24.50
  -9   4   2   73.29   17.50
  -9   4   3    3.00    7.10
  -9   4   3    2.90    5.90
  -9   4   3   11.20   10.50
  -9   4   4    7.20    6.40
  -9   4   4    6.90    6.40
  -9   4   5    8.40    7.60
  -9   4   5    7.90    9.40
  -9   4   6    1.30    7.50
  -9   5  -8   77.29   24.50
  -9   5  -7   37.50   17.90
  -9   5  -6    0.50    6.60
  -9   5  -6    4.90    7.40
  -9   5  -5    5.80    9.80
  -9   5  -5   20.80   14.10
  -9   5  -4   22.40   12.40
  -9   5  -4   22.20   13.80
  -9   5  -3   31.50   14.00
  -9   5  -3   52.59   20.50
  -9   5  -2   61.39   18.20
  -9   5  -2   91.29   23.70
  -9   5  -1   64.29   17.70
  -9   5  -1   67.79   20.60
  -9   5   0   39.70   14.20
  -9   5   0   76.49   22.00
  -9   5   1   14.40    7.90
  -9   5   1   16.90   11.60
  -9   5   2   31.00   13.90
  -9   5   2   25.80   12.00
  -9   5   2   15.60    8.20
  -9   5   3   77.79   19.90
  -9   5   3   68.49   22.10
  -9   5   3   65.69   17.80
  -9   5   4   55.29   17.90
  -9   5   4   91.69   22.20
  -9   5   5   43.60   17.70
  -9   5   5   22.20   11.50
  -9   5   6    1.20    6.30
  -9   5   6   -1.30    5.40
  -9   6  -6   12.70    7.80
  -9   6  -5   52.09   21.30
  -9   6  -4   25.10   14.70
  -9   6  -4   74.19   23.70
  -9   6  -3   30.30   14.60
  -9   6  -3   75.69   22.50
  -9   6  -2   51.99   17.90
  -9   6  -2   66.69   21.60
  -9   6  -1    4.90    6.60
  -9   6  -1   12.80    5.30
  -9   6   0    8.30    8.30
  -9   6   0   26.70   13.90
  -9   6   1   93.99   23.10
  -9   6   1  110.99   27.10
  -9   6   2  114.09   25.20
  -9   6   2   96.49   26.70
  -9   6   3    7.70    7.30
  -9   6   4   18.10   11.80
  -9   6   4   -6.70    7.30
  -9   6   5    4.70    9.00
  -9   6   5   14.90   11.30
  -9   6   6    3.10    9.80
  -9   6   6   10.60   15.90
  -9   7  -5    1.70   11.20
  -9   7  -4   12.60   12.40
  -9   7  -3   18.00   12.60
  -9   7  -2   52.19   20.60
  -9   7  -1   54.59   20.00
  -9   7   0   16.40   10.40
  -9   7   1    6.80    8.50
  -9   7   2   -9.30    9.00
  -9   7   3   22.30   14.00
  -9   7   4   32.30   15.80
  -9   7   5    4.60    5.80
  -9   8  -2    4.80   13.30
  -9   8  -1   10.60   12.70
  -9   8   0    7.90   11.60
  -9   8   1   66.39   23.00
  -9   8   2   32.10   16.60
  -9   8   3   10.20    9.70
  -9   8   4    4.30    8.20
  -8 -12  -6    0.10   18.40
  -8 -12  -5  -11.20   20.30
  -8 -11 -12    5.70   10.00
  -8 -11 -11   27.30   15.90
  -8 -11 -10   13.90    7.60
  -8 -11  -9   22.10   11.70
  -8 -11  -7    3.70   13.70
  -8 -11  -6  -10.40   13.90
  -8 -11  -5    8.20   18.20
  -8 -11  -4   -9.10   14.00
  -8 -10 -12    6.40   11.90
  -8 -10 -11    3.40    7.00
  -8 -10 -10    8.10    7.00
  -8 -10  -9   11.70    8.90
  -8 -10  -8  -10.60    8.00
  -8 -10  -8    5.40   15.70
  -8 -10  -7   35.50   12.50
  -8 -10  -7   14.50    9.30
  -8 -10  -6  -11.60   13.00
  -8 -10  -5    5.80   13.10
  -8 -10  -4    0.30   13.10
  -8 -10  -3   11.60   14.70
  -8  -9 -12   52.09   18.90
  -8  -9 -11   59.39   18.70
  -8  -9 -10   64.99   18.80
  -8  -9  -9   16.00   11.10
  -8  -9  -8    1.60    5.50
  -8  -9  -8    2.60    7.40
  -8  -9  -7   27.00   11.20
  -8  -9  -7    8.50   14.30
  -8  -9  -6  105.19   20.10
  -8  -9  -6   69.99   26.30
  -8  -9  -5  170.88   23.70
  -8  -9  -5   74.49   30.70
  -8  -9  -4   19.90   14.90
  -8  -9  -3    0.10   18.80
  -8  -9  -2    0.10    9.30
  -8  -9  -1   23.00   29.70
  -8  -8 -12   57.39   19.30
  -8  -8 -11  -23.50   12.40
  -8  -8 -10   47.10   15.90
  -8  -8  -9   94.09   22.60
  -8  -8  -8   40.50   14.50
  -8  -8  -7   52.29   15.30
  -8  -8  -7   51.59   19.80
  -8  -8  -6   86.89   18.70
  -8  -8  -6   78.89   25.10
  -8  -8  -5   20.50    9.40
  -8  -8  -5   38.30   19.70
  -8  -8  -4   16.20    8.30
  -8  -8  -3    8.50   16.80
  -8  -8  -2    1.10    8.80
  -8  -8  -1   14.50   20.40
  -8  -8   0    4.10   15.80
  -8  -7 -12   43.90   15.10
  -8  -7 -11   62.49   20.00
  -8  -7 -10   53.59   17.10
  -8  -7  -9   34.50   14.00
  -8  -7  -8   27.70   11.10
  -8  -7  -7   10.50    6.10
  -8  -7  -6   25.30   11.00
  -8  -7  -6   37.50   17.90
  -8  -7  -5  299.17   33.00
  -8  -7  -5  199.18   41.80
  -8  -7  -4  165.98   40.60
  -8  -7  -3   75.49   29.20
  -8  -7  -2    2.40    9.00
  -8  -7  -1   16.50   17.60
  -8  -7   0   31.10   21.00
  -8  -7   1   49.30   25.40
  -8  -6 -12   18.50   11.50
  -8  -6 -11   11.10    7.10
  -8  -6 -10   32.90   14.20
  -8  -6  -9  121.29   24.40
  -8  -6  -8   59.09   16.60
  -8  -6  -7   50.19   15.30
  -8  -6  -6   64.79   15.70
  -8  -6  -5   12.20    7.80
  -8  -6  -5    9.00    7.40
  -8  -6  -4   32.80   10.90
  -8  -6  -4    4.30    9.90
  -8  -6  -3   32.40   19.10
  -8  -6  -2   16.80   15.60
  -8  -6  -1   41.70   23.00
  -8  -6   0   43.90   26.30
  -8  -6   1   22.50   21.30
  -8  -6   2    1.70   19.40
  -8  -5 -12  125.19   27.10
  -8  -5 -11   70.99   20.80
  -8  -5 -10   43.50   15.90
  -8  -5  -9   -2.10    9.00
  -8  -5  -8   45.80   14.80
  -8  -5  -7   13.80    9.70
  -8  -5  -6   27.40   11.20
  -8  -5  -5  196.18   28.00
  -8  -5  -4  380.86   37.60
  -8  -5  -4  296.97   48.50
  -8  -5  -3   14.40   13.50
  -8  -5  -2   21.50   16.70
  -8  -5  -1   20.30   19.50
  -8  -5   0  111.59   35.90
  -8  -5   1  108.09   42.70
  -8  -5   2   10.80   16.70
  -8  -5   3  -17.20   12.00
  -8  -5   3    0.70   13.00
  -8  -4 -12   36.10   16.30
  -8  -4 -11    6.90    7.40
  -8  -4 -10   -4.00    6.70
  -8  -4  -9   89.59   21.20
  -8  -4  -9   93.49   12.20
  -8  -4  -8  157.28   27.50
  -8  -4  -7  157.08   26.30
  -8  -4  -6  144.89   24.50
  -8  -4  -5   82.69   18.00
  -8  -4  -4   33.10   11.80
  -8  -4  -2   88.89   28.00
  -8  -4  -1   17.00   13.20
  -8  -4   0   13.40   14.70
  -8  -4   1   15.20    7.20
  -8  -4   1   53.19   27.00
  -8  -4   2   37.50   16.20
  -8  -4   2   20.00   17.60
  -8  -4   3    4.50    5.30
  -8  -4   3    3.90   11.10
  -8  -4   4   -1.50    9.10
  -8  -4   4  -47.30   31.00
  -8  -3 -12   95.09   25.10
  -8  -3 -11  150.38   29.50
  -8  -3 -10   95.39   16.70
  -8  -3 -10   94.59   24.00
  -8  -3 -10   72.39   12.90
  -8  -3  -9   36.20   14.50
  -8  -3  -9   42.40    9.30
  -8  -3  -9   34.10    9.40
  -8  -3  -8   -0.90    2.90
  -8  -3  -8   -0.30    1.40
  -8  -3  -8   -5.30    7.50
  -8  -3  -8    5.90    3.40
  -8  -3  -8   -1.10    2.00
  -8  -3  -7   17.90   11.00
  -8  -3  -7    8.60    5.50
  -8  -3  -6   55.19   16.50
  -8  -3  -6   46.90   11.20
  -8  -3  -5  237.58   31.00
  -8  -3   0   36.60   13.30
  -8  -3   1  240.58   35.30
  -8  -3   1  181.28   47.20
  -8  -3   2   87.19   22.50
  -8  -3   2   53.39   32.00
  -8  -3   3   36.40   16.40
  -8  -3   3   10.80   15.30
  -8  -3   4   12.00    9.90
  -8  -3   4    5.80   14.50
  -8  -3   5   -1.50    6.80
  -8  -2 -12   12.20    6.10
  -8  -2 -11    3.80    6.00
  -8  -2 -11    6.20    6.00
  -8  -2 -11    1.50    4.90
  -8  -2 -10    9.90    5.90
  -8  -2 -10    4.20    8.30
  -8  -2 -10   12.60    5.20
  -8  -2  -9   19.10    7.40
  -8  -2  -9   12.80    8.00
  -8  -2  -9   27.50    8.70
  -8  -2  -8   73.29   18.60
  -8  -2  -8   40.90    8.10
  -8  -2  -8   70.29   12.30
  -8  -2  -8   68.19   14.10
  -8  -2  -7   23.20   11.00
  -8  -2  -7   23.50    5.50
  -8  -2  -7   41.10    7.90
  -8  -2  -7   42.10   11.30
  -8  -2  -7   25.00    6.80
  -8  -2  -6   94.59   20.40
  -8  -2  -6   56.69    5.70
  -8  -2  -6   92.49   16.50
  -8  -2  -6   98.69   13.90
  -8  -2  -6   72.49    6.90
  -8  -2  -5   88.19   18.80
  -8  -2  -5   61.29   14.50
  -8  -2  -4   12.50    7.50
  -8  -2   0   69.49   16.90
  -8  -2   1    6.80    6.60
  -8  -2   2   49.10   16.20
  -8  -2   3    8.60    8.20
  -8  -2   4    3.70    4.70
  -8  -2   5   28.40   14.90
  -8  -1 -13   13.40    9.90
  -8  -1 -12   76.69   20.70
  -8  -1 -12   99.69   26.30
  -8  -1 -11  107.79   22.30
  -8  -1 -11   67.49   20.60
  -8  -1 -11  120.69   21.30
  -8  -1 -10   40.90   16.20
  -8  -1 -10   35.70   11.90
  -8  -1 -10   35.60   12.20
  -8  -1  -9    0.20    4.60
  -8  -1  -9   16.80    7.50
  -8  -1  -9   16.60    7.90
  -8  -1  -8    2.50    3.60
  -8  -1  -8   -2.20    6.60
  -8  -1  -8    0.70    2.60
  -8  -1  -8   10.00    5.20
  -8  -1  -7  112.49   23.30
  -8  -1  -7  109.79   18.70
  -8  -1  -7  108.39   17.70
  -8  -1  -7  104.29   15.50
  -8  -1  -6   52.39   14.60
  -8  -1  -6   76.09   11.50
  -8  -1  -6   76.79   16.20
  -8  -1  -5   49.60   15.40
  -8  -1  -5   54.29    8.10
  -8  -1  -5   42.20   12.00
  -8  -1  -4  194.78   26.00
  -8  -1  -4  160.48   10.80
  -8  -1  -3  118.09   21.30
  -8  -1  -2    4.30    4.30
  -8  -1  -1   23.00    8.60
  -8  -1   0   24.60    9.10
  -8  -1   1  112.49   22.60
  -8  -1   2   74.09   19.00
  -8  -1   3   13.40   10.30
  -8  -1   4    6.50    5.10
  -8  -1   5   -5.30    7.50
  -8  -1   6   28.40   15.80
  -8   0 -13   65.99   22.40
  -8   0 -12   14.20   10.40
  -8   0 -11   -0.50    7.70
  -8   0 -11    8.90    7.20
  -8   0 -11   20.20   11.00
  -8   0 -10   94.59   24.50
  -8   0 -10   80.99   19.10
  -8   0 -10   71.59   18.00
  -8   0  -9   30.90   11.30
  -8   0  -9   39.90   12.00
  -8   0  -9   29.00   11.10
  -8   0  -8   60.29   18.20
  -8   0  -8   64.29   15.00
  -8   0  -8   46.20   13.30
  -8   0  -8   69.09   17.50
  -8   0  -7   42.40   11.60
  -8   0  -7   47.60   16.30
  -8   0  -7   27.30   11.60
  -8   0  -7   44.70   13.50
  -8   0  -6   96.09   21.90
  -8   0  -6   63.49   15.40
  -8   0  -6   63.19   14.60
  -8   0  -5   28.10    7.50
  -8   0  -5   27.90   10.50
  -8   0  -5   28.60    9.20
  -8   0  -4   13.10    5.30
  -8   0  -4    3.30    5.70
  -8   0  -4    8.80    5.10
  -8   0  -3  225.98   29.30
  -8   0  -3  217.18   18.00
  -8   0  -2  494.65   27.90
  -8   0  -2  511.65   45.30
  -8   0  -1  311.07   23.20
  -8   0  -1  359.56   38.50
  -8   0  -1  382.06   34.00
  -8   0   0   65.29   15.00
  -8   0   1    3.40    3.90
  -8   0   2  159.08   27.30
  -8   0   3  145.19   26.80
  -8   0   4   11.40    9.10
  -8   0   5  -17.60   11.30
  -8   0   6    9.30    6.70
  -8   1 -12   34.20   16.50
  -8   1 -12   47.60   17.30
  -8   1 -11   80.99   21.40
  -8   1 -11   74.59   23.00
  -8   1 -11   70.59   20.50
  -8   1 -10   65.79   20.60
  -8   1 -10   67.19   17.80
  -8   1 -10   82.39   20.70
  -8   1  -9   46.60   18.70
  -8   1  -9   57.19   15.90
  -8   1  -9   52.19   16.60
  -8   1  -8   25.60   11.20
  -8   1  -8   27.20   12.90
  -8   1  -8   23.40    9.60
  -8   1  -7    6.60    6.00
  -8   1  -7   10.20    8.80
  -8   1  -7    7.20    5.40
  -8   1  -6   83.19   16.30
  -8   1  -6   84.79   18.40
  -8   1  -6   86.19   18.40
  -8   1  -5  268.87   33.30
  -8   1  -5  294.77   32.30
  -8   1  -5  297.77   29.30
  -8   1  -4  510.45   45.50
  -8   1  -4  429.96   38.50
  -8   1  -3  450.75   43.50
  -8   1  -2    9.10    7.50
  -8   1  -2   45.50   14.70
  -8   1  -1   45.70   10.30
  -8   1  -1   41.10   13.90
  -8   1  -1   40.20   11.00
  -8   1   0   90.89   19.70
  -8   1   0   84.29   16.20
  -8   1   1  105.89   16.60
  -8   1   1   96.79   18.80
  -8   1   2  135.99   24.40
  -8   1   3   13.10    8.70
  -8   1   4    8.60    8.10
  -8   1   5   14.00    9.30
  -8   1   6    2.20    5.70
  -8   1   7   53.59   21.30
  -8   2 -12   23.90   16.10
  -8   2 -11    1.60    5.70
  -8   2 -11    5.50    7.60
  -8   2 -10   34.40   15.20
  -8   2 -10   42.70   17.30
  -8   2 -10   37.20   14.70
  -8   2  -9   45.60   16.00
  -8   2  -9   43.30   16.60
  -8   2  -9   43.20   16.90
  -8   2  -8   45.40   14.70
  -8   2  -8   70.89   20.40
  -8   2  -8   49.70   16.50
  -8   2  -7   50.39   14.50
  -8   2  -7   39.40   13.70
  -8   2  -6   16.00    7.90
  -8   2  -6    6.90    7.80
  -8   2  -5    0.70    5.50
  -8   2  -5   14.80    9.00
  -8   2  -4   10.00    7.20
  -8   2  -4   12.80    5.60
  -8   2  -4    2.80    4.10
  -8   2  -3   51.39   12.70
  -8   2  -3   64.29   16.40
  -8   2  -3   65.99   15.50
  -8   2  -2  455.75   45.40
  -8   2  -2  375.76   32.70
  -8   2  -1  364.86   30.00
  -8   2  -1  393.46   43.60
  -8   2  -1  334.37   31.00
  -8   2   0  140.89   20.20
  -8   2   0  171.58   29.00
  -8   2   0  150.38   20.80
  -8   2   1   67.09   14.40
  -8   2   1   74.59   19.40
  -8   2   1   81.29   16.80
  -8   2   2   15.80    7.40
  -8   2   2   11.90    6.40
  -8   2   2    9.40    7.80
  -8   2   3  101.19   19.60
  -8   2   3   91.59   20.40
  -8   2   4   69.59   19.40
  -8   2   5   24.50   12.70
  -8   2   6   50.69   18.80
  -8   2   7   -2.70    6.50
  -8   3 -11   41.60   19.90
  -8   3 -11   16.40   12.90
  -8   3 -10   25.80   14.10
  -8   3 -10   14.00   12.10
  -8   3  -9   -9.90    8.50
  -8   3  -9    3.70    6.40
  -8   3  -8    3.00    6.80
  -8   3  -8  -26.20   12.80
  -8   3  -7   -3.00    7.90
  -8   3  -7   -2.00    5.20
  -8   3  -6   33.90   13.30
  -8   3  -6    8.80    5.40
  -8   3  -5   47.70   15.20
  -8   3  -5   52.89   16.20
  -8   3  -4   75.99   17.70
  -8   3  -4   99.29   21.40
  -8   3  -3  147.29   26.50
  -8   3  -3  164.48   24.50
  -8   3  -2    8.10    5.70
  -8   3  -2   28.80   13.20
  -8   3  -1   64.59   14.80
  -8   3  -1   96.29   22.00
  -8   3   0  193.28   22.20
  -8   3   0  206.18   32.00
  -8   3   0  199.28   25.80
  -8   3   1   94.99   18.40
  -8   3   1  107.29   18.50
  -8   3   1  129.89   25.90
  -8   3   2   63.99   15.90
  -8   3   2   98.09   23.10
  -8   3   2   95.79   19.30
  -8   3   3    4.70    6.30
  -8   3   3    3.90    6.10
  -8   3   3   10.90    8.00
  -8   3   4    0.40    4.30
  -8   3   4   -5.40    7.60
  -8   3   5   -0.10    5.80
  -8   3   6    7.50    9.10
  -8   3   7   41.00   18.30
  -8   4 -10   28.80   17.30
  -8   4  -9   28.00   14.90
  -8   4  -9   80.99   23.40
  -8   4  -8   78.49   23.80
  -8   4  -8   79.19   22.90
  -8   4  -7   64.99   19.60
  -8   4  -7   79.89   22.50
  -8   4  -6   16.90   10.60
  -8   4  -6   16.90   11.30
  -8   4  -5    0.20    5.70
  -8   4  -5   -6.80    7.80
  -8   4  -4   29.60   12.10
  -8   4  -4   35.80   15.10
  -8   4  -3   50.99   14.80
  -8   4  -3   56.09   17.20
  -8   4  -2  344.47   41.90
  -8   4  -2  276.77   33.90
  -8   4  -1  115.09   13.90
  -8   4  -1  174.98   29.40
  -8   4  -1  160.08   25.90
  -8   4   0   30.60   10.80
  -8   4   0   47.30   10.40
  -8   4   0   56.19   18.20
  -8   4   1   -2.50    8.20
  -8   4   1   -7.00    7.20
  -8   4   1    5.80    4.90
  -8   4   2   26.20   10.60
  -8   4   2    6.90    4.90
  -8   4   2   18.70   11.90
  -8   4   3   94.99   20.50
  -8   4   3  109.49   21.70
  -8   4   3  114.19   25.30
  -8   4   4   94.39   21.40
  -8   4   4   79.39   20.60
  -8   4   5   40.70   14.80
  -8   4   5   24.40   10.90
  -8   4   6   27.50   14.80
  -8   4   7   -9.90    9.40
  -8   5  -9    8.20   12.20
  -8   5  -8   -4.60    7.70
  -8   5  -8   38.70   17.10
  -8   5  -7    4.00    8.30
  -8   5  -7   15.40   13.20
  -8   5  -6   55.39   18.30
  -8   5  -6   69.59   22.00
  -8   5  -5   49.60   17.20
  -8   5  -5   20.50   12.70
  -8   5  -4  119.99   25.50
  -8   5  -4  116.29   26.40
  -8   5  -3  178.78   30.10
  -8   5  -3  208.58   34.90
  -8   5  -2   68.59   18.40
  -8   5  -2   74.79   21.30
  -8   5  -1   27.20   10.80
  -8   5  -1   33.80   13.80
  -8   5   0  276.17   38.70
  -8   5   0  228.38   31.80
  -8   5   1  206.68   23.60
  -8   5   1  205.28   34.90
  -8   5   1  173.58   28.50
  -8   5   2  166.18   23.30
  -8   5   2  148.29   29.70
  -8   5   2  178.08   28.20
  -8   5   3   22.30   12.30
  -8   5   3   33.10   12.30
  -8   5   3   25.50   12.00
  -8   5   4    6.50    6.70
  -8   5   4    2.20    5.10
  -8   5   4   -6.20    9.00
  -8   5   5    7.70    9.10
  -8   5   5   13.40    9.90
  -8   5   6    7.30    8.80
  -8   5   6    7.80    5.60
  -8   5   7   -1.70    7.40
  -8   5   7   13.70    9.00
  -8   6  -7   64.79   22.10
  -8   6  -6   54.29   20.10
  -8   6  -6   49.40   19.50
  -8   6  -5    2.70    6.30
  -8   6  -5    8.00    9.20
  -8   6  -4   -0.10    6.50
  -8   6  -4    4.40    8.90
  -8   6  -3    5.60    7.00
  -8   6  -3    4.70    6.50
  -8   6  -2  122.09   26.30
  -8   6  -2  155.28   31.00
  -8   6  -1  172.78   30.10
  -8   6  -1  209.58   34.60
  -8   6   0   79.09   20.80
  -8   6   0   73.89   21.10
  -8   6   1   -5.20    7.20
  -8   6   1   -8.40    8.40
  -8   6   1    8.40    4.90
  -8   6   2   -5.90    9.00
  -8   6   2    8.70    5.80
  -8   6   2   -3.00    8.40
  -8   6   3   16.60    9.90
  -8   6   3   11.90    9.30
  -8   6   3   20.50    9.80
  -8   6   4   80.19   21.20
  -8   6   4   74.39   21.40
  -8   6   4   58.89   17.70
  -8   6   5   72.19   21.60
  -8   6   5   67.89   20.70
  -8   6   5   41.90   17.60
  -8   6   6   51.59   19.00
  -8   6   6   79.09   23.20
  -8   6   7   78.69   24.80
  -8   6   7   45.20   19.50
  -8   6   8    4.50    9.00
  -8   7  -6   16.20   13.30
  -8   7  -5   18.20   11.80
  -8   7  -4   84.09   24.70
  -8   7  -4   60.79   20.40
  -8   7  -3   33.20   14.20
  -8   7  -3   66.59   22.20
  -8   7  -2   70.69   20.80
  -8   7  -2   49.20   17.40
  -8   7  -1  -25.80   13.10
  -8   7  -1   -4.90    7.10
  -8   7   0   35.30   15.00
  -8   7   0   64.09   21.20
  -8   7   1   69.19   20.70
  -8   7   1  106.09   26.00
  -8   7   2   42.90   16.50
  -8   7   2   69.79   21.70
  -8   7   3   34.40   13.90
  -8   7   3   52.49   19.80
  -8   7   3   41.20   12.30
  -8   7   4   20.70   12.30
  -8   7   4    1.50    5.10
  -8   7   4    3.10    8.60
  -8   7   5   13.30   10.60
  -8   7   5    4.70    8.50
  -8   7   5   16.30   10.80
  -8   7   6   19.60   12.90
  -8   7   6   19.40   12.70
  -8   7   7    6.70    8.90
  -8   7   7   27.90   16.80
  -8   8  -4    7.20   11.80
  -8   8  -3   19.20   13.40
  -8   8  -2   65.79   22.70
  -8   8  -1   87.09   25.80
  -8   8  -1  119.59   28.50
  -8   8   0    6.30    7.20
  -8   8   0    5.50    7.50
  -8   8   1    8.60   10.60
  -8   8   1   20.00   13.00
  -8   8   2    5.10    6.80
  -8   8   2   13.00   11.60
  -8   8   3   37.90   15.90
  -8   8   3   32.80   15.30
  -8   8   4   40.10   18.60
  -8   8   5  -11.30   10.00
  -8   8   5   12.00    7.00
  -8   8   6   -7.40    7.60
  -8   8   6    8.70    8.90
  -8   8   7    5.60    9.10
  -8   9  -1   -2.70    7.90
  -8   9   0   42.00   18.80
  -8   9   1   55.09   23.00
  -8   9   2   40.40   18.90
  -8   9   3    7.80    9.20
  -8   9   4    2.20    7.00
  -7 -13  -7    7.10   17.60
  -7 -13  -6   38.50   24.90
  -7 -12 -12    6.00   14.80
  -7 -12 -11   50.69   19.70
  -7 -12 -10   92.39   24.50
  -7 -12  -9   37.20   14.50
  -7 -12  -7    2.00   10.50
  -7 -12  -6    0.10   20.00
  -7 -12  -5   17.00   22.10
  -7 -12  -4   -6.70   15.30
  -7 -11 -12   -6.30    7.80
  -7 -11 -11  -10.00    8.90
  -7 -11 -10    0.20    7.30
  -7 -11  -9  -15.80    9.80
  -7 -11  -8   18.90   13.20
  -7 -11  -8   20.10   10.40
  -7 -11  -7   15.40   17.80
  -7 -11  -7   32.20   11.20
  -7 -11  -6   21.80   16.80
  -7 -11  -5  -14.00   14.90
  -7 -11  -4  -21.10   18.40
  -7 -11  -3   13.90   15.30
  -7 -10 -13    6.70    8.40
  -7 -10 -12    9.60    8.90
  -7 -10 -11   20.30   10.80
  -7 -10 -10   67.09   19.10
  -7 -10  -9   17.70   12.10
  -7 -10  -9   53.29   16.70
  -7 -10  -8  -28.90   15.20
  -7 -10  -8    9.10    6.80
  -7 -10  -7   -6.60    9.40
  -7 -10  -7    7.50    8.20
  -7 -10  -6   42.80   18.90
  -7 -10  -6   75.59   16.50
  -7 -10  -5   60.49   26.90
  -7 -10  -4   80.59   28.70
  -7 -10  -3    0.60    8.80
  -7 -10  -2  -18.70   17.30
  -7 -10  -1   17.90   23.10
  -7  -9 -13   78.19   22.60
  -7  -9 -12   11.20   10.00
  -7  -9 -11   -0.80    5.00
  -7  -9 -10    7.90    5.60
  -7  -9  -9   71.39   19.30
  -7  -9  -9  130.49   25.00
  -7  -9  -8  176.48   33.40
  -7  -9  -8  257.57   34.10
  -7  -9  -7   34.00   16.20
  -7  -9  -7   55.89   15.30
  -7  -9  -6   26.90   16.40
  -7  -9  -6   20.00    8.60
  -7  -9  -5   -8.30   13.90
  -7  -9  -5    5.20    3.60
  -7  -9  -4   51.79   23.00
  -7  -9  -4   54.79   11.70
  -7  -9  -3   39.10   20.60
  -7  -9  -2    2.30   19.80
  -7  -9  -1  -40.10   24.00
  -7  -9   0   23.20   22.90
  -7  -8 -13   17.40   11.60
  -7  -8 -12   31.40   13.60
  -7  -8 -11   19.70   10.60
  -7  -8 -10   84.49   20.90
  -7  -8  -9  148.89   26.30
  -7  -8  -8   45.30   16.10
  -7  -8  -8   79.99   19.10
  -7  -8  -7   22.80   12.50
  -7  -8  -7   -0.20    6.90
  -7  -8  -6   32.30   15.40
  -7  -8  -6   44.30   12.60
  -7  -8  -6   27.90   11.40
  -7  -8  -5  165.88   35.70
  -7  -8  -5  261.17   28.50
  -7  -8  -5  173.88   25.70
  -7  -8  -4  134.69   33.80
  -7  -8  -4  231.98   24.90
  -7  -8  -4  169.08   24.10
  -7  -8  -3    9.80    9.90
  -7  -8  -2   -6.30   10.50
  -7  -8  -1    8.00   10.20
  -7  -8   0    1.50   11.20
  -7  -8   1   40.30   24.00
  -7  -7 -13   69.29   21.10
  -7  -7 -12   12.70    8.60
  -7  -7 -11   42.50   13.80
  -7  -7 -10   11.40    6.70
  -7  -7  -9  110.09   23.00
  -7  -7  -8  233.58   31.90
  -7  -7  -7  187.78   32.80
  -7  -7  -7  228.58   30.00
  -7  -7  -7  214.18   31.50
  -7  -7  -6  157.18   31.90
  -7  -7  -6  176.58   25.30
  -7  -7  -6  178.78   27.20
  -7  -7  -5   33.70   15.40
  -7  -7  -5   32.80   10.00
  -7  -7  -5   27.20   10.60
  -7  -7  -4   22.80   10.90
  -7  -7  -4   36.10   10.00
  -7  -7  -4   36.80   11.00
  -7  -7  -3   87.89   17.30
  -7  -7  -3   60.09   23.90
  -7  -7  -3   36.30   10.00
  -7  -7  -2   11.30    7.30
  -7  -7  -2   15.30    5.40
  -7  -7  -1   34.50   14.00
  -7  -7  -1    8.80   14.00
  -7  -7   0   36.40   25.30
  -7  -7   1   22.70   21.80
  -7  -7   2    3.10   14.50
  -7  -7   3    2.90   18.10
  -7  -6 -13   54.09   18.30
  -7  -6 -12   94.19   22.70
  -7  -6 -11   13.70    9.20
  -7  -6 -10   11.30    5.60
  -7  -6  -9   55.09   16.20
  -7  -6  -9   49.20    9.00
  -7  -6  -8   26.80    4.10
  -7  -6  -8   31.40   13.30
  -7  -6  -7   26.20   10.30
  -7  -6  -6    0.00    5.20
  -7  -6  -6   13.80   10.20
  -7  -6  -5  145.09   21.80
  -7  -6  -5  122.09   28.40
  -7  -6  -4  248.78   27.30
  -7  -6  -4  215.48   38.70
  -7  -6  -3   55.19   21.90
  -7  -6  -2    4.00    9.80
  -7  -6  -1  -32.40   18.20
  -7  -6  -1   10.90    6.80
  -7  -6   0   20.20   10.90
  -7  -6   0    9.10   11.90
  -7  -6   1   50.69   26.60
  -7  -6   2   16.10   14.20
  -7  -6   3    9.80   15.40
  -7  -6   4   -0.70   19.10
  -7  -5 -13   50.99   17.30
  -7  -5 -12   -8.20    8.90
  -7  -5 -11    1.40    6.60
  -7  -5 -10    4.90    3.40
  -7  -5 -10   -3.70    8.40
  -7  -5  -9   64.09   17.20
  -7  -5  -9   61.29   11.00
  -7  -5  -9   57.79    6.70
  -7  -5  -8  338.27   38.50
  -7  -5  -8  287.77   18.00
  -7  -5  -7  688.83   53.09
  -7  -5  -6  116.09   20.50
  -7  -5  -5    7.60    3.80
  -7  -5  -5    4.40    8.60
  -7  -5  -4  213.28   25.70
  -7  -5  -4  244.28   40.10
  -7  -5  -3  472.15   37.00
  -7  -5  -3  559.84   62.99
  -7  -5  -2  236.18   43.20
  -7  -5  -1    0.20    9.80
  -7  -5   0   19.30   16.00
  -7  -5   1   -0.10   11.20
  -7  -5   2    8.50    5.50
  -7  -5   2   20.80   16.90
  -7  -5   3   -5.70    8.70
  -7  -5   3  -23.20   19.40
  -7  -5   4   -4.30    7.20
  -7  -5   4    2.10   10.30
  -7  -4 -13   14.90    9.00
  -7  -4 -12   93.19   24.00
  -7  -4 -11  141.69   27.60
  -7  -4 -11  106.89   12.30
  -7  -4 -10   71.59   18.40
  -7  -4 -10   59.09   12.40
  -7  -4 -10   66.99    9.90
  -7  -4  -9  146.99   15.10
  -7  -4  -9  156.98   16.70
  -7  -4  -9  131.19   16.40
  -7  -4  -8    7.90    4.00
  -7  -4  -8   16.50   10.00
  -7  -4  -8   14.90    5.30
  -7  -4  -8   11.20    3.50
  -7  -4  -7    7.70    2.00
  -7  -4  -7   11.50    2.40
  -7  -4  -7   12.30    7.60
  -7  -4  -6   99.79   20.20
  -7  -4  -5  174.88   24.30
  -7  -4  -4  144.89   21.70
  -7  -4  -3  101.89   18.00
  -7  -4  -3   90.89   24.20
  -7  -4  -2   23.80   13.50
  -7  -4  -1   13.70   15.00
  -7  -4   0   35.70   19.60
  -7  -4   1  175.08   28.20
  -7  -4   1  123.19   39.00
  -7  -4   2  254.27   37.00
  -7  -4   2  170.58   50.79
  -7  -4   3   75.09   20.40
  -7  -4   3   34.00   35.50
  -7  -4   4    8.90    8.50
  -7  -4   4   39.90   24.40
  -7  -4   5    4.80   10.10
  -7  -4   5  -37.70   25.40
  -7  -3 -13   67.49   22.10
  -7  -3 -12   11.00    9.50
  -7  -3 -11  -23.10   12.00
  -7  -3 -11   -0.50    3.50
  -7  -3 -10    2.80    4.80
  -7  -3 -10    4.00    4.30
  -7  -3 -10   -8.40    5.50
  -7  -3  -9    0.90    3.10
  -7  -3  -9    1.20    4.50
  -7  -3  -8  334.27   38.10
  -7  -3  -8  287.07   23.50
  -7  -3  -7  862.81   61.19
  -7  -3  -7  811.02   34.20
  -7  -3  -7  897.41   38.40
  -7  -3  -7  993.70   38.60
  -7  -3  -6  606.94   48.30
  -7  -3  -5  626.74   47.20
  -7  -3  -5  550.54   37.10
  -7  -3  -4   24.30    9.40
  -7  -3  -1  137.89   34.80
  -7  -3   0   47.40   13.70
  -7  -3   0   33.80   21.40
  -7  -3   1   36.00   13.60
  -7  -3   1   49.70   25.30
  -7  -3   2    6.90    6.90
  -7  -3   2  -14.80   20.50
  -7  -3   3   49.90   17.40
  -7  -3   3   20.40   20.80
  -7  -3   4   30.80   13.00
  -7  -3   4    9.90   19.70
  -7  -3   5   76.49   22.20
  -7  -3   5   40.20   28.80
  -7  -3   6   43.30   20.00
  -7  -3   6   18.70   18.20
  -7  -2 -13   14.00   10.00
  -7  -2 -12   41.10   18.00
  -7  -2 -12   36.10   11.00
  -7  -2 -11   61.49   19.20
  -7  -2 -11   84.49   15.50
  -7  -2 -10   23.70   11.70
  -7  -2 -10   28.00   10.10
  -7  -2 -10   20.20    7.60
  -7  -2 -10   22.40   10.10
  -7  -2  -9   51.09   11.60
  -7  -2  -9   65.59   18.60
  -7  -2  -9   80.99   14.10
  -7  -2  -9   64.29   13.70
  -7  -2  -8   23.50   10.80
  -7  -2  -8   16.30    5.50
  -7  -2  -8   26.20    8.20
  -7  -2  -7    7.10    6.20
  -7  -2  -7    6.70    2.80
  -7  -2  -7   23.20    7.10
  -7  -2  -7   18.50    6.80
  -7  -2  -7    6.30    3.00
  -7  -2  -6  728.53   53.59
  -7  -2  -6  693.53   42.50
  -7  -2  -6  696.23   36.40
  -7  -2  -6  770.82   33.20
  -7  -2  -5  275.07   12.40
  -7  -2  -5  314.17   28.90
  -7  -2  -5  313.47   13.60
  -7  -2  -5  329.57   22.80
  -7  -2  -4  382.46   36.60
  -7  -2  -4  357.56   31.80
  -7  -2  -3  118.59   19.00
  -7  -2  -1   68.09   14.00
  -7  -2   0   -0.40    5.00
  -7  -2   1   33.60   12.20
  -7  -2   1    2.60   14.90
  -7  -2   2  164.48   27.00
  -7  -2   2   59.59   31.40
  -7  -2   3  146.69   26.90
  -7  -2   3   96.39   36.30
  -7  -2   4   34.50   13.80
  -7  -2   4   22.30   21.60
  -7  -2   5   12.80   10.10
  -7  -2   5   -7.70   10.80
  -7  -2   6   37.40   16.80
  -7  -2   6  -22.80   21.30
  -7  -2   7    8.40   26.50
  -7  -1 -13    6.00    8.50
  -7  -1 -12   -5.80    6.50
  -7  -1 -12    4.40    3.90
  -7  -1 -11   30.90   16.10
  -7  -1 -11   33.30   11.20
  -7  -1 -10   86.49   22.20
  -7  -1 -10   50.19   12.80
  -7  -1  -9    6.90    5.20
  -7  -1  -9    7.90    7.50
  -7  -1  -9   11.70    7.10
  -7  -1  -9   15.00    7.50
  -7  -1  -8   35.30   12.90
  -7  -1  -8   51.29   12.30
  -7  -1  -8   41.00   11.20
  -7  -1  -8   47.20   12.20
  -7  -1  -7   89.79   19.20
  -7  -1  -7   65.19   13.60
  -7  -1  -7   89.79   15.70
  -7  -1  -6  169.88   26.00
  -7  -1  -6  175.68   22.20
  -7  -1  -6  182.98   19.60
  -7  -1  -5   14.70    5.00
  -7  -1  -5    7.70    4.60
  -7  -1  -5   18.70    7.60
  -7  -1  -5   13.60    5.20
  -7  -1  -4   11.50    3.80
  -7  -1  -4   15.30    8.20
  -7  -1  -4   15.00    6.90
  -7  -1  -4    8.50    4.40
  -7  -1  -3  157.78   10.70
  -7  -1  -3  168.88   22.80
  -7  -1  -2  457.85   39.00
  -7  -1  -1  193.68   23.50
  -7  -1   0   36.70   11.10
  -7  -1   1   18.30   10.00
  -7  -1   2   -0.80    4.60
  -7  -1   3  140.19   25.90
  -7  -1   4   66.89   17.50
  -7  -1   5   35.20   14.70
  -7  -1   6   33.60   16.50
  -7  -1   7   -0.30    5.40
  -7   0 -12   31.90   14.80
  -7   0 -12   29.70   13.10
  -7   0 -11   35.90   15.80
  -7   0 -11   36.90   12.80
  -7   0 -10   45.10   15.90
  -7   0 -10   42.60   14.20
  -7   0 -10   42.50   12.90
  -7   0  -9   81.69   17.80
  -7   0  -9   63.49   18.20
  -7   0  -9   70.19   17.30
  -7   0  -9   40.70   14.60
  -7   0  -8  133.59   25.70
  -7   0  -8  134.89   21.50
  -7   0  -8  140.19   22.10
  -7   0  -8   99.89   19.30
  -7   0  -7   -2.40    6.30
  -7   0  -7    6.00    5.00
  -7   0  -7    5.20    4.30
  -7   0  -7    4.70    5.00
  -7   0  -6  414.36   41.80
  -7   0  -6  366.56   34.30
  -7   0  -6  346.47   32.70
  -7   0  -5  552.74   46.90
  -7   0  -5  524.15   41.10
  -7   0  -5  537.05   38.70
  -7   0  -5  565.74   35.90
  -7   0  -4  785.72   51.39
  -7   0  -4  794.52   40.40
  -7   0  -3  210.48   26.80
  -7   0  -3  205.98   18.30
  -7   0  -2   -2.30    3.80
  -7   0  -2    7.80    5.90
  -7   0  -1  454.35   27.10
  -7   0  -1  425.16   33.40
  -7   0  -1  464.85   41.10
  -7   0   0  139.79   15.80
  -7   0   0  160.38   24.60
  -7   0   0  146.99   21.00
  -7   0   1   67.59   14.80
  -7   0   2  108.39   21.90
  -7   0   3  141.99   25.10
  -7   0   4    4.30    5.30
  -7   0   5   15.20   11.10
  -7   0   6   24.10   13.30
  -7   0   7   97.29   25.60
  -7   1 -13   55.79   21.10
  -7   1 -12   64.69   21.20
  -7   1 -12   38.70   17.70
  -7   1 -12   44.30   16.30
  -7   1 -11    3.50    6.00
  -7   1 -11    5.00    6.50
  -7   1 -11   -9.90    7.90
  -7   1 -10    6.40    6.40
  -7   1 -10   20.60    8.90
  -7   1 -10   14.40    9.80
  -7   1  -9   45.20   14.90
  -7   1  -9   63.89   18.90
  -7   1  -9   42.10   14.00
  -7   1  -8   75.29   19.90
  -7   1  -8  107.29   20.60
  -7   1  -8  107.99   21.10
  -7   1  -7  349.27   40.20
  -7   1  -7  369.46   38.00
  -7   1  -7  350.56   36.90
  -7   1  -7  329.37   34.10
  -7   1  -6  425.36   43.20
  -7   1  -6  415.66   39.50
  -7   1  -6  413.36   39.20
  -7   1  -6  422.16   36.80
  -7   1  -5   21.50    8.70
  -7   1  -5   10.40    6.20
  -7   1  -5   12.20    7.80
  -7   1  -5   21.30    9.20
  -7   1  -4    6.80    5.70
  -7   1  -4   -3.80    5.10
  -7   1  -3   75.79   13.00
  -7   1  -3   76.49   16.50
  -7   1  -3  103.29   17.20
  -7   1  -2  383.56   37.40
  -7   1  -2  385.06   28.90
  -7   1  -1  413.66   40.00
  -7   1  -1  366.76   27.80
  -7   1   0  113.19   15.80
  -7   1   0  102.39   16.60
  -7   1   0  111.49   21.50
  -7   1   1   66.89   16.90
  -7   1   1   63.79   14.40
  -7   1   2   29.30    9.40
  -7   1   2   43.00   12.00
  -7   1   3   42.30   14.70
  -7   1   4  226.88   32.70
  -7   1   5  111.49   23.60
  -7   1   6   62.59   18.90
  -7   1   7   -5.70    7.90
  -7   1   8    3.20    7.80
  -7   2 -12    4.50   12.10
  -7   2 -12    0.10    8.50
  -7   2 -11   24.10   11.20
  -7   2 -11   30.80   13.40
  -7   2 -11   29.30   13.10
  -7   2 -10    8.50    8.80
  -7   2 -10   18.60   10.40
  -7   2 -10    8.80    5.80
  -7   2  -9   -3.50   10.60
  -7   2  -9    1.90    3.80
  -7   2  -9    0.50    3.90
  -7   2  -8   38.30   14.20
  -7   2  -8   27.90   12.30
  -7   2  -8   38.50   13.80
  -7   2  -7    2.90    3.80
  -7   2  -7    5.70    6.60
  -7   2  -6    1.40    4.30
  -7   2  -6   17.00    9.40
  -7   2  -5  647.94   51.09
  -7   2  -5  649.74   50.59
  -7   2  -5  586.34   45.20
  -7   2  -4  473.85   43.10
  -7   2  -4  491.05   42.60
  -7   2  -4  483.85   39.30
  -7   2  -3  402.46   39.40
  -7   2  -3  397.26   34.50
  -7   2  -3  382.46   36.70
  -7   2  -2  101.89   20.90
  -7   2  -2   87.39   17.10
  -7   2  -1   68.79   16.40
  -7   2  -1   70.29   11.40
  -7   2   0  162.38   25.90
  -7   2   0  194.28   21.80
  -7   2   1   77.29   14.60
  -7   2   1   79.99   15.80
  -7   2   1  112.39   21.90
  -7   2   2  113.39   18.70
  -7   2   2  105.39   21.70
  -7   2   2  109.09   19.70
  -7   2   3  104.89   19.40
  -7   2   3  109.39   21.20
  -7   2   4   32.00   12.20
  -7   2   4   35.00   12.40
  -7   2   5   -3.50    6.40
  -7   2   6    4.60    8.00
  -7   2   7   60.09   21.00
  -7   2   8   70.19   23.10
  -7   3 -11   14.40   10.70
  -7   3 -11   -5.60    7.10
  -7   3 -10    2.70    8.90
  -7   3 -10    5.30    7.20
  -7   3 -10    0.10    4.30
  -7   3  -9   11.30    8.60
  -7   3  -9   39.60   15.30
  -7   3  -9   35.20   14.40
  -7   3  -8   10.90    8.90
  -7   3  -8   34.80   14.30
  -7   3  -7   87.89   20.40
  -7   3  -7  105.69   23.30
  -7   3  -6   82.69   18.80
  -7   3  -6   81.09   19.70
  -7   3  -5   -5.90    5.40
  -7   3  -5    6.10    6.70
  -7   3  -4   42.10   12.40
  -7   3  -4   23.50    9.10
  -7   3  -3  327.37   36.70
  -7   3  -3  271.77   30.90
  -7   3  -3  239.88   30.50
  -7   3  -2  180.58   27.30
  -7   3  -2  181.28   24.90
  -7   3  -2  196.28   27.10
  -7   3  -1  187.48   28.60
  -7   3  -1  177.98   17.40
  -7   3  -1  190.88   26.50
  -7   3  -1  181.98   24.30
  -7   3   0   -3.50    5.20
  -7   3   0   10.10    7.80
  -7   3   1    1.40    3.50
  -7   3   1   -2.40    4.40
  -7   3   1   -1.50    9.90
  -7   3   2   30.70   11.10
  -7   3   2   46.70   12.10
  -7   3   2   38.80   13.50
  -7   3   3   12.20    7.50
  -7   3   3   -7.50    7.30
  -7   3   3    5.40    5.70
  -7   3   4  115.49   21.90
  -7   3   4  152.38   25.40
  -7   3   5  134.29   25.50
  -7   3   5   98.29   22.20
  -7   3   6   76.89   20.50
  -7   3   7   45.80   16.70
  -7   3   8   -6.80    8.40
  -7   4 -10    1.00    6.00
  -7   4 -10    9.30    9.00
  -7   4  -9    3.90    7.70
  -7   4  -9   14.80   10.20
  -7   4  -8  -11.50    9.30
  -7   4  -8   17.00   10.90
  -7   4  -7   -1.40    8.10
  -7   4  -7    9.00    7.20
  -7   4  -6   15.60    8.70
  -7   4  -6   38.90   15.20
  -7   4  -5  325.27   40.40
  -7   4  -5  308.67   37.40
  -7   4  -4  147.19   26.80
  -7   4  -4  169.58   27.00
  -7   4  -3  256.17   34.10
  -7   4  -3  215.58   30.10
  -7   4  -2   30.70   12.10
  -7   4  -2   12.00    9.60
  -7   4  -1   48.50   13.80
  -7   4  -1   76.49   18.30
  -7   4  -1   83.79   10.60
  -7   4   0  500.65   47.90
  -7   4   0  379.86   37.70
  -7   4   1  319.47   38.60
  -7   4   1  291.47   27.70
  -7   4   1  247.88   30.80
  -7   4   2   95.59   19.20
  -7   4   2  129.49   20.30
  -7   4   2  140.69   26.00
  -7   4   3   88.09   19.40
  -7   4   3  114.69   23.30
  -7   4   3  111.29   20.40
  -7   4   4    0.40    5.80
  -7   4   4    3.70    4.00
  -7   4   5   51.39   16.10
  -7   4   5   64.29   17.90
  -7   4   6   47.80   16.10
  -7   4   6   36.60   15.30
  -7   4   7   52.09   19.20
  -7   4   8   60.59   22.10
  -7   5  -9   35.20   17.10
  -7   5  -9   34.60   14.60
  -7   5  -8   42.90   16.20
  -7   5  -8   40.60   15.30
  -7   5  -7  123.59   27.80
  -7   5  -7  152.68   30.20
  -7   5  -6  145.69   28.40
  -7   5  -6  165.58   30.90
  -7   5  -5   97.39   22.50
  -7   5  -5  122.39   26.00
  -7   5  -4   42.50   14.40
  -7   5  -4   59.19   18.30
  -7   5  -3  271.07   36.50
  -7   5  -3  198.38   30.80
  -7   5  -2  317.87   39.60
  -7   5  -2  286.87   36.40
  -7   5  -1  257.37   16.70
  -7   5  -1  361.36   41.60
  -7   5  -1  325.07   38.40
  -7   5   0   42.20   16.60
  -7   5   0   34.30   13.00
  -7   5   0   51.39    9.70
  -7   5   1   -2.30    5.00
  -7   5   1    1.30    3.60
  -7   5   2   -5.70    7.20
  -7   5   2   -0.30    3.20
  -7   5   3   -3.00    7.40
  -7   5   3    7.70    5.80
  -7   5   3    4.60    5.30
  -7   5   4   28.30   12.70
  -7   5   4   36.00   12.70
  -7   5   4   32.10   13.80
  -7   5   5   76.69   21.00
  -7   5   5   89.59   21.70
  -7   5   5  100.19   22.20
  -7   5   6   23.60   12.60
  -7   5   6   42.40   14.80
  -7   5   7    8.80   11.90
  -7   5   7   27.30   14.00
  -7   5   8   24.60   15.90
  -7   6  -8   12.20   12.80
  -7   6  -7   13.00   12.50
  -7   6  -7   -1.90    6.20
  -7   6  -6    0.70    6.40
  -7   6  -6   -3.90   10.60
  -7   6  -5   50.19   16.40
  -7   6  -5   43.80   16.60
  -7   6  -4  133.09   27.70
  -7   6  -4  171.08   31.40
  -7   6  -3  138.79   27.50
  -7   6  -3  151.28   29.30
  -7   6  -2   44.70   15.80
  -7   6  -2   15.70   10.30
  -7   6  -1    2.40    7.70
  -7   6  -1    0.50    1.00
  -7   6  -1   -2.80    7.70
  -7   6   0   72.29   18.70
  -7   6   0   54.89    9.30
  -7   6   0   73.29   19.60
  -7   6   1  121.79   23.80
  -7   6   1  151.18   28.50
  -7   6   2  111.69   23.40
  -7   6   2  155.48   21.60
  -7   6   2  186.78   31.90
  -7   6   3  346.47   43.50
  -7   6   3  283.97   32.90
  -7   6   3  263.17   36.20
  -7   6   4  161.88   29.20
  -7   6   4  179.68   31.00
  -7   6   4  145.09   25.60
  -7   6   5   11.90    7.40
  -7   6   5    0.30    5.10
  -7   6   5    7.40    7.40
  -7   6   6   -2.50    6.10
  -7   6   6   -6.70    5.30
  -7   6   7   28.60   13.00
  -7   6   7   38.80   17.30
  -7   6   8   38.60   19.50
  -7   6   8   50.49   20.30
  -7   7  -6   83.19   24.80
  -7   7  -6   77.29   23.70
  -7   7  -5   80.59   23.40
  -7   7  -5   73.99   22.40
  -7   7  -4    0.70    6.20
  -7   7  -4    4.80    4.80
  -7   7  -3   30.90   13.70
  -7   7  -3   37.70   15.20
  -7   7  -2  133.29   28.40
  -7   7  -2  176.48   32.50
  -7   7  -1  145.29   29.30
  -7   7  -1  195.18   33.50
  -7   7   0   46.60   16.90
  -7   7   0   66.79   20.00
  -7   7   1   15.30   10.40
  -7   7   1    2.90    5.20
  -7   7   2   26.50   11.90
  -7   7   2   11.50    6.50
  -7   7   2   30.70   14.60
  -7   7   3   16.90   10.00
  -7   7   3   15.20    7.20
  -7   7   3    8.40   10.00
  -7   7   4   23.30   11.40
  -7   7   4   40.30   13.30
  -7   7   5  129.49   27.80
  -7   7   5  129.89   26.70
  -7   7   5  123.59   26.50
  -7   7   6   24.40   13.60
  -7   7   6   56.59   19.00
  -7   7   6   23.70   12.70
  -7   7   7   18.60    9.70
  -7   7   7   54.49   18.70
  -7   7   8   10.60    8.70
  -7   7   8   16.30   15.00
  -7   8  -5   78.29   24.50
  -7   8  -4  102.49   27.00
  -7   8  -4   74.19   23.70
  -7   8  -3  -20.10   12.60
  -7   8  -3  -10.30    9.40
  -7   8  -2    8.90    8.80
  -7   8  -2    3.00    6.30
  -7   8  -1   12.30   10.80
  -7   8  -1   43.80   17.90
  -7   8   0   94.59   25.00
  -7   8   0   76.79   22.30
  -7   8   1   81.19   23.80
  -7   8   1   86.99   23.30
  -7   8   2   58.19   19.00
  -7   8   2   23.20    8.80
  -7   8   2   38.50   17.40
  -7   8   3   16.30    9.10
  -7   8   3   17.80    8.70
  -7   8   3   21.50   12.20
  -7   8   4   10.50    7.70
  -7   8   4    3.70    8.70
  -7   8   4   23.40    9.70
  -7   8   5  -21.20   12.40
  -7   8   5    2.10    6.00
  -7   8   5   -8.60    6.70
  -7   8   6   35.00   17.70
  -7   8   6   47.80   15.60
  -7   8   6   32.70   15.10
  -7   8   7   37.70   16.20
  -7   8   7   18.40   13.40
  -7   8   7   31.50   13.30
  -7   8   8    7.20   12.60
  -7   8   8   22.80   16.00
  -7   9  -3   25.10   16.70
  -7   9  -2   86.79   27.00
  -7   9  -1   74.09   25.00
  -7   9  -1   97.09   26.80
  -7   9   0   28.10   14.90
  -7   9   0   45.20   17.40
  -7   9   1   13.30    7.70
  -7   9   1   -2.40    5.30
  -7   9   2   35.60   15.20
  -7   9   2   22.50   10.90
  -7   9   3   23.70   15.20
  -7   9   3   43.90   16.50
  -7   9   4   51.89   19.90
  -7   9   4   71.19   18.40
  -7   9   4   70.29   22.00
  -7   9   5   71.89   22.90
  -7   9   5   78.99   23.60
  -7   9   5   61.79   18.80
  -7   9   6   36.90   18.00
  -7   9   6   10.50    9.50
  -7   9   6   27.30   14.10
  -7   9   7   15.80   13.50
  -7   9   8    8.20   10.80
  -7  10   0    6.90    8.40
  -7  10   1   56.29   22.40
  -7  10   2   44.30   20.20
  -7  10   3   11.60   10.30
  -7  10   4    6.60   10.30
  -7  10   7    0.80    6.40
  -6 -13 -12   11.10   12.80
  -6 -13 -11   57.49   21.30
  -6 -13 -10   77.79   22.60
  -6 -13  -8  -44.70   23.70
  -6 -13  -7    9.60   17.60
  -6 -13  -6    0.10   19.20
  -6 -13  -5  -18.10   19.10
  -6 -12 -12    3.00    9.30
  -6 -12 -11    1.00    5.90
  -6 -12 -10   24.70   13.30
  -6 -12  -9   93.39   22.00
  -6 -12  -8   42.70   22.30
  -6 -12  -8   77.89   19.50
  -6 -12  -7   36.50   25.50
  -6 -12  -6   22.30   21.40
  -6 -12  -5   18.70   14.90
  -6 -12  -4   -5.10   14.10
  -6 -12  -3  -26.80   22.80
  -6 -11 -13    2.70    5.80
  -6 -11 -12  -13.80   10.10
  -6 -11 -11    4.10    5.20
  -6 -11 -10   62.49   18.80
  -6 -11  -9  115.09   27.60
  -6 -11  -9  137.79   26.30
  -6 -11  -8   -0.50   10.30
  -6 -11  -8   -4.60    3.90
  -6 -11  -7    8.10    7.60
  -6 -11  -7    7.00    6.30
  -6 -11  -6   14.30   16.70
  -6 -11  -6   31.10   10.00
  -6 -11  -5    2.30    9.70
  -6 -11  -4   32.90   25.80
  -6 -11  -3   -2.60   18.10
  -6 -11  -2    4.10   11.00
  -6 -11  -1    1.40   19.40
  -6 -10 -13   49.50   18.90
  -6 -10 -12   18.90   11.70
  -6 -10 -11    0.70    6.00
  -6 -10 -10   12.60    9.30
  -6 -10  -9   45.10   14.40
  -6 -10  -9   61.89   16.90
  -6 -10  -8  191.38   35.90
  -6 -10  -8  201.98   29.60
  -6 -10  -7   71.89   24.30
  -6 -10  -7   79.49   17.60
  -6 -10  -6    9.90    9.60
  -6 -10  -6    6.60    6.50
  -6 -10  -5   10.70   10.20
  -6 -10  -5    4.40    5.20
  -6 -10  -4    9.50   12.40
  -6 -10  -4    8.80    5.20
  -6 -10  -3    3.60   10.30
  -6 -10  -2   12.60   17.80
  -6 -10  -1   25.40   24.30
  -6 -10   0   25.40   26.70
  -6  -9 -13   16.80   11.40
  -6  -9 -12   62.49   18.80
  -6  -9 -11   96.29   22.40
  -6  -9 -10  142.79   26.20
  -6  -9  -9  120.89   22.10
  -6  -9  -9  113.89   22.60
  -6  -9  -8    0.90    5.40
  -6  -9  -8   -3.70    5.10
  -6  -9  -7   47.30   17.90
  -6  -9  -7   27.60   10.70
  -6  -9  -6  123.19   17.30
  -6  -9  -6  107.29   27.60
  -6  -9  -5  155.38   36.00
  -6  -9  -5  170.08   24.60
  -6  -9  -5  254.87   26.90
  -6  -9  -5  194.18   29.10
  -6  -9  -4  178.28   28.90
  -6  -9  -4  175.28   40.00
  -6  -9  -4  222.48   29.80
  -6  -9  -3   45.20   17.40
  -6  -9  -3   47.90   24.30
  -6  -9  -3   31.90   10.90
  -6  -9  -2   19.70   22.80
  -6  -9  -1  -17.70   16.40
  -6  -9   0   24.10   22.70
  -6  -9   1   63.39   30.10
  -6  -8 -14   15.90    9.40
  -6  -8 -13   94.09   23.90
  -6  -8 -12  109.09   24.10
  -6  -8 -11  101.59   22.60
  -6  -8 -10   11.60    7.10
  -6  -8 -10    3.10    5.70
  -6  -8  -9   23.20   10.00
  -6  -8  -9   50.89   11.40
  -6  -8  -9   45.10   14.40
  -6  -8  -8  567.84   49.30
  -6  -8  -8  549.45   48.00
  -6  -8  -8  542.25   34.50
  -6  -8  -7  136.79   28.20
  -6  -8  -7  200.58   27.30
  -6  -8  -7  184.88   18.10
  -6  -8  -6   33.60   13.70
  -6  -8  -6   52.39    6.40
  -6  -8  -6   80.49   16.20
  -6  -8  -6   50.79   14.20
  -6  -8  -5    3.10    2.50
  -6  -8  -5   -5.10   12.70
  -6  -8  -5    4.70    5.10
  -6  -8  -5    2.30    5.70
  -6  -8  -4   20.60   15.80
  -6  -8  -4    1.00    5.10
  -6  -8  -4   21.20    7.40
  -6  -8  -4   12.40    7.40
  -6  -8  -3   57.49   16.40
  -6  -8  -3   59.59   22.70
  -6  -8  -3   90.19   13.00
  -6  -8  -3   73.39   15.20
  -6  -8  -2   51.29   21.60
  -6  -8  -2   26.10   12.30
  -6  -8  -2   44.50   11.20
  -6  -8  -1   18.70   12.10
  -6  -8  -1   21.90   18.10
  -6  -8   0   63.99   30.40
  -6  -8   1   28.70   23.80
  -6  -8   2  -15.50   17.70
  -6  -8   3   -9.40   19.10
  -6  -7 -14    4.40    5.80
  -6  -7 -13  -11.80    9.20
  -6  -7 -12   46.10   15.60
  -6  -7 -11   94.59   21.50
  -6  -7 -11   62.59   14.50
  -6  -7 -11   59.19   10.60
  -6  -7 -10  150.08   26.40
  -6  -7 -10  141.09   12.40
  -6  -7 -10  147.19   21.10
  -6  -7 -10  136.89   12.30
  -6  -7  -9  116.79   23.50
  -6  -7  -9  121.19   17.30
  -6  -7  -8  134.39   21.90
  -6  -7  -8  185.98   27.30
  -6  -7  -8  167.48   17.50
  -6  -7  -7   32.40   13.40
  -6  -7  -7   22.20    5.60
  -6  -7  -7   22.60    8.20
  -6  -7  -7   32.90   12.70
  -6  -7  -6   47.50   16.10
  -6  -7  -6   61.09   13.90
  -6  -7  -6   56.79   14.80
  -6  -7  -5   11.90    9.20
  -6  -7  -5   38.20   10.40
  -6  -7  -5   25.20    9.00
  -6  -7  -4  159.58   20.00
  -6  -7  -4  159.48   33.40
  -6  -7  -4  198.88   22.40
  -6  -7  -4  184.18   24.00
  -6  -7  -3  184.18   25.90
  -6  -7  -3  201.28   38.20
  -6  -7  -2   32.80   17.50
  -6  -7  -2   88.89   20.50
  -6  -7  -2   84.59   14.10
  -6  -7  -1   24.00   13.50
  -6  -7  -1    7.30    9.10
  -6  -7  -1   25.10    7.20
  -6  -7   0   -1.10    6.80
  -6  -7   0   -0.70    3.40
  -6  -7   1   70.09   29.60
  -6  -7   2  103.49   41.50
  -6  -7   3   16.10   13.10
  -6  -7   4    6.40   17.70
  -6  -6 -14   13.80   10.30
  -6  -6 -13   10.20    9.00
  -6  -6 -12   90.69   22.10
  -6  -6 -11   10.10    6.70
  -6  -6 -11   23.20   11.20
  -6  -6 -10    4.90    3.70
  -6  -6 -10    8.80    7.60
  -6  -6 -10    2.80    3.10
  -6  -6  -9   36.80   13.90
  -6  -6  -9   25.70    8.00
  -6  -6  -9   32.20    5.10
  -6  -6  -9   33.00    5.30
  -6  -6  -8  317.67   35.40
  -6  -6  -8  322.97   24.70
  -6  -6  -7  287.77   32.90
  -6  -6  -7  368.16   36.50
  -6  -6  -7  344.67   20.60
  -6  -6  -7  307.87   36.40
  -6  -6  -6  168.48   27.40
  -6  -6  -6  178.98   24.20
  -6  -6  -6  163.58   24.90
  -6  -6  -5   28.60   11.90
  -6  -6  -5   35.60   10.10
  -6  -6  -5   35.00   10.40
  -6  -6  -4   26.80   16.00
  -6  -6  -4   16.90    6.70
  -6  -6  -3  207.98   38.30
  -6  -6  -3  227.28   24.70
  -6  -6  -3  208.98   23.00
  -6  -6  -2  144.49   23.00
  -6  -6  -2  177.28   36.30
  -6  -6  -2  167.88   18.80
  -6  -6  -1   18.40    9.40
  -6  -6  -1   19.60   13.70
  -6  -6  -1   32.40    6.90
  -6  -6   0   38.50   20.10
  -6  -6   0   56.09   18.60
  -6  -6   0   45.10    7.30
  -6  -6   1   -0.10   10.70
  -6  -6   2   19.30   19.10
  -6  -6   3   32.10   13.50
  -6  -6   3  -17.60   17.40
  -6  -6   4    9.40    9.50
  -6  -6   4   27.60   19.80
  -6  -6   5   -5.70    8.90
  -6  -6   5    7.40   20.10
  -6  -5 -14    4.10    5.20
  -6  -5 -13   -3.60    4.70
  -6  -5 -12  104.69   23.30
  -6  -5 -11  302.07   38.40
  -6  -5 -11  242.08   24.30
  -6  -5 -11  224.18   27.80
  -6  -5 -10  308.57   38.20
  -6  -5 -10  299.57   24.30
  -6  -5 -10  260.07   27.50
  -6  -5  -9  154.58   25.70
  -6  -5  -9  163.68   15.60
  -6  -5  -9  137.09   17.70
  -6  -5  -8   21.20    8.70
  -6  -5  -8   26.20    7.00
  -6  -5  -8   29.00    4.50
  -6  -5  -7  459.95   40.80
  -6  -5  -7  392.06   22.80
  -6  -5  -6  412.76   40.60
  -6  -5  -6  469.75   39.40
  -6  -5  -5  278.07   36.60
  -6  -5  -5  268.57   28.10
  -6  -5  -5  229.98   27.70
  -6  -5  -4  127.39   26.70
  -6  -5  -4  116.79   17.60
  -6  -5  -3   55.59   15.70
  -6  -5  -3   66.29   12.50
  -6  -5  -2    7.50    8.70
  -6  -5  -2   11.90    6.70
  -6  -5  -2   17.10    5.70
  -6  -5  -1   13.50    8.00
  -6  -5  -1   15.20    8.20
  -6  -5   0   -4.20    9.60
  -6  -5   0    5.20    5.90
  -6  -5   1   83.69   20.10
  -6  -5   1   43.20   24.30
  -6  -5   1   80.39   21.70
  -6  -5   2  496.05   49.00
  -6  -5   2  354.86   61.69
  -6  -5   3   58.29   17.60
  -6  -5   3   38.10   23.00
  -6  -5   4    1.90    5.10
  -6  -5   4  -33.70   22.50
  -6  -5   5  -15.90   11.20
  -6  -5   5    2.70   20.10
  -6  -5   6   20.10   16.50
  -6  -5   6   -8.70   18.20
  -6  -4 -14   22.90   13.20
  -6  -4 -13   15.90   10.70
  -6  -4 -12   62.49   18.50
  -6  -4 -11    3.70    4.70
  -6  -4 -11    8.70    6.60
  -6  -4 -11    5.70    3.10
  -6  -4 -11    6.50    4.60
  -6  -4 -10   -1.30    4.20
  -6  -4 -10    5.60    5.00
  -6  -4 -10    4.40    2.20
  -6  -4 -10    2.30    3.20
  -6  -4  -9   13.80    8.00
  -6  -4  -9   23.40    7.90
  -6  -4  -9   23.90    5.50
  -6  -4  -9   30.10    7.60
  -6  -4  -8  141.39   23.80
  -6  -4  -8  110.99   11.50
  -6  -4  -8  123.09   13.40
  -6  -4  -8   96.39   13.70
  -6  -4  -7  844.32   29.60
  -6  -4  -7  765.12   34.20
  -6  -4  -7  794.52   35.10
  -6  -4  -6  152.88   23.40
  -6  -4  -6  144.59    9.40
  -6  -4  -5    4.90    4.70
  -6  -4  -4   13.40    6.60
  -6  -4  -4   15.80    9.70
  -6  -4  -3  277.77   26.40
  -6  -4  -3  293.47   39.80
  -6  -4  -2  786.82   69.69
  -6  -4  -1  447.76   55.39
  -6  -4   0  242.58   29.40
  -6  -4   0  164.78   27.20
  -6  -4   0  189.48   39.40
  -6  -4   1   41.60   12.60
  -6  -4   1   50.49   17.10
  -6  -4   1   17.20   11.30
  -6  -4   2    6.70    6.60
  -6  -4   2    2.10    5.90
  -6  -4   2   15.10   21.60
  -6  -4   3   97.49   22.10
  -6  -4   3   83.19   33.40
  -6  -4   4   88.79   21.90
  -6  -4   4   57.39   32.00
  -6  -4   5   14.70    9.40
  -6  -4   5    9.90   19.20
  -6  -4   6   23.50   12.60
  -6  -4   6    7.00   19.30
  -6  -4   7   13.20   23.20
  -6  -3 -14    8.40   10.20
  -6  -3 -13    1.50    8.20
  -6  -3 -12    2.30    6.10
  -6  -3 -12    1.90    2.40
  -6  -3 -11  186.48   30.90
  -6  -3 -11  169.18   23.10
  -6  -3 -10  466.85   47.90
  -6  -3 -10  390.26   35.30
  -6  -3 -10  403.96   34.30
  -6  -3 -10  439.06   29.30
  -6  -3  -9  673.13   55.09
  -6  -3  -9  541.55   38.50
  -6  -3  -9  645.54   34.40
  -6  -3  -8  412.96   30.40
  -6  -3  -8  540.95   46.80
  -6  -3  -8  458.45   28.80
  -6  -3  -8  461.65   49.90
  -6  -3  -8  473.25   31.60
  -6  -3  -7   19.20    5.30
  -6  -3  -7   40.20   12.80
  -6  -3  -7   28.20    7.20
  -6  -3  -7   41.30    7.90
  -6  -3  -6  273.17   30.20
  -6  -3  -6  228.48   15.50
  -6  -3  -6  237.58   20.30
  -6  -3  -6  253.77   16.80
  -6  -3  -5  620.04   44.30
  -6  -3  -5  550.64   33.30
  -6  -3  -4   57.19   12.50
  -6  -3  -3  179.88   21.90
  -6  -3  -3  119.29   25.40
  -6  -3  -2   83.49   22.00
  -6  -3  -1  -31.20   15.20
  -6  -3   0    4.90    4.10
  -6  -3   0    0.20    8.70
  -6  -3   1   83.89   18.00
  -6  -3   1   74.69   25.30
  -6  -3   2  470.15   45.20
  -6  -3   2  435.56   62.19
  -6  -3   3  366.76   41.90
  -6  -3   3  349.67   58.99
  -6  -3   4  116.59   24.70
  -6  -3   4   45.70   26.00
  -6  -3   5    1.70    5.30
  -6  -3   5   -4.80    9.80
  -6  -3   6    8.10   10.20
  -6  -3   6   18.00   20.90
  -6  -3   7   87.99   24.90
  -6  -3   7   36.90   29.90
  -6  -2 -14   33.80   15.80
  -6  -2 -13    5.60    6.70
  -6  -2 -12   13.10   11.10
  -6  -2 -12    2.90    3.40
  -6  -2 -11   -5.20    9.00
  -6  -2 -11   -0.80    4.90
  -6  -2 -10   35.90   14.20
  -6  -2 -10   33.40   10.40
  -6  -2 -10   24.30    7.80
  -6  -2 -10   35.80   11.10
  -6  -2  -9  147.29   25.50
  -6  -2  -9  113.49   18.40
  -6  -2  -9  155.68   29.90
  -6  -2  -9  176.18   22.30
  -6  -2  -8  232.58   30.90
  -6  -2  -8  208.08   22.40
  -6  -2  -8  213.68   33.80
  -6  -2  -7  643.24   50.09
  -6  -2  -7  590.34   35.90
  -6  -2  -6  126.19   20.80
  -6  -2  -6  140.59   15.60
  -6  -2  -6  131.29   14.20
  -6  -2  -5   30.40    5.20
  -6  -2  -5   35.50    5.80
  -6  -2  -5   29.90    9.20
  -6  -2  -5   38.10    7.30
  -6  -2  -4   29.70    8.90
  -6  -2  -3    6.20    4.70
  -6  -2  -1  376.56   31.60
  -6  -2  -1  400.66   49.00
  -6  -2   0  179.98   23.30
  -6  -2   0  178.88   35.80
  -6  -2   1  101.79   18.50
  -6  -2   1   97.09   28.10
  -6  -2   2   38.80   11.60
  -6  -2   2   33.20   20.00
  -6  -2   3  253.77   33.30
  -6  -2   3  181.88   44.30
  -6  -2   4  183.28   29.00
  -6  -2   4  105.49   36.20
  -6  -2   5   36.10   14.30
  -6  -2   5   10.00   10.80
  -6  -2   6   13.30    7.40
  -6  -2   6   -3.40   19.50
  -6  -2   7    7.50    6.00
  -6  -2   7    2.00   17.70
  -6  -2   8   -3.60    7.10
  -6  -2   8  -36.90   25.40
  -6  -1 -13    1.20    7.60
  -6  -1 -12  -12.20    9.40
  -6  -1 -11   32.80   14.00
  -6  -1 -11   38.30   11.50
  -6  -1 -10   96.29   23.20
  -6  -1 -10   94.19   16.70
  -6  -1  -9  140.39   26.30
  -6  -1  -9  136.19   28.00
  -6  -1  -9  119.39   20.20
  -6  -1  -9  149.69   20.80
  -6  -1  -8   55.29   15.10
  -6  -1  -8   69.59   17.70
  -6  -1  -8   70.69   13.60
  -6  -1  -8   49.99   11.90
  -6  -1  -7   -4.80    8.50
  -6  -1  -7  -18.60    9.60
  -6  -1  -7   -1.40    4.40
  -6  -1  -6  881.91   56.09
  -6  -1  -6  790.82   43.60
  -6  -1  -6  778.52   41.40
  -6  -1  -5  707.43   49.90
  -6  -1  -5  753.72   36.80
  -6  -1  -5  755.02   39.70
  -6  -1  -4  212.98   25.70
  -6  -1  -4  196.38   15.20
  -6  -1  -4  179.48   17.80
  -6  -1  -3   48.00   12.00
  -6  -1  -3   47.70   11.10
  -6  -1  -3   42.90    5.90
  -6  -1  -2   -1.30    1.60
  -6  -1  -2    4.20    4.20
  -6  -1  -1   95.69   14.50
  -6  -1  -1  119.19   18.00
  -6  -1   0  169.88   21.60
  -6  -1   1   49.10   12.50
  -6  -1   2   65.49   15.20
  -6  -1   2   38.20   21.50
  -6  -1   3  365.96   39.20
  -6  -1   3  257.27   49.00
  -6  -1   4   29.10   12.10
  -6  -1   4   39.30   15.10
  -6  -1   4   16.70   14.60
  -6  -1   5    0.20    5.30
  -6  -1   5   11.60    7.20
  -6  -1   5    9.00   10.30
  -6  -1   6    0.60    5.10
  -6  -1   6   18.60   10.90
  -6  -1   7   34.20   14.80
  -6  -1   7    0.60   20.50
  -6  -1   8   47.30   17.70
  -6  -1   8   68.99   38.40
  -6   0 -13   25.50   11.70
  -6   0 -12   19.50   11.80
  -6   0 -11   80.89   20.80
  -6   0 -10   11.10    5.70
  -6   0  -9  126.09   25.20
  -6   0  -9  125.99   21.00
  -6   0  -9  136.09   27.10
  -6   0  -8  509.45   46.70
  -6   0  -8  416.86   43.80
  -6   0  -8  460.55   38.70
  -6   0  -8  407.76   37.60
  -6   0  -7  450.35   42.00
  -6   0  -7  443.26   36.50
  -6   0  -7  451.15   37.70
  -6   0  -7  410.86   40.60
  -6   0  -7  397.56   34.70
  -6   0  -6  411.86   39.20
  -6   0  -6  443.86   35.40
  -6   0  -6  451.95   35.60
  -6   0  -5    0.30    3.10
  -6   0  -5    3.60    4.90
  -6   0  -5    5.90    5.10
  -6   0  -4  359.06   34.20
  -6   0  -4  374.86   31.90
  -6   0  -4  390.96   26.60
  -6   0  -4  392.86   29.60
  -6   0  -3   99.09   16.60
  -6   0  -3   85.09   13.30
  -6   0  -3   88.09   11.70
  -6   0  -2  261.27   27.20
  -6   0  -2  242.28   18.10
  -6   0  -1  516.85   27.70
  -6   0  -1  523.95   39.90
  -6   0   0  331.77   23.40
  -6   0   0  311.87   31.40
  -6   0   0  351.66   29.70
  -6   0   1  134.89   16.70
  -6   0   1  170.38   22.40
  -6   0   2    1.70    4.20
  -6   0   3  149.69   25.90
  -6   0   3  168.58   25.60
  -6   0   4  629.24   54.49
  -6   0   4  723.23   56.09
  -6   0   5  365.76   41.80
  -6   0   5  376.06   41.70
  -6   0   6   18.80   12.20
  -6   0   6   45.30   15.60
  -6   0   7   -2.60    7.30
  -6   0   8    6.30    6.60
  -6   1 -13   13.50   12.00
  -6   1 -12    6.80    7.20
  -6   1 -11    7.10    8.50
  -6   1 -10  130.09   25.70
  -6   1  -9  228.88   32.80
  -6   1  -9  194.18   30.80
  -6   1  -9  220.58   29.60
  -6   1  -8  131.99   23.10
  -6   1  -8  146.39   25.50
  -6   1  -8  114.89   22.50
  -6   1  -8  147.99   23.70
  -6   1  -7   67.59   14.80
  -6   1  -7   49.20   14.40
  -6   1  -7   63.89   16.00
  -6   1  -7   44.30   11.90
  -6   1  -7   85.69   17.40
  -6   1  -6  151.88   24.20
  -6   1  -6  115.39   20.00
  -6   1  -6  126.19   19.90
  -6   1  -6  118.39   19.00
  -6   1  -5  505.95   42.80
  -6   1  -5  491.05   39.20
  -6   1  -5  485.75   38.60
  -6   1  -4  956.70   58.29
  -6   1  -4  871.61   52.49
  -6   1  -4  963.30   53.29
  -6   1  -4  935.31   48.80
  -6   1  -3  250.07   27.20
  -6   1  -3  238.18   22.80
  -6   1  -2  191.78   24.20
  -6   1  -2  167.58   18.40
  -6   1  -1   -1.10    4.00
  -6   1  -1   -0.60    4.40
  -6   1  -1   -1.90    2.90
  -6   1   0  243.28   28.00
  -6   1   0  243.68   21.80
  -6   1   1  117.99   15.90
  -6   1   1  107.39   19.30
  -6   1   1  128.89   18.70
  -6   1   2  217.48   31.50
  -6   1   2  196.38   25.30
  -6   1   3  330.57   31.70
  -6   1   3  322.47   39.60
  -6   1   3  321.87   34.60
  -6   1   4   15.20    8.90
  -6   1   4    8.40    6.20
  -6   1   5    2.20    7.10
  -6   1   5   25.80   10.20
  -6   1   6   48.80   16.70
  -6   1   7   18.10   10.90
  -6   1   8  113.19   26.60
  -6   1   9   38.80   16.20
  -6   2 -12   22.40   13.00
  -6   2 -11   22.70   11.10
  -6   2 -10    8.20    8.30
  -6   2 -10    3.50    5.60
  -6   2  -9   35.60   13.90
  -6   2  -9   37.30   14.70
  -6   2  -8  308.47   37.20
  -6   2  -8  288.07   34.90
  -6   2  -8  234.18   30.50
  -6   2  -8  241.78   33.30
  -6   2  -7  353.46   39.20
  -6   2  -7  391.16   39.70
  -6   2  -7  327.87   32.90
  -6   2  -7  314.97   35.40
  -6   2  -6  556.74   47.10
  -6   2  -6  526.05   45.00
  -6   2  -6  605.74   48.10
  -6   2  -6  495.75   42.70
  -6   2  -5   -1.50    5.10
  -6   2  -5   -1.90    5.10
  -6   2  -5   10.40    7.70
  -6   2  -5    2.80    5.40
  -6   2  -4   72.79   14.40
  -6   2  -4   69.29   15.20
  -6   2  -4   76.89   15.70
  -6   2  -3  121.29   19.70
  -6   2  -3  124.89   19.50
  -6   2  -2   83.19   16.80
  -6   2  -2   55.39   13.10
  -6   2  -1  196.78   25.60
  -6   2  -1  198.38   17.80
  -6   2  -1  182.28   23.50
  -6   2   0  211.28   27.10
  -6   2   0  203.88   20.80
  -6   2   1  158.68   27.20
  -6   2   1  166.48   20.40
  -6   2   1  169.58   24.60
  -6   2   2  118.79   23.80
  -6   2   2  139.89   20.00
  -6   2   2  105.19   18.00
  -6   2   2  121.89   21.50
  -6   2   3   63.59   17.80
  -6   2   3   71.69   14.90
  -6   2   3   60.59   14.40
  -6   2   3   63.09   16.30
  -6   2   4  377.96   37.30
  -6   2   4  391.26   39.50
  -6   2   5  320.27   37.40
  -6   2   6  109.59   23.30
  -6   2   7   26.80   12.50
  -6   2   8    2.20    6.70
  -6   2   9   34.00   16.30
  -6   3 -12    1.70    8.40
  -6   3 -11    5.20    5.60
  -6   3 -11    5.90    9.30
  -6   3 -10   45.40   14.20
  -6   3 -10   25.10   14.30
  -6   3  -9    7.10    5.70
  -6   3  -9    0.80    5.80
  -6   3  -8   -4.80    7.70
  -6   3  -8   -3.50    8.60
  -6   3  -7    4.60    6.70
  -6   3  -7    2.50    8.00
  -6   3  -7    6.00    4.50
  -6   3  -7   10.50    6.70
  -6   3  -6   79.99   18.30
  -6   3  -6   60.99   16.20
  -6   3  -5  309.07   34.90
  -6   3  -5  310.47   35.50
  -6   3  -5  265.97   32.10
  -6   3  -4  351.46   36.40
  -6   3  -4  310.17   32.90
  -6   3  -4  349.96   36.30
  -6   3  -3    7.00    6.40
  -6   3  -3   13.70    8.00
  -6   3  -3    7.10    5.10
  -6   3  -2   65.09   14.10
  -6   3  -2   66.39   15.00
  -6   3  -2   57.29   13.70
  -6   3  -1    7.60    5.30
  -6   3  -1    5.00    3.80
  -6   3  -1   14.10    4.30
  -6   3   0   68.89   14.10
  -6   3   0   87.39   17.90
  -6   3   0   82.79   12.10
  -6   3   0   89.59   17.20
  -6   3   1  230.78   34.00
  -6   3   1  277.77   32.30
  -6   3   1  252.17   27.60
  -6   3   2  308.57   30.60
  -6   3   2  298.37   34.40
  -6   3   2  262.27   29.00
  -6   3   3  154.48   23.10
  -6   3   3  156.98   25.60
  -6   3   3  135.09   21.60
  -6   3   4   70.09   16.70
  -6   3   4   83.89   17.50
  -6   3   4  103.39   21.60
  -6   3   5   15.00   10.70
  -6   3   5   25.80   11.10
  -6   3   6  137.79   25.80
  -6   3   6  183.68   30.00
  -6   3   7   28.70   13.10
  -6   3   8   23.20   12.90
  -6   3   9   18.70   12.60
  -6   4 -11   12.30   10.60
  -6   4 -10    3.80    7.40
  -6   4 -10   20.90   11.80
  -6   4  -9    4.80    6.50
  -6   4  -8  162.18   30.40
  -6   4  -7  306.87   38.90
  -6   4  -7  204.98   32.70
  -6   4  -6  279.17   35.90
  -6   4  -6  245.08   33.70
  -6   4  -5   22.20   10.50
  -6   4  -5   34.90   13.20
  -6   4  -4  144.09   24.50
  -6   4  -4  175.08   26.90
  -6   4  -3  691.63   53.69
  -6   4  -3  604.44   48.50
  -6   4  -2  444.06   42.20
  -6   4  -2  377.36   39.10
  -6   4  -2  377.46   37.30
  -6   4  -1  226.48   29.70
  -6   4  -1  198.88   15.00
  -6   4  -1  177.88   25.40
  -6   4  -1  236.18   30.20
  -6   4   0  200.38   18.50
  -6   4   0  203.78   28.10
  -6   4   0  166.48   25.40
  -6   4   0  169.78   24.70
  -6   4   1    5.60    5.80
  -6   4   1   -2.30    5.30
  -6   4   2    8.00    4.70
  -6   4   2   -4.80    7.60
  -6   4   2   -1.40    4.30
  -6   4   3   40.90   12.80
  -6   4   3   50.49   13.40
  -6   4   3   43.50   13.00
  -6   4   4  328.67   36.30
  -6   4   4  280.07   33.20
  -6   4   4  329.67   38.30
  -6   4   5  277.37   34.70
  -6   4   5  258.97   34.00
  -6   4   6  146.59   28.10
  -6   4   6  178.48   31.60
  -6   4   7   12.30    9.30
  -6   4   7   34.90   15.80
  -6   4   8   -3.80    5.10
  -6   4   9   31.90   16.90
  -6   5  -9   84.19   24.60
  -6   5  -8   58.99   20.10
  -6   5  -7   13.40   10.20
  -6   5  -7    2.40    5.00
  -6   5  -6   81.09   20.90
  -6   5  -6   76.29   19.90
  -6   5  -5  374.76   43.20
  -6   5  -5  278.87   37.30
  -6   5  -4  314.27   39.00
  -6   5  -4  170.88   29.10
  -6   5  -3   93.99   20.30
  -6   5  -3   94.99   21.00
  -6   5  -2   -3.20    7.10
  -6   5  -2   15.80    8.70
  -6   5  -1    6.70    6.80
  -6   5  -1   -3.00    4.10
  -6   5  -1    4.30    2.60
  -6   5   0   21.10    9.90
  -6   5   0   19.10    8.40
  -6   5   0   21.20    6.10
  -6   5   1  137.39   24.50
  -6   5   1  150.48   24.30
  -6   5   2  224.78   25.40
  -6   5   2  249.38   33.50
  -6   5   2  215.98   29.50
  -6   5   3  163.18   23.90
  -6   5   3  193.58   29.70
  -6   5   3  159.58   25.70
  -6   5   4  158.68   26.60
  -6   5   4  190.38   27.80
  -6   5   4  164.38   27.90
  -6   5   5   45.40   14.10
  -6   5   5   57.09   16.40
  -6   5   5   75.59   19.00
  -6   5   6  257.87   36.20
  -6   5   6  264.27   37.40
  -6   5   7  132.09   28.20
  -6   5   7  211.48   35.30
  -6   5   8   72.09   22.00
  -6   5   8   97.49   25.50
  -6   5   9   46.70   19.50
  -6   5  10   13.90   12.80
  -6   6  -8   29.00   16.10
  -6   6  -7   97.49   25.40
  -6   6  -7   70.79   20.40
  -6   6  -6   87.09   23.80
  -6   6  -6  102.99   24.10
  -6   6  -5  118.19   25.20
  -6   6  -5  142.99   28.30
  -6   6  -4  -16.30   10.00
  -6   6  -4    3.70    7.50
  -6   6  -3   62.09   18.10
  -6   6  -3   91.49   22.50
  -6   6  -2  152.28   27.90
  -6   6  -2  170.08   28.60
  -6   6  -1  246.28   34.00
  -6   6  -1  169.58   10.50
  -6   6  -1  204.98   31.50
  -6   6   0  378.16   24.60
  -6   6   0  393.36   42.60
  -6   6   0  335.87   39.80
  -6   6   1  192.98   29.70
  -6   6   1  190.28   29.10
  -6   6   2   34.70   13.50
  -6   6   2   51.09   12.40
  -6   6   2   35.40   13.00
  -6   6   3    1.40    7.70
  -6   6   3   -1.30    6.90
  -6   6   3    5.10    5.60
  -6   6   4    6.20    4.70
  -6   6   4  -11.40    8.50
  -6   6   4    7.00    7.00
  -6   6   5  141.09   26.60
  -6   6   5  142.39   26.10
  -6   6   5  154.88   27.90
  -6   6   6   72.69   20.10
  -6   6   6   86.09   21.30
  -6   6   6  124.89   25.50
  -6   6   7    5.50   10.90
  -6   6   7    0.90    7.10
  -6   6   8    7.60    8.90
  -6   6   8    6.40    7.20
  -6   6   9    2.90    6.30
  -6   6   9   -6.40    9.10
  -6   7  -7   -3.40    7.30
  -6   7  -7   -5.70    9.20
  -6   7  -6   35.80   16.40
  -6   7  -6   19.10   12.30
  -6   7  -5   89.09   23.80
  -6   7  -5  103.09   24.70
  -6   7  -4  171.48   32.20
  -6   7  -4  137.09   28.20
  -6   7  -3   53.29   18.30
  -6   7  -3   44.00   16.20
  -6   7  -2   19.60   11.20
  -6   7  -2   14.60    9.50
  -6   7  -1   12.60   10.70
  -6   7  -1   13.70    8.70
  -6   7   0    9.30    8.10
  -6   7   0   15.50   10.60
  -6   7   0   13.10    3.90
  -6   7   1   89.99   21.40
  -6   7   1   77.09   19.30
  -6   7   2  152.98   27.90
  -6   7   2  159.48   28.40
  -6   7   2  164.38   22.00
  -6   7   3  161.98   29.10
  -6   7   3  156.28   23.60
  -6   7   3  172.98   29.20
  -6   7   4  118.09   25.70
  -6   7   4  137.89   27.20
  -6   7   4  133.69   24.40
  -6   7   5    6.00    6.30
  -6   7   5   11.40    7.00
  -6   7   5   15.80   10.70
  -6   7   6   48.40   16.90
  -6   7   6   24.80   11.40
  -6   7   6   31.30   13.00
  -6   7   7  153.48   31.50
  -6   7   7  163.28   32.30
  -6   7   7  149.99   29.10
  -6   7   8   53.49   18.10
  -6   7   8   60.49   22.00
  -6   7   9   25.90   15.60
  -6   7   9   36.20   18.80
  -6   8  -6   47.60   21.80
  -6   8  -5   -1.10    6.20
  -6   8  -5    7.40    8.30
  -6   8  -4   33.30   16.40
  -6   8  -4    2.50    8.30
  -6   8  -3   90.59   24.20
  -6   8  -3   84.49   23.40
  -6   8  -2  152.68   30.80
  -6   8  -2  148.69   29.60
  -6   8  -1   92.29   23.90
  -6   8  -1   64.19   19.20
  -6   8   0   56.79   18.70
  -6   8   0   44.30    8.10
  -6   8   0   50.39   17.80
  -6   8   1   19.00   12.20
  -6   8   1   23.20   12.30
  -6   8   2    1.40    6.20
  -6   8   2   15.60    7.50
  -6   8   2    0.10    8.00
  -6   8   3   55.49   18.40
  -6   8   3   61.29   18.30
  -6   8   3   72.69   16.70
  -6   8   4   92.19   23.20
  -6   8   4   72.49   17.80
  -6   8   4   97.99   22.30
  -6   8   5  147.39   27.10
  -6   8   5  217.28   34.10
  -6   8   5  216.78   35.90
  -6   8   6   44.40   16.90
  -6   8   6   42.60   16.20
  -6   8   6   28.20   13.30
  -6   8   7    3.70    7.80
  -6   8   7   -2.70    6.60
  -6   8   7   -8.20   10.80
  -6   8   8    1.40    7.00
  -6   8   8   13.10   14.20
  -6   8   9  -42.70   18.50
  -6   8   9   12.30   11.20
  -6   9  -4   80.49   25.30
  -6   9  -3   20.40   13.10
  -6   9  -3   52.29   19.40
  -6   9  -2   -1.10    6.50
  -6   9  -2    9.00    8.20
  -6   9  -1   26.70   13.80
  -6   9  -1   12.30    8.00
  -6   9   0   34.60   15.30
  -6   9   0   52.09   18.20
  -6   9   1   68.39   21.20
  -6   9   1  124.99   27.30
  -6   9   2  151.18   30.90
  -6   9   2  103.89   24.90
  -6   9   3   79.99   24.00
  -6   9   3   72.49   20.90
  -6   9   4   16.30   10.60
  -6   9   4   34.90   15.50
  -6   9   5   -6.10    7.00
  -6   9   5   15.60   11.00
  -6   9   6   79.49   24.40
  -6   9   6   35.00   15.50
  -6   9   6   30.00   15.50
  -6   9   7  119.19   28.70
  -6   9   7  109.49   25.80
  -6   9   7  117.69   27.80
  -6   9   8   72.99   23.30
  -6   9   8   59.29   21.70
  -6   9   8   68.09   21.10
  -6   9   9   22.40   16.70
  -6  10  -2   64.39   23.20
  -6  10  -1   40.60   17.40
  -6  10  -1   33.90   16.60
  -6  10   0   58.29   21.20
  -6  10   0   68.69   20.70
  -6  10   1  114.59   29.00
  -6  10   1  101.09   26.00
  -6  10   2   48.00   20.20
  -6  10   2    6.10    7.80
  -6  10   3   29.80   16.10
  -6  10   3   11.50   10.00
  -6  10   4   70.39   22.80
  -6  10   4   43.30   16.70
  -6  10   5   81.79   24.30
  -6  10   5   81.39   22.80
  -6  10   6   67.19   24.50
  -6  10   6  112.99   27.10
  -6  10   7   41.10   18.80
  -6  10   7   32.80   16.10
  -6  10   7    8.70    8.20
  -6  10   8    5.40    8.60
  -6  10   8   13.50   10.40
  -6  10   9    1.80   10.70
  -6  11   3   24.40   15.20
  -6  11   4   20.90   12.80
  -6  11   5    6.90    9.10
  -6  11   6    7.70   11.00
  -6  11   8   16.00   11.10
  -5 -14 -11   16.90   12.80
  -5 -14  -7   27.20   37.50
  -5 -14  -6  -50.69   32.60
  -5 -13 -12   39.60   19.60
  -5 -13 -11   21.10   13.50
  -5 -13 -10    6.60    8.20
  -5 -13  -9   30.20   13.60
  -5 -13  -8   29.40   22.40
  -5 -13  -7   17.20   17.70
  -5 -13  -6  -10.10   17.60
  -5 -13  -5  -29.80   25.20
  -5 -13  -4   12.40   24.40
  -5 -12 -13    1.20    6.80
  -5 -12 -12   22.90   14.50
  -5 -12 -11   57.19   20.30
  -5 -12 -10  116.59   27.00
  -5 -12  -9  102.79   31.70
  -5 -12  -9  106.49   25.10
  -5 -12  -8   42.50   26.40
  -5 -12  -8   59.19   17.10
  -5 -12  -7   23.00   20.30
  -5 -12  -7   14.30    7.90
  -5 -12  -6  -12.30   15.50
  -5 -12  -5    7.10   15.60
  -5 -12  -4   85.39   42.00
  -5 -12  -3   38.40   32.10
  -5 -12  -2  -24.50   25.50
  -5 -11 -13  101.79   26.70
  -5 -11 -12   78.79   22.80
  -5 -11 -11   -2.40    8.80
  -5 -11 -10   10.20   10.40
  -5 -11  -9   66.49   21.70
  -5 -11  -9   62.89   17.10
  -5 -11  -8  105.79   31.40
  -5 -11  -8   67.79   17.80
  -5 -11  -7   48.30   24.40
  -5 -11  -7   60.09   15.80
  -5 -11  -6   23.40   19.20
  -5 -11  -6    7.60    5.70
  -5 -11  -5  -13.80   15.20
  -5 -11  -5   13.30    6.20
  -5 -11  -4   18.80   18.60
  -5 -11  -3    1.80   22.00
  -5 -11  -2   29.90   28.70
  -5 -11  -1   18.00   15.40
  -5 -11   0  -11.90   23.60
  -5 -10 -13    5.70   11.00
  -5 -10 -12   47.80   16.80
  -5 -10 -11   70.79   19.90
  -5 -10 -10   22.80    9.30
  -5 -10 -10   26.40   11.50
  -5 -10  -9   56.89   18.10
  -5 -10  -9   47.60   11.70
  -5 -10  -9   46.80   14.50
  -5 -10  -9   35.80   11.70
  -5 -10  -9   50.39    8.20
  -5 -10  -8    5.00    9.50
  -5 -10  -8    7.50    8.10
  -5 -10  -8   -6.30    7.30
  -5 -10  -8    0.70    2.30
  -5 -10  -7    9.80    6.20
  -5 -10  -7   -6.50    9.30
  -5 -10  -7   11.10    5.10
  -5 -10  -7    8.90    4.60
  -5 -10  -6   21.80   16.60
  -5 -10  -6   24.20   10.90
  -5 -10  -6   30.40   10.50
  -5 -10  -5   14.00   13.50
  -5 -10  -5   32.50   13.30
  -5 -10  -5   62.09   13.30
  -5 -10  -4   94.19   34.00
  -5 -10  -4  132.79   29.00
  -5 -10  -4  187.28   19.40
  -5 -10  -3   82.89   30.20
  -5 -10  -3   93.39    9.90
  -5 -10  -2   13.80   14.30
  -5 -10  -1   33.70   23.40
  -5 -10   0   23.60   18.30
  -5 -10   1   80.99   39.10
  -5  -9 -14   55.89   19.60
  -5  -9 -13  190.08   35.20
  -5  -9 -12  176.98   31.50
  -5  -9 -12  139.99   19.70
  -5  -9 -11   14.30    9.50
  -5  -9 -11   26.60    8.00
  -5  -9 -10   18.10    6.40
  -5  -9 -10   24.20    7.00
  -5  -9 -10   49.60   15.90
  -5  -9 -10   25.20    9.90
  -5  -9 -10   32.60    7.70
  -5  -9  -9  122.49   23.40
  -5  -9  -9  155.08   16.20
  -5  -9  -9  141.39   23.40
  -5  -9  -9  130.29   15.30
  -5  -9  -9  153.28   13.60
  -5  -9  -9  154.68   22.90
  -5  -9  -8  473.85   44.30
  -5  -9  -8  428.26   30.50
  -5  -9  -8  493.05   19.80
  -5  -9  -8  456.85   38.30
  -5  -9  -7  399.26   32.60
  -5  -9  -7  409.16   39.20
  -5  -9  -7  431.96   35.60
  -5  -9  -6   15.90    8.60
  -5  -9  -6   27.00   14.10
  -5  -9  -6   19.30    6.70
  -5  -9  -6   40.80   11.90
  -5  -9  -5    0.20    3.70
  -5  -9  -5    0.30    3.20
  -5  -9  -5    6.70    6.60
  -5  -9  -4    8.90    9.00
  -5  -9  -4    6.80    4.70
  -5  -9  -3   51.19   25.80
  -5  -9  -3   82.79   22.90
  -5  -9  -3   70.09   10.30
  -5  -9  -3   54.69   13.80
  -5  -9  -2  112.79   28.60
  -5  -9  -2  150.68   41.70
  -5  -9  -2  113.29   20.50
  -5  -9  -1   40.20   26.70
  -5  -9  -1   59.89   14.70
  -5  -9   0   -9.20   14.70
  -5  -9   1  -10.50   17.00
  -5  -9   2   12.00   16.90
  -5  -9   3  -11.90   23.10
  -5  -8 -14   17.90   11.90
  -5  -8 -13   22.60   12.70
  -5  -8 -12   45.00   17.00
  -5  -8 -12   51.59   11.80
  -5  -8 -11  210.08   19.70
  -5  -8 -11  289.77   37.70
  -5  -8 -11  229.78   30.80
  -5  -8 -11  271.47   25.20
  -5  -8 -10   99.89   11.00
  -5  -8 -10  114.09   11.60
  -5  -8 -10  116.19   22.80
  -5  -8 -10  115.89   20.50
  -5  -8 -10  134.69   15.30
  -5  -8  -9   74.89    7.50
  -5  -8  -9   60.09    7.10
  -5  -8  -9   60.49   12.50
  -5  -8  -9   58.59   16.00
  -5  -8  -9   85.09   16.70
  -5  -8  -9   56.39    8.30
  -5  -8  -8   -3.70    6.50
  -5  -8  -8    5.70    2.40
  -5  -8  -8    8.10    2.60
  -5  -8  -8   10.70    6.90
  -5  -8  -8    4.30    4.50
  -5  -8  -8    6.60    1.70
  -5  -8  -7    3.30    5.50
  -5  -8  -7   -0.90    1.70
  -5  -8  -7    3.40    4.50
  -5  -8  -7   -4.20    6.50
  -5  -8  -6  104.09   24.90
  -5  -8  -6   97.59   14.90
  -5  -8  -6  132.79   20.30
  -5  -8  -6  104.19   15.40
  -5  -8  -6  116.49   22.50
  -5  -8  -5   25.20   11.60
  -5  -8  -5   39.30   11.00
  -5  -8  -5   21.10    9.00
  -5  -8  -4  117.59   30.10
  -5  -8  -4  154.68   24.60
  -5  -8  -4  156.58   23.70
  -5  -8  -3  438.06   46.80
  -5  -8  -3  344.77   55.39
  -5  -8  -3  509.25   30.20
  -5  -8  -3  397.86   36.80
  -5  -8  -2  126.79   35.80
  -5  -8  -2  216.88   36.40
  -5  -8  -2  231.08   26.70
  -5  -8  -1   20.40   15.50
  -5  -8  -1    9.40   15.70
  -5  -8  -1    6.80    5.50
  -5  -8   0   12.00   12.50
  -5  -8   0   12.40    6.10
  -5  -8   1  126.79   43.50
  -5  -8   2   67.29   36.40
  -5  -8   3    4.00   14.80
  -5  -8   4   15.20   25.40
  -5  -7 -14   25.80   13.40
  -5  -7 -13   45.00   15.10
  -5  -7 -12  113.19   17.00
  -5  -7 -12  158.68   28.40
  -5  -7 -11  126.39   15.00
  -5  -7 -11  128.39   22.10
  -5  -7 -11  131.89   25.80
  -5  -7 -10    1.70    1.30
  -5  -7 -10    2.00    2.80
  -5  -7  -9   10.10    7.00
  -5  -7  -9    2.20    2.70
  -5  -7  -9    9.50    3.70
  -5  -7  -8  167.08   25.10
  -5  -7  -8  104.39   17.50
  -5  -7  -8  169.28   11.10
  -5  -7  -8  155.18   19.90
  -5  -7  -7  432.06   39.80
  -5  -7  -7  364.36   35.80
  -5  -7  -7  303.77   36.50
  -5  -7  -7  324.97   26.40
  -5  -7  -6  201.38   14.50
  -5  -7  -6  263.47   34.60
  -5  -7  -6  251.37   28.10
  -5  -7  -6  255.07   31.70
  -5  -7  -6  228.88   20.50
  -5  -7  -5   93.79   13.70
  -5  -7  -5   91.29   23.30
  -5  -7  -5  141.69   19.50
  -5  -7  -5  116.79   20.30
  -5  -7  -4   36.60   10.60
  -5  -7  -4   35.00   14.90
  -5  -7  -4   33.90   10.20
  -5  -7  -3   20.80   12.60
  -5  -7  -3   14.70    9.50
  -5  -7  -3    4.20    2.10
  -5  -7  -2  174.88   29.80
  -5  -7  -2  218.48   17.40
  -5  -7  -1  191.78   41.00
  -5  -7  -1  191.78   34.70
  -5  -7  -1  210.88   22.30
  -5  -7   0   42.60   18.10
  -5  -7   0   13.00    9.90
  -5  -7   0   36.90    8.70
  -5  -7   1  118.99   36.90
  -5  -7   1   92.29   13.90
  -5  -7   2  -14.20   15.90
  -5  -7   3   11.00   11.10
  -5  -7   4  -26.90   22.40
  -5  -7   5   21.20   23.30
  -5  -6 -14   -4.60    8.10
  -5  -6 -13    1.90    3.70
  -5  -6 -13   24.10   12.60
  -5  -6 -12   52.99   12.90
  -5  -6 -12   60.89   18.00
  -5  -6 -11  278.07   25.00
  -5  -6 -11  329.47   39.10
  -5  -6 -11  239.28   30.20
  -5  -6 -10  274.07   19.10
  -5  -6 -10  283.17   34.80
  -5  -6 -10  272.27   29.80
  -5  -6  -9   22.30    9.90
  -5  -6  -9   25.30    7.60
  -5  -6  -9   30.40    6.40
  -5  -6  -8   -4.10    7.80
  -5  -6  -8   -0.60    3.70
  -5  -6  -8    0.70    1.20
  -5  -6  -8    1.80    5.30
  -5  -6  -8   -0.20    2.00
  -5  -6  -7  123.29   18.60
  -5  -6  -7  114.09   19.00
  -5  -6  -7  123.19   22.10
  -5  -6  -7  115.69   15.00
  -5  -6  -6  401.86   38.30
  -5  -6  -6  398.06   34.80
  -5  -6  -6  361.36   23.50
  -5  -6  -6  375.56   36.90
  -5  -6  -5   78.49    6.80
  -5  -6  -5   74.19   18.40
  -5  -6  -5  103.39   16.60
  -5  -6  -5   82.99    9.70
  -5  -6  -5   89.59   17.30
  -5  -6  -4   14.40    5.20
  -5  -6  -4   27.60   12.10
  -5  -6  -3  241.78   38.70
  -5  -6  -3  259.57   28.10
  -5  -6  -3  320.67   24.80
  -5  -6  -3  273.97   26.40
  -5  -6  -2  158.28   25.30
  -5  -6  -2  171.78   35.10
  -5  -6  -2  226.38   18.80
  -5  -6  -2  196.18   20.70
  -5  -6  -1    4.80    5.00
  -5  -6  -1    6.60    9.40
  -5  -6  -1   17.80    6.50
  -5  -6   0   54.59   22.50
  -5  -6   0   42.60   15.90
  -5  -6   0   52.69    9.40
  -5  -6   1   55.09   24.10
  -5  -6   1   38.90   16.60
  -5  -6   1   53.69    9.00
  -5  -6   2  177.28   44.30
  -5  -6   2  161.58   15.10
  -5  -6   3  195.78   32.90
  -5  -6   3   90.69   34.50
  -5  -6   4   17.00   11.40
  -5  -6   4   26.20   22.10
  -5  -6   5  -11.90    9.90
  -5  -6   5   -8.50   14.60
  -5  -6   6  -10.10   10.00
  -5  -6   6   -5.30   14.80
  -5  -5 -14   81.39   23.10
  -5  -5 -13   69.39   17.90
  -5  -5 -13   78.79   20.80
  -5  -5 -12  100.59   22.50
  -5  -5 -12   84.79   16.20
  -5  -5 -11   34.20   10.00
  -5  -5 -11   29.30   10.40
  -5  -5 -11   26.20   10.90
  -5  -5 -11   22.30    6.80
  -5  -5 -10  115.19   14.70
  -5  -5 -10   99.59   18.20
  -5  -5 -10  136.29   24.40
  -5  -5  -9  218.08   29.00
  -5  -5  -9  176.18   17.40
  -5  -5  -9  181.98   22.10
  -5  -5  -8  251.47   29.80
  -5  -5  -8  192.48   33.10
  -5  -5  -8  246.98   17.70
  -5  -5  -8  253.67   23.80
  -5  -5  -8  237.68   32.10
  -5  -5  -7  317.97   32.50
  -5  -5  -7  357.16   16.50
  -5  -5  -7  363.86   25.80
  -5  -5  -7  377.56   38.40
  -5  -5  -6  292.17   29.80
  -5  -5  -6  299.27   30.50
  -5  -5  -6  297.67   32.10
  -5  -5  -6  289.77   19.80
  -5  -5  -5   -0.70    4.30
  -5  -5  -5    3.50    1.80
  -5  -5  -5    2.70    4.40
  -5  -5  -5    3.40    3.90
  -5  -5  -4   27.30   11.40
  -5  -5  -3   32.90   13.10
  -5  -5  -3   29.40    7.40
  -5  -5  -3   43.20    9.00
  -5  -5  -3   33.00    8.50
  -5  -5  -2  608.64   60.99
  -5  -5  -2  593.24   43.30
  -5  -5  -2  746.53   36.90
  -5  -5  -2  627.04   35.70
  -5  -5  -1  785.32   73.29
  -5  -5  -1  699.13   54.19
  -5  -5  -1  731.43   35.20
  -5  -5   0  138.59   26.70
  -5  -5   0  111.09   30.30
  -5  -5   0  128.29   12.60
  -5  -5   1   -2.80    5.20
  -5  -5   1    0.50    5.60
  -5  -5   1   -1.40    1.90
  -5  -5   2   52.39   23.10
  -5  -5   2   77.39   23.50
  -5  -5   2  122.89   22.50
  -5  -5   2   87.39    7.90
  -5  -5   3   54.79   25.30
  -5  -5   3   74.39    7.00
  -5  -5   3   98.19    8.70
  -5  -5   4  128.69   39.90
  -5  -5   4  171.18   30.50
  -5  -5   4  116.19    9.90
  -5  -5   5   20.30   13.00
  -5  -5   5    2.10   16.40
  -5  -5   6   16.70    9.70
  -5  -5   6  -50.49   28.10
  -5  -5   7   17.80   13.00
  -5  -5   7    2.20   15.70
  -5  -4 -14   34.30   15.70
  -5  -4 -13   17.20   12.70
  -5  -4 -13   20.40   10.40
  -5  -4 -12    3.80    7.00
  -5  -4 -12   -1.90    2.70
  -5  -4 -12    0.50    4.00
  -5  -4 -11  183.98   29.50
  -5  -4 -11  140.09   23.20
  -5  -4 -11  170.88   15.10
  -5  -4 -11  139.99   20.00
  -5  -4 -10  556.34   43.30
  -5  -4 -10  632.74   53.19
  -5  -4 -10  638.14   27.60
  -5  -4 -10  555.14   38.00
  -5  -4 -10  681.83   41.70
  -5  -4  -9  196.38   23.00
  -5  -4  -9  239.78   30.60
  -5  -4  -9  235.98   20.20
  -5  -4  -9  198.08   13.50
  -5  -4  -8   16.10    6.50
  -5  -4  -8   15.50    8.10
  -5  -4  -8   14.00    3.10
  -5  -4  -8   16.70    5.00
  -5  -4  -7  106.49   18.30
  -5  -4  -7  100.89   21.70
  -5  -4  -7  113.49   11.50
  -5  -4  -7   93.79    8.60
  -5  -4  -7   91.89   12.40
  -5  -4  -6  579.24   42.10
  -5  -4  -6  524.95   18.80
  -5  -4  -6  531.55   26.70
  -5  -4  -5  978.00   57.49
  -5  -4  -5 1006.30   53.39
  -5  -4  -5  953.50   29.10
  -5  -4  -4  349.37   35.90
  -5  -4  -4  280.77   27.10
  -5  -4  -3  422.36   42.80
  -5  -4  -3  399.46   29.80
  -5  -4  -2  210.38   33.50
  -5  -4  -2  211.28   21.20
  -5  -4  -2  236.78   20.90
  -5  -4  -2  209.98   19.20
  -5  -4  -1   49.00   12.10
  -5  -4  -1   60.19   20.00
  -5  -4  -1   59.79    8.80
  -5  -4   0  107.49   28.20
  -5  -4   0   91.09   19.30
  -5  -4   0  116.69   19.90
  -5  -4   0   91.99    8.30
  -5  -4   1   41.30   12.20
  -5  -4   1   29.40   11.30
  -5  -4   1   26.00   14.60
  -5  -4   2  424.06   41.50
  -5  -4   2  328.27   45.10
  -5  -4   2  384.26   57.29
  -5  -4   3  181.08   28.90
  -5  -4   3  149.79   40.20
  -5  -4   4    8.00    8.40
  -5  -4   4   -3.80   21.30
  -5  -4   5    5.00    7.20
  -5  -4   5  -10.50   18.30
  -5  -4   6    4.80    6.10
  -5  -4   6    9.30   24.50
  -5  -4   7   20.80   13.10
  -5  -4   7    7.80   18.50
  -5  -4   8   21.70   16.80
  -5  -4   8   42.10   35.50
  -5  -3 -14   47.60   17.20
  -5  -3 -14   15.30    9.40
  -5  -3 -13  131.19   27.50
  -5  -3 -13  118.19   24.70
  -5  -3 -12  254.87   36.20
  -5  -3 -12  256.67   33.90
  -5  -3 -11  211.18   31.80
  -5  -3 -11  181.18   25.80
  -5  -3 -11  164.88   23.20
  -5  -3 -10   10.80    6.80
  -5  -3 -10    9.30    6.30
  -5  -3 -10   11.90    6.40
  -5  -3 -10   11.20    4.00
  -5  -3 -10   12.10    6.10
  -5  -3  -9   90.99   18.60
  -5  -3  -9   69.99   14.00
  -5  -3  -9   96.69   15.30
  -5  -3  -9   68.49   19.40
  -5  -3  -9   82.29   11.30
  -5  -3  -9   71.09   12.80
  -5  -3  -8   83.99   17.30
  -5  -3  -8   70.69   12.70
  -5  -3  -8   77.99   12.20
  -5  -3  -8   70.19   19.50
  -5  -3  -8   78.59   10.20
  -5  -3  -7  137.79   21.40
  -5  -3  -7  101.69   13.70
  -5  -3  -7  124.79   12.80
  -5  -3  -7  123.19   23.50
  -5  -3  -7  142.29   14.80
  -5  -3  -6  221.18   17.30
  -5  -3  -6  246.18   27.00
  -5  -3  -6  243.08   16.90
  -5  -3  -6  239.48   17.90
  -5  -3  -6  240.68   31.10
  -5  -3  -5   89.69   15.70
  -5  -3  -5   94.09   11.10
  -5  -3  -5   87.79    7.70
  -5  -3  -5   90.19    8.40
  -5  -3  -4   97.39   15.00
  -5  -3  -3   83.39   17.90
  -5  -3  -2  303.07   24.80
  -5  -3  -2  300.87   36.90
  -5  -3  -1 1708.33   97.39
  -5  -3   0 1180.88   60.19
  -5  -3   0 1213.18   65.69
  -5  -3   0 1156.18   85.29
  -5  -3   1  221.68   26.30
  -5  -3   1  176.78   27.30
  -5  -3   1  189.88   37.20
  -5  -3   2   54.59   14.40
  -5  -3   2   62.19   18.00
  -5  -3   2   14.80   11.80
  -5  -3   3   95.89   19.90
  -5  -3   3   50.69   18.20
  -5  -3   3   84.09   28.10
  -5  -3   4  410.16   43.10
  -5  -3   4  354.46   59.79
  -5  -3   5   33.60   12.70
  -5  -3   5   -7.60   12.70
  -5  -3   6    2.50    6.00
  -5  -3   6   -0.80   13.90
  -5  -3   7   17.50   12.20
  -5  -3   7   17.40   18.60
  -5  -3   8    4.00   10.30
  -5  -3   8    8.90   22.90
  -5  -3   9    1.50   17.10
  -5  -2 -14    4.40    4.90
  -5  -2 -14    6.60    7.10
  -5  -2 -13   14.90   11.10
  -5  -2 -13    9.30    9.50
  -5  -2 -12    1.70    6.00
  -5  -2 -12    9.50    6.20
  -5  -2 -11  165.48   28.50
  -5  -2 -11  181.08   28.20
  -5  -2 -10  372.66   36.30
  -5  -2 -10  419.16   44.10
  -5  -2 -10  406.06   36.20
  -5  -2 -10  389.86   38.80
  -5  -2  -9  282.37   34.10
  -5  -2  -9  239.28   27.00
  -5  -2  -9  244.58   26.10
  -5  -2  -9  282.67   39.40
  -5  -2  -9  314.37   31.60
  -5  -2  -8   52.99   12.00
  -5  -2  -8   47.00   13.70
  -5  -2  -8   69.99   19.20
  -5  -2  -8   58.69   10.50
  -5  -2  -7   -2.30    5.70
  -5  -2  -7   -0.20    2.10
  -5  -2  -7   -0.90    6.30
  -5  -2  -7    1.90    2.80
  -5  -2  -6  153.88   21.80
  -5  -2  -6  158.88   16.10
  -5  -2  -6  143.79   23.50
  -5  -2  -6  159.78   16.40
  -5  -2  -5  885.61   50.19
  -5  -2  -5  803.62   34.10
  -5  -2  -5  819.52   38.90
  -5  -2  -4  336.07   15.00
  -5  -2  -4  391.06   31.10
  -5  -2  -4  397.36   26.30
  -5  -2  -4  377.26   16.30
  -5  -2  -4  366.66   19.60
  -5  -2  -3  102.49   13.50
  -5  -2  -2  365.96   39.30
  -5  -2  -1    6.20    6.80
  -5  -2   0  301.07   27.60
  -5  -2   0  357.26   44.10
  -5  -2   1  293.47   29.00
  -5  -2   1  312.77   43.40
  -5  -2   2  105.09   18.40
  -5  -2   2   89.89   27.00
  -5  -2   3   59.49   14.70
  -5  -2   3   61.29   19.00
  -5  -2   3   72.69   26.70
  -5  -2   4  127.29   23.00
  -5  -2   4   74.69   27.20
  -5  -2   5    5.20    5.90
  -5  -2   5   -7.30    8.20
  -5  -2   5  -14.60   15.50
  -5  -2   6   -1.50    3.40
  -5  -2   6    2.30    7.10
  -5  -2   6   -5.70   16.10
  -5  -2   7    1.30    4.80
  -5  -2   7    4.80   11.70
  -5  -2   8   52.69   19.70
  -5  -2   8   25.10   26.70
  -5  -2   9   60.29   21.90
  -5  -2   9   13.00   20.00
  -5  -1 -14   21.70   11.80
  -5  -1 -14    8.20   10.40
  -5  -1 -13   63.19   19.20
  -5  -1 -13   56.69   19.30
  -5  -1 -12   35.40   13.50
  -5  -1 -12   54.49   18.50
  -5  -1 -11   62.49   17.80
  -5  -1 -11   27.70   11.30
  -5  -1 -10    6.10    7.00
  -5  -1 -10   21.60    9.70
  -5  -1  -9  567.34   49.30
  -5  -1  -9  578.54   56.29
  -5  -1  -9  547.45   42.50
  -5  -1  -8  454.75   42.90
  -5  -1  -8  456.75   47.30
  -5  -1  -8  501.85   37.60
  -5  -1  -7  211.68   27.10
  -5  -1  -7  186.38   27.70
  -5  -1  -6   12.00    6.30
  -5  -1  -6   24.70    9.10
  -5  -1  -6   13.20    5.60
  -5  -1  -6   17.90    6.10
  -5  -1  -5    9.50    5.50
  -5  -1  -5   15.50    5.60
  -5  -1  -5   13.10    4.90
  -5  -1  -4  184.78   22.10
  -5  -1  -4  196.48   19.30
  -5  -1  -4  182.58   16.40
  -5  -1  -4  178.68   14.70
  -5  -1  -3   53.89   11.50
  -5  -1  -3   61.39   10.90
  -5  -1  -3   57.39    6.80
  -5  -1  -3   63.89    9.50
  -5  -1  -2   13.90    2.90
  -5  -1  -1  461.45   19.90
  -5  -1  -1  486.75   30.80
  -5  -1   0  980.90   73.19
  -5  -1   1  151.08   20.10
  -5  -1   1  123.09   28.50
  -5  -1   2    7.70    5.40
  -5  -1   2   10.10    9.50
  -5  -1   3  172.58   23.80
  -5  -1   3  216.38   27.30
  -5  -1   3  128.89   35.40
  -5  -1   4  265.57   30.30
  -5  -1   4  311.77   35.00
  -5  -1   4  237.58   46.60
  -5  -1   5  227.18   28.60
  -5  -1   5  176.78   42.30
  -5  -1   6   17.50   10.00
  -5  -1   6    8.70    7.70
  -5  -1   6   15.80   17.10
  -5  -1   7  -10.90    7.40
  -5  -1   7   -2.70    7.50
  -5  -1   8    2.30    8.30
  -5  -1   8  -23.50   18.80
  -5  -1   9    1.50    8.40
  -5  -1   9  -26.90   21.90
  -5  -1  10   70.99   32.60
  -5   0 -14    6.60    7.40
  -5   0 -14    6.80   11.00
  -5   0 -13   -5.50    7.10
  -5   0 -13   15.70   12.90
  -5   0 -12   18.20   10.80
  -5   0 -12    9.50    9.50
  -5   0 -11   94.99   23.00
  -5   0 -11  121.89   26.60
  -5   0 -10  218.38   32.10
  -5   0  -9  311.87   36.90
  -5   0  -9  277.87   37.80
  -5   0  -9  321.57   34.30
  -5   0  -8    9.30    6.30
  -5   0  -8    5.50    5.30
  -5   0  -8   15.80    7.20
  -5   0  -7   12.60    7.60
  -5   0  -7    3.00    7.00
  -5   0  -7   10.20    5.40
  -5   0  -7   16.30    7.30
  -5   0  -6  118.89   19.40
  -5   0  -6  107.59   19.30
  -5   0  -5  676.23   45.00
  -5   0  -5  621.04   42.70
  -5   0  -5  673.93   39.20
  -5   0  -5  646.64   37.60
  -5   0  -4  999.20   53.99
  -5   0  -4  996.70   46.50
  -5   0  -4  974.70   43.40
  -5   0  -3  589.64   39.60
  -5   0  -3  543.75   32.10
  -5   0  -3  533.15   28.30
  -5   0  -2  565.74   27.90
  -5   0  -2  616.74   33.50
  -5   0  -1    2.00    3.00
  -5   0  -1    2.50    2.50
  -5   0   0  671.43   31.30
  -5   0   0  680.93   38.30
  -5   0   0  716.73   43.70
  -5   0   1 2150.68   69.39
  -5   0   2  587.74   46.10
  -5   0   2  609.64   42.20
  -5   0   3  473.75   42.30
  -5   0   3  542.95   42.30
  -5   0   4   43.40   14.40
  -5   0   4   41.10   13.00
  -5   0   4   39.40   18.80
  -5   0   5   72.09   18.10
  -5   0   5   92.69   20.00
  -5   0   5   46.20   21.40
  -5   0   6   19.90    8.50
  -5   0   6   41.60   14.50
  -5   0   6   18.70   15.60
  -5   0   7   -2.60    5.70
  -5   0   7  -14.00    9.20
  -5   0   7    2.60   10.10
  -5   0   8   35.60   14.90
  -5   0   8   16.50   18.80
  -5   0   9   63.09   20.80
  -5   0  10   10.90   13.10
  -5   1 -13   16.10   11.30
  -5   1 -12   59.79   17.20
  -5   1 -11  169.38   29.10
  -5   1 -10   40.90   14.00
  -5   1  -9  104.99   21.20
  -5   1  -9  103.99   23.10
  -5   1  -8  449.16   42.00
  -5   1  -8  362.56   40.60
  -5   1  -8  404.16   38.60
  -5   1  -7  597.34   46.80
  -5   1  -7  503.65   43.90
  -5   1  -7  609.04   45.50
  -5   1  -6  207.68   26.40
  -5   1  -6  263.67   27.70
  -5   1  -6  212.28   24.70
  -5   1  -6  191.88   24.70
  -5   1  -6  206.18   24.70
  -5   1  -5  146.39   21.40
  -5   1  -5  135.29   18.80
  -5   1  -5  149.59   20.00
  -5   1  -5   87.49   15.20
  -5   1  -4   64.19   11.60
  -5   1  -4   54.29   12.30
  -5   1  -4   46.20   11.10
  -5   1  -3  114.99   17.60
  -5   1  -3   85.89   14.30
  -5   1  -3  120.49   16.20
  -5   1  -3  100.79   13.70
  -5   1  -2    0.50    3.00
  -5   1  -2    6.10    4.90
  -5   1  -2   -5.20    5.10
  -5   1  -1  375.16   23.70
  -5   1  -1  436.46   33.90
  -5   1  -1  437.26   31.10
  -5   1  -1  451.45   28.10
  -5   1   0  911.41   51.39
  -5   1   0  851.11   41.30
  -5   1   0  864.91   40.60
  -5   1   1  193.18   26.40
  -5   1   1  180.88   18.70
  -5   1   1  192.78   23.40
  -5   1   2    0.90    3.30
  -5   1   2   -5.20    5.30
  -5   1   2   -1.00    6.10
  -5   1   2    0.50    4.30
  -5   1   3   58.49   15.70
  -5   1   3   42.80   11.20
  -5   1   4  174.08   28.40
  -5   1   4  200.98   26.00
  -5   1   5  702.73   59.19
  -5   1   5  826.12   57.69
  -5   1   6  112.89   24.50
  -5   1   6  126.49   23.90
  -5   1   7   10.50    7.80
  -5   1   7   33.70   13.00
  -5   1   8   21.60   12.40
  -5   1   8   14.20    5.70
  -5   1   9    4.10   10.30
  -5   1  10   18.90   12.50
  -5   2 -13   -0.10    5.30
  -5   2 -12   27.00   13.00
  -5   2 -11   51.29   15.40
  -5   2 -10  143.79   26.20
  -5   2  -9  205.98   30.10
  -5   2  -9  170.88   29.80
  -5   2  -8    4.00    6.50
  -5   2  -8   17.40    7.80
  -5   2  -7   20.70    9.40
  -5   2  -7   25.00    9.90
  -5   2  -7   14.20    6.30
  -5   2  -7    8.10    5.30
  -5   2  -6    2.50    3.40
  -5   2  -6    9.70    6.40
  -5   2  -6    4.50    4.20
  -5   2  -6    7.00    5.30
  -5   2  -5  106.79   19.00
  -5   2  -5   73.19   15.00
  -5   2  -5   61.69   13.30
  -5   2  -5   58.39   11.30
  -5   2  -5   94.19   17.10
  -5   2  -4  186.28   24.10
  -5   2  -4  203.78   24.20
  -5   2  -4  218.18   25.00
  -5   2  -3  373.86   32.10
  -5   2  -3  387.36   32.90
  -5   2  -2  410.16   33.60
  -5   2  -2  391.16   30.10
  -5   2  -1  582.54   27.80
  -5   2  -1  631.54   42.50
  -5   2  -1  614.74   37.60
  -5   2   0   66.49   16.10
  -5   2   0   41.20    9.90
  -5   2   0   41.00    8.00
  -5   2   0   39.60   10.50
  -5   2   1  884.21   62.29
  -5   2   1  923.91   46.50
  -5   2   1 1054.89   57.89
  -5   2   1  983.70   49.00
  -5   2   2  680.13   53.89
  -5   2   2  713.13   48.10
  -5   2   3  446.06   35.50
  -5   2   3  516.55   48.70
  -5   2   3  483.85   40.50
  -5   2   3  492.85   38.90
  -5   2   4   38.20   15.10
  -5   2   4   36.40   11.60
  -5   2   4   38.40   12.00
  -5   2   5    1.10    4.80
  -5   2   5    4.00    6.20
  -5   2   5    3.70    6.10
  -5   2   6   67.19   20.10
  -5   2   6   72.99   17.40
  -5   2   7   22.90   12.00
  -5   2   8    3.30    5.00
  -5   2   8   -3.50    3.00
  -5   2   9   44.90   16.00
  -5   2  10   45.00   18.40
  -5   3 -12   16.00   11.20
  -5   3 -11   26.60   12.30
  -5   3 -10   11.70    7.60
  -5   3  -9    2.70    6.60
  -5   3  -9   13.90    7.20
  -5   3  -8  288.77   34.80
  -5   3  -8  243.68   30.90
  -5   3  -8  279.27   38.20
  -5   3  -7  256.47   31.90
  -5   3  -7  197.88   25.60
  -5   3  -7  239.28   32.80
  -5   3  -6   92.19   18.60
  -5   3  -6   97.79   19.00
  -5   3  -6   91.19   15.80
  -5   3  -5   25.60    8.90
  -5   3  -5   24.50    9.80
  -5   3  -5   22.30    8.70
  -5   3  -5   22.60    6.70
  -5   3  -5   24.40   10.00
  -5   3  -4   43.70   11.80
  -5   3  -4   22.20   10.20
  -5   3  -4   24.30    9.00
  -5   3  -3  314.37   31.60
  -5   3  -3  305.17   31.40
  -5   3  -3  331.07   31.70
  -5   3  -2  211.48   25.30
  -5   3  -2  183.28   23.50
  -5   3  -1  297.47   17.60
  -5   3  -1  338.77   31.90
  -5   3  -1  303.27   30.40
  -5   3   0  235.58   30.50
  -5   3   0  270.97   29.00
  -5   3   0  248.28   19.60
  -5   3   0  264.27   28.00
  -5   3   1  120.59   22.90
  -5   3   1  134.79   20.60
  -5   3   1  129.69   16.20
  -5   3   2   55.49   12.30
  -5   3   2   48.60   14.60
  -5   3   2   69.89   14.70
  -5   3   3   54.29   13.00
  -5   3   3   45.20   15.60
  -5   3   3   33.50   10.80
  -5   3   3   52.69   12.30
  -5   3   4  147.99   27.80
  -5   3   4  137.19   22.00
  -5   3   4  147.09   22.60
  -5   3   4  158.28   23.90
  -5   3   5  232.58   36.70
  -5   3   5  252.47   31.70
  -5   3   5  262.57   32.10
  -5   3   6   65.99   17.10
  -5   3   6   65.39   17.10
  -5   3   7   21.30   10.30
  -5   3   8   37.20   15.00
  -5   3   9    8.60    9.90
  -5   3   9   -0.30    3.20
  -5   3  10   32.50   16.40
  -5   4 -11   25.50   13.00
  -5   4 -10  155.88   33.20
  -5   4 -10  129.19   24.90
  -5   4  -9  189.28   34.40
  -5   4  -9  144.89   26.10
  -5   4  -8   19.30   10.60
  -5   4  -8   -0.10    7.00
  -5   4  -7   59.59   16.10
  -5   4  -7  101.69   22.00
  -5   4  -7   66.59   14.10
  -5   4  -6  231.88   23.70
  -5   4  -6  285.17   36.10
  -5   4  -5  223.48   18.30
  -5   4  -5  262.57   32.60
  -5   4  -4  307.57   34.70
  -5   4  -4  290.37   33.20
  -5   4  -4  294.67   33.30
  -5   4  -3  152.08   23.40
  -5   4  -3  164.18   25.00
  -5   4  -3  147.19   22.60
  -5   4  -2   23.90    8.30
  -5   4  -2   10.70    7.90
  -5   4  -2   15.30    8.20
  -5   4  -1   54.89   13.40
  -5   4  -1   73.39   15.80
  -5   4  -1   72.19    7.80
  -5   4  -1   74.79   15.20
  -5   4   0   38.10   12.00
  -5   4   0   46.90   13.70
  -5   4   0   45.00    8.40
  -5   4   0   55.19   14.30
  -5   4   0   57.19   13.70
  -5   4   1  706.33   57.19
  -5   4   1  774.62   41.30
  -5   4   1  820.12   53.69
  -5   4   1  902.41   55.99
  -5   4   1  840.82   52.69
  -5   4   2 1037.90   71.89
  -5   4   2 1167.18   65.89
  -5   4   2 1109.39   62.49
  -5   4   3  408.96   45.80
  -5   4   3  434.26   36.50
  -5   4   3  458.95   41.10
  -5   4   3  437.26   39.00
  -5   4   4  131.89   22.30
  -5   4   4  134.89   27.50
  -5   4   4   90.99   18.60
  -5   4   4  113.19   20.30
  -5   4   5    3.20    5.80
  -5   4   5   -5.70    7.90
  -5   4   5    2.60    6.50
  -5   4   6  340.17   39.00
  -5   4   6  367.66   40.70
  -5   4   7  188.28   31.20
  -5   4   7  214.58   34.40
  -5   4   8   42.20   15.90
  -5   4   9   39.10   15.10
  -5   4  10   17.00   11.70
  -5   5 -10   -3.30   10.30
  -5   5  -9    8.10   12.50
  -5   5  -8  138.89   29.40
  -5   5  -7  183.78   32.00
  -5   5  -6   98.89   21.80
  -5   5  -6   76.19   12.00
  -5   5  -5   48.40   15.40
  -5   5  -4    5.00    5.60
  -5   5  -4    3.60    4.30
  -5   5  -3   90.59   19.60
  -5   5  -3   97.89   20.10
  -5   5  -2  325.17   35.60
  -5   5  -2  264.07   32.50
  -5   5  -2  269.37   33.60
  -5   5  -1  354.26   36.80
  -5   5  -1  308.77   16.40
  -5   5  -1  280.77   33.20
  -5   5  -1  332.97   36.30
  -5   5   0  378.66   41.60
  -5   5   0  378.26   37.90
  -5   5   0  382.36   24.70
  -5   5   0  380.06   37.50
  -5   5   0  430.06   40.50
  -5   5   1  285.67   39.10
  -5   5   1  255.07   30.80
  -5   5   1  291.07   24.40
  -5   5   1  279.27   32.50
  -5   5   1  288.57   32.50
  -5   5   2  129.59   27.30
  -5   5   2  115.69   21.10
  -5   5   2  111.39   20.70
  -5   5   3  505.65   44.30
  -5   5   3  387.26   34.90
  -5   5   3  457.85   41.90
  -5   5   4  464.65   43.40
  -5   5   4  369.66   36.60
  -5   5   4  401.76   40.50
  -5   5   5  239.28   32.10
  -5   5   5  218.28   30.10
  -5   5   5  213.88   29.90
  -5   5   6  257.97   34.40
  -5   5   6  198.38   29.40
  -5   5   6  223.58   32.30
  -5   5   7    3.60    5.00
  -5   5   7   18.10    9.70
  -5   5   8   -0.50    7.00
  -5   5   8    7.70    5.70
  -5   5   9   25.80   14.30
  -5   5  10   20.90   13.10
  -5   6  -8   55.19   19.00
  -5   6  -7    0.90    6.20
  -5   6  -6   66.89   21.00
  -5   6  -5  119.39   25.60
  -5   6  -4  168.08   29.40
  -5   6  -4  161.88   27.30
  -5   6  -3  191.98   29.90
  -5   6  -3  164.78   28.50
  -5   6  -2  125.49   23.90
  -5   6  -2  140.99   25.40
  -5   6  -1  118.69   22.80
  -5   6  -1  121.89   10.20
  -5   6  -1  118.99   21.80
  -5   6   0   60.49   17.50
  -5   6   0   85.39   11.40
  -5   6   0   88.99   20.10
  -5   6   1   -5.00    5.90
  -5   6   1    0.40    3.90
  -5   6   2  296.37   34.40
  -5   6   2  290.47   34.90
  -5   6   3  204.18   29.10
  -5   6   3  240.18   32.10
  -5   6   4  177.48   27.60
  -5   6   4  169.08   27.10
  -5   6   5   14.90    8.50
  -5   6   5    6.40    4.60
  -5   6   6   26.10   12.40
  -5   6   6    6.70    6.90
  -5   6   6    5.60    8.50
  -5   6   7  129.69   26.40
  -5   6   7  108.59   24.80
  -5   6   8   72.59   22.40
  -5   6   8   78.69   22.10
  -5   6   9   41.70   17.60
  -5   6   9   69.49   21.70
  -5   6  10   64.29   22.60
  -5   7  -7   57.19   21.50
  -5   7  -6   25.80   13.20
  -5   7  -5   -8.50   12.20
  -5   7  -4   -8.30    8.10
  -5   7  -4   -2.60    7.20
  -5   7  -3   35.40   14.00
  -5   7  -3   47.50   15.30
  -5   7  -2  118.49   24.90
  -5   7  -2  116.39   23.40
  -5   7  -1  148.79   11.90
  -5   7  -1  171.98   28.60
  -5   7  -1  184.78   30.50
  -5   7   0  362.86   40.70
  -5   7   0  357.66   42.10
  -5   7   1  264.87   35.00
  -5   7   1  287.17   36.90
  -5   7   2    5.90    7.20
  -5   7   2    9.50    7.20
  -5   7   3  123.69   24.40
  -5   7   3  133.79   24.40
  -5   7   4  175.48   28.10
  -5   7   4  179.68   29.50
  -5   7   5  169.48   27.50
  -5   7   5  185.48   30.60
  -5   7   6  140.89   27.50
  -5   7   6  115.99   23.40
  -5   7   7   -5.80    8.30
  -5   7   7   -2.10    7.90
  -5   7   8    8.20    8.00
  -5   7   8  -20.90   12.60
  -5   7   9    3.00    6.30
  -5   7   9    1.80    9.20
  -5   7  10   18.70   13.70
  -5   7  10   -6.70    9.30
  -5   8  -6   30.10   16.90
  -5   8  -5  123.79   30.50
  -5   8  -4   73.29   21.70
  -5   8  -4   61.79   19.10
  -5   8  -3   60.29   19.30
  -5   8  -3   50.59   17.10
  -5   8  -2    1.00    6.10
  -5   8  -2    5.10    7.10
  -5   8  -1   39.90   14.70
  -5   8  -1   40.70   14.50
  -5   8   0   29.00   12.90
  -5   8   0   27.20   11.60
  -5   8   1  141.99   27.30
  -5   8   1  140.89   26.60
  -5   8   2  217.78   32.60
  -5   8   2  271.87   37.50
  -5   8   3   98.49   23.00
  -5   8   3   75.49   19.30
  -5   8   4  -17.10   10.50
  -5   8   4   -2.30    8.70
  -5   8   5   -6.40    9.70
  -5   8   5    5.70    7.10
  -5   8   6   19.90   11.40
  -5   8   6   16.00    8.70
  -5   8   7  161.98   31.70
  -5   8   7  123.59   24.40
  -5   8   8   76.39   23.10
  -5   8   8   82.99   20.00
  -5   8   9   20.00   17.70
  -5   8   9   17.80   12.50
  -5   8  10   25.90   18.10
  -5   8  10   29.10   16.90
  -5   9  -4    9.00   12.90
  -5   9  -4    1.30    7.30
  -5   9  -3   44.80   17.50
  -5   9  -3   37.40   11.90
  -5   9  -2   58.49   21.90
  -5   9  -2  112.69   25.70
  -5   9  -1  136.49   30.20
  -5   9  -1  120.59   26.20
  -5   9   0  127.49   28.40
  -5   9   0  142.29   28.00
  -5   9   1   89.89   23.80
  -5   9   1  108.69   23.80
  -5   9   2   33.30   14.90
  -5   9   2   45.10   15.70
  -5   9   3  114.39   25.50
  -5   9   3  114.19   24.40
  -5   9   4  257.07   35.80
  -5   9   4  243.08   37.30
  -5   9   5  255.67   35.90
  -5   9   5  287.97   41.30
  -5   9   6  125.09   27.70
  -5   9   6  126.19   25.40
  -5   9   7   21.60   12.10
  -5   9   7   13.60    8.90
  -5   9   8    1.00    7.40
  -5   9   8    9.50    7.60
  -5   9   9   14.80   14.80
  -5   9  10   22.40   13.60
  -5  10  -3   66.79   23.70
  -5  10  -2   37.20   17.00
  -5  10  -2   56.29   20.60
  -5  10  -1   15.30   13.50
  -5  10  -1    4.70    6.80
  -5  10   0   -4.90    8.80
  -5  10   0  -10.00    9.90
  -5  10   1   62.39   20.30
  -5  10   1   53.19   18.80
  -5  10   2  129.99   30.50
  -5  10   2  133.49   27.60
  -5  10   3  171.98   34.10
  -5  10   3  142.39   28.40
  -5  10   4   47.50   19.10
  -5  10   4   56.59   18.70
  -5  10   5  -12.70   10.40
  -5  10   5    6.60    4.50
  -5  10   6    1.50    7.30
  -5  10   6    7.00    6.90
  -5  10   7   17.90   12.70
  -5  10   7   55.79   18.10
  -5  10   8   20.40   13.10
  -5  10   8   34.10   13.90
  -5  10   9   34.50   16.70
  -5  11   0   24.30   13.90
  -5  11   0   17.80   11.80
  -5  11   1   55.99   22.50
  -5  11   1   62.39   19.70
  -5  11   2   34.80   16.90
  -5  11   2   39.20   16.10
  -5  11   3    2.20    8.80
  -5  11   3    7.20    8.10
  -5  11   4   53.19   19.60
  -5  11   4   38.60   14.50
  -5  11   5   80.49   24.50
  -5  11   5   66.19   20.20
  -5  11   6   47.50   20.20
  -5  11   6   29.70   13.10
  -5  11   7   34.80   19.60
  -5  11   7   64.69   20.80
  -5  11   8   -1.00    5.70
  -5  11   9    8.10    8.70
  -5  12   3   45.20   19.00
  -5  12   4  -17.70   11.70
  -5  12   5   -2.20    6.20
  -5  12   6    9.70    7.50
  -5  12   7    3.70    7.70
  -5  12   8    9.90   11.00
  -4 -14 -11   14.10   13.60
  -4 -14 -10    2.00    7.00
  -4 -14  -8   10.70   22.70
  -4 -14  -7    0.20   21.20
  -4 -14  -6  -14.30   20.70
  -4 -14  -5   -7.00   22.90
  -4 -13 -12   22.20   14.80
  -4 -13 -11   33.60   17.70
  -4 -13 -10   28.30   15.10
  -4 -13  -9   16.70   17.00
  -4 -13  -9   37.50   16.90
  -4 -13  -8    6.20   11.70
  -4 -13  -8   28.00   12.10
  -4 -13  -7   -0.10   12.10
  -4 -13  -6   52.99   33.20
  -4 -13  -5   12.40   25.00
  -4 -13  -4   34.80   33.70
  -4 -13  -3   68.39   48.50
  -4 -12 -13   91.89   26.90
  -4 -12 -12  118.09   29.90
  -4 -12 -11   17.60   11.30
  -4 -12 -10  -19.90   12.10
  -4 -12  -9  -25.80   18.30
  -4 -12  -9   13.10    9.70
  -4 -12  -8   16.70   15.60
  -4 -12  -8   60.99   18.60
  -4 -12  -7  114.09   23.00
  -4 -12  -7   92.79   16.20
  -4 -12  -6   36.20   26.50
  -4 -12  -6   76.59   17.40
  -4 -12  -6   44.50   11.50
  -4 -12  -5   11.60   25.00
  -4 -12  -4   24.60   28.70
  -4 -12  -3  -16.10   22.40
  -4 -12  -2   16.30   27.10
  -4 -12  -1   24.10   41.10
  -4 -11 -13    1.40    8.70
  -4 -11 -12   58.79   19.30
  -4 -11 -11   43.60   16.70
  -4 -11 -11   48.20   12.40
  -4 -11 -10   20.90   12.80
  -4 -11 -10    9.80    9.50
  -4 -11 -10   21.20    7.70
  -4 -11  -9   19.50   18.00
  -4 -11  -9   14.00   10.70
  -4 -11  -9    8.30    4.80
  -4 -11  -8   30.10   17.60
  -4 -11  -8   41.50   14.00
  -4 -11  -8   49.20   10.80
  -4 -11  -7    8.30    5.00
  -4 -11  -7   24.90   10.00
  -4 -11  -7   18.90    7.70
  -4 -11  -6    3.10    6.70
  -4 -11  -6    2.60    9.80
  -4 -11  -6   -5.50    6.60
  -4 -11  -6    8.60    7.90
  -4 -11  -6    0.20    3.50
  -4 -11  -5  -15.50   11.60
  -4 -11  -5   -1.80   11.60
  -4 -11  -5    9.70    6.50
  -4 -11  -4   36.60   28.10
  -4 -11  -4   62.59   11.60
  -4 -11  -3   88.29   39.40
  -4 -11  -2   -0.80   13.00
  -4 -11  -1    5.10   13.40
  -4 -11   0   23.80   24.30
  -4 -11   1   -3.10   25.90
  -4 -10 -14   24.90   17.10
  -4 -10 -13   33.30   16.70
  -4 -10 -13   48.90   13.50
  -4 -10 -12   76.49   23.40
  -4 -10 -12   74.69   16.20
  -4 -10 -11    5.80    6.20
  -4 -10 -11    4.90    3.70
  -4 -10 -10    1.00    5.00
  -4 -10 -10    4.70    5.30
  -4 -10 -10    8.00    5.10
  -4 -10  -9   51.49   18.90
  -4 -10  -9   42.10   12.90
  -4 -10  -9   44.40   15.20
  -4 -10  -9   55.59   15.40
  -4 -10  -9   60.09   11.50
  -4 -10  -8   71.89   17.50
  -4 -10  -8   66.19   17.20
  -4 -10  -8   73.99   18.20
  -4 -10  -8   90.99   27.00
  -4 -10  -8   90.49   13.60
  -4 -10  -7  283.67   34.10
  -4 -10  -7  263.57   49.00
  -4 -10  -7  243.48   33.30
  -4 -10  -7  258.17   22.60
  -4 -10  -7  241.58   31.10
  -4 -10  -6  139.39   22.60
  -4 -10  -6  146.69   27.90
  -4 -10  -6  122.29   36.00
  -4 -10  -6  119.09   15.70
  -4 -10  -6  129.59   22.50
  -4 -10  -5    2.50    4.40
  -4 -10  -5    5.30    3.50
  -4 -10  -5    6.60    3.30
  -4 -10  -4    2.20    5.80
  -4 -10  -4   -4.60   18.60
  -4 -10  -3   35.00   17.00
  -4 -10  -3   18.00   15.90
  -4 -10  -3   55.09    8.80
  -4 -10  -2  167.68   51.39
  -4 -10  -1  153.88   52.09
  -4 -10   0   40.70   30.80
  -4 -10   1  -60.59   36.00
  -4 -10   2   20.70   23.50
  -4  -9 -14   26.80   15.00
  -4  -9 -14   21.50   10.10
  -4  -9 -13   14.60   10.60
  -4  -9 -13   11.80    7.90
  -4  -9 -12  102.99   23.60
  -4  -9 -12  107.89   25.70
  -4  -9 -12  125.09   20.40
  -4  -9 -11  396.16   47.00
  -4  -9 -11  407.26   35.20
  -4  -9 -10  221.28   22.70
  -4  -9 -10  257.77   29.80
  -4  -9 -10  246.78   35.20
  -4  -9 -10  223.58   31.40
  -4  -9 -10  267.17   26.50
  -4  -9  -9   21.00    8.50
  -4  -9  -9   19.50    7.30
  -4  -9  -9   28.60   10.80
  -4  -9  -9   23.70   10.20
  -4  -9  -9   21.00    6.80
  -4  -9  -8   33.90   10.40
  -4  -9  -8   15.20    6.10
  -4  -9  -8   13.20    8.50
  -4  -9  -8   16.70    9.00
  -4  -9  -8   22.20    6.00
  -4  -9  -7   16.60    8.30
  -4  -9  -7  -16.80   12.40
  -4  -9  -7    0.80    4.60
  -4  -9  -7    1.70    4.50
  -4  -9  -7   -4.70    3.20
  -4  -9  -6   86.79   17.30
  -4  -9  -6   75.79   16.10
  -4  -9  -6   72.69   24.30
  -4  -9  -6  103.99   20.80
  -4  -9  -6   82.89   11.30
  -4  -9  -5  181.98   23.10
  -4  -9  -5  158.88   26.60
  -4  -9  -5  131.99   35.80
  -4  -9  -5  187.58   17.90
  -4  -9  -5  156.18   26.00
  -4  -9  -5  145.79   21.50
  -4  -9  -4  237.68   35.50
  -4  -9  -4  136.99   35.10
  -4  -9  -4  206.38   28.50
  -4  -9  -3  204.18   35.80
  -4  -9  -3  199.18   17.80
  -4  -9  -3  172.18   25.50
  -4  -9  -2   59.99   21.80
  -4  -9  -2   25.80   19.90
  -4  -9  -2   32.70    4.40
  -4  -9  -2   30.00   10.60
  -4  -9  -1   57.19   32.30
  -4  -9  -1   53.39   14.40
  -4  -9   0  106.79   44.00
  -4  -9   0  124.69   21.50
  -4  -9   1  142.69   52.29
  -4  -9   2  106.19   48.40
  -4  -9   3    6.00   18.30
  -4  -8 -14   26.50   14.10
  -4  -8 -13   57.49   18.60
  -4  -8 -13   89.89   23.60
  -4  -8 -12   79.69   20.30
  -4  -8 -12   70.59   20.60
  -4  -8 -12   78.59   16.20
  -4  -8 -11   38.40   13.30
  -4  -8 -11   50.29   12.30
  -4  -8 -10    1.60    4.50
  -4  -8 -10    7.40    8.00
  -4  -8 -10    9.70    7.50
  -4  -8 -10    1.20    2.70
  -4  -8  -9   24.80    8.70
  -4  -8  -9   38.10    9.30
  -4  -8  -9   38.90   13.00
  -4  -8  -9   26.10    9.80
  -4  -8  -9   30.50    7.80
  -4  -8  -8   40.50   13.60
  -4  -8  -8   33.50   11.70
  -4  -8  -8   61.69   14.70
  -4  -8  -8   53.99    9.30
  -4  -8  -7  349.96   35.60
  -4  -8  -7  441.86   35.10
  -4  -8  -7  402.86   23.90
  -4  -8  -7  417.46   44.00
  -4  -8  -7  420.06   35.80
  -4  -8  -6  737.13   49.90
  -4  -8  -6  932.21   78.09
  -4  -8  -6  867.11   52.39
  -4  -8  -6  837.32   34.10
  -4  -8  -6  794.82   59.19
  -4  -8  -6  752.72   47.70
  -4  -8  -5  251.67   26.60
  -4  -8  -5  199.08   38.40
  -4  -8  -5  277.97   31.10
  -4  -8  -5  252.87   17.70
  -4  -8  -5  220.38   23.70
  -4  -8  -5  275.37   32.50
  -4  -8  -4   79.69   18.50
  -4  -8  -4   50.29   20.10
  -4  -8  -4   63.29   15.40
  -4  -8  -3   14.90   11.10
  -4  -8  -3   11.50    6.20
  -4  -8  -3   16.10    5.40
  -4  -8  -3   12.30    7.60
  -4  -8  -2  360.76   46.50
  -4  -8  -2  242.98   50.19
  -4  -8  -2  335.97   19.00
  -4  -8  -2  315.77   31.70
  -4  -8  -1  191.08   45.00
  -4  -8  -1  311.87   46.80
  -4  -8  -1  272.37   29.00
  -4  -8   0   15.40   18.90
  -4  -8   0   36.80   10.90
  -4  -8   1    8.00   15.60
  -4  -8   1    2.50    3.10
  -4  -8   2    1.10   15.50
  -4  -8   2    7.10    4.40
  -4  -8   3  -47.30   29.30
  -4  -8   4    8.40   19.70
  -4  -8   5   20.90   28.90
  -4  -7 -14   48.50   17.70
  -4  -7 -14   34.20   17.90
  -4  -7 -13   15.10   10.70
  -4  -7 -13   10.10   10.00
  -4  -7 -12   13.10    7.50
  -4  -7 -12   -1.10    6.10
  -4  -7 -11  198.28   31.50
  -4  -7 -10  259.47   30.00
  -4  -7 -10  234.98   32.20
  -4  -7 -10  263.97   31.70
  -4  -7  -9   56.09   12.40
  -4  -7  -9   68.19   15.20
  -4  -7  -9   88.69   19.10
  -4  -7  -9   85.49   13.30
  -4  -7  -8   34.50    8.10
  -4  -7  -8   29.00    8.30
  -4  -7  -8   38.60   11.10
  -4  -7  -8   45.80   13.10
  -4  -7  -8   43.60    8.70
  -4  -7  -7   44.80    9.20
  -4  -7  -7   39.80   13.20
  -4  -7  -7   34.50   10.50
  -4  -7  -7   29.20   10.60
  -4  -7  -7   22.60    5.20
  -4  -7  -7   40.80   13.30
  -4  -7  -6    1.70    8.10
  -4  -7  -6   -0.10    2.50
  -4  -7  -6   -2.40    5.60
  -4  -7  -6    0.10    2.40
  -4  -7  -6    1.00    1.40
  -4  -7  -6    2.10    4.50
  -4  -7  -5  150.48   31.90
  -4  -7  -5  174.38   20.70
  -4  -7  -5  169.58   11.50
  -4  -7  -5  151.28   23.00
  -4  -7  -5  156.78   18.30
  -4  -7  -4  103.09   27.10
  -4  -7  -4  123.89   19.30
  -4  -7  -4  143.19   17.70
  -4  -7  -4  107.79   19.00
  -4  -7  -3  165.58   25.30
  -4  -7  -3  193.48   18.20
  -4  -7  -3  189.28   23.50
  -4  -7  -2  476.35   48.10
  -4  -7  -2  542.55   26.50
  -4  -7  -1    9.30    6.70
  -4  -7  -1   42.70   21.50
  -4  -7   0   24.10   12.80
  -4  -7   0   13.80   17.30
  -4  -7   1   44.30   23.80
  -4  -7   1   42.00   20.80
  -4  -7   2   66.89   31.50
  -4  -7   3  135.29   44.40
  -4  -7   3  156.08   21.00
  -4  -7   4   24.70   22.30
  -4  -7   5  -29.50   24.00
  -4  -7   6    1.30   25.50
  -4  -6 -14  115.49   27.10
  -4  -6 -14  121.79   28.30
  -4  -6 -13   89.19   21.60
  -4  -6 -13   64.39   19.10
  -4  -6 -12   21.20   10.80
  -4  -6 -12   16.30   10.50
  -4  -6 -11   -2.70    7.60
  -4  -6 -10   82.29   16.10
  -4  -6 -10   70.49   15.80
  -4  -6 -10   68.79   17.50
  -4  -6  -9  168.68   20.90
  -4  -6  -9  179.48   26.00
  -4  -6  -9  163.98   22.80
  -4  -6  -8   42.60   10.70
  -4  -6  -8   28.50    9.00
  -4  -6  -8   29.60    7.40
  -4  -6  -8   17.90    9.50
  -4  -6  -8   38.20   12.70
  -4  -6  -8   37.10    8.20
  -4  -6  -7  106.79   18.00
  -4  -6  -7   84.39   10.40
  -4  -6  -7   86.09   13.40
  -4  -6  -7   88.49   21.30
  -4  -6  -7   82.49    9.80
  -4  -6  -7  100.59   19.60
  -4  -6  -7  100.19   15.30
  -4  -6  -6  644.64   43.60
  -4  -6  -6  635.04   28.70
  -4  -6  -6  630.84   23.10
  -4  -6  -6  623.04   36.70
  -4  -6  -6  620.74   47.40
  -4  -6  -5  279.97   20.90
  -4  -6  -5  296.27   30.90
  -4  -6  -5  244.98   20.50
  -4  -6  -4   75.29   21.40
  -4  -6  -4   87.99   13.70
  -4  -6  -4  109.69   15.20
  -4  -6  -4   84.59   11.20
  -4  -6  -3  126.29   19.50
  -4  -6  -3   93.19   25.30
  -4  -6  -3  138.39   15.40
  -4  -6  -2  212.08   39.20
  -4  -6  -2  233.48   30.50
  -4  -6  -2  278.87   19.40
  -4  -6  -2  278.17   25.20
  -4  -6  -1  692.33   74.09
  -4  -6  -1  834.52   64.49
  -4  -6  -1  830.32   43.30
  -4  -6   0  163.88   38.30
  -4  -6   0  170.68   32.30
  -4  -6   0  204.58   20.20
  -4  -6   1    2.40   15.30
  -4  -6   1   -5.40    7.90
  -4  -6   1    1.70    2.10
  -4  -6   2   -6.90   13.10
  -4  -6   2   -1.20   15.10
  -4  -6   2    7.50    5.10
  -4  -6   3   23.00   22.00
  -4  -6   3   15.70    9.40
  -4  -6   3   15.90    6.30
  -4  -6   4   16.70    9.90
  -4  -6   4   17.80   17.20
  -4  -6   5   23.00   12.00
  -4  -6   5   -4.40   13.60
  -4  -6   6   11.90    8.20
  -4  -6   6  -44.50   26.90
  -4  -6   7   21.20   12.00
  -4  -6   7   12.50   27.40
  -4  -5 -15   29.40   13.50
  -4  -5 -14   29.50   13.20
  -4  -5 -14   19.80   10.80
  -4  -5 -13    1.00    6.30
  -4  -5 -13    2.30    6.60
  -4  -5 -12   50.39   15.80
  -4  -5 -12   41.80   14.50
  -4  -5 -11  207.88   31.40
  -4  -5 -11  200.88   11.50
  -4  -5 -11  179.78   11.40
  -4  -5 -10  515.65   40.60
  -4  -5 -10  479.95   44.90
  -4  -5 -10  449.06   40.10
  -4  -5  -9  199.08   22.20
  -4  -5  -9  252.67   31.00
  -4  -5  -9  251.17   27.50
  -4  -5  -8    2.50    4.90
  -4  -5  -8    9.00    6.40
  -4  -5  -8   -1.20    3.40
  -4  -5  -8   -2.90    6.20
  -4  -5  -8    0.70    5.40
  -4  -5  -7   20.10    8.70
  -4  -5  -7   13.80    5.00
  -4  -5  -7   13.20    3.20
  -4  -5  -7   20.90    9.70
  -4  -5  -7    2.60    4.10
  -4  -5  -6  322.57   29.80
  -4  -5  -6  327.27   27.40
  -4  -5  -6  283.57   36.30
  -4  -5  -6  306.67   23.60
  -4  -5  -6  319.77   16.20
  -4  -5  -6  302.17   31.50
  -4  -5  -5 1636.54   72.39
  -4  -5  -5 1188.78   45.80
  -4  -5  -4  788.42   35.00
  -4  -5  -4  836.22   58.09
  -4  -5  -4  907.91   44.80
  -4  -5  -4  789.02   32.00
  -4  -5  -4  782.52   45.90
  -4  -5  -3  193.48   21.00
  -4  -5  -3  223.18   32.80
  -4  -5  -3  253.97   20.90
  -4  -5  -3  254.27   23.50
  -4  -5  -2   65.79   14.90
  -4  -5  -2   65.29   19.90
  -4  -5  -2   75.19   10.10
  -4  -5  -2   77.89   12.10
  -4  -5  -1  127.59   22.80
  -4  -5  -1  161.58   32.50
  -4  -5  -1  158.68   13.00
  -4  -5  -1  178.38   17.30
  -4  -5   0  479.05   49.40
  -4  -5   0  450.55   57.19
  -4  -5   0  482.05   27.90
  -4  -5   1  343.47   45.90
  -4  -5   1  267.67   46.70
  -4  -5   1  362.36   35.20
  -4  -5   1  336.47   22.60
  -4  -5   2   89.19   29.70
  -4  -5   2   86.69   24.90
  -4  -5   2   86.49   17.70
  -4  -5   2  106.89   12.60
  -4  -5   3  224.08   47.90
  -4  -5   3  235.68   32.20
  -4  -5   3  238.28   19.90
  -4  -5   4   57.39   27.50
  -4  -5   4   93.09   21.30
  -4  -5   4   74.19   11.60
  -4  -5   5   -1.20    8.40
  -4  -5   5    1.30    3.40
  -4  -5   5    5.00    2.60
  -4  -5   6   22.80   19.30
  -4  -5   6   17.90    9.50
  -4  -5   6    3.60    3.80
  -4  -5   7   28.10   15.40
  -4  -5   7    7.10   20.00
  -4  -5   8   88.89   26.70
  -4  -5   8   40.80   32.50
  -4  -4 -15   -5.50    8.20
  -4  -4 -15    3.30    6.60
  -4  -4 -14  112.29   25.50
  -4  -4 -14  106.49   27.20
  -4  -4 -13  200.08   32.60
  -4  -4 -13  171.78   31.10
  -4  -4 -12  104.39   22.90
  -4  -4 -12  124.19   24.70
  -4  -4 -11   20.10    9.70
  -4  -4 -11   23.70    9.80
  -4  -4 -10   57.19   15.90
  -4  -4 -10   55.89   14.20
  -4  -4 -10   66.09   14.40
  -4  -4  -9  363.06   33.30
  -4  -4  -9  445.76   40.80
  -4  -4  -9  426.26   33.50
  -4  -4  -9  381.76   18.60
  -4  -4  -9  361.46   45.40
  -4  -4  -8  276.27   26.60
  -4  -4  -8  313.17   32.80
  -4  -4  -8  300.37   23.80
  -4  -4  -8  288.87   38.10
  -4  -4  -8  300.67   13.40
  -4  -4  -8  325.37   36.10
  -4  -4  -7  130.99   20.00
  -4  -4  -7  142.39   12.10
  -4  -4  -7  133.19   24.90
  -4  -4  -7  161.88   23.70
  -4  -4  -7  154.28   17.40
  -4  -4  -6  526.65   38.00
  -4  -4  -6  455.05   21.20
  -4  -4  -6  480.75   44.80
  -4  -4  -6  469.35   27.90
  -4  -4  -6  506.65   40.20
  -4  -4  -5 1021.00   49.99
  -4  -4  -5  908.91   36.20
  -4  -4  -4  146.19   21.20
  -4  -4  -4  123.69   15.80
  -4  -4  -4  129.39   17.30
  -4  -4  -4  131.39   10.00
  -4  -4  -3   -1.30    5.80
  -4  -4  -3    0.50    2.00
  -4  -4  -3    3.00    3.10
  -4  -4  -3    0.30    2.50
  -4  -4  -2   98.29   21.80
  -4  -4  -2  104.89   15.60
  -4  -4  -2  115.59   12.80
  -4  -4  -2  104.49   13.10
  -4  -4  -1 1635.14   77.99
  -4  -4  -1 1772.92  100.69
  -4  -4  -1 1911.81   56.29
  -4  -4  -1 1668.93   54.79
  -4  -4   0  843.62   60.59
  -4  -4   0  846.02   73.89
  -4  -4   0  921.71   50.49
  -4  -4   0  802.22   31.80
  -4  -4   1   16.40    7.40
  -4  -4   1   18.90   12.20
  -4  -4   1   42.60   11.50
  -4  -4   1   31.00    5.30
  -4  -4   2   52.09   21.60
  -4  -4   2   47.60   16.80
  -4  -4   2   43.50   13.20
  -4  -4   2   43.30    6.40
  -4  -4   3   26.40   18.30
  -4  -4   3   32.60   16.10
  -4  -4   3   26.30   10.80
  -4  -4   3   33.60    6.00
  -4  -4   4  208.08   44.70
  -4  -4   4  270.57   35.00
  -4  -4   4  236.68   18.30
  -4  -4   4  242.08   20.00
  -4  -4   5  195.68   46.10
  -4  -4   5  248.78   34.90
  -4  -4   5  220.88   21.10
  -4  -4   6   27.30   15.70
  -4  -4   6   30.60   15.70
  -4  -4   6   29.80    8.90
  -4  -4   7   19.00   12.70
  -4  -4   7  -20.30   18.20
  -4  -4   8   22.40   15.40
  -4  -4   8    3.60   12.90
  -4  -4   9    3.80    9.40
  -4  -4   9  -36.50   24.50
  -4  -3 -15   32.90   18.60
  -4  -3 -15   18.70   13.30
  -4  -3 -14   75.59   24.00
  -4  -3 -14   71.59   21.20
  -4  -3 -13  -12.50   10.00
  -4  -3 -13   12.80    9.60
  -4  -3 -12    1.80    6.50
  -4  -3 -12    0.10    5.90
  -4  -3 -11    5.00    3.80
  -4  -3 -11    4.20    6.30
  -4  -3 -11    3.10    4.70
  -4  -3 -10  159.38   23.40
  -4  -3 -10  130.69   23.20
  -4  -3 -10  147.39   20.70
  -4  -3  -9  207.68   27.90
  -4  -3  -9  171.98   23.20
  -4  -3  -9  197.78   33.00
  -4  -3  -9  186.28   21.60
  -4  -3  -9  185.98   23.70
  -4  -3  -8   80.39   14.20
  -4  -3  -8  103.39   18.70
  -4  -3  -8   81.99   20.70
  -4  -3  -8  102.39   15.30
  -4  -3  -7  108.09   15.00
  -4  -3  -7  141.39   20.80
  -4  -3  -7  134.69   14.50
  -4  -3  -7  125.79   14.20
  -4  -3  -7  129.19   11.10
  -4  -3  -7  144.49   25.40
  -4  -3  -6   25.50    6.20
  -4  -3  -6   32.00    9.10
  -4  -3  -6   22.30   10.90
  -4  -3  -6   19.60    4.20
  -4  -3  -6   26.30    5.50
  -4  -3  -5  506.35   24.90
  -4  -3  -5  533.05   21.50
  -4  -3  -5  493.95   22.10
  -4  -3  -5  561.44   44.40
  -4  -3  -4 2097.99   78.79
  -4  -3  -4 1893.01   73.29
  -4  -3  -4 1993.50   49.10
  -4  -3  -3 2001.60   81.29
  -4  -3  -3 1913.61   65.09
  -4  -3  -2  522.95   44.20
  -4  -3  -2  542.65   29.70
  -4  -3  -2  481.45   28.00
  -4  -3  -1  266.67   24.60
  -4  -3  -1  305.07   37.10
  -4  -3  -1  335.67   21.80
  -4  -3  -1  291.77   18.20
  -4  -3   0  212.38   26.00
  -4  -3   0  233.78   36.00
  -4  -3   0  237.28   23.80
  -4  -3   0  199.98   12.10
  -4  -3   1  509.85   56.89
  -4  -3   1  445.96   44.20
  -4  -3   1  538.65   38.30
  -4  -3   2   99.89   22.50
  -4  -3   2   66.99   23.00
  -4  -3   2  108.79   18.70
  -4  -3   3   11.50   10.30
  -4  -3   3   50.99   18.80
  -4  -3   3   41.00   12.10
  -4  -3   3   41.40    5.20
  -4  -3   3   40.60    4.80
  -4  -3   4  110.09   31.80
  -4  -3   4  113.39   29.20
  -4  -3   4  199.38   28.10
  -4  -3   4  162.18   13.40
  -4  -3   5   76.39   19.10
  -4  -3   5   55.49    9.60
  -4  -3   6  -21.60   11.10
  -4  -3   6    0.20    2.60
  -4  -3   7   16.70   13.60
  -4  -3   7   12.60   10.60
  -4  -3   7   13.00    5.10
  -4  -3   8   57.39   19.10
  -4  -3   8   51.29   29.20
  -4  -3   9   82.99   24.90
  -4  -3   9  112.29   42.20
  -4  -3  10   22.20   35.70
  -4  -2 -15   -8.50   10.60
  -4  -2 -14   39.60   18.90
  -4  -2 -14   28.00   13.00
  -4  -2 -13  243.78   40.10
  -4  -2 -13  238.18   35.20
  -4  -2 -12  159.58   30.50
  -4  -2 -12  182.18   29.90
  -4  -2 -11   53.59   16.60
  -4  -2 -11   76.49   19.40
  -4  -2 -10    0.30    3.70
  -4  -2 -10    1.60    6.80
  -4  -2 -10   -0.60    4.30
  -4  -2 -10   -2.80    3.20
  -4  -2  -9  295.57   33.50
  -4  -2  -9  249.78   28.40
  -4  -2  -9  257.17   36.90
  -4  -2  -9  244.38   26.50
  -4  -2  -8  502.05   41.80
  -4  -2  -8  442.86   34.60
  -4  -2  -8  514.65   38.70
  -4  -2  -8  494.15   48.20
  -4  -2  -7   43.00    9.80
  -4  -2  -7   46.10   12.00
  -4  -2  -7   49.20   10.70
  -4  -2  -7   40.70   12.10
  -4  -2  -7   50.89    9.80
  -4  -2  -6  100.39   13.20
  -4  -2  -6  100.19   12.30
  -4  -2  -6  105.29   11.30
  -4  -2  -6  124.59   20.60
  -4  -2  -5  201.88   16.20
  -4  -2  -5  244.58   27.60
  -4  -2  -5  214.18   16.10
  -4  -2  -5  230.68   16.80
  -4  -2  -4   -0.80    1.40
  -4  -2  -4   -0.90    2.40
  -4  -2  -4    0.70    1.50
  -4  -2  -3   16.90    6.20
  -4  -2  -3   16.00    4.50
  -4  -2  -3   12.70    2.70
  -4  -2  -2  324.37   23.50
  -4  -2  -2  345.57   33.40
  -4  -2  -1  505.85   28.50
  -4  -2  -1  461.25   29.40
  -4  -2  -1  482.85   42.90
  -4  -2   0  933.01   49.80
  -4  -2   0  931.11   64.59
  -4  -2   1  175.68   20.60
  -4  -2   1  178.18   23.80
  -4  -2   1  169.98   29.50
  -4  -2   2   -4.20    7.10
  -4  -2   2    5.20    8.30
  -4  -2   2    3.70    4.50
  -4  -2   3   -6.20    4.80
  -4  -2   3    8.50    8.10
  -4  -2   3    0.90    8.20
  -4  -2   3   -2.00    5.50
  -4  -2   4   78.19   13.10
  -4  -2   4   78.79   22.20
  -4  -2   4   86.99   27.10
  -4  -2   4   78.29   17.50
  -4  -2   4   81.99    6.50
  -4  -2   5  175.28   20.90
  -4  -2   5  130.89   35.00
  -4  -2   5  184.28   27.10
  -4  -2   5  166.88   13.00
  -4  -2   6   53.19   11.50
  -4  -2   6   46.50   20.10
  -4  -2   6   88.69   20.00
  -4  -2   6   54.49    9.00
  -4  -2   7   10.10    5.80
  -4  -2   7    8.10    5.90
  -4  -2   7    8.80    5.10
  -4  -2   8    9.30   16.50
  -4  -2   8   -0.20    7.40
  -4  -2   8    9.20    5.20
  -4  -2   9   13.70   14.10
  -4  -2   9    0.20   11.90
  -4  -2  10   28.90   13.50
  -4  -2  10    6.50   16.90
  -4  -2  11    2.90   17.90
  -4  -1 -15    3.60    8.10
  -4  -1 -14   -0.50    6.90
  -4  -1 -14    5.40    4.90
  -4  -1 -13    4.20    6.10
  -4  -1 -13   45.80   15.20
  -4  -1 -12  104.99   26.10
  -4  -1 -12  107.29   23.20
  -4  -1 -11  143.39   28.10
  -4  -1 -11  121.79   23.00
  -4  -1 -10  144.99   26.50
  -4  -1 -10  135.59   24.00
  -4  -1  -9   51.59   14.10
  -4  -1  -9   42.20   13.50
  -4  -1  -9   41.50   14.30
  -4  -1  -9   38.70   11.50
  -4  -1  -8   -1.00    4.50
  -4  -1  -8    0.90    7.80
  -4  -1  -8   10.50    5.80
  -4  -1  -7   80.19   15.50
  -4  -1  -7   90.49   15.90
  -4  -1  -7   80.39   18.10
  -4  -1  -6   -2.50    6.10
  -4  -1  -6   -5.50    7.30
  -4  -1  -6   -2.00    3.70
  -4  -1  -5  109.69   17.70
  -4  -1  -5  104.09   12.50
  -4  -1  -5  110.49   13.00
  -4  -1  -4 1691.93   70.59
  -4  -1  -4 1698.13   54.29
  -4  -1  -4 1775.22   57.89
  -4  -1  -3 1156.58   50.19
  -4  -1  -3 1187.68   45.70
  -4  -1  -3 1088.49   34.60
  -4  -1  -3 1094.19   38.40
  -4  -1  -2  436.76   28.50
  -4  -1  -2  431.36   26.70
  -4  -1  -2  401.26   15.40
  -4  -1  -2  418.66   21.10
  -4  -1  -1   79.49    6.40
  -4  -1  -1   83.89   10.90
  -4  -1  -1   97.69   13.00
  -4  -1  -1  115.89   20.40
  -4  -1   0 1297.57   52.89
  -4  -1   0 1470.05   79.69
  -4  -1   1 1569.94   88.79
  -4  -1   2  521.55   35.90
  -4  -1   2  542.05   37.60
  -4  -1   2  517.45   51.69
  -4  -1   3    1.90    3.80
  -4  -1   3    7.00    6.40
  -4  -1   3    5.30    6.20
  -4  -1   3    3.40    2.90
  -4  -1   4   48.40   12.30
  -4  -1   4   43.90   15.90
  -4  -1   4   21.50   17.30
  -4  -1   4   42.70   11.50
  -4  -1   5   -4.60    6.30
  -4  -1   5   -5.90    9.20
  -4  -1   5    8.00    9.60
  -4  -1   5   -0.50    6.20
  -4  -1   5   -0.10    1.70
  -4  -1   6   21.60    7.50
  -4  -1   6   13.10   13.40
  -4  -1   6   40.60   13.20
  -4  -1   6   35.50    6.50
  -4  -1   7    5.70    6.10
  -4  -1   7   12.10    8.00
  -4  -1   7   11.90    4.80
  -4  -1   8   14.10    8.30
  -4  -1   8   13.50   10.70
  -4  -1   8   23.30   11.80
  -4  -1   8   27.60    7.90
  -4  -1   9  152.28   31.00
  -4  -1   9   64.49   29.60
  -4  -1  10   42.90   18.80
  -4  -1  10    2.20   15.20
  -4  -1  11   16.40   18.00
  -4   0 -14   23.50   18.00
  -4   0 -14   19.30   12.70
  -4   0 -13  127.59   32.10
  -4   0 -13  111.49   24.70
  -4   0 -12  117.19   29.40
  -4   0 -12  143.39   26.30
  -4   0 -11   41.30   15.90
  -4   0 -11   59.99   15.50
  -4   0 -10   19.10   11.20
  -4   0 -10   -0.10    7.20
  -4   0  -9  125.99   21.90
  -4   0  -9   84.49   20.30
  -4   0  -9   80.19   20.20
  -4   0  -9  127.69   21.40
  -4   0  -8  733.03   51.69
  -4   0  -8  698.23   56.79
  -4   0  -8  743.93   49.50
  -4   0  -8  713.03   55.09
  -4   0  -7  576.74   43.00
  -4   0  -7  604.84   48.50
  -4   0  -7  605.74   40.90
  -4   0  -6  463.55   36.50
  -4   0  -6  458.05   38.60
  -4   0  -5  264.97   26.20
  -4   0  -5  264.07   22.70
  -4   0  -5  238.38   25.40
  -4   0  -4    1.00    2.90
  -4   0  -4    2.90    3.30
  -4   0  -4    3.50    3.00
  -4   0  -3  816.12   39.20
  -4   0  -3  781.32   36.30
  -4   0  -3  858.01   35.40
  -4   0  -2 2544.45   82.49
  -4   0  -2 2347.57   64.59
  -4   0  -2 2402.06   71.29
  -4   0  -1  778.52   33.20
  -4   0  -1  842.52   41.50
  -4   0  -1  790.62   30.70
  -4   0  -1  819.92   35.90
  -4   0   0 2841.92   74.09
  -4   0   0 2890.41   82.59
  -4   0   0 3049.09   91.59
  -4   0   1  349.27   22.60
  -4   0   1  339.97   30.60
  -4   0   1  384.96   28.00
  -4   0   2   39.60   10.80
  -4   0   2   16.80   10.40
  -4   0   3   73.69   15.60
  -4   0   3   71.09   13.60
  -4   0   3   64.99   18.80
  -4   0   4   62.69   14.90
  -4   0   4   39.50   17.10
  -4   0   4   56.29   13.60
  -4   0   5  353.66   36.80
  -4   0   5  290.87   45.90
  -4   0   5  424.36   39.20
  -4   0   5  374.46   20.20
  -4   0   6  369.96   39.90
  -4   0   6  312.97   49.60
  -4   0   6  449.46   42.50
  -4   0   6  351.46   22.10
  -4   0   7   37.10   13.90
  -4   0   7   11.40   10.00
  -4   0   7   43.10   14.20
  -4   0   7   31.30    7.30
  -4   0   8    7.10    6.60
  -4   0   8   -3.10    4.80
  -4   0   8    1.90    2.80
  -4   0   9   27.50   21.40
  -4   0   9   27.20   14.50
  -4   0   9   21.00    7.50
  -4   0  10  160.68   32.90
  -4   0  10   80.59   37.00
  -4   1 -14   31.00   15.00
  -4   1 -14    6.50   17.30
  -4   1 -13   24.30   11.40
  -4   1 -13   25.70   16.20
  -4   1 -12   27.80   13.70
  -4   1 -12   17.80   13.00
  -4   1 -11  143.69   26.10
  -4   1 -11  155.98   33.40
  -4   1 -10  145.09   24.90
  -4   1 -10  154.58   30.50
  -4   1  -9  150.98   24.40
  -4   1  -9  134.39   27.60
  -4   1  -9  134.49   25.60
  -4   1  -8   21.40    9.70
  -4   1  -8   11.10    7.90
  -4   1  -8    7.60    8.30
  -4   1  -8   15.70    6.40
  -4   1  -7   24.50    8.80
  -4   1  -7   26.40    9.70
  -4   1  -7   23.00    8.20
  -4   1  -6    3.50    4.40
  -4   1  -6    5.40    5.80
  -4   1  -6    2.80    4.10
  -4   1  -5    1.10    3.20
  -4   1  -5   -2.20    3.70
  -4   1  -4  439.26   33.60
  -4   1  -4  417.76   29.30
  -4   1  -4  493.55   32.60
  -4   1  -4  437.06   30.50
  -4   1  -3 1119.19   49.70
  -4   1  -3 1103.89   48.90
  -4   1  -3 1090.19   47.30
  -4   1  -2  933.61   45.00
  -4   1  -2  903.91   39.90
  -4   1  -2  896.21   42.30
  -4   1  -1   67.19    8.00
  -4   1  -1   89.19   13.10
  -4   1  -1   83.39   10.90
  -4   1  -1   72.19   11.20
  -4   1   0  132.69   19.10
  -4   1   0  143.79   14.20
  -4   1   0  149.69   14.80
  -4   1   1 1475.05   70.09
  -4   1   1 1527.85   55.19
  -4   1   1 1516.05   57.69
  -4   1   2 2371.96   76.89
  -4   1   2 2239.38   91.69
  -4   1   3  316.07   27.40
  -4   1   3  296.87   32.20
  -4   1   3  279.17   27.00
  -4   1   4  139.39   23.90
  -4   1   4  140.79   20.60
  -4   1   5    6.10    6.50
  -4   1   5   17.10    7.80
  -4   1   5   19.90    5.40
  -4   1   6   32.50   12.50
  -4   1   6   34.10   12.10
  -4   1   6   29.90    7.20
  -4   1   7   33.90   13.90
  -4   1   7   54.69   16.20
  -4   1   7   46.50    9.10
  -4   1   8   51.79   17.80
  -4   1   8   56.19   17.10
  -4   1   8   40.80    9.50
  -4   1   9   50.09   17.30
  -4   1   9   50.29   11.30
  -4   1  10   85.49   23.10
  -4   1  11  -33.30   16.40
  -4   2 -13   18.60   14.10
  -4   2 -13   27.80   18.80
  -4   2 -12   40.50   15.00
  -4   2 -12   88.29   28.80
  -4   2 -11   23.60   12.50
  -4   2 -11   34.30   16.80
  -4   2 -10    5.30    6.90
  -4   2 -10    1.30    6.00
  -4   2  -9   -9.90    7.10
  -4   2  -9    1.70    5.00
  -4   2  -8  111.49   20.60
  -4   2  -8   84.99   20.00
  -4   2  -7  195.28   25.20
  -4   2  -7  200.88   27.00
  -4   2  -7  206.78   27.70
  -4   2  -6  154.38   21.30
  -4   2  -6  160.88   22.40
  -4   2  -6  137.49   20.10
  -4   2  -5  421.26   34.40
  -4   2  -5  333.27   28.60
  -4   2  -5  444.06   35.70
  -4   2  -5  404.06   34.30
  -4   2  -4  585.34   39.80
  -4   2  -4  493.85   30.30
  -4   2  -4  567.84   38.80
  -4   2  -3   47.10   10.50
  -4   2  -3   46.70   10.10
  -4   2  -2  409.96   30.20
  -4   2  -2  360.46   27.70
  -4   2  -1  588.34   23.80
  -4   2  -1  651.43   36.50
  -4   2  -1  681.73   39.00
  -4   2   0  925.11   54.39
  -4   2   0  854.41   36.00
  -4   2   0  897.51   43.80
  -4   2   0  908.81   46.50
  -4   2   1  128.79   21.10
  -4   2   1  150.98   16.00
  -4   2   1  148.19   17.00
  -4   2   2   10.70    7.20
  -4   2   2    3.40    6.40
  -4   2   2   -1.40    3.30
  -4   2   3   30.40   11.00
  -4   2   3   19.50    6.20
  -4   2   4    5.70    4.30
  -4   2   4    3.20    6.10
  -4   2   4    9.50    5.70
  -4   2   5   21.40    9.10
  -4   2   5   15.50   10.10
  -4   2   5   17.70    7.50
  -4   2   5   24.00    6.10
  -4   2   6  235.88   35.40
  -4   2   6  265.87   32.10
  -4   2   6  242.68   21.60
  -4   2   7   85.59   22.90
  -4   2   7  109.79   22.10
  -4   2   7   96.69   14.20
  -4   2   8   47.30   18.20
  -4   2   8   33.20   12.60
  -4   2   8   40.90    9.90
  -4   2   9   18.60   11.50
  -4   2   9   20.60    7.90
  -4   2  10   63.79   19.80
  -4   2  10   40.50   11.20
  -4   2  11  119.29   29.10
  -4   3 -12   25.10   12.40
  -4   3 -11   89.69   20.10
  -4   3 -10  136.79   25.10
  -4   3  -9   74.19   17.40
  -4   3  -9   47.20   15.30
  -4   3  -8    2.70    3.30
  -4   3  -8   -3.50    5.50
  -4   3  -7   96.89   18.40
  -4   3  -7   73.59   16.30
  -4   3  -6  210.68   26.40
  -4   3  -6  178.48   22.90
  -4   3  -6  255.87   31.10
  -4   3  -6  198.48   27.60
  -4   3  -5   20.70    8.10
  -4   3  -5   30.00   10.20
  -4   3  -5   26.80    7.30
  -4   3  -5   44.60   12.80
  -4   3  -4  150.68   20.30
  -4   3  -4  137.99   14.50
  -4   3  -4  179.88   23.20
  -4   3  -4  146.69   20.90
  -4   3  -3  404.36   33.50
  -4   3  -3  397.26   33.50
  -4   3  -3  333.67   30.50
  -4   3  -2  192.38   22.60
  -4   3  -2  205.98   23.10
  -4   3  -1   10.80    2.90
  -4   3   0    5.00    6.60
  -4   3   0    9.50    6.40
  -4   3   0    3.00    3.00
  -4   3   1  950.10   59.69
  -4   3   1  902.81   41.10
  -4   3   2 1249.07   69.79
  -4   3   2 1193.58   52.49
  -4   3   3  331.67   36.90
  -4   3   3  322.67   30.90
  -4   3   4   46.60   15.50
  -4   3   4   62.09   13.50
  -4   3   4   49.99   11.40
  -4   3   4   61.69   13.40
  -4   3   5   76.79   16.00
  -4   3   5   54.19   16.40
  -4   3   5   54.99   13.30
  -4   3   6   18.00   10.50
  -4   3   6   18.40    8.90
  -4   3   6   21.30    9.00
  -4   3   6    8.00    3.90
  -4   3   7  165.28   31.50
  -4   3   7  222.68   31.60
  -4   3   7  193.08   22.00
  -4   3   8  101.69   22.70
  -4   3   8   93.99   15.90
  -4   3   9   14.20   10.90
  -4   3   9   17.40    6.80
  -4   3  10   41.60   15.30
  -4   3  10   32.80   10.70
  -4   3  11    9.30    9.80
  -4   4 -11   -2.40    7.50
  -4   4 -10   -4.20    5.50
  -4   4  -9   45.70   14.70
  -4   4  -8  158.48   24.70
  -4   4  -8  165.88   30.40
  -4   4  -8   94.89   20.60
  -4   4  -7  202.08   27.10
  -4   4  -7  150.18   23.50
  -4   4  -7  205.68   31.90
  -4   4  -6  103.59   19.00
  -4   4  -6  105.79   21.80
  -4   4  -6  100.09   16.30
  -4   4  -5  120.09   21.70
  -4   4  -5  113.69   15.40
  -4   4  -4   35.40   11.30
  -4   4  -4   49.00    8.30
  -4   4  -4   61.49   14.40
  -4   4  -3   25.60   10.10
  -4   4  -3   30.40    9.80
  -4   4  -2 1248.78   64.39
  -4   4  -2 1253.27   65.39
  -4   4  -2 1174.28   62.89
  -4   4  -1 1761.82   83.79
  -4   4  -1 1728.03   46.40
  -4   4  -1 1930.31   79.09
  -4   4  -1 1746.23   76.59
  -4   4  -1 1861.91   80.69
  -4   4   0  904.51   58.99
  -4   4   0  878.81   51.09
  -4   4   0  940.81   54.59
  -4   4   0  793.42   49.99
  -4   4   1  389.66   38.30
  -4   4   1  353.66   31.80
  -4   4   1  404.76   35.40
  -4   4   2   41.00   13.50
  -4   4   2   61.09   14.10
  -4   4   2   80.99   15.70
  -4   4   3  900.41   64.89
  -4   4   3  986.50   56.89
  -4   4   3 1017.30   57.39
  -4   4   4  413.06   37.10
  -4   4   4  371.26   42.50
  -4   4   4  409.26   36.30
  -4   4   5  105.49   19.30
  -4   4   5   60.89   18.70
  -4   4   5  108.99   18.90
  -4   4   5   85.59   17.70
  -4   4   6  153.38   29.10
  -4   4   6  159.28   25.60
  -4   4   6  150.98   25.90
  -4   4   7   83.19   19.50
  -4   4   7   67.89   18.60
  -4   4   7   48.50   11.60
  -4   4   8    3.20    5.70
  -4   4   8   -1.30    4.40
  -4   4   9   16.30    8.40
  -4   4   9    4.40    5.00
  -4   4  10   61.29   21.00
  -4   4  10   26.00    9.70
  -4   4  11  171.28   35.80
  -4   4  11   81.99   17.90
  -4   5 -10  101.79   29.30
  -4   5  -9  106.89   26.90
  -4   5  -8   39.30   14.90
  -4   5  -7   -3.00    9.80
  -4   5  -6  113.39   23.90
  -4   5  -6   95.79   16.70
  -4   5  -5  120.69   23.40
  -4   5  -5  106.99   14.70
  -4   5  -4  205.68   16.10
  -4   5  -4  269.67   33.40
  -4   5  -3  417.96   40.20
  -4   5  -3  425.46   40.90
  -4   5  -2  125.39   21.10
  -4   5  -2  128.49   20.60
  -4   5  -2  111.29   20.30
  -4   5  -1    5.60    6.00
  -4   5  -1    5.00    5.80
  -4   5  -1    3.00    4.00
  -4   5  -1    7.40    5.40
  -4   5   0  250.87   32.00
  -4   5   0  245.88   27.70
  -4   5   0  245.38   28.70
  -4   5   0  289.17   31.00
  -4   5   1  543.25   47.90
  -4   5   1  605.34   44.00
  -4   5   1  622.54   46.20
  -4   5   1  624.04   46.30
  -4   5   2  926.91   67.19
  -4   5   2  973.30   57.19
  -4   5   2 1000.30   59.49
  -4   5   2  918.51   57.29
  -4   5   3  712.93   59.79
  -4   5   3  766.92   51.09
  -4   5   3  706.73   50.79
  -4   5   4  118.09   24.80
  -4   5   4   86.29   18.10
  -4   5   4  121.09   20.70
  -4   5   5   73.69   21.40
  -4   5   5   92.59   19.20
  -4   5   5   81.19   17.50
  -4   5   6   -5.60   11.20
  -4   5   6    3.20    5.40
  -4   5   7  152.68   26.90
  -4   5   7  182.28   29.60
  -4   5   8  252.87   36.40
  -4   5   8  223.08   34.50
  -4   5   8  199.08   26.10
  -4   5   9  141.69   28.60
  -4   5   9  180.28   32.30
  -4   5   9   94.19   18.30
  -4   5  10   52.99   19.30
  -4   5  10   39.60   11.80
  -4   5  11   10.00   10.00
  -4   5  11   -3.00    5.10
  -4   6  -9  -17.80   12.80
  -4   6  -8   40.40   17.60
  -4   6  -7   68.99   20.90
  -4   6  -6   57.89   18.70
  -4   6  -5   39.10   15.00
  -4   6  -5   46.20    9.60
  -4   6  -4  151.38   12.90
  -4   6  -4  173.48   29.10
  -4   6  -3  213.48   31.20
  -4   6  -2    8.00    5.50
  -4   6  -2   18.10    3.20
  -4   6  -1  220.88   30.50
  -4   6  -1  234.38   29.50
  -4   6  -1  224.08   30.10
  -4   6  -1  222.48   29.80
  -4   6   0  360.36   39.20
  -4   6   0  340.07   34.70
  -4   6   0  344.07   36.50
  -4   6   0  320.47   35.90
  -4   6   1  490.55   47.00
  -4   6   1  483.65   41.80
  -4   6   1  494.15   44.80
  -4   6   1  515.25   44.70
  -4   6   2    0.50    6.60
  -4   6   2   13.60   21.30
  -4   6   2   21.70    9.80
  -4   6   2   22.60    9.90
  -4   6   3  106.99   23.30
  -4   6   3  129.39   22.30
  -4   6   3  162.88   24.00
  -4   6   4  277.97   31.60
  -4   6   4  284.97   33.40
  -4   6   5  111.69   22.20
  -4   6   5  131.69   22.30
  -4   6   6  133.59   25.30
  -4   6   6  151.88   24.00
  -4   6   7  177.18   30.10
  -4   6   7  135.59   23.10
  -4   6   8   28.10   12.40
  -4   6   9   -7.10    9.40
  -4   6   9    3.40    6.50
  -4   6   9    3.20    5.30
  -4   6  10   -3.70    8.70
  -4   6  10   -4.10    3.80
  -4   6  11   46.20   19.80
  -4   6  11   36.20   14.10
  -4   6  12   38.90   15.00
  -4   7  -8   12.20    7.70
  -4   7  -7    4.70    7.70
  -4   7  -6   31.50   14.50
  -4   7  -5   95.59   25.20
  -4   7  -4  133.39   28.10
  -4   7  -4   72.19    7.90
  -4   7  -3  233.58   35.10
  -4   7  -2  234.88   14.80
  -4   7  -2  271.87   36.30
  -4   7  -1    4.30    4.70
  -4   7  -1   12.60    4.00
  -4   7  -1    6.90    5.30
  -4   7   0   82.79   19.60
  -4   7   0  124.09   23.60
  -4   7   0  123.09   22.50
  -4   7   1   98.59   22.60
  -4   7   1   87.59   20.00
  -4   7   1  102.49   19.90
  -4   7   2  329.67   35.70
  -4   7   2  320.17   37.70
  -4   7   3  205.08   28.10
  -4   7   3  218.08   31.10
  -4   7   4   -7.40    5.20
  -4   7   4   -2.20    7.00
  -4   7   5    0.80    5.50
  -4   7   5    3.80    3.90
  -4   7   6    0.10    6.10
  -4   7   6    6.30    5.40
  -4   7   7   -5.70    9.60
  -4   7   7    4.00    5.60
  -4   7   8  146.99   28.80
  -4   7   9   86.99   24.00
  -4   7  10   66.69   21.40
  -4   7  10   57.29   21.10
  -4   7  10   28.80   11.80
  -4   7  11   23.20   15.90
  -4   7  11    1.50    4.20
  -4   7  12    2.00    4.70
  -4   8  -6   31.00   15.20
  -4   8  -5   -7.40    8.60
  -4   8  -4   23.50   13.40
  -4   8  -3   26.20   10.90
  -4   8  -2  114.39   25.40
  -4   8  -2   95.29   10.50
  -4   8  -1  185.48   17.10
  -4   8  -1  226.08   32.20
  -4   8  -1  212.18   33.60
  -4   8   0  224.78   31.20
  -4   8   0  222.48   34.00
  -4   8   1   39.30   15.70
  -4   8   1   30.30   10.60
  -4   8   2    0.00    6.80
  -4   8   2   -2.30    4.20
  -4   8   3  115.39   24.10
  -4   8   3  113.79   21.90
  -4   8   4  394.46   41.00
  -4   8   4  450.25   47.50
  -4   8   5  207.38   29.20
  -4   8   5  206.38   32.00
  -4   8   6   93.29   22.30
  -4   8   6   92.69   20.00
  -4   8   7   59.49   18.90
  -4   8   7   31.60   12.60
  -4   8   8    4.40    7.20
  -4   8   8   -2.60    6.80
  -4   8   9   12.90    7.70
  -4   8  10   18.70   12.60
  -4   8  11    9.40    7.30
  -4   9  -5   37.40   19.60
  -4   9  -4   98.69   26.60
  -4   9  -3  118.69   28.20
  -4   9  -2  174.38   33.40
  -4   9  -2  168.58   29.60
  -4   9  -1    6.40    8.10
  -4   9  -1   15.20    8.70
  -4   9   0   64.69   20.00
  -4   9   0   86.59   20.70
  -4   9   0   74.29   12.60
  -4   9   1  246.78   34.60
  -4   9   1  249.58   37.50
  -4   9   2  453.35   46.60
  -4   9   2  527.25   54.39
  -4   9   3  253.37   33.90
  -4   9   3  231.98   35.70
  -4   9   4   53.49   17.70
  -4   9   4   38.30   13.90
  -4   9   5   10.30   10.40
  -4   9   5   -6.30    6.50
  -4   9   6   21.30    9.50
  -4   9   6   29.00   12.10
  -4   9   7   46.20   17.40
  -4   9   7   43.10   14.90
  -4   9   8  194.68   34.80
  -4   9   8  163.18   27.20
  -4   9   9  106.39   27.20
  -4   9  10   45.40   20.20
  -4  10  -3    4.40    8.90
  -4  10  -2    0.30    9.00
  -4  10  -2    1.10    5.90
  -4  10  -1  117.49   28.00
  -4  10  -1   98.49   24.00
  -4  10   0  136.29   30.30
  -4  10   0  140.19   27.40
  -4  10   1   58.09   18.70
  -4  10   1   50.99   16.30
  -4  10   2   18.10   10.80
  -4  10   2   24.30   11.10
  -4  10   3    3.70    5.50
  -4  10   3   18.20   11.00
  -4  10   4  108.99   25.50
  -4  10   4   97.49   22.00
  -4  10   5  135.19   28.60
  -4  10   5  104.39   23.10
  -4  10   6   72.79   21.30
  -4  10   6  104.79   22.30
  -4  10   7   62.79   20.10
  -4  10   7   68.39   18.20
  -4  10   8   24.40   13.70
  -4  10   8   12.80    5.90
  -4  10   9    8.30   12.90
  -4  10   9   15.20   10.70
  -4  10  10   47.40   22.80
  -4  11  -1   20.90   10.20
  -4  11  -1   49.99   17.50
  -4  11   0  -13.80   11.40
  -4  11   0  -35.00   15.00
  -4  11   1   13.10   12.60
  -4  11   1   42.30   15.50
  -4  11   2  101.39   26.60
  -4  11   2   68.79   19.90
  -4  11   3   98.29   26.20
  -4  11   3  113.99   26.30
  -4  11   4   81.39   23.90
  -4  11   4   31.60   15.30
  -4  11   5    8.90    7.50
  -4  11   5    1.00    5.80
  -4  11   6   20.60   12.20
  -4  11   6   -1.50    4.90
  -4  11   7  -11.30    9.80
  -4  11   7    1.50    4.80
  -4  11   8    2.50    6.50
  -4  11   8   33.10   14.40
  -4  11   9   23.00   11.10
  -4  12   1    3.80    7.50
  -4  12   2  -18.80   14.20
  -4  12   2    2.40    5.40
  -4  12   3   32.60   16.80
  -4  12   3   35.40   15.40
  -4  12   4   41.40   19.20
  -4  12   4   28.40   14.00
  -4  12   5   43.90   20.80
  -4  12   5   34.30   14.80
  -4  12   6   18.40   12.90
  -4  12   6   26.10   11.90
  -4  12   7    4.00    5.80
  -4  12   8   12.70   10.50
  -4  12   9   11.10    9.70
  -4  12  10   26.30   13.60
  -4  13   4   23.80   13.50
  -4  13   5   -6.90    8.00
  -4  13   6    2.20    8.10
  -4  13   7   30.10   15.30
  -4  13   8   43.90   17.30
  -3 -15  -8  -14.90   24.00
  -3 -15  -7    0.60   29.30
  -3 -14  -9    6.10   20.20
  -3 -14  -8   11.90   21.10
  -3 -14  -7  -53.49   34.80
  -3 -14  -6   36.40   34.10
  -3 -14  -5    8.80   35.60
  -3 -13  -9   12.00   14.40
  -3 -13  -8   61.29   32.80
  -3 -13  -8   65.89   15.80
  -3 -13  -7  145.29   50.99
  -3 -13  -7  208.08   28.30
  -3 -13  -6   44.00   34.40
  -3 -13  -6   91.29   18.50
  -3 -13  -5   18.60   23.40
  -3 -13  -5    1.70    3.90
  -3 -13  -4   13.60   23.90
  -3 -13  -3  -80.09   44.80
  -3 -13  -2   34.80   42.70
  -3 -12 -11   36.40   12.90
  -3 -12 -10   28.40   22.00
  -3 -12 -10   53.29   14.70
  -3 -12  -9   12.70   13.90
  -3 -12  -9   63.19   14.70
  -3 -12  -8   94.29   34.90
  -3 -12  -8   70.79   15.10
  -3 -12  -7   87.19   37.30
  -3 -12  -7   58.89   14.40
  -3 -12  -6   20.00   18.30
  -3 -12  -6    2.70    4.30
  -3 -12  -5   85.19   41.50
  -3 -12  -5   72.49   16.10
  -3 -12  -4   48.40   33.60
  -3 -12  -4   94.79   19.60
  -3 -12  -3  175.38   61.79
  -3 -12  -2    3.90   26.90
  -3 -12  -1  -50.99   36.50
  -3 -12   0   10.10   32.60
  -3 -11 -13   23.10   11.60
  -3 -11 -12   25.10   12.80
  -3 -11 -12   29.70   11.80
  -3 -11 -11   51.29   16.80
  -3 -11 -11   37.00   12.20
  -3 -11 -10   -8.90    9.90
  -3 -11 -10   -5.20    6.90
  -3 -11  -9   -5.50   10.30
  -3 -11  -9    2.50    3.70
  -3 -11  -8   19.00   11.60
  -3 -11  -8   -6.90   11.50
  -3 -11  -8   14.80    6.60
  -3 -11  -7   90.39   31.50
  -3 -11  -7   87.59   22.90
  -3 -11  -7  109.79   17.90
  -3 -11  -6   94.89   34.70
  -3 -11  -6  139.39   29.90
  -3 -11  -6   98.89   17.40
  -3 -11  -5    4.20   18.00
  -3 -11  -5   11.80   12.20
  -3 -11  -5   11.20    6.30
  -3 -11  -4  -42.40   27.40
  -3 -11  -4    9.20    6.70
  -3 -11  -3   42.80   28.70
  -3 -11  -3   10.80    5.10
  -3 -11  -2   17.20   18.90
  -3 -11  -1   17.30   22.50
  -3 -11   0    0.60   15.50
  -3 -11   1    6.10   29.70
  -3 -10 -15   58.39   18.70
  -3 -10 -14   10.70    7.90
  -3 -10 -13    4.90    6.50
  -3 -10 -13   16.20    8.40
  -3 -10 -12   34.90   15.10
  -3 -10 -12   44.00   13.40
  -3 -10 -11  114.89   24.00
  -3 -10 -11  103.49   19.70
  -3 -10 -10  154.48   30.50
  -3 -10 -10  156.28   23.00
  -3 -10  -9   49.00   19.50
  -3 -10  -9   46.50   11.90
  -3 -10  -8    4.00    8.70
  -3 -10  -8   18.70   10.20
  -3 -10  -8   21.00    7.90
  -3 -10  -7    8.20    6.40
  -3 -10  -7   11.20   15.80
  -3 -10  -7    9.60    6.00
  -3 -10  -7   10.80    4.50
  -3 -10  -6   82.49   19.00
  -3 -10  -6  106.89   23.70
  -3 -10  -6   71.29   28.40
  -3 -10  -6  104.19   16.40
  -3 -10  -5  160.68   43.20
  -3 -10  -5  228.98   36.30
  -3 -10  -5  258.87   25.70
  -3 -10  -5  216.18   29.90
  -3 -10  -4  229.48   25.50
  -3 -10  -4  229.38   37.70
  -3 -10  -4  171.58   46.90
  -3 -10  -3  225.88   21.60
  -3 -10  -3  216.78   26.30
  -3 -10  -3  147.19   32.90
  -3 -10  -3  182.58   51.89
  -3 -10  -2  109.59   45.10
  -3 -10  -2   66.69    7.40
  -3 -10  -1   23.80   19.90
  -3 -10   0    8.00   21.30
  -3 -10   1   -0.60   15.80
  -3 -10   2   14.70   28.40
  -3 -10   3  -36.60   35.00
  -3  -9 -16    9.70   11.20
  -3  -9 -15   36.70   15.30
  -3  -9 -14  116.09   32.00
  -3  -9 -14  145.29   32.90
  -3  -9 -14  122.69   25.10
  -3  -9 -13   55.59   20.60
  -3  -9 -13   82.99   19.40
  -3  -9 -12   60.69   19.10
  -3  -9 -12   58.79   15.40
  -3  -9 -11   43.70   15.00
  -3  -9 -11   29.30    5.20
  -3  -9 -11   45.90   13.00
  -3  -9 -10   -5.40   10.20
  -3  -9 -10    5.90    6.50
  -3  -9 -10    5.60    6.70
  -3  -9  -9   27.50   10.70
  -3  -9  -9   23.30   10.80
  -3  -9  -9   53.09   12.20
  -3  -9  -8  140.69   29.20
  -3  -9  -8  147.09   19.30
  -3  -9  -8  169.78   26.60
  -3  -9  -7  318.37   48.10
  -3  -9  -7  363.56   29.10
  -3  -9  -7  323.67   36.30
  -3  -9  -6  722.23   76.69
  -3  -9  -6  645.84   53.99
  -3  -9  -6  652.13   38.70
  -3  -9  -6  581.84   48.00
  -3  -9  -5   91.49   21.30
  -3  -9  -5   72.29   27.90
  -3  -9  -5   79.79   17.00
  -3  -9  -5  107.49   21.00
  -3  -9  -5   97.79   14.60
  -3  -9  -4  215.58   33.50
  -3  -9  -4  138.29   37.30
  -3  -9  -4  207.58   21.90
  -3  -9  -4  194.28   27.10
  -3  -9  -4  161.08   24.80
  -3  -9  -3  376.06   28.30
  -3  -9  -3  300.27   57.49
  -3  -9  -3  366.56   47.00
  -3  -9  -3  318.17   28.80
  -3  -9  -3  310.47   34.30
  -3  -9  -2  649.43   66.69
  -3  -9  -2  633.54   28.50
  -3  -9  -2  583.04   46.30
  -3  -9  -1  332.57   68.89
  -3  -9  -1  402.16   38.70
  -3  -9   0   92.39   38.50
  -3  -9   0  107.99   21.00
  -3  -9   1  -12.60   24.90
  -3  -9   1   16.70    8.80
  -3  -9   2   30.50   28.90
  -3  -9   3  -33.10   29.90
  -3  -9   4  -19.90   25.20
  -3  -8 -14   21.20   14.80
  -3  -8 -14   55.99   21.70
  -3  -8 -13    9.20   11.60
  -3  -8 -12   25.70   12.30
  -3  -8 -12   29.00   10.90
  -3  -8 -11   72.29   20.40
  -3  -8 -11   93.29   17.90
  -3  -8 -10  264.67   18.20
  -3  -8 -10  260.17   33.30
  -3  -8 -10  322.77   31.80
  -3  -8  -9  294.17   33.90
  -3  -8  -9  358.06   31.60
  -3  -8  -9  324.97   36.50
  -3  -8  -8  157.18   27.10
  -3  -8  -8  210.28   28.20
  -3  -8  -8  190.68   21.30
  -3  -8  -7   88.49   17.60
  -3  -8  -7   47.90   18.00
  -3  -8  -7  105.29   14.60
  -3  -8  -7  100.59   21.00
  -3  -8  -6    6.20    4.60
  -3  -8  -6    8.70   10.70
  -3  -8  -6    1.00    3.80
  -3  -8  -6   -0.70    3.40
  -3  -8  -6    1.40    3.90
  -3  -8  -5  197.58   41.80
  -3  -8  -5  193.18   26.90
  -3  -8  -5  183.98   18.30
  -3  -8  -5  217.78   25.70
  -3  -8  -5  235.88   29.40
  -3  -8  -4  294.97   49.99
  -3  -8  -4  429.06   42.30
  -3  -8  -4  372.86   26.80
  -3  -8  -4  377.16   36.10
  -3  -8  -4  330.87   31.40
  -3  -8  -3   83.19   13.10
  -3  -8  -3   52.59   23.60
  -3  -8  -3   79.29   19.80
  -3  -8  -3   91.49   13.70
  -3  -8  -3   68.49   14.70
  -3  -8  -2   95.39   23.90
  -3  -8  -2   73.89    9.50
  -3  -8  -2   58.39   13.20
  -3  -8  -1  110.49   37.30
  -3  -8  -1   82.19   22.80
  -3  -8  -1   82.09   15.90
  -3  -8   0   25.10   26.00
  -3  -8   0    1.80    9.80
  -3  -8   0   11.10    5.50
  -3  -8   1    6.60   15.40
  -3  -8   1   34.50   11.00
  -3  -8   2   81.09   41.40
  -3  -8   2   53.99   14.30
  -3  -8   3  170.58   57.69
  -3  -8   3  136.39   23.20
  -3  -8   4   98.89   44.60
  -3  -8   5   -0.20   13.70
  -3  -8   6   -0.20   30.30
  -3  -7 -15   10.60   10.30
  -3  -7 -14   99.69   28.40
  -3  -7 -14   78.09   23.00
  -3  -7 -13   80.69   23.60
  -3  -7 -13   94.99   23.80
  -3  -7 -12   10.50    6.60
  -3  -7 -11   12.80    7.50
  -3  -7 -10   25.90    8.80
  -3  -7  -9    0.20    3.80
  -3  -7  -9    2.10    2.40
  -3  -7  -9    0.10    3.70
  -3  -7  -9    3.10    3.00
  -3  -7  -8   -2.90    3.30
  -3  -7  -8    4.10    4.00
  -3  -7  -8    4.70    5.80
  -3  -7  -8   -7.30    8.60
  -3  -7  -8    0.50    3.10
  -3  -7  -8    2.20    6.50
  -3  -7  -7   98.49   17.30
  -3  -7  -7   64.39   16.80
  -3  -7  -7   98.19   23.30
  -3  -7  -7  114.39   21.20
  -3  -7  -7  105.69   14.10
  -3  -7  -6  892.71   68.09
  -3  -7  -6  761.62   36.70
  -3  -7  -6  820.32   55.99
  -3  -7  -6  834.22   49.70
  -3  -7  -5  824.42   50.29
  -3  -7  -5  769.42   35.10
  -3  -7  -5  767.12   53.39
  -3  -7  -5  793.92   46.50
  -3  -7  -4   67.99   15.40
  -3  -7  -4   48.10   20.80
  -3  -7  -4   52.69   11.10
  -3  -7  -4   73.99   15.10
  -3  -7  -4   55.89    8.50
  -3  -7  -3   36.30   18.90
  -3  -7  -3   35.20   11.60
  -3  -7  -3   25.80    6.90
  -3  -7  -3   21.00    6.80
  -3  -7  -3   19.90    5.60
  -3  -7  -2  228.38   31.70
  -3  -7  -2  223.58   16.80
  -3  -7  -2  200.48   23.10
  -3  -7  -1  331.27   42.40
  -3  -7  -1  245.98   48.10
  -3  -7  -1  298.97   13.10
  -3  -7  -1  203.18   23.10
  -3  -7   0  201.98   46.90
  -3  -7   0  275.87   26.60
  -3  -7   1   78.69   23.10
  -3  -7   1   46.30   25.90
  -3  -7   1   42.90   10.30
  -3  -7   2   -9.80   13.90
  -3  -7   2    7.20    3.80
  -3  -7   3   10.30   20.20
  -3  -7   3    4.50    4.00
  -3  -7   4   30.50   16.80
  -3  -7   4   30.50   10.30
  -3  -7   5   17.70   19.70
  -3  -7   6   21.80   21.30
  -3  -7   7    0.20   17.40
  -3  -6 -15   54.09   22.30
  -3  -6 -15   38.40   20.60
  -3  -6 -14    8.40   10.70
  -3  -6 -14    1.60    8.10
  -3  -6 -13   20.10   13.00
  -3  -6 -13   -0.30    5.50
  -3  -6 -12   31.30   15.30
  -3  -6 -12   22.10    4.30
  -3  -6 -12   41.70   15.60
  -3  -6 -11   27.50   10.70
  -3  -6 -11   32.50   11.10
  -3  -6 -10  219.78   29.10
  -3  -6  -9  427.56   39.30
  -3  -6  -9  423.56   38.40
  -3  -6  -8  112.29    8.90
  -3  -6  -8  136.19   19.40
  -3  -6  -8  131.69   27.10
  -3  -6  -8  155.28   21.30
  -3  -6  -8  137.49   23.80
  -3  -6  -7   11.80    5.80
  -3  -6  -7   -1.60    5.10
  -3  -6  -7    8.40    4.30
  -3  -6  -7    6.90    6.80
  -3  -6  -7    9.90    4.40
  -3  -6  -7    7.00    4.40
  -3  -6  -6   15.80    6.50
  -3  -6  -6   16.00    7.50
  -3  -6  -6    8.80    6.30
  -3  -6  -6   15.80    7.10
  -3  -6  -6   10.20    4.40
  -3  -6  -5  980.20   47.80
  -3  -6  -5  934.11   35.80
  -3  -6  -5 1020.60   57.29
  -3  -6  -5  894.81   46.20
  -3  -6  -4 1173.78   54.09
  -3  -6  -4 1213.48   57.69
  -3  -6  -4 1189.88   39.80
  -3  -6  -4 1132.29   50.79
  -3  -6  -3   28.80   13.90
  -3  -6  -3   62.69   13.40
  -3  -6  -3   56.39    9.80
  -3  -6  -3   47.20    9.20
  -3  -6  -3   47.80    7.10
  -3  -6  -2    0.90    6.20
  -3  -6  -2    8.90    6.10
  -3  -6  -2    9.00    3.50
  -3  -6  -2   11.80    5.40
  -3  -6  -1   19.40   14.90
  -3  -6  -1    6.00    5.40
  -3  -6  -1    9.70    2.70
  -3  -6  -1   12.00    5.40
  -3  -6   0   53.79   17.20
  -3  -6   0   51.89   22.70
  -3  -6   0   59.09   10.80
  -3  -6   1   23.50   16.40
  -3  -6   1   58.39   20.20
  -3  -6   1   34.60    8.50
  -3  -6   2  -15.20   14.10
  -3  -6   2    1.80    6.50
  -3  -6   3   67.89   17.20
  -3  -6   3    5.90   19.10
  -3  -6   4  185.98   29.70
  -3  -6   4  193.28   52.09
  -3  -6   5   28.50   13.80
  -3  -6   5   33.10   22.90
  -3  -6   6   14.90    9.00
  -3  -6   6  -22.70   20.10
  -3  -6   7    1.60    6.40
  -3  -6   7  -10.70   17.80
  -3  -6   8   28.20   16.80
  -3  -6   8  -27.70   24.70
  -3  -5 -15    7.20   10.30
  -3  -5 -15  -15.80   12.60
  -3  -5 -14  187.58   35.00
  -3  -5 -14  140.69   31.80
  -3  -5 -13  245.38   37.90
  -3  -5 -13  259.47   41.60
  -3  -5 -12   43.40   14.70
  -3  -5 -12   41.80    7.90
  -3  -5 -12   53.89   18.00
  -3  -5 -11   -4.00    7.30
  -3  -5 -11   -1.80    2.30
  -3  -5 -11    3.80    7.90
  -3  -5 -10   21.00    9.30
  -3  -5 -10    3.40    7.50
  -3  -5 -10   15.10    3.20
  -3  -5  -9  193.08   27.80
  -3  -5  -9  219.58   28.80
  -3  -5  -9  178.88   30.70
  -3  -5  -9  254.47   33.20
  -3  -5  -9  218.88   26.50
  -3  -5  -8  427.66   38.70
  -3  -5  -8  425.96   36.10
  -3  -5  -8  445.26   47.50
  -3  -5  -8  449.26   42.00
  -3  -5  -8  482.55   36.90
  -3  -5  -7  496.15   39.60
  -3  -5  -7  467.65   32.60
  -3  -5  -7  506.15   47.90
  -3  -5  -7  513.95   42.70
  -3  -5  -7  505.05   35.20
  -3  -5  -6  256.17   26.30
  -3  -5  -6  292.97   21.10
  -3  -5  -6  279.37   23.30
  -3  -5  -6  274.57   34.20
  -3  -5  -6  339.07   32.70
  -3  -5  -6  328.17   26.30
  -3  -5  -6  305.57   20.10
  -3  -5  -5  714.53   49.70
  -3  -5  -5  652.03   26.90
  -3  -5  -5  634.34   35.40
  -3  -5  -4   44.00   15.10
  -3  -5  -4   34.50    7.50
  -3  -5  -4   40.90    9.30
  -3  -5  -4   25.00    6.00
  -3  -5  -4   35.60    4.80
  -3  -5  -4   25.70    8.20
  -3  -5  -3  915.51   41.00
  -3  -5  -3  819.62   43.00
  -3  -5  -3  742.23   61.69
  -3  -5  -3  900.71   28.50
  -3  -5  -3  836.62   37.00
  -3  -5  -3  963.10   47.00
  -3  -5  -2  823.62   48.90
  -3  -5  -2  867.11   34.70
  -3  -5  -2  874.01   42.80
  -3  -5  -1  700.13   69.49
  -3  -5  -1  836.52   55.89
  -3  -5  -1  808.12   28.20
  -3  -5  -1  853.51   40.70
  -3  -5   0 1081.09   91.89
  -3  -5   0 1269.67   78.49
  -3  -5   0 1165.68   47.40
  -3  -5   1  167.68   30.80
  -3  -5   1  126.69   32.10
  -3  -5   1  133.39   14.90
  -3  -5   2   -2.50    6.40
  -3  -5   2    0.60    8.80
  -3  -5   2    8.30    4.70
  -3  -5   2    2.40    2.50
  -3  -5   3   19.70   12.70
  -3  -5   3    6.40   12.80
  -3  -5   3   10.30    4.20
  -3  -5   4  120.99   36.60
  -3  -5   4  139.89   24.80
  -3  -5   5  273.87   57.79
  -3  -5   5  372.16   41.60
  -3  -5   6  129.39   40.90
  -3  -5   6  130.29   26.50
  -3  -5   6  161.98   24.20
  -3  -5   7   19.40   11.40
  -3  -5   7   19.20    8.70
  -3  -5   8   -6.60    8.40
  -3  -5   8    5.60   12.50
  -3  -5   9    4.80    6.70
  -3  -5   9   -8.10   15.40
  -3  -4 -16   31.10   20.10
  -3  -4 -15   27.70   15.90
  -3  -4 -15   42.60   16.80
  -3  -4 -14   26.60   16.60
  -3  -4 -14   10.10    9.50
  -3  -4 -13    7.30    6.60
  -3  -4 -13    4.70    5.10
  -3  -4 -12   95.39   24.00
  -3  -4 -12  107.09   23.80
  -3  -4 -11   45.40   15.10
  -3  -4 -11   74.99   19.20
  -3  -4 -10   82.19   19.50
  -3  -4 -10   55.79   14.40
  -3  -4 -10   81.19   18.00
  -3  -4  -9  509.85   43.80
  -3  -4  -9  507.95   41.00
  -3  -4  -9  514.85   44.70
  -3  -4  -9  512.75   51.39
  -3  -4  -9  452.35   44.40
  -3  -4  -8  455.35   35.20
  -3  -4  -8  382.66   36.70
  -3  -4  -8  393.16   35.10
  -3  -4  -8  411.76   44.20
  -3  -4  -8  423.66   40.80
  -3  -4  -7  378.36   33.60
  -3  -4  -7  361.56   29.40
  -3  -4  -7  382.96   40.80
  -3  -4  -7  367.16   35.00
  -3  -4  -7  365.06   28.90
  -3  -4  -6   16.20    5.50
  -3  -4  -6   24.10    7.80
  -3  -4  -6   13.10    4.30
  -3  -4  -6   32.40   12.10
  -3  -4  -6   16.90    7.80
  -3  -4  -5  710.03   34.90
  -3  -4  -5  658.73   26.70
  -3  -4  -5  773.62   53.19
  -3  -4  -5  771.52   35.50
  -3  -4  -4 2452.75   79.79
  -3  -4  -4 2309.97   58.19
  -3  -4  -4 2328.07   51.59
  -3  -4  -4 2355.66   81.79
  -3  -4  -4 2405.26   67.79
  -3  -4  -3 1713.23   56.09
  -3  -4  -3 1920.91   62.29
  -3  -4  -3 1797.42   52.09
  -3  -4  -3 1851.01   65.69
  -3  -4  -2   -0.50    2.30
  -3  -4  -2    3.40    6.90
  -3  -4  -2    3.40    2.30
  -3  -4  -2    1.00    2.00
  -3  -4  -1   43.90   11.40
  -3  -4  -1   62.39   18.00
  -3  -4  -1   49.50    6.60
  -3  -4  -1   47.80    8.20
  -3  -4   0  206.28   35.80
  -3  -4   0  242.68   31.00
  -3  -4   0  231.88   17.20
  -3  -4   1  583.44   53.49
  -3  -4   1  672.93   68.69
  -3  -4   1  618.34   40.50
  -3  -4   1  589.44   28.40
  -3  -4   2  202.08   38.20
  -3  -4   2  210.38   35.20
  -3  -4   2  254.77   27.20
  -3  -4   2  235.38   17.90
  -3  -4   3  122.09   30.30
  -3  -4   3   98.39   28.60
  -3  -4   3  144.19   22.00
  -3  -4   4  242.58   43.60
  -3  -4   4  262.57   48.60
  -3  -4   4  233.78   30.20
  -3  -4   5  126.39   35.30
  -3  -4   5   80.79   19.40
  -3  -4   6   12.70   11.60
  -3  -4   6   15.40    9.30
  -3  -4   6   11.60    6.80
  -3  -4   7   29.20   23.20
  -3  -4   7   47.40   17.50
  -3  -4   7   34.00   11.00
  -3  -4   8   50.99   28.00
  -3  -4   8  102.99   26.70
  -3  -4   8   84.19   18.70
  -3  -4   9   77.49   23.90
  -3  -4   9   11.60   17.20
  -3  -4  10   -0.10   18.90
  -3  -3 -15   -5.10    7.20
  -3  -3 -15   -2.60    7.60
  -3  -3 -14   -2.20    9.10
  -3  -3 -14   10.70   10.50
  -3  -3 -13   77.89   20.10
  -3  -3 -13   59.49   20.80
  -3  -3 -12   82.49   20.00
  -3  -3 -12   95.99   24.80
  -3  -3 -11   26.80    9.60
  -3  -3 -11   35.20   13.10
  -3  -3 -10   25.10    9.50
  -3  -3 -10   19.40   10.30
  -3  -3 -10   27.90   10.20
  -3  -3  -9   -0.90    3.80
  -3  -3  -9    8.80    5.50
  -3  -3  -9    4.00    5.20
  -3  -3  -8  375.16   35.60
  -3  -3  -8  354.36   31.30
  -3  -3  -8  354.76   34.20
  -3  -3  -8  377.16   41.40
  -3  -3  -7  512.55   34.70
  -3  -3  -7  542.85   40.30
  -3  -3  -7  547.45   37.50
  -3  -3  -7  525.35   46.70
  -3  -3  -7  557.54   43.60
  -3  -3  -6  506.65   30.00
  -3  -3  -6  531.05   30.10
  -3  -3  -6  563.24   44.60
  -3  -3  -6  534.25   17.80
  -3  -3  -5 1697.83   55.59
  -3  -3  -5 1678.83   47.50
  -3  -3  -5 1768.52   78.89
  -3  -3  -5 1697.63   38.90
  -3  -3  -5 1719.13   70.09
  -3  -3  -4  404.56   28.20
  -3  -3  -4  395.46   33.80
  -3  -3  -4  370.96   28.20
  -3  -3  -4  383.56   20.30
  -3  -3  -3  134.99   17.90
  -3  -3  -3  124.29   13.60
  -3  -3  -3  104.59   13.30
  -3  -3  -3  117.49    8.80
  -3  -3  -2   40.20    7.60
  -3  -3  -2   36.50   10.80
  -3  -3  -2   57.09    8.20
  -3  -3  -2   54.29    8.50
  -3  -3  -1  332.37   28.20
  -3  -3  -1  352.06   37.30
  -3  -3  -1  368.86   19.50
  -3  -3  -1  341.17   19.20
  -3  -3   0  435.86   38.10
  -3  -3   0  484.65   48.40
  -3  -3   0  468.25   20.90
  -3  -3   1  844.12   69.19
  -3  -3   1  752.72   56.59
  -3  -3   1  782.42   27.80
  -3  -3   2  140.09   27.00
  -3  -3   2   86.39   21.70
  -3  -3   2  120.29   10.20
  -3  -3   3  -15.90   10.00
  -3  -3   3  -16.20   12.40
  -3  -3   3    2.90    5.20
  -3  -3   4   22.50   14.70
  -3  -3   4   22.30   11.30
  -3  -3   4   24.70    9.00
  -3  -3   4   24.60    6.70
  -3  -3   5  470.95   23.60
  -3  -3   5  400.56   59.19
  -3  -3   5  596.54   49.10
  -3  -3   5  544.05   35.20
  -3  -3   6  362.56   21.70
  -3  -3   6  466.05   65.09
  -3  -3   6  471.15   46.90
  -3  -3   6  423.86   34.00
  -3  -3   7   27.80    6.10
  -3  -3   7   12.00   12.30
  -3  -3   7   51.09   17.00
  -3  -3   7   25.90    9.70
  -3  -3   8    2.40    9.40
  -3  -3   8   15.70   11.40
  -3  -3   8   -4.70    4.30
  -3  -3   9    1.70   14.90
  -3  -3   9   15.20   11.70
  -3  -3   9  -11.10    7.60
  -3  -3  10   32.20   15.20
  -3  -3  10  -48.50   26.60
  -3  -3  11    3.70   22.40
  -3  -2 -15   49.90   18.70
  -3  -2 -15   51.59   22.70
  -3  -2 -14   35.30   14.60
  -3  -2 -14    7.40   10.10
  -3  -2 -13    7.30    6.50
  -3  -2 -13    4.80    6.20
  -3  -2 -12  106.99   21.90
  -3  -2 -12  101.49   25.40
  -3  -2 -11   55.89   15.90
  -3  -2 -11   71.19   20.20
  -3  -2 -10   -1.70    5.20
  -3  -2 -10   -1.70    7.60
  -3  -2  -9   69.99   15.00
  -3  -2  -9   62.39   15.00
  -3  -2  -9   71.09   18.20
  -3  -2  -9   63.79   16.10
  -3  -2  -8  110.39   17.50
  -3  -2  -8   90.39   17.00
  -3  -2  -8   94.29   19.90
  -3  -2  -8  104.59   19.20
  -3  -2  -7   43.90   10.40
  -3  -2  -7   35.70   10.90
  -3  -2  -7   44.60   13.60
  -3  -2  -7   42.10   10.90
  -3  -2  -6    2.90    3.20
  -3  -2  -6    2.70    3.00
  -3  -2  -6   -0.10    5.00
  -3  -2  -5   20.10    5.40
  -3  -2  -5   12.40    4.10
  -3  -2  -5   19.80    8.10
  -3  -2  -5   17.50    3.80
  -3  -2  -5   23.10    5.30
  -3  -2  -4 2136.49   70.39
  -3  -2  -4 2070.39   78.59
  -3  -2  -4 1998.20   50.89
  -3  -2  -4 1977.60   50.79
  -3  -2  -4 1957.40   71.49
  -3  -2  -3 2653.73   59.69
  -3  -2  -3 2748.43   65.89
  -3  -2  -3 2701.43   56.99
  -3  -2  -3 2575.64   80.49
  -3  -2  -2   81.99   13.30
  -3  -2  -2   62.49    8.90
  -3  -2  -2   73.99    9.80
  -3  -2  -1    8.30    6.20
  -3  -2  -1    1.80    2.30
  -3  -2  -1    3.10    2.30
  -3  -2  -1    1.20    1.30
  -3  -2   0   55.89   14.70
  -3  -2   0   52.39   11.00
  -3  -2   0   62.39    9.80
  -3  -2   0   56.99    5.30
  -3  -2   1  640.94   45.90
  -3  -2   1  720.33   57.29
  -3  -2   2  181.68   27.70
  -3  -2   2  215.78   34.10
  -3  -2   2  196.68   10.60
  -3  -2   3    6.80    4.00
  -3  -2   3    9.60    7.20
  -3  -2   3    2.40    3.30
  -3  -2   3    9.70    3.40
  -3  -2   4   15.10    5.40
  -3  -2   4   19.40   11.50
  -3  -2   4   23.40   13.30
  -3  -2   4   21.70    8.60
  -3  -2   4   13.70    4.90
  -3  -2   5   72.49   12.50
  -3  -2   5   71.49   23.80
  -3  -2   5   30.30   16.10
  -3  -2   5   67.79   15.70
  -3  -2   5   61.89   10.90
  -3  -2   6   -2.50    5.00
  -3  -2   6  -19.10   15.20
  -3  -2   6   -2.60    9.50
  -3  -2   6   -4.50    5.30
  -3  -2   7   53.59   11.90
  -3  -2   7   51.79   21.50
  -3  -2   7   55.29   15.60
  -3  -2   7   52.49   12.30
  -3  -2   8    3.90    5.10
  -3  -2   8    8.40   11.20
  -3  -2   8    1.20    7.30
  -3  -2   8    6.40    5.60
  -3  -2   9    2.40   14.20
  -3  -2   9    3.70    6.20
  -3  -2   9   11.30    7.60
  -3  -2  10   45.30   18.70
  -3  -2  10   48.90   28.50
  -3  -2  11   -2.30   11.90
  -3  -2  11  -27.40   21.30
  -3  -1 -15   -3.80    9.80
  -3  -1 -15    0.40    7.90
  -3  -1 -14   13.40   17.90
  -3  -1 -14    5.20    7.60
  -3  -1 -13   83.59   25.70
  -3  -1 -13   84.59   20.70
  -3  -1 -12   34.90   16.30
  -3  -1 -12   85.19   20.30
  -3  -1 -11   -8.80    8.70
  -3  -1 -11    2.80    4.70
  -3  -1 -10   14.40    7.80
  -3  -1 -10   -0.90    3.80
  -3  -1  -9   -3.40    5.20
  -3  -1  -9   -1.40    6.60
  -3  -1  -9    9.90    7.90
  -3  -1  -9    3.50    3.60
  -3  -1  -8  371.96   34.50
  -3  -1  -8  332.57   38.60
  -3  -1  -8  368.26   32.90
  -3  -1  -7  779.22   48.00
  -3  -1  -7  754.52   54.29
  -3  -1  -7  773.42   50.79
  -3  -1  -6  876.81   49.00
  -3  -1  -6  878.91   48.60
  -3  -1  -6  826.32   41.80
  -3  -1  -6  924.11   55.69
  -3  -1  -5  230.08   20.70
  -3  -1  -5  251.57   25.90
  -3  -1  -5  238.58   19.00
  -3  -1  -4   -0.90    3.80
  -3  -1  -4    0.80    1.60
  -3  -1  -4   -7.90    3.10
  -3  -1  -3 1674.53   57.39
  -3  -1  -3 1612.04   45.70
  -3  -1  -3 1599.94   48.30
  -3  -1  -3 1539.65   60.29
  -3  -1  -2 2745.63   75.49
  -3  -1  -2 2686.43   69.89
  -3  -1  -2 2558.94   54.99
  -3  -1  -2 2655.23   61.39
  -3  -1  -1  488.45   25.40
  -3  -1  -1  415.86   22.50
  -3  -1  -1  426.56   23.60
  -3  -1  -1  482.35   35.20
  -3  -1   0    7.50    3.60
  -3  -1   0    7.10    6.20
  -3  -1   1  344.17   23.60
  -3  -1   1  361.36   25.00
  -3  -1   1  318.87   28.00
  -3  -1   1  329.37   34.80
  -3  -1   2   -7.20    7.20
  -3  -1   2    6.30    6.00
  -3  -1   2   -0.20    3.00
  -3  -1   3   10.00    9.70
  -3  -1   3    8.30    5.90
  -3  -1   3    3.30    2.80
  -3  -1   3   10.50    2.40
  -3  -1   4    6.20    4.70
  -3  -1   4   13.60    9.20
  -3  -1   4    3.20    5.80
  -3  -1   4   -1.90    3.90
  -3  -1   4    3.10    1.70
  -3  -1   5  435.56   34.60
  -3  -1   5  344.97   49.50
  -3  -1   5  408.06   49.50
  -3  -1   5  454.65   38.80
  -3  -1   5  388.36   25.40
  -3  -1   6  720.83   49.00
  -3  -1   6  677.03   71.99
  -3  -1   6  804.02   56.09
  -3  -1   6  766.22   41.60
  -3  -1   7  269.27   30.50
  -3  -1   7  251.57   46.60
  -3  -1   7  303.47   36.70
  -3  -1   7  302.97   28.00
  -3  -1   8    0.80    4.50
  -3  -1   8    3.50   13.00
  -3  -1   8    1.80    8.40
  -3  -1   8    8.40    5.50
  -3  -1   9   17.30   17.30
  -3  -1   9   -1.40    7.80
  -3  -1   9   12.60    6.60
  -3  -1  10    3.40   16.50
  -3  -1  10   29.30   14.20
  -3  -1  10   14.50    9.10
  -3  -1  11   30.50   16.90
  -3  -1  11   51.99   34.60
  -3  -1  12    0.10   14.20
  -3   0 -14    3.80    8.40
  -3   0 -14   54.19   26.20
  -3   0 -13    7.80    7.20
  -3   0 -13   32.00   17.80
  -3   0 -12   67.99   18.30
  -3   0 -12   44.60   18.10
  -3   0 -11  265.07   33.00
  -3   0 -11  205.38   37.30
  -3   0 -10  165.48   25.60
  -3   0 -10  148.39   29.70
  -3   0  -9  119.89   20.80
  -3   0  -9  147.29   27.10
  -3   0  -9  138.69   26.90
  -3   0  -8  139.99   21.50
  -3   0  -8  137.09   25.20
  -3   0  -8  151.48   22.10
  -3   0  -8  117.39   23.10
  -3   0  -7   -1.10    4.40
  -3   0  -7   -5.00    6.80
  -3   0  -7   -0.60    3.30
  -3   0  -6   89.59   14.90
  -3   0  -6   86.09   16.60
  -3   0  -6   89.89   17.00
  -3   0  -5  264.27   23.90
  -3   0  -5  262.77   22.00
  -3   0  -5  263.97   26.20
  -3   0  -5  293.67   26.90
  -3   0  -4 2696.63   83.39
  -3   0  -4 2528.65   84.09
  -3   0  -4 2643.74   76.29
  -3   0  -3 4094.39   99.09
  -3   0  -3 3859.91  104.89
  -3   0  -3 4098.29   98.59
  -3   0  -2 1549.05   48.20
  -3   0  -2 1509.05   44.80
  -3   0  -1   20.10    5.20
  -3   0  -1   26.40    4.80
  -3   0  -1   22.80    4.30
  -3   0  -1   31.90    6.70
  -3   0  -1   29.60    5.80
  -3   0   0  190.58   18.40
  -3   0   0  217.68   18.00
  -3   0   0  176.88   14.40
  -3   0   0  188.08   12.60
  -3   0   1  986.80   37.20
  -3   0   1 1030.70   47.80
  -3   0   1 1090.39   45.50
  -3   0   1 1053.59   43.20
  -3   0   1 1058.49   62.59
  -3   0   2 2182.88   77.89
  -3   0   2 2078.29   98.69
  -3   0   2 2231.18   74.69
  -3   0   3  974.20   67.19
  -3   0   3  989.80   51.49
  -3   0   3 1022.00   30.40
  -3   0   4   34.50   17.40
  -3   0   4   45.10   14.60
  -3   0   4   51.29   12.60
  -3   0   4   54.29    7.10
  -3   0   5   24.40    8.10
  -3   0   5   28.80   13.20
  -3   0   5   21.00   10.40
  -3   0   5   20.30    8.00
  -3   0   5    9.00    3.90
  -3   0   6  159.98   24.50
  -3   0   6  156.58   31.00
  -3   0   6  122.69   28.90
  -3   0   6  172.08   24.70
  -3   0   6  128.79   15.40
  -3   0   7  599.94   50.99
  -3   0   7  515.55   64.49
  -3   0   7  652.73   52.79
  -3   0   7  624.54   38.60
  -3   0   8  228.78   32.70
  -3   0   8  191.18   39.00
  -3   0   8  249.28   34.00
  -3   0   8  209.58   24.10
  -3   0   9   76.09   20.20
  -3   0   9   76.99   28.10
  -3   0   9  139.19   27.00
  -3   0   9   98.99   17.70
  -3   0  10   18.80   15.80
  -3   0  10   21.60   14.30
  -3   0  10   41.70   12.80
  -3   0  11    6.00   10.20
  -3   0  11   10.00   16.70
  -3   0  12  -34.60   22.30
  -3   1 -14  -20.80   17.00
  -3   1 -14   -5.90    7.40
  -3   1 -13   35.70   19.70
  -3   1 -13   51.19   17.20
  -3   1 -12   53.39   22.40
  -3   1 -12   28.20   11.90
  -3   1 -11   -0.40    5.60
  -3   1 -11    8.20    7.00
  -3   1 -10  -10.40   10.30
  -3   1 -10    4.10    4.40
  -3   1  -9   21.40   12.10
  -3   1  -9    8.00    5.40
  -3   1  -8   12.60    6.70
  -3   1  -8   10.70    6.20
  -3   1  -8    4.50    4.10
  -3   1  -7  475.65   37.40
  -3   1  -7  518.75   40.50
  -3   1  -7  498.25   47.10
  -3   1  -6  710.23   43.30
  -3   1  -6  704.23   44.30
  -3   1  -5  544.95   35.60
  -3   1  -5  510.35   36.50
  -3   1  -5  576.54   42.60
  -3   1  -4  499.55   32.60
  -3   1  -4  468.55   30.70
  -3   1  -4  483.65   30.70
  -3   1  -3  473.95   30.40
  -3   1  -3  443.96   25.90
  -3   1  -3  522.25   30.00
  -3   1  -2 3798.02   99.09
  -3   1  -2 3842.02  100.09
  -3   1  -2 3924.11   97.69
  -3   1  -1 2578.24   74.29
  -3   1  -1 2496.35   70.89
  -3   1  -1 2407.66   66.39
  -3   1   0  519.35   34.00
  -3   1   0  571.74   31.60
  -3   1   0  476.65   23.20
  -3   1   0  518.35   28.40
  -3   1   0  476.95   25.30
  -3   1   1  474.35   33.60
  -3   1   1  522.05   28.10
  -3   1   1  526.55   27.40
  -3   1   2   11.80    3.90
  -3   1   2   10.90    6.10
  -3   1   2   21.40    6.40
  -3   1   3    2.30    4.30
  -3   1   3   -1.30    5.40
  -3   1   3    2.90    1.70
  -3   1   4   -5.00    7.00
  -3   1   4   -7.20   10.40
  -3   1   4    7.10    4.20
  -3   1   4    2.50    2.70
  -3   1   5   38.20   11.90
  -3   1   5   18.40   12.50
  -3   1   5   48.30   13.10
  -3   1   5   35.30    7.40
  -3   1   6  450.75   43.30
  -3   1   6  501.35   42.60
  -3   1   6  460.95   29.40
  -3   1   7  392.06   43.70
  -3   1   7  342.57   49.70
  -3   1   7  421.66   41.80
  -3   1   7  388.96   29.70
  -3   1   8   15.60   10.40
  -3   1   8   -0.80   10.30
  -3   1   8    7.10    7.20
  -3   1   8   -0.30    5.00
  -3   1   9  -21.90   12.00
  -3   1   9  -21.10   15.30
  -3   1   9    3.80    5.20
  -3   1   9    0.80    2.90
  -3   1  10   43.60   23.50
  -3   1  10   33.90   14.20
  -3   1  10   32.00   10.80
  -3   1  11  121.59   29.60
  -3   1  11  111.09   21.60
  -3   1  12   34.10   18.00
  -3   2 -13    1.40   10.50
  -3   2 -13   13.00    9.90
  -3   2 -12    6.80   11.20
  -3   2 -12   11.40    7.40
  -3   2 -11  117.89   30.70
  -3   2 -11  110.79   21.20
  -3   2 -10   81.19   25.20
  -3   2 -10   80.29   18.10
  -3   2  -9   41.10   18.40
  -3   2  -9   38.70   11.40
  -3   2  -8  139.39   28.60
  -3   2  -8  140.29   21.20
  -3   2  -7   41.10   14.50
  -3   2  -7   34.00   10.80
  -3   2  -7   41.00   12.00
  -3   2  -6   -2.30    6.80
  -3   2  -6  -16.10    6.90
  -3   2  -6   -2.50    5.10
  -3   2  -5  169.08   20.30
  -3   2  -5  166.78   21.10
  -3   2  -4   40.30    9.10
  -3   2  -4   37.80    8.60
  -3   2  -3  886.61   44.10
  -3   2  -3  910.81   45.20
  -3   2  -3  770.32   33.90
  -3   2  -3  901.21   45.20
  -3   2  -2  525.05   31.80
  -3   2  -2  517.55   32.10
  -3   2  -2  549.74   32.60
  -3   2  -1    0.20    2.70
  -3   2  -1    6.60    1.80
  -3   2  -1    6.50    3.80
  -3   2  -1    1.60    2.00
  -3   2   0   74.99   11.20
  -3   2   0   82.89   14.30
  -3   2   0   68.29    8.10
  -3   2   0   72.89   11.40
  -3   2   1   15.40    6.40
  -3   2   1   22.30    6.30
  -3   2   1   17.30    5.30
  -3   2   1   22.90    6.80
  -3   2   2  297.87   29.00
  -3   2   2  311.17   23.00
  -3   2   2  346.27   25.40
  -3   2   3  715.53   40.30
  -3   2   3  666.03   47.00
  -3   2   3  635.54   37.70
  -3   2   3  717.63   40.50
  -3   2   4  232.68   28.50
  -3   2   4  251.67   19.40
  -3   2   5  319.67   31.20
  -3   2   5  260.77   32.80
  -3   2   5  322.77   31.00
  -3   2   5  272.27   22.00
  -3   2   6    8.70    8.70
  -3   2   6   10.40    6.60
  -3   2   6    8.50    4.70
  -3   2   7  219.28   33.10
  -3   2   7  221.58   29.80
  -3   2   7  193.28   21.10
  -3   2   8  307.77   42.00
  -3   2   8  350.76   40.50
  -3   2   8  292.67   28.10
  -3   2   9   53.49   20.00
  -3   2   9   88.49   21.60
  -3   2   9   52.29   12.50
  -3   2  10    8.10    7.40
  -3   2  10   -1.00    4.30
  -3   2  11   14.30   10.50
  -3   2  11    4.40    5.20
  -3   2  12    7.50    9.60
  -3   3 -12   11.90    9.20
  -3   3 -12   35.60   23.00
  -3   3 -11  -19.50    9.50
  -3   3 -11   -6.30   10.00
  -3   3 -10   20.70    8.70
  -3   3 -10   31.90   16.20
  -3   3  -9   44.00   12.60
  -3   3  -9   74.39   23.90
  -3   3  -8    9.80    7.00
  -3   3  -8   13.70   11.40
  -3   3  -7  104.29   17.80
  -3   3  -7  109.39   25.90
  -3   3  -6  209.08   23.90
  -3   3  -6  226.18   28.30
  -3   3  -5  260.97   25.70
  -3   3  -5  282.27   29.40
  -3   3  -4  187.38   20.80
  -3   3  -4  181.38   22.30
  -3   3  -4  160.78   21.90
  -3   3  -3  115.49   15.50
  -3   3  -3  108.19   11.40
  -3   3  -3   78.59   13.90
  -3   3  -1 2452.15   89.59
  -3   3  -1 2603.74   85.59
  -3   3  -1 2645.94   86.99
  -3   3   0  643.94   42.50
  -3   3   0  569.64   35.90
  -3   3   0  646.84   38.10
  -3   3   1   49.30   11.90
  -3   3   1   25.30    7.30
  -3   3   1   48.30   10.10
  -3   3   2   46.90   10.00
  -3   3   2   27.00   11.50
  -3   3   2   50.29   10.70
  -3   3   3  248.98   29.50
  -3   3   3  273.97   25.60
  -3   3   4  155.88   25.20
  -3   3   4  160.38   19.70
  -3   3   4  148.99   16.80
  -3   3   5   25.40    9.40
  -3   3   5   23.80   10.40
  -3   3   5   22.90    7.20
  -3   3   6  196.68   26.30
  -3   3   6  123.79   24.30
  -3   3   6  178.48   24.70
  -3   3   6  181.28   20.50
  -3   3   7  216.08   33.50
  -3   3   7  254.37   31.70
  -3   3   7  206.48   22.90
  -3   3   8    8.40    8.40
  -3   3   8    4.20    7.90
  -3   3   8    5.00    5.90
  -3   3   9   -1.30    6.80
  -3   3   9   -3.50    6.50
  -3   3  10   -0.40    6.60
  -3   3  10   13.20    7.50
  -3   3  11   12.40   11.70
  -3   3  11   13.30    6.50
  -3   3  12   47.70   19.70
  -3   3  12   46.70   15.60
  -3   4 -11   70.79   29.00
  -3   4 -11   55.89   15.30
  -3   4 -10   96.99   30.50
  -3   4 -10   61.39   16.10
  -3   4  -9  119.19   31.70
  -3   4  -9   85.59   17.40
  -3   4  -8  104.49   28.30
  -3   4  -8   79.09   16.40
  -3   4  -7   21.80    8.40
  -3   4  -6   74.59   14.70
  -3   4  -5  557.04   39.30
  -3   4  -5  572.64   46.30
  -3   4  -5  603.44   48.70
  -3   4  -4  680.73   47.90
  -3   4  -4  692.33   49.50
  -3   4  -3 1459.75   69.09
  -3   4  -3 1413.86   69.69
  -3   4  -2  298.47   28.80
  -3   4  -2  262.57   11.30
  -3   4  -2  281.67   28.70
  -3   4  -1  128.39   18.90
  -3   4  -1  133.59   18.50
  -3   4   0  767.32   49.30
  -3   4   1  494.25   40.70
  -3   4   2  510.15   42.80
  -3   4   2  558.24   37.20
  -3   4   3  797.02   56.39
  -3   4   3  835.12   47.10
  -3   4   4  353.56   38.90
  -3   4   4  352.96   30.80
  -3   4   4  349.57   32.30
  -3   4   5   40.70   12.00
  -3   4   5   24.80   11.50
  -3   4   5   20.40    7.10
  -3   4   5   28.70    8.30
  -3   4   6    5.30    4.80
  -3   4   6   -3.40    5.00
  -3   4   6    2.50    3.30
  -3   4   7  400.06   40.60
  -3   4   7  300.77   41.00
  -3   4   7  311.57   29.90
  -3   4   8  926.21   67.39
  -3   4   8 1047.40   70.89
  -3   4   9  306.27   40.20
  -3   4   9  224.58   27.50
  -3   4  10   38.10   15.70
  -3   4  10   40.10   12.80
  -3   4  11   -1.60    5.60
  -3   4  11    9.40    7.90
  -3   4  12   28.30   16.90
  -3   4  12   10.20    9.00
  -3   5  -9   39.10   12.30
  -3   5  -8   14.40   10.70
  -3   5  -8   12.90    6.40
  -3   5  -7  124.69   27.00
  -3   5  -6  174.88   29.60
  -3   5  -5  129.09   24.00
  -3   5  -4    5.70    6.40
  -3   5  -4   10.40    7.30
  -3   5  -3   -4.20    7.20
  -3   5  -3    0.00    1.50
  -3   5  -3    2.30    2.70
  -3   5  -2  559.34   42.90
  -3   5  -2  538.45   22.10
  -3   5  -2  592.04   45.60
  -3   5  -1 2010.90   86.69
  -3   5  -1 2049.09   86.79
  -3   5  -1 2120.19   88.29
  -3   5   0 1022.40   60.59
  -3   5   0 1031.10   55.89
  -3   5   0 1125.19   60.89
  -3   5   0 1127.29   60.79
  -3   5   1  482.35   41.50
  -3   5   1  487.45   36.10
  -3   5   1  496.55   39.00
  -3   5   2  189.98   27.50
  -3   5   2  141.69   21.40
  -3   5   2  192.78   22.50
  -3   5   2  165.88   22.20
  -3   5   3   84.89   16.40
  -3   5   3   68.09   17.10
  -3   5   3   66.49   13.70
  -3   5   4  376.06   41.70
  -3   5   4  376.36   33.10
  -3   5   4  403.06   36.60
  -3   5   5  426.06   38.80
  -3   5   5  398.16   45.80
  -3   5   5  390.46   34.10
  -3   5   6  267.07   31.90
  -3   5   6  200.28   33.70
  -3   5   6  226.18   26.10
  -3   5   6  227.38   26.30
  -3   5   7  234.88   31.70
  -3   5   7  210.48   26.20
  -3   5   8   12.00   10.50
  -3   5   8   11.80    7.20
  -3   5   9  100.99   23.10
  -3   5   9   74.39   16.60
  -3   5  10   58.49   19.40
  -3   5  10   45.00   13.30
  -3   5  11   30.20   15.30
  -3   5  11   22.70   11.40
  -3   5  12  104.99   28.30
  -3   5  12   58.49   18.00
  -3   5  13   13.80   11.90
  -3   6  -9   30.80   13.50
  -3   6  -8   16.20   13.80
  -3   6  -7  120.09   26.70
  -3   6  -6   53.09   18.10
  -3   6  -5    3.70    7.80
  -3   6  -4  122.39   23.80
  -3   6  -4  123.89   12.00
  -3   6  -3  294.27   18.20
  -3   6  -3  297.37   36.00
  -3   6  -2  217.18   28.70
  -3   6  -2  219.68   15.90
  -3   6  -2  250.87   31.80
  -3   6  -1   14.70    7.60
  -3   6  -1   13.40    7.20
  -3   6  -1   13.30    4.20
  -3   6  -1   12.50    7.50
  -3   6   0  232.68   29.40
  -3   6   0  240.88   27.10
  -3   6   0  222.68   28.30
  -3   6   0  248.48   29.40
  -3   6   1  177.68   26.10
  -3   6   1  144.99   23.10
  -3   6   1  189.58   23.60
  -3   6   1  170.98   24.20
  -3   6   2   87.79   19.00
  -3   6   2   74.89   16.20
  -3   6   2   87.89   16.30
  -3   6   2   76.59   15.90
  -3   6   3  321.57   38.30
  -3   6   3  358.96   32.70
  -3   6   3  370.46   35.40
  -3   6   3  372.56   36.70
  -3   6   4  220.78   33.70
  -3   6   4  258.37   28.00
  -3   6   4  245.18   30.40
  -3   6   5  101.39   24.70
  -3   6   5  127.49   20.20
  -3   6   5  141.69   23.60
  -3   6   6  232.48   30.90
  -3   6   6  215.08   26.30
  -3   6   7  -15.20    9.20
  -3   6   7    0.70    6.30
  -3   6   7    0.10    3.70
  -3   6   8  269.27   36.40
  -3   6   8  193.08   27.30
  -3   6   9  315.97   41.80
  -3   6   9  254.27   31.80
  -3   6  10  102.59   24.70
  -3   6  10   79.69   18.60
  -3   6  11   10.90    8.00
  -3   6  11    4.00    4.60
  -3   6  12   -7.20   10.40
  -3   6  12    2.30    5.70
  -3   6  13   18.00   11.40
  -3   7  -8   29.90   17.90
  -3   7  -7   86.79   24.50
  -3   7  -6   91.49   23.90
  -3   7  -5   66.59   18.60
  -3   7  -4   20.40    9.90
  -3   7  -4   13.90    4.50
  -3   7  -3   -3.90    7.30
  -3   7  -3   -2.10    1.50
  -3   7  -2   89.59   20.60
  -3   7  -2   71.59    8.70
  -3   7  -2   71.69   10.10
  -3   7  -1  345.47   36.90
  -3   7  -1  307.87   22.70
  -3   7  -1  369.16   40.40
  -3   7   0  171.08   26.00
  -3   7   0  204.18   26.70
  -3   7   0  166.48   26.00
  -3   7   0  219.48   30.20
  -3   7   1   52.39   14.60
  -3   7   1   48.00   14.50
  -3   7   1   46.10   12.50
  -3   7   1   33.20   11.30
  -3   7   2    5.70    5.80
  -3   7   2   14.70    8.90
  -3   7   2   14.40    7.60
  -3   7   2   19.60    8.60
  -3   7   3    0.00    6.20
  -3   7   3   -0.40    6.90
  -3   7   3   12.40    7.30
  -3   7   3    4.50    4.50
  -3   7   4  101.39   25.00
  -3   7   4  126.49   20.40
  -3   7   4  171.88   26.40
  -3   7   5  309.97   32.00
  -3   7   5  275.17   34.50
  -3   7   6  121.89   23.80
  -3   7   6  113.99   20.20
  -3   7   7  167.08   28.40
  -3   7   7  189.28   25.90
  -3   7   8   18.00   10.60
  -3   7   8   15.40    8.30
  -3   7   9   77.09   21.20
  -3   7   9   56.89   16.00
  -3   7  10   73.19   19.40
  -3   7  10   56.69   16.30
  -3   7  11   22.30   13.30
  -3   7  11   20.80    9.60
  -3   7  12   -8.80   10.50
  -3   7  12    2.70    5.30
  -3   7  13    6.40    8.60
  -3   8  -7    8.30   11.60
  -3   8  -6   -5.40    8.60
  -3   8  -5  100.49   25.40
  -3   8  -4  178.78   33.50
  -3   8  -3  168.08   31.40
  -3   8  -3  121.99   14.40
  -3   8  -2  143.79   13.60
  -3   8  -2  165.98   17.50
  -3   8  -1   -4.10    6.20
  -3   8  -1    5.60    3.90
  -3   8  -1    3.80    2.30
  -3   8   0  269.37   34.70
  -3   8   0  273.87   33.40
  -3   8   0  281.37   37.00
  -3   8   1  596.44   53.09
  -3   8   1  567.94   48.00
  -3   8   1  680.63   57.19
  -3   8   2  263.57   36.80
  -3   8   2  261.87   31.00
  -3   8   2  247.88   33.80
  -3   8   3  176.08   28.70
  -3   8   3  231.08   28.90
  -3   8   4   55.59   16.30
  -3   8   4   44.40   13.20
  -3   8   5   -1.70    4.60
  -3   8   5   -3.10    8.40
  -3   8   6   26.20   11.60
  -3   8   6   24.10   10.20
  -3   8   7   23.80   11.80
  -3   8   7   17.40    8.20
  -3   8   8   85.99   22.30
  -3   8   8   80.59   17.70
  -3   8   9  181.28   32.10
  -3   8   9  156.68   27.50
  -3   8  10   24.10   12.80
  -3   8  10   17.90   11.30
  -3   8  11   -6.60    8.70
  -3   8  11   -1.50    5.90
  -3   8  12    1.80    5.40
  -3   8  13    6.90    8.90
  -3   9  -5   49.00   19.10
  -3   9  -4   14.20    6.20
  -3   9  -3   26.80   12.30
  -3   9  -2  143.39   29.50
  -3   9  -2   89.59   11.40
  -3   9  -1  278.87   25.30
  -3   9  -1  328.97   44.00
  -3   9   0  262.27   35.70
  -3   9   0  315.17   28.20
  -3   9   0  327.07   38.70
  -3   9   0  347.37   44.00
  -3   9   1   56.99   18.70
  -3   9   1   50.49   14.80
  -3   9   2   -1.60    6.40
  -3   9   2   -8.10    6.70
  -3   9   3    1.60    7.90
  -3   9   3    5.10    4.20
  -3   9   4  123.89   25.80
  -3   9   4  117.29   21.10
  -3   9   5  315.47   35.00
  -3   9   5  324.07   40.90
  -3   9   6  373.06   38.30
  -3   9   6  357.26   43.10
  -3   9   7  292.67   34.00
  -3   9   7  307.17   40.90
  -3   9   8  130.29   27.50
  -3   9   8  101.99   20.00
  -3   9   9   -7.70   11.60
  -3   9   9    1.40    4.20
  -3   9  10  113.49   27.60
  -3   9  11  113.79   28.90
  -3   9  11   66.19   20.00
  -3   9  12   11.10   10.80
  -3   9  13    8.70   11.80
  -3  10  -4   26.70   15.60
  -3  10  -3   93.29   25.80
  -3  10  -2  107.09   26.90
  -3  10  -1   39.20   17.10
  -3  10   0    3.10    9.00
  -3  10   0    3.30    5.50
  -3  10   1  117.99   26.70
  -3  10   1   93.59   21.10
  -3  10   2  126.29   27.20
  -3  10   2  109.39   21.90
  -3  10   3  165.08   31.10
  -3  10   3  138.89   25.20
  -3  10   4  118.59   26.50
  -3  10   4  134.49   24.60
  -3  10   5   15.60   11.60
  -3  10   5   24.70   10.90
  -3  10   6    0.10    5.60
  -3  10   6   18.20    8.60
  -3  10   7   51.59   17.40
  -3  10   7   20.00    9.70
  -3  10   8  100.19   26.00
  -3  10   8  136.89   24.00
  -3  10   9  137.29   30.30
  -3  10   9  176.48   27.60
  -3  10  10   51.19   19.50
  -3  10  11    4.90    7.00
  -3  11  -2   -6.50   10.80
  -3  11  -1   60.79   20.70
  -3  11   0   90.99   26.30
  -3  11   0   79.59   20.50
  -3  11   1   34.90   16.80
  -3  11   1   31.00   14.10
  -3  11   2    1.90    6.90
  -3  11   2   -1.70    8.10
  -3  11   3  -10.10    9.40
  -3  11   3  -23.80   11.20
  -3  11   4   -7.30    9.70
  -3  11   4    4.80    4.60
  -3  11   5   13.10    9.10
  -3  11   5   17.20    9.60
  -3  11   6   39.10   16.10
  -3  11   6   38.10   13.20
  -3  11   7   40.60   16.40
  -3  11   7   42.00   13.40
  -3  11   8   60.79   20.80
  -3  11   8   48.90   15.10
  -3  11   9   -2.10    6.40
  -3  11   9    7.40    5.10
  -3  11  10    7.80   11.60
  -3  11  10   46.60   14.90
  -3  12   0   17.30   14.20
  -3  12   0   16.60   12.00
  -3  12   1   53.09   21.40
  -3  12   1   70.79   21.20
  -3  12   2   97.29   27.90
  -3  12   2   54.49   17.50
  -3  12   3   32.60   15.90
  -3  12   3   31.40   13.40
  -3  12   4   21.80   13.30
  -3  12   4    9.30    8.10
  -3  12   5    8.10    5.80
  -3  12   5   -2.20    5.50
  -3  12   6   16.30   14.80
  -3  12   6   21.70   10.90
  -3  12   7   37.10   15.40
  -3  12   7   36.90   14.40
  -3  12   8   31.40   14.70
  -3  12   8   40.30   14.70
  -3  12   9   39.10   13.70
  -3  12  10   35.00   13.00
  -3  13   2  -14.70   10.60
  -3  13   3    7.00    6.80
  -3  13   4   57.19   19.20
  -3  13   5   52.29   17.90
  -3  13   6   75.59   20.60
  -3  13   7   51.19   17.50
  -3  13   8   23.80   11.50
  -3  14   5   -5.30    7.90
  -3  14   6   -9.20    8.70
  -3  14   7   30.90   13.20
  -2 -15  -8  -27.50   28.40
  -2 -14  -9   10.30   26.00
  -2 -14  -8   59.09   37.90
  -2 -14  -8   51.39   16.60
  -2 -14  -7  175.98   66.29
  -2 -14  -7  134.99   25.70
  -2 -14  -6   53.09   40.60
  -2 -14  -6   76.69   20.00
  -2 -14  -5  -14.10   23.30
  -2 -14  -5    3.20    6.20
  -2 -14  -4  -30.90   36.50
  -2 -14  -4   -3.40    5.70
  -2 -13 -12    9.20    6.60
  -2 -13 -11   42.90   15.70
  -2 -13 -10   56.49   30.00
  -2 -13 -10  114.19   23.90
  -2 -13  -9  132.59   44.90
  -2 -13  -9   90.69   20.40
  -2 -13  -8   22.40   26.90
  -2 -13  -8   22.70   11.30
  -2 -13  -7   16.70   22.80
  -2 -13  -7    3.90    5.50
  -2 -13  -6    8.10   15.80
  -2 -13  -6    0.70    3.90
  -2 -13  -5  104.59   49.20
  -2 -13  -5   92.29   21.10
  -2 -13  -4   75.59   45.40
  -2 -13  -4  103.89   22.30
  -2 -13  -3   40.70   36.40
  -2 -13  -3   64.49   19.00
  -2 -13  -2    0.50   31.30
  -2 -12 -13   10.20   12.80
  -2 -12 -13    6.60    8.50
  -2 -12 -12   35.70   17.00
  -2 -12 -12   42.40   15.00
  -2 -12 -11   86.29   20.60
  -2 -12 -10   48.80   25.00
  -2 -12 -10   55.19   16.00
  -2 -12  -9   -3.90   11.80
  -2 -12  -9    1.30    6.00
  -2 -12  -8   25.10   15.60
  -2 -12  -8   21.50    9.30
  -2 -12  -7  169.38   47.40
  -2 -12  -7  175.18   26.40
  -2 -12  -6  187.58   52.49
  -2 -12  -6  181.68   26.60
  -2 -12  -5   72.69   37.30
  -2 -12  -5   42.90   13.00
  -2 -12  -4    5.00   17.30
  -2 -12  -4    1.30    3.70
  -2 -12  -3    1.50   19.90
  -2 -12  -3    1.60    5.10
  -2 -12  -2  -10.40   23.70
  -2 -12  -1   10.20   15.40
  -2 -12   0   62.09   45.30
  -2 -11 -15    1.20    8.00
  -2 -11 -14    7.70    8.00
  -2 -11 -13    2.70    7.20
  -2 -11 -13   -5.70    7.00
  -2 -11 -12  -27.40   14.20
  -2 -11 -12    1.70    6.10
  -2 -11 -11   24.20   14.40
  -2 -11 -11   28.10   15.70
  -2 -11 -11   19.70    9.80
  -2 -11 -10   78.19   24.80
  -2 -11 -10   66.19   17.00
  -2 -11  -9   70.69   25.50
  -2 -11  -9   49.50   14.00
  -2 -11  -8    0.40   17.40
  -2 -11  -8   14.80    8.60
  -2 -11  -7   -5.30   15.50
  -2 -11  -7   -4.70    5.50
  -2 -11  -6  -23.90   18.70
  -2 -11  -6    6.40    5.90
  -2 -11  -5   68.79   31.90
  -2 -11  -5   44.50   12.50
  -2 -11  -4   29.40   22.70
  -2 -11  -4   10.70    7.20
  -2 -11  -3  -58.79   32.70
  -2 -11  -3   19.10    9.00
  -2 -11  -2    5.60   16.20
  -2 -11  -2   47.40   14.90
  -2 -11  -1  -68.99   38.40
  -2 -11   0   15.00   31.10
  -2 -11   1   16.10   24.30
  -2 -11   2   23.20   45.80
  -2 -10 -15   17.80   12.20
  -2 -10 -14   32.20   17.40
  -2 -10 -14   52.69   18.50
  -2 -10 -13   23.90   15.00
  -2 -10 -13   47.30   16.90
  -2 -10 -12   10.10    6.60
  -2 -10 -12   15.30    9.90
  -2 -10 -11   49.10   17.40
  -2 -10 -11   52.39   17.50
  -2 -10 -11   75.09   18.10
  -2 -10 -10   46.90   16.30
  -2 -10 -10   29.40   11.10
  -2 -10  -9   16.00    9.20
  -2 -10  -9   20.10    8.60
  -2 -10  -8  200.88   38.70
  -2 -10  -8  225.78   27.80
  -2 -10  -7  285.27   49.50
  -2 -10  -7  303.47   31.50
  -2 -10  -6  364.16   45.10
  -2 -10  -6  377.06   59.49
  -2 -10  -6  401.76   35.90
  -2 -10  -5  173.98   42.70
  -2 -10  -5  207.28   35.40
  -2 -10  -5  236.18   26.90
  -2 -10  -5  217.18   32.60
  -2 -10  -4    5.40   18.00
  -2 -10  -4    2.90    7.40
  -2 -10  -4  -13.50    7.10
  -2 -10  -3   94.09   34.60
  -2 -10  -3   29.00    9.80
  -2 -10  -2   22.20   24.10
  -2 -10  -2   34.60   11.50
  -2 -10  -1   53.89   33.70
  -2 -10  -1   77.69    7.60
  -2 -10  -1   65.29    6.60
  -2 -10   0   57.19   29.30
  -2 -10   1    3.80   20.40
  -2 -10   2  -51.69   37.50
  -2 -10   3  -68.19   42.00
  -2  -9 -16    4.90   11.60
  -2  -9 -15   33.30   20.90
  -2  -9 -15   25.80   14.20
  -2  -9 -14   53.99   21.90
  -2  -9 -14   29.20   13.60
  -2  -9 -13    6.20    9.10
  -2  -9 -13    1.60    4.50
  -2  -9 -12    6.20   10.70
  -2  -9 -12   27.40   11.40
  -2  -9 -11   55.69   16.00
  -2  -9 -11   94.49   23.60
  -2  -9 -11  105.29   21.00
  -2  -9 -10  442.86   46.20
  -2  -9 -10  415.86   46.20
  -2  -9 -10  382.36   38.70
  -2  -9  -9  495.05   51.79
  -2  -9  -9  473.05   41.10
  -2  -9  -8   58.09   17.70
  -2  -9  -8   76.39   19.30
  -2  -9  -8   60.79   13.90
  -2  -9  -7   23.70   12.00
  -2  -9  -7   49.70   13.90
  -2  -9  -7   55.59   12.90
  -2  -9  -6  465.95   59.79
  -2  -9  -6  487.35   37.20
  -2  -9  -6  521.25   46.50
  -2  -9  -5  807.02   86.49
  -2  -9  -5  903.21   67.69
  -2  -9  -5  907.11   51.29
  -2  -9  -5  927.01   62.09
  -2  -9  -4  804.82   88.29
  -2  -9  -4  822.02   67.29
  -2  -9  -4  891.31   50.29
  -2  -9  -4  917.91   60.89
  -2  -9  -4  829.02   56.99
  -2  -9  -3  268.97   54.99
  -2  -9  -3  244.28   38.10
  -2  -9  -3  233.28   25.90
  -2  -9  -3  217.08   28.00
  -2  -9  -2  100.99   24.90
  -2  -9  -2   80.29   15.60
  -2  -9  -2  106.89   19.90
  -2  -9  -1   27.80   22.60
  -2  -9  -1   63.49   16.60
  -2  -9   0   20.10   17.80
  -2  -9   1   69.19   34.80
  -2  -9   2  152.48   56.99
  -2  -9   3   23.30   26.10
  -2  -9   4   -3.00   20.20
  -2  -9   5  -73.29   43.00
  -2  -8 -15   31.80   19.00
  -2  -8 -14   58.59   23.80
  -2  -8 -13   78.19   25.30
  -2  -8 -12   65.49   21.50
  -2  -8 -12   38.40   12.90
  -2  -8 -11   73.19   19.70
  -2  -8 -11   58.69    7.70
  -2  -8 -11   62.89   15.80
  -2  -8 -10   82.49   20.30
  -2  -8 -10   72.89   13.40
  -2  -8 -10  110.29   20.00
  -2  -8  -9    2.40    7.90
  -2  -8  -9   15.00    8.90
  -2  -8  -9   15.30    7.80
  -2  -8  -8  106.09   22.60
  -2  -8  -8  115.99   22.10
  -2  -8  -8  106.19   17.40
  -2  -8  -7   72.99   16.90
  -2  -8  -7   67.39   19.00
  -2  -8  -7   64.29   17.60
  -2  -8  -7   54.29   12.00
  -2  -8  -7   58.89   16.40
  -2  -8  -6  342.17   44.60
  -2  -8  -6  339.87   29.20
  -2  -8  -6  392.86   38.90
  -2  -8  -6  356.16   36.40
  -2  -8  -5  360.16   49.50
  -2  -8  -5  365.76   29.60
  -2  -8  -5  472.95   41.40
  -2  -8  -5  397.76   38.90
  -2  -8  -4   47.60   14.20
  -2  -8  -4   39.60   19.20
  -2  -8  -4   25.90    9.60
  -2  -8  -4   42.30   13.00
  -2  -8  -4   45.30   10.20
  -2  -8  -3   22.70   10.70
  -2  -8  -3    2.50   10.30
  -2  -8  -3   22.10    8.10
  -2  -8  -3   19.30    6.30
  -2  -8  -3   22.90    9.40
  -2  -8  -2   71.19   28.20
  -2  -8  -2   68.99   19.30
  -2  -8  -2   60.79   13.80
  -2  -8  -2   81.09   14.20
  -2  -8  -1  219.18   49.20
  -2  -8  -1  259.47   39.90
  -2  -8  -1  230.58   25.90
  -2  -8  -1  194.08   25.20
  -2  -8   0  471.65   77.69
  -2  -8   0  530.45   61.79
  -2  -8   0  491.35   41.40
  -2  -8   1  209.68   56.09
  -2  -8   1  230.38   29.80
  -2  -8   2  -59.99   32.70
  -2  -8   2    2.40    4.50
  -2  -8   3   12.30   23.00
  -2  -8   4   -1.40   15.10
  -2  -8   5   31.20   32.90
  -2  -8   6  -29.40   27.30
  -2  -7 -16    4.60   13.30
  -2  -7 -15    6.70   11.10
  -2  -7 -14   26.20   13.70
  -2  -7 -13    6.90   11.10
  -2  -7 -12   10.10    9.90
  -2  -7 -11    1.40    6.10
  -2  -7 -10  103.89   10.00
  -2  -7 -10  111.39   23.20
  -2  -7  -9  626.04   50.89
  -2  -7  -9  586.44   42.90
  -2  -7  -9  593.44   49.50
  -2  -7  -8  647.54   58.79
  -2  -7  -8  651.63   43.10
  -2  -7  -8  632.54   53.09
  -2  -7  -8  689.43   51.39
  -2  -7  -7    7.20    5.30
  -2  -7  -7   -2.60    7.10
  -2  -7  -7    2.50    6.30
  -2  -7  -7    4.40    5.60
  -2  -7  -7    2.00    2.90
  -2  -7  -6   -0.50    3.00
  -2  -7  -6    7.00    6.40
  -2  -7  -6    1.40    6.60
  -2  -7  -6   -2.10    7.20
  -2  -7  -6    3.50    2.60
  -2  -7  -5  298.37   40.10
  -2  -7  -5  236.38   21.70
  -2  -7  -5  265.77   28.50
  -2  -7  -5  355.56   34.10
  -2  -7  -4  719.03   50.99
  -2  -7  -4  701.93   66.09
  -2  -7  -4  742.83   38.70
  -2  -7  -4  734.43   48.30
  -2  -7  -3  172.48   35.70
  -2  -7  -3  178.48   26.30
  -2  -7  -3  185.28   18.80
  -2  -7  -3  189.38   23.40
  -2  -7  -3  173.18   22.70
  -2  -7  -2   22.50   10.00
  -2  -7  -2   33.00   18.60
  -2  -7  -2   14.30    5.60
  -2  -7  -2   17.70    7.40
  -2  -7  -1   93.89   30.70
  -2  -7  -1  123.69   25.00
  -2  -7  -1  107.09   15.90
  -2  -7  -1  114.39   17.70
  -2  -7   0   53.49   25.50
  -2  -7   0   56.19   18.80
  -2  -7   0   38.10   10.70
  -2  -7   1   20.70   23.40
  -2  -7   1   16.20   10.70
  -2  -7   1   22.50    8.70
  -2  -7   2   47.00   27.90
  -2  -7   2   87.09   17.20
  -2  -7   3   79.79   33.70
  -2  -7   4   28.70   23.30
  -2  -7   5   54.19   32.50
  -2  -7   6   -5.10   16.50
  -2  -7   7  -35.00   27.80
  -2  -7   8  -33.30   31.80
  -2  -6 -16  -38.60   20.90
  -2  -6 -15    6.20    7.70
  -2  -6 -15    9.00   10.00
  -2  -6 -14   29.60   15.40
  -2  -6 -14   16.60   13.60
  -2  -6 -13  161.38   36.00
  -2  -6 -12  118.09   14.30
  -2  -6 -12  151.58   31.90
  -2  -6 -11    2.30    2.00
  -2  -6 -11   -1.60    6.10
  -2  -6 -10    9.80    3.20
  -2  -6 -10   -2.00    7.80
  -2  -6  -9   28.10   10.20
  -2  -6  -8  437.86   38.40
  -2  -6  -8  383.66   43.70
  -2  -6  -8  358.76   38.30
  -2  -6  -8  451.25   39.10
  -2  -6  -7  437.66   45.20
  -2  -6  -7  460.75   37.60
  -2  -6  -7  501.55   43.00
  -2  -6  -7  429.96   31.20
  -2  -6  -6  192.68   25.00
  -2  -6  -6  204.18   29.20
  -2  -6  -6  237.18   27.70
  -2  -6  -6  250.37   22.00
  -2  -6  -6  226.68   24.90
  -2  -6  -5   -0.10    4.10
  -2  -6  -5    4.10    6.30
  -2  -6  -5   -7.20    7.80
  -2  -6  -5    5.00    3.10
  -2  -6  -5    9.70    5.90
  -2  -6  -4   45.40   16.10
  -2  -6  -4   40.80    9.70
  -2  -6  -4   37.20    7.70
  -2  -6  -3  263.17   38.80
  -2  -6  -3  273.67   29.00
  -2  -6  -3  281.97   21.00
  -2  -6  -3  257.57   24.10
  -2  -6  -2   80.69   13.60
  -2  -6  -2   67.69   20.30
  -2  -6  -2   88.99   17.20
  -2  -6  -2   81.69   11.50
  -2  -6  -1   21.60   14.30
  -2  -6  -1   37.30   11.40
  -2  -6  -1   36.90    8.50
  -2  -6   0  572.54   53.19
  -2  -6   0  507.75   66.39
  -2  -6   1  351.06   45.70
  -2  -6   1  267.67   52.09
  -2  -6   2   13.30    7.00
  -2  -6   2   25.60   19.10
  -2  -6   3   18.20   15.90
  -2  -6   4   42.30   24.90
  -2  -6   4   93.89   19.40
  -2  -6   5  137.29   42.70
  -2  -6   5  128.09   25.20
  -2  -6   6   13.10   14.70
  -2  -6   6   34.20   13.80
  -2  -6   7  -63.59   32.20
  -2  -6   7   10.30    7.80
  -2  -6   8    4.80    6.40
  -2  -6   8    6.70    9.00
  -2  -6   9    4.40    8.80
  -2  -6   9    1.70   30.20
  -2  -5 -16    9.50   14.60
  -2  -5 -15   37.70   17.40
  -2  -5 -15    1.10   11.10
  -2  -5 -14    3.20    6.70
  -2  -5 -14    2.90    8.10
  -2  -5 -13    7.70    5.70
  -2  -5 -13    7.20    8.10
  -2  -5 -12   49.80   18.90
  -2  -5 -12   36.40    9.00
  -2  -5 -11   60.09   20.00
  -2  -5 -11   47.00    9.10
  -2  -5 -10  157.28   28.90
  -2  -5 -10  147.69   14.50
  -2  -5 -10  154.38   24.90
  -2  -5  -9  477.25   23.50
  -2  -5  -9  409.86   45.90
  -2  -5  -9  492.05   46.50
  -2  -5  -9  474.35   41.20
  -2  -5  -8  636.84   47.90
  -2  -5  -8  607.04   53.49
  -2  -5  -8  638.54   22.80
  -2  -5  -8  714.23   47.50
  -2  -5  -8  656.93   50.89
  -2  -5  -7   -0.30    3.40
  -2  -5  -7    2.60    5.80
  -2  -5  -7   -3.40    6.40
  -2  -5  -7   -2.20    4.70
  -2  -5  -6  243.18   22.20
  -2  -5  -6  214.68   28.80
  -2  -5  -6  233.88   23.40
  -2  -5  -6  210.58   25.40
  -2  -5  -5 1888.81   70.19
  -2  -5  -5 1881.81   60.49
  -2  -5  -4 4299.97  131.79
  -2  -5  -4 4124.39  129.19
  -2  -5  -4 3139.49   85.59
  -2  -5  -4 3278.57   98.89
  -2  -5  -4 3791.92  110.09
  -2  -5  -3 1678.93   67.39
  -2  -5  -3 1588.04   85.09
  -2  -5  -3 1760.92   52.59
  -2  -5  -3 1719.73   62.09
  -2  -5  -2   84.89   22.00
  -2  -5  -2  125.79   17.90
  -2  -5  -2  117.49   11.80
  -2  -5  -2  134.09   16.10
  -2  -5  -2  124.39   14.70
  -2  -5  -1   35.00   10.50
  -2  -5  -1   34.40   12.30
  -2  -5  -1   44.30    6.00
  -2  -5  -1   38.80    7.40
  -2  -5  -1   45.40    8.80
  -2  -5   0   15.30    8.00
  -2  -5   0    5.30    7.90
  -2  -5   0   18.80    5.70
  -2  -5   1  380.26   43.40
  -2  -5   1  292.17   48.30
  -2  -5   1  344.07   25.80
  -2  -5   2 1006.60   77.79
  -2  -5   2  913.81   52.79
  -2  -5   3  209.18   48.60
  -2  -5   3  213.28   39.10
  -2  -5   3  186.58   25.00
  -2  -5   4  134.29   40.80
  -2  -5   4  187.38   26.10
  -2  -5   5   51.29   29.30
  -2  -5   5   44.20   15.10
  -2  -5   6   -8.40   14.60
  -2  -5   6   -0.90    6.50
  -2  -5   7   43.30   26.50
  -2  -5   7   47.10   15.50
  -2  -5   8    8.50   11.60
  -2  -5   8   22.30   12.20
  -2  -5   9    6.40   18.40
  -2  -5   9   25.00   14.70
  -2  -5   9   23.10   12.10
  -2  -5  10   20.40   16.80
  -2  -5  10   53.39   38.10
  -2  -4 -16   27.80   23.00
  -2  -4 -15    2.70    5.90
  -2  -4 -15  -23.10   15.90
  -2  -4 -14   18.70   11.60
  -2  -4 -14   16.30   15.00
  -2  -4 -13  113.29   25.90
  -2  -4 -13   97.69   27.20
  -2  -4 -12  228.68   34.50
  -2  -4 -12  163.58   20.30
  -2  -4 -12  227.18   39.50
  -2  -4 -11   94.59   21.70
  -2  -4 -11   89.59   22.80
  -2  -4 -11   59.59   11.20
  -2  -4 -10  165.78   30.20
  -2  -4 -10  140.69   15.80
  -2  -4  -9   -4.00    4.70
  -2  -4  -9   -7.30   10.20
  -2  -4  -9   -1.30    2.80
  -2  -4  -9   10.80    6.20
  -2  -4  -8  470.95   37.80
  -2  -4  -8  364.26   37.30
  -2  -4  -8  372.36   20.20
  -2  -4  -8  451.55   44.50
  -2  -4  -8  425.06   40.00
  -2  -4  -7 1534.05   70.69
  -2  -4  -7 1709.83   84.49
  -2  -4  -7 1541.05   39.10
  -2  -4  -7 1637.74   67.39
  -2  -4  -6  315.87   25.90
  -2  -4  -6  311.57   33.20
  -2  -4  -6  295.87   25.00
  -2  -4  -5  111.99   13.20
  -2  -4  -5  106.49   18.90
  -2  -4  -5  114.09   14.10
  -2  -4  -5  121.19   16.80
  -2  -4  -4    3.00    2.30
  -2  -4  -4    7.50    4.50
  -2  -4  -4    2.10    4.20
  -2  -4  -4    8.30    3.60
  -2  -4  -4    5.00    3.90
  -2  -4  -3  715.33   26.10
  -2  -4  -3  712.13   33.00
  -2  -4  -3  764.52   38.60
  -2  -4  -2  608.04   50.19
  -2  -4  -2  656.93   35.70
  -2  -4  -2  664.83   24.90
  -2  -4  -2  614.14   29.40
  -2  -4  -2  651.23   33.20
  -2  -4  -1  302.37   26.90
  -2  -4  -1  263.17   35.70
  -2  -4  -1  287.37   15.10
  -2  -4  -1  302.77   20.80
  -2  -4   0  747.23   49.90
  -2  -4   0  703.73   32.40
  -2  -4   1 1553.24   83.19
  -2  -4   1 1505.25   61.69
  -2  -4   2  502.65   51.79
  -2  -4   2  522.45   64.89
  -2  -4   2  521.45   36.10
  -2  -4   3   36.70   15.30
  -2  -4   3   39.20   18.30
  -2  -4   3   21.60    8.30
  -2  -4   4  216.28   45.30
  -2  -4   4  250.67   43.20
  -2  -4   4  316.07   32.80
  -2  -4   5  575.24   76.69
  -2  -4   5  617.54   49.50
  -2  -4   6  500.05   72.39
  -2  -4   6  583.74   51.19
  -2  -4   7   50.49   26.70
  -2  -4   7   82.49   22.70
  -2  -4   7   64.79   16.50
  -2  -4   8    3.40   12.30
  -2  -4   8   11.90    9.30
  -2  -4   8    6.50    7.70
  -2  -4   9    0.10    5.10
  -2  -4   9    1.20    4.80
  -2  -4  10   12.30   12.30
  -2  -4  10  -15.30   18.00
  -2  -4  11    0.30   18.30
  -2  -3 -15    9.80    9.80
  -2  -3 -15   20.10   15.20
  -2  -3 -14   -2.60    7.00
  -2  -3 -14   23.60   18.10
  -2  -3 -13   -3.10    7.60
  -2  -3 -13    3.30    8.90
  -2  -3 -12   18.70   10.20
  -2  -3 -12  -23.50   13.60
  -2  -3 -11  101.69   22.10
  -2  -3 -11   68.59   20.70
  -2  -3 -10   25.80   11.60
  -2  -3 -10   25.90   12.90
  -2  -3  -9  217.98   27.40
  -2  -3  -9  238.38   29.70
  -2  -3  -9  215.98   32.30
  -2  -3  -9  172.58   28.40
  -2  -3  -8  844.32   51.49
  -2  -3  -8  855.61   61.69
  -2  -3  -8  914.51   59.39
  -2  -3  -7  484.95   34.80
  -2  -3  -7  535.35   41.80
  -2  -3  -7  531.05   44.60
  -2  -3  -6   -3.00    4.30
  -2  -3  -6    3.30    4.70
  -2  -3  -6    4.60    4.30
  -2  -3  -5   44.70    8.20
  -2  -3  -5   35.70    7.80
  -2  -3  -5   44.30   11.20
  -2  -3  -4  349.57   20.20
  -2  -3  -4  361.36   19.20
  -2  -3  -4  308.07   29.30
  -2  -3  -4  329.47   20.70
  -2  -3  -4  343.87   25.80
  -2  -3  -3 2621.24   77.69
  -2  -3  -3 2665.33   59.99
  -2  -3  -3 2596.54   78.59
  -2  -3  -3 2557.24   68.99
  -2  -3  -2  988.70   36.60
  -2  -3  -2  914.31   35.20
  -2  -3  -2  977.10   24.70
  -2  -3  -2  977.60   38.10
  -2  -3  -2  937.81   32.10
  -2  -3  -1  104.89   20.40
  -2  -3  -1  102.49   13.20
  -2  -3  -1  117.29    8.90
  -2  -3  -1  111.69   10.90
  -2  -3   0  181.18   21.90
  -2  -3   0  217.68   32.90
  -2  -3   0  197.78    9.00
  -2  -3   0  200.48   13.90
  -2  -3   1  266.17   22.10
  -2  -3   1  241.48   29.60
  -2  -3   1  249.08   37.60
  -2  -3   2 1199.08   53.49
  -2  -3   2 1257.17   77.69
  -2  -3   2 1129.09   85.79
  -2  -3   3  739.93   44.10
  -2  -3   3  695.03   62.59
  -2  -3   3  733.93   72.69
  -2  -3   4  209.58   11.00
  -2  -3   4  278.17   29.00
  -2  -3   4  279.37   46.80
  -2  -3   4  288.97   43.60
  -2  -3   5   40.00    6.20
  -2  -3   5   40.70   18.00
  -2  -3   5   54.49   22.90
  -2  -3   5   46.10   13.20
  -2  -3   6   -0.20    2.80
  -2  -3   6   -0.30   12.80
  -2  -3   6  -18.70    9.50
  -2  -3   6    2.60    4.20
  -2  -3   7   50.69    8.30
  -2  -3   7   68.89   25.50
  -2  -3   7   49.60   15.30
  -2  -3   7   70.59   16.20
  -2  -3   8   28.70   18.90
  -2  -3   8   16.30    8.10
  -2  -3   8   31.80   12.20
  -2  -3   9   15.00   21.20
  -2  -3   9   14.50   11.00
  -2  -3   9   17.00    8.90
  -2  -3  10    9.30   15.50
  -2  -3  10   50.99   20.80
  -2  -3  10   33.80   14.50
  -2  -3  11   26.10   13.50
  -2  -3  11    8.20   18.30
  -2  -2 -15   -5.90    7.00
  -2  -2 -15    7.60   11.00
  -2  -2 -14    1.80    5.60
  -2  -2 -14   -4.90    9.10
  -2  -2 -13   -0.20    5.40
  -2  -2 -13    7.70   12.60
  -2  -2 -12   31.10   11.50
  -2  -2 -12   24.10   13.60
  -2  -2 -11   46.60   15.20
  -2  -2 -11   55.89   19.30
  -2  -2 -10   32.70   12.10
  -2  -2 -10   54.59   16.60
  -2  -2  -9   -2.50    5.90
  -2  -2  -9  -12.30    7.10
  -2  -2  -9   -2.50    5.20
  -2  -2  -8  129.49   20.80
  -2  -2  -8  122.39   19.50
  -2  -2  -8   97.99   19.80
  -2  -2  -7 1542.45   70.29
  -2  -2  -7 1527.85   67.29
  -2  -2  -7 1599.64   79.99
  -2  -2  -7 1680.23   80.89
  -2  -2  -6  943.71   46.80
  -2  -2  -6 1022.30   58.39
  -2  -2  -6 1029.30   55.69
  -2  -2  -5  266.87   20.90
  -2  -2  -5  244.88   22.80
  -2  -2  -5  283.77   27.80
  -2  -2  -4  151.58   13.40
  -2  -2  -4  150.28   14.10
  -2  -2  -4  138.19   18.10
  -2  -2  -4  139.29   16.00
  -2  -2  -3  624.34   30.50
  -2  -2  -3  559.04   22.70
  -2  -2  -3  556.54   34.10
  -2  -2  -3  566.84   16.70
  -2  -2  -3  568.34   30.50
  -2  -2  -2 1182.78   41.00
  -2  -2  -2 1266.77   32.40
  -2  -2  -2 1182.38   41.80
  -2  -2  -1    0.60    1.70
  -2  -2  -1    0.90    3.40
  -2  -2  -1    5.90    2.60
  -2  -2  -1    4.80    2.40
  -2  -2   0  198.08   25.40
  -2  -2   0  167.48   18.70
  -2  -2   0  204.48   11.00
  -2  -2   1  226.48   30.50
  -2  -2   1  185.98   23.80
  -2  -2   2  345.87   16.60
  -2  -2   2  409.66   27.90
  -2  -2   2  397.26   39.80
  -2  -2   2  367.26   42.60
  -2  -2   3   19.70    4.80
  -2  -2   3   40.20    9.90
  -2  -2   3   34.00   12.30
  -2  -2   3   10.60    9.40
  -2  -2   4   10.70    4.40
  -2  -2   4    9.30    7.70
  -2  -2   4   10.40    8.20
  -2  -2   4    4.50    4.10
  -2  -2   5  123.89   15.00
  -2  -2   5  127.69   28.80
  -2  -2   5  125.59   29.50
  -2  -2   5  143.69   21.40
  -2  -2   5  128.79   17.20
  -2  -2   6  340.77   27.80
  -2  -2   6  346.07   50.89
  -2  -2   6  313.07   48.50
  -2  -2   6  422.86   39.60
  -2  -2   6  375.26   32.60
  -2  -2   7   86.09   15.30
  -2  -2   7   86.99   27.80
  -2  -2   7   86.69   19.50
  -2  -2   7   93.59   17.50
  -2  -2   8    0.30    5.50
  -2  -2   8  -12.10    8.50
  -2  -2   8   -1.00    6.90
  -2  -2   9   11.00    8.40
  -2  -2   9   10.30   10.00
  -2  -2   9   20.30   10.60
  -2  -2  10    0.10   11.50
  -2  -2  10    7.80    7.90
  -2  -2  10    0.70    5.80
  -2  -2  11    3.00   14.40
  -2  -2  11    6.90    8.70
  -2  -2  11   11.00    8.20
  -2  -2  12   -0.10   12.30
  -2  -1 -15   17.60   11.90
  -2  -1 -14   24.90   13.20
  -2  -1 -14    4.00   11.20
  -2  -1 -13   -2.30    5.00
  -2  -1 -13    2.10    5.80
  -2  -1 -12   32.90   11.90
  -2  -1 -12   64.49   22.00
  -2  -1 -11  168.28   25.90
  -2  -1 -11  194.28   36.00
  -2  -1 -10  126.59   21.80
  -2  -1 -10  108.29   26.70
  -2  -1  -9  219.58   28.10
  -2  -1  -9  227.98   29.10
  -2  -1  -9  206.18   32.80
  -2  -1  -8  140.19   21.30
  -2  -1  -8  158.18   26.90
  -2  -1  -7    2.10    3.80
  -2  -1  -6  815.22   45.30
  -2  -1  -6  812.32   51.59
  -2  -1  -5  388.16   28.20
  -2  -1  -5  331.97   29.60
  -2  -1  -5  366.26   29.80
  -2  -1  -4  846.12   43.70
  -2  -1  -4  830.32   38.20
  -2  -1  -3  695.73   35.50
  -2  -1  -3  697.43   25.40
  -2  -1  -3  720.83   26.60
  -2  -1  -2 1023.60   36.30
  -2  -1  -2 1062.59   41.70
  -2  -1  -2 1079.79   31.00
  -2  -1  -2 1023.00   27.00
  -2  -1  -1   67.39    7.60
  -2  -1  -1   72.89    7.30
  -2  -1  -1   90.09   11.60
  -2  -1   0   21.20    4.90
  -2  -1   0   14.10    5.40
  -2  -1   0   23.40    5.20
  -2  -1   1   30.40   10.60
  -2  -1   1   36.60    8.90
  -2  -1   1   46.40    6.80
  -2  -1   2 1719.63   77.99
  -2  -1   2 1897.71   86.59
  -2  -1   2 1831.42   55.89
  -2  -1   2 1745.93   43.90
  -2  -1   3 3059.59  119.69
  -2  -1   3 3171.48  125.69
  -2  -1   3 2981.00   84.09
  -2  -1   3 3022.20   76.29
  -2  -1   4  390.06   27.30
  -2  -1   4  424.16   45.50
  -2  -1   4  449.56   47.10
  -2  -1   4  468.95   34.50
  -2  -1   4  437.56   26.60
  -2  -1   5   40.70    9.50
  -2  -1   5   48.40   16.70
  -2  -1   5   29.00   14.80
  -2  -1   5   52.69   12.50
  -2  -1   5   38.20    9.20
  -2  -1   6   -3.70   11.60
  -2  -1   6    8.90    6.60
  -2  -1   6   -7.60   11.30
  -2  -1   6    3.50    4.50
  -2  -1   6    0.70    4.50
  -2  -1   7  176.98   24.70
  -2  -1   7  108.09   28.20
  -2  -1   7  174.98   26.60
  -2  -1   7  173.48   23.00
  -2  -1   8   88.09   18.60
  -2  -1   8   73.29   24.40
  -2  -1   8  123.99   23.80
  -2  -1   8  118.69   20.80
  -2  -1   9    1.30    6.30
  -2  -1   9   12.30    9.40
  -2  -1   9   -1.20    5.40
  -2  -1  10   -5.30   13.40
  -2  -1  10    6.60   10.00
  -2  -1  10   -3.00    5.50
  -2  -1  11   18.90   19.70
  -2  -1  11    6.60    7.90
  -2  -1  11    6.30    5.50
  -2  -1  12   14.80    9.20
  -2  -1  12  -24.40   18.70
  -2   0 -14   47.30   29.20
  -2   0 -14   21.70   11.90
  -2   0 -13   24.40   15.00
  -2   0 -13   23.00   11.00
  -2   0 -12   41.90   19.60
  -2   0 -12   37.80   13.70
  -2   0 -11   61.09   22.10
  -2   0 -11   67.29   16.90
  -2   0 -10    1.60    7.90
  -2   0 -10    1.70    4.20
  -2   0  -9   51.19   16.50
  -2   0  -9   37.30   10.80
  -2   0  -8   95.49   22.40
  -2   0  -8   91.49   16.50
  -2   0  -8   87.19   17.00
  -2   0  -7 1337.67   61.59
  -2   0  -7 1388.16   65.49
  -2   0  -6 3309.57  103.19
  -2   0  -6 3401.36  122.29
  -2   0  -5 1079.09   48.70
  -2   0  -5 1079.29   57.09
  -2   0  -5 1141.79   49.60
  -2   0  -4   51.39   10.60
  -2   0  -4   52.39    9.60
  -2   0  -4   53.19    8.70
  -2   0  -3   28.60    6.60
  -2   0  -3   35.10    7.00
  -2   0  -3   26.70    6.90
  -2   0  -3   29.10    5.50
  -2   0  -2 5215.78  118.39
  -2   0  -2 5396.96  112.59
  -2   0  -2 5366.16  112.89
  -2   0  -1 2387.36   59.29
  -2   0  -1 2303.87   55.09
  -2   0  -1 2263.07   51.39
  -2   0   0 1646.84   51.69
  -2   0   0 1685.73   49.20
  -2   0   0 1589.54   44.50
  -2   0   0 1685.73   41.10
  -2   0   1   86.89    8.80
  -2   0   1   92.29   11.40
  -2   0   1   67.39   14.20
  -2   0   1   94.99   10.30
  -2   0   2  110.89   18.30
  -2   0   2  133.59   17.30
  -2   0   2  146.29   15.40
  -2   0   2  139.19    8.20
  -2   0   3  395.46   34.50
  -2   0   3  298.27   33.00
  -2   0   3  335.17   25.40
  -2   0   3  354.36   17.90
  -2   0   4 1270.87   73.99
  -2   0   4 1349.36   76.09
  -2   0   4 1376.56   59.49
  -2   0   4 1324.47   46.80
  -2   0   5 1182.28   59.69
  -2   0   5 1197.38   77.19
  -2   0   5 1336.47   80.49
  -2   0   5 1239.78   60.59
  -2   0   5 1170.08   49.60
  -2   0   6  851.51   54.39
  -2   0   6  753.22   67.89
  -2   0   6  825.82   69.29
  -2   0   6  939.61   56.79
  -2   0   6  880.51   47.30
  -2   0   7  589.84   47.80
  -2   0   7  597.24   63.09
  -2   0   7  514.25   57.49
  -2   0   7  607.24   48.00
  -2   0   7  618.94   43.00
  -2   0   8   36.20   13.00
  -2   0   8   41.70   17.30
  -2   0   8   52.49   15.80
  -2   0   8   52.69   13.40
  -2   0   9    0.40   10.90
  -2   0   9   15.80    8.50
  -2   0   9   28.80   12.90
  -2   0   9   19.60    8.80
  -2   0  10    5.50    9.20
  -2   0  10   -3.60   10.10
  -2   0  10   15.90   11.10
  -2   0  10   -8.80    6.90
  -2   0  11   50.09   25.40
  -2   0  11   60.09   20.30
  -2   0  11   50.79   16.20
  -2   0  12   50.09   28.90
  -2   0  12   75.09   24.20
  -2   0  12   79.49   22.10
  -2   1 -13   12.60    8.70
  -2   1 -13    4.50   12.30
  -2   1 -12    5.00    5.20
  -2   1 -12   -4.50   10.60
  -2   1 -11    6.80    6.30
  -2   1 -11   27.30   15.90
  -2   1 -10  172.18   24.70
  -2   1 -10  197.38   36.80
  -2   1  -9  192.48   24.80
  -2   1  -9  176.98   33.60
  -2   1  -8  191.08   23.60
  -2   1  -8  181.88   26.20
  -2   1  -8  169.68   31.20
  -2   1  -7  178.68   21.70
  -2   1  -7  202.78   25.10
  -2   1  -7  179.48   29.50
  -2   1  -6  301.37   26.30
  -2   1  -6  317.87   29.30
  -2   1  -5 1141.69   50.09
  -2   1  -5 1174.78   65.19
  -2   1  -4 1421.46   53.39
  -2   1  -4 1416.56   54.99
  -2   1  -4 1465.55   66.19
  -2   1  -3  514.85   28.00
  -2   1  -3  480.05   27.10
  -2   1  -3  554.24   34.70
  -2   1  -2  726.43   32.30
  -2   1  -2  702.63   27.40
  -2   1  -2  750.32   32.00
  -2   1  -1  287.97   17.80
  -2   1  -1  275.57   17.60
  -2   1  -1  277.97   17.10
  -2   1   0   65.49   10.20
  -2   1   0   55.19    7.10
  -2   1   0   56.99    6.10
  -2   1   0   59.09    8.00
  -2   1   1  930.71   41.80
  -2   1   1  902.41   33.70
  -2   1   1  975.00   35.30
  -2   1   2  628.34   35.60
  -2   1   2  628.44   30.40
  -2   1   2  624.64   31.10
  -2   1   2  618.04   30.40
  -2   1   2  651.33   24.00
  -2   1   3 2149.78   69.39
  -2   1   3 1943.31   73.59
  -2   1   3 1822.92   84.39
  -2   1   3 2011.00   67.69
  -2   1   3 2137.99   56.39
  -2   1   4  785.12   57.09
  -2   1   4  869.11   49.40
  -2   1   4  850.61   34.90
  -2   1   5  194.18   24.30
  -2   1   5  165.58   16.30
  -2   1   6   12.80    9.20
  -2   1   6   28.40   10.00
  -2   1   6    7.00    9.40
  -2   1   6   28.00    8.90
  -2   1   6   18.50    6.10
  -2   1   7  346.57   38.10
  -2   1   7  299.77   42.30
  -2   1   7  268.47   39.40
  -2   1   7  356.26   35.90
  -2   1   7  320.27   29.30
  -2   1   8  460.35   47.30
  -2   1   8  435.56   54.29
  -2   1   8  533.65   47.50
  -2   1   8  495.35   39.90
  -2   1   9   73.99   20.90
  -2   1   9   68.99   22.50
  -2   1   9   84.29   20.20
  -2   1   9   63.19   15.10
  -2   1  10    3.00    6.40
  -2   1  10   -0.30    4.70
  -2   1  10    7.40    6.10
  -2   1  11    9.10   13.30
  -2   1  11   18.70   11.60
  -2   1  11   -0.60    4.20
  -2   1  12   -9.60   10.20
  -2   1  12    7.90    9.50
  -2   2 -13    8.50   15.60
  -2   2 -12    9.60   13.00
  -2   2 -12    7.50    6.10
  -2   2 -11   10.20    7.00
  -2   2 -11    2.90    4.50
  -2   2 -10    0.70    8.60
  -2   2 -10  -12.70    7.00
  -2   2  -9   -3.40    8.70
  -2   2  -9   12.30    7.60
  -2   2  -8    5.20    7.70
  -2   2  -8   -2.50    5.30
  -2   2  -7   17.70   10.00
  -2   2  -7   26.20    8.50
  -2   2  -7   29.80    9.80
  -2   2  -6  585.84   37.50
  -2   2  -6  634.14   44.40
  -2   2  -6  595.14   53.19
  -2   2  -5  151.88   17.50
  -2   2  -5  159.18   20.30
  -2   2  -4  252.67   29.00
  -2   2  -4  276.27   22.20
  -2   2  -3    0.10    2.70
  -2   2  -3    0.00    3.20
  -2   2  -2  118.59   12.70
  -2   2  -2  124.29   14.10
  -2   2  -2  118.39   14.10
  -2   2  -1 1364.16   52.09
  -2   2  -1 1368.06   49.99
  -2   2  -1 1447.56   51.69
  -2   2   0  159.08   16.80
  -2   2   0  160.78   15.00
  -2   2   0  175.28   15.70
  -2   2   1  191.78   19.90
  -2   2   1  234.48   18.80
  -2   2   1  237.78   18.70
  -2   2   2  584.64   36.90
  -2   2   2  626.04   32.60
  -2   2   2  678.63   34.00
  -2   2   3   65.89   11.30
  -2   2   3   79.99   14.10
  -2   2   3   72.29   11.20
  -2   2   3   72.09    9.50
  -2   2   4  828.92   51.19
  -2   2   4  885.11   46.30
  -2   2   4  858.51   37.80
  -2   2   5  151.48   22.60
  -2   2   5  175.58   17.40
  -2   2   6  142.59   23.60
  -2   2   6  146.69   21.40
  -2   2   6  162.68   18.30
  -2   2   7  231.48   32.00
  -2   2   7  213.78   27.10
  -2   2   7  213.88   23.50
  -2   2   8   39.60   15.30
  -2   2   8   48.10   15.30
  -2   2   8   29.30    9.80
  -2   2   9   -6.10    6.60
  -2   2   9    0.30    7.80
  -2   2   9   -5.50    6.80
  -2   2  10    1.70    8.50
  -2   2  10    0.30    4.50
  -2   2  11   11.20    8.10
  -2   2  11   16.50    8.70
  -2   2  12   89.79   26.00
  -2   2  12   44.00   15.70
  -2   2  13   54.29   24.70
  -2   2  13   50.19   17.90
  -2   3 -12  -20.70   16.00
  -2   3 -11  -32.80   18.70
  -2   3 -11    3.00    4.90
  -2   3 -10   70.19   21.80
  -2   3 -10   69.89   15.30
  -2   3  -9   53.59   20.90
  -2   3  -9   51.19   13.30
  -2   3  -8  233.28   39.80
  -2   3  -8  228.68   25.70
  -2   3  -7   83.59   22.10
  -2   3  -7   87.59   15.00
  -2   3  -6   80.79   20.60
  -2   3  -6   81.19   13.70
  -2   3  -6   73.99   16.10
  -2   3  -5 1208.18   53.89
  -2   3  -5 1253.87   64.09
  -2   3  -5 1278.07   78.89
  -2   3  -4 1295.77   53.29
  -2   3  -4 1311.37   61.79
  -2   3  -4 1278.27   73.49
  -2   3  -3  248.88   20.60
  -2   3  -3  237.08   13.80
  -2   3  -2  332.07   14.00
  -2   3  -2  383.16   29.50
  -2   3  -1   67.89   11.50
  -2   3  -1   66.69   11.50
  -2   3  -1   64.59   10.90
  -2   3   0  353.96   27.40
  -2   3   0  354.06   25.80
  -2   3   1    0.00    2.90
  -2   3   1   -1.50    4.20
  -2   3   1    0.40    2.80
  -2   3   2   -0.70    3.60
  -2   3   2   -4.20    4.20
  -2   3   2   -1.90    2.50
  -2   3   3  457.95   37.30
  -2   3   3  502.85   30.90
  -2   3   3  468.65   28.40
  -2   3   3  529.35   33.60
  -2   3   4 1259.27   67.29
  -2   3   4 1259.27   52.89
  -2   3   4 1341.07   52.89
  -2   3   5   62.49   15.30
  -2   3   5   63.29   13.10
  -2   3   5   57.59   10.70
  -2   3   6    6.20    7.70
  -2   3   6    2.00    5.90
  -2   3   6    9.50    4.60
  -2   3   7   72.89   17.70
  -2   3   7   77.29   14.10
  -2   3   8  380.96   44.70
  -2   3   8  402.26   35.40
  -2   3   9  227.88   36.30
  -2   3   9  220.58   33.00
  -2   3   9  193.28   26.40
  -2   3  10    5.30    5.50
  -2   3  10   -0.20    5.20
  -2   3  11   -3.20   10.90
  -2   3  11    1.20    4.30
  -2   3  12    1.30    6.10
  -2   3  12    1.30    6.50
  -2   3  13    2.80    7.90
  -2   3  13   12.40    9.70
  -2   4 -11   -7.80   10.80
  -2   4 -10    1.90    5.80
  -2   4 -10    2.70    9.20
  -2   4  -9   54.49   13.20
  -2   4  -9   69.99   25.10
  -2   4  -8   87.39   16.70
  -2   4  -8   99.19   27.50
  -2   4  -7  142.09   19.30
  -2   4  -7  135.49   30.60
  -2   4  -6  637.54   40.80
  -2   4  -6  692.93   65.79
  -2   4  -5  264.97   24.30
  -2   4  -5  279.87   38.60
  -2   4  -5  282.37   31.20
  -2   4  -4    0.40    2.70
  -2   4  -4    0.00    6.60
  -2   4  -4    1.90    1.70
  -2   4  -4    1.60    3.20
  -2   4  -3  222.08   15.00
  -2   4  -3  213.28   25.70
  -2   4  -2  383.26   18.60
  -2   4  -1 1409.26   60.39
  -2   4   0 1834.52   72.69
  -2   4   0 1876.51   71.49
  -2   4   1  737.93   45.40
  -2   4   1  758.32   39.60
  -2   4   1  775.82   43.20
  -2   4   2  265.27   28.10
  -2   4   2  296.87   24.20
  -2   4   2  301.37   26.30
  -2   4   3   10.20    6.60
  -2   4   3   11.20    5.00
  -2   4   4 1813.82   67.29
  -2   4   4 1755.32   67.39
  -2   4   5 1899.91   79.49
  -2   4   5 1686.43   87.39
  -2   4   5 1773.32   68.09
  -2   4   5 1799.72   70.39
  -2   4   6 1134.59   72.89
  -2   4   6 1171.58   64.39
  -2   4   6 1149.08   56.39
  -2   4   7  159.78   29.00
  -2   4   7  195.78   27.50
  -2   4   7  153.28   20.60
  -2   4   8   12.60    6.80
  -2   4   8    2.20    4.80
  -2   4   9   69.99   15.90
  -2   4  10   89.29   23.10
  -2   4  10   52.69   16.10
  -2   4  11    9.80   10.40
  -2   4  11    7.30    6.90
  -2   4  12   51.99   21.30
  -2   4  12   24.50   12.70
  -2   4  13   62.49   24.20
  -2   4  13   38.80   16.40
  -2   4  14   20.50   14.30
  -2   5 -10   45.00   22.30
  -2   5  -9   83.89   27.60
  -2   5  -9   57.99   13.90
  -2   5  -8  101.99   31.40
  -2   5  -8  104.99   17.30
  -2   5  -7   71.89   22.90
  -2   5  -7   50.19   11.90
  -2   5  -6   13.90   11.90
  -2   5  -5  385.26   41.70
  -2   5  -4  948.41   41.10
  -2   5  -4 1000.60   61.49
  -2   5  -4 1024.60   65.39
  -2   5  -3 1084.39   60.59
  -2   5  -3  959.00   38.60
  -2   5  -3 1162.68   65.59
  -2   5  -2  514.55   39.50
  -2   5  -2  477.75   24.70
  -2   5  -2  529.85   41.80
  -2   5  -1   64.89   12.80
  -2   5  -1   55.09    8.20
  -2   5   0  241.78   25.30
  -2   5   0  219.58   13.80
  -2   5   1  190.08   23.70
  -2   5   1  233.58   22.60
  -2   5   2  183.38   24.40
  -2   5   2  213.68   21.40
  -2   5   3  578.04   46.30
  -2   5   3  574.14   36.30
  -2   5   4  914.71   62.59
  -2   5   4  999.80   49.50
  -2   5   4  946.21   51.09
  -2   5   5   13.20    7.60
  -2   5   5   22.90   10.40
  -2   5   5   22.60    7.90
  -2   5   5    9.50    5.80
  -2   5   6   11.80    6.70
  -2   5   6   -5.30    7.60
  -2   5   6   -2.40    5.90
  -2   5   6    1.80    4.00
  -2   5   7   70.79   18.90
  -2   5   7  104.69   20.40
  -2   5   7   69.39   14.80
  -2   5   8  484.25   45.90
  -2   5   8  375.96   36.10
  -2   5   9  498.85   49.90
  -2   5   9  379.46   38.00
  -2   5  10   70.89   17.10
  -2   5  11   -0.10    5.70
  -2   5  12    9.10   10.70
  -2   5  12    3.70    6.40
  -2   5  13   19.20   13.40
  -2   5  13   11.60   10.70
  -2   5  14   33.00   17.60
  -2   6  -9   -8.20   11.30
  -2   6  -8   -6.00    8.80
  -2   6  -7   38.30   16.30
  -2   6  -6   73.39   21.50
  -2   6  -5  113.59   23.90
  -2   6  -5   80.89   12.70
  -2   6  -4   -0.50    5.80
  -2   6  -4    8.00    3.60
  -2   6  -3   33.00   12.50
  -2   6  -3   24.20    6.40
  -2   6  -3   25.20    9.80
  -2   6  -2   37.90   12.10
  -2   6  -2   32.60    7.00
  -2   6  -2   29.90   10.10
  -2   6  -1  135.79   21.90
  -2   6  -1  112.09   18.00
  -2   6  -1  115.29   13.30
  -2   6  -1  125.59   19.80
  -2   6   0  466.85   38.40
  -2   6   0  396.66   23.10
  -2   6   0  492.95   39.40
  -2   6   0  463.15   39.30
  -2   6   1  219.98   26.90
  -2   6   1  204.28   16.50
  -2   6   1  230.38   24.20
  -2   6   1  211.28   25.00
  -2   6   1  173.78   24.10
  -2   6   2  491.25   42.80
  -2   6   2  503.65   36.10
  -2   6   2  519.55   41.20
  -2   6   2  490.35   38.60
  -2   6   3  591.34   49.80
  -2   6   3  634.64   40.10
  -2   6   3  642.14   44.60
  -2   6   3  630.44   45.80
  -2   6   4   -0.60    5.10
  -2   6   4   -6.00    7.70
  -2   6   4   -1.10    3.20
  -2   6   5  774.12   62.89
  -2   6   5  844.52   48.00
  -2   6   5  827.52   51.79
  -2   6   5  843.62   55.39
  -2   6   6  511.15   53.09
  -2   6   6  670.33   50.29
  -2   6   6  581.14   39.90
  -2   6   6  526.65   42.30
  -2   6   7  221.58   30.20
  -2   6   7  173.68   32.60
  -2   6   7  226.28   24.70
  -2   6   7  180.78   24.90
  -2   6   8   98.39   21.80
  -2   6   8   77.59   17.10
  -2   6   9   17.70   11.00
  -2   6   9    5.50    5.20
  -2   6  10  112.19   25.10
  -2   6  10  123.19   23.10
  -2   6  11    4.70    4.90
  -2   6  12   14.90    8.90
  -2   6  13   15.80   13.20
  -2   6  13   34.40   16.00
  -2   6  14    6.20    9.90
  -2   7  -8    8.20    9.50
  -2   7  -7   33.60   16.60
  -2   7  -6   24.10   11.40
  -2   7  -5   26.90   11.80
  -2   7  -5   28.50    8.10
  -2   7  -4  198.18   20.60
  -2   7  -4  209.88   33.20
  -2   7  -3  207.38   20.10
  -2   7  -3  196.68   30.90
  -2   7  -2   63.29   17.00
  -2   7  -2   54.09   10.20
  -2   7  -1   29.00    8.90
  -2   7  -1   41.10   13.80
  -2   7  -1   43.90    8.90
  -2   7  -1   30.90    7.10
  -2   7  -1   35.10   12.10
  -2   7   0   15.30    7.40
  -2   7   0   30.40   11.60
  -2   7   0   29.50    7.10
  -2   7   0   44.70   12.80
  -2   7   1  320.87   34.30
  -2   7   1  272.07   21.30
  -2   7   1  295.27   33.90
  -2   7   1  316.97   33.30
  -2   7   2  215.88   29.70
  -2   7   2  262.87   27.40
  -2   7   2  212.98   27.80
  -2   7   2  226.68   27.80
  -2   7   3  157.28   26.60
  -2   7   3  151.28   24.10
  -2   7   3  142.29   19.70
  -2   7   3  143.99   21.90
  -2   7   4  223.08   33.90
  -2   7   4  215.28   24.20
  -2   7   4  228.98   27.90
  -2   7   4  195.28   27.10
  -2   7   5   33.50   12.30
  -2   7   5   40.80   15.10
  -2   7   5   47.40   12.40
  -2   7   6   55.49   14.60
  -2   7   6   45.30   17.00
  -2   7   6   63.79   13.80
  -2   7   6   58.69   15.70
  -2   7   7  126.59   23.80
  -2   7   7   80.39   14.60
  -2   7   7   93.99   19.50
  -2   7   8   45.10   15.60
  -2   7   8   43.70   13.20
  -2   7   9  112.49   24.70
  -2   7   9  116.99   22.40
  -2   7  10   42.50   15.90
  -2   7  10   28.20   12.60
  -2   7  11   -4.00    6.10
  -2   7  11    3.80    5.30
  -2   7  12   -4.90    6.70
  -2   7  13  -15.70   10.90
  -2   7  14   18.30   14.10
  -2   8  -7   63.29   22.60
  -2   8  -6   75.39   22.50
  -2   8  -5   97.89   24.00
  -2   8  -4   -7.20   10.40
  -2   8  -4   -2.90    3.40
  -2   8  -3  166.48   30.30
  -2   8  -3  152.38   19.00
  -2   8  -2  385.86   30.20
  -2   8  -2  420.26   47.50
  -2   8  -1  246.48   23.90
  -2   8  -1  235.28   22.30
  -2   8  -1  250.67   34.90
  -2   8   0  171.88   25.40
  -2   8   0  202.18   21.80
  -2   8   0  195.98   19.60
  -2   8   0  218.48   31.90
  -2   8   1   22.00   11.40
  -2   8   1    9.10    4.80
  -2   8   1   29.80    7.30
  -2   8   2    7.50    4.80
  -2   8   2   10.80    9.20
  -2   8   2   11.40    6.90
  -2   8   2    8.30    6.10
  -2   8   3   11.40    7.20
  -2   8   3    8.40    7.00
  -2   8   3   -1.20    4.40
  -2   8   3   -2.60    3.70
  -2   8   4   21.90   11.90
  -2   8   4   17.50    7.40
  -2   8   4   14.90    8.20
  -2   8   4   18.70    8.10
  -2   8   5  513.15   39.80
  -2   8   5  505.25   47.10
  -2   8   6  337.87   32.40
  -2   8   6  339.97   39.00
  -2   8   7  211.78   25.80
  -2   8   7  191.28   31.20
  -2   8   7  198.78   29.50
  -2   8   8    1.60    6.50
  -2   8   8    7.60    5.10
  -2   8   8   13.10   10.10
  -2   8   9   12.50    8.70
  -2   8   9   11.30    7.80
  -2   8  10  176.88   32.60
  -2   8  10  136.39   25.70
  -2   8  11   96.59   26.30
  -2   8  11   64.19   18.60
  -2   8  12   36.30   17.30
  -2   8  12    2.40    7.70
  -2   8  13    9.40   10.50
  -2   8  14    6.00    8.90
  -2   9  -5   34.10   17.00
  -2   9  -4  168.18   34.00
  -2   9  -3  174.58   33.20
  -2   9  -2  123.59   27.00
  -2   9  -2  105.29   16.80
  -2   9  -1   54.19   17.30
  -2   9  -1   42.70   10.90
  -2   9  -1   50.79   10.80
  -2   9   0    2.90    6.10
  -2   9   0   11.70    7.60
  -2   9   0    6.70    4.50
  -2   9   0    1.60    4.30
  -2   9   1  176.48   28.10
  -2   9   1  199.38   21.10
  -2   9   1  199.98   32.10
  -2   9   2  330.37   40.30
  -2   9   2  349.37   36.00
  -2   9   2  379.56   43.50
  -2   9   3  397.26   46.70
  -2   9   3  449.76   40.60
  -2   9   3  444.76   47.50
  -2   9   4  558.94   45.00
  -2   9   4  616.84   54.89
  -2   9   5  230.88   27.80
  -2   9   5  195.98   31.80
  -2   9   6   25.40   10.70
  -2   9   6   32.20   11.10
  -2   9   7  167.58   23.70
  -2   9   7  180.58   30.70
  -2   9   8  140.49   28.50
  -2   9   8  182.38   24.70
  -2   9   8  145.19   26.60
  -2   9   9  183.78   32.80
  -2   9   9  189.18   25.10
  -2   9   9  128.19   25.50
  -2   9  10   78.59   22.70
  -2   9  10   54.19   18.00
  -2   9  11   -0.60    7.40
  -2   9  11   -0.40    6.30
  -2   9  12   -9.90    9.90
  -2   9  12    0.60    5.60
  -2   9  13    5.40    8.60
  -2   9  14    3.50   12.00
  -2  10  -4    5.90    8.90
  -2  10  -3    2.00    9.00
  -2  10  -2   55.69   19.20
  -2  10  -1   66.59   22.20
  -2  10   0   88.89   19.70
  -2  10   0   77.79   15.40
  -2  10   0  106.19   16.60
  -2  10   1   84.39   19.50
  -2  10   1   92.99   23.20
  -2  10   1   95.39   17.80
  -2  10   1  112.99   16.70
  -2  10   2   -4.30    8.60
  -2  10   2    5.50    5.10
  -2  10   3    2.80    8.40
  -2  10   3   -0.90    5.30
  -2  10   4   10.30    8.50
  -2  10   4    1.90    6.00
  -2  10   5  115.59   24.80
  -2  10   5  118.89   21.10
  -2  10   6  379.66   37.20
  -2  10   6  431.66   48.10
  -2  10   7  239.48   29.60
  -2  10   7  225.38   35.50
  -2  10   8   71.99   20.60
  -2  10   8   58.39   14.50
  -2  10   9    0.70    7.30
  -2  10   9   13.70    7.60
  -2  10  10   33.10   16.00
  -2  10  10    5.20    7.50
  -2  10  11   83.79   25.00
  -2  10  11   42.00   17.00
  -2  10  12   23.60   13.90
  -2  10  12   17.80   14.60
  -2  10  13    3.00    8.30
  -2  11  -2    8.20   11.80
  -2  11  -1    5.20    7.80
  -2  11   0    8.80   10.30
  -2  11   1   -5.10   11.60
  -2  11   2   15.50   12.40
  -2  11   2   11.50    8.70
  -2  11   3   58.59   19.00
  -2  11   3   47.90   14.20
  -2  11   4   46.20   17.10
  -2  11   4   42.60   14.20
  -2  11   5   52.29   18.10
  -2  11   5   65.09   17.90
  -2  11   6    3.00    5.60
  -2  11   6    0.90    5.40
  -2  11   7   58.19   19.30
  -2  11   7   42.20   13.70
  -2  11   8   69.29   22.30
  -2  11   8   68.99   16.50
  -2  11   9   36.50   16.20
  -2  11   9   46.40   13.90
  -2  11  10   21.20   14.00
  -2  11  10   36.10   12.10
  -2  11  11  -14.00   14.50
  -2  11  12   -3.90    8.50
  -2  12   0   38.80   18.50
  -2  12   1   23.80   13.90
  -2  12   1   15.30    8.60
  -2  12   2   -1.50    7.40
  -2  12   2    1.80    8.20
  -2  12   3   17.40   14.20
  -2  12   3   16.30    9.80
  -2  12   4   38.10   16.90
  -2  12   4   24.90   11.20
  -2  12   5   51.69   19.60
  -2  12   5   66.09   17.80
  -2  12   6  115.09   27.20
  -2  12   6   97.89   20.80
  -2  12   7    5.30    9.70
  -2  12   7   24.30   10.80
  -2  12   8   -2.70    7.60
  -2  12   8   11.70    7.60
  -2  12   9  -14.70   12.20
  -2  12   9   -6.20    6.10
  -2  12  10   -0.20   10.50
  -2  13   1    7.40   10.60
  -2  13   2   60.29   19.90
  -2  13   3   63.09   23.80
  -2  13   3   73.89   21.20
  -2  13   4   28.00   15.90
  -2  13   4   28.60   12.70
  -2  13   5   21.50   14.90
  -2  13   5   43.20   16.70
  -2  13   6   -5.50   11.00
  -2  13   6    0.60    5.90
  -2  13   7   30.70   16.30
  -2  13   7   61.39   17.80
  -2  13   8   97.39   21.00
  -2  14   3   -7.80    9.20
  -2  14   4   16.50   10.50
  -2  14   5   69.19   20.60
  -2  14   6   82.99   21.80
  -2  14   7   78.49   20.10
  -1 -15  -9    0.20   23.00
  -1 -15  -8    0.20   22.20
  -1 -15  -7    5.50   10.40
  -1 -15  -6    6.20    9.30
  -1 -15  -5   -4.80    7.60
  -1 -14 -11   37.10   17.00
  -1 -14 -10  102.09   25.40
  -1 -14  -9   45.80   29.80
  -1 -14  -9   72.39   21.80
  -1 -14  -8   17.50   22.80
  -1 -14  -8   18.10   11.90
  -1 -14  -7   -0.20   15.20
  -1 -14  -7  -13.50    9.60
  -1 -14  -6    0.20   14.70
  -1 -14  -6   -2.60    5.70
  -1 -14  -5   26.00   33.80
  -1 -14  -5   20.50   13.00
  -1 -14  -4   53.29   49.30
  -1 -14  -4   46.20   17.60
  -1 -14  -3   25.70   13.80
  -1 -13 -13    3.50   13.00
  -1 -13 -13   22.30   14.70
  -1 -13 -12   62.49   20.90
  -1 -13 -11   38.50   15.80
  -1 -13 -10    3.50   16.00
  -1 -13 -10    5.00    6.90
  -1 -13  -9   20.90   21.60
  -1 -13  -9   16.60   10.00
  -1 -13  -8   74.69   33.20
  -1 -13  -8   96.39   23.10
  -1 -13  -7  108.19   41.40
  -1 -13  -7  133.59   26.40
  -1 -13  -6  108.99   45.00
  -1 -13  -6  167.98   29.20
  -1 -13  -5  119.39   47.10
  -1 -13  -5   65.39   19.50
  -1 -13  -4   20.40   24.50
  -1 -13  -4   20.10   10.50
  -1 -13  -3  -39.20   31.40
  -1 -13  -3   -0.90    4.50
  -1 -13  -2  -16.60   25.10
  -1 -13  -2   52.39   17.70
  -1 -12 -14   12.00   14.10
  -1 -12 -14   31.00   16.00
  -1 -12 -13    1.60    6.70
  -1 -12 -13    0.30    7.60
  -1 -12 -12   -0.40    6.50
  -1 -12 -12    0.10    5.90
  -1 -12 -11    3.50    6.90
  -1 -12 -10  120.09   25.40
  -1 -12  -9   90.79   33.20
  -1 -12  -9  112.39   23.70
  -1 -12  -8   24.40   15.00
  -1 -12  -8   38.40   13.80
  -1 -12  -7   19.70   17.80
  -1 -12  -7    2.00    4.10
  -1 -12  -6  -17.50   18.20
  -1 -12  -6    4.50    4.60
  -1 -12  -5  -19.40   19.80
  -1 -12  -5    1.30    5.50
  -1 -12  -4   24.20   21.20
  -1 -12  -4   52.99   14.90
  -1 -12  -3   22.20   15.70
  -1 -12  -3   43.90   14.60
  -1 -12  -2  102.29   48.90
  -1 -12  -2   87.89   20.80
  -1 -12  -1    7.10   24.50
  -1 -12  -1   38.40   13.90
  -1 -12   0  -11.60   21.10
  -1 -11 -15   -4.90   10.90
  -1 -11 -14   11.00   12.30
  -1 -11 -14   -8.00    8.60
  -1 -11 -13   22.60   16.00
  -1 -11 -13   19.50   10.20
  -1 -11 -12   21.80   14.30
  -1 -11 -12   23.00   11.80
  -1 -11 -11   10.30   10.60
  -1 -11 -10   16.80    9.10
  -1 -11  -9    3.80    5.20
  -1 -11  -8   58.19   16.00
  -1 -11  -7   27.10   20.00
  -1 -11  -7   65.49   16.30
  -1 -11  -6   50.19   25.00
  -1 -11  -6   36.40   12.20
  -1 -11  -5   78.79   32.20
  -1 -11  -5   83.19   18.70
  -1 -11  -4   47.70   27.80
  -1 -11  -4   10.90    6.60
  -1 -11  -3   -4.30   12.10
  -1 -11  -3    1.10    5.50
  -1 -11  -2   27.50   28.30
  -1 -11  -2   28.40   11.60
  -1 -11  -1   98.99   43.90
  -1 -11  -1   49.99   15.50
  -1 -11   0   79.79   33.50
  -1 -11   1  -17.80   25.00
  -1 -11   2  -89.89   47.70
  -1 -10 -15    3.20   18.80
  -1 -10 -15    6.30    8.20
  -1 -10 -14   27.70   18.40
  -1 -10 -14   42.90   17.80
  -1 -10 -13  -16.00   13.40
  -1 -10 -13    9.50    9.40
  -1 -10 -12  -10.30    9.90
  -1 -10 -12    2.60    6.80
  -1 -10 -11   88.09   24.70
  -1 -10 -11  108.39   23.10
  -1 -10 -10  240.08   33.80
  -1 -10  -9  341.07   38.40
  -1 -10  -8   83.39   19.10
  -1 -10  -7   -0.30    5.50
  -1 -10  -6   43.80   13.90
  -1 -10  -6   27.40    9.40
  -1 -10  -5   39.10   20.30
  -1 -10  -5   70.29   22.40
  -1 -10  -5   46.40   13.10
  -1 -10  -4  141.39   40.10
  -1 -10  -4  136.59   22.30
  -1 -10  -3   65.99   28.60
  -1 -10  -3   59.19   14.80
  -1 -10  -2   23.30   22.10
  -1 -10  -2   25.30    9.50
  -1 -10  -1   15.00    4.70
  -1 -10  -1   12.00    8.10
  -1 -10   0  -39.30   28.80
  -1 -10   0    0.60    2.00
  -1 -10   1   80.49   42.50
  -1 -10   2   63.39   42.30
  -1 -10   3   38.30   38.00
  -1 -10   4   91.99   52.89
  -1  -9 -15  -25.50   18.20
  -1  -9 -15    9.00    8.80
  -1  -9 -14   30.90   19.20
  -1  -9 -14   30.60   15.30
  -1  -9 -13  126.19   31.30
  -1  -9 -13  174.08   31.00
  -1  -9 -12   81.59   24.70
  -1  -9 -12  102.29   23.30
  -1  -9 -11   36.30   15.70
  -1  -9 -11   40.50   14.10
  -1  -9 -10   13.60   10.10
  -1  -9 -10   -4.60    6.80
  -1  -9  -9  111.79   21.20
  -1  -9  -8  648.64   49.99
  -1  -9  -7  608.54   58.49
  -1  -9  -7  672.73   49.70
  -1  -9  -7  714.93   57.99
  -1  -9  -6  384.66   36.40
  -1  -9  -6  414.56   43.80
  -1  -9  -5  490.45   63.89
  -1  -9  -5  501.75   40.70
  -1  -9  -5  562.04   50.19
  -1  -9  -4  245.28   36.90
  -1  -9  -4  205.58   42.70
  -1  -9  -4  244.68   27.80
  -1  -9  -4  232.88   32.50
  -1  -9  -3    5.60    6.70
  -1  -9  -3  -16.60   15.30
  -1  -9  -3   -3.90    6.80
  -1  -9  -3   -2.80    6.00
  -1  -9  -3   -5.50    8.30
  -1  -9  -2  253.37   29.10
  -1  -9  -2  247.78   51.49
  -1  -9  -2  244.78   40.30
  -1  -9  -1  319.77   34.20
  -1  -9  -1  327.77   66.89
  -1  -9   0  436.36   22.70
  -1  -9   0  463.55   42.90
  -1  -9   1  179.18   55.39
  -1  -9   2   13.80   20.10
  -1  -9   3   69.59   45.40
  -1  -9   4   42.90   38.20
  -1  -9   5   50.59   36.00
  -1  -8 -16   10.60   20.30
  -1  -8 -15   25.80   24.80
  -1  -8 -14   32.50   23.00
  -1  -8 -13   78.29   26.40
  -1  -8 -12    5.50    6.60
  -1  -8 -12   10.70    8.40
  -1  -8 -11   10.60    7.50
  -1  -8 -11   19.90   12.20
  -1  -8 -11    0.30    5.20
  -1  -8 -10    8.10    6.20
  -1  -8 -10   36.20   16.80
  -1  -8 -10   24.10    9.10
  -1  -8  -9  386.76   38.50
  -1  -8  -8  223.18   35.40
  -1  -8  -8  278.37   35.50
  -1  -8  -8  270.07   30.70
  -1  -8  -7    8.60    7.20
  -1  -8  -7    6.00    6.30
  -1  -8  -7   11.50    8.90
  -1  -8  -7   10.60    6.10
  -1  -8  -6  113.49   23.30
  -1  -8  -6  153.78   24.60
  -1  -8  -6  121.69   21.70
  -1  -8  -6   99.89   17.40
  -1  -8  -5   80.59   17.50
  -1  -8  -5   87.19   18.70
  -1  -8  -5   91.29   16.50
  -1  -8  -4  411.66   56.99
  -1  -8  -4  299.07   28.70
  -1  -8  -4  340.97   34.30
  -1  -8  -4  357.86   37.40
  -1  -8  -3  710.03   76.79
  -1  -8  -3  660.53   57.49
  -1  -8  -3  573.04   40.70
  -1  -8  -3  639.24   49.10
  -1  -8  -3  614.44   45.90
  -1  -8  -2  242.88   36.00
  -1  -8  -2  226.48   44.10
  -1  -8  -2  211.58   24.50
  -1  -8  -2  246.18   30.10
  -1  -8  -2  236.88   27.80
  -1  -8  -1  146.29   29.70
  -1  -8  -1  141.59   38.90
  -1  -8  -1  156.88   21.70
  -1  -8  -1  188.98   25.60
  -1  -8   0   29.80   14.50
  -1  -8   0   11.30    3.20
  -1  -8   0   13.00    6.70
  -1  -8   0   10.60    6.90
  -1  -8   1   11.70   21.70
  -1  -8   1   32.50    3.80
  -1  -8   1   35.50   12.80
  -1  -8   2  179.28   49.50
  -1  -8   3  167.88   52.89
  -1  -8   4   15.90   19.20
  -1  -8   5   30.90   29.30
  -1  -8   6   26.70   28.80
  -1  -8   7    7.70   26.50
  -1  -7 -16   -2.90    9.90
  -1  -7 -15   12.30    9.90
  -1  -7 -14   27.10   16.80
  -1  -7 -13   82.09   27.80
  -1  -7 -12  205.88   39.60
  -1  -7 -11  167.48   20.70
  -1  -7 -11  190.38   35.40
  -1  -7 -11  172.58   17.50
  -1  -7 -10    1.30    3.40
  -1  -7 -10    3.60    6.30
  -1  -7 -10    0.40    1.40
  -1  -7  -9    3.60    7.30
  -1  -7  -9   -1.40    4.80
  -1  -7  -8  168.48   30.00
  -1  -7  -8  212.98   29.30
  -1  -7  -8  173.78   27.10
  -1  -7  -8  179.18   23.90
  -1  -7  -7  208.08   31.00
  -1  -7  -7  233.78   26.20
  -1  -7  -7  205.68   27.90
  -1  -7  -7  197.78   27.40
  -1  -7  -6   89.29   17.90
  -1  -7  -6   67.89   17.20
  -1  -7  -6   80.09   16.70
  -1  -7  -6   66.49   13.60
  -1  -7  -5   79.99   16.50
  -1  -7  -5   82.59   18.20
  -1  -7  -5   57.19   13.90
  -1  -7  -5   85.09   14.50
  -1  -7  -4  401.46   30.90
  -1  -7  -4  421.46   36.10
  -1  -7  -4  421.06   36.40
  -1  -7  -3   85.19   23.10
  -1  -7  -3   86.99   18.40
  -1  -7  -3   81.59   15.90
  -1  -7  -3   76.69   13.00
  -1  -7  -3   89.29   16.20
  -1  -7  -2    0.00    4.50
  -1  -7  -2   -4.10    9.60
  -1  -7  -2   -0.60    4.30
  -1  -7  -2    3.90    4.00
  -1  -7  -2    4.80    3.70
  -1  -7  -1  185.78   41.90
  -1  -7  -1  183.88   30.10
  -1  -7  -1  158.78   20.00
  -1  -7  -1  185.18   23.40
  -1  -7   0  368.56   19.30
  -1  -7   0  421.96   48.70
  -1  -7   0  365.36   60.69
  -1  -7   0  402.66   33.90
  -1  -7   0  393.06   34.70
  -1  -7   1  810.72   94.99
  -1  -7   1  798.82   24.00
  -1  -7   1  917.41   56.29
  -1  -7   2   16.30   18.50
  -1  -7   3   -3.20   17.60
  -1  -7   4   19.30   15.90
  -1  -7   5   -0.60   16.00
  -1  -7   6   67.69   41.30
  -1  -7   7  -26.10   26.60
  -1  -7   8   11.30   33.50
  -1  -6 -16   39.60   28.60
  -1  -6 -15    9.60   12.20
  -1  -6 -14    2.50   10.60
  -1  -6 -13   14.70    9.70
  -1  -6 -12   22.90   15.60
  -1  -6 -12   24.90    8.20
  -1  -6 -11   20.20    6.70
  -1  -6 -11    0.90    1.50
  -1  -6 -11   21.20    6.50
  -1  -6 -10  120.39   16.70
  -1  -6 -10  156.68   30.30
  -1  -6 -10  140.29   15.60
  -1  -6  -9  220.18   32.40
  -1  -6  -9  180.88   19.60
  -1  -6  -9  220.18   17.90
  -1  -6  -9  219.58   29.60
  -1  -6  -9  229.88   32.00
  -1  -6  -8  280.97   33.80
  -1  -6  -8  247.48   33.50
  -1  -6  -8  234.68   16.70
  -1  -6  -8  279.27   31.60
  -1  -6  -8  234.68   30.70
  -1  -6  -7    0.10    5.00
  -1  -6  -7    0.10    7.30
  -1  -6  -7    0.60    3.70
  -1  -6  -7   -2.70    4.70
  -1  -6  -6  249.97   31.30
  -1  -6  -6  279.37   29.80
  -1  -6  -6  282.87   26.00
  -1  -6  -6  275.97   29.20
  -1  -6  -5  113.19   21.40
  -1  -6  -5  145.99   20.50
  -1  -6  -5  139.69   17.60
  -1  -6  -4  544.05   33.80
  -1  -6  -4  495.95   41.00
  -1  -6  -4  559.94   38.70
  -1  -6  -3 1194.88   50.99
  -1  -6  -3 1345.77   63.09
  -1  -6  -2  186.18   33.50
  -1  -6  -2  249.38   29.80
  -1  -6  -2  230.18   21.10
  -1  -6  -2  251.47   25.40
  -1  -6  -1    9.90    9.40
  -1  -6  -1   19.00    9.20
  -1  -6  -1    5.50    3.90
  -1  -6   0   13.50    8.10
  -1  -6   0   11.00   12.40
  -1  -6   0   22.60    7.40
  -1  -6   1  121.79    7.30
  -1  -6   1  113.19   32.30
  -1  -6   1  137.59   26.90
  -1  -6   2  425.46   52.19
  -1  -6   2  345.77   60.79
  -1  -6   3  125.99   31.70
  -1  -6   3   95.79   34.40
  -1  -6   4  -29.70   22.70
  -1  -6   5  -33.50   23.70
  -1  -6   5   -5.90    7.70
  -1  -6   6   14.80   25.80
  -1  -6   6   -0.40    4.20
  -1  -6   7    6.00   18.90
  -1  -6   7    5.80    4.80
  -1  -6   8   -2.50   14.40
  -1  -6   8    7.00   11.20
  -1  -6   9   23.80   29.10
  -1  -6   9   24.30   15.10
  -1  -6   9   23.10   14.90
  -1  -6  10   23.40   15.80
  -1  -5 -15   27.10   15.20
  -1  -5 -15   16.70   15.00
  -1  -5 -14    5.00    7.70
  -1  -5 -13   18.80   11.50
  -1  -5 -12  398.56   55.19
  -1  -5 -12  294.07   28.40
  -1  -5 -11  143.89   32.30
  -1  -5 -11  170.98   19.90
  -1  -5 -10   -1.40    6.40
  -1  -5 -10   -3.50    6.90
  -1  -5 -10    0.50    2.10
  -1  -5  -9   40.80   12.20
  -1  -5  -9   24.40   10.70
  -1  -5  -9   28.40    7.70
  -1  -5  -9   20.90   11.70
  -1  -5  -9   38.10    7.80
  -1  -5  -9   36.00   12.60
  -1  -5  -8  918.31   64.39
  -1  -5  -8  938.61   38.00
  -1  -5  -8 1075.99   61.59
  -1  -5  -8  991.10   62.39
  -1  -5  -7 1897.21   91.19
  -1  -5  -7 1902.81   54.99
  -1  -5  -7 1955.60   86.69
  -1  -5  -7 2126.29   85.19
  -1  -5  -6  842.22   56.49
  -1  -5  -6 1040.60   54.09
  -1  -5  -5    7.40    4.60
  -1  -5  -5   -1.30    5.40
  -1  -5  -5    8.10    4.90
  -1  -5  -4   -0.30    3.00
  -1  -5  -4    0.50    4.20
  -1  -5  -4   -1.80    2.30
  -1  -5  -3   35.00    8.10
  -1  -5  -3   44.30    8.30
  -1  -5  -3   52.09   10.30
  -1  -5  -2  766.22   47.30
  -1  -5  -2  822.12   61.29
  -1  -5  -2  810.02   37.00
  -1  -5  -2  820.22   41.30
  -1  -5  -2  812.02   42.30
  -1  -5  -1  901.21   69.29
  -1  -5  -1  898.01   55.19
  -1  -5  -1  909.51   41.10
  -1  -5  -1  926.01   44.40
  -1  -5  -1  932.61   46.30
  -1  -5   0 1026.90   63.69
  -1  -5   0 1050.79   81.49
  -1  -5   0 1012.30   46.00
  -1  -5   0 1039.00   47.90
  -1  -5   1 1363.06   79.99
  -1  -5   1 1105.69   92.29
  -1  -5   2  430.46   47.60
  -1  -5   2  319.67   54.29
  -1  -5   3   14.30   11.60
  -1  -5   3   25.00   21.90
  -1  -5   3   -0.80    3.20
  -1  -5   4  335.37   50.89
  -1  -5   4  370.26   34.60
  -1  -5   5   83.19   33.10
  -1  -5   5  165.88   25.50
  -1  -5   6  179.68   49.20
  -1  -5   6  250.67   32.20
  -1  -5   7   40.10   17.80
  -1  -5   7   69.69   18.60
  -1  -5   8    7.60   14.70
  -1  -5   8   -4.50    5.30
  -1  -5   9   10.40   20.30
  -1  -5   9    2.10    6.10
  -1  -5   9    4.20    6.80
  -1  -5  10  -20.10   19.90
  -1  -5  10    7.00    9.60
  -1  -5  10   -5.60    8.10
  -1  -4 -15    9.80    7.90
  -1  -4 -15   49.10   25.50
  -1  -4 -14   23.10   11.70
  -1  -4 -14    4.00    9.60
  -1  -4 -13   22.80   11.60
  -1  -4 -13   33.20   18.40
  -1  -4 -12   -0.90    8.50
  -1  -4 -12   -5.30    4.50
  -1  -4 -11   93.29   25.70
  -1  -4 -11   59.89   15.90
  -1  -4 -11   67.19   13.40
  -1  -4 -10  277.27   32.10
  -1  -4 -10  356.56   47.30
  -1  -4 -10  332.07   26.90
  -1  -4  -9   69.89   15.90
  -1  -4  -9   60.49   17.30
  -1  -4  -9   33.80   10.80
  -1  -4  -9   52.99    9.80
  -1  -4  -9   44.50   14.60
  -1  -4  -9   60.79   16.20
  -1  -4  -8  361.26   34.40
  -1  -4  -8  289.97   24.10
  -1  -4  -8  266.27   33.90
  -1  -4  -8  310.67   21.50
  -1  -4  -8  341.57   35.00
  -1  -4  -7   47.80   11.40
  -1  -4  -7   39.80   11.30
  -1  -4  -7   26.80    5.30
  -1  -4  -7   33.50   10.30
  -1  -4  -7   35.90    6.40
  -1  -4  -7   43.10   11.30
  -1  -4  -6  132.89   18.90
  -1  -4  -6  119.09   10.20
  -1  -4  -6  113.69   19.20
  -1  -4  -6  118.59   16.50
  -1  -4  -5  405.46   35.00
  -1  -4  -5  456.95   18.10
  -1  -4  -4  438.66   34.80
  -1  -4  -4  497.05   26.90
  -1  -4  -4  461.85   29.90
  -1  -4  -3 3305.77  102.19
  -1  -4  -3 3193.08   91.29
  -1  -4  -3 3411.56   95.89
  -1  -4  -3 3094.49   82.79
  -1  -4  -2 2283.27   93.59
  -1  -4  -2 2480.15   65.99
  -1  -4  -2 2574.64   75.49
  -1  -4  -2 2302.27   72.49
  -1  -4  -1 1579.44   81.89
  -1  -4  -1 1579.14   66.39
  -1  -4  -1 1651.63   51.29
  -1  -4  -1 1587.54   56.19
  -1  -4  -1 1505.15   53.69
  -1  -4   0   87.49   15.90
  -1  -4   0   62.09   17.90
  -1  -4   0   82.39   10.80
  -1  -4   0   79.79   11.00
  -1  -4   1  611.14   47.20
  -1  -4   1  534.35   56.59
  -1  -4   2 2843.92   89.69
  -1  -4   2 2980.80  123.99
  -1  -4   2 2795.32  146.39
  -1  -4   3 1358.66   59.79
  -1  -4   3 1239.68   84.59
  -1  -4   4  179.68   22.70
  -1  -4   4  183.88   34.80
  -1  -4   5    4.60    6.20
  -1  -4   5   -4.40   11.90
  -1  -4   5    1.20   11.50
  -1  -4   6    2.00    4.20
  -1  -4   6   -9.40   21.00
  -1  -4   7   16.00    3.20
  -1  -4   7   16.30    3.30
  -1  -4   7   29.60   22.80
  -1  -4   7   32.50   12.60
  -1  -4   8   37.00    5.30
  -1  -4   8   79.29   20.80
  -1  -4   8   82.29   20.90
  -1  -4   9   47.00   26.80
  -1  -4   9   51.89   17.20
  -1  -4   9   47.60   16.40
  -1  -4  10   30.40   20.50
  -1  -4  10   28.90   16.10
  -1  -4  10   56.29   19.90
  -1  -4  11   30.70   18.70
  -1  -4  11   21.80   28.00
  -1  -3 -15  -34.10   19.80
  -1  -3 -15   -4.80    7.10
  -1  -3 -14   -3.60    8.50
  -1  -3 -14    5.00    8.70
  -1  -3 -13  -15.50   12.80
  -1  -3 -13   -0.20    4.80
  -1  -3 -12  136.09   33.30
  -1  -3 -12  128.49   26.30
  -1  -3 -11  209.08   38.00
  -1  -3 -11  139.59   23.70
  -1  -3 -10  272.37   42.40
  -1  -3 -10  235.88   30.50
  -1  -3  -9   -1.70    8.50
  -1  -3  -9    2.90    3.60
  -1  -3  -9    0.70    3.40
  -1  -3  -8   13.80    5.90
  -1  -3  -8   26.20   10.70
  -1  -3  -8   34.20    9.10
  -1  -3  -8   22.80    8.80
  -1  -3  -7  808.72   47.00
  -1  -3  -7  807.22   56.19
  -1  -3  -7  689.23   49.90
  -1  -3  -7  799.62   49.90
  -1  -3  -6  900.61   46.40
  -1  -3  -6  889.51   52.69
  -1  -3  -6  835.92   33.70
  -1  -3  -6  875.31   53.19
  -1  -3  -6  793.52   31.20
  -1  -3  -6  889.11   49.90
  -1  -3  -5  195.48   18.90
  -1  -3  -5  211.88   21.10
  -1  -3  -5  190.18   22.60
  -1  -3  -5  170.78   10.90
  -1  -3  -5  189.98   20.00
  -1  -3  -4   47.40    8.40
  -1  -3  -4   36.90    3.80
  -1  -3  -4   33.60    8.90
  -1  -3  -3  354.36   27.60
  -1  -3  -3  316.77   20.80
  -1  -3  -3  368.56   18.90
  -1  -3  -3  319.27   22.00
  -1  -3  -2  666.43   25.30
  -1  -3  -2  638.94   29.00
  -1  -3  -1  437.56   26.80
  -1  -3  -1  379.06   32.40
  -1  -3  -1  452.05   19.90
  -1  -3  -1  390.46   21.40
  -1  -3  -1  384.16   21.10
  -1  -3   0  368.66   28.10
  -1  -3   0  335.77   35.50
  -1  -3   0  359.66   19.70
  -1  -3   0  349.37   19.80
  -1  -3   1  954.80   54.69
  -1  -3   1  900.21   67.09
  -1  -3   1 1095.09   43.20
  -1  -3   2 1404.36   75.79
  -1  -3   2 1379.96   52.89
  -1  -3   3   -2.70    4.80
  -1  -3   3    9.90   11.30
  -1  -3   3   -4.50    5.50
  -1  -3   4  213.98   35.10
  -1  -3   4  171.58   37.00
  -1  -3   4  191.58   22.20
  -1  -3   5   88.09   25.20
  -1  -3   5   45.30   19.30
  -1  -3   5   76.39   15.10
  -1  -3   6  148.09   34.90
  -1  -3   6  199.58   27.00
  -1  -3   7  274.17   24.40
  -1  -3   7  250.57   50.79
  -1  -3   7  299.37   35.30
  -1  -3   7  317.87   36.10
  -1  -3   8   35.40    9.50
  -1  -3   8   26.60   18.50
  -1  -3   8   48.90   14.60
  -1  -3   8   41.10   14.00
  -1  -3   9   -2.10    6.60
  -1  -3   9    0.90    8.00
  -1  -3  10    4.10   10.40
  -1  -3  10   13.80   10.40
  -1  -3  10    4.30    5.10
  -1  -3  11   44.70   19.30
  -1  -3  11   22.10   10.80
  -1  -3  12   32.80   18.20
  -1  -3  12    0.30   19.50
  -1  -2 -15   15.30   12.00
  -1  -2 -14   29.80   19.20
  -1  -2 -14   10.70    8.60
  -1  -2 -13   -7.80    9.90
  -1  -2 -13    9.00    8.10
  -1  -2 -12  -17.60   13.00
  -1  -2 -12   -0.90    8.40
  -1  -2 -11  208.88   38.10
  -1  -2 -11  182.48   29.00
  -1  -2 -10  318.57   45.00
  -1  -2 -10  243.68   32.00
  -1  -2 -10  362.66   38.00
  -1  -2  -9  185.78   32.70
  -1  -2  -9  185.68   25.90
  -1  -2  -9  186.88   26.90
  -1  -2  -8  137.79   25.70
  -1  -2  -8  144.99   21.50
  -1  -2  -8  165.68   23.10
  -1  -2  -7   -2.00    3.70
  -1  -2  -7    4.30    3.70
  -1  -2  -6  213.78   27.10
  -1  -2  -6  179.18   19.20
  -1  -2  -6  262.87   24.50
  -1  -2  -6  263.77   26.40
  -1  -2  -5  661.13   40.70
  -1  -2  -5  672.03   34.40
  -1  -2  -5  679.73   37.40
  -1  -2  -4  264.17   19.20
  -1  -2  -4  258.17   23.40
  -1  -2  -4  236.78   20.40
  -1  -2  -3    8.10    3.40
  -1  -2  -3    9.10    3.10
  -1  -2  -3    2.30    3.00
  -1  -2  -2 1407.96   44.10
  -1  -2  -2 1453.85   48.90
  -1  -2  -2 1120.29   35.20
  -1  -2  -2 1152.78   31.10
  -1  -2  -2 1258.77   40.20
  -1  -2  -1  792.42   40.50
  -1  -2  -1  737.43   28.60
  -1  -2  -1  790.32   21.70
  -1  -2  -1  810.42   28.00
  -1  -2  -1  746.43   25.20
  -1  -2   0  140.99   20.50
  -1  -2   0  152.08   15.00
  -1  -2   0  135.89    9.70
  -1  -2   1   67.79   12.60
  -1  -2   1   42.30   13.70
  -1  -2   1   73.19    9.50
  -1  -2   2  862.61   54.69
  -1  -2   2  928.01   38.80
  -1  -2   3 1721.63  100.09
  -1  -2   3 1825.32   92.19
  -1  -2   3 1815.02   64.29
  -1  -2   4  214.78   33.40
  -1  -2   4  248.18   39.40
  -1  -2   4  258.27   24.20
  -1  -2   5  184.78   34.10
  -1  -2   5  125.39   29.70
  -1  -2   5  187.38   22.90
  -1  -2   6   48.50   19.10
  -1  -2   6   43.20   18.50
  -1  -2   6   63.29   13.60
  -1  -2   6   48.80   12.50
  -1  -2   7   31.20   18.70
  -1  -2   7   53.29   14.10
  -1  -2   7   27.50    9.80
  -1  -2   8   63.89   21.50
  -1  -2   8   73.39   17.90
  -1  -2   8   37.00   12.90
  -1  -2   9    7.50    5.80
  -1  -2   9   -2.20    9.30
  -1  -2   9   18.60   10.50
  -1  -2   9   18.50    9.90
  -1  -2  10   -1.50    8.30
  -1  -2  10   16.60   10.10
  -1  -2  10   -0.40    4.30
  -1  -2  11   -1.10    9.70
  -1  -2  11   34.30   15.50
  -1  -2  11   25.90   14.70
  -1  -2  12    7.50   10.10
  -1  -2  12    8.70   11.20
  -1  -1 -14   33.10   15.60
  -1  -1 -14   17.40   14.90
  -1  -1 -13    3.10    5.20
  -1  -1 -13   14.20    8.50
  -1  -1 -12   29.60   12.50
  -1  -1 -12   41.30   17.80
  -1  -1 -11   65.99   16.10
  -1  -1 -11   81.39   24.30
  -1  -1 -10   24.10    9.10
  -1  -1 -10   45.10   13.80
  -1  -1  -9  117.29   20.30
  -1  -1  -9  100.79   19.60
  -1  -1  -9  120.29   25.70
  -1  -1  -8   28.30   10.40
  -1  -1  -8   20.70    7.80
  -1  -1  -8   13.30    5.70
  -1  -1  -8   37.70   14.10
  -1  -1  -7  856.11   50.99
  -1  -1  -7  701.53   46.60
  -1  -1  -6 1390.86   74.59
  -1  -1  -6 1150.48   55.79
  -1  -1  -5  390.06   27.40
  -1  -1  -5  466.95   38.00
  -1  -1  -4   12.70    5.20
  -1  -1  -4    6.30    2.90
  -1  -1  -3  118.29   13.80
  -1  -1  -3  122.29   13.50
  -1  -1  -2  157.68    9.80
  -1  -1  -2  127.29    9.30
  -1  -1  -2  143.99   12.80
  -1  -1  -1 2915.11   66.99
  -1  -1  -1 2870.91   67.69
  -1  -1   0 4177.58  105.19
  -1  -1   0 3538.45   87.79
  -1  -1   1  606.44   35.40
  -1  -1   1  702.03   44.10
  -1  -1   2  698.23   25.30
  -1  -1   2  668.63   44.40
  -1  -1   2  754.92   32.90
  -1  -1   3   34.40   11.70
  -1  -1   3   42.10   13.30
  -1  -1   3   42.60    8.60
  -1  -1   4  116.19   23.10
  -1  -1   4   86.79   19.60
  -1  -1   4  119.89   15.60
  -1  -1   4  109.89   14.10
  -1  -1   5  158.68   28.90
  -1  -1   5  214.88   34.10
  -1  -1   5  211.68   23.50
  -1  -1   5  195.98   21.30
  -1  -1   6   12.50    8.60
  -1  -1   6    0.10    8.60
  -1  -1   6   15.70    7.70
  -1  -1   6   15.50    6.70
  -1  -1   7  133.69   31.80
  -1  -1   7   45.80   15.80
  -1  -1   7  119.99   20.70
  -1  -1   7  119.89   20.60
  -1  -1   8   39.40   17.90
  -1  -1   8   44.20   13.30
  -1  -1   8   46.80   14.10
  -1  -1   9    8.70   10.50
  -1  -1   9  -15.10    9.50
  -1  -1   9   -4.10    6.80
  -1  -1  10   20.10   11.60
  -1  -1  10    6.90   13.40
  -1  -1  10   40.60   14.90
  -1  -1  10   16.20    9.50
  -1  -1  11    8.60   13.60
  -1  -1  11   30.50   15.00
  -1  -1  11   30.20   14.00
  -1  -1  12   44.30   23.90
  -1  -1  12   84.59   25.00
  -1  -1  12    0.10   27.50
  -1  -1  13   18.50   14.80
  -1   0 -14    9.90    8.20
  -1   0 -13    8.30    6.90
  -1   0 -13   20.50   17.90
  -1   0 -12   12.90    7.10
  -1   0 -12  -13.90   12.20
  -1   0 -11   36.50   12.00
  -1   0 -11   42.10   17.90
  -1   0 -10  335.27   33.80
  -1   0 -10  357.76   50.89
  -1   0  -9  994.60   57.59
  -1   0  -9  993.40   81.29
  -1   0  -8  279.97   28.20
  -1   0  -8  274.37   32.80
  -1   0  -8  295.47   40.10
  -1   0  -7  117.29   17.60
  -1   0  -7  119.49   24.40
  -1   0  -7  115.49   20.40
  -1   0  -6  219.98   22.10
  -1   0  -6  193.08   23.90
  -1   0  -5 1623.54   60.79
  -1   0  -5 1653.93   78.19
  -1   0  -4 1205.58   47.40
  -1   0  -4 1220.28   59.09
  -1   0  -3  364.56   21.40
  -1   0  -3  400.26   27.10
  -1   0  -2 1840.32   48.80
  -1   0  -2 1783.22   47.00
  -1   0  -2 1820.02   52.59
  -1   0  -1   55.29    5.50
  -1   0  -1   66.29    5.20
  -1   0   0   -0.20    1.00
  -1   0   0    0.70    0.80
  -1   0   0   -0.20    1.70
  -1   0   1 2029.00   57.89
  -1   0   1 2147.99   64.09
  -1   0   1 1993.40   49.30
  -1   0   1 2021.40   52.19
  -1   0   2 4133.09  114.89
  -1   0   2 4289.87  115.19
  -1   0   2 4411.96   99.19
  -1   0   2 4191.68   89.59
  -1   0   3 9351.86  229.88
  -1   0   3 9644.54  228.38
  -1   0   3 9707.83  204.88
  -1   0   3 9919.81  196.78
  -1   0   4 2997.30  116.69
  -1   0   4 2773.12  107.59
  -1   0   4 3176.98   93.09
  -1   0   4 3038.00   86.69
  -1   0   5   90.19   19.40
  -1   0   5  120.49   23.30
  -1   0   5  110.79   16.30
  -1   0   5  121.69   15.80
  -1   0   6   18.40    9.70
  -1   0   6    9.70    7.00
  -1   0   6   19.00    7.70
  -1   0   6    9.40    6.20
  -1   0   7  123.69   25.20
  -1   0   7  172.98   32.80
  -1   0   7  186.18   25.00
  -1   0   7  177.98   23.60
  -1   0   8  330.67   45.00
  -1   0   8  453.35   42.60
  -1   0   8  393.96   38.30
  -1   0   9  203.08   36.00
  -1   0   9  302.87   37.20
  -1   0   9  223.78   31.30
  -1   0  10   28.10   16.70
  -1   0  10   44.90   16.10
  -1   0  10   43.20   14.00
  -1   0  11    5.80   10.70
  -1   0  11    1.50    5.70
  -1   0  11    7.30    7.90
  -1   0  12  -21.60   16.30
  -1   0  12    7.90    7.00
  -1   0  12   -6.80    8.00
  -1   0  13   25.00   16.10
  -1   0  13   18.00   14.90
  -1   1 -13   23.90   17.30
  -1   1 -13   29.20   11.10
  -1   1 -12   -1.20    7.20
  -1   1 -12   20.50    8.20
  -1   1 -11   95.39   28.40
  -1   1 -11   68.19   15.70
  -1   1 -10    9.00    7.10
  -1   1 -10   10.60    5.50
  -1   1  -9    7.50    9.90
  -1   1  -9   15.80    7.80
  -1   1  -8   65.19   19.50
  -1   1  -8   74.69   13.90
  -1   1  -7  437.46   47.50
  -1   1  -7  395.46   31.10
  -1   1  -6  613.44   52.59
  -1   1  -6  557.44   34.80
  -1   1  -5  916.51   42.00
  -1   1  -4   55.19   12.80
  -1   1  -4   62.29    9.40
  -1   1  -4   63.89   10.70
  -1   1  -3  480.85   24.00
  -1   1  -3  493.05   27.30
  -1   1  -3  526.85   35.00
  -1   1  -2  608.54   24.70
  -1   1  -2  591.94   26.30
  -1   1  -2  607.74   32.70
  -1   1  -1 3181.88   71.39
  -1   1   0 2006.90   53.29
  -1   1   0 1906.21   48.50
  -1   1   1  997.00   36.50
  -1   1   1 1039.50   29.30
  -1   1   1 1062.09   33.50
  -1   1   2   79.49   10.50
  -1   1   2   82.99    9.60
  -1   1   2   77.19    8.40
  -1   1   2   86.49    7.90
  -1   1   3    0.30    2.90
  -1   1   3   -0.20    2.50
  -1   1   4 1444.16   67.79
  -1   1   4 1424.66   66.09
  -1   1   4 1433.36   50.69
  -1   1   5 1440.56   75.09
  -1   1   5 1276.27   67.69
  -1   1   5 1351.86   58.49
  -1   1   5 1482.65   57.39
  -1   1   6    0.40    4.70
  -1   1   6   22.80    9.70
  -1   1   6   27.30    8.30
  -1   1   6   32.70    9.00
  -1   1   7   38.60   14.70
  -1   1   7   77.29   20.40
  -1   1   7   64.19   14.30
  -1   1   7   75.69   14.90
  -1   1   8  114.99   24.30
  -1   1   8  117.49   27.40
  -1   1   8  151.88   24.40
  -1   1   8  138.39   22.30
  -1   1   9   -2.30    7.50
  -1   1   9   16.70    7.90
  -1   1   9    2.90    4.50
  -1   1  10  -12.10   14.40
  -1   1  10    1.50    6.40
  -1   1  10    4.40    6.00
  -1   1  11   -0.60    8.00
  -1   1  11   19.40   10.40
  -1   1  11    3.00    4.40
  -1   1  12  101.09   34.50
  -1   1  12  109.69   27.50
  -1   1  12   81.39   22.00
  -1   1  13  104.49   28.40
  -1   1  13   70.29   23.70
  -1   2 -12    1.70    4.50
  -1   2 -12   28.50   17.70
  -1   2 -11    5.80    5.10
  -1   2 -11    9.50   12.90
  -1   2 -10   47.80   12.20
  -1   2 -10   39.70   19.80
  -1   2  -9  189.18   23.10
  -1   2  -9  155.88   34.20
  -1   2  -8   45.30   10.80
  -1   2  -8   52.29   19.80
  -1   2  -7  129.59   17.20
  -1   2  -7  136.29   27.30
  -1   2  -7  164.08   24.40
  -1   2  -6   -2.60   10.40
  -1   2  -6    9.80    4.50
  -1   2  -6   16.40    6.50
  -1   2  -5  615.44   33.20
  -1   2  -5  656.83   53.19
  -1   2  -4  599.24   30.30
  -1   2  -3   28.50    5.80
  -1   2  -3   29.80    5.40
  -1   2  -3   31.80    9.80
  -1   2  -2    0.10    1.80
  -1   2  -2    1.80    1.40
  -1   2  -2   -0.40    3.10
  -1   2  -1  616.14   26.60
  -1   2  -1  579.84   18.70
  -1   2   0  806.72   33.90
  -1   2   1 1056.99   41.30
  -1   2   1 1050.09   35.70
  -1   2   2  180.28   17.70
  -1   2   2  196.08   14.50
  -1   2   2  214.38   15.20
  -1   2   3 1537.35   62.49
  -1   2   3 1499.05   48.00
  -1   2   3 1530.85   49.40
  -1   2   4  790.72   35.80
  -1   2   5  599.34   33.90
  -1   2   6   14.60    6.00
  -1   2   7   -3.30    5.40
  -1   2   8   66.39   20.30
  -1   2   8   96.99   18.80
  -1   2   8   82.89   17.10
  -1   2   9  286.27   35.70
  -1   2   9  237.38   30.60
  -1   2  10   87.79   21.80
  -1   2  10  101.09   20.90
  -1   2  11    7.80    8.20
  -1   2  11   14.70    9.30
  -1   2  12   -1.00    9.50
  -1   2  12   -7.60    7.50
  -1   2  13   22.90   15.40
  -1   2  13   10.90   10.20
  -1   2  14   45.80   19.70
  -1   3 -11   44.60   12.70
  -1   3 -11   59.29   26.00
  -1   3 -10    6.00    4.50
  -1   3 -10   34.40   19.00
  -1   3  -9   18.10    7.10
  -1   3  -9   28.70   16.90
  -1   3  -8  367.56   30.90
  -1   3  -8  441.56   56.89
  -1   3  -7  203.48   21.60
  -1   3  -7  202.18   37.40
  -1   3  -6  219.78   21.00
  -1   3  -6  202.38   26.90
  -1   3  -6  250.97   37.40
  -1   3  -5  161.78   16.80
  -1   3  -5  198.38   24.10
  -1   3  -5  200.28   31.10
  -1   3  -4    2.40    2.10
  -1   3  -4    1.60    2.30
  -1   3  -4    0.70    6.80
  -1   3  -3   47.40    7.70
  -1   3  -3   45.50    7.20
  -1   3  -2   24.90    4.70
  -1   3  -1  320.07   20.60
  -1   3  -1  287.27   15.60
  -1   3   0  503.45   28.60
  -1   3   0  524.05   28.40
  -1   3   1 2487.35   76.99
  -1   3   1 2570.74   62.39
  -1   3   1 2530.25   68.99
  -1   3   1 2497.05   72.69
  -1   3   2  240.28   22.50
  -1   3   2  283.57   18.70
  -1   3   2  273.27   19.70
  -1   3   2  234.58   18.90
  -1   3   3    0.70    4.20
  -1   3   3    3.80    2.30
  -1   3   3    8.00    4.00
  -1   3   4 1417.96   49.70
  -1   3   4 1400.06   53.19
  -1   3   5 1882.51   67.29
  -1   3   6  185.58   20.40
  -1   3   7    9.60    4.00
  -1   3   8    5.60    6.60
  -1   3   9    4.40    6.50
  -1   3  10   23.70   10.40
  -1   3  10   19.00    8.50
  -1   3  11   11.90    8.30
  -1   3  11   11.90    8.20
  -1   3  12   -4.50    7.30
  -1   3  12   10.30    8.50
  -1   3  13  112.49   29.60
  -1   3  13   56.19   18.90
  -1   3  14    1.00   12.60
  -1   3  14    7.80   12.30
  -1   4 -11    5.50   11.00
  -1   4 -10   76.69   28.80
  -1   4  -9  115.49   17.90
  -1   4  -9   92.89   27.30
  -1   4  -8  201.08   22.60
  -1   4  -8  182.18   38.90
  -1   4  -7   33.20    9.30
  -1   4  -7    5.80   13.60
  -1   4  -6   15.60    5.70
  -1   4  -6   21.20    9.90
  -1   4  -5  409.36   27.60
  -1   4  -5  358.76   35.40
  -1   4  -5  385.26   28.40
  -1   4  -5  462.75   50.49
  -1   4  -4 1428.26   52.09
  -1   4  -4 1405.16   84.69
  -1   4  -4 1343.57   66.09
  -1   4  -4 1237.28   51.09
  -1   4  -3  953.20   36.40
  -1   4  -3   61.69   13.20
  -1   4  -2  438.66   23.80
  -1   4  -1  702.93   34.90
  -1   4  -1  624.54   28.30
  -1   4  -1  688.93   38.60
  -1   4   0  415.76   27.80
  -1   4   0  405.56   27.90
  -1   4   1 1780.92   66.39
  -1   4   1 1761.92   53.29
  -1   4   1 1825.52   64.29
  -1   4   2 1535.85   66.09
  -1   4   2 1621.34   54.89
  -1   4   2 1685.73   61.29
  -1   4   3 1975.90   82.19
  -1   4   3 2156.08   66.09
  -1   4   3 2158.78   72.29
  -1   4   4 1687.33   78.49
  -1   4   4 1773.72   59.49
  -1   4   4 1804.12   66.29
  -1   4   5  161.68   16.40
  -1   4   5  154.78   18.60
  -1   4   6  245.48   24.50
  -1   4   7   63.49   14.80
  -1   4   7   52.99   12.20
  -1   4   8  124.19   21.60
  -1   4   8  100.59   18.20
  -1   4   9  398.46   39.20
  -1   4  10  225.98   31.50
  -1   4  11   51.79   15.40
  -1   4  12    8.60    9.00
  -1   4  12    4.00    7.20
  -1   4  13    2.30    7.30
  -1   4  13    8.50    8.70
  -1   4  14   56.09   23.80
  -1   4  14   52.99   19.60
  -1   4  15   25.30   17.20
  -1   5 -10   27.80   19.60
  -1   5  -9    8.50    8.40
  -1   5  -8  153.88   19.50
  -1   5  -8  150.98   36.60
  -1   5  -7  242.18   23.60
  -1   5  -7  281.07   48.10
  -1   5  -6  490.55   59.09
  -1   5  -5  251.57   40.20
  -1   5  -5  205.98   21.90
  -1   5  -4   11.80    8.10
  -1   5  -4   19.30   11.80
  -1   5  -4   11.30    4.40
  -1   5  -4   11.00    6.90
  -1   5  -3   95.29   18.70
  -1   5  -3   98.99   12.90
  -1   5  -3   88.19   17.00
  -1   5  -2   24.20    9.30
  -1   5  -2   25.30    6.30
  -1   5  -2   25.50    9.10
  -1   5  -1    5.80    4.10
  -1   5  -1    4.40    2.80
  -1   5  -1    3.90    3.40
  -1   5   0 1016.50   49.20
  -1   5   0 1050.49   51.49
  -1   5   1 1556.34   66.19
  -1   5   1 1671.43   56.39
  -1   5   1 1667.73   65.59
  -1   5   2  102.89   16.90
  -1   5   2  112.29   13.70
  -1   5   2  124.09   15.10
  -1   5   2  114.39   15.80
  -1   5   3   64.59   14.10
  -1   5   3   68.49   10.70
  -1   5   3   67.89   12.30
  -1   5   4  306.77   33.00
  -1   5   4  339.57   24.50
  -1   5   4  308.77   27.50
  -1   5   5 1825.12   89.29
  -1   5   5 1984.20   67.09
  -1   5   5 1912.51   75.89
  -1   5   6 1897.51   81.39
  -1   5   6 1811.52   65.09
  -1   5   6 1796.22   74.99
  -1   5   7  216.48   27.60
  -1   5   7  225.18   26.10
  -1   5   8   24.70   10.70
  -1   5   8   34.10   10.20
  -1   5   9    3.30    5.90
  -1   5   9    1.50    5.90
  -1   5  10   64.79   17.20
  -1   5  11  102.09   22.40
  -1   5  12   54.39   17.90
  -1   5  13   91.09   25.60
  -1   5  13   57.29   20.30
  -1   5  14    8.20   12.00
  -1   5  14   27.40   15.00
  -1   5  15    1.70    6.40
  -1   6  -9   37.90   22.40
  -1   6  -8   35.70   18.30
  -1   6  -7   11.80   14.60
  -1   6  -6   -2.60   10.20
  -1   6  -6    6.90    6.30
  -1   6  -5   15.80    9.60
  -1   6  -5    2.00    8.70
  -1   6  -5   11.70    5.50
  -1   6  -4  145.89   18.40
  -1   6  -4  162.68   27.30
  -1   6  -3  307.67   33.40
  -1   6  -3  274.27   23.90
  -1   6  -3  292.57   34.40
  -1   6  -2  176.18   24.00
  -1   6  -2  165.28   17.80
  -1   6  -2  158.28   24.00
  -1   6  -1  394.66   29.80
  -1   6  -1  402.86   27.60
  -1   6  -1  466.55   37.90
  -1   6  -1  450.55   39.60
  -1   6   0  227.78   23.80
  -1   6   0  214.28   24.30
  -1   6   0  197.68   25.40
  -1   6   1   31.10    9.90
  -1   6   1   26.90    9.20
  -1   6   1   23.70    6.50
  -1   6   1   33.30    9.90
  -1   6   2  955.70   56.29
  -1   6   2 1053.29   48.20
  -1   6   2  998.40   52.69
  -1   6   3  355.86   35.90
  -1   6   3  425.26   31.40
  -1   6   3  360.66   27.80
  -1   6   3  354.26   30.60
  -1   6   4  610.34   49.80
  -1   6   4  611.04   36.30
  -1   6   4  645.14   42.70
  -1   6   4  621.64   44.70
  -1   6   5   88.79   16.90
  -1   6   5   71.89   17.80
  -1   6   5   89.79   13.70
  -1   6   5   75.89   15.50
  -1   6   6    8.80    4.10
  -1   6   6    2.40    7.70
  -1   6   6   10.80    5.20
  -1   6   6    5.00    4.60
  -1   6   7  107.59   19.90
  -1   6   7   69.39   19.10
  -1   6   7   75.89   12.50
  -1   6   7   68.59   15.40
  -1   6   8    6.00    6.90
  -1   6   8   14.90    8.10
  -1   6   9  104.09   22.50
  -1   6   9   91.99   19.10
  -1   6  10  182.38   31.20
  -1   6  10  135.99   24.60
  -1   6  11   90.79   21.60
  -1   6  12    0.20    7.10
  -1   6  13    3.10    4.80
  -1   6  14   34.00   20.20
  -1   6  14   39.70   16.60
  -1   6  15   12.00   14.40
  -1   7  -8    7.60    8.30
  -1   7  -7  125.09   30.30
  -1   7  -6   99.19   25.40
  -1   7  -5   43.10   15.10
  -1   7  -5   50.19   12.30
  -1   7  -4    1.90    6.90
  -1   7  -4    6.90    4.70
  -1   7  -3  154.68   27.10
  -1   7  -3  108.89   16.20
  -1   7  -2   86.79   19.70
  -1   7  -2  120.49   16.80
  -1   7  -2  118.49   21.20
  -1   7  -1   75.89   14.40
  -1   7  -1   77.49   18.10
  -1   7  -1   92.89   14.50
  -1   7  -1   93.19   18.40
  -1   7   0  165.88   21.70
  -1   7   0  193.98   20.90
  -1   7   0  205.28   21.30
  -1   7   0  228.28   27.30
  -1   7   0  176.28   25.60
  -1   7   1  102.29   18.40
  -1   7   1  111.79   15.40
  -1   7   1  120.49   19.00
  -1   7   1  144.49   22.50
  -1   7   2   66.09   15.20
  -1   7   2   67.99   15.50
  -1   7   2   54.09   11.50
  -1   7   2   82.29   15.90
  -1   7   3    8.90    6.50
  -1   7   3    3.60    4.60
  -1   7   3    6.40    6.80
  -1   7   3    2.20    3.00
  -1   7   3   -0.40    3.30
  -1   7   4   46.10   13.00
  -1   7   4   62.79   16.90
  -1   7   4   46.20   10.40
  -1   7   4   41.50   11.20
  -1   7   5  372.76   42.40
  -1   7   5  442.06   32.10
  -1   7   5  390.66   37.70
  -1   7   5  409.56   37.30
  -1   7   6  483.65   49.70
  -1   7   6  582.44   37.30
  -1   7   6  530.55   45.00
  -1   7   6  507.75   42.20
  -1   7   7   49.90   14.70
  -1   7   7   31.40   12.40
  -1   7   7   43.70   10.20
  -1   7   7   45.70   13.60
  -1   7   8    5.20    7.30
  -1   7   8   -1.00    5.80
  -1   7   9    7.70    8.60
  -1   7   9   -3.70    5.90
  -1   7  10   49.90   17.40
  -1   7  10   34.10   11.90
  -1   7  11  110.19   25.40
  -1   7  11   89.19   21.50
  -1   7  12   30.80   13.40
  -1   7  13   26.20   15.40
  -1   7  14   11.20    8.90
  -1   7  15   -7.90   10.60
  -1   8  -7  -28.50   15.70
  -1   8  -6   12.10    9.70
  -1   8  -5  133.89   29.20
  -1   8  -4  161.08   30.40
  -1   8  -4  131.99   19.90
  -1   8  -3  165.48   29.80
  -1   8  -3  130.19   19.40
  -1   8  -2   55.29   18.60
  -1   8  -2   56.79   12.40
  -1   8  -1    0.80    5.70
  -1   8  -1    8.40    4.30
  -1   8   0   61.29   13.40
  -1   8   0   53.79   15.30
  -1   8   0   59.49   12.60
  -1   8   0   62.09   13.10
  -1   8   0   48.60   13.80
  -1   8   1  192.28   26.00
  -1   8   1  199.38   23.70
  -1   8   1  185.48   28.20
  -1   8   1  208.88   27.40
  -1   8   2  646.44   50.89
  -1   8   2  700.03   44.10
  -1   8   2  666.23   49.20
  -1   8   2  713.63   54.89
  -1   8   3  460.05   45.10
  -1   8   3  494.35   38.30
  -1   8   3  462.15   36.00
  -1   8   3  469.35   44.10
  -1   8   3  437.16   39.30
  -1   8   4  359.16   41.90
  -1   8   4  406.66   33.20
  -1   8   4  399.56   37.60
  -1   8   4  397.46   40.30
  -1   8   5   44.60   13.60
  -1   8   5   25.60   12.20
  -1   8   5   49.20   11.60
  -1   8   6   92.39   19.60
  -1   8   6   89.29   22.80
  -1   8   6   85.39   14.80
  -1   8   6   84.49   18.10
  -1   8   7  595.64   39.50
  -1   8   7  557.64   50.09
  -1   8   7  499.15   45.50
  -1   8   8  123.19   24.60
  -1   8   8  129.89   18.10
  -1   8   8  130.69   23.80
  -1   8   9   54.29   16.30
  -1   8   9   36.90   13.20
  -1   8  10   87.39   22.80
  -1   8  10   60.89   17.40
  -1   8  11   56.09   18.50
  -1   8  11   33.10   13.90
  -1   8  12   -8.90   11.90
  -1   8  12   -1.20    6.60
  -1   8  13   -0.60    6.50
  -1   8  14    3.00    6.60
  -1   9  -6   41.90   19.90
  -1   9  -5   87.09   26.80
  -1   9  -4   19.90   11.60
  -1   9  -3    1.60    7.90
  -1   9  -3    6.30    5.80
  -1   9  -2  153.68   30.20
  -1   9  -2  130.39   20.30
  -1   9  -1  193.88   24.60
  -1   9  -1  205.28   33.10
  -1   9   0  242.98   29.00
  -1   9   0  291.17   29.70
  -1   9   0  320.97   40.50
  -1   9   1  316.47   35.80
  -1   9   1  453.95   46.40
  -1   9   2  331.97   37.90
  -1   9   2  387.56   43.10
  -1   9   3   20.40   10.50
  -1   9   3   21.80   11.20
  -1   9   3   26.00   10.10
  -1   9   3   26.50   10.70
  -1   9   4   53.69   17.30
  -1   9   4   50.29   15.80
  -1   9   4   54.99   13.20
  -1   9   4   49.10   15.80
  -1   9   5  261.27   39.20
  -1   9   5  321.37   30.80
  -1   9   5  301.07   38.00
  -1   9   5  281.47   33.10
  -1   9   6  499.25   38.10
  -1   9   6  464.15   47.10
  -1   9   7  292.97   28.80
  -1   9   7  277.67   36.60
  -1   9   7  234.68   32.90
  -1   9   8   28.60   13.00
  -1   9   8   38.30   10.30
  -1   9   8   25.20    9.90
  -1   9   9    8.80    6.50
  -1   9   9    4.90    3.70
  -1   9   9   -0.70    4.60
  -1   9  10   27.50   13.40
  -1   9  10   35.10   14.80
  -1   9  11  190.88   34.00
  -1   9  11  152.68   29.40
  -1   9  12  265.97   42.00
  -1   9  12  182.98   34.30
  -1   9  13   90.29   25.50
  -1   9  14   48.10   20.50
  -1  10  -4    9.40   11.10
  -1  10  -3   64.89   20.30
  -1  10  -2   18.10   12.50
  -1  10  -1    3.30    6.90
  -1  10  -1    5.90    5.40
  -1  10  -1    9.30    6.50
  -1  10   0   11.90    7.30
  -1  10   0   22.40   11.10
  -1  10   0    6.50    4.50
  -1  10   0   13.10    6.90
  -1  10   1   11.50    9.20
  -1  10   1    8.80    6.10
  -1  10   1    3.90    6.40
  -1  10   1   -6.80    5.30
  -1  10   2   54.39   16.00
  -1  10   2   60.29   18.20
  -1  10   2   47.30   12.70
  -1  10   3  431.66   47.20
  -1  10   3  449.56   40.20
  -1  10   3  461.75   41.30
  -1  10   3  513.95   51.79
  -1  10   4  472.35   43.90
  -1  10   4  414.76   37.90
  -1  10   4  478.15   49.50
  -1  10   5  233.18   28.10
  -1  10   5  307.67   39.40
  -1  10   6   11.10    7.00
  -1  10   6    8.20    4.50
  -1  10   7   83.59   21.40
  -1  10   7   95.19   17.00
  -1  10   8  102.69   23.70
  -1  10   8  161.78   22.10
  -1  10   9   54.49   17.00
  -1  10   9   55.19   12.90
  -1  10   9   30.60   12.90
  -1  10  10   59.49   19.50
  -1  10  10   68.69   19.80
  -1  10  11   32.50   15.60
  -1  10  11   14.80   11.80
  -1  10  12    3.40    7.40
  -1  10  12   -2.50    6.40
  -1  10  13   -2.50    9.00
  -1  11  -3  -10.20   11.10
  -1  11  -2   -1.80    7.30
  -1  11  -1   18.90   10.60
  -1  11  -1   14.20    7.80
  -1  11   0  -18.40   12.00
  -1  11   0    3.30    4.70
  -1  11   1   69.59   20.60
  -1  11   1   70.29   16.00
  -1  11   2   15.50   12.90
  -1  11   2    2.10    8.10
  -1  11   2   10.90    7.50
  -1  11   3   16.70   11.30
  -1  11   3   10.70    7.70
  -1  11   3    2.70    4.70
  -1  11   4    5.90    5.70
  -1  11   4   18.00   11.40
  -1  11   4   14.00    8.00
  -1  11   5   73.69   20.80
  -1  11   5   83.59   17.40
  -1  11   6   67.49   19.40
  -1  11   6   71.49   16.10
  -1  11   7   66.69   19.30
  -1  11   7   42.70   12.20
  -1  11   8  -18.80   11.30
  -1  11   8   -6.20    4.30
  -1  11   9  -14.50   10.50
  -1  11   9   -5.60    6.20
  -1  11  10    1.30    4.50
  -1  11  10   -5.00    7.20
  -1  11  11   18.30   14.20
  -1  11  11    2.80    7.20
  -1  11  12   43.60   18.40
  -1  11  12   32.00   16.00
  -1  12  -1   10.10    9.60
  -1  12   0    8.90    9.80
  -1  12   1   -1.80   10.70
  -1  12   2   51.99   19.30
  -1  12   2   60.69   16.00
  -1  12   3  165.68   33.00
  -1  12   3  119.29   22.20
  -1  12   3  123.59   23.80
  -1  12   4   20.60   11.70
  -1  12   4   39.40   12.30
  -1  12   5    3.70    6.00
  -1  12   5   25.10   11.20
  -1  12   6   17.90   12.00
  -1  12   6    0.00    4.90
  -1  12   7   36.60   15.50
  -1  12   7   34.90   11.20
  -1  12   8  122.69   28.00
  -1  12   8   99.29   19.30
  -1  12   9   21.20   13.10
  -1  12   9   39.80   11.80
  -1  12  10   -4.90    8.60
  -1  12  11   40.00   18.90
  -1  13   2   64.99   22.90
  -1  13   2   34.60   13.60
  -1  13   3   -5.30    8.20
  -1  13   3    5.90    7.80
  -1  13   4   46.50   18.20
  -1  13   4   51.59   16.20
  -1  13   5  157.08   33.60
  -1  13   5  155.58   27.20
  -1  13   6  159.48   33.20
  -1  13   6  170.78   27.40
  -1  13   7   77.59   24.30
  -1  13   7   84.89   18.60
  -1  13   8   14.70   10.80
  -1  13   8   11.30    6.60
  -1  13   9    2.30   10.00
  -1  14   2   19.00   14.00
  -1  14   3   75.79   21.90
  -1  14   4   75.99   21.50
  -1  14   5   36.50   14.90
  -1  14   6    0.70    6.20
   0 -15  -8    0.90    7.90
   0 -15  -7    0.50    6.10
   0 -15  -6  -12.30   11.00
   0 -15  -5    0.40    9.00
   0 -14 -11    1.70    6.40
   0 -14 -10   18.30   19.40
   0 -14 -10    8.10    6.10
   0 -14  -9  -30.80   23.50
   0 -14  -9    2.30    5.60
   0 -14  -8   15.20   17.90
   0 -14  -8   16.20   13.70
   0 -14  -7   18.10   30.40
   0 -14  -7   38.20   17.20
   0 -14  -6   59.19   38.10
   0 -14  -6   46.60   18.40
   0 -14  -5   -0.20   29.40
   0 -14  -5   43.90   18.60
   0 -14  -4   -8.90    8.70
   0 -14  -3   22.50   14.20
   0 -14  -2   19.00   16.20
   0 -13 -13   10.20   18.10
   0 -13 -12   10.40   11.60
   0 -13 -11   40.30   17.30
   0 -13 -10   95.09   24.10
   0 -13  -9  140.49   29.20
   0 -13  -8   89.69   23.30
   0 -13  -7    4.20    9.60
   0 -13  -7   13.10    8.60
   0 -13  -6   -4.80   13.80
   0 -13  -6   -0.80    4.30
   0 -13  -5    9.90   15.40
   0 -13  -5   36.20   15.80
   0 -13  -4   58.99   36.60
   0 -13  -4   66.69   20.60
   0 -13  -3  186.38   61.09
   0 -13  -3  201.88   34.40
   0 -13  -2  131.49   53.59
   0 -13  -2   66.99   21.00
   0 -13  -1   20.60   12.80
   0 -12 -14    1.80   16.90
   0 -12 -13   11.50   12.60
   0 -12 -13   32.50   17.70
   0 -12 -12   17.30   20.70
   0 -12 -12   65.89   22.20
   0 -12 -11    1.80    7.30
   0 -12 -10  -10.90    9.10
   0 -12  -9    7.20    6.90
   0 -12  -8   -1.10    4.30
   0 -12  -7   19.80   11.00
   0 -12  -6   55.49   17.90
   0 -12  -5  179.28   48.20
   0 -12  -5  125.99   26.00
   0 -12  -4   40.20   28.80
   0 -12  -4   41.40   15.30
   0 -12  -3    1.00   14.00
   0 -12  -3    5.10    6.60
   0 -12  -2   30.40   31.80
   0 -12  -2   19.80   10.60
   0 -12  -1   89.59   42.80
   0 -12  -1   74.59   20.80
   0 -12   0   49.00   40.60
   0 -12   0   47.10   17.20
   0 -12   1  -66.19   44.60
   0 -11 -14   15.20   16.50
   0 -11 -14    2.20    8.80
   0 -11 -13    6.60   12.00
   0 -11 -13   16.50   14.00
   0 -11 -12  -20.60   14.90
   0 -11 -12   15.00   10.80
   0 -11 -11   40.10   16.00
   0 -11 -10   84.29   21.60
   0 -11  -9   44.80   14.90
   0 -11  -8   47.30   15.40
   0 -11  -7    5.20    7.60
   0 -11  -6   -7.70    8.20
   0 -11  -5    0.10    5.30
   0 -11  -4   54.19   28.40
   0 -11  -4   83.79   19.50
   0 -11  -3  166.68   46.50
   0 -11  -3  119.79   23.60
   0 -11  -2   47.20   28.20
   0 -11  -2    9.60    7.60
   0 -11  -1   -1.50   14.60
   0 -11  -1   10.60    7.10
   0 -11   0   13.40   19.00
   0 -11   0    5.50    8.60
   0 -11   1   -8.00   20.10
   0 -11   2  -26.70   27.70
   0 -11   3    0.20   37.30
   0 -10 -15    7.40   14.20
   0 -10 -14    4.00   12.70
   0 -10 -14   12.20    8.50
   0 -10 -13  113.19   33.40
   0 -10 -13   88.49   24.30
   0 -10 -12  190.38   40.50
   0 -10 -12  193.18   34.30
   0 -10 -11   24.40   13.70
   0 -10 -11    1.50    6.20
   0 -10 -10    5.10    7.60
   0 -10  -9    5.70    6.00
   0 -10  -8   35.70   13.30
   0 -10  -7  116.79   22.70
   0 -10  -6   81.39   18.50
   0 -10  -5   74.79   17.40
   0 -10  -4   96.19   20.60
   0 -10  -3  -29.30   19.90
   0 -10  -3   -0.90    4.70
   0 -10  -2  310.87   36.40
   0 -10  -2  309.67   64.69
   0 -10  -1  306.07   26.80
   0 -10  -1  269.47   34.40
   0 -10  -1  347.37   67.99
   0 -10   0  183.48   19.20
   0 -10   0  204.88   56.39
   0 -10   0  219.38   31.90
   0 -10   1   45.10   35.10
   0 -10   1   86.39   21.60
   0 -10   2   -1.00   21.10
   0 -10   3  -28.40   29.00
   0 -10   4  -39.80   33.50
   0  -9 -15    9.50   14.90
   0  -9 -14  -15.40   14.80
   0  -9 -14   20.60   12.00
   0  -9 -13   30.40   16.30
   0  -9 -13   19.40   11.80
   0  -9 -12   16.70   12.80
   0  -9 -12    8.10    9.70
   0  -9 -11  318.47   48.10
   0  -9 -11  265.37   37.50
   0  -9 -10  353.06   49.90
   0  -9 -10  331.67   40.70
   0  -9  -9  388.66   42.40
   0  -9  -8  504.05   46.70
   0  -9  -7  154.18   29.50
   0  -9  -7  163.28   26.20
   0  -9  -6   11.90    9.20
   0  -9  -6    2.80    4.50
   0  -9  -5  137.59   23.10
   0  -9  -4  705.23   51.59
   0  -9  -4  817.02   62.69
   0  -9  -3  502.65   56.09
   0  -9  -3  517.45   43.70
   0  -9  -2  405.66   65.09
   0  -9  -2  409.86   39.40
   0  -9  -1   -1.80   13.80
   0  -9  -1    0.60    5.80
   0  -9   0   35.60   23.00
   0  -9   0   21.30    6.00
   0  -9   0   25.60   10.80
   0  -9   1  133.79   14.60
   0  -9   1  161.88   26.80
   0  -9   1  142.49   50.59
   0  -9   2   91.09   40.30
   0  -9   2  147.39   13.80
   0  -9   3   71.79   32.90
   0  -9   4   63.39   35.30
   0  -9   5   12.20   28.20
   0  -9   6   -0.80   18.80
   0  -8 -15    4.90   13.70
   0  -8 -14   21.90   17.10
   0  -8 -13   15.20   12.60
   0  -8 -13   39.40   16.70
   0  -8 -12  127.89   33.50
   0  -8 -12  126.89   26.30
   0  -8 -11   56.89   21.80
   0  -8 -11   78.59   13.60
   0  -8 -11   84.39   20.60
   0  -8 -10    9.60    8.60
   0  -8 -10   -2.30    7.40
   0  -8  -9   65.59   16.60
   0  -8  -8   42.70   15.10
   0  -8  -8   49.70   13.60
   0  -8  -7  165.88   28.80
   0  -8  -7  226.58   32.10
   0  -8  -7  224.38   28.80
   0  -8  -6  175.08   28.00
   0  -8  -6  182.98   25.20
   0  -8  -6  145.39   24.40
   0  -8  -6  198.48   29.50
   0  -8  -5  167.18   26.40
   0  -8  -5  203.68   26.40
   0  -8  -5  203.18   27.30
   0  -8  -5  193.78   28.60
   0  -8  -4  570.94   43.40
   0  -8  -4  647.34   49.10
   0  -8  -4  674.03   54.09
   0  -8  -3  129.49   22.70
   0  -8  -3  119.49   19.90
   0  -8  -3  111.59   20.10
   0  -8  -2  124.09   22.20
   0  -8  -2  105.09   24.00
   0  -8  -2  117.89   19.20
   0  -8  -2  123.39   20.60
   0  -8  -1  253.77   47.90
   0  -8  -1  235.18   37.70
   0  -8  -1  194.18   25.70
   0  -8  -1  257.47   30.70
   0  -8   0  454.45   28.60
   0  -8   0  465.05   68.69
   0  -8   0  455.75   55.69
   0  -8   0  468.35   40.80
   0  -8   0  504.55   43.90
   0  -8   1  353.36   23.10
   0  -8   1  378.76   38.50
   0  -8   1  361.26   69.99
   0  -8   2  145.39   13.70
   0  -8   2  125.59   44.00
   0  -8   3  -13.90   19.40
   0  -8   4   30.30   20.90
   0  -8   5   48.20   31.00
   0  -8   6   79.89   38.60
   0  -8   7  -23.40   26.50
   0  -7 -15    9.90   19.80
   0  -7 -14   22.20   20.80
   0  -7 -13   -6.10   10.20
   0  -7 -12    3.10    9.00
   0  -7 -11   60.49   21.20
   0  -7 -11   35.50   11.20
   0  -7 -11   60.99   12.30
   0  -7 -10   18.90   10.20
   0  -7 -10   14.60   12.40
   0  -7 -10   16.70    6.50
   0  -7  -9   22.20   10.10
   0  -7  -9   52.59   17.50
   0  -7  -9   48.80    9.80
   0  -7  -9   32.10   11.20
   0  -7  -8  191.88   30.50
   0  -7  -8  169.18   17.40
   0  -7  -8  169.18   26.90
   0  -7  -8  178.88   28.40
   0  -7  -8  191.08   26.80
   0  -7  -7  193.18   29.60
   0  -7  -7  228.18   27.90
   0  -7  -7  214.68   29.60
   0  -7  -7  192.08   26.90
   0  -7  -6   36.50   12.40
   0  -7  -6   34.80   12.70
   0  -7  -6   32.20   10.50
   0  -7  -6   33.20   10.90
   0  -7  -5   12.10    6.60
   0  -7  -5   17.70    8.80
   0  -7  -5   13.60    6.40
   0  -7  -5    3.10    4.10
   0  -7  -4   54.09   12.70
   0  -7  -4   61.89   13.90
   0  -7  -4   82.59   15.00
   0  -7  -3 1013.70   54.29
   0  -7  -3  989.30   59.79
   0  -7  -3  906.61   54.29
   0  -7  -2 1608.44   90.29
   0  -7  -2 1599.94   70.99
   0  -7  -2 1581.34   73.69
   0  -7  -2 1714.53   79.89
   0  -7  -1   -5.40    9.60
   0  -7  -1   -3.80    5.30
   0  -7  -1   -3.90    6.30
   0  -7  -1    5.40    4.60
   0  -7  -1   -6.50    5.10
   0  -7   0   35.30   17.50
   0  -7   0   20.90   12.00
   0  -7   0   24.60   10.30
   0  -7   0   24.70    8.80
   0  -7   1   54.69   24.40
   0  -7   1   87.69   24.20
   0  -7   1   98.59   11.30
   0  -7   1   95.59   17.70
   0  -7   2   96.19   10.80
   0  -7   2   62.79   30.40
   0  -7   3  128.39   42.60
   0  -7   4   29.30   17.50
   0  -7   5   -2.70   19.80
   0  -7   6   39.90   32.20
   0  -7   7  -25.00   25.30
   0  -7   8   20.00   30.70
   0  -7   9    0.20   30.10
   0  -6 -15   -3.00    9.50
   0  -6 -14  -50.59   24.10
   0  -6 -13   37.40   22.90
   0  -6 -12  209.08   43.90
   0  -6 -12  140.49   20.90
   0  -6 -11  262.57   45.10
   0  -6 -11  221.98   31.10
   0  -6 -11  247.38   26.00
   0  -6 -10    1.10    4.80
   0  -6 -10   14.50   11.00
   0  -6 -10    8.20    5.10
   0  -6  -9   76.09   17.60
   0  -6  -9  119.69   26.40
   0  -6  -9  117.29   15.70
   0  -6  -9   82.69   18.50
   0  -6  -8  153.68   23.30
   0  -6  -8  233.18   33.50
   0  -6  -8  187.88   18.60
   0  -6  -8  155.98   26.50
   0  -6  -8  202.18   27.80
   0  -6  -8  175.98   26.30
   0  -6  -7  432.96   42.70
   0  -6  -7  470.95   28.30
   0  -6  -7  495.35   38.70
   0  -6  -7  468.65   41.40
   0  -6  -7  460.65   40.70
   0  -6  -6  655.63   47.60
   0  -6  -6  619.84   42.50
   0  -6  -6  582.64   43.40
   0  -6  -5    5.80    4.00
   0  -6  -5    8.10    5.60
   0  -6  -5   -0.10    2.40
   0  -6  -5    9.90    5.60
   0  -6  -4   21.40    8.00
   0  -6  -4   16.40    7.90
   0  -6  -4   19.10    7.00
   0  -6  -3   87.89   16.10
   0  -6  -3   84.89   13.90
   0  -6  -2    4.00    4.60
   0  -6  -2    2.70    2.90
   0  -6  -2   -0.40    2.20
   0  -6  -1  910.11   47.20
   0  -6  -1  905.81   52.69
   0  -6   0  203.58   37.40
   0  -6   0  224.48   32.20
   0  -6   0  225.28   23.70
   0  -6   1   18.30   11.00
   0  -6   1    3.70   11.30
   0  -6   1   12.60    3.70
   0  -6   1   18.50    7.70
   0  -6   2   15.30   10.80
   0  -6   2   20.10   15.30
   0  -6   2   17.80    4.50
   0  -6   2   19.30    8.00
   0  -6   3   32.40   17.30
   0  -6   3   39.80   16.20
   0  -6   4   54.49   26.60
   0  -6   5   51.69   31.10
   0  -6   6   47.10   29.40
   0  -6   7   12.80   21.30
   0  -6   7  103.09   21.40
   0  -6   8   23.70   23.30
   0  -6   8   16.80   10.20
   0  -6   9   16.00   15.60
   0  -6   9    9.40    8.40
   0  -6  10    1.60   18.10
   0  -6  10    4.60   11.20
   0  -5 -15   42.30   26.40
   0  -5 -14   29.00   21.00
   0  -5 -13    3.20   13.00
   0  -5 -12   16.90   12.50
   0  -5 -12   18.10    8.40
   0  -5 -11  199.68   39.20
   0  -5 -11  184.88   23.20
   0  -5 -10  548.55   60.99
   0  -5 -10  493.55   44.60
   0  -5 -10  489.05   36.10
   0  -5  -9  203.18   34.70
   0  -5  -9  194.88   25.50
   0  -5  -9  215.48   21.80
   0  -5  -9  230.48   30.80
   0  -5  -8   33.70   11.10
   0  -5  -8   26.60    8.50
   0  -5  -8   37.40   12.70
   0  -5  -8   17.50    8.30
   0  -5  -8   39.90    8.60
   0  -5  -8   30.50   10.00
   0  -5  -7   80.69   16.20
   0  -5  -7  121.99   23.30
   0  -5  -7  104.39   19.60
   0  -5  -7  104.59   13.10
   0  -5  -7  113.99   19.10
   0  -5  -7  125.49   20.20
   0  -5  -6    0.90    3.90
   0  -5  -6    7.40    4.70
   0  -5  -6   -0.60    1.90
   0  -5  -6    0.90    3.00
   0  -5  -5  185.38   23.70
   0  -5  -5  193.18   15.60
   0  -5  -5  247.68   26.00
   0  -5  -5  275.27   25.20
   0  -5  -4  397.36   32.90
   0  -5  -4  448.56   34.30
   0  -5  -4  451.75   31.20
   0  -5  -3 3585.34  110.19
   0  -5  -3 3712.33  104.39
   0  -5  -3 3668.93  111.39
   0  -5  -2 3014.40   90.29
   0  -5  -2 3200.78  101.89
   0  -5  -1  614.04   45.90
   0  -5  -1  675.03   37.20
   0  -5  -1  697.73   38.90
   0  -5  -1  614.74   39.40
   0  -5   0    3.70    9.30
   0  -5   0   12.20    8.30
   0  -5   0    9.20    4.50
   0  -5   1  597.24   25.80
   0  -5   1  637.74   39.10
   0  -5   1  616.74   52.09
   0  -5   1  616.84   63.09
   0  -5   2  809.82   30.80
   0  -5   2  913.01   50.69
   0  -5   2  936.11   68.49
   0  -5   2  754.72   76.89
   0  -5   3  561.04   26.00
   0  -5   3  629.84   61.79
   0  -5   3  517.25   66.89
   0  -5   4   44.80    6.80
   0  -5   4   72.79   14.60
   0  -5   4   76.19   23.90
   0  -5   4   36.60   21.30
   0  -5   5    3.80    2.00
   0  -5   5    2.50    3.40
   0  -5   6    6.80    2.30
   0  -5   6    8.10    5.10
   0  -5   6   18.80   22.30
   0  -5   7    6.70    2.70
   0  -5   7    6.10    4.60
   0  -5   8   60.59   32.80
   0  -5   8   86.69   20.60
   0  -5   9   20.50   24.10
   0  -5   9   49.40   17.90
   0  -5   9   74.79   22.70
   0  -5  10   18.20   26.20
   0  -5  10   46.70   18.00
   0  -5  10   28.60   16.50
   0  -5  11  -29.30   23.80
   0  -5  11    0.80    9.30
   0  -4 -15   24.20   14.10
   0  -4 -15   11.60   16.40
   0  -4 -14  -12.40   13.70
   0  -4 -13   41.30   22.30
   0  -4 -12  110.09   30.80
   0  -4 -11  238.78   42.90
   0  -4 -11  164.58   22.50
   0  -4 -10   12.70   12.40
   0  -4 -10   17.60    6.80
   0  -4  -9    6.80    7.60
   0  -4  -9   -0.90    6.20
   0  -4  -9   -2.10   12.30
   0  -4  -9    3.50    3.60
   0  -4  -9    1.10    4.70
   0  -4  -8  170.98   29.90
   0  -4  -8  177.48   22.60
   0  -4  -8  202.98   20.00
   0  -4  -8  219.88   28.20
   0  -4  -8  227.58   28.20
   0  -4  -7  491.85   29.20
   0  -4  -7  578.24   42.10
   0  -4  -7  514.15   40.00
   0  -4  -6 1629.04   76.09
   0  -4  -6 1770.72   57.09
   0  -4  -6 1814.52   74.39
   0  -4  -5  944.61   36.90
   0  -4  -5 1000.60   49.99
   0  -4  -5 1048.90   51.29
   0  -4  -4  233.28   24.10
   0  -4  -4  253.47   16.50
   0  -4  -4  286.47   24.70
   0  -4  -4  282.67   24.00
   0  -4  -4  308.27   23.40
   0  -4  -3  106.09   14.80
   0  -4  -3  124.09   15.70
   0  -4  -3  125.09   14.20
   0  -4  -2  544.75   29.70
   0  -4  -2  457.45   29.20
   0  -4  -2  516.75   31.30
   0  -4  -1 7263.57  164.78
   0  -4  -1 7503.45  172.78
   0  -4   0 1152.88   46.60
   0  -4   0 1180.38   61.09
   0  -4   1  832.92   33.10
   0  -4   1  808.02   28.40
   0  -4   1  853.31   41.80
   0  -4   1  811.32   53.79
   0  -4   1  853.21   65.79
   0  -4   2  267.17   15.20
   0  -4   2  283.47   17.40
   0  -4   2  325.37   36.20
   0  -4   2  233.18   40.00
   0  -4   3   92.19    9.90
   0  -4   3   87.49   13.40
   0  -4   3   77.99   27.20
   0  -4   3   67.49   18.40
   0  -4   4  166.78   13.70
   0  -4   4  221.38   22.60
   0  -4   4  187.78   33.40
   0  -4   4  144.19   35.00
   0  -4   5  181.68   15.20
   0  -4   5  192.28   23.20
   0  -4   5  169.58   35.70
   0  -4   5  124.59   34.90
   0  -4   6  195.88   17.50
   0  -4   6  242.78   28.10
   0  -4   6  165.48   39.70
   0  -4   7  388.96   26.90
   0  -4   7  461.05   42.10
   0  -4   8  202.28   20.50
   0  -4   8  170.98   45.50
   0  -4   8  284.77   35.50
   0  -4   9    1.50   13.70
   0  -4   9    2.10    6.50
   0  -4   9   -0.40    8.50
   0  -4  10   49.20   30.60
   0  -4  10   18.20   10.40
   0  -4  10   26.60   15.00
   0  -4  11   -1.30   11.80
   0  -4  11   47.20   18.00
   0  -4  11   28.70   17.70
   0  -3 -15   11.10   12.20
   0  -3 -14   57.89   18.70
   0  -3 -14   38.30   19.70
   0  -3 -13   36.10   22.90
   0  -3 -12  -20.90   14.60
   0  -3 -11   20.00   14.90
   0  -3 -11   14.40   12.80
   0  -3 -11   12.50    7.10
   0  -3 -10  531.25   61.69
   0  -3 -10  439.36   36.90
   0  -3  -9   58.49   18.60
   0  -3  -9   34.40   12.50
   0  -3  -9   79.19   14.30
   0  -3  -8   10.20    6.70
   0  -3  -8   -4.00    9.90
   0  -3  -8   -1.40    7.60
   0  -3  -8    7.00    3.80
   0  -3  -8    0.00    3.60
   0  -3  -7   51.29   12.40
   0  -3  -7   54.29   12.00
   0  -3  -7   46.80    9.00
   0  -3  -7   57.89   12.90
   0  -3  -6   25.40    8.00
   0  -3  -6    5.80    4.20
   0  -3  -6   26.90    9.20
   0  -3  -6   15.40    4.70
   0  -3  -6   17.20    5.30
   0  -3  -5   38.40    9.20
   0  -3  -5   19.40    6.10
   0  -3  -5   35.60    9.60
   0  -3  -5   29.30    5.90
   0  -3  -5   27.00    7.60
   0  -3  -4   18.70    5.90
   0  -3  -4   12.60    5.90
   0  -3  -4   18.70    4.10
   0  -3  -4   15.00    4.90
   0  -3  -3  192.08   18.60
   0  -3  -3  222.98   13.50
   0  -3  -3  217.78   18.50
   0  -3  -3  239.48   18.10
   0  -3  -3  215.88   17.80
   0  -3  -2 1650.93   56.19
   0  -3  -2 1656.33   56.09
   0  -3  -1 8412.36  167.58
   0  -3  -1 8093.19  169.38
   0  -3   0   78.89   13.30
   0  -3   0   88.99   10.30
   0  -3   0   78.59   10.50
   0  -3   1  212.88   11.70
   0  -3   1  228.68   13.90
   0  -3   1  209.28   17.40
   0  -3   1  229.78   24.50
   0  -3   1  239.08   31.00
   0  -3   2  561.14   21.90
   0  -3   2  564.94   23.00
   0  -3   2  643.34   30.70
   0  -3   2  579.34   44.20
   0  -3   2  541.65   51.59
   0  -3   3  617.84   25.20
   0  -3   3  595.64   58.49
   0  -3   3  672.33   53.79
   0  -3   3  682.53   34.90
   0  -3   4  578.74   54.99
   0  -3   4  492.55   57.49
   0  -3   4  597.24   36.20
   0  -3   5   30.00   15.90
   0  -3   5   16.40   15.60
   0  -3   5   10.60    5.30
   0  -3   6   -9.20   17.60
   0  -3   6    2.20    8.40
   0  -3   6   -7.00    5.50
   0  -3   7   -2.50    9.10
   0  -3   7    6.20    4.90
   0  -3   8   62.39   25.70
   0  -3   8   56.19   15.60
   0  -3   8   61.89   18.40
   0  -3   9   74.09   31.10
   0  -3   9  173.08   29.00
   0  -3   9  143.89   28.50
   0  -3  10    6.80   12.50
   0  -3  10   36.90   14.30
   0  -3  10   21.50   11.90
   0  -3  11   -0.10   15.20
   0  -3  11   24.10   12.00
   0  -3  11   15.40   13.10
   0  -3  12    2.80   11.30
   0  -3  12    8.60    9.40
   0  -3  12    3.80    8.70
   0  -2 -14   18.50   18.40
   0  -2 -14   40.90   15.10
   0  -2 -13    9.10    8.30
   0  -2 -13   52.19   16.80
   0  -2 -12   60.69   22.80
   0  -2 -12   45.60   14.10
   0  -2 -11   39.10   18.40
   0  -2 -11   16.30   10.10
   0  -2 -10   31.10   13.70
   0  -2 -10   53.79   21.80
   0  -2  -9   97.99   25.90
   0  -2  -8   49.60   15.80
   0  -2  -8  115.59   25.80
   0  -2  -8   92.49   18.30
   0  -2  -7   -5.30    5.10
   0  -2  -7  -13.30    7.30
   0  -2  -7    1.10    4.00
   0  -2  -7    7.50    5.70
   0  -2  -6  267.07   27.80
   0  -2  -6  351.06   29.80
   0  -2  -6  342.67   29.10
   0  -2  -5  729.83   47.40
   0  -2  -5  628.14   35.80
   0  -2  -5  703.33   38.90
   0  -2  -5  680.43   38.50
   0  -2  -4   39.50    7.90
   0  -2  -4   27.90    6.40
   0  -2  -4   49.50   10.90
   0  -2  -4   33.10    5.50
   0  -2  -4   37.10    7.70
   0  -2  -3    5.30    3.20
   0  -2  -3    1.20    1.30
   0  -2  -3    6.20    3.10
   0  -2  -2 1756.22   41.80
   0  -2  -2 1708.13   50.29
   0  -2  -1 1787.42   49.99
   0  -2  -1 1843.52   50.89
   0  -2  -1 1919.11   48.70
   0  -2   0 2572.44   59.89
   0  -2   0 2511.95   73.29
   0  -2   0 2578.24   62.69
   0  -2   0 2551.44   65.59
   0  -2   1  188.88    9.50
   0  -2   1  200.98   10.70
   0  -2   1  174.58   12.70
   0  -2   1  201.48   14.50
   0  -2   1  183.98   18.60
   0  -2   1  170.48   21.30
   0  -2   2  500.95   20.10
   0  -2   2  470.45   35.50
   0  -2   2  492.45   42.20
   0  -2   2  517.55   24.60
   0  -2   3   82.19   16.90
   0  -2   3   73.39   20.20
   0  -2   3   75.49   10.10
   0  -2   4  181.98   31.40
   0  -2   4  241.88   33.10
   0  -2   4  261.67   22.20
   0  -2   5    9.40   10.50
   0  -2   5   25.80   11.00
   0  -2   5   35.80    9.90
   0  -2   6   -0.10    5.40
   0  -2   6    5.30   12.50
   0  -2   6    5.50    4.00
   0  -2   7  119.49   28.40
   0  -2   7  122.59   31.50
   0  -2   7  128.19   21.10
   0  -2   7  137.19   23.20
   0  -2   8  197.08   41.20
   0  -2   8  239.98   30.50
   0  -2   8  237.58   32.90
   0  -2   9   -1.90    8.10
   0  -2   9   12.00    8.10
   0  -2  10   26.50   15.40
   0  -2  10   11.40    9.30
   0  -2  10    1.30    5.40
   0  -2  11   24.60   16.80
   0  -2  11   19.50   11.00
   0  -2  11   29.70   15.90
   0  -2  12    0.70   11.20
   0  -2  12   37.90   17.30
   0  -2  12   30.10   16.60
   0  -2  13    6.00    6.70
   0  -2  13  -26.00   15.20
   0  -1 -14   19.70   11.60
   0  -1 -13    0.20   14.30
   0  -1 -13    9.80    8.20
   0  -1 -12    5.30    9.60
   0  -1 -12    1.00    5.00
   0  -1 -11   47.00   19.00
   0  -1 -11   37.50   19.40
   0  -1 -11   49.60   14.70
   0  -1 -10  426.86   55.79
   0  -1 -10  342.67   46.20
   0  -1  -9  129.69   26.60
   0  -1  -9  458.15   54.29
   0  -1  -8  240.08   37.10
   0  -1  -8  148.29   27.20
   0  -1  -8  191.08   26.80
   0  -1  -7   13.90    8.00
   0  -1  -7   19.20   10.10
   0  -1  -7    6.70    5.20
   0  -1  -6   41.50   12.20
   0  -1  -6   55.59   12.10
   0  -1  -5  436.46   39.10
   0  -1  -5  422.36   30.40
   0  -1  -4  962.40   47.40
   0  -1  -4  956.80   43.00
   0  -1  -4  941.81   42.10
   0  -1  -3   17.40    6.10
   0  -1  -3   15.20    4.40
   0  -1  -3   15.00    4.60
   0  -1  -3   15.20    4.60
   0  -1  -2 3397.86   76.29
   0  -1  -2 3301.77   75.39
   0  -1  -1 1599.84   40.50
   0  -1  -1 1587.54   38.90
   0  -1   0   45.00    5.60
   0  -1   0   48.90    4.40
   0  -1   0   47.40    4.80
   0  -1   1    5.50    1.30
   0  -1   1    2.90    2.50
   0  -1   1    2.20    3.60
   0  -1   1    5.20    1.70
   0  -1   2  279.77   24.40
   0  -1   2  240.48   26.10
   0  -1   2  290.37   16.50
   0  -1   3  372.06   34.10
   0  -1   3  442.26   24.50
   0  -1   4  975.90   64.09
   0  -1   4 1021.60   44.00
   0  -1   5   12.20    8.00
   0  -1   5   10.50    8.60
   0  -1   5    6.20    3.80
   0  -1   6   56.29   18.30
   0  -1   6   72.19   21.30
   0  -1   6   96.69   16.00
   0  -1   6   71.09   14.90
   0  -1   7   47.60   17.90
   0  -1   7   32.10   14.60
   0  -1   7   48.70   12.80
   0  -1   7   24.50    9.50
   0  -1   8  173.38   32.70
   0  -1   8  237.98   30.50
   0  -1   8  224.38   31.40
   0  -1   9  396.86   51.89
   0  -1   9  533.05   48.60
   0  -1   9  418.06   45.10
   0  -1  10   64.09   22.00
   0  -1  10   98.29   22.70
   0  -1  10   61.09   18.40
   0  -1  11  -11.50   12.30
   0  -1  11    8.80    7.20
   0  -1  11   -3.90    6.60
   0  -1  12    0.30    8.50
   0  -1  12    1.00    6.40
   0  -1  13   -5.90    7.40
   0  -1  13    6.90    9.30
   0   0 -13   14.70   18.30
   0   0 -13   67.29   17.90
   0   0 -12  143.89   37.10
   0   0 -12   99.79   19.80
   0   0 -11   56.39   21.50
   0   0 -11   77.09   25.20
   0   0 -11   66.29   15.50
   0   0 -10   52.79   22.70
   0   0 -10   57.79   18.90
   0   0 -10   43.70   12.40
   0   0  -9   71.79   21.70
   0   0  -9   96.89   25.30
   0   0  -9  106.09   18.30
   0   0  -8  155.28   30.20
   0   0  -8  173.48   22.30
   0   0  -8  193.28   27.60
   0   0  -7  145.99   27.70
   0   0  -7   91.59   21.00
   0   0  -6  366.46   41.30
   0   0  -6  426.76   43.00
   0   0  -5 1277.27   72.49
   0   0  -5 1073.89   65.99
   0   0  -4  344.77   33.10
   0   0  -4  422.76   37.20
   0   0  -3   98.69   15.40
   0   0  -3  117.39   17.30
   0   0  -2 1218.38   50.49
   0   0  -2 1703.93   57.79
   0   0   1 2332.87   59.19
   0   0   2 1782.22   60.19
   0   0   2 1858.01   50.69
   0   0   3   99.49   15.20
   0   0   3   96.79   15.70
   0   0   3  102.89   11.90
   0   0   4  419.96   38.40
   0   0   4  439.96   35.40
   0   0   4  416.46   26.00
   0   0   4  435.36   29.30
   0   0   5 1087.99   70.79
   0   0   5 1189.08   66.19
   0   0   5 1222.78   52.29
   0   0   5 1284.87   57.79
   0   0   6  389.56   39.40
   0   0   6  387.76   45.40
   0   0   6  476.85   35.10
   0   0   6  472.15   37.50
   0   0   7  124.19   27.70
   0   0   7   85.09   20.90
   0   0   7  108.69   18.10
   0   0   7  101.29   18.40
   0   0   8  160.98   28.90
   0   0   8  161.48   33.30
   0   0   8  210.88   27.50
   0   0   8  157.28   25.50
   0   0   9   50.79   17.30
   0   0   9   98.59   21.00
   0   0   9   96.39   21.50
   0   0  10   49.50   17.90
   0   0  10   77.79   20.00
   0   0  10   53.69   16.90
   0   0  11   49.80   20.10
   0   0  11   98.29   23.60
   0   0  11   76.79   20.90
   0   0  12   66.39   26.30
   0   0  12  136.49   29.90
   0   0  12  101.39   26.10
   0   0  13   41.40   18.90
   0   0  13   48.10   19.80
   0   0  14    8.00   11.80
   0   0  14    1.10    6.20
   0   1 -12    2.00    4.10
   0   1 -12   13.20   13.60
   0   1 -11   -2.50    3.90
   0   1 -11    4.40    7.40
   0   1 -10   74.09   15.80
   0   1 -10  107.19   28.90
   0   1 -10   43.00   20.30
   0   1  -9  434.16   35.30
   0   1  -9  440.16   53.09
   0   1  -9  520.35   61.89
   0   1  -8  217.28   24.30
   0   1  -8  198.88   35.80
   0   1  -8  159.18   31.50
   0   1  -7   41.40   10.00
   0   1  -7   19.40   10.90
   0   1  -7   49.90   17.30
   0   1  -6   71.79   12.10
   0   1  -6   75.99   19.70
   0   1  -6   80.19   18.90
   0   1  -5    8.60    4.10
   0   1  -5   -0.20    5.00
   0   1  -4 1046.00   41.10
   0   1  -4 1091.29   63.49
   0   1  -3  411.56   21.20
   0   1  -3  454.95   35.50
   0   1  -3  364.86   33.30
   0   1  -2  272.47   13.60
   0   1  -2  256.87   15.20
   0   1  -2  258.17   23.90
   0   1  -1    3.00    1.20
   0   1  -1    7.70    4.00
   0   1  -1    4.60    1.60
   0   1   1 1489.95   36.20
   0   1   2 3428.16   77.29
   0   1   3   13.70    4.30
   0   1   3    7.60    3.80
   0   1   3   12.20    4.20
   0   1   4  925.01   50.29
   0   1   4 1003.40   43.30
   0   1   5  409.16   37.00
   0   1   5  426.96   30.70
   0   1   6   42.90   12.30
   0   1   6   49.80   14.10
   0   1   6   57.89   11.90
   0   1   7    2.00    5.60
   0   1   7   16.50    9.60
   0   1   7   12.00    6.70
   0   1   8  103.59   22.00
   0   1   8  200.38   34.70
   0   1   8  183.78   25.30
   0   1   8  154.98   24.10
   0   1   9  321.87   40.80
   0   1   9  437.56   44.70
   0   1  10  290.27   40.70
   0   1  10  450.05   46.40
   0   1  10  393.76   44.20
   0   1  11   27.00   16.60
   0   1  11   45.70   16.60
   0   1  11   22.50   13.40
   0   1  12   -9.70   10.30
   0   1  12   -4.30    8.60
   0   1  12   -9.30    8.60
   0   1  13   17.70   12.70
   0   1  13  -11.70   10.30
   0   1  14   33.30   19.00
   0   1  14   48.50   20.90
   0   2 -12   30.90   20.00
   0   2 -11   30.10    9.60
   0   2 -11   37.30   18.40
   0   2 -10   18.50    7.70
   0   2 -10   30.60   18.10
   0   2  -9    7.80    5.60
   0   2  -9   25.50   14.70
   0   2  -8  228.58   23.20
   0   2  -8  252.77   41.70
   0   2  -8  212.98   36.30
   0   2  -7  142.89   17.10
   0   2  -7  127.09   27.70
   0   2  -7  120.29   27.50
   0   2  -6    3.00    3.60
   0   2  -6   -2.60    5.70
   0   2  -6   13.30   11.40
   0   2  -5   22.60    6.30
   0   2  -5   29.90   12.00
   0   2  -4  266.97   17.70
   0   2  -4  245.38   20.70
   0   2  -4  274.57   33.20
   0   2  -3   81.69    8.40
   0   2  -3   76.29   11.50
   0   2  -3   73.19   10.00
   0   2  -3  101.99   18.80
   0   2  -2  517.15   19.40
   0   2  -2  500.55   38.40
   0   2  -2  494.95   26.90
   0   2  -2  478.45   23.10
   0   2  -1  208.38   13.00
   0   2  -1  194.68   14.10
   0   2   0 2414.86   62.79
   0   2   0 2646.74   66.69
   0   2   1 1787.22   49.00
   0   2   1 1899.51   50.59
   0   2   1 1773.92   49.00
   0   2   1 1737.53   46.60
   0   2   2 1768.32   42.00
   0   2   2 1736.43   49.90
   0   2   3    6.00    3.00
   0   2   3    2.50    2.50
   0   2   4   40.60    8.20
   0   2   4   35.90    7.50
   0   2   5  693.33   38.10
   0   2   6  328.67   34.00
   0   2   6  336.87   29.10
   0   2   7    3.20    4.10
   0   2   7    6.10    4.40
   0   2   8  108.19   24.20
   0   2   8   37.70   12.70
   0   2   8   78.09   17.10
   0   2   9   43.30   15.50
   0   2   9   66.29   20.10
   0   2   9   90.99   19.20
   0   2  10    4.80    8.40
   0   2  10   34.20   14.20
   0   2  10   42.10   14.10
   0   2  11   70.19   20.00
   0   2  11   47.20   16.90
   0   2  12   47.70   16.60
   0   2  12   33.40   14.00
   0   2  13   33.70   16.60
   0   2  13   24.50   14.80
   0   2  14   58.99   23.10
   0   2  14   47.90   20.20
   0   2  15    6.50   13.50
   0   3 -11    3.00   12.00
   0   3 -10   41.00   21.00
   0   3 -10   27.90    8.90
   0   3  -9  159.68   35.90
   0   3  -9  151.38   19.50
   0   3  -8   58.49   17.50
   0   3  -8   62.29   11.80
   0   3  -7   -1.10   11.10
   0   3  -7    9.40    4.80
   0   3  -6   -8.60    8.50
   0   3  -6   -2.30    2.50
   0   3  -6   -2.00    6.50
   0   3  -5    9.60    4.10
   0   3  -5   16.00    5.60
   0   3  -5    8.90    4.60
   0   3  -5   18.90    7.00
   0   3  -4  581.44   27.10
   0   3  -4  574.84   34.00
   0   3  -4  614.24   40.00
   0   3  -3  700.23   27.10
   0   3  -3  673.43   33.70
   0   3  -3  688.13   39.50
   0   3  -2  615.14   22.20
   0   3  -2  557.64   32.00
   0   3  -2  534.35   27.40
   0   3  -1  217.48   12.70
   0   3  -1  251.27   24.60
   0   3  -1  211.28   15.50
   0   3  -1  215.98   17.50
   0   3  -1  249.58   20.70
   0   3   0  108.79   10.30
   0   3   0  102.19   11.30
   0   3   0  102.49   12.40
   0   3   1 8060.89  172.68
   0   3   1 8166.18  171.38
   0   3   1 8353.96  176.78
   0   3   2 1726.33   56.19
   0   3   2 1748.23   46.30
   0   3   2 1658.13   54.69
   0   3   2 1723.43   52.49
   0   3   2 1778.22   57.09
   0   3   3  245.68   14.30
   0   3   3  209.28   17.40
   0   3   3  249.58   19.30
   0   3   4   14.90    5.90
   0   3   4   18.40    4.10
   0   3   4   20.40    6.20
   0   3   5   43.80    9.60
   0   3   5   29.70    7.10
   0   3   6    8.50    4.50
   0   3   7   56.99   12.70
   0   3   8    3.70    3.70
   0   3   9   97.89   19.50
   0   3  10  483.25   46.60
   0   3  11   30.00   12.70
   0   3  11   20.00   11.50
   0   3  12    7.30    8.50
   0   3  12    4.10    5.80
   0   3  13   25.80   14.80
   0   3  13   48.80   18.50
   0   3  14   58.69   22.90
   0   3  14   62.69   21.70
   0   3  15   10.50   11.90
   0   4 -10   21.30   14.10
   0   4  -9    6.20    4.70
   0   4  -9  -11.50   11.70
   0   4  -8  264.37   23.70
   0   4  -8  323.57   51.89
   0   4  -7  395.26   27.80
   0   4  -7  477.45   59.49
   0   4  -6  267.07   21.00
   0   4  -6  309.17   45.30
   0   4  -5  195.78   16.70
   0   4  -5  204.08   22.50
   0   4  -5  195.78   26.20
   0   4  -5  229.98   36.90
   0   4  -4  205.88   15.50
   0   4  -4  209.08   32.60
   0   4  -4  212.18   24.90
   0   4  -4  169.38   18.90
   0   4  -3   90.79   15.10
   0   4  -3   80.99   12.00
   0   4  -2  293.17   24.90
   0   4  -2  256.07   20.40
   0   4  -1  862.41   31.90
   0   4  -1  820.12   52.19
   0   4  -1  814.42   36.40
   0   4  -1  878.21   41.90
   0   4  -1  846.42   44.40
   0   4   0 1187.58   43.30
   0   4   0 1195.58   48.30
   0   4   0 1294.67   53.59
   0   4   1 7040.00  163.28
   0   4   1 7070.09  160.38
   0   4   1 7246.67  162.68
   0   4   2  563.74   31.60
   0   4   2  563.54   29.90
   0   4   2  525.75   30.80
   0   4   2  533.05   31.80
   0   4   3  127.79   15.60
   0   4   3  112.09   10.80
   0   4   3   94.39   12.60
   0   4   3  112.39   14.70
   0   4   4  293.77   18.00
   0   4   4  274.27   23.70
   0   4   4  292.07   23.60
   0   4   5  991.20   49.00
   0   4   5  957.60   35.90
   0   4   5  973.30   47.80
   0   4   6 1940.61   76.09
   0   4   6 1745.73   71.29
   0   4   7  495.75   39.60
   0   4   7  445.16   35.70
   0   4   8  187.28   25.10
   0   4   9    8.20    5.90
   0   4  10   36.20   12.00
   0   4  11  194.48   31.50
   0   4  12   78.79   20.90
   0   4  13   12.50   10.60
   0   4  13   11.70    9.50
   0   4  14   10.70    9.50
   0   4  14    2.80    5.20
   0   4  15   10.20   11.90
   0   5 -10   26.90   17.80
   0   5  -9   29.30   15.80
   0   5  -8   80.19   12.40
   0   5  -8   78.19   26.70
   0   5  -7   10.80    5.00
   0   5  -7    5.50   10.00
   0   5  -6    4.80    8.20
   0   5  -6    4.90    3.80
   0   5  -5   -5.10   10.70
   0   5  -5    2.30    2.70
   0   5  -4   52.49   11.20
   0   5  -4   39.10   11.30
   0   5  -3  618.44   55.99
   0   5  -3  665.63   44.60
   0   5  -3  577.34   35.90
   0   5  -2  858.91   61.59
   0   5  -2  904.71   49.70
   0   5  -2  815.52   41.40
   0   5  -2  913.51   53.69
   0   5  -1  569.74   28.10
   0   5  -1  579.64   33.00
   0   5  -1  617.54   38.60
   0   5  -1  622.04   41.70
   0   5   0    5.20    3.30
   0   5   0   11.80    5.90
   0   5   0    9.80    4.90
   0   5   0   14.60    6.00
   0   5   1  601.54   35.30
   0   5   1  623.84   35.90
   0   5   1  645.24   36.40
   0   5   2 3192.48   95.79
   0   5   2 3191.48   92.09
   0   5   2 3239.48   99.09
   0   5   3 3744.63  108.39
   0   5   3 3594.64   90.89
   0   5   3 3333.77  104.19
   0   5   3 3538.45  100.79
   0   5   3 3706.73  109.29
   0   5   4  439.06   33.90
   0   5   4  434.96   24.40
   0   5   4  448.26   32.70
   0   5   4  387.26   29.60
   0   5   5  251.87   18.20
   0   5   5  249.38   25.00
   0   5   5  227.48   23.20
   0   5   6    5.60    4.40
   0   5   6   11.00    4.50
   0   5   6   -2.50    5.60
   0   5   7  107.29   18.70
   0   5   7  110.69   18.00
   0   5   8   54.29   14.70
   0   5   8   19.60    8.20
   0   5   9  204.68   29.50
   0   5   9  199.88   27.60
   0   5  10  517.45   48.10
   0   5  11  221.08   33.00
   0   5  12    0.30    7.10
   0   5  13    9.20    7.00
   0   5  14   31.10   16.20
   0   5  14   21.20   14.90
   0   5  15   85.29   26.90
   0   6  -9   12.00   15.90
   0   6  -8   20.20   14.10
   0   6  -7  105.39   30.70
   0   6  -6   91.09   18.10
   0   6  -6  136.09   32.70
   0   6  -5   86.49   16.40
   0   6  -5   84.49   23.70
   0   6  -4   85.29   19.80
   0   6  -4   48.70   18.60
   0   6  -4   70.59   14.10
   0   6  -3   35.50   12.30
   0   6  -3   22.80   12.30
   0   6  -3   40.20    9.80
   0   6  -3   42.70   12.20
   0   6  -2   11.20    6.10
   0   6  -2   17.60    6.40
   0   6  -2   16.60    6.90
   0   6  -1   15.60    5.00
   0   6  -1    6.80    4.40
   0   6  -1   17.00    6.40
   0   6  -1   19.10    7.40
   0   6   0  192.58   19.40
   0   6   0  219.48   21.60
   0   6   0  218.88   23.40
   0   6   0  228.18   26.20
   0   6   1  828.52   44.90
   0   6   1  866.41   47.20
   0   6   1  950.60   49.30
   0   6   1 1023.20   54.29
   0   6   2    5.70    5.50
   0   6   2    1.90    5.10
   0   6   2   -4.40    6.80
   0   6   2    0.10    3.10
   0   6   3   82.79   15.30
   0   6   3   58.39   12.70
   0   6   3   69.79   13.00
   0   6   3   80.79   13.30
   0   6   4   19.40    7.90
   0   6   4   11.70    8.10
   0   6   4   16.40    4.80
   0   6   4   18.10    6.40
   0   6   4   12.20    7.20
   0   6   5    7.30    5.20
   0   6   5    7.00    3.40
   0   6   5   -0.90    5.30
   0   6   6  579.94   30.60
   0   6   6  500.25   38.90
   0   6   6  610.24   43.50
   0   6   7  486.55   40.40
   0   6   7  437.16   37.60
   0   6   8  166.38   25.00
   0   6   8  172.48   24.60
   0   6   9   98.69   20.70
   0   6   9  109.69   20.90
   0   6  10   23.60   12.60
   0   6  10   13.00    8.20
   0   6  11  267.17   36.60
   0   6  12  137.19   27.50
   0   6  13   28.80   14.10
   0   6  14    1.10    6.20
   0   6  15  -15.80   12.00
   0   7  -8   20.50   16.50
   0   7  -8   40.60   23.10
   0   7  -7   15.70   11.90
   0   7  -7   -1.00   10.10
   0   7  -6   38.90   14.50
   0   7  -6   81.69   27.20
   0   7  -5    8.90    8.80
   0   7  -5   23.70    9.60
   0   7  -5   10.30   11.20
   0   7  -4    7.70    8.40
   0   7  -4   21.20    7.40
   0   7  -3  132.79   19.50
   0   7  -3  168.38   27.80
   0   7  -2   68.39   16.20
   0   7  -2  105.29   16.90
   0   7  -2   90.59   18.10
   0   7  -1  134.09   22.20
   0   7  -1  111.59   17.10
   0   7  -1  119.19   19.70
   0   7   0   28.80   10.00
   0   7   0    8.00    4.40
   0   7   0   18.90    7.40
   0   7   0   22.00    8.40
   0   7   1    6.90    4.70
   0   7   1    2.40    5.20
   0   7   1   -3.10    6.30
   0   7   1   -0.50    3.70
   0   7   2 1336.87   67.29
   0   7   2 1460.55   68.19
   0   7   2 1594.74   75.19
   0   7   2 1577.84   69.29
   0   7   3  777.12   53.89
   0   7   3  945.11   53.99
   0   7   3  954.50   52.19
   0   7   3  904.51   55.79
   0   7   4   25.20    8.80
   0   7   4   63.39   14.80
   0   7   4   72.49   11.50
   0   7   4   67.19   13.90
   0   7   4   57.29   12.30
   0   7   5   -0.10    4.30
   0   7   5   15.90    5.90
   0   7   5   12.90    7.90
   0   7   6   42.00   12.30
   0   7   6   42.40    8.80
   0   7   6   44.70   12.70
   0   7   7  221.08   28.40
   0   7   7  211.18   19.00
   0   7   7  158.28   23.60
   0   7   8  202.38   28.30
   0   7   8  170.18   24.90
   0   7   9   47.00   15.40
   0   7   9   24.80   10.50
   0   7  10   18.30   10.30
   0   7  10   13.00    7.50
   0   7  11   69.89   19.80
   0   7  11   48.30   16.30
   0   7  12    6.90    6.70
   0   7  13   20.20   10.60
   0   7  14   17.00   11.70
   0   7  15    7.80   13.60
   0   8  -7   43.00   18.70
   0   8  -6  110.39   28.60
   0   8  -5   15.10   10.50
   0   8  -4   27.30   12.40
   0   8  -4   25.30    9.50
   0   8  -3    4.90    6.60
   0   8  -3   10.40    6.50
   0   8  -2  160.68   22.60
   0   8  -2  180.78   30.00
   0   8  -1  357.06   33.20
   0   8  -1  382.86   41.60
   0   8   0  457.35   34.30
   0   8   0  473.35   37.70
   0   8   0  455.85   40.90
   0   8   0  476.65   44.70
   0   8   1  178.88   22.90
   0   8   1  222.98   27.30
   0   8   1  218.08   25.10
   0   8   1  211.28   28.60
   0   8   2  110.29   21.00
   0   8   2  101.19   19.20
   0   8   2  124.99   19.90
   0   8   3   81.69   17.50
   0   8   3  112.49   20.40
   0   8   3  131.29   20.00
   0   8   4  494.75   46.60
   0   8   4  640.74   38.80
   0   8   4  636.74   44.40
   0   8   4  586.04   48.40
   0   8   5  165.58   27.80
   0   8   5  198.18   27.50
   0   8   5  187.28   20.30
   0   8   5  132.39   22.00
   0   8   5  207.98   28.80
   0   8   6  120.79   24.70
   0   8   6  187.78   19.60
   0   8   6  189.78   26.90
   0   8   6  165.28   24.90
   0   8   7  207.68   20.40
   0   8   7  188.58   27.30
   0   8   7  174.68   26.20
   0   8   8   52.29   15.20
   0   8   8   44.90    8.80
   0   8   8   39.90   11.60
   0   8   9   82.29   19.50
   0   8   9   61.59   16.40
   0   8  10    0.30    6.80
   0   8  10    0.30    5.20
   0   8  11   80.89   21.70
   0   8  11   67.09   18.10
   0   8  12  112.89   27.70
   0   8  12  120.59   26.70
   0   8  13   39.20   16.70
   0   8  14  -11.90   10.40
   0   9  -6  -23.80   15.50
   0   9  -5   50.89   18.50
   0   9  -4   74.49   22.40
   0   9  -3  103.99   25.50
   0   9  -2  172.88   31.10
   0   9  -2  161.28   24.20
   0   9  -1  139.29   27.10
   0   9  -1  127.39   21.00
   0   9   0   13.30    6.00
   0   9   0   21.50   10.30
   0   9   0   23.90    9.60
   0   9   1    2.40    4.40
   0   9   1    5.00    8.30
   0   9   1    1.50    5.70
   0   9   1   -0.90    3.70
   0   9   1   -2.90    5.40
   0   9   2  387.16   38.10
   0   9   2  433.76   40.00
   0   9   2  425.56   43.80
   0   9   2  392.06   38.00
   0   9   3  462.55   44.20
   0   9   3  515.45   44.30
   0   9   3  535.35   49.00
   0   9   3  518.05   43.60
   0   9   4  594.54   53.69
   0   9   4  722.03   53.19
   0   9   4  766.22   46.20
   0   9   4  721.33   56.09
   0   9   4  724.13   51.49
   0   9   5  152.28   25.60
   0   9   5   88.39   20.50
   0   9   5  126.89   17.90
   0   9   5  187.98   28.30
   0   9   5  127.69   21.40
   0   9   6   19.20   10.40
   0   9   6    5.50    8.60
   0   9   6   23.50    8.40
   0   9   6    3.80    7.40
   0   9   7  149.79   25.50
   0   9   7  171.38   19.90
   0   9   7  101.09   21.40
   0   9   8  474.45   47.30
   0   9   8  506.55   33.60
   0   9   8  415.86   44.50
   0   9   9  370.96   43.00
   0   9   9  338.07   40.40
   0   9  10  316.37   41.00
   0   9  10  262.07   36.70
   0   9  11  280.77   40.00
   0   9  11  241.68   37.30
   0   9  12   -1.30    7.80
   0   9  12    4.10    6.90
   0   9  13    8.00    8.60
   0   9  14   20.80   15.80
   0  10  -4   10.50   12.80
   0  10  -3   18.90   12.90
   0  10  -2    6.70    7.90
   0  10  -1   76.29   22.30
   0  10   0  177.18   22.40
   0  10   0  204.08   30.00
   0  10   0  226.58   35.30
   0  10   1  287.77   31.60
   0  10   1  293.97   35.20
   0  10   1  313.97   40.30
   0  10   2  262.47   32.40
   0  10   2  306.27   34.90
   0  10   2  320.37   40.40
   0  10   3   -9.10    9.20
   0  10   3  -12.20   12.50
   0  10   3    1.00    6.00
   0  10   4   66.59   18.60
   0  10   4   77.29   20.10
   0  10   4   46.40   14.70
   0  10   4   78.59   15.50
   0  10   5   76.89   19.60
   0  10   5   78.49   19.60
   0  10   5   54.49   13.00
   0  10   5   51.39   17.10
   0  10   6   73.99   18.50
   0  10   6   91.99   15.90
   0  10   7   89.39   21.40
   0  10   7  113.89   17.10
   0  10   8   35.40   13.90
   0  10   8   43.70   10.00
   0  10   8   17.30   10.90
   0  10   9   -4.40    6.40
   0  10   9    6.90    4.70
   0  10   9    1.20    7.00
   0  10  10    3.30    6.20
   0  10  10  -17.70   10.70
   0  10  11   13.90   10.30
   0  10  11   -4.20    9.40
   0  10  12  222.68   37.70
   0  10  12  105.89   27.10
   0  10  13  115.59   29.30
   0  10  13  119.59   29.70
   0  11  -3  -15.00   11.80
   0  11  -2   10.30   12.70
   0  11  -1   -5.80   10.30
   0  11  -1    3.60    6.80
   0  11   0   -3.20    6.10
   0  11   0   -2.30    6.30
   0  11   1   20.50   12.20
   0  11   1    3.50    6.70
   0  11   2   12.20    7.90
   0  11   2    9.00   10.50
   0  11   2   16.60    9.80
   0  11   3   86.99   20.10
   0  11   3  134.69   28.00
   0  11   3  104.19   22.20
   0  11   4   57.49   18.50
   0  11   4   49.30   15.90
   0  11   4   44.40   13.00
   0  11   5    2.70    7.90
   0  11   5    6.00    5.90
   0  11   6    1.10    5.90
   0  11   6    6.60    5.50
   0  11   7   -0.70    6.90
   0  11   7   -2.60    4.50
   0  11   8   59.19   17.60
   0  11   8   45.60   11.40
   0  11   9   82.69   22.10
   0  11   9   60.69   12.60
   0  11   9   70.19   19.80
   0  11  10   67.69   21.10
   0  11  10   62.29   18.30
   0  11  11   34.40   16.30
   0  11  11   32.10   15.20
   0  11  12   -2.80    8.60
   0  11  12    7.10    6.90
   0  11  13   14.40   11.40
   0  11  13    7.30   10.80
   0  12  -1   32.10   15.20
   0  12   0   45.10   19.10
   0  12   0   28.00   11.70
   0  12   1   37.90   16.60
   0  12   1   71.59   18.80
   0  12   2   32.80   14.50
   0  12   2   19.90   11.20
   0  12   3    6.20    8.50
   0  12   3  -11.50    9.00
   0  12   4   49.60   16.80
   0  12   4   46.10   15.60
   0  12   4   51.89   14.70
   0  12   5  180.48   33.00
   0  12   5  144.29   23.60
   0  12   5  132.39   28.30
   0  12   6   68.69   20.80
   0  12   6   60.79   15.20
   0  12   7   10.10   10.30
   0  12   7   24.90    9.20
   0  12   8   11.80    9.60
   0  12   8   -0.10    5.30
   0  12   9    8.00    7.70
   0  12   9   12.40    6.20
   0  12  10    9.80    8.80
   0  12  10   21.10   12.90
   0  12  11   20.00   12.80
   0  12  11    6.30    7.90
   0  12  12   46.20   20.30
   0  13   1   20.30   12.60
   0  13   2   93.79   25.90
   0  13   3  206.38   38.00
   0  13   3  106.19   25.30
   0  13   4   91.49   25.50
   0  13   4   30.70   15.60
   0  13   4   81.79   19.50
   0  13   5   49.70   19.80
   0  13   5   38.90   16.00
   0  13   5   21.00   10.50
   0  13   6    9.80    9.90
   0  13   6    7.90    5.50
   0  13   7    2.20    5.80
   0  13   7    4.30    3.70
   0  13   8  115.89   28.20
   0  13   9  102.09   27.20
   0  13  10  108.79   28.50
   0  14   3    9.10    7.60
   0  14   4  -26.60   16.00
   0  14   4    1.10    9.10
   0  14   5   60.89   18.80
   0  14   5   53.39   17.30
   0  14   6   75.99   24.90
   0  14   6   61.29   17.20
   0  14   7   38.10   16.60
   0  14   8   21.20   13.50
   1 -14  -9   22.20   18.70
   1 -14  -8   30.70   16.50
   1 -14  -7  -10.40    9.60
   1 -14  -6   32.00   26.00
   1 -14  -6    5.60    7.50
   1 -14  -5   58.79   21.30
   1 -14  -4   81.39   24.40
   1 -14  -3   54.59   22.60
   1 -13 -11   38.30   17.70
   1 -13 -10   21.30   13.50
   1 -13  -9  -10.60   12.40
   1 -13  -8   -2.60    6.10
   1 -13  -7  113.29   27.80
   1 -13  -6  153.98   33.20
   1 -13  -5  129.89   30.10
   1 -13  -4   39.70   19.20
   1 -13  -4   38.60   17.80
   1 -13  -3    4.80   17.70
   1 -13  -3   -4.60    7.60
   1 -13  -2    5.60   27.40
   1 -13  -2   41.40   17.20
   1 -13  -1   52.89   20.40
   1 -13   0   38.40   23.00
   1 -12 -12  -17.20   14.90
   1 -12 -12    1.00    6.40
   1 -12 -11   -1.90    5.90
   1 -12 -10    5.00    7.30
   1 -12  -9   37.30   15.90
   1 -12  -8  115.69   27.50
   1 -12  -7   50.59   17.70
   1 -12  -6   -5.70    5.50
   1 -12  -5   12.80    9.50
   1 -12  -4   39.70   14.70
   1 -12  -3  125.49   51.09
   1 -12  -3  126.19   27.50
   1 -12  -2   70.29   42.10
   1 -12  -2   41.00   15.90
   1 -12  -1    9.90   20.10
   1 -12  -1   -2.70    8.80
   1 -12   0   12.20   18.20
   1 -12   0    1.50    7.70
   1 -12   1  -13.20   28.90
   1 -12   1    1.40    5.90
   1 -11 -13   28.70   21.40
   1 -11 -13    8.20   12.50
   1 -11 -12   56.49   27.20
   1 -11 -12   44.20   18.90
   1 -11 -11   25.30   13.70
   1 -11 -10   -1.20    8.00
   1 -11  -9   -0.50    4.80
   1 -11  -8    3.00    6.80
   1 -11  -7   63.89   19.10
   1 -11  -6   60.69   18.20
   1 -11  -5   80.19   21.70
   1 -11  -4    9.10    9.20
   1 -11  -3    3.30    4.30
   1 -11  -2   11.20   15.70
   1 -11  -2   15.60   10.50
   1 -11  -1   79.49   35.30
   1 -11  -1   67.49   19.40
   1 -11   0  -22.00   21.90
   1 -11   0    4.00    7.10
   1 -11   1  -20.00   22.60
   1 -11   1   21.40   12.90
   1 -11   2   32.60   28.10
   1 -11   3    1.60   25.20
   1 -10 -14   25.70   20.80
   1 -10 -13  -17.80   15.90
   1 -10 -13   10.40   10.10
   1 -10 -12  -25.00   16.80
   1 -10 -12   -6.50    8.20
   1 -10 -11    2.90   11.10
   1 -10 -11    8.90    6.00
   1 -10 -10   53.59   18.00
   1 -10  -9   69.29   19.80
   1 -10  -8  124.59   25.30
   1 -10  -7   78.99   20.30
   1 -10  -7   78.69   20.00
   1 -10  -6   10.90    8.00
   1 -10  -5  237.48   33.40
   1 -10  -4  409.96   44.80
   1 -10  -3  447.66   45.70
   1 -10  -2   97.89   22.10
   1 -10  -1    2.80    3.40
   1 -10  -1    8.10    6.90
   1 -10   0    4.70   13.50
   1 -10   0   15.10    6.90
   1 -10   0   16.10    8.30
   1 -10   1  -10.00   19.60
   1 -10   1   12.10    6.80
   1 -10   2   32.70   22.10
   1 -10   2   32.70   13.50
   1 -10   3   33.40   29.40
   1 -10   4    5.10   24.50
   1 -10   5    0.20   27.90
   1  -9 -14   43.80   26.60
   1  -9 -13   65.49   30.10
   1  -9 -13  101.59   28.30
   1  -9 -12  234.58   48.00
   1  -9 -12  230.48   38.40
   1  -9 -11  128.99   34.90
   1  -9 -11  128.39   27.60
   1  -9 -10   22.40   16.80
   1  -9 -10   17.10   13.20
   1  -9 -10   35.20   11.70
   1  -9  -9  -14.10    9.30
   1  -9  -8   37.00   17.70
   1  -9  -8   37.50   14.10
   1  -9  -7  246.58   35.10
   1  -9  -7  289.87   36.40
   1  -9  -6  437.26   44.60
   1  -9  -6  459.55   45.60
   1  -9  -5  290.97   34.90
   1  -9  -4   26.60   10.70
   1  -9  -3   29.50   11.80
   1  -9  -2  355.36   38.20
   1  -9  -1  413.56   41.70
   1  -9   0  274.87   26.80
   1  -9   0  307.87   36.50
   1  -9   0  244.18   57.09
   1  -9   1  178.68   20.50
   1  -9   1  187.58   53.39
   1  -9   1  214.08   31.40
   1  -9   2  102.19   39.50
   1  -9   2  143.79   17.60
   1  -9   2  124.09   24.70
   1  -9   3  -38.60   27.20
   1  -9   4   31.80   26.50
   1  -9   5   23.50   37.50
   1  -9   6  -53.89   36.60
   1  -8 -14   11.40   11.10
   1  -8 -14    4.70    8.20
   1  -8 -13   14.30   12.70
   1  -8 -13    3.50    7.40
   1  -8 -12  -10.10   11.90
   1  -8 -12   -4.10    5.70
   1  -8 -11   41.60   16.70
   1  -8 -11   40.40   20.80
   1  -8 -11   33.20   10.30
   1  -8 -11   50.39   17.80
   1  -8 -10   60.99   18.70
   1  -8 -10   58.89   20.40
   1  -8 -10   56.69   13.00
   1  -8 -10   62.09   17.80
   1  -8  -9   32.90    9.30
   1  -8  -9   44.60   14.80
   1  -8  -8  103.39   23.10
   1  -8  -8  133.29   24.30
   1  -8  -7  532.55   50.89
   1  -8  -7  556.24   48.70
   1  -8  -6   88.69   18.90
   1  -8  -6   82.59   18.70
   1  -8  -6  111.59   21.50
   1  -8  -5   49.30   14.60
   1  -8  -5   44.60   13.00
   1  -8  -5   48.70   13.60
   1  -8  -5   50.59   14.30
   1  -8  -4  363.76   36.80
   1  -8  -4  408.06   39.40
   1  -8  -4  451.05   44.80
   1  -8  -3  469.15   42.00
   1  -8  -3  501.65   43.50
   1  -8  -3  483.15   46.50
   1  -8  -2  719.53   52.39
   1  -8  -2  713.13   52.89
   1  -8  -2  735.93   57.39
   1  -8  -1  240.38   39.00
   1  -8  -1  168.28   26.00
   1  -8  -1  219.78   29.00
   1  -8  -1  211.08   30.50
   1  -8   0   80.99   13.60
   1  -8   0   62.59   14.80
   1  -8   1    5.60    4.50
   1  -8   1   -2.60    6.70
   1  -8   2   12.30   18.40
   1  -8   2   51.59   10.20
   1  -8   2   49.99   15.10
   1  -8   3  132.29   16.40
   1  -8   3  173.38   48.90
   1  -8   4  158.08   18.80
   1  -8   4   89.99   42.00
   1  -8   5   78.09   33.80
   1  -8   6    1.40   25.10
   1  -8   7   11.80   26.40
   1  -8   8    1.40   25.90
   1  -7 -14  -17.30   16.40
   1  -7 -13   10.00   12.50
   1  -7 -12   54.19   23.50
   1  -7 -11  104.29   30.10
   1  -7 -11   70.39   19.40
   1  -7 -11   86.59   17.20
   1  -7 -10   26.20   13.80
   1  -7 -10   54.99   20.40
   1  -7 -10   36.90   10.80
   1  -7 -10   37.00   12.60
   1  -7  -9  -13.50    9.60
   1  -7  -9   -4.00    8.40
   1  -7  -9    2.40    3.00
   1  -7  -9    5.10    4.80
   1  -7  -8   -0.40    5.10
   1  -7  -8    2.50    2.70
   1  -7  -8    4.70    5.10
   1  -7  -7   56.49   15.80
   1  -7  -7   51.69   15.80
   1  -7  -7   46.20   10.30
   1  -7  -7   53.19   14.70
   1  -7  -7   45.70   13.60
   1  -7  -6  498.15   44.40
   1  -7  -6  568.44   49.40
   1  -7  -6  539.25   44.70
   1  -7  -6  498.05   42.60
   1  -7  -5  368.46   36.10
   1  -7  -5  421.16   41.70
   1  -7  -5  467.55   39.90
   1  -7  -5  436.96   38.90
   1  -7  -4   72.49   16.40
   1  -7  -4   37.40   11.60
   1  -7  -4   73.59   15.90
   1  -7  -4   37.70   11.60
   1  -7  -3    8.50    6.70
   1  -7  -3    9.30    5.80
   1  -7  -3    5.00    4.80
   1  -7  -2   62.99   15.30
   1  -7  -2   59.69   14.10
   1  -7  -2   78.49   15.90
   1  -7  -1  111.69   20.80
   1  -7  -1  137.39   27.40
   1  -7  -1  134.19   20.80
   1  -7  -1  125.19   20.00
   1  -7   0  243.88   36.90
   1  -7   0  169.98   23.80
   1  -7   1   95.29   24.60
   1  -7   1   78.29   27.20
   1  -7   1   90.19   13.10
   1  -7   1   77.49   17.40
   1  -7   2  141.29   19.10
   1  -7   2  130.29   35.80
   1  -7   2  105.89   14.10
   1  -7   2   89.89   19.30
   1  -7   3  130.19   17.30
   1  -7   3  115.19   14.70
   1  -7   3   85.69   34.50
   1  -7   4   -2.20    3.10
   1  -7   4    5.80    4.00
   1  -7   5  -26.10   22.70
   1  -7   5   43.60    8.50
   1  -7   6   88.69   42.20
   1  -7   7   65.29   38.80
   1  -7   8  -38.30   29.20
   1  -7   9    1.70   19.30
   1  -6 -14   43.90   25.40
   1  -6 -13   -5.40    9.40
   1  -6 -12   28.40   17.60
   1  -6 -11   88.29   28.50
   1  -6 -11   64.29   17.80
   1  -6 -11   87.89   17.00
   1  -6 -10  114.89   24.10
   1  -6 -10  186.48   38.20
   1  -6 -10  144.49   21.50
   1  -6  -9   68.99   19.10
   1  -6  -9  118.19   28.20
   1  -6  -9   92.89   16.10
   1  -6  -9   75.99   18.20
   1  -6  -8    1.20    8.40
   1  -6  -8   -5.10    8.30
   1  -6  -8    7.40    4.50
   1  -6  -8    8.70    8.30
   1  -6  -8    7.30    4.30
   1  -6  -7  101.49   20.20
   1  -6  -7   76.39   16.80
   1  -6  -7   68.59   12.20
   1  -6  -7   74.29   16.20
   1  -6  -7   94.49   18.00
   1  -6  -6   11.50    7.30
   1  -6  -6    7.70    7.00
   1  -6  -6    8.40    5.00
   1  -6  -6   12.80    9.30
   1  -6  -6    9.50    6.60
   1  -6  -5   86.49   17.40
   1  -6  -5   64.29   14.70
   1  -6  -5   66.89   14.00
   1  -6  -5   75.09   14.60
   1  -6  -4  591.84   41.50
   1  -6  -4  664.03   47.80
   1  -6  -4  669.23   44.30
   1  -6  -4  628.84   43.10
   1  -6  -3  333.37   28.20
   1  -6  -3  357.86   32.00
   1  -6  -3  393.36   36.00
   1  -6  -2 1070.59   56.59
   1  -6  -2 1152.48   63.39
   1  -6  -1   15.80    6.60
   1  -6  -1   27.10    8.50
   1  -6  -1   41.60   10.80
   1  -6   0  218.88   24.40
   1  -6   0  199.88   23.80
   1  -6   0  202.18   31.00
   1  -6   1  410.56   27.30
   1  -6   1  461.05   34.50
   1  -6   1  439.86   36.10
   1  -6   1  482.55   50.69
   1  -6   2  194.28   21.40
   1  -6   2  174.68   17.10
   1  -6   2  166.88   23.00
   1  -6   2  154.48   30.60
   1  -6   2  200.58   38.90
   1  -6   3  275.97   22.00
   1  -6   3  296.27   26.10
   1  -6   3  321.17   34.30
   1  -6   3  234.58   48.80
   1  -6   3  260.57   41.70
   1  -6   4  126.89   36.20
   1  -6   4  141.39   17.20
   1  -6   4  163.48   18.40
   1  -6   5  -43.80   25.50
   1  -6   5   13.60    5.00
   1  -6   6  -46.00   28.00
   1  -6   6    1.40    3.60
   1  -6   7  -12.60   16.80
   1  -6   7   -0.80    4.60
   1  -6   8    7.80   18.50
   1  -6   9   16.00   32.10
   1  -6  10  -43.70   30.30
   1  -6  10    2.90    8.00
   1  -5 -14   44.80   23.90
   1  -5 -13   74.29   28.90
   1  -5 -12   50.89   22.30
   1  -5 -11  123.99   33.20
   1  -5 -11  109.69   26.30
   1  -5 -11  101.29   18.80
   1  -5 -10   92.89   27.50
   1  -5 -10   45.90   15.20
   1  -5 -10   72.39   15.20
   1  -5  -9   -2.40    8.70
   1  -5  -9    0.80    2.40
   1  -5  -8   39.50   12.50
   1  -5  -8   34.80   14.20
   1  -5  -8   43.60   10.60
   1  -5  -8   42.90   12.80
   1  -5  -7  301.17   37.60
   1  -5  -7  170.18   28.20
   1  -5  -7  219.38   22.10
   1  -5  -7  224.28   27.20
   1  -5  -7  249.78   29.90
   1  -5  -6 1660.33   79.39
   1  -5  -6 1852.21   67.89
   1  -5  -6 1989.30   85.69
   1  -5  -6 1906.81   79.29
   1  -5  -6 1836.12   78.69
   1  -5  -5 1759.62   77.09
   1  -5  -5 1784.22   64.79
   1  -5  -5 1990.70   77.69
   1  -5  -5 1972.10   77.99
   1  -5  -5 1956.10   82.89
   1  -5  -4  291.37   27.40
   1  -5  -4  325.97   28.90
   1  -5  -4  382.36   30.80
   1  -5  -4  335.07   31.00
   1  -5  -3   89.89   15.10
   1  -5  -3   60.19   11.60
   1  -5  -3   74.39   13.00
   1  -5  -3   71.59   12.70
   1  -5  -2  110.69   16.00
   1  -5  -2  112.99   16.90
   1  -5  -1 1799.22   69.89
   1  -5  -1 1826.42   74.89
   1  -5   0 1166.18   55.09
   1  -5   0 1084.89   66.49
   1  -5   0 1059.89   51.89
   1  -5   0 1049.40   55.59
   1  -5   1   13.40    6.20
   1  -5   1   16.50    8.10
   1  -5   1    5.60    3.20
   1  -5   1    7.80    4.30
   1  -5   2   12.60    7.60
   1  -5   2   16.50    8.20
   1  -5   2   20.50    5.60
   1  -5   2   24.20    7.70
   1  -5   2   27.20    8.70
   1  -5   3   99.99   14.30
   1  -5   3  104.29   12.80
   1  -5   3  114.49   19.20
   1  -5   3  115.39   25.30
   1  -5   3   71.29   24.50
   1  -5   4   10.30    5.70
   1  -5   4   10.80    4.70
   1  -5   4   21.50   13.40
   1  -5   4   16.30    9.70
   1  -5   5  249.18   23.90
   1  -5   5  249.68   25.50
   1  -5   6  449.86   32.40
   1  -5   6  518.05   39.80
   1  -5   7  188.28   21.70
   1  -5   7  226.58   28.00
   1  -5   8  112.29   17.30
   1  -5   8  166.38   26.00
   1  -5   9   -3.70   16.00
   1  -5   9   -2.00    5.50
   1  -5  10   37.20   14.40
   1  -5  10   40.30   19.40
   1  -5  11    0.10   27.10
   1  -5  11   17.40   18.00
   1  -4 -14   57.29   27.20
   1  -4 -13   26.00   18.90
   1  -4 -12    5.00    8.30
   1  -4 -11   12.80   12.20
   1  -4 -11   20.70   14.60
   1  -4 -10  231.28   36.80
   1  -4 -10  323.67   50.39
   1  -4 -10  264.67   29.40
   1  -4 -10  284.97   36.10
   1  -4  -9  437.56   54.99
   1  -4  -9  415.96   35.00
   1  -4  -9  484.55   44.30
   1  -4  -8   92.59   18.90
   1  -4  -8   94.49   24.40
   1  -4  -8  107.89   16.40
   1  -4  -8  120.19   21.50
   1  -4  -8  101.99   18.90
   1  -4  -7   58.19   13.50
   1  -4  -7   56.19   14.10
   1  -4  -7   88.19   21.00
   1  -4  -7   65.19   12.10
   1  -4  -7   79.69   15.10
   1  -4  -6  187.58   27.10
   1  -4  -6  233.88   21.40
   1  -4  -6  273.77   28.50
   1  -4  -6  239.08   25.10
   1  -4  -5  175.48   17.40
   1  -4  -5  200.08   21.70
   1  -4  -5  174.48   21.30
   1  -4  -4 1640.34   66.79
   1  -4  -4 1698.33   58.79
   1  -4  -4 1805.02   66.49
   1  -4  -4 1711.93   66.69
   1  -4  -4 1723.63   70.19
   1  -4  -3 2153.68   72.29
   1  -4  -3 2054.09   64.99
   1  -4  -3 2225.38   73.49
   1  -4  -3 2194.98   78.29
   1  -4  -3 2202.58   75.59
   1  -4  -2 1594.64   55.59
   1  -4  -2 1712.53   61.49
   1  -4  -2 1745.33   63.79
   1  -4  -2 1670.63   65.59
   1  -4  -1 2014.60   71.79
   1  -4  -1 1893.31   66.39
   1  -4  -1 1892.41   70.89
   1  -4   0  471.15   31.30
   1  -4   0  414.96   28.50
   1  -4   0  412.86   30.40
   1  -4   1  667.03   31.30
   1  -4   1  728.93   38.40
   1  -4   1  661.53   37.70
   1  -4   1  711.03   50.49
   1  -4   2  489.75   30.40
   1  -4   2  453.55   25.30
   1  -4   2  458.25   33.00
   1  -4   2  495.05   44.60
   1  -4   3  956.00   40.30
   1  -4   3  982.10   44.50
   1  -4   3 1114.79   56.19
   1  -4   3 1091.49   72.39
   1  -4   3  986.90   78.39
   1  -4   4 1344.97   53.29
   1  -4   4 1283.57   53.59
   1  -4   4 1363.26   55.39
   1  -4   4 1454.35   92.39
   1  -4   4 1234.88   96.59
   1  -4   5  361.36   28.30
   1  -4   5  422.06   31.20
   1  -4   5  333.57   53.49
   1  -4   5  379.96   50.39
   1  -4   6   18.80    6.50
   1  -4   6   15.20    5.80
   1  -4   6    0.90   13.30
   1  -4   7   38.50   11.10
   1  -4   7   34.50   11.20
   1  -4   7   59.69   26.80
   1  -4   8  199.28   24.30
   1  -4   8  206.88   28.10
   1  -4   9   94.69   39.90
   1  -4   9  138.49   24.90
   1  -4  10   38.80   29.10
   1  -4  10   51.79   16.50
   1  -4  10   50.59   19.50
   1  -4  11   -0.10   15.30
   1  -4  11   22.00   11.90
   1  -4  11   15.60   15.90
   1  -4  12  -26.10   17.90
   1  -3 -14   11.60   15.90
   1  -3 -13   77.79   30.30
   1  -3 -12    8.00    8.90
   1  -3 -11   13.80   15.20
   1  -3 -11    9.70   13.70
   1  -3 -10    1.50    7.90
   1  -3 -10   29.60   18.00
   1  -3 -10   21.30    9.20
   1  -3  -9   -5.90    8.90
   1  -3  -9    2.40    4.00
   1  -3  -9    8.20    6.60
   1  -3  -8   -3.20    6.00
   1  -3  -8   -1.60    6.80
   1  -3  -8   -6.00    6.40
   1  -3  -8   -1.90    2.90
   1  -3  -8    8.90    7.10
   1  -3  -7   -0.10    4.70
   1  -3  -7   12.50    9.50
   1  -3  -7    1.30    4.90
   1  -3  -7    4.60    2.10
   1  -3  -7    4.50    4.60
   1  -3  -6  184.58   24.20
   1  -3  -6  230.48   21.00
   1  -3  -6  223.88   24.80
   1  -3  -6  227.18   23.60
   1  -3  -5 1753.42   61.29
   1  -3  -5 1931.91   73.29
   1  -3  -5 1845.82   68.19
   1  -3  -4 1399.26   50.89
   1  -3  -4 1483.45   55.69
   1  -3  -4 1496.65   60.09
   1  -3  -3    5.50    3.40
   1  -3  -3    6.30    3.40
   1  -3  -3    7.80    3.80
   1  -3  -3    5.60    3.30
   1  -3  -2  278.67   19.00
   1  -3  -2  261.17   17.90
   1  -3  -2  284.07   20.00
   1  -3  -2  280.17   22.00
   1  -3  -2  291.17   21.60
   1  -3  -1 2781.72   81.49
   1  -3  -1 2690.83   75.89
   1  -3  -1 2489.85   63.49
   1  -3  -1 2487.75   72.59
   1  -3  -1 2533.65   76.59
   1  -3   0  534.85   30.00
   1  -3   0  490.05   27.60
   1  -3   0  473.55   28.60
   1  -3   1  325.57   19.20
   1  -3   1  318.97   22.20
   1  -3   1  311.97   29.00
   1  -3   1  291.77   21.90
   1  -3   2   20.30    7.50
   1  -3   2   26.40    5.50
   1  -3   2   23.70    5.60
   1  -3   2   20.70    6.10
   1  -3   3   36.90    7.50
   1  -3   3   45.30    7.80
   1  -3   3   46.10    7.90
   1  -3   3   45.50   13.10
   1  -3   3   43.20   14.80
   1  -3   4    2.20    2.90
   1  -3   4   13.50   10.90
   1  -3   4    4.80    5.20
   1  -3   4    7.50    4.70
   1  -3   5  124.69   29.70
   1  -3   5  196.88   33.80
   1  -3   5  170.18   18.60
   1  -3   6  190.28   38.00
   1  -3   6  230.18   40.30
   1  -3   6  268.27   25.80
   1  -3   7   96.29   30.70
   1  -3   7  201.28   24.90
   1  -3   8  170.28   40.80
   1  -3   8  461.85   40.50
   1  -3   9   -2.30   14.60
   1  -3   9   11.40    7.70
   1  -3   9    8.00    6.30
   1  -3  10    6.80   14.70
   1  -3  10   14.30    9.50
   1  -3  10   21.90   14.10
   1  -3  11    1.60   14.10
   1  -3  11   55.69   16.60
   1  -3  11   48.30   21.40
   1  -3  12   22.20   13.60
   1  -3  12   36.10   16.10
   1  -2 -14   31.80   14.60
   1  -2 -13   18.40   15.90
   1  -2 -12   15.20   13.50
   1  -2 -11   21.00   15.50
   1  -2 -11   16.00   12.50
   1  -2 -10   96.99   29.90
   1  -2 -10   61.19   22.10
   1  -2  -9  130.69   29.20
   1  -2  -9  335.57   49.99
   1  -2  -8   94.59   24.20
   1  -2  -8  106.99   20.60
   1  -2  -7    1.40    3.90
   1  -2  -7    4.70    4.50
   1  -2  -7    2.70    7.30
   1  -2  -7    2.60    2.40
   1  -2  -7    0.30    2.40
   1  -2  -6   14.60    6.80
   1  -2  -6   14.10    8.90
   1  -2  -6    5.10    5.90
   1  -2  -6   12.20    5.00
   1  -2  -6   17.50    6.50
   1  -2  -5  638.14   39.00
   1  -2  -5  528.95   39.20
   1  -2  -5  560.74   32.20
   1  -2  -5  553.94   33.80
   1  -2  -4  781.52   40.10
   1  -2  -4  708.93   43.60
   1  -2  -4  712.03   33.60
   1  -2  -4  767.02   36.50
   1  -2  -3 1432.26   47.50
   1  -2  -3 1488.65   48.10
   1  -2  -3 1437.46   52.39
   1  -2  -2  194.98   14.40
   1  -2  -2  198.98   15.90
   1  -2  -2  208.08   16.50
   1  -2  -2  201.38   14.50
   1  -2  -1 1033.60   35.50
   1  -2  -1 1069.19   39.60
   1  -2  -1 1076.29   36.30
   1  -2  -1 1134.19   39.50
   1  -2   0  857.51   35.20
   1  -2   0  796.02   31.70
   1  -2   0  769.12   32.20
   1  -2   1  607.74   25.10
   1  -2   1  636.44   28.10
   1  -2   1  664.53   37.00
   1  -2   1  646.94   29.10
   1  -2   2    3.50    2.30
   1  -2   2    3.40    2.10
   1  -2   2    1.30    1.70
   1  -2   2   -0.30    2.10
   1  -2   3   26.20    6.00
   1  -2   3   19.30    7.60
   1  -2   3   12.70    7.40
   1  -2   3   25.70    5.20
   1  -2   4  517.75   46.20
   1  -2   4  475.15   47.40
   1  -2   4  633.94   30.90
   1  -2   5  614.74   55.99
   1  -2   5  527.15   54.49
   1  -2   5  649.93   36.00
   1  -2   6    8.90    9.50
   1  -2   6   -0.20    9.80
   1  -2   6   13.40    6.20
   1  -2   7   64.89   21.40
   1  -2   7  116.19   29.00
   1  -2   7  154.38   21.40
   1  -2   8   41.10   18.00
   1  -2   8   46.40   13.20
   1  -2   8   36.40   14.70
   1  -2   9  211.88   43.00
   1  -2   9  258.57   32.20
   1  -2   9  207.88   34.70
   1  -2  10   40.80   22.20
   1  -2  10   68.29   17.60
   1  -2  10   60.39   21.40
   1  -2  11   -0.70    4.30
   1  -2  11   11.70    9.20
   1  -2  12   -0.50   12.10
   1  -2  12   14.20   10.50
   1  -2  12    6.20   10.40
   1  -2  13    2.60    7.40
   1  -2  13  -13.50   12.30
   1  -1 -13   82.99   31.80
   1  -1 -13  101.99   22.80
   1  -1 -12   69.09   26.90
   1  -1 -12   72.09   18.20
   1  -1 -11   16.20   11.60
   1  -1 -10    5.00    7.90
   1  -1 -10  -11.80   11.00
   1  -1  -9   12.00   10.80
   1  -1  -9   -1.50    7.20
   1  -1  -8  148.89   31.50
   1  -1  -8  111.79   28.30
   1  -1  -8  122.99   22.90
   1  -1  -7   87.99   22.40
   1  -1  -7   72.99   15.90
   1  -1  -6   14.20    7.80
   1  -1  -6   28.30   12.30
   1  -1  -6   35.60    9.70
   1  -1  -5 1486.25   76.79
   1  -1  -5 1466.35   63.49
   1  -1  -5 1484.05   58.69
   1  -1  -4 1489.35   72.79
   1  -1  -4 1418.66   65.19
   1  -1  -4 1404.56   56.49
   1  -1  -4 1451.65   52.29
   1  -1  -3    1.60    4.60
   1  -1  -3    0.80    3.80
   1  -1  -3    5.30    3.90
   1  -1  -3    9.00    2.20
   1  -1  -2   77.59    9.10
   1  -1  -2   57.79   11.10
   1  -1  -2   74.39    8.20
   1  -1  -2   86.69    7.90
   1  -1  -1 1027.90   32.40
   1  -1  -1 1055.19   33.20
   1  -1  -1  988.70   29.30
   1  -1  -1 1065.59   33.60
   1  -1   0 1973.20   49.20
   1  -1   0 1893.31   48.10
   1  -1   0 1927.11   48.80
   1  -1   1 3083.59   70.49
   1  -1   1 3162.68   74.39
   1  -1   1 3116.79   72.69
   1  -1   1 3178.78   81.19
   1  -1   2  603.14   24.80
   1  -1   2  577.74   26.50
   1  -1   2  620.44   20.10
   1  -1   2  585.24   32.70
   1  -1   3  480.45   25.10
   1  -1   3  477.65   35.00
   1  -1   3  491.45   35.80
   1  -1   3  523.25   22.80
   1  -1   4   45.40   13.00
   1  -1   4   45.10   12.40
   1  -1   4   64.79    9.20
   1  -1   5  906.51   64.19
   1  -1   5  946.91   42.90
   1  -1   6  581.14   56.69
   1  -1   6  591.84   36.90
   1  -1   7  401.26   51.59
   1  -1   7  384.36   47.40
   1  -1   7  482.45   37.10
   1  -1   7  392.06   40.60
   1  -1   8   34.60   15.80
   1  -1   8   58.09   22.00
   1  -1   8   62.79   17.00
   1  -1   9    9.30   12.50
   1  -1   9   14.80    9.40
   1  -1   9   17.40   11.80
   1  -1  10   -9.00   12.80
   1  -1  10    2.50    4.30
   1  -1  10   -1.60    6.70
   1  -1  11   69.59   23.60
   1  -1  11   75.29   20.20
   1  -1  11   59.69   19.70
   1  -1  12   17.70   12.40
   1  -1  12   34.00   15.40
   1  -1  12    5.60    7.10
   1  -1  13   24.40   15.70
   1  -1  13   21.10   15.30
   1   0 -12    8.90   14.30
   1   0 -12   -1.70    6.40
   1   0 -11   21.10   15.90
   1   0 -11   21.20    9.20
   1   0 -10   28.90   17.80
   1   0 -10   -7.00   10.30
   1   0 -10   25.20    9.80
   1   0  -9  253.37   44.30
   1   0  -9  225.28   41.80
   1   0  -8  441.76   54.69
   1   0  -8  331.57   48.00
   1   0  -7  174.78   32.10
   1   0  -7  167.98   32.30
   1   0  -7  155.68   23.30
   1   0  -6    4.20    7.70
   1   0  -6   26.50    9.20
   1   0  -5   82.79   21.20
   1   0  -5  104.79   16.30
   1   0  -4 3086.59  119.79
   1   0  -4 3066.29   94.59
   1   0  -3 9999.00  236.88
   1   0  -3 9386.16  204.18
   1   0  -2 4244.18  115.89
   1   0  -2 4108.59   97.09
   1   0  -2 4091.99   88.49
   1   0  -1 2040.20   51.39
   1   0  -1 1934.71   48.70
   1   0  -1 2084.19   51.69
   1   0   0    0.30    0.50
   1   0   0   -0.40    0.80
   1   0   0    0.30    0.80
   1   0   1   54.39    5.50
   1   0   1   61.69    4.90
   1   0   1   56.79    5.60
   1   0   2 1807.92   53.59
   1   0   2 1773.42   48.60
   1   0   3  380.56   27.90
   1   0   3  353.06   23.70
   1   0   4 1163.68   60.49
   1   0   4 1223.48   53.69
   1   0   5 1369.56   75.19
   1   0   5 1672.53   69.39
   1   0   6  187.78   27.00
   1   0   6  213.88   32.50
   1   0   6  223.08   21.60
   1   0   6  223.48   26.70
   1   0   7   89.59   22.90
   1   0   7  103.79   22.60
   1   0   7  112.29   17.40
   1   0   7  111.89   20.40
   1   0   8  264.37   42.20
   1   0   8  277.47   35.80
   1   0   8  305.47   31.90
   1   0   8  295.37   35.20
   1   0   9  914.51   84.99
   1   0   9  856.11   67.39
   1   0   9 1202.48   69.69
   1   0   9 1116.19   75.59
   1   0  10  198.38   32.90
   1   0  10  303.57   42.20
   1   0  11    6.60    6.80
   1   0  11   19.40   11.20
   1   0  12   -0.80   10.10
   1   0  12   16.70    8.60
   1   0  12   14.50    7.30
   1   0  13   -2.70    7.10
   1   0  13   -3.40    7.20
   1   0  14   10.20   10.40
   1   0  14    8.60   12.00
   1   1 -12  123.69   36.10
   1   1 -11   32.30   10.20
   1   1 -11   71.99   26.80
   1   1 -10   18.20    7.00
   1   1 -10   -0.60   12.00
   1   1  -9    1.60    3.40
   1   1  -9    3.20    5.80
   1   1  -9    9.90   11.60
   1   1  -8   37.50    9.90
   1   1  -8   39.20   17.80
   1   1  -8   16.60   11.70
   1   1  -7  126.59   27.00
   1   1  -7   96.49   26.30
   1   1  -6   -1.60    8.10
   1   1  -6    7.70    6.10
   1   1  -4   81.29   20.00
   1   1  -3   20.50    9.90
   1   1  -3   34.20    7.50
   1   1  -2  508.15   42.40
   1   1  -2  727.53   31.20
   1   1  -1  626.34   34.70
   1   1  -1  623.84   25.10
   1   1   0 3593.84   81.79
   1   1   0 3250.67   73.89
   1   1   1 2934.41   67.49
   1   1   1 2879.51   66.69
   1   1   2  142.79    9.10
   1   1   2  166.28   12.60
   1   1   3  101.19   11.80
   1   1   3  110.79   12.50
   1   1   4    9.80    4.40
   1   1   4   14.60    3.70
   1   1   4   21.80    7.30
   1   1   5  424.46   27.00
   1   1   5  374.36   34.50
   1   1   5  453.85   33.40
   1   1   6 1286.77   56.79
   1   1   6 1248.58   72.69
   1   1   6 1428.66   68.19
   1   1   7  740.53   60.79
   1   1   7  684.83   45.10
   1   1   8   19.10    6.40
   1   1   8   34.50   13.10
   1   1   8   32.60   11.50
   1   1   9   88.29   19.40
   1   1   9  101.29   25.10
   1   1   9  113.59   20.50
   1   1   9  121.79   24.20
   1   1  10    9.80    6.10
   1   1  10    9.40    4.90
   1   1  10   17.90   11.00
   1   1  11   72.89   19.80
   1   1  11  109.99   23.00
   1   1  11   81.39   21.10
   1   1  12   18.20   13.80
   1   1  12   18.10   10.50
   1   1  12   25.60   13.40
   1   1  13   11.30   11.10
   1   1  13    3.30    9.00
   1   1  14   41.40   21.00
   1   1  14   33.70   18.60
   1   2 -11   58.39   24.20
   1   2 -10    6.30    4.20
   1   2 -10    0.90   10.10
   1   2  -9    8.90    5.00
   1   2  -9   22.50   12.70
   1   2  -8   78.39   13.00
   1   2  -8   50.39   21.60
   1   2  -8   58.29   22.60
   1   2  -7   44.90    9.30
   1   2  -7   63.29   19.70
   1   2  -7   22.60   11.00
   1   2  -6   34.80    8.30
   1   2  -6   57.69   18.90
   1   2  -6   39.50   16.70
   1   2  -5  194.18   17.10
   1   2  -5  171.68   31.30
   1   2  -5  187.88   30.50
   1   2  -4  239.78   17.00
   1   2  -4  291.17   24.80
   1   2  -3 1530.45   88.99
   1   2  -3 1695.63   60.29
   1   2  -2  919.01   52.59
   1   2  -2  815.32   59.99
   1   2  -2  822.12   36.00
   1   2  -1   68.89   12.20
   1   2  -1   59.19    8.20
   1   2   0  148.79   14.40
   1   2   0  148.79   12.30
   1   2   0  146.99   10.00
   1   2   1  767.52   38.20
   1   2   1  712.73   21.10
   1   2   1  757.62   26.60
   1   2   1  789.42   25.20
   1   2   2 1247.08   38.80
   1   2   2 1107.49   33.60
   1   2   3    5.70    2.60
   1   2   3    5.80    3.50
   1   2   4  302.57   21.10
   1   2   4  255.47   21.30
   1   2   5  604.04   39.00
   1   2   5  717.33   40.70
   1   2   6  239.18   27.10
   1   2   6  270.57   27.00
   1   2   7    3.20    3.40
   1   2   7    1.90    6.40
   1   2   7   -3.60    8.40
   1   2   8  103.49   16.80
   1   2   8  171.28   28.30
   1   2   8  164.98   24.70
   1   2   9  114.19   19.80
   1   2   9  192.58   33.30
   1   2   9  229.68   31.40
   1   2  10  206.88   28.80
   1   2  10  233.78   39.20
   1   2  11  156.18   26.70
   1   2  11  218.88   32.60
   1   2  11  152.88   28.70
   1   2  12   -6.00    6.70
   1   2  12   -8.80    8.60
   1   2  13  -16.50   11.30
   1   2  13   -3.40    6.80
   1   2  14  -19.70   13.40
   1   2  14   10.20   10.00
   1   2  15   21.40   18.80
   1   2  15    4.50   12.00
   1   3 -11   11.70    9.60
   1   3 -10   29.90   19.40
   1   3  -9   -9.40    5.00
   1   3  -9   -1.60   12.50
   1   3  -8   34.60    8.40
   1   3  -8   45.20   19.80
   1   3  -7  274.47   21.70
   1   3  -7  204.98   38.50
   1   3  -7  266.87   43.40
   1   3  -6  172.08   15.90
   1   3  -6  179.98   33.30
   1   3  -6  170.38   33.70
   1   3  -6  187.88   26.00
   1   3  -5   76.39    9.40
   1   3  -5   68.29   22.00
   1   3  -5   54.69   16.00
   1   3  -5   72.49   13.60
   1   3  -5   60.49   13.90
   1   3  -4  165.08   12.00
   1   3  -4  181.08   29.30
   1   3  -4  218.68   35.50
   1   3  -4  177.58   21.40
   1   3  -4  174.58   20.00
   1   3  -3   -0.60    1.30
   1   3  -3   -7.90    4.40
   1   3  -3   -0.60    5.30
   1   3  -2 1390.96   70.39
   1   3  -2 1329.07   79.29
   1   3  -2 1329.07   52.29
   1   3  -2 1268.07   50.09
   1   3  -1 1035.30   53.79
   1   3  -1  954.70   40.10
   1   3  -1  957.20   38.80
   1   3   0  338.07   32.40
   1   3   0  389.26   28.30
   1   3   0  369.46   22.80
   1   3   0  370.86   20.10
   1   3   0  396.16   23.20
   1   3   1  403.76   19.40
   1   3   1  429.16   22.20
   1   3   1  402.16   22.50
   1   3   2  747.53   40.30
   1   3   2  783.72   33.00
   1   3   2  669.63   25.40
   1   3   2  708.33   30.00
   1   3   3  286.27   10.70
   1   3   3  315.37   19.50
   1   3   3  329.07   21.80
   1   3   4   41.90    7.80
   1   3   4   37.50    8.10
   1   3   5  212.48   19.70
   1   3   5  177.78   19.00
   1   3   6  886.61   48.90
   1   3   7  751.42   48.60
   1   3   8   23.70    9.20
   1   3   9   25.90   10.80
   1   3  10  307.17   38.20
   1   3  11  233.78   35.10
   1   3  12  105.19   25.20
   1   3  13  -10.40    9.40
   1   3  13    0.10    5.30
   1   3  14   -1.00    6.50
   1   3  14   10.10   12.10
   1   3  15    7.50    7.60
   1   3  15    3.40    7.80
   1   4 -10   48.70   23.00
   1   4  -9   33.00   20.60
   1   4  -8   56.49   10.20
   1   4  -8   68.69   24.30
   1   4  -7   28.60    6.70
   1   4  -7   17.90   11.70
   1   4  -6   -0.90    1.90
   1   4  -6    0.50    5.60
   1   4  -6    8.20    5.50
   1   4  -5    4.80    2.50
   1   4  -5   11.80    7.30
   1   4  -5    7.50    8.90
   1   4  -5   11.10    6.40
   1   4  -5    7.50    5.50
   1   4  -4  157.58   10.60
   1   4  -4  165.78   32.70
   1   4  -4  175.78   30.90
   1   4  -4  172.38   21.00
   1   4  -4  178.08   22.80
   1   4  -3 1368.56   90.99
   1   4  -3 1310.67   79.29
   1   4  -3 1234.38   55.79
   1   4  -3 1239.88   58.79
   1   4  -2 2982.40  116.99
   1   4  -2 2810.32   87.79
   1   4  -2 2818.82   89.29
   1   4  -1  570.14   43.10
   1   4  -1  537.05   32.00
   1   4  -1  583.14   32.70
   1   4  -1  607.04   36.20
   1   4   0   77.39    7.80
   1   4   0   85.49   15.40
   1   4   0   74.29   11.10
   1   4   0   77.29   10.60
   1   4   0   85.69   12.10
   1   4   1 1654.53   52.59
   1   4   1 1656.23   57.29
   1   4   2 2502.35   81.69
   1   4   2 2635.14   74.99
   1   4   2 2301.97   72.29
   1   4   2 2289.07   64.69
   1   4   3 3347.36  103.29
   1   4   3 3181.68   89.39
   1   4   3 3485.75   93.39
   1   4   4  523.85   37.90
   1   4   4  530.35   18.90
   1   4   4  466.85   31.00
   1   4   4  523.35   30.20
   1   4   5  493.95   31.50
   1   4   5  458.85   31.60
   1   4   6  121.89   16.90
   1   4   6   80.49   14.10
   1   4   7   37.50   10.80
   1   4   7   38.60   10.60
   1   4   8  331.27   33.40
   1   4   9   64.79   15.80
   1   4  10  330.77   39.60
   1   4  11   93.79   22.60
   1   4  12    2.40    7.40
   1   4  13   33.60   16.20
   1   4  14    9.00    9.80
   1   4  14   10.40    9.70
   1   4  15   51.19   21.20
   1   4  15   20.00   15.20
   1   5  -9    1.50    7.90
   1   5  -8   -1.80    6.70
   1   5  -7   99.99   29.70
   1   5  -6  223.58   40.80
   1   5  -5  174.48   34.60
   1   5  -5  185.78   24.50
   1   5  -4  381.66   47.90
   1   5  -4  336.77   34.30
   1   5  -4  345.97   31.80
   1   5  -3    3.30    2.50
   1   5  -3    3.90    4.20
   1   5  -2  373.56   41.00
   1   5  -2  397.96   31.90
   1   5  -2  388.36   30.30
   1   5  -2  404.86   34.80
   1   5  -1 1423.46   75.69
   1   5  -1 1293.67   56.09
   1   5  -1 1267.77   55.79
   1   5  -1 1353.56   61.89
   1   5   0  897.41   34.70
   1   5   0 1000.70   47.00
   1   5   0 1003.70   45.90
   1   5   0 1012.60   49.99
   1   5   1  797.52   38.40
   1   5   1  918.61   41.10
   1   5   1  927.51   45.80
   1   5   2  856.11   47.10
   1   5   2  794.62   42.50
   1   5   2  789.82   36.90
   1   5   2  897.41   43.40
   1   5   3   32.10    8.10
   1   5   3   35.10   10.10
   1   5   3   45.00    8.60
   1   5   3   36.50    8.80
   1   5   4   -1.80    4.10
   1   5   4    5.70    7.80
   1   5   4   -0.60    1.50
   1   5   4    0.20    3.10
   1   5   5    8.30    4.90
   1   5   5    4.70    2.00
   1   5   5    6.80    4.40
   1   5   6  953.00   49.90
   1   5   6  912.61   50.69
   1   5   7 2134.89   83.69
   1   5   7 1848.52   80.59
   1   5   8 1030.10   59.99
   1   5   8  876.71   55.69
   1   5   9   37.50   12.90
   1   5  10  -12.60    8.70
   1   5  11  182.78   31.80
   1   5  12  336.87   44.00
   1   5  13   53.79   18.80
   1   5  14    1.30    8.20
   1   5  15   17.10    9.20
   1   5  15   12.50   10.90
   1   6  -8   13.70   14.80
   1   6  -7   11.80    8.90
   1   6  -6   -7.20   12.50
   1   6  -5  -11.50   10.80
   1   6  -4    3.30    4.70
   1   6  -4    5.50    8.20
   1   6  -3   81.79   18.40
   1   6  -3  109.89   26.20
   1   6  -3   98.59   16.90
   1   6  -3  106.89   19.10
   1   6  -2  408.86   46.10
   1   6  -2  407.16   35.10
   1   6  -2  419.96   34.00
   1   6  -2  386.66   36.90
   1   6  -1  115.59   18.80
   1   6  -1  124.89   24.10
   1   6  -1  136.29   18.50
   1   6  -1  133.69   18.80
   1   6   0   20.30    5.80
   1   6   0   18.10    6.90
   1   6   0   17.10    5.80
   1   6   0   20.50    6.50
   1   6   1    7.60    3.50
   1   6   1   11.80    6.00
   1   6   1   10.00    4.90
   1   6   2  212.88   24.30
   1   6   2  219.88   23.60
   1   6   2  264.07   22.80
   1   6   3 1206.28   62.19
   1   6   3 1305.37   58.99
   1   6   3 1266.37   59.89
   1   6   3 1203.08   51.79
   1   6   4  527.35   26.20
   1   6   4  592.24   38.70
   1   6   4  522.25   36.40
   1   6   4  554.54   33.40
   1   6   5  140.79   12.30
   1   6   5  149.59   19.90
   1   6   5  127.49   18.20
   1   6   6  321.57   29.70
   1   6   6  265.17   16.40
   1   6   6  250.97   26.90
   1   6   7   -5.60    7.10
   1   6   7    9.80    5.50
   1   6   8  249.28   29.30
   1   6   8  211.58   27.30
   1   6   9  211.98   28.50
   1   6   9  195.68   27.50
   1   6  10  134.89   24.40
   1   6  11   19.60   10.10
   1   6  12   31.60   15.60
   1   6  13    6.40    8.50
   1   6  14   -5.00   10.00
   1   6  15   18.90   13.70
   1   7  -7   10.00   13.50
   1   7  -6   52.39   18.70
   1   7  -6   91.29   29.60
   1   7  -5   74.19   20.40
   1   7  -5   96.29   28.70
   1   7  -4   72.49   19.90
   1   7  -4   93.09   27.10
   1   7  -3   23.70   10.70
   1   7  -3   33.80   15.70
   1   7  -3   30.70   10.40
   1   7  -2   10.90    8.20
   1   7  -2   11.80    6.10
   1   7  -2   19.50    7.40
   1   7  -1  861.11   51.79
   1   7  -1  919.81   55.39
   1   7  -1  905.81   59.49
   1   7   0  353.16   24.60
   1   7   0  408.86   34.10
   1   7   0  390.36   33.10
   1   7   0  374.06   36.10
   1   7   1  158.08   18.20
   1   7   1  186.38   22.30
   1   7   1  186.28   21.70
   1   7   1  205.28   25.40
   1   7   2   -1.40    6.40
   1   7   2    2.00    6.40
   1   7   2    9.80    5.70
   1   7   3   83.19   16.00
   1   7   3   86.29   13.90
   1   7   4  407.56   34.50
   1   7   4  395.16   30.40
   1   7   4  410.16   35.00
   1   7   5   77.89   15.70
   1   7   5   80.39   10.70
   1   7   5   54.19   14.60
   1   7   5   61.29   14.10
   1   7   6   84.79   16.40
   1   7   6   79.89   10.10
   1   7   6   81.89   19.50
   1   7   6   62.39   14.30
   1   7   7  240.18   28.20
   1   7   7  229.08   16.40
   1   7   7  219.08   27.30
   1   7   8  187.68   25.80
   1   7   8  135.39   22.80
   1   7   9   -4.20    7.10
   1   7   9    1.70    4.70
   1   7  10   -0.70    6.60
   1   7  10   -3.20    5.90
   1   7  11  180.48   30.20
   1   7  12  175.68   31.80
   1   7  13   46.10   17.60
   1   7  14   14.40   12.80
   1   7  15   13.80   13.50
   1   8  -7   47.00   19.40
   1   8  -6   30.70   21.00
   1   8  -6    0.30   10.40
   1   8  -5   63.49   24.70
   1   8  -5   42.30   17.40
   1   8  -4   88.69   26.90
   1   8  -4   86.79   22.80
   1   8  -3  142.79   27.80
   1   8  -2  166.08   24.50
   1   8  -2  194.78   29.90
   1   8  -1   57.59   15.90
   1   8  -1   55.29   14.50
   1   8  -1   48.00   13.00
   1   8   0   11.10    6.90
   1   8   0    8.10    4.10
   1   8   0   11.50    6.80
   1   8   0   23.30    9.90
   1   8   1  147.99   23.20
   1   8   1  103.99   15.30
   1   8   1  148.39   21.70
   1   8   1  125.99   19.60
   1   8   2  181.98   22.90
   1   8   2  213.68   28.60
   1   8   2  234.48   29.20
   1   8   2  270.77   27.90
   1   8   3  486.55   41.60
   1   8   3  609.94   48.80
   1   8   3  642.14   48.40
   1   8   3  582.34   40.60
   1   8   4  274.87   32.60
   1   8   4  328.37   35.70
   1   8   4  334.87   34.30
   1   8   4  338.97   30.60
   1   8   5   95.89   18.20
   1   8   5  109.39   21.00
   1   8   5   89.89   12.60
   1   8   5   76.59   16.20
   1   8   6  136.09   14.70
   1   8   6  133.89   24.80
   1   8   6  142.99   22.80
   1   8   6   99.89   19.70
   1   8   7    3.60    5.10
   1   8   7   10.70    4.20
   1   8   7   10.70    6.00
   1   8   8  209.38   28.90
   1   8   8  225.98   29.90
   1   8   9  394.16   40.90
   1   8   9  369.76   40.90
   1   8  10   26.90   12.20
   1   8  10   27.60   11.50
   1   8  11   16.60   10.50
   1   8  11    9.30    8.20
   1   8  12   -7.40   10.10
   1   8  13   83.39   23.70
   1   8  14    4.70    8.70
   1   9  -6   56.99   20.50
   1   9  -5   68.29   24.10
   1   9  -4   54.39   20.10
   1   9  -3   80.59   22.20
   1   9  -2    0.70    5.20
   1   9  -1  198.08   31.70
   1   9   0  415.66   28.30
   1   9   0  496.75   47.50
   1   9   1  349.96   30.80
   1   9   1  370.66   36.80
   1   9   1  366.46   40.20
   1   9   1  406.56   38.00
   1   9   1  353.36   39.70
   1   9   2  204.88   25.60
   1   9   2  251.77   30.00
   1   9   2  195.38   29.00
   1   9   2  273.17   33.80
   1   9   2  216.38   27.00
   1   9   3   -1.50    7.60
   1   9   3    4.50    5.50
   1   9   3   21.50   10.20
   1   9   3    7.10    5.60
   1   9   4  180.18   27.40
   1   9   4  246.88   32.30
   1   9   4  267.67   29.10
   1   9   4  240.08   31.40
   1   9   5  368.46   42.30
   1   9   5  470.35   46.00
   1   9   5  507.55   33.30
   1   9   5  519.05   46.30
   1   9   5  517.65   40.30
   1   9   6  357.96   41.50
   1   9   6  358.06   26.80
   1   9   6  410.16   40.60
   1   9   6  306.57   36.40
   1   9   7  708.33   36.60
   1   9   7  686.93   53.99
   1   9   8  687.23   54.99
   1   9   8  666.33   33.60
   1   9   8  540.05   49.20
   1   9   9  126.49   24.20
   1   9   9  103.69   23.20
   1   9  10   -8.40    5.40
   1   9  10   -6.80    7.20
   1   9  11   53.39   16.50
   1   9  11   35.00   13.60
   1   9  12  102.79   25.20
   1   9  12  114.89   26.20
   1   9  13  210.48   37.30
   1   9  14   47.20   18.70
   1  10  -4   17.10   14.10
   1  10  -3   67.19   20.70
   1  10  -2  134.99   29.30
   1  10  -1  100.39   24.60
   1  10   0    0.80    5.90
   1  10   1   12.50   11.90
   1  10   1    1.90    4.00
   1  10   1   14.80    9.40
   1  10   2   14.50    7.80
   1  10   2   21.00   10.40
   1  10   2   12.60   10.30
   1  10   3   56.29   15.40
   1  10   3   44.00   15.20
   1  10   3   34.80   13.70
   1  10   3   66.09   15.50
   1  10   4  155.68   27.00
   1  10   4  116.69   23.30
   1  10   4  161.38   27.40
   1  10   4  119.19   20.80
   1  10   5   41.30   13.40
   1  10   5   33.40   12.80
   1  10   5   49.00   16.80
   1  10   5   61.89   12.60
   1  10   5   43.80   12.50
   1  10   6   28.60   12.10
   1  10   6   42.30   15.30
   1  10   6   33.90    8.70
   1  10   7   -2.90    4.60
   1  10   7    9.20    6.30
   1  10   7    2.00    3.10
   1  10   7   -4.40    9.90
   1  10   8   97.99   21.90
   1  10   8   78.79   12.30
   1  10   8   58.49   16.70
   1  10   9  353.56   41.50
   1  10   9  358.06   24.70
   1  10   9  364.16   42.80
   1  10  10  230.18   35.70
   1  10  10  181.08   31.20
   1  10  11  124.69   26.90
   1  10  11  123.09   26.30
   1  10  12  -10.70    9.60
   1  10  12   12.30    9.10
   1  10  13   13.70   10.20
   1  10  13   14.50   10.90
   1  10  14   12.70   12.70
   1  11  -3  -12.90   11.20
   1  11  -2  -10.10    7.10
   1  11  -1    6.80   11.20
   1  11   0  104.79   24.20
   1  11   0   79.09   20.50
   1  11   1   41.00   16.00
   1  11   1   31.80   12.70
   1  11   2   13.40    8.90
   1  11   2    8.60    8.70
   1  11   3   -9.00    6.80
   1  11   3    6.90    8.40
   1  11   3    7.10    6.60
   1  11   4    6.60    5.70
   1  11   4   24.30   11.70
   1  11   4    8.40    7.30
   1  11   5   41.30   14.50
   1  11   5   82.89   21.30
   1  11   5   84.69   15.90
   1  11   6   30.10   11.90
   1  11   6   32.70   15.60
   1  11   6   35.20   10.10
   1  11   7   84.09   20.80
   1  11   7   83.19   22.30
   1  11   7   51.99   11.50
   1  11   8   76.39   20.20
   1  11   8   67.69   12.20
   1  11   8   25.50   10.30
   1  11   9   -1.20    7.90
   1  11   9    1.50    2.30
   1  11   9   -2.60    5.00
   1  11  10   18.10   12.90
   1  11  10    7.80    8.80
   1  11  11    0.10    5.20
   1  11  11   -2.30    6.20
   1  11  12   31.40   14.40
   1  11  12    1.60    6.70
   1  11  13   17.20   14.80
   1  11  13    5.70   11.00
   1  12  -1   10.10   10.30
   1  12  -1    0.90    7.70
   1  12   0   -1.70    8.50
   1  12   0   -4.70    7.70
   1  12   1   55.49   20.60
   1  12   1   13.50   14.70
   1  12   2   52.09   18.80
   1  12   2   28.90   14.90
   1  12   3   58.59   19.50
   1  12   3   59.49   20.60
   1  12   4   35.70   16.60
   1  12   4   51.79   18.30
   1  12   5   -7.40    9.10
   1  12   5   -4.10    7.80
   1  12   5   -3.40    5.50
   1  12   6    4.20    5.90
   1  12   6   18.10   14.10
   1  12   6    9.50    5.40
   1  12   7    2.40    5.30
   1  12   7   -2.20    9.30
   1  12   7   12.40    6.20
   1  12   8   46.90   16.90
   1  12   8   29.00    8.30
   1  12   9  107.99   26.30
   1  12   9  141.49   29.70
   1  12  10  111.29   27.40
   1  12  10   79.29   23.00
   1  12  11    4.80    8.30
   1  12  11   14.30   10.00
   1  12  12    6.90   10.30
   1  12  12    9.90    8.80
   1  12  13  -16.50   13.60
   1  13   1   53.19   20.70
   1  13   1   15.90    9.50
   1  13   2   53.19   20.40
   1  13   2   27.00   16.50
   1  13   3   13.40    9.60
   1  13   3    8.40    8.60
   1  13   4    3.20    8.30
   1  13   4   -3.90    6.80
   1  13   5   84.19   23.10
   1  13   5   73.69   23.40
   1  13   5  106.69   20.70
   1  13   6  171.48   33.60
   1  13   6  185.18   25.80
   1  13   6  147.49   31.10
   1  13   7  136.99   29.10
   1  13   7  165.78   34.30
   1  13   7  145.39   22.00
   1  13   8   88.99   23.60
   1  13   9   19.70   11.40
   1  13  10   22.20   11.60
   1  13  11   52.29   21.50
   1  14   3   54.99   22.80
   1  14   4   32.30   16.00
   1  14   4   24.70   15.80
   1  14   4   36.40   14.00
   1  14   5   10.10   11.30
   1  14   5    3.10   10.40
   1  14   5   21.20   10.00
   1  14   6    0.90    6.00
   1  14   6   -1.30   12.70
   1  14   7   -7.00    8.60
   1  14   8   30.90   16.60
   1  14   9   44.70   19.00
   1  14  10   77.19   26.30
   2 -13  -9   74.29   24.50
   2 -13  -8  135.29   33.50
   2 -13  -7   66.39   22.20
   2 -13  -6   -3.40    9.30
   2 -13  -5   68.09   23.20
   2 -13  -4   61.89   22.00
   2 -13  -3  132.99   51.59
   2 -13  -3   71.99   23.80
   2 -13  -2   70.69   23.00
   2 -13  -1   14.20   13.70
   2 -12 -11   14.70   11.30
   2 -12 -10   -6.30    8.20
   2 -12  -9   -6.60   11.80
   2 -12  -8    4.70    5.20
   2 -12  -7   34.90   15.70
   2 -12  -6  148.19   31.20
   2 -12  -5   63.99   20.20
   2 -12  -4   57.59   20.10
   2 -12  -3    8.40    9.40
   2 -12  -2    2.90    8.10
   2 -12  -1   -6.40   12.10
   2 -12  -1   24.00   13.20
   2 -12   0   59.19   34.90
   2 -12   0   56.49   20.90
   2 -12   1   89.59   26.00
   2 -11 -12   15.30   15.90
   2 -11 -12    3.30    8.40
   2 -11 -11    5.00    9.90
   2 -11 -11  -23.00   13.50
   2 -11 -10   21.00   12.60
   2 -11  -9   52.49   18.10
   2 -11  -8   79.09   22.30
   2 -11  -7   38.50   15.70
   2 -11  -6    2.50    7.00
   2 -11  -5   76.99   20.90
   2 -11  -4   64.59   20.00
   2 -11  -3   54.29   18.10
   2 -11  -2    4.40    7.70
   2 -11  -1    4.20    6.60
   2 -11   0  -20.30   20.30
   2 -11   0   -3.00    7.00
   2 -11   1    8.00   16.20
   2 -11   1   -6.40    9.70
   2 -11   2  -26.60   25.00
   2 -11   2   13.90   10.30
   2 -11   3   18.90   40.70
   2 -10 -13   34.00   23.30
   2 -10 -12   54.29   26.00
   2 -10 -12   21.70   14.80
   2 -10 -11   99.69   30.40
   2 -10 -11   89.49   25.10
   2 -10 -10    6.00    7.00
   2 -10  -9   41.50   17.80
   2 -10  -8   75.19   21.30
   2 -10  -7  177.38   30.50
   2 -10  -7  231.48   36.20
   2 -10  -6  415.06   47.20
   2 -10  -5  137.79   27.20
   2 -10  -4    7.20    6.00
   2 -10  -3    8.70    4.60
   2 -10  -2    4.30    4.30
   2 -10  -1  102.89   19.20
   2 -10  -1  107.09   23.80
   2 -10   0  101.19   18.60
   2 -10   0  128.19   27.40
   2 -10   1   26.70   29.10
   2 -10   1   85.09   22.60
   2 -10   2   47.10   29.20
   2 -10   2   72.99   20.40
   2 -10   3  -19.00   22.20
   2 -10   4   28.30   28.60
   2 -10   5   19.60   33.70
   2  -9 -13   22.90   19.80
   2  -9 -13   -9.80   10.50
   2  -9 -12   15.20   17.00
   2  -9 -12   -0.10    4.70
   2  -9 -11    0.60    9.20
   2  -9 -11  -10.60    9.50
   2  -9 -10  115.89   32.60
   2  -9 -10   58.39   18.90
   2  -9  -9  176.38   31.40
   2  -9  -8  128.79   27.00
   2  -9  -8  192.48   31.80
   2  -9  -7  119.99   24.20
   2  -9  -7  180.38   29.90
   2  -9  -6   32.30   10.60
   2  -9  -6   29.30   12.00
   2  -9  -5  219.08   32.30
   2  -9  -4  627.64   54.69
   2  -9  -3  413.06   43.90
   2  -9  -2  386.96   43.20
   2  -9  -1  158.28   27.10
   2  -9   0    3.30    4.80
   2  -9   0   -1.10    7.50
   2  -9   1   29.40   14.20
   2  -9   1   34.90   10.50
   2  -9   1   47.60   16.50
   2  -9   2  130.89   41.80
   2  -9   2   90.99   16.30
   2  -9   2  114.09   24.90
   2  -9   3  106.59   38.30
   2  -9   3  186.98   32.40
   2  -9   4  151.08   57.19
   2  -9   5  -30.30   27.90
   2  -9   6  -55.79   35.90
   2  -8 -13   43.20   24.10
   2  -8 -13   17.50   11.40
   2  -8 -12   23.40   19.00
   2  -8 -12   12.50   10.20
   2  -8 -11  132.39   35.70
   2  -8 -11  109.49   25.80
   2  -8 -10  111.59   29.10
   2  -8 -10  185.78   40.80
   2  -8 -10  152.88   23.80
   2  -8 -10  148.59   29.70
   2  -8  -9   20.00   11.20
   2  -8  -9   32.10   11.10
   2  -8  -9   26.00   12.60
   2  -8  -8    6.30    9.90
   2  -8  -8   10.00    6.50
   2  -8  -8   11.80    7.70
   2  -8  -7  120.79   23.60
   2  -8  -7  208.58   31.20
   2  -8  -6  300.37   35.70
   2  -8  -6  408.46   42.70
   2  -8  -5  442.66   39.90
   2  -8  -5  490.25   46.10
   2  -8  -4   30.40   11.80
   2  -8  -4   13.60    6.70
   2  -8  -3    1.50    4.70
   2  -8  -3   -2.30    7.70
   2  -8  -2    5.60    4.90
   2  -8  -1   24.00   10.70
   2  -8   0  217.78   25.30
   2  -8   0  203.58   28.90
   2  -8   1  227.88   29.60
   2  -8   1  214.68   24.60
   2  -8   1  222.18   30.70
   2  -8   2  365.16   36.80
   2  -8   2  372.96   32.20
   2  -8   2  388.46   42.30
   2  -8   2  398.96   65.59
   2  -8   3  152.48   20.20
   2  -8   3  193.88   31.10
   2  -8   3  126.79   21.60
   2  -8   3   99.09   39.80
   2  -8   4   -5.70   15.10
   2  -8   4   -3.30    3.70
   2  -8   5   77.79   39.10
   2  -8   6   17.70   23.30
   2  -8   7    0.20   32.00
   2  -8   8    1.70   21.00
   2  -7 -13   11.90   17.60
   2  -7 -12  -18.80   15.80
   2  -7 -12   -3.10    8.50
   2  -7 -11   -8.80    9.20
   2  -7 -11   -1.70    8.30
   2  -7 -10   25.70   13.30
   2  -7 -10   64.69   24.40
   2  -7 -10   21.40    9.50
   2  -7 -10   32.70   15.40
   2  -7  -9   88.39   24.60
   2  -7  -9  155.38   34.00
   2  -7  -9   93.29   17.60
   2  -7  -9   97.59   22.00
   2  -7  -8   20.30   12.30
   2  -7  -8   16.60    7.90
   2  -7  -8   51.99   12.40
   2  -7  -8   51.39   16.10
   2  -7  -7   86.99   18.40
   2  -7  -7   69.29   14.70
   2  -7  -7   99.19   20.00
   2  -7  -7   71.69   17.90
   2  -7  -6   45.90   14.50
   2  -7  -6   38.90   12.90
   2  -7  -6   39.40   13.20
   2  -7  -6   59.79   15.10
   2  -7  -5   31.50   10.60
   2  -7  -5   10.90    6.90
   2  -7  -5   72.29   17.00
   2  -7  -5   57.19   14.70
   2  -7  -4  193.08   23.70
   2  -7  -4  206.08   27.60
   2  -7  -4  235.08   28.60
   2  -7  -4  229.88   30.60
   2  -7  -3  147.49   24.10
   2  -7  -3  155.58   23.20
   2  -7  -3  135.79   22.30
   2  -7  -2  201.08   26.60
   2  -7  -2  228.78   27.80
   2  -7  -2  272.37   33.50
   2  -7  -1  303.47   33.30
   2  -7  -1  286.77   31.80
   2  -7  -1  347.57   37.60
   2  -7   0   23.60    7.70
   2  -7   0   36.80   14.60
   2  -7   0   37.70   10.40
   2  -7   0   32.10   11.30
   2  -7   1   33.20   15.50
   2  -7   1   46.50   10.90
   2  -7   1   16.90    8.00
   2  -7   2   54.29   11.60
   2  -7   2   68.29   16.60
   2  -7   3  204.78   22.70
   2  -7   3  206.08   30.70
   2  -7   3  194.78   43.90
   2  -7   4  208.58   23.50
   2  -7   4  141.49   40.20
   2  -7   5   39.40   10.70
   2  -7   5   40.80   29.50
   2  -7   6    1.70   20.40
   2  -7   7    9.60   18.00
   2  -7   8   -0.20   26.10
   2  -7   9   24.50   25.70
   2  -6 -13   18.40    9.90
   2  -6 -12    5.50   14.00
   2  -6 -11    5.10    7.60
   2  -6 -11   20.40   15.20
   2  -6 -10  108.69   25.40
   2  -6 -10  133.99   33.90
   2  -6 -10   97.39   19.50
   2  -6  -9   10.20    9.00
   2  -6  -9   18.60   12.40
   2  -6  -9    9.00    5.90
   2  -6  -8   71.09   21.90
   2  -6  -8   87.69   24.90
   2  -6  -8   77.69   19.80
   2  -6  -8   88.79   17.20
   2  -6  -8   85.09   19.30
   2  -6  -8   69.49   16.80
   2  -6  -7  193.78   28.20
   2  -6  -7  213.28   24.90
   2  -6  -7  208.88   27.70
   2  -6  -7  210.38   29.00
   2  -6  -7  234.08   32.00
   2  -6  -6  513.35   43.20
   2  -6  -6  620.94   41.60
   2  -6  -6  642.04   47.10
   2  -6  -6  648.94   49.90
   2  -6  -6  606.64   50.89
   2  -6  -5  722.83   48.70
   2  -6  -5  832.32   47.20
   2  -6  -5  848.52   52.69
   2  -6  -5  809.62   57.39
   2  -6  -5  842.22   55.19
   2  -6  -4    4.10    4.70
   2  -6  -4   -2.50    3.90
   2  -6  -4    2.70    4.80
   2  -6  -4    3.80    4.20
   2  -6  -3  584.04   36.70
   2  -6  -3  606.34   44.40
   2  -6  -3  656.33   44.10
   2  -6  -3  625.84   47.40
   2  -6  -2  481.75   39.20
   2  -6  -2  519.45   38.80
   2  -6  -2  548.25   44.00
   2  -6  -1  233.38   26.40
   2  -6  -1  215.38   24.80
   2  -6  -1  229.68   28.00
   2  -6   0  445.86   37.70
   2  -6   0  531.05   43.90
   2  -6   1  111.29   16.20
   2  -6   1  103.99   24.10
   2  -6   1  118.59   19.50
   2  -6   2   33.80   14.10
   2  -6   2   39.20    9.40
   2  -6   2   39.60   11.80
   2  -6   3   15.80   17.50
   2  -6   3   23.50   11.80
   2  -6   3   22.70    7.30
   2  -6   3   16.30    8.10
   2  -6   4   12.80   16.80
   2  -6   4    1.60    2.50
   2  -6   5   88.29   32.60
   2  -6   5  112.59   18.10
   2  -6   6   78.19   36.20
   2  -6   7    9.70   23.50
   2  -6   8   -0.10   16.00
   2  -6   9    1.80   18.80
   2  -6  10  -13.30   22.30
   2  -5 -13   29.30   23.30
   2  -5 -12   12.30   11.10
   2  -5 -11   32.30   19.10
   2  -5 -11   14.70   10.60
   2  -5 -10   87.89   28.10
   2  -5 -10  103.49   25.00
   2  -5  -9  490.15   61.49
   2  -5  -9  360.56   46.10
   2  -5  -9  421.36   37.90
   2  -5  -9  437.56   43.10
   2  -5  -8  524.25   58.19
   2  -5  -8  396.46   48.00
   2  -5  -8  396.06   35.20
   2  -5  -8  402.46   39.80
   2  -5  -7   70.59   17.10
   2  -5  -7   60.19   18.20
   2  -5  -7   86.89   23.20
   2  -5  -7   81.39   15.00
   2  -5  -7   90.19   17.70
   2  -5  -6    5.80    7.40
   2  -5  -6   -0.70    3.70
   2  -5  -6    4.50    5.20
   2  -5  -6    1.90    4.20
   2  -5  -5   22.00    9.20
   2  -5  -5   19.30    6.10
   2  -5  -5   14.10    6.60
   2  -5  -5   28.40   10.30
   2  -5  -4  826.82   46.80
   2  -5  -4  913.31   47.30
   2  -5  -4  992.20   51.89
   2  -5  -4  954.90   56.69
   2  -5  -4  976.10   55.29
   2  -5  -3  480.15   31.40
   2  -5  -3  583.64   38.40
   2  -5  -3  569.24   41.80
   2  -5  -3  562.84   40.00
   2  -5  -2  170.18   15.80
   2  -5  -2  202.88   23.30
   2  -5  -2  199.28   21.80
   2  -5  -2  208.68   24.40
   2  -5  -1  221.88   24.20
   2  -5  -1  192.58   23.50
   2  -5   0  276.97   28.90
   2  -5   0  250.27   25.90
   2  -5   0  250.67   27.00
   2  -5   1   61.99   16.60
   2  -5   1   70.99   14.60
   2  -5   1   67.49   11.70
   2  -5   1   59.29   13.20
   2  -5   2  516.35   33.00
   2  -5   2  534.55   39.70
   2  -5   2  478.15   37.80
   2  -5   2  572.54   53.49
   2  -5   3 1070.39   50.19
   2  -5   3 1118.19   58.89
   2  -5   3 1089.99   61.39
   2  -5   3 1169.68   82.39
   2  -5   4 1100.59   52.39
   2  -5   4 1032.10   56.99
   2  -5   4 1106.29   65.29
   2  -5   4 1073.19   84.09
   2  -5   4  997.40   90.89
   2  -5   5  418.16   33.60
   2  -5   5  409.86   35.90
   2  -5   5  313.27   57.69
   2  -5   6    5.90   18.70
   2  -5   7   22.20   20.30
   2  -5   8   78.39   17.30
   2  -5   8   74.99   33.80
   2  -5   8  104.79   19.00
   2  -5   9   -5.00   17.30
   2  -5   9   49.00   14.50
   2  -5  10   18.20   20.40
   2  -5  11  -26.20   24.70
   2  -5  11    5.50   13.90
   2  -4 -13   92.89   36.90
   2  -4 -12   46.10   24.10
   2  -4 -11   10.00   13.00
   2  -4 -11   14.60   18.40
   2  -4 -10   95.99   29.40
   2  -4 -10   54.79   20.70
   2  -4 -10   57.39   16.90
   2  -4  -9   68.89   24.80
   2  -4  -9   42.70   16.40
   2  -4  -9   74.39   16.10
   2  -4  -9   76.49   17.90
   2  -4  -8   18.00   10.50
   2  -4  -8   18.50   11.60
   2  -4  -8    5.40    4.10
   2  -4  -8    6.60    5.70
   2  -4  -7  140.79   27.10
   2  -4  -7  173.78   21.90
   2  -4  -7  187.38   26.30
   2  -4  -7  183.98   23.60
   2  -4  -6 1156.48   56.19
   2  -4  -6 1147.69   57.89
   2  -4  -6 1157.78   64.89
   2  -4  -5 1781.42   69.89
   2  -4  -5 1913.61   81.49
   2  -4  -5 1803.82   77.19
   2  -4  -5 1890.81   72.59
   2  -4  -4 1775.32   67.79
   2  -4  -4 1837.82   69.39
   2  -4  -4 1808.62   73.99
   2  -4  -4 1807.02   77.09
   2  -4  -3   12.70    5.20
   2  -4  -3   10.20    4.40
   2  -4  -3    8.40    5.30
   2  -4  -3   11.60    5.00
   2  -4  -2  301.27   29.30
   2  -4  -2  262.57   19.00
   2  -4  -2  289.47   26.80
   2  -4  -2  293.07   24.30
   2  -4  -2  259.47   24.20
   2  -4  -1  811.52   48.30
   2  -4  -1  757.02   42.70
   2  -4  -1  752.82   44.20
   2  -4   0 1881.61   75.19
   2  -4   0 1799.62   69.09
   2  -4   0 1817.32   71.89
   2  -4   1 1491.05   57.49
   2  -4   1 1516.45   65.49
   2  -4   1 1452.55   62.19
   2  -4   1 1461.05   76.69
   2  -4   2  448.86   29.20
   2  -4   2  458.95   33.90
   2  -4   2  449.95   33.80
   2  -4   2  488.35   44.80
   2  -4   3  210.18   20.20
   2  -4   3  245.58   24.80
   2  -4   3  212.38   31.50
   2  -4   3  226.58   25.00
   2  -4   4    1.20    6.50
   2  -4   4   -1.80    8.60
   2  -4   4   -1.20    7.30
   2  -4   4    4.30    3.80
   2  -4   5  273.97   26.00
   2  -4   5  254.07   27.10
   2  -4   5  286.87   22.50
   2  -4   5  199.78   40.60
   2  -4   5  298.87   43.90
   2  -4   6  676.03   39.30
   2  -4   6  528.05   69.79
   2  -4   7  152.28   19.90
   2  -4   7   78.39   31.50
   2  -4   8   96.79   20.30
   2  -4   8   75.19   14.80
   2  -4   8   57.79   29.20
   2  -4   9   71.09   17.30
   2  -4   9   64.29   15.60
   2  -4  10   12.70   18.50
   2  -4  10    1.20    4.10
   2  -4  10   -4.30   12.90
   2  -4  11  -36.00   25.10
   2  -4  11   32.40   15.70
   2  -3 -13   15.00   16.50
   2  -3 -12   17.10   17.20
   2  -3 -11  -29.80   18.40
   2  -3 -10    5.70    9.90
   2  -3 -10  -35.60   18.20
   2  -3  -9  176.18   34.80
   2  -3  -9  190.28   39.40
   2  -3  -9  219.98   28.40
   2  -3  -9  215.08   28.60
   2  -3  -8  444.86   56.39
   2  -3  -8  431.46   50.09
   2  -3  -8  423.16   37.80
   2  -3  -8  481.85   40.40
   2  -3  -7   99.39   19.00
   2  -3  -7   66.89   17.90
   2  -3  -7   91.29   22.30
   2  -3  -7   62.59   13.20
   2  -3  -7   81.89   15.30
   2  -3  -6    0.20    4.30
   2  -3  -6    0.00    7.20
   2  -3  -6   11.10    5.20
   2  -3  -6    2.20    3.30
   2  -3  -5   66.49   13.50
   2  -3  -5   48.80   16.00
   2  -3  -5   67.29   12.10
   2  -3  -5   64.89   11.50
   2  -3  -4 1341.67   55.19
   2  -3  -4 1337.17   52.69
   2  -3  -4 1354.96   60.19
   2  -3  -3  478.95   30.20
   2  -3  -3  498.15   29.20
   2  -3  -3  511.35   33.40
   2  -3  -3  484.85   33.00
   2  -3  -2    0.20    2.10
   2  -3  -2    1.80    2.30
   2  -3  -2   -1.60    3.90
   2  -3  -2    4.20    2.90
   2  -3  -1   -9.50    4.60
   2  -3  -1    2.30    4.50
   2  -3  -1    1.10    1.60
   2  -3  -1   -3.70    4.00
   2  -3   0  406.16   30.50
   2  -3   0  331.17   24.70
   2  -3   0  333.77   25.50
   2  -3   1   79.59   13.40
   2  -3   1   47.70    9.50
   2  -3   1   57.29    9.70
   2  -3   1   51.09   10.10
   2  -3   2  346.67   24.20
   2  -3   2  348.37   27.00
   2  -3   2  369.46   27.70
   2  -3   2  378.36   35.20
   2  -3   3  250.77   21.00
   2  -3   3  244.88   23.20
   2  -3   3  238.48   23.70
   2  -3   3  220.28   28.50
   2  -3   4 1224.88   53.39
   2  -3   4 1274.37   58.79
   2  -3   4 1309.17   43.40
   2  -3   4 1230.98   83.49
   2  -3   4 1266.87   77.19
   2  -3   5 1213.18   57.09
   2  -3   5 1082.49   82.59
   2  -3   5 1256.17   84.29
   2  -3   5 1211.68   46.60
   2  -3   6   67.69   20.20
   2  -3   6   42.40   20.00
   2  -3   6   74.49   12.00
   2  -3   7   67.09   24.10
   2  -3   7   96.19   15.30
   2  -3   8   94.39   32.60
   2  -3   8  250.07   27.10
   2  -3   9    7.90   11.60
   2  -3   9   36.70   11.20
   2  -3  10   57.79   26.10
   2  -3  10  108.59   21.30
   2  -3  10   94.79   26.30
   2  -3  11    7.80   11.90
   2  -3  11   12.90    8.00
   2  -3  11   25.90   17.20
   2  -3  12   -6.00    9.40
   2  -2 -13   63.39   30.40
   2  -2 -12   24.40   24.40
   2  -2 -11   -5.20    9.50
   2  -2 -10  -29.40   17.30
   2  -2 -10    0.80   12.60
   2  -2  -9   -9.10   11.70
   2  -2  -9    7.30    8.70
   2  -2  -8   52.99   20.00
   2  -2  -8    6.70   12.00
   2  -2  -8   40.00   12.00
   2  -2  -7  238.68   29.80
   2  -2  -7  238.08   38.50
   2  -2  -7  238.18   36.50
   2  -2  -7  216.18   26.00
   2  -2  -7  223.88   25.20
   2  -2  -6  182.68   23.80
   2  -2  -6  198.78   32.60
   2  -2  -6  147.49   19.70
   2  -2  -6  172.08   19.80
   2  -2  -5  170.68   21.10
   2  -2  -5  138.89   22.60
   2  -2  -5  156.88   18.70
   2  -2  -5  153.88   17.30
   2  -2  -4  805.72   54.99
   2  -2  -4  869.61   42.80
   2  -2  -4  865.81   38.60
   2  -2  -4  838.22   44.60
   2  -2  -3   70.69   15.80
   2  -2  -3   78.69   11.60
   2  -2  -3   77.29    9.80
   2  -2  -3   94.69   13.10
   2  -2  -2  656.53   38.30
   2  -2  -2  596.14   31.60
   2  -2  -2  645.14   28.60
   2  -2  -2  622.44   33.20
   2  -2  -2  608.34   32.60
   2  -2  -1  203.88   17.00
   2  -2  -1  178.78   16.30
   2  -2  -1  217.58   18.30
   2  -2   0  188.38   19.20
   2  -2   0  160.78   15.30
   2  -2   0  156.68   15.00
   2  -2   1 1387.26   48.60
   2  -2   1 1412.96   54.29
   2  -2   1 1400.06   50.19
   2  -2   1 1313.17   49.40
   2  -2   2  105.89   13.80
   2  -2   2  107.69   12.50
   2  -2   2  111.89   16.30
   2  -2   2  115.39   13.80
   2  -2   3   -1.30    2.60
   2  -2   3   -0.40    2.80
   2  -2   3   -1.10    0.90
   2  -2   3    0.80    2.80
   2  -2   4  271.87   22.60
   2  -2   4  265.67   16.00
   2  -2   4  263.07   30.80
   2  -2   5  166.88   19.60
   2  -2   5  171.18   27.90
   2  -2   5  135.29   25.10
   2  -2   5  186.48   15.90
   2  -2   6  636.44   60.59
   2  -2   6  527.15   55.69
   2  -2   6  685.03   36.70
   2  -2   7   41.60   18.30
   2  -2   7   25.40   15.50
   2  -2   7   21.70    7.40
   2  -2   8   -3.80   13.50
   2  -2   8   -1.00    4.00
   2  -2   9    5.80   11.00
   2  -2   9   11.90    6.60
   2  -2   9    1.30    7.80
   2  -2  10    6.70   11.00
   2  -2  10   -0.50    5.20
   2  -2  10    5.00    8.60
   2  -2  11    1.80   12.50
   2  -2  11   -7.20    8.00
   2  -2  11   17.00   12.20
   2  -2  12   25.00   12.80
   2  -2  12   18.10   11.70
   2  -2  13    5.50   15.60
   2  -1 -13   10.80    9.50
   2  -1 -12   -8.80   12.10
   2  -1 -11    5.20    9.30
   2  -1 -10   23.10   17.60
   2  -1  -9   76.89   27.10
   2  -1  -9   72.29   24.50
   2  -1  -8  233.98   43.70
   2  -1  -8  591.94   65.59
   2  -1  -7  368.46   37.70
   2  -1  -7  342.57   47.40
   2  -1  -7  297.57   44.50
   2  -1  -6   21.60    8.80
   2  -1  -6   24.20   13.30
   2  -1  -6   27.30    9.20
   2  -1  -5  206.28   23.20
   2  -1  -5  177.88   28.40
   2  -1  -5  169.28   20.50
   2  -1  -5  184.28   18.60
   2  -1  -4  906.51   46.00
   2  -1  -4  900.51   58.49
   2  -1  -4  832.32   43.40
   2  -1  -4  867.41   37.40
   2  -1  -3 1987.90   66.49
   2  -1  -3 1808.22   81.09
   2  -1  -3 1952.70   65.79
   2  -1  -3 1986.60   55.69
   2  -1  -2  604.34   34.20
   2  -1  -2  623.24   43.00
   2  -1  -2  574.54   30.10
   2  -1  -2  621.34   23.50
   2  -1  -2  574.04   29.00
   2  -1  -1  972.30   42.80
   2  -1  -1  915.01   36.70
   2  -1  -1  898.31   29.30
   2  -1  -1  919.81   36.10
   2  -1  -1  917.41   34.80
   2  -1   0   51.89    7.70
   2  -1   0   64.09    8.70
   2  -1   0   58.09    7.50
   2  -1   1  267.97   17.80
   2  -1   1  259.47   12.40
   2  -1   1  287.57   17.60
   2  -1   1  260.17   16.50
   2  -1   2  728.33   32.50
   2  -1   2  731.33   31.40
   2  -1   2  752.92   37.70
   2  -1   3  505.85   28.20
   2  -1   3  483.95   27.90
   2  -1   3  522.25   18.00
   2  -1   3  480.35   33.50
   2  -1   4 1398.36   55.09
   2  -1   4 1448.06   43.20
   2  -1   4 1299.77   65.79
   2  -1   5 1149.58   53.69
   2  -1   5 1116.79   68.19
   2  -1   5 1225.58   44.90
   2  -1   6  215.48   30.30
   2  -1   6  269.17   36.80
   2  -1   7  209.18   35.40
   2  -1   7  220.58   22.60
   2  -1   8  182.68   36.80
   2  -1   8  239.78   26.20
   2  -1   8  235.28   33.70
   2  -1   9  132.99   30.30
   2  -1   9  210.58   27.40
   2  -1   9  170.48   32.30
   2  -1  10  190.08   37.00
   2  -1  10  255.47   32.00
   2  -1  10  205.58   35.50
   2  -1  11   23.60   15.30
   2  -1  11   19.90    8.70
   2  -1  11    8.10   10.10
   2  -1  12    9.50   12.80
   2  -1  12    5.20    7.80
   2  -1  12    0.40   10.30
   2  -1  13   17.20   10.20
   2  -1  13   -5.30    8.50
   2   0 -12   85.49   32.20
   2   0 -12   74.39   18.10
   2   0 -11   37.90   18.10
   2   0 -10   33.80   17.60
   2   0  -9   20.80   15.20
   2   0  -8   66.59   22.40
   2   0  -8   58.09   22.10
   2   0  -7  614.04   65.09
   2   0  -7  631.74   50.79
   2   0  -6  882.41   73.29
   2   0  -6 1061.69   60.89
   2   0  -5 1206.18   61.49
   2   0  -4 1441.96   83.39
   2   0  -4 1364.16   60.39
   2   0  -3  359.76   35.80
   2   0  -3  378.26   36.70
   2   0  -3  338.97   25.00
   2   0  -2  131.19   13.90
   2   0  -2  123.29   12.80
   2   0  -2  129.29   18.60
   2   0  -2  134.09   19.30
   2   0  -2  116.09   13.30
   2   0  -2  122.59   13.30
   2   0  -2  122.29    8.30
   2   0  -1   85.19    8.60
   2   0  -1   85.59   11.90
   2   0  -1   79.49   11.70
   2   0  -1   82.99    9.80
   2   0  -1   76.89    9.30
   2   0   0 1614.84   47.40
   2   0   0 1681.33   53.69
   2   0   0 1651.43   48.90
   2   0   0 1605.24   45.00
   2   0   0 1660.53   42.00
   2   0   0 1676.33   45.60
   2   0   1 2169.78   59.49
   2   0   1 2338.17   54.49
   2   0   1 2303.57   58.59
   2   0   1 2205.08   50.59
   2   0   1 2209.38   50.89
   2   0   2 5313.47  120.79
   2   0   2 5424.06  113.59
   2   0   2 5564.34  121.19
   2   0   2 5438.56  119.19
   2   0   3   30.80    7.20
   2   0   3   27.70    6.40
   2   0   4   44.70   10.40
   2   0   4   58.89   10.50
   2   0   5  927.51   57.39
   2   0   5  922.61   49.30
   2   0   6 3101.29  125.79
   2   0   6 3455.75  120.09
   2   0   7 1233.88   82.99
   2   0   7 1340.97   57.69
   2   0   7 1385.26   76.79
   2   0   8   76.49   22.30
   2   0   8   30.80   12.00
   2   0   8   96.79   16.70
   2   0   8   61.99   18.40
   2   0   9   29.90   16.40
   2   0   9   19.20   10.20
   2   0   9   40.10   12.10
   2   0   9   36.00   14.50
   2   0  10   -5.60    8.40
   2   0  10  -14.60    8.60
   2   0  10    5.30    8.60
   2   0  11   75.09   20.00
   2   0  11   60.79   17.70
   2   0  11   71.89   21.20
   2   0  12   23.20   11.00
   2   0  12   60.59   17.90
   2   0  12   26.40   12.80
   2   0  13   24.40   14.00
   2   0  13   11.00   11.00
   2   0  14   27.10   15.40
   2   0  14   31.30   19.50
   2   1 -11   -0.80    5.70
   2   1 -11   -2.20    7.60
   2   1 -10    9.90    6.80
   2   1 -10    6.10   10.30
   2   1  -9    3.20    9.50
   2   1  -8   67.39   26.00
   2   1  -8   98.49   27.60
   2   1  -7  171.48   27.60
   2   1  -7  150.58   32.20
   2   1  -7  185.68   38.40
   2   1  -6    6.80    3.70
   2   1  -6   12.40   11.80
   2   1  -6   14.90   12.90
   2   1  -5   32.10   10.30
   2   1  -5   33.90   15.00
   2   1  -5   41.20   18.80
   2   1  -4  460.35   32.70
   2   1  -3 3184.58   94.69
   2   1  -3 3021.40  119.59
   2   1  -3 3045.50  131.79
   2   1  -2 1864.81   54.19
   2   1  -2 1737.33   60.19
   2   1  -2 1638.34   77.29
   2   1  -2 1724.13   86.49
   2   1  -1   53.39    8.10
   2   1  -1   47.30    7.70
   2   1  -1   28.40    8.50
   2   1   0   19.20    3.30
   2   1   0   20.50    3.90
   2   1   0   22.30    5.50
   2   1   0   17.90    5.10
   2   1   0   28.00    8.30
   2   1   0   18.30    4.30
   2   1   0   17.20    4.30
   2   1   1   62.99    7.20
   2   1   1   79.59   11.20
   2   1   1   62.89    6.60
   2   1   1   64.89    7.30
   2   1   1   62.99    6.80
   2   1   1   62.59    6.60
   2   1   1   67.59    4.80
   2   1   2 1002.60   36.80
   2   1   2 1091.79   43.60
   2   1   2 1027.00   30.80
   2   1   2 1041.00   27.10
   2   1   3  688.63   32.90
   2   1   3  676.33   28.70
   2   1   3  741.93   36.90
   2   1   3  740.43   37.00
   2   1   4  724.53   39.10
   2   1   4  881.51   45.20
   2   1   5  334.47   30.20
   2   1   5  380.86   31.60
   2   1   6  730.03   51.79
   2   1   6  823.12   51.59
   2   1   7    3.20    4.00
   2   1   7    7.20    6.00
   2   1   7    2.20    6.10
   2   1   8  127.19   26.70
   2   1   8  129.99   19.10
   2   1   8  164.98   27.00
   2   1   9  160.98   22.60
   2   1   9  170.78   32.80
   2   1   9  201.28   31.40
   2   1  10   87.59   17.40
   2   1  10   58.19   22.60
   2   1  10  134.39   22.90
   2   1  10  132.29   27.20
   2   1  11  125.99   22.90
   2   1  11  148.09   30.30
   2   1  12   21.50   12.20
   2   1  12   36.10   13.40
   2   1  12   45.50   19.20
   2   1  13  -27.70   13.40
   2   1  13   -3.90    9.70
   2   1  14   14.50    9.50
   2   1  14   17.40   13.50
   2   1  15   24.40   17.20
   2   2 -11   28.70   16.70
   2   2 -10    7.80    5.40
   2   2 -10   -4.50    9.30
   2   2  -9   14.80    6.00
   2   2  -9   11.70    8.10
   2   2  -8    0.40    3.40
   2   2  -8   13.00   12.50
   2   2  -7  101.79   27.30
   2   2  -7   78.59   27.80
   2   2  -6  386.26   49.90
   2   2  -6  293.57   47.60
   2   2  -5  141.09   19.80
   2   2  -5  150.08   30.00
   2   2  -5  113.69   29.50
   2   2  -4    5.40    3.80
   2   2  -4    9.10    6.90
   2   2  -4   12.90    8.30
   2   2  -3   28.90    7.80
   2   2  -3   26.90   12.00
   2   2  -2  383.86   26.50
   2   2  -2  351.76   35.00
   2   2  -2  274.97   38.50
   2   2  -1  199.08   10.10
   2   2  -1  202.28   12.80
   2   2  -1  183.28   16.80
   2   2  -1  232.38   25.00
   2   2   0  186.48   10.30
   2   2   0  196.08   19.10
   2   2   0  182.58   15.50
   2   2   1    8.60    1.90
   2   2   1    0.70    1.90
   2   2   1    4.40    5.60
   2   2   1    1.20    1.60
   2   2   1    1.10    2.30
   2   2   1    6.40    2.50
   2   2   2 1249.57   42.50
   2   2   2 1244.88   30.40
   2   2   2 1165.18   32.00
   2   2   2 1209.68   40.40
   2   2   3  609.74   28.60
   2   2   3  583.74   35.30
   2   2   3  600.64   30.90
   2   2   4  140.09   12.30
   2   2   4  175.88   20.30
   2   2   4  166.08   17.90
   2   2   5  250.97   22.00
   2   2   5  322.17   28.00
   2   2   6 1019.60   54.19
   2   2   6 1047.70   57.69
   2   2   7 1512.25   75.49
   2   2   7 1645.74   78.29
   2   2   8  125.49   13.30
   2   2   8  139.19   24.50
   2   2   8  140.49   23.80
   2   2   9    4.50    4.30
   2   2   9   -4.20    7.70
   2   2   9    3.30    6.00
   2   2  10   19.40    7.70
   2   2  10   13.50    5.80
   2   2  10   16.80    9.50
   2   2  11   62.09   19.50
   2   2  12   42.30   15.00
   2   2  12   35.90   15.90
   2   2  13    4.50    6.00
   2   2  13    9.00    8.50
   2   2  14   31.90   16.00
   2   2  14   12.10   11.00
   2   2  15  -17.00   12.70
   2   3 -10   15.30   11.50
   2   3  -9    6.40    4.00
   2   3  -9    3.20    9.40
   2   3  -8   32.60    7.80
   2   3  -8   49.90   21.60
   2   3  -7   55.79    9.30
   2   3  -7   58.79   21.70
   2   3  -6    1.10    2.60
   2   3  -6   -5.40    7.10
   2   3  -6    3.50   10.30
   2   3  -5   38.00    6.40
   2   3  -5   47.30   12.10
   2   3  -5   15.10   10.40
   2   3  -5   48.70   20.40
   2   3  -4  251.97   14.80
   2   3  -4  257.27   26.50
   2   3  -4  227.48   40.30
   2   3  -4  261.87   37.20
   2   3  -3  634.54   21.30
   2   3  -3  643.54   65.09
   2   3  -3  671.63   55.39
   2   3  -3  732.83   42.10
   2   3  -2 1204.88   69.19
   2   3  -2 1206.78   52.79
   2   3  -1  253.57   27.30
   2   3  -1  270.37   22.10
   2   3   0  212.98   21.80
   2   3   0  179.88   29.30
   2   3   0  203.88   18.40
   2   3   0  196.98   14.20
   2   3   1   96.89   18.70
   2   3   1  114.49   13.10
   2   3   1  106.99   12.80
   2   3   1  110.09    8.40
   2   3   1  115.09   10.90
   2   3   1  117.49   10.40
   2   3   2  980.90   32.70
   2   3   2  946.51   36.50
   2   3   2  954.70   25.40
   2   3   3 2681.63   76.59
   2   3   3 2628.24   66.89
   2   3   4  333.17   20.70
   2   3   4  382.26   26.40
   2   3   5   32.50    8.90
   2   3   6    2.80    4.90
   2   3   7  549.35   42.80
   2   3   8  883.31   59.69
   2   3   9  222.18   31.50
   2   3  10    0.10    5.10
   2   3  11   92.19   22.10
   2   3  12    7.50    6.70
   2   3  13   -0.60    5.10
   2   3  13  -14.90   11.30
   2   3  14  -25.00   13.80
   2   3  14   15.50   13.00
   2   3  15    1.60    6.10
   2   3  15   17.70   15.50
   2   4  -9   -5.40    9.50
   2   4  -8   -1.60   10.30
   2   4  -7   62.09    8.70
   2   4  -7   68.19   26.40
   2   4  -6  569.14   24.70
   2   4  -6  573.14   64.19
   2   4  -5  549.25   20.60
   2   4  -5  586.94   61.89
   2   4  -5  436.56   58.49
   2   4  -5  523.55   43.50
   2   4  -5  538.15   43.00
   2   4  -4  254.47   42.80
   2   4  -4  288.67   40.80
   2   4  -4  279.47   29.50
   2   4  -4  291.67   29.50
   2   4  -3   23.90   14.00
   2   4  -3   30.80   11.20
   2   4  -3   42.70   10.40
   2   4  -3   31.90    9.20
   2   4  -2  482.35   44.30
   2   4  -2  549.95   34.00
   2   4  -2  528.95   35.10
   2   4  -1 1544.05   76.09
   2   4  -1 1453.75   55.29
   2   4  -1 1483.95   61.19
   2   4   0  737.73   46.40
   2   4   0  743.93   61.19
   2   4   0  762.32   40.40
   2   4   0  765.02   33.90
   2   4   0  775.52   37.40
   2   4   1  333.37   27.20
   2   4   1  299.17   35.50
   2   4   1  326.27   25.20
   2   4   1  320.17   18.70
   2   4   1  313.37   21.40
   2   4   2  685.03   48.20
   2   4   2  656.73   25.40
   2   4   2  689.33   31.50
   2   4   2  671.83   33.10
   2   4   3  758.42   32.90
   2   4   3  713.13   35.90
   2   4   4    4.70    2.30
   2   4   4    4.80    4.00
   2   4   5  113.79   13.70
   2   4   5  127.79   16.90
   2   4   6  315.57   25.70
   2   4   6  296.07   27.60
   2   4   7 1600.24   74.19
   2   4   8  404.76   38.00
   2   4   9   -6.30    8.20
   2   4  10  157.68   28.30
   2   4  11   86.49   20.50
   2   4  12  177.08   31.90
   2   4  13  123.69   28.80
   2   4  14   18.50   11.80
   2   4  15    1.40    5.90
   2   4  15    4.40   10.20
   2   5  -9   53.09   25.30
   2   5  -8   20.00   13.50
   2   5  -7   48.20   21.80
   2   5  -6    2.80   10.30
   2   5  -5   70.19   21.10
   2   5  -4  185.68   34.30
   2   5  -4  176.38   24.30
   2   5  -4  194.28   25.80
   2   5  -3  180.58   37.30
   2   5  -3  182.68   32.30
   2   5  -3  202.38   24.50
   2   5  -3  180.88   23.50
   2   5  -2  947.21   67.89
   2   5  -2  986.70   83.19
   2   5  -2  940.01   50.09
   2   5  -2  902.61   51.19
   2   5  -1  278.87   41.60
   2   5  -1  385.26   39.60
   2   5  -1  370.96   28.00
   2   5  -1  419.96   33.00
   2   5  -1  397.76   31.70
   2   5   0   33.10    8.40
   2   5   0   34.20   15.40
   2   5   0   20.40    9.40
   2   5   0   22.20    8.10
   2   5   0   18.70    5.70
   2   5   1   35.60    7.70
   2   5   1   43.70   15.50
   2   5   1   45.50    9.90
   2   5   1   41.30    7.70
   2   5   2  123.99   12.20
   2   5   2  108.09   13.80
   2   5   2  136.89   16.20
   2   5   3 1900.11   67.99
   2   5   3 1716.03   54.29
   2   5   3 1846.32   64.29
   2   5   4 3573.44  103.69
   2   5   4 3225.68   94.09
   2   5   5 1894.41   67.69
   2   5   5 2048.70   75.99
   2   5   6  253.37   23.40
   2   5   6  187.68   22.00
   2   5   7    3.30    4.40
   2   5   7    2.20    4.20
   2   5   8  724.23   48.00
   2   5   8  629.54   48.20
   2   5   9  497.25   44.70
   2   5  10  157.38   26.80
   2   5  11   70.69   19.50
   2   5  12   36.90   14.50
   2   5  13   26.50   13.80
   2   5  14   17.40   12.70
   2   5  15   -5.20    6.20
   2   6  -8   -1.20    7.80
   2   6  -7   -1.10   10.80
   2   6  -6   17.20   13.70
   2   6  -5  153.18   34.60
   2   6  -4   77.59   23.60
   2   6  -3    9.50    6.00
   2   6  -3   25.20    9.30
   2   6  -3   17.00    6.80
   2   6  -2    9.90    4.60
   2   6  -2   19.20   10.50
   2   6  -2    4.60    3.20
   2   6  -2   15.10    7.00
   2   6  -1  348.37   40.90
   2   6  -1  339.77   29.40
   2   6  -1  337.87   31.60
   2   6  -1  333.77   31.90
   2   6   0  482.65   22.30
   2   6   0  633.54   50.79
   2   6   0  600.44   40.90
   2   6   0  576.44   35.90
   2   6   0  572.54   39.60
   2   6   1   35.80    9.00
   2   6   1   48.10   11.00
   2   6   1   36.70    8.40
   2   6   2   77.99   13.30
   2   6   2   80.99   11.40
   2   6   3  298.57   26.50
   2   6   3  276.17   25.20
   2   6   3  251.57   19.90
   2   6   4   44.70   10.60
   2   6   4   44.80   10.70
   2   6   4   38.00    7.40
   2   6   5    5.20    4.30
   2   6   5    1.80    6.20
   2   6   5    0.90    1.20
   2   6   5   -0.30    4.80
   2   6   6  237.78   24.00
   2   6   6  261.87   32.80
   2   6   6  194.08   23.40
   2   6   7  468.55   35.70
   2   6   7  399.76   36.50
   2   6   8  418.56   36.50
   2   6   8  389.06   37.40
   2   6   9   20.00   10.30
   2   6   9   25.10    9.80
   2   6  10    4.80    5.50
   2   6  11    1.30    6.00
   2   6  12  108.79   24.80
   2   6  13  148.69   30.80
   2   6  14   16.70   13.00
   2   6  15   23.20   16.80
   2   7  -7   46.50   22.90
   2   7  -6   -4.80   10.50
   2   7  -5   68.09   24.70
   2   7  -5   50.99   17.80
   2   7  -4  138.19   32.30
   2   7  -4  147.29   27.70
   2   7  -3  124.39   30.20
   2   7  -3  153.28   26.10
   2   7  -2  116.49   20.90
   2   7  -2   94.59   24.10
   2   7  -2   90.99   18.10
   2   7  -2   97.69   18.20
   2   7  -1    9.00    5.60
   2   7  -1   36.60   15.50
   2   7  -1   18.40    7.50
   2   7  -1   19.00    8.20
   2   7   0   37.10    6.00
   2   7   0   49.00   12.70
   2   7   0   50.19   12.70
   2   7   0   60.09   12.60
   2   7   1   90.19   12.50
   2   7   1  132.39   20.00
   2   7   1  103.29   15.40
   2   7   1  131.59   19.80
   2   7   2   26.40    8.60
   2   7   2   11.40    7.30
   2   7   2   24.00    6.70
   2   7   3  170.68   25.40
   2   7   3  178.88   22.40
   2   7   3  175.28   18.70
   2   7   4  750.02   57.09
   2   7   4  773.22   47.80
   2   7   4  737.83   39.40
   2   7   4  766.22   47.60
   2   7   5  281.07   34.30
   2   7   5  314.67   30.30
   2   7   5  316.27   29.70
   2   7   6    2.20    3.50
   2   7   6    0.60    1.40
   2   7   6   -1.90    3.80
   2   7   7   -4.40    7.80
   2   7   7    6.40   10.70
   2   7   7    1.20    3.90
   2   7   8  712.73   49.00
   2   7   8  520.55   45.50
   2   7   9  608.24   48.00
   2   7   9  495.25   45.60
   2   7  10   99.49   20.90
   2   7  10  117.19   22.30
   2   7  11   10.30    8.70
   2   7  12   -4.50    8.70
   2   7  13   -0.90    5.20
   2   7  14   21.60   13.40
   2   7  15    0.80   14.70
   2   8  -6   35.00   21.30
   2   8  -6   45.80   18.30
   2   8  -5  149.09   38.30
   2   8  -5  101.59   25.60
   2   8  -4   32.30   20.50
   2   8  -4   41.90   15.50
   2   8  -3   30.50   16.50
   2   8  -3   -2.00    6.90
   2   8  -2   15.20   11.60
   2   8  -2    2.00    6.00
   2   8  -1  252.77   29.70
   2   8  -1  234.58   31.30
   2   8   0  403.76   20.30
   2   8   0  448.86   41.40
   2   8   0  488.85   39.40
   2   8   0  503.25   44.30
   2   8   1  196.18   19.50
   2   8   1  232.98   28.40
   2   8   1  230.38   25.30
   2   8   1  211.58   27.60
   2   8   2   90.09   17.70
   2   8   2   56.39   11.60
   2   8   2   73.69   17.90
   2   8   2   88.09   17.60
   2   8   2   79.49   14.50
   2   8   3   18.90    6.60
   2   8   3   18.50    8.50
   2   8   3   17.10    6.90
   2   8   4   37.70   11.20
   2   8   4   38.60   14.50
   2   8   4   32.00    8.80
   2   8   4   27.00    9.70
   2   8   5  385.66   42.70
   2   8   5  408.36   37.40
   2   8   5  421.86   37.00
   2   8   6  344.97   41.20
   2   8   6  348.27   21.20
   2   8   6  382.36   35.40
   2   8   6  360.06   36.30
   2   8   7   65.29   14.80
   2   8   7   57.89   18.20
   2   8   7   68.99    7.80
   2   8   7   59.89   15.50
   2   8   8  109.79   19.60
   2   8   8   78.99   17.50
   2   8   9    5.10    5.30
   2   8   9    6.50    7.30
   2   8  10   95.99   20.00
   2   8  10   95.09   20.70
   2   8  11   79.39   20.40
   2   8  11   84.19   21.60
   2   8  12   49.50   16.70
   2   8  13   69.39   21.70
   2   8  14   35.90   17.20
   2   9  -5   11.90   12.80
   2   9  -5  -20.60   13.10
   2   9  -4   70.99   22.70
   2   9  -3  157.78   30.80
   2   9  -2  159.08   29.10
   2   9  -1  152.28   27.00
   2   9   0    4.90   10.80
   2   9   0    2.80    4.70
   2   9   1   58.09   10.90
   2   9   1   75.89   18.10
   2   9   1   68.69   14.90
   2   9   2   83.79   17.80
   2   9   2   53.89   11.40
   2   9   2   62.89   16.70
   2   9   2   92.79   17.20
   2   9   3  163.48   23.60
   2   9   3  197.78   32.10
   2   9   3  214.78   28.40
   2   9   3  213.38   24.80
   2   9   4  819.52   64.49
   2   9   4  830.72   50.09
   2   9   4  912.41   60.29
   2   9   5  890.11   68.19
   2   9   5  972.00   61.89
   2   9   5  820.32   58.59
   2   9   5  832.52   49.40
   2   9   6  477.75   49.90
   2   9   6  558.64   30.90
   2   9   6  468.75   43.50
   2   9   6  546.05   46.20
   2   9   7   39.00   12.20
   2   9   7   41.70   17.00
   2   9   7   49.50    7.90
   2   9   7   26.90    9.70
   2   9   8   70.19   16.70
   2   9   8   57.89    6.90
   2   9   8   72.59   20.30
   2   9   8   82.89   19.60
   2   9   9  475.75   44.40
   2   9   9  368.06   42.30
   2   9  10  393.86   42.30
   2   9  10  341.87   41.60
   2   9  11   99.09   22.00
   2   9  11   59.49   18.80
   2   9  12   18.80   10.40
   2   9  12   19.80   11.60
   2   9  13   10.80   12.00
   2   9  14   13.20   11.00
   2  10  -4   45.90   19.50
   2  10  -3    6.50    6.60
   2  10  -2  -12.40    8.40
   2  10  -1    0.10    8.40
   2  10   0   61.09   17.80
   2  10   1  114.39   23.70
   2  10   1   71.29   11.30
   2  10   1  136.29   27.40
   2  10   2   26.30    9.50
   2  10   2   29.40   11.80
   2  10   2   26.80   11.80
   2  10   2   21.70    8.70
   2  10   3   41.20   14.10
   2  10   3   29.60   10.90
   2  10   3   26.90   11.90
   2  10   3   46.80   12.70
   2  10   4   -7.60    7.10
   2  10   4    0.10    6.30
   2  10   4   14.10   11.60
   2  10   4   -4.00    4.60
   2  10   5  167.08   27.90
   2  10   5  157.38   30.20
   2  10   5  195.18   25.00
   2  10   5  222.28   31.20
   2  10   6  359.86   44.70
   2  10   6  399.36   28.40
   2  10   6  353.26   39.80
   2  10   6  368.56   39.40
   2  10   7  288.07   41.20
   2  10   7  334.77   24.40
   2  10   7  305.97   37.10
   2  10   7  318.37   37.20
   2  10   8  247.68   39.70
   2  10   8  242.38   18.00
   2  10   8  234.38   32.50
   2  10   8  173.48   28.50
   2  10   9   11.50    7.40
   2  10   9   14.40   10.50
   2  10  10   23.40   11.90
   2  10  10   40.50   14.60
   2  10  11   48.00   14.90
   2  10  11   58.29   18.80
   2  10  12   17.20   11.00
   2  10  12    9.40    9.10
   2  10  13   46.60   17.90
   2  10  13   35.30   15.80
   2  10  14   34.60   18.00
   2  11  -3   22.50   15.70
   2  11  -2   41.10   18.00
   2  11  -1   35.20   15.10
   2  11   0   -6.40   10.00
   2  11   1   35.00   15.00
   2  11   1    7.60    8.50
   2  11   2   15.40   11.40
   2  11   2   67.39   21.30
   2  11   3    5.30    5.10
   2  11   3   20.40   10.40
   2  11   4   23.20   12.30
   2  11   4   23.10   11.80
   2  11   4   14.00   10.70
   2  11   4    4.10    5.40
   2  11   5   56.59   17.20
   2  11   5   37.50   14.10
   2  11   5   45.30   17.60
   2  11   5   58.59   14.70
   2  11   6    5.40    6.10
   2  11   6    4.70    9.40
   2  11   6    1.30    3.20
   2  11   7   10.50    8.70
   2  11   7   -1.10   10.50
   2  11   7    1.60    3.80
   2  11   8   -2.00    4.90
   2  11   8    1.90    7.90
   2  11   8   -2.50    3.60
   2  11   8   -5.10    9.40
   2  11   9   60.09   17.40
   2  11   9   49.70   17.50
   2  11  10   74.39   19.80
   2  11  10   62.69   20.40
   2  11  11    7.60    8.50
   2  11  11   10.80   11.40
   2  11  12   -7.60    8.30
   2  11  12   -2.60    7.10
   2  11  13  -26.50   14.20
   2  11  13  -14.90   11.80
   2  12  -2   14.40    9.30
   2  12  -1   10.00    9.70
   2  12   0   42.40   18.20
   2  12   0   25.10   15.80
   2  12   1   48.30   18.00
   2  12   1   16.20   11.20
   2  12   2    5.30    5.60
   2  12   2   -4.80    8.50
   2  12   3   -6.00    7.50
   2  12   3  -17.20   12.10
   2  12   4   13.30    9.70
   2  12   4   10.60    6.90
   2  12   5   68.39   20.00
   2  12   5   42.10   18.40
   2  12   6  196.48   23.50
   2  12   6  169.48   33.90
   2  12   6  188.38   33.10
   2  12   7  193.08   32.90
   2  12   7  182.48   35.10
   2  12   7  219.58   23.20
   2  12   8   22.40    9.70
   2  12   8   51.39   21.20
   2  12   9    1.70    9.40
   2  12   9   -0.60    6.20
   2  12  10   26.20   13.40
   2  12  10   43.10   14.80
   2  12  11  121.49   27.40
   2  12  11   66.69   21.90
   2  12  12   46.30   17.70
   2  12  12   34.70   17.30
   2  12  13   11.60   11.30
   2  13   0    3.40   10.50
   2  13   0    6.10   14.50
   2  13   1   -4.10    7.90
   2  13   1   -0.10    6.90
   2  13   2   39.30   18.40
   2  13   2   38.10   18.90
   2  13   3   65.19   22.70
   2  13   3   80.99   25.20
   2  13   4   91.29   25.60
   2  13   4   61.69   22.10
   2  13   5   66.99   20.60
   2  13   5   73.39   25.10
   2  13   6   10.20   13.00
   2  13   6    8.40    9.30
   2  13   6   23.20    9.30
   2  13   7  -12.10    9.80
   2  13   7    2.50   10.40
   2  13   8   37.20   16.40
   2  13   8   18.60   14.70
   2  13   9  100.79   24.60
   2  13  10   89.79   24.30
   2  13  10   66.69   22.10
   2  13  11   48.60   18.70
   2  13  12   14.50   12.60
   2  14   2    0.70   12.80
   2  14   3   -0.70    6.80
   2  14   3    3.70    8.80
   2  14   4  -12.20   10.70
   2  14   4    3.90    9.20
   2  14   5   -9.20    9.80
   2  14   5    1.50   12.40
   2  14   6   78.79   24.80
   2  14   6   53.79   23.60
   2  14   7   87.09   25.30
   2  14   7   99.89   30.10
   2  14   8   61.09   22.00
   2  14   8   59.99   26.80
   2  14   9   17.90   13.40
   2  14  10    3.40    5.40
   2  14  11   23.70   15.80
   2  15   6    4.80    9.90
   2  15   7   -1.10    8.40
   2  15   8  -15.20   14.00
   3 -13  -6   69.79   25.60
   3 -13  -5  120.49   31.40
   3 -13  -4   21.30   18.40
   3 -13  -3   34.40   19.50
   3 -12  -9   44.00   19.20
   3 -12  -8   69.79   22.40
   3 -12  -7   30.10   15.10
   3 -12  -6  -15.50   11.20
   3 -12  -5    0.30    6.90
   3 -12  -4   12.00   10.10
   3 -12  -3   24.40   13.80
   3 -12  -2   60.79   21.40
   3 -12  -1   55.19   19.40
   3 -12   0    3.40    7.30
   3 -11 -10    8.20   13.40
   3 -11  -9   -3.60   10.20
   3 -11  -8   71.69   23.50
   3 -11  -7   43.10   16.80
   3 -11  -6   36.50   15.40
   3 -11  -5   23.60   12.30
   3 -11  -4    5.70    7.00
   3 -11  -3    1.70    5.40
   3 -11  -2   -1.90    7.00
   3 -11  -1   15.90   11.10
   3 -11   0   85.99   24.00
   3 -11   1   90.79   39.00
   3 -11   1   97.19   25.70
   3 -11   2   45.20   30.70
   3 -11   2    9.80   10.00
   3 -10 -11   12.80   18.20
   3 -10 -11    1.40    6.30
   3 -10 -10   42.40   18.00
   3 -10  -9  186.98   35.90
   3 -10  -8  125.59   27.90
   3 -10  -7   34.70   14.40
   3 -10  -6    9.90    6.90
   3 -10  -6    5.10    5.90
   3 -10  -5    0.30    9.30
   3 -10  -4  135.39   27.30
   3 -10  -3  150.68   29.50
   3 -10  -2  157.18   29.90
   3 -10  -1   99.09   25.00
   3 -10   0    1.40    6.10
   3 -10   1   61.99   18.50
   3 -10   2   80.59   40.50
   3 -10   2  103.49   25.70
   3 -10   3   70.79   39.00
   3 -10   3   66.69   22.90
   3 -10   4  -23.60   24.30
   3  -9 -12   17.30   17.10
   3  -9 -11  158.08   41.60
   3  -9 -11   89.89   24.80
   3  -9 -10  152.18   40.60
   3  -9 -10  119.59   28.20
   3  -9  -9   16.10   13.80
   3  -9  -8   99.39   24.20
   3  -9  -7  213.08   32.10
   3  -9  -7  282.27   40.80
   3  -9  -6  271.67   33.30
   3  -9  -6  368.96   44.80
   3  -9  -5  294.37   32.00
   3  -9  -5  349.27   42.60
   3  -9  -4  119.89   24.20
   3  -9  -3  -25.20   11.90
   3  -9  -2    1.80    7.30
   3  -9  -1   55.89   16.20
   3  -9   0  303.97   34.60
   3  -9   0  367.16   43.30
   3  -9   1  252.47   35.90
   3  -9   1  261.57   31.30
   3  -9   1  285.47   38.80
   3  -9   2  129.39   24.60
   3  -9   2  110.49   20.30
   3  -9   2  108.39   25.40
   3  -9   3   23.30   12.70
   3  -9   3   30.20   24.90
   3  -9   3   16.10   11.00
   3  -9   4    7.80   21.50
   3  -9   4    5.00    6.10
   3  -9   5  102.09   45.90
   3  -9   6   34.10   39.30
   3  -8 -12    0.20    8.30
   3  -8 -12   -4.50    9.20
   3  -8 -11  -24.10   17.90
   3  -8 -11    8.00    7.70
   3  -8 -10   14.50   13.90
   3  -8 -10   21.40   11.10
   3  -8  -9  250.27   48.20
   3  -8  -9  212.58   35.50
   3  -8  -8   63.39   19.60
   3  -8  -8  116.59   25.70
   3  -8  -7   19.40   11.40
   3  -8  -7   18.30   11.50
   3  -8  -6   18.20    8.40
   3  -8  -6   11.30    7.70
   3  -8  -5   -8.50    9.40
   3  -8  -5   30.50   12.00
   3  -8  -4   39.30   10.30
   3  -8  -4   37.60   14.00
   3  -8  -3  182.48   29.90
   3  -8  -2  256.77   34.10
   3  -8  -1  631.04   58.19
   3  -8  -1  629.94   54.09
   3  -8   0  291.67   37.80
   3  -8   0  290.17   32.40
   3  -8   0  235.28   34.10
   3  -8   1    4.10    7.90
   3  -8   1   -1.80    3.20
   3  -8   1   -3.20    4.80
   3  -8   2  237.28   33.10
   3  -8   2  155.68   22.90
   3  -8   2  166.38   28.80
   3  -8   3   91.79   37.10
   3  -8   3  130.29   24.40
   3  -8   3  127.89   20.70
   3  -8   3  120.69   25.60
   3  -8   4  186.48   28.90
   3  -8   4  109.19   39.90
   3  -8   4  168.18   24.00
   3  -8   4  166.98   30.20
   3  -8   5   86.79   20.60
   3  -8   5   67.69   37.80
   3  -8   6    9.10   21.10
   3  -8   7  -84.29   41.00
   3  -8   8   14.40   36.70
   3  -7 -12    5.70   11.30
   3  -7 -12    9.00    8.90
   3  -7 -11   24.30   18.00
   3  -7 -11   20.00   12.20
   3  -7 -10  106.29   32.30
   3  -7 -10   77.69   21.60
   3  -7  -9   68.49   24.80
   3  -7  -9   78.29   21.10
   3  -7  -8    7.80    8.70
   3  -7  -8   16.60    9.80
   3  -7  -7  211.68   27.60
   3  -7  -7  110.39   22.80
   3  -7  -7  163.68   28.40
   3  -7  -6   98.39   19.90
   3  -7  -6  109.89   19.60
   3  -7  -6  108.49   21.00
   3  -7  -6  115.59   22.40
   3  -7  -5  255.57   29.30
   3  -7  -5  262.47   31.40
   3  -7  -5  309.47   36.50
   3  -7  -4  107.69   22.90
   3  -7  -4  102.19   16.30
   3  -7  -4  139.39   22.90
   3  -7  -4  130.29   23.30
   3  -7  -3   14.50    8.90
   3  -7  -3    5.00    4.90
   3  -7  -3   15.60    9.60
   3  -7  -3    0.40    6.10
   3  -7  -2   14.10   10.80
   3  -7  -2    5.60    7.20
   3  -7  -2   19.10    8.00
   3  -7  -2   27.40   11.50
   3  -7  -1   40.30   12.00
   3  -7  -1   46.60   14.10
   3  -7  -1   45.80   13.00
   3  -7  -1   37.60   13.70
   3  -7   0  198.88   25.40
   3  -7   0  162.28   27.10
   3  -7   0  194.98   28.20
   3  -7   0  227.58   32.50
   3  -7   1  334.77   38.30
   3  -7   1  345.27   33.40
   3  -7   1  302.67   35.10
   3  -7   2   78.39   20.10
   3  -7   2   78.99   15.80
   3  -7   2   86.39   19.20
   3  -7   3    0.60    3.50
   3  -7   3   -5.70    7.50
   3  -7   3    0.00    5.50
   3  -7   4   -5.40   12.00
   3  -7   4   18.30    9.90
   3  -7   4   12.80    6.70
   3  -7   4   21.20   10.10
   3  -7   5   33.90   17.60
   3  -7   5   75.19   17.60
   3  -7   5   50.49   13.30
   3  -7   6   96.49   40.80
   3  -7   6   61.39   16.70
   3  -7   7   58.09   30.40
   3  -7   8   16.50   30.60
   3  -7   9   18.70   31.40
   3  -6 -12   -0.10    9.20
   3  -6 -11   -5.20   12.10
   3  -6 -10  101.79   31.20
   3  -6 -10  101.99   24.70
   3  -6  -9  345.77   54.29
   3  -6  -9  291.07   40.20
   3  -6  -8  216.38   39.00
   3  -6  -8  256.47   43.80
   3  -6  -8  217.18   28.50
   3  -6  -8  215.28   30.20
   3  -6  -8  248.78   35.00
   3  -6  -7    0.70    7.10
   3  -6  -7   -4.20    6.30
   3  -6  -7    0.60    6.60
   3  -6  -7   -2.30    6.40
   3  -6  -6  176.28   24.30
   3  -6  -6  188.48   25.90
   3  -6  -6  177.38   27.40
   3  -6  -5  128.99   23.10
   3  -6  -5  138.89   20.60
   3  -6  -5  111.69   19.00
   3  -6  -5  126.09   22.50
   3  -6  -5  135.79   21.20
   3  -6  -4  206.68   23.40
   3  -6  -4  269.27   32.90
   3  -6  -4  270.97   29.50
   3  -6  -4  267.47   31.80
   3  -6  -3  313.27   25.50
   3  -6  -3  382.16   34.40
   3  -6  -3  366.06   36.70
   3  -6  -3  357.56   37.40
   3  -6  -2   79.59   17.50
   3  -6  -2   72.89   17.40
   3  -6  -2   81.89   16.00
   3  -6  -2   64.59   14.80
   3  -6  -1  218.08   30.20
   3  -6  -1  176.68   24.40
   3  -6  -1  168.38   23.10
   3  -6  -1  194.98   26.90
   3  -6   0  246.38   32.00
   3  -6   0  258.77   27.50
   3  -6   0  230.18   28.30
   3  -6   0  218.58   29.00
   3  -6   1   10.10    7.70
   3  -6   1    6.90    5.10
   3  -6   1   19.20    9.50
   3  -6   1   14.10    8.70
   3  -6   2  270.57   27.80
   3  -6   2  211.98   29.40
   3  -6   2  222.58   29.10
   3  -6   2  222.98   37.20
   3  -6   3  310.67   30.00
   3  -6   3  266.27   32.60
   3  -6   3  280.97   34.00
   3  -6   4   74.49   25.80
   3  -6   4  136.49   20.20
   3  -6   4  142.19   23.50
   3  -6   4  142.39   24.80
   3  -6   5   -2.50   12.10
   3  -6   5   15.10    9.90
   3  -6   5    8.80    5.20
   3  -6   6   34.90   24.60
   3  -6   6   47.30   15.40
   3  -6   6   59.09   15.20
   3  -6   7   -0.80   17.20
   3  -6   7  100.29   22.20
   3  -6   8    2.40   18.50
   3  -6   8   27.50   13.60
   3  -6   9  -24.60   24.20
   3  -6  10  -25.80   25.40
   3  -5 -12   80.29   33.80
   3  -5 -11   45.70   23.30
   3  -5 -10   51.69   23.90
   3  -5  -9   82.69   24.60
   3  -5  -9  101.09   29.20
   3  -5  -9   67.19   17.40
   3  -5  -8    7.00   10.60
   3  -5  -8    8.90   10.00
   3  -5  -8    9.20    5.40
   3  -5  -8   20.60   10.20
   3  -5  -7  193.18   36.00
   3  -5  -7  239.28   40.70
   3  -5  -7  243.38   28.70
   3  -5  -7  224.48   27.80
   3  -5  -7  247.28   32.40
   3  -5  -6  245.58   39.90
   3  -5  -6  239.38   27.60
   3  -5  -6  235.48   26.70
   3  -5  -6  242.58   30.50
   3  -5  -6  261.27   33.30
   3  -5  -5  442.86   36.60
   3  -5  -5  458.25   40.90
   3  -5  -5  432.66   35.60
   3  -5  -5  416.56   40.50
   3  -5  -4  361.66   32.60
   3  -5  -4  396.86   33.30
   3  -5  -4  395.36   37.40
   3  -5  -4  339.97   34.30
   3  -5  -3   57.19   13.60
   3  -5  -3   37.00    8.00
   3  -5  -3   57.09   10.70
   3  -5  -3   69.99   13.50
   3  -5  -3   69.09   14.80
   3  -5  -3   76.39   14.10
   3  -5  -2  195.08   27.50
   3  -5  -2  179.18   15.80
   3  -5  -2  173.38   23.20
   3  -5  -2  213.08   23.50
   3  -5  -2  190.38   24.10
   3  -5  -1  537.85   45.40
   3  -5  -1  480.85   38.50
   3  -5  -1  512.65   40.90
   3  -5   0 1027.70   57.79
   3  -5   0 1155.38   62.99
   3  -5   1 2167.48   83.09
   3  -5   1 2061.29   86.59
   3  -5   2  611.64   40.70
   3  -5   2  626.94   57.69
   3  -5   2  579.74   43.40
   3  -5   3    2.50    7.00
   3  -5   3   -0.70    4.30
   3  -5   3   -2.10    5.50
   3  -5   3    0.50    4.70
   3  -5   4    1.40    5.80
   3  -5   4    0.30    8.50
   3  -5   4    8.40    4.70
   3  -5   4    7.40    6.10
   3  -5   5  160.68   21.80
   3  -5   5  184.08   26.90
   3  -5   6  143.79   37.20
   3  -5   6  171.98   24.90
   3  -5   6  179.08   27.40
   3  -5   7   42.60   27.70
   3  -5   7   90.49   20.50
   3  -5   8    7.50   12.00
   3  -5   8    5.50    7.20
   3  -5   9   26.00   21.70
   3  -5   9   18.30   11.50
   3  -5  10  -32.50   24.50
   3  -5  11   11.80   32.30
   3  -4 -12   23.70   19.00
   3  -4 -11  -15.30   15.30
   3  -4 -10   39.00   20.80
   3  -4 -10   27.90   10.70
   3  -4  -9  344.07   56.09
   3  -4  -9  246.18   42.30
   3  -4  -9  241.08   31.40
   3  -4  -8  893.61   83.69
   3  -4  -8  787.82   72.69
   3  -4  -8  812.32   56.49
   3  -4  -8  893.51   58.09
   3  -4  -7  454.55   55.69
   3  -4  -7  272.27   41.90
   3  -4  -7  388.66   36.60
   3  -4  -7  345.17   38.60
   3  -4  -7  353.76   33.70
   3  -4  -6    0.70    4.10
   3  -4  -6   10.70   12.40
   3  -4  -6    4.10    8.30
   3  -4  -6   -2.10    4.90
   3  -4  -6   -0.80    2.60
   3  -4  -5   33.30   10.50
   3  -4  -5   11.70   11.00
   3  -4  -5   36.70   10.30
   3  -4  -5   27.00    8.20
   3  -4  -5   30.10    9.50
   3  -4  -4  375.36   31.80
   3  -4  -4  359.36   28.90
   3  -4  -4  328.57   32.00
   3  -4  -4  326.77   32.30
   3  -4  -3  765.22   45.10
   3  -4  -3  781.42   42.90
   3  -4  -3  769.92   48.50
   3  -4  -3  797.02   49.10
   3  -4  -2  578.54   37.80
   3  -4  -2  537.55   39.10
   3  -4  -2  544.95   34.90
   3  -4  -2  507.65   37.70
   3  -4  -1  452.05   19.70
   3  -4  -1  495.75   36.60
   3  -4  -1  538.05   38.50
   3  -4   0  754.72   45.50
   3  -4   0  780.22   46.70
   3  -4   1  142.79   18.40
   3  -4   1  138.69   19.00
   3  -4   1  156.18   20.90
   3  -4   2  302.37   27.20
   3  -4   2  305.57   28.60
   3  -4   2  308.37   36.30
   3  -4   3 1496.35   64.49
   3  -4   3 1415.66   67.99
   3  -4   3 1370.96   83.09
   3  -4   4  683.63   42.90
   3  -4   4  654.73   47.20
   3  -4   4  695.03   61.39
   3  -4   5  558.84   40.30
   3  -4   5  557.24   45.60
   3  -4   5  519.45   61.29
   3  -4   5  644.04   62.99
   3  -4   6   82.39   18.40
   3  -4   6  105.89   18.90
   3  -4   6   57.19   25.60
   3  -4   7   18.40    8.80
   3  -4   7   11.10   15.30
   3  -4   8   82.49   19.20
   3  -4   8   89.59   14.90
   3  -4   8   55.39   29.70
   3  -4   9   89.69   21.40
   3  -4   9   63.19   13.90
   3  -4   9   96.29   36.50
   3  -4  10   29.80   24.60
   3  -4  10   68.59   19.50
   3  -4  11   15.70   27.40
   3  -4  11   43.40   20.50
   3  -3 -12   94.79   32.50
   3  -3 -11   64.19   29.40
   3  -3 -10    9.50   18.10
   3  -3  -9   27.90   16.10
   3  -3  -9   13.30   11.10
   3  -3  -8   -0.10   10.30
   3  -3  -8   17.00   11.50
   3  -3  -8   -0.70    3.30
   3  -3  -7  225.48   38.00
   3  -3  -7  259.17   43.10
   3  -3  -7  218.48   27.60
   3  -3  -7  241.48   26.50
   3  -3  -7  227.58   31.10
   3  -3  -6  155.78   31.00
   3  -3  -6  179.28   32.60
   3  -3  -6  178.58   23.60
   3  -3  -6  188.78   26.00
   3  -3  -6  182.08   21.30
   3  -3  -5   28.40    9.60
   3  -3  -5   13.30    9.60
   3  -3  -5   28.50   12.50
   3  -3  -5   16.80    6.90
   3  -3  -5   17.60    6.30
   3  -3  -4  161.68   19.90
   3  -3  -4  175.88   22.10
   3  -3  -4  162.08   17.30
   3  -3  -4  145.39   20.30
   3  -3  -3  231.68   27.60
   3  -3  -3  267.67   25.30
   3  -3  -3  296.77   23.20
   3  -3  -3  273.17   26.40
   3  -3  -3  282.37   26.90
   3  -3  -2   35.80    9.00
   3  -3  -2   49.70   10.60
   3  -3  -2   42.40    9.80
   3  -3  -2   45.20    9.00
   3  -3  -1   37.40    8.80
   3  -3  -1   48.00   10.20
   3  -3  -1   27.50    6.80
   3  -3   0  625.74   43.10
   3  -3   0  602.74   37.40
   3  -3   0  621.14   37.70
   3  -3   1 2629.84   84.99
   3  -3   1 2539.25   92.89
   3  -3   1 2509.95   84.39
   3  -3   1 2435.16   84.49
   3  -3   2 1423.36   59.69
   3  -3   2 1436.76   66.19
   3  -3   2 1416.76   60.89
   3  -3   2 1388.76   72.79
   3  -3   3  115.59   16.00
   3  -3   3  115.79   16.90
   3  -3   3  113.39   20.90
   3  -3   4  163.58   19.80
   3  -3   4  152.68   20.60
   3  -3   4  155.78   25.70
   3  -3   5  260.17   26.40
   3  -3   5  249.78   36.20
   3  -3   6  196.58   25.40
   3  -3   6  227.58   37.60
   3  -3   6  204.78   37.60
   3  -3   6  224.88   17.40
   3  -3   7   98.69   27.80
   3  -3   7   86.39   26.80
   3  -3   7   97.09   13.10
   3  -3   8    7.10   11.50
   3  -3   8   12.00    5.80
   3  -3   9    7.70   14.20
   3  -3   9   49.80   11.90
   3  -3  10  -11.90   10.20
   3  -3  10   30.20   10.70
   3  -3  10   21.30   16.90
   3  -3  11   16.70   13.60
   3  -3  11  -11.00   11.40
   3  -3  12   24.50   19.60
   3  -2 -12   28.40   22.90
   3  -2 -11   17.40   18.50
   3  -2 -10    9.10   12.00
   3  -2  -9  123.79   34.00
   3  -2  -8  357.26   54.69
   3  -2  -8  350.86   52.49
   3  -2  -7  232.98   31.40
   3  -2  -7  190.48   37.40
   3  -2  -7  228.68   39.30
   3  -2  -7  228.48   29.20
   3  -2  -7  258.87   26.50
   3  -2  -6   10.10    6.90
   3  -2  -6    2.80    6.00
   3  -2  -6   -0.10    7.20
   3  -2  -6    4.60    3.50
   3  -2  -6    7.40    4.40
   3  -2  -5  302.17   39.80
   3  -2  -5  266.87   36.80
   3  -2  -5  284.27   28.40
   3  -2  -5  324.87   31.30
   3  -2  -5  292.87   23.80
   3  -2  -4  246.38   24.80
   3  -2  -4  228.08   24.10
   3  -2  -4  230.58   19.00
   3  -2  -3  642.94   43.70
   3  -2  -3  694.83   40.60
   3  -2  -3  699.03   32.10
   3  -2  -3  643.34   38.60
   3  -2  -2  290.87   28.80
   3  -2  -2  321.37   25.80
   3  -2  -2  328.57   21.00
   3  -2  -2  333.27   26.60
   3  -2  -2  313.47   25.10
   3  -2  -1   18.60    5.70
   3  -2  -1   14.20    5.30
   3  -2  -1   15.20    5.90
   3  -2   0   72.69   11.40
   3  -2   0   76.79   11.40
   3  -2   0   66.79   11.30
   3  -2   1    1.80    2.40
   3  -2   1    2.30    2.00
   3  -2   1    7.30    5.00
   3  -2   1    4.40    1.80
   3  -2   1   -0.30    2.50
   3  -2   2  493.35   31.20
   3  -2   2  484.15   35.30
   3  -2   2  490.05   30.70
   3  -2   3  932.91   45.70
   3  -2   3  946.91   51.59
   3  -2   3  807.92   51.59
   3  -2   3  893.71   44.60
   3  -2   4   31.50   10.60
   3  -2   4   44.40    9.80
   3  -2   4   27.80    8.60
   3  -2   5  189.58   21.90
   3  -2   5  190.18   12.50
   3  -2   5  152.88   25.60
   3  -2   6   -3.60    5.30
   3  -2   6   -3.50    5.60
   3  -2   6   -1.50    6.30
   3  -2   6   -0.90    2.70
   3  -2   7   30.20   12.40
   3  -2   7   25.00   12.30
   3  -2   7   43.70    8.50
   3  -2   8  153.38   35.10
   3  -2   8   97.89   27.40
   3  -2   8  175.98   19.90
   3  -2   9   27.00   14.90
   3  -2   9   43.50   10.90
   3  -2   9   37.80   15.20
   3  -2  10   36.60   21.00
   3  -2  10   89.09   16.80
   3  -2  10   71.99   23.80
   3  -2  11   88.99   30.00
   3  -2  11  104.09   20.10
   3  -2  11   95.89   27.70
   3  -2  12    2.60    8.10
   3  -1 -12   58.39   28.60
   3  -1 -11  105.39   36.10
   3  -1 -10   36.90   20.80
   3  -1  -9   15.80   15.90
   3  -1  -8   10.90   11.20
   3  -1  -8   19.30   21.30
   3  -1  -7  410.26   42.00
   3  -1  -7  417.56   41.40
   3  -1  -7  416.46   56.79
   3  -1  -7  346.87   51.79
   3  -1  -6  466.45   42.30
   3  -1  -6  520.15   58.59
   3  -1  -6  505.25   58.09
   3  -1  -6  503.75   42.40
   3  -1  -5   39.70   10.90
   3  -1  -5   48.40   14.50
   3  -1  -5   37.90   15.00
   3  -1  -5   34.20   10.40
   3  -1  -5   38.80    8.00
   3  -1  -4   -0.90    4.60
   3  -1  -4    5.30    5.90
   3  -1  -4    1.70    2.20
   3  -1  -4    1.90    2.30
   3  -1  -3   -6.00    4.60
   3  -1  -3   -5.90    7.10
   3  -1  -3   -0.50    5.00
   3  -1  -3   -0.70    3.80
   3  -1  -3    1.90    2.00
   3  -1  -2   12.80    4.90
   3  -1  -2   24.90    9.10
   3  -1  -2   15.30    7.20
   3  -1  -2   10.10    5.40
   3  -1  -2   11.50    4.80
   3  -1  -2   14.40    3.60
   3  -1  -1  491.25   35.10
   3  -1  -1  483.45   29.90
   3  -1  -1  497.55   22.10
   3  -1  -1  506.35   29.40
   3  -1  -1  462.45   26.60
   3  -1   0  503.75   29.40
   3  -1   0  488.65   33.70
   3  -1   0  512.85   29.80
   3  -1   0  506.35   28.30
   3  -1   0  484.05   25.60
   3  -1   1 2356.86   72.89
   3  -1   1 2461.95   70.09
   3  -1   1 2385.36   72.29
   3  -1   1 2217.28   55.59
   3  -1   1 2343.67   65.89
   3  -1   2 3652.93  101.29
   3  -1   2 3636.34   88.59
   3  -1   2 3740.63   96.49
   3  -1   2 3737.43   73.49
   3  -1   3  509.55   31.70
   3  -1   3  500.05   29.10
   3  -1   3  493.55   34.50
   3  -1   4  508.85   33.40
   3  -1   4  508.45   32.00
   3  -1   4  456.55   36.60
   3  -1   5  540.65   37.80
   3  -1   5  597.64   25.40
   3  -1   5  517.35   43.50
   3  -1   6  747.93   47.90
   3  -1   6  710.83   57.59
   3  -1   6  632.24   49.99
   3  -1   6  706.23   33.60
   3  -1   7  467.15   51.69
   3  -1   7  398.76   43.90
   3  -1   7  540.15   32.80
   3  -1   8    8.80    6.80
   3  -1   8    1.40    7.20
   3  -1   8    8.10    4.30
   3  -1   8   -0.60    6.90
   3  -1   9    3.30    9.40
   3  -1   9   -0.20   10.70
   3  -1   9   22.10    8.30
   3  -1   9   25.10   13.00
   3  -1  10   -6.50    8.70
   3  -1  10    4.30    5.60
   3  -1  10    2.50    5.90
   3  -1  11   14.40    9.70
   3  -1  11    6.70    4.60
   3  -1  11   12.70   10.00
   3  -1  12   42.90   14.80
   3  -1  12   49.70   21.70
   3  -1  13   20.00   16.80
   3   0 -11    1.20    9.10
   3   0 -10   38.30   20.80
   3   0  -9  125.99   34.30
   3   0  -8  223.98   43.80
   3   0  -7  739.03   76.09
   3   0  -7  344.07   54.99
   3   0  -6  151.28   24.30
   3   0  -6  186.08   27.10
   3   0  -6  211.68   38.00
   3   0  -6  169.78   36.30
   3   0  -5   12.00    7.40
   3   0  -5   15.80    7.60
   3   0  -5   10.40   10.10
   3   0  -5   16.40    8.90
   3   0  -4   46.90   11.10
   3   0  -4   39.20   10.70
   3   0  -4   46.30   14.90
   3   0  -4   58.89   20.10
   3   0  -3  958.50   48.30
   3   0  -3  943.61   46.20
   3   0  -3  966.80   64.09
   3   0  -3  965.20   49.90
   3   0  -2 2009.90   64.69
   3   0  -2 2127.19   74.39
   3   0  -2 2221.68   89.89
   3   0  -2 2094.79   72.39
   3   0  -2 2003.60   69.09
   3   0  -2 1898.41   44.20
   3   0  -1 1049.59   48.40
   3   0  -1 1060.69   52.89
   3   0  -1  958.70   43.40
   3   0  -1  958.10   41.90
   3   0  -1  944.61   36.70
   3   0  -1 1032.40   26.20
   3   0   0  185.68   16.10
   3   0   0  194.08   19.50
   3   0   0  215.18   27.20
   3   0   0  190.28   16.90
   3   0   0  181.38   14.90
   3   0   0  188.38   13.10
   3   0   0  192.78   15.20
   3   0   1   20.50    5.10
   3   0   1   24.70    8.60
   3   0   1   22.90    4.00
   3   0   1   20.40    8.80
   3   0   1   23.10    4.50
   3   0   1   22.40    5.70
   3   0   1   20.90    4.70
   3   0   2 1522.65   54.79
   3   0   2 1471.65   41.30
   3   0   2 1554.44   53.79
   3   0   2 1536.95   50.89
   3   0   2 1619.74   47.60
   3   0   3 4009.70  107.49
   3   0   3 4242.28  107.29
   3   0   3 3965.10   96.69
   3   0   3 3869.91  103.49
   3   0   4 2603.04   85.89
   3   0   4 2735.93   86.89
   3   0   5  239.68   26.60
   3   0   5  297.47   27.20
   3   0   6   77.59   17.40
   3   0   6   63.29   13.90
   3   0   6   79.29   18.50
   3   0   7    6.00    4.90
   3   0   7   -3.70    6.90
   3   0   7   14.30    8.80
   3   0   8  106.09   24.80
   3   0   8   71.89   16.80
   3   0   8  142.49   18.50
   3   0   8  123.39   24.70
   3   0   9  116.39   29.50
   3   0   9  182.58   23.20
   3   0   9  153.78   29.00
   3   0  10  145.69   27.50
   3   0  10  189.18   25.90
   3   0  10  153.58   30.80
   3   0  11  181.38   30.20
   3   0  11  283.47   34.00
   3   0  11  219.48   41.10
   3   0  12   72.69   19.30
   3   0  12   82.29   25.70
   3   0  13   -2.40    5.70
   3   0  13   12.20   12.40
   3   1 -11   69.49   30.50
   3   1 -10   55.79   24.70
   3   1  -9    0.90   10.80
   3   1  -8    4.80   11.50
   3   1  -7  291.97   47.80
   3   1  -6  866.21   59.19
   3   1  -6  749.42   73.49
   3   1  -5  476.95   40.40
   3   1  -5  466.65   53.69
   3   1  -4    8.10    5.30
   3   1  -4    8.50    5.60
   3   1  -4    5.50    7.40
   3   1  -4   13.90   13.00
   3   1  -3    2.60    3.30
   3   1  -3   10.50    4.60
   3   1  -3   10.00   10.10
   3   1  -2   -0.70    2.70
   3   1  -2    0.10    2.90
   3   1  -2   -2.00    2.60
   3   1  -2    2.60    4.00
   3   1  -2    3.10    5.20
   3   1  -1  307.37   19.30
   3   1  -1  346.87   25.30
   3   1  -1  386.66   33.60
   3   1  -1  349.37   25.40
   3   1  -1  348.27   24.60
   3   1   0    0.50    1.10
   3   1   0   -0.60    4.50
   3   1   0    4.00    2.30
   3   1   0    1.30    4.40
   3   1   0    5.30    4.80
   3   1   0    5.50    3.20
   3   1   0    4.10    2.70
   3   1   0    3.40    1.10
   3   1   1  407.46   23.40
   3   1   1  455.45   24.90
   3   1   1  482.15   37.10
   3   1   1  436.16   24.00
   3   1   1  421.16   23.20
   3   1   1  398.46   20.30
   3   1   1  432.06   19.30
   3   1   2 2585.54   75.39
   3   1   2 2607.14   69.09
   3   1   2 2828.72   84.09
   3   1   2 2611.54   69.99
   3   1   2 2613.34   60.59
   3   1   2 2690.83   76.79
   3   1   3 1563.84   56.99
   3   1   3 1476.75   44.40
   3   1   3 1723.63   63.69
   3   1   3 1580.54   44.30
   3   1   3 1650.03   62.59
   3   1   4    0.80    3.20
   3   1   4   -2.10    3.20
   3   1   4    7.40    5.80
   3   1   5  231.98   23.10
   3   1   5  254.27   24.80
   3   1   5  258.37   27.70
   3   1   6  718.73   50.09
   3   1   6  940.81   58.69
   3   1   7  682.33   53.09
   3   1   7  796.62   56.49
   3   1   8  324.37   40.70
   3   1   8  424.06   44.20
   3   1   9   15.30   10.20
   3   1   9   15.50    7.60
   3   1   9    5.40    5.70
   3   1  10    2.00    8.80
   3   1  10    4.00    4.70
   3   1  10   13.80   11.00
   3   1  11   -4.00    5.60
   3   1  11  -12.70    8.10
   3   1  12   90.69   21.10
   3   1  12  111.69   28.90
   3   1  13  116.59   25.00
   3   1  13   80.59   26.60
   3   1  14   26.80   15.20
   3   1  14   21.10   15.50
   3   2 -10   40.10   22.40
   3   2  -9   21.00    7.40
   3   2  -9   20.10   14.90
   3   2  -8   25.60   16.20
   3   2  -7   60.19   21.90
   3   2  -6   -4.60    8.50
   3   2  -6   17.40   13.10
   3   2  -5   65.69   16.00
   3   2  -5   67.19   14.60
   3   2  -5   57.69   20.30
   3   2  -5   37.70   18.80
   3   2  -4   25.80    8.60
   3   2  -4   27.20   13.90
   3   2  -4   13.40   12.40
   3   2  -3   11.40    5.40
   3   2  -3   -0.20    6.70
   3   2  -2  205.68   17.40
   3   2  -2  215.08   21.90
   3   2  -2  206.68   29.20
   3   2  -1  716.33   28.50
   3   2  -1  766.22   35.30
   3   2  -1  728.63   38.80
   3   2  -1  741.93   50.09
   3   2   0   54.39    9.00
   3   2   0   66.29    8.00
   3   2   0   58.29   16.00
   3   2   0   59.09   12.30
   3   2   0   70.19   10.70
   3   2   1    5.10    2.50
   3   2   1   -0.20    2.60
   3   2   1    3.10    4.40
   3   2   1    4.20    2.10
   3   2   1    2.00    2.00
   3   2   1    2.20    1.80
   3   2   2   53.59    8.60
   3   2   2   51.49    6.30
   3   2   2   83.89   15.30
   3   2   2   59.69    9.10
   3   2   2   59.79    7.50
   3   2   2   65.89    8.80
   3   2   3 2596.24   80.39
   3   2   3 3109.19   92.59
   3   2   3 3095.59   96.49
   3   2   3 2683.83   66.49
   3   2   3 2672.33   81.19
   3   2   4 2098.29   74.09
   3   2   4 2134.29   67.19
   3   2   4 2172.98   81.59
   3   2   4 2043.60   75.49
   3   2   5   26.40    4.90
   3   2   5   19.20    5.50
   3   2   5   32.50   10.90
   3   2   5    8.70    5.50
   3   2   6    0.90    4.20
   3   2   6    3.40    4.80
   3   2   7   38.00   10.60
   3   2   7   45.60   13.70
   3   2   8   78.69   17.40
   3   2   8   85.29   19.30
   3   2   9   47.60   14.30
   3   2   9   62.49   17.60
   3   2  10    1.10    2.60
   3   2  10    6.50    4.70
   3   2  10   -5.80    7.20
   3   2  11   49.10   18.60
   3   2  11   66.29   20.50
   3   2  12  167.08   27.80
   3   2  12  167.98   34.50
   3   2  13    3.00    5.10
   3   2  13    9.40   10.70
   3   2  14   42.60   17.50
   3   2  14   41.60   20.20
   3   2  15   55.99   22.10
   3   3 -10    9.50   14.20
   3   3  -9   17.50   16.00
   3   3  -8    2.10    2.80
   3   3  -8    2.80    9.80
   3   3  -7   20.40    5.90
   3   3  -7   29.90   17.80
   3   3  -6  473.05   59.19
   3   3  -5  539.05   59.59
   3   3  -5  467.25   65.19
   3   3  -4   40.20   11.50
   3   3  -4   25.10   12.50
   3   3  -4   10.70    8.20
   3   3  -3    3.40    2.80
   3   3  -3    5.80    4.60
   3   3  -3   15.10   11.90
   3   3  -2  134.29    9.40
   3   3  -2  154.08   19.50
   3   3  -2  153.08   25.30
   3   3  -1  752.62   25.60
   3   3  -1  816.62   33.10
   3   3  -1  859.01   45.10
   3   3  -1  795.32   53.99
   3   3   0  442.26   20.00
   3   3   0  447.06   24.40
   3   3   0  502.15   37.30
   3   3   0  496.85   32.00
   3   3   1  336.87   19.40
   3   3   1  346.47   25.80
   3   3   1  376.06   26.80
   3   3   1  365.26   16.40
   3   3   1  397.36   20.20
   3   3   1  364.46   17.20
   3   3   2   42.80    7.60
   3   3   2   50.19    7.20
   3   3   2   49.00    9.40
   3   3   2   47.10    7.00
   3   3   2   59.19    8.20
   3   3   2   57.19    5.20
   3   3   3  119.69    8.30
   3   3   3  107.29   17.90
   3   3   3  103.59    9.00
   3   3   3   99.69   12.30
   3   3   4  412.56   29.90
   3   3   4  385.46   33.70
   3   3   4  374.26   27.40
   3   3   5 1882.71   81.39
   3   3   5 1726.33   71.29
   3   3   6  546.15   40.80
   3   3   7  496.75   42.60
   3   3   8  334.97   33.20
   3   3   8  371.36   39.40
   3   3   9    7.10    5.80
   3   3   9   -7.20   12.20
   3   3  10   11.80    9.50
   3   3  10    8.50    8.20
   3   3  11   44.90   17.00
   3   3  11   42.20   16.00
   3   3  12   80.09   23.80
   3   3  13   81.59   24.80
   3   3  14   38.50   15.60
   3   3  14    1.70    7.00
   3   3  15    1.30   11.00
   3   4  -9   61.09   27.50
   3   4  -8  113.09   32.80
   3   4  -7   27.20   16.70
   3   4  -6    6.60    2.20
   3   4  -6   16.30   13.90
   3   4  -5   67.59    5.50
   3   4  -5  101.59   26.60
   3   4  -4  271.57   31.10
   3   4  -4  170.88   38.30
   3   4  -4  281.97   41.80
   3   4  -3  111.99   18.90
   3   4  -3  160.28   29.50
   3   4  -3  126.69   33.20
   3   4  -2  248.18   23.80
   3   4  -2  282.47   28.60
   3   4  -2  204.98   39.10
   3   4  -2  290.77   36.00
   3   4  -1  650.23   24.50
   3   4  -1  652.93   50.09
   3   4  -1  676.53   35.90
   3   4  -1  727.73   43.70
   3   4   0  274.97   29.20
   3   4   0  251.07   39.60
   3   4   0  250.67   24.50
   3   4   0  249.97   18.60
   3   4   0  265.37   20.50
   3   4   1   31.90    6.40
   3   4   1   48.00   16.60
   3   4   1   52.59   11.40
   3   4   1   48.30    6.60
   3   4   1   38.40    9.10
   3   4   1   43.20    7.60
   3   4   2   -3.80    2.30
   3   4   2    1.50    2.30
   3   4   2   -0.90    2.00
   3   4   2    1.30    1.60
   3   4   2   -0.30    2.90
   3   4   3 1882.21   63.89
   3   4   3 1856.81   52.69
   3   4   4 2441.36   64.19
   3   4   4 2524.65   94.99
   3   4   4 2230.18   51.29
   3   4   4 2335.17   77.19
   3   4   5  779.62   35.50
   3   4   5  752.02   43.00
   3   4   6   13.20    5.20
   3   4   7  347.57   34.60
   3   4   8  412.76   40.10
   3   4   9  454.35   45.60
   3   4  10   84.89   21.20
   3   4  11   62.29   18.00
   3   4  12   86.49   23.50
   3   4  13   14.20    9.50
   3   4  14    5.00    6.70
   3   4  15   29.10   14.70
   3   4  15   13.20   12.20
   3   4  16   29.40   17.30
   3   5  -8  -13.80   13.40
   3   5  -7    2.90   12.70
   3   5  -6  112.69   31.60
   3   5  -5  281.57   45.70
   3   5  -4  169.78   34.00
   3   5  -4  216.48   27.80
   3   5  -3   26.30   13.00
   3   5  -3   13.70    6.30
   3   5  -3   17.80    7.60
   3   5  -2    2.80    7.20
   3   5  -2    0.10   11.90
   3   5  -2    1.20    3.30
   3   5  -2   15.30    6.70
   3   5  -1  165.08   26.80
   3   5  -1  105.49   27.80
   3   5  -1  140.89   17.00
   3   5  -1  140.99   20.50
   3   5   0 1263.77   69.89
   3   5   0 1135.69   88.39
   3   5   0 1311.17   62.89
   3   5   0 1257.17   49.80
   3   5   0 1259.77   54.19
   3   5   1  920.01   53.09
   3   5   1  898.61   73.29
   3   5   1  908.61   50.19
   3   5   1  848.82   36.00
   3   5   1  862.51   41.50
   3   5   2  892.71   68.19
   3   5   2  911.11   49.10
   3   5   2  830.92   31.60
   3   5   2  867.11   41.80
   3   5   2  888.71   39.70
   3   5   3  913.71   63.39
   3   5   3  860.91   43.30
   3   5   3  916.21   38.80
   3   5   3  889.51   29.70
   3   5   4   32.50    6.80
   3   5   4   26.20    7.80
   3   5   5  618.24   32.60
   3   5   5  615.14   39.70
   3   5   6  297.27   24.10
   3   5   6  315.17   29.40
   3   5   7  566.64   37.40
   3   5   7  562.44   49.30
   3   5   7  486.65   40.10
   3   5   8  394.96   38.20
   3   5   9  191.68   28.70
   3   5  10   10.30    9.70
   3   5  11    0.80    5.50
   3   5  12   51.69   17.10
   3   5  13  268.67   42.60
   3   5  14  175.38   37.00
   3   5  15   17.60   14.60
   3   6  -7   20.70   16.60
   3   6  -6    5.60   12.30
   3   6  -5   28.30   17.70
   3   6  -4  208.48   39.40
   3   6  -3   74.69   22.50
   3   6  -3   61.89   14.30
   3   6  -2    2.20    6.10
   3   6  -2    8.10    8.60
   3   6  -2    2.10    5.30
   3   6  -2   -0.90    4.00
   3   6  -1   34.90   10.10
   3   6  -1   32.80   11.90
   3   6  -1   20.70    9.00
   3   6  -1   52.69   13.00
   3   6  -1   46.50   10.90
   3   6   0   38.90   10.10
   3   6   0   65.99   23.10
   3   6   0   44.50   15.00
   3   6   0   61.39   13.80
   3   6   0   64.39   11.50
   3   6   1    8.40    3.50
   3   6   1   22.00    9.80
   3   6   1    4.80    5.80
   3   6   1    8.70    6.10
   3   6   1    5.10    2.60
   3   6   2   -1.60    4.10
   3   6   2    9.90    7.20
   3   6   2    5.90    3.20
   3   6   2    9.60    4.10
   3   6   3   69.49   11.90
   3   6   3   29.40   10.70
   3   6   3   63.99    8.70
   3   6   3   53.29   12.00
   3   6   4 1183.28   57.09
   3   6   4 1232.08   52.59
   3   6   5  954.20   52.89
   3   6   5  946.81   45.20
   3   6   6   11.60    5.50
   3   6   6   20.30   10.80
   3   6   6    9.60    5.30
   3   6   7   16.20    7.10
   3   6   7    7.70   11.00
   3   6   7    3.70    3.70
   3   6   8  135.09   19.60
   3   6   8  128.29   21.90
   3   6   9  365.96   38.90
   3   6  10  215.58   32.00
   3   6  11   41.00   15.60
   3   6  12   29.60   13.90
   3   6  13   -1.20    9.10
   3   6  14   -0.10    9.60
   3   6  15   36.30   20.10
   3   7  -7   12.50   19.80
   3   7  -6  -48.70   23.00
   3   7  -5  101.59   30.90
   3   7  -4   19.10   13.90
   3   7  -4   39.30   15.30
   3   7  -3    9.20    8.00
   3   7  -3   -1.50    5.60
   3   7  -2   14.60    7.50
   3   7  -2   13.40    8.00
   3   7  -2    7.00    5.30
   3   7  -1   42.50   17.30
   3   7  -1   60.69   14.30
   3   7  -1   64.79   14.10
   3   7   0  301.57   39.70
   3   7   0  296.57   33.10
   3   7   0  274.07   26.60
   3   7   0  296.57   30.60
   3   7   1  360.76   35.20
   3   7   1  322.27   26.40
   3   7   1  349.17   31.80
   3   7   2  244.08   28.30
   3   7   2  200.58   19.30
   3   7   2  206.28   23.40
   3   7   3   19.90    6.50
   3   7   3   18.70   10.20
   3   7   3   27.80    6.70
   3   7   3   26.10    9.40
   3   7   4   56.69   11.90
   3   7   4   61.19   16.20
   3   7   4   86.39   11.40
   3   7   4   82.89   15.40
   3   7   5  806.32   51.39
   3   7   5  781.32   44.70
   3   7   6  685.73   20.40
   3   7   6  787.52   50.69
   3   7   6  775.72   44.70
   3   7   7  110.19   17.10
   3   7   7  121.69   26.00
   3   7   7   95.69   18.50
   3   7   8    0.40    4.50
   3   7   8    1.30    7.50
   3   7   8   -8.40    8.30
   3   7   9   -0.10    5.70
   3   7   9    0.80    5.50
   3   7  10   17.80    8.90
   3   7  11   13.50    7.50
   3   7  12    1.50    8.00
   3   7  13   74.59   22.30
   3   7  14   93.99   26.80
   3   7  15   -4.20    9.90
   3   8  -6    4.50   10.80
   3   8  -6   -1.20    6.50
   3   8  -5   11.80   13.40
   3   8  -5   -4.90   10.00
   3   8  -4  149.09   36.20
   3   8  -4  108.89   25.90
   3   8  -3  214.68   41.90
   3   8  -3  191.08   31.00
   3   8  -2   54.59   20.80
   3   8  -2   73.29   18.10
   3   8  -1   25.00   10.00
   3   8  -1   19.50    8.80
   3   8   0   20.40    9.10
   3   8   0   30.40    9.50
   3   8   1   66.59    9.70
   3   8   1   97.89   18.80
   3   8   1   82.79   14.70
   3   8   2   74.49   15.30
   3   8   2   51.09   10.70
   3   8   3   61.39   13.40
   3   8   3   71.99   18.90
   3   8   3   95.39   18.70
   3   8   3   79.69   13.00
   3   8   4  335.87   40.90
   3   8   4  324.57   32.60
   3   8   4  353.86   26.60
   3   8   4  405.26   35.00
   3   8   5  258.27   37.10
   3   8   5  218.48   27.10
   3   8   5  237.98   26.30
   3   8   6    1.50    5.30
   3   8   6    1.40    1.40
   3   8   6    2.70    5.90
   3   8   7  119.29   18.90
   3   8   7  113.99   26.40
   3   8   7   99.49   19.20
   3   8   8  195.38   25.10
   3   8   8  215.58   34.60
   3   8   8  172.18   26.40
   3   8   9  342.37   35.30
   3   8   9  245.48   34.00
   3   8  10  324.47   36.40
   3   8  10  247.68   34.70
   3   8  11   44.70   14.90
   3   8  12   14.80    8.90
   3   8  13    7.30    8.60
   3   8  14   21.80   12.60
   3   9  -5   20.60   22.90
   3   9  -5   33.10   17.60
   3   9  -4   27.80   18.30
   3   9  -4   18.00   10.10
   3   9  -3   20.00   18.70
   3   9  -3    7.10    8.30
   3   9  -2   17.30   10.20
   3   9  -1   -5.60    7.70
   3   9   0  141.29   25.70
   3   9   0  107.19   19.20
   3   9   1  379.76   24.40
   3   9   1  441.76   37.20
   3   9   1  500.55   44.40
   3   9   2  493.85   34.90
   3   9   2  599.34   57.49
   3   9   2  585.94   41.10
   3   9   2  563.74   46.50
   3   9   3  293.47   40.70
   3   9   3  331.27   35.00
   3   9   3  310.87   28.70
   3   9   4  170.78   30.80
   3   9   4  187.58   21.40
   3   9   4  211.38   27.40
   3   9   5   83.29   17.10
   3   9   5   95.09   23.50
   3   9   5   99.79   14.90
   3   9   5   72.29   17.70
   3   9   6  832.32   72.19
   3   9   6  670.43   52.69
   3   9   6  733.33   50.59
   3   9   7  390.76   47.60
   3   9   7  347.87   17.60
   3   9   7  359.16   38.70
   3   9   7  350.16   34.30
   3   9   8  163.98   24.50
   3   9   8  205.28   35.50
   3   9   8  169.38   27.80
   3   9   9   36.20   10.50
   3   9   9   53.59   21.40
   3   9   9   34.40   12.80
   3   9  10    0.30    5.80
   3   9  10    5.40    5.70
   3   9  11   48.70   14.50
   3   9  11   34.00   15.90
   3   9  12   33.50   15.50
   3   9  13   91.59   25.40
   3   9  14   98.09   29.50
   3  10  -4  -17.30   12.30
   3  10  -3   37.80   16.40
   3  10  -2   17.80   11.70
   3  10  -1    4.80    9.10
   3  10   0   10.50    7.80
   3  10   1   10.00    7.10
   3  10   1   11.20    7.90
   3  10   2   64.49   12.60
   3  10   2   72.49   18.60
   3  10   2   61.99   20.40
   3  10   2   70.79   15.90
   3  10   3  137.39   21.10
   3  10   3  182.58   33.60
   3  10   3  216.38   29.80
   3  10   3  163.48   22.50
   3  10   4  172.98   32.30
   3  10   4  231.58   30.80
   3  10   4  205.88   24.50
   3  10   5  210.38   36.40
   3  10   5  213.48   29.10
   3  10   5  213.88   24.20
   3  10   6   89.49   18.90
   3  10   6   73.99   23.10
   3  10   6   96.39   20.30
   3  10   7   17.40    8.20
   3  10   7   10.10    7.60
   3  10   7    7.10    2.90
   3  10   7   24.80   11.80
   3  10   8    7.10    5.10
   3  10   8    5.10    9.50
   3  10   8    9.90    2.30
   3  10   8   -1.00    6.30
   3  10   9   45.30   14.10
   3  10   9   53.79   19.40
   3  10   9   44.00   15.10
   3  10  10  159.98   26.90
   3  10  10   95.09   22.00
   3  10  11  125.89   25.20
   3  10  11   85.99   23.30
   3  10  12   50.09   17.60
   3  10  12   37.70   17.10
   3  10  13   -8.40    9.80
   3  11  -3  -18.10   12.40
   3  11  -2   12.20   11.70
   3  11  -1   23.20   13.40
   3  11   0   -1.50    5.60
   3  11   1    5.20    6.30
   3  11   1   -3.90    8.90
   3  11   2   29.50   12.50
   3  11   2   10.40   12.50
   3  11   3   11.50    9.40
   3  11   3   27.70   12.60
   3  11   3   21.90    9.30
   3  11   4   14.30    7.10
   3  11   4    1.70    5.90
   3  11   4    1.70   11.00
   3  11   4   11.60    5.80
   3  11   5    9.50    8.70
   3  11   5   13.90    7.70
   3  11   5    7.80    8.70
   3  11   5   16.00    7.00
   3  11   6  125.89   23.90
   3  11   6  153.58   31.90
   3  11   7   97.69   21.00
   3  11   7   90.39   26.40
   3  11   7  104.69   13.40
   3  11   7   95.59   21.80
   3  11   8   21.50    9.10
   3  11   8   14.40   15.80
   3  11   8   23.20    5.30
   3  11   8   18.50   12.40
   3  11   9    2.10    7.40
   3  11   9    4.40    9.60
   3  11   9    4.70    5.30
   3  11  10   -1.70    6.10
   3  11  10    3.10    5.60
   3  11  11   38.30   14.50
   3  11  11   35.40   15.30
   3  11  12   30.80   14.00
   3  11  12   12.10   11.70
   3  11  13   15.90   10.90
   3  11  13   -0.10    8.10
   3  12  -2   32.10   19.20
   3  12  -1   -2.00    6.20
   3  12   0   -3.00    6.50
   3  12   0    1.10   14.30
   3  12   1   -0.60    7.00
   3  12   1    3.10    8.70
   3  12   2   58.79   19.20
   3  12   2   51.89   22.90
   3  12   3  134.89   27.50
   3  12   3   82.49   25.60
   3  12   4  108.69   24.30
   3  12   4   92.99   26.30
   3  12   5  104.09   23.90
   3  12   5   74.69   24.80
   3  12   6   -1.70   10.30
   3  12   6   18.50   13.90
   3  12   7   61.59   17.70
   3  12   7   68.49   24.70
   3  12   7   41.20    9.60
   3  12   8  100.29   22.40
   3  12   8  117.19   31.20
   3  12   8   95.49   23.40
   3  12   9   45.50   15.40
   3  12   9   36.00   22.30
   3  12   9   41.60   17.40
   3  12  10   54.29   16.80
   3  12  10   58.79   19.70
   3  12  11   21.90   11.50
   3  12  11   19.90   12.60
   3  12  12   -3.90    7.00
   3  12  12  -30.90   16.20
   3  12  13    7.60    9.30
   3  13   0    1.20    7.70
   3  13   0    1.30   14.40
   3  13   1   45.50   22.00
   3  13   1   35.40   22.00
   3  13   2   40.80   20.00
   3  13   2   25.00   17.60
   3  13   3   22.60   12.40
   3  13   3   15.60   14.80
   3  13   4   -2.80    9.90
   3  13   4    9.80   13.30
   3  13   5    2.30    8.00
   3  13   5    4.00    8.80
   3  13   6   92.19   23.00
   3  13   6   46.40   20.90
   3  13   7  177.98   31.50
   3  13   7  174.48   38.00
   3  13   8   51.79   16.90
   3  13   8   92.49   30.40
   3  13   9   12.70    9.00
   3  13   9    1.50    9.60
   3  13  10    6.80    7.30
   3  13  10   -3.10    8.80
   3  13  11   25.40   13.90
   3  13  12   52.09   21.20
   3  13  13    6.90    9.10
   3  14   2  -19.70   14.30
   3  14   2    2.90   12.90
   3  14   3   23.50   14.90
   3  14   3   50.99   26.20
   3  14   4   57.09   21.50
   3  14   4   22.60   21.40
   3  14   5   57.49   22.50
   3  14   5   58.39   26.70
   3  14   6   47.40   18.10
   3  14   6    9.00   15.30
   3  14   7    2.80    7.40
   3  14   7  -17.60   14.80
   3  14   8   30.30   14.80
   3  14   8   47.30   25.00
   3  14   9   39.30   17.90
   3  14   9   22.80   19.40
   3  14  10   58.69   21.60
   3  14  11   26.30   13.70
   3  14  12   14.90   17.90
   3  15   6    1.00   15.80
   3  15   7   20.90   15.60
   3  15   7   18.70   15.50
   3  15   8    2.10    6.80
   3  15   8   14.90   21.60
   4 -12  -7    3.50    8.80
   4 -12  -6   18.00   13.40
   4 -12  -5   31.30   15.60
   4 -12  -4   48.00   20.60
   4 -12  -3    8.50    8.90
   4 -12  -2    8.10   12.10
   4 -11  -9   36.30   18.40
   4 -11  -8    7.90    8.60
   4 -11  -7    2.70    6.20
   4 -11  -6    1.80    8.70
   4 -11  -5    5.50   10.30
   4 -11  -4   65.69   22.10
   4 -11  -3   95.79   25.90
   4 -11  -2   68.99   22.70
   4 -11  -1   56.99   20.30
   4 -11   0    1.80    5.60
   4 -11   1   33.20   16.50
   4 -10 -10   80.79   33.30
   4 -10 -10   54.99   24.60
   4 -10  -9   12.70   12.00
   4 -10  -8   19.10   12.50
   4 -10  -7   83.39   24.00
   4 -10  -6   84.39   22.90
   4 -10  -5   77.19   22.80
   4 -10  -4  139.19   28.60
   4 -10  -3    1.40    5.20
   4 -10  -2   23.60   12.60
   4 -10  -1   58.39   19.80
   4 -10   0  148.49   30.50
   4 -10   1  113.69   27.00
   4 -10   1  107.09   26.70
   4 -10   2  -33.00   15.50
   4 -10   2   26.40   13.40
   4 -10   3  -24.20   22.40
   4 -10   3  -17.10   15.10
   4 -10   3   -3.50    7.10
   4 -10   4   -0.20   20.40
   4  -9 -11   26.20   21.70
   4  -9 -10   61.69   27.60
   4  -9 -10   55.99   21.40
   4  -9  -9  148.49   32.80
   4  -9  -8  154.38   32.40
   4  -9  -7   39.80   15.80
   4  -9  -6   10.10    8.30
   4  -9  -6    9.80    8.60
   4  -9  -5   18.20    7.70
   4  -9  -5    1.50    7.00
   4  -9  -4   56.99   18.00
   4  -9  -3  265.37   38.60
   4  -9  -2  493.45   52.89
   4  -9  -1  207.18   36.60
   4  -9  -1  215.78   35.00
   4  -9   0   57.29   19.40
   4  -9   0   88.19   23.20
   4  -9   1   18.00   11.20
   4  -9   1    1.30    4.70
   4  -9   2  157.58   30.40
   4  -9   2  185.78   32.90
   4  -9   3  109.19   25.50
   4  -9   3  137.09   29.60
   4  -9   4   80.49   21.90
   4  -9   4   43.60   35.50
   4  -9   4   69.49   22.60
   4  -9   5  -33.50   26.30
   4  -9   6   41.00   41.40
   4  -8 -11   42.90   24.80
   4  -8 -11   32.30   16.80
   4  -8 -10   23.50   15.00
   4  -8 -10   42.80   19.70
   4  -8  -9  -17.00   15.00
   4  -8  -9   22.90   13.10
   4  -8  -8  -24.40   12.80
   4  -8  -7   35.30   13.50
   4  -8  -7   52.39   17.70
   4  -8  -6   76.99   17.20
   4  -8  -6   69.49   18.80
   4  -8  -5  143.59   22.00
   4  -8  -5  193.28   32.50
   4  -8  -4  364.76   30.60
   4  -8  -4  428.66   47.30
   4  -8  -3   98.99   22.70
   4  -8  -2   -3.40   15.40
   4  -8  -2   -1.30    9.20
   4  -8  -1   21.80   10.10
   4  -8  -1   43.90   15.10
   4  -8   0  200.38   34.50
   4  -8   0  210.88   32.30
   4  -8   1  163.68   30.10
   4  -8   1  177.18   30.10
   4  -8   2  101.69   24.60
   4  -8   2  127.79   25.70
   4  -8   3   23.30   12.10
   4  -8   3   14.40    9.70
   4  -8   4   15.20   12.50
   4  -8   4    9.80    4.80
   4  -8   5   19.30   20.30
   4  -8   5    7.90    9.20
   4  -8   6    6.50   16.10
   4  -8   6   34.80   16.30
   4  -8   7   24.50   29.00
   4  -8   8  -25.90   29.10
   4  -7 -11   -4.60    9.40
   4  -7 -11   12.90    9.80
   4  -7 -10   43.50   24.80
   4  -7 -10   50.89   20.20
   4  -7  -9   90.19   31.00
   4  -7  -9  107.19   26.20
   4  -7  -8  195.58   41.10
   4  -7  -8  139.09   29.90
   4  -7  -7   21.70    9.90
   4  -7  -7    9.20    9.30
   4  -7  -6    1.10    5.90
   4  -7  -6  -17.00   10.30
   4  -7  -5    7.90    5.80
   4  -7  -5   -2.10    6.20
   4  -7  -5    0.80    5.50
   4  -7  -4   -2.40    5.00
   4  -7  -4    3.70    4.10
   4  -7  -4   -1.60    6.50
   4  -7  -3  170.78   32.60
   4  -7  -3  238.08   21.60
   4  -7  -3  187.08   27.10
   4  -7  -3  167.68   27.50
   4  -7  -2  364.36   45.10
   4  -7  -2  300.27   37.00
   4  -7  -2  311.27   34.40
   4  -7  -1  114.69   24.60
   4  -7  -1  111.79   23.10
   4  -7   0  104.69   24.30
   4  -7   0  122.89   21.70
   4  -7   0  107.39   21.90
   4  -7   1   -5.80    8.70
   4  -7   1   12.50    7.70
   4  -7   1   14.70    9.00
   4  -7   2  253.17   31.30
   4  -7   2  247.48   35.40
   4  -7   2  281.17   36.40
   4  -7   3  225.68   33.70
   4  -7   3  225.18   29.90
   4  -7   3  239.78   33.90
   4  -7   4  132.19   27.30
   4  -7   4  139.59   26.00
   4  -7   5   30.50   27.10
   4  -7   5   91.09   23.10
   4  -7   5   63.79   19.50
   4  -7   6  -30.10   22.30
   4  -7   6   40.00   17.70
   4  -7   7    0.10   12.00
   4  -7   7   -5.90    8.00
   4  -7   8   14.10   25.30
   4  -7   9    4.00   24.90
   4  -6 -11   37.10   20.20
   4  -6 -11   55.59   20.80
   4  -6 -10    5.70    8.30
   4  -6 -10   -1.50    5.80
   4  -6  -9   10.00   14.00
   4  -6  -9   -0.10   11.90
   4  -6  -8   21.50   16.10
   4  -6  -8    6.80    6.60
   4  -6  -8   12.20    8.70
   4  -6  -7  124.49   22.00
   4  -6  -7  167.08   29.60
   4  -6  -6  139.39   25.90
   4  -6  -6  160.98   24.40
   4  -6  -5  100.69   19.60
   4  -6  -5  111.79   19.90
   4  -6  -5   87.59   19.00
   4  -6  -4  227.48   25.00
   4  -6  -4  299.27   32.70
   4  -6  -4  277.07   35.30
   4  -6  -4  262.17   29.80
   4  -6  -4  268.77   33.60
   4  -6  -3  122.39   24.50
   4  -6  -3  128.49   16.20
   4  -6  -3  142.39   21.50
   4  -6  -3  143.49   24.30
   4  -6  -3  113.59   22.30
   4  -6  -2    7.40    6.70
   4  -6  -2    6.70   16.00
   4  -6  -2   17.20    4.90
   4  -6  -2   15.00    7.10
   4  -6  -2    9.90    5.50
   4  -6  -1  468.35   47.50
   4  -6  -1  441.96   41.50
   4  -6  -1  484.95   40.10
   4  -6  -1  470.05   44.30
   4  -6   0  370.56   36.30
   4  -6   0  340.57   40.40
   4  -6   0  326.17   35.80
   4  -6   0  358.26   38.50
   4  -6   1  202.08   26.50
   4  -6   1  219.28   32.10
   4  -6   1  200.68   28.10
   4  -6   2   25.60   10.00
   4  -6   2    3.30    8.50
   4  -6   2    7.40    4.90
   4  -6   3  221.08   27.80
   4  -6   3  216.08   32.60
   4  -6   3  240.78   31.70
   4  -6   4  195.88   26.50
   4  -6   4  162.98   29.30
   4  -6   4  170.08   28.30
   4  -6   5   48.60   17.80
   4  -6   5   46.10   13.70
   4  -6   5   46.50   15.90
   4  -6   6   19.70   18.30
   4  -6   6   57.29   18.20
   4  -6   7    3.00   16.80
   4  -6   7   73.39   22.40
   4  -6   8   11.80   17.70
   4  -6   8   50.99   19.40
   4  -6   9   14.20   26.70
   4  -6  10   12.40   27.60
   4  -5 -11  -25.00   19.60
   4  -5 -10   21.40   16.30
   4  -5  -9  133.49   36.20
   4  -5  -9  117.49   26.40
   4  -5  -9   95.09   20.70
   4  -5  -8  294.67   51.09
   4  -5  -8  194.68   27.90
   4  -5  -8  226.88   35.10
   4  -5  -7  210.28   40.00
   4  -5  -7  143.89   26.60
   4  -5  -7  143.59   23.40
   4  -5  -6    7.20   14.30
   4  -5  -6   -0.90    4.50
   4  -5  -6    4.70    6.40
   4  -5  -6    3.00    4.80
   4  -5  -5   94.09   20.80
   4  -5  -5   38.80   18.10
   4  -5  -5   71.59   16.10
   4  -5  -5   64.99   13.80
   4  -5  -5   72.79   17.80
   4  -5  -4  110.39   20.80
   4  -5  -4  112.69   19.60
   4  -5  -4  105.19   20.40
   4  -5  -4  102.99   17.10
   4  -5  -3  671.03   56.69
   4  -5  -3  734.33   49.99
   4  -5  -3  763.52   53.79
   4  -5  -3  707.53   45.90
   4  -5  -3  660.13   50.29
   4  -5  -2  862.81   63.79
   4  -5  -2  886.81   38.40
   4  -5  -2  943.91   59.49
   4  -5  -2  928.21   52.49
   4  -5  -2  957.60   59.49
   4  -5  -1  648.34   54.39
   4  -5  -1  549.74   44.50
   4  -5  -1  603.34   47.10
   4  -5   0  276.67   29.80
   4  -5   0  268.17   34.00
   4  -5   0  231.08   28.10
   4  -5   0  213.78   27.50
   4  -5   1    4.50    3.60
   4  -5   1   10.70    6.20
   4  -5   1    0.20    4.20
   4  -5   1    0.90    3.70
   4  -5   2  129.39   26.90
   4  -5   2  155.58   22.40
   4  -5   2  138.29   25.50
   4  -5   2  111.09   19.90
   4  -5   3  488.95   40.40
   4  -5   3  453.55   45.20
   4  -5   3  441.46   40.20
   4  -5   3  475.75   52.99
   4  -5   4  234.28   28.00
   4  -5   4  289.07   36.70
   4  -5   4  248.48   31.10
   4  -5   5  135.89   26.20
   4  -5   5  122.99   20.90
   4  -5   5  106.69   22.00
   4  -5   6   90.39   29.60
   4  -5   6  111.49   21.10
   4  -5   6   92.49   21.90
   4  -5   7   -1.70   15.20
   4  -5   7    9.40    8.80
   4  -5   8   43.10   26.50
   4  -5   8   39.70   16.80
   4  -5   9   31.90   28.60
   4  -5   9   68.49   22.50
   4  -5  10   52.09   35.40
   4  -4 -11  151.68   46.60
   4  -4 -10   17.70   13.70
   4  -4  -9    6.10   14.40
   4  -4  -9   15.00    7.70
   4  -4  -8    1.70   10.20
   4  -4  -8    0.40    5.30
   4  -4  -7   41.40   18.50
   4  -4  -7   86.49   25.70
   4  -4  -7   67.69   14.60
   4  -4  -6  145.29   32.90
   4  -4  -6  204.48   36.80
   4  -4  -6  148.99   23.50
   4  -4  -6  166.88   27.80
   4  -4  -6  148.09   20.40
   4  -4  -6  167.98   27.20
   4  -4  -5   89.79   18.70
   4  -4  -5   89.19   26.00
   4  -4  -5   87.49   17.20
   4  -4  -5   93.99   18.80
   4  -4  -5  108.79   17.00
   4  -4  -4  349.87   40.60
   4  -4  -4  401.06   52.29
   4  -4  -4  407.36   36.70
   4  -4  -4  411.36   31.90
   4  -4  -4  431.96   39.50
   4  -4  -4  389.86   37.70
   4  -4  -3  902.51   63.89
   4  -4  -3 1016.50   57.79
   4  -4  -3 1056.49   60.59
   4  -4  -3  992.30   50.69
   4  -4  -3  933.11   57.69
   4  -4  -2   52.59   12.50
   4  -4  -2   83.29   18.90
   4  -4  -2   79.59   15.20
   4  -4  -2   51.39   12.70
   4  -4  -2   76.69   13.40
   4  -4  -1  414.36   40.90
   4  -4  -1  337.57   32.30
   4  -4  -1  356.96   33.00
   4  -4   0  979.30   54.99
   4  -4   0  989.20   63.99
   4  -4   0  878.21   52.89
   4  -4   0  928.51   54.59
   4  -4   1 1912.81   80.39
   4  -4   1 1769.62   86.49
   4  -4   1 1838.72   79.89
   4  -4   1 1838.42   81.09
   4  -4   2 1269.07   63.59
   4  -4   2 1163.28   68.79
   4  -4   2 1169.38   62.39
   4  -4   3   27.00   12.50
   4  -4   3   34.10   13.60
   4  -4   3   27.70    9.70
   4  -4   3   21.20    8.10
   4  -4   4   58.69   19.00
   4  -4   4   60.39   14.10
   4  -4   4   35.40   12.60
   4  -4   4   55.99   13.70
   4  -4   5  119.49   27.20
   4  -4   5  127.59   20.40
   4  -4   5  132.59   24.00
   4  -4   5  139.09   22.80
   4  -4   6   93.99   29.60
   4  -4   6  127.39   21.30
   4  -4   6  101.49   21.90
   4  -4   7  156.88   38.30
   4  -4   7  192.58   32.20
   4  -4   8  118.39   36.60
   4  -4   8  163.48   30.60
   4  -4   9   30.90   25.50
   4  -4   9   39.10   19.70
   4  -4  10   13.40   12.80
   4  -4  10   -3.10    7.80
   4  -4  11   11.60   15.00
   4  -3 -11   23.50   20.30
   4  -3 -10   54.89   28.10
   4  -3  -9   11.90   10.40
   4  -3  -8  141.99   35.20
   4  -3  -8   99.39   17.90
   4  -3  -7  181.88   36.90
   4  -3  -7  249.78   44.80
   4  -3  -7  204.68   24.20
   4  -3  -6    7.80    4.00
   4  -3  -6   -4.90    6.00
   4  -3  -6    8.90    7.20
   4  -3  -6    8.30    3.90
   4  -3  -6    5.50    4.80
   4  -3  -5   59.09   14.70
   4  -3  -5   49.50   20.00
   4  -3  -5   65.79   20.00
   4  -3  -5   32.40   11.10
   4  -3  -5   44.90    9.90
   4  -3  -4   71.49   15.20
   4  -3  -4   70.19   20.70
   4  -3  -4   41.10   10.10
   4  -3  -4   70.79   14.90
   4  -3  -4   68.69   11.70
   4  -3  -4   60.29   13.40
   4  -3  -3  304.67   34.50
   4  -3  -3  285.77   45.30
   4  -3  -3  330.87   31.30
   4  -3  -3  327.77   25.40
   4  -3  -3  326.27   31.00
   4  -3  -3  310.27   30.90
   4  -3  -2 1138.29   68.19
   4  -3  -2 1279.97   61.99
   4  -3  -2 1240.58   60.69
   4  -3  -2 1256.87   52.69
   4  -3  -2 1268.57   62.39
   4  -3  -1  960.40   52.49
   4  -3  -1  924.71   51.49
   4  -3  -1  946.51   50.29
   4  -3   0    4.20    4.60
   4  -3   0   -1.80    4.70
   4  -3   0    1.30    4.30
   4  -3   1    9.70    8.20
   4  -3   1    5.40    3.80
   4  -3   1    7.80    3.60
   4  -3   1    7.00    4.80
   4  -3   2  206.78   23.60
   4  -3   2  192.18   25.90
   4  -3   2  181.88   21.50
   4  -3   3  387.86   32.90
   4  -3   3  351.46   35.20
   4  -3   3  349.07   30.90
   4  -3   3  345.27   37.90
   4  -3   4  146.49   20.50
   4  -3   4  159.88   24.80
   4  -3   4  134.59   24.80
   4  -3   4  149.39   21.20
   4  -3   5   48.40   16.10
   4  -3   5   36.00   11.60
   4  -3   5   33.50   10.40
   4  -3   5   35.10   10.70
   4  -3   6  219.98   27.80
   4  -3   6  231.48   32.40
   4  -3   6  187.08   33.50
   4  -3   7  126.59   25.60
   4  -3   7  118.19   22.20
   4  -3   7   91.59   26.30
   4  -3   7   77.59   26.00
   4  -3   8  -29.50   17.20
   4  -3   8    3.90    2.80
   4  -3   9   65.59   25.30
   4  -3   9   74.49   12.10
   4  -3  10   80.09   30.40
   4  -3  10  145.89   35.10
   4  -3  11   18.90   16.60
   4  -3  11  126.19   34.30
   4  -2 -11  181.98   48.60
   4  -2 -10   47.00   28.90
   4  -2  -9   14.40   12.00
   4  -2  -8   45.60   23.50
   4  -2  -7   96.99   29.50
   4  -2  -6  266.17   45.40
   4  -2  -6  300.47   47.90
   4  -2  -6  237.88   30.50
   4  -2  -6  252.87   23.40
   4  -2  -6  311.67   35.80
   4  -2  -5   22.80    8.60
   4  -2  -5   42.30   18.30
   4  -2  -5   23.20   12.10
   4  -2  -5   39.90   12.20
   4  -2  -5   22.40    6.60
   4  -2  -4   16.90    6.90
   4  -2  -4    0.80    6.40
   4  -2  -4   -4.70   13.00
   4  -2  -4   17.00   11.40
   4  -2  -4    8.00    4.00
   4  -2  -4    8.50    3.30
   4  -2  -3   44.90   10.90
   4  -2  -3   28.80   10.20
   4  -2  -3   18.20   10.70
   4  -2  -3   22.70   11.10
   4  -2  -3   45.70   10.90
   4  -2  -3   31.90    6.50
   4  -2  -3   31.10    9.90
   4  -2  -2   -1.80    6.60
   4  -2  -2    5.30    3.60
   4  -2  -2    0.00    2.90
   4  -2  -2    7.00    4.20
   4  -2  -2    5.00    3.30
   4  -2  -1  137.19   21.60
   4  -2  -1  141.69   18.50
   4  -2  -1  139.89   17.10
   4  -2  -1  135.59   17.60
   4  -2   0  953.00   49.40
   4  -2   0  885.11   47.30
   4  -2   0  891.11   46.50
   4  -2   0  842.92   43.30
   4  -2   1  672.93   41.00
   4  -2   1  613.04   26.90
   4  -2   1  653.73   38.20
   4  -2   1  588.04   35.30
   4  -2   2  409.16   31.50
   4  -2   2  385.46   29.10
   4  -2   3   40.70   11.70
   4  -2   3   48.50   11.00
   4  -2   3   43.20   10.30
   4  -2   4  604.34   41.30
   4  -2   4  610.24   47.50
   4  -2   4  557.24   38.00
   4  -2   4  525.35   44.50
   4  -2   5  446.16   36.60
   4  -2   5  378.76   32.80
   4  -2   5  405.86   41.60
   4  -2   6  180.68   24.70
   4  -2   6  152.98    9.00
   4  -2   6  159.58   28.30
   4  -2   7  220.98   29.40
   4  -2   7  163.68   31.70
   4  -2   7  205.18   36.10
   4  -2   7  235.78   16.00
   4  -2   8   75.19   22.50
   4  -2   8   80.39   22.80
   4  -2   8  102.99   12.60
   4  -2   9   -7.90   15.50
   4  -2   9    4.00    5.80
   4  -2  10    1.50    2.80
   4  -2  10   -6.60    7.00
   4  -2  11   11.90   12.40
   4  -2  11   -1.40   10.00
   4  -2  12   62.79   23.90
   4  -1 -11   16.40   13.10
   4  -1 -10   76.19   30.70
   4  -1  -9   69.49   27.10
   4  -1  -8   37.30   18.20
   4  -1  -7   50.29   23.80
   4  -1  -6   27.50   10.70
   4  -1  -6   20.60   12.70
   4  -1  -6   54.89   21.20
   4  -1  -5   17.60    8.50
   4  -1  -5    7.00    6.50
   4  -1  -5    8.10    5.90
   4  -1  -5   15.00    7.70
   4  -1  -4  111.49   27.30
   4  -1  -4  160.28   30.10
   4  -1  -4  137.39   21.20
   4  -1  -4  130.89   12.70
   4  -1  -4  132.99   19.50
   4  -1  -3  274.57   30.50
   4  -1  -3  312.97   37.10
   4  -1  -3  274.37   39.50
   4  -1  -3  321.47   30.00
   4  -1  -3  294.27   17.50
   4  -1  -3  268.67   25.50
   4  -1  -2 2316.37   92.69
   4  -1  -2 2444.86   87.59
   4  -1  -2 2226.18   77.69
   4  -1  -2 2409.56   61.89
   4  -1  -2 2326.77   83.09
   4  -1  -1 1439.16   69.09
   4  -1  -1 1500.65   62.99
   4  -1  -1 1475.75   45.90
   4  -1  -1 1446.06   55.39
   4  -1  -1 1418.06   58.79
   4  -1   0  131.59   19.60
   4  -1   0  154.48   18.20
   4  -1   0  142.49   24.70
   4  -1   0  132.39   16.80
   4  -1   0  145.29   16.50
   4  -1   0  139.19   14.60
   4  -1   1   76.49   12.50
   4  -1   1   96.99   14.00
   4  -1   1   75.09    9.30
   4  -1   1   69.89    9.80
   4  -1   1   77.79   11.70
   4  -1   2  864.51   45.40
   4  -1   2  813.22   37.50
   4  -1   2  914.41   30.40
   4  -1   2  874.51   41.10
   4  -1   3 1127.49   53.69
   4  -1   3 1084.39   44.90
   4  -1   3 1108.19   47.90
   4  -1   3 1106.59   28.80
   4  -1   4  490.45   35.60
   4  -1   4  404.66   34.60
   4  -1   4  458.55   31.10
   4  -1   5    3.40    5.30
   4  -1   5    0.90    4.00
   4  -1   5   -2.40    4.00
   4  -1   6    3.10    2.90
   4  -1   6    6.70    2.70
   4  -1   6    4.60    5.40
   4  -1   7   21.30    8.90
   4  -1   7   21.90   11.00
   4  -1   7   14.90    8.50
   4  -1   7   29.40    6.30
   4  -1   8   11.70   14.00
   4  -1   8    0.90    7.40
   4  -1   8   10.70    4.70
   4  -1   8    7.50    7.60
   4  -1   9  140.99   34.20
   4  -1   9  132.89   28.70
   4  -1   9  161.98   19.40
   4  -1   9  176.78   32.90
   4  -1  10   66.09   19.10
   4  -1  10  129.79   30.20
   4  -1  11  141.79   33.60
   4  -1  11  195.38   25.00
   4  -1  11  175.68   37.10
   4  -1  12   35.30   18.70
   4  -1  13   40.80   25.00
   4   0 -10  137.69   39.70
   4   0  -9   49.99   24.50
   4   0  -8    5.10    7.20
   4   0  -7   60.89   23.10
   4   0  -6  467.75   44.50
   4   0  -6  315.67   53.99
   4   0  -6  418.86   57.39
   4   0  -5  391.86   37.50
   4   0  -5  369.96   38.70
   4   0  -5  366.46   50.29
   4   0  -5  342.37   51.99
   4   0  -4   67.29   13.70
   4   0  -4   93.79   17.90
   4   0  -4   32.90   15.80
   4   0  -4   57.49   20.50
   4   0  -3   77.09   13.20
   4   0  -3   60.99   13.40
   4   0  -3   58.49   16.80
   4   0  -3   53.49   12.20
   4   0  -3   78.09   22.40
   4   0  -2   21.40    6.20
   4   0  -2   39.00   12.30
   4   0  -2   38.80   12.10
   4   0  -2   46.30   10.60
   4   0  -2   45.20   10.10
   4   0  -1  331.77   30.60
   4   0  -1  397.26   36.00
   4   0  -1  347.27   28.30
   4   0  -1  363.46   27.10
   4   0  -1  330.17   22.50
   4   0  -1  372.26   15.10
   4   0  -1  353.26   26.00
   4   0   0 2904.01   88.39
   4   0   0 2918.11   99.29
   4   0   0 2842.52   89.39
   4   0   0 2613.54   81.49
   4   0   0 2782.82   74.79
   4   0   0 2961.60   83.59
   4   0   1  793.32   40.70
   4   0   1  786.62   47.80
   4   0   1  783.02   40.10
   4   0   1  744.73   33.80
   4   0   1  775.42   30.70
   4   0   1  780.62   35.90
   4   0   2 2434.76   80.79
   4   0   2 2418.86   79.49
   4   0   2 2420.76   69.59
   4   0   2 2399.36   76.29
   4   0   2 2295.77   63.89
   4   0   3  877.01   44.90
   4   0   3  794.72   29.70
   4   0   3  813.82   42.50
   4   0   3  810.22   36.00
   4   0   4    3.00    2.60
   4   0   4    4.10    2.60
   4   0   4    5.00    2.50
   4   0   4    9.20    5.90
   4   0   4   -1.00    2.40
   4   0   5  236.58   25.40
   4   0   5  264.57   27.20
   4   0   6  445.56   40.20
   4   0   6  535.35   41.80
   4   0   7  502.85   48.20
   4   0   7  547.15   42.10
   4   0   7  617.44   48.50
   4   0   7  584.14   52.49
   4   0   8  666.83   61.89
   4   0   8  577.74   48.40
   4   0   8  719.53   62.09
   4   0   9   87.29   24.70
   4   0   9   71.99   18.70
   4   0   9  159.58   20.00
   4   0   9  131.09   29.20
   4   0  10   -0.20    7.20
   4   0  10   -0.10    6.00
   4   0  10    9.70    5.60
   4   0  10    1.40    6.00
   4   0  11   28.60   13.10
   4   0  11   74.79   16.30
   4   0  11   51.79   20.40
   4   0  12  157.18   25.30
   4   0  12  164.98   38.80
   4   0  13   73.39   25.90
   4   1 -10   44.00   25.00
   4   1  -9  165.48   41.80
   4   1  -8   19.10   17.60
   4   1  -7   14.10   11.60
   4   1  -6   41.50   13.80
   4   1  -6   43.10   18.60
   4   1  -5    0.90    3.90
   4   1  -5   -3.60    8.40
   4   1  -5    1.30   10.60
   4   1  -4   59.09   13.60
   4   1  -4   23.60   10.00
   4   1  -4   28.70    9.40
   4   1  -4   24.20   11.40
   4   1  -4   36.50   16.40
   4   1  -3    1.10    4.70
   4   1  -3    0.20    5.10
   4   1  -3    0.30    3.60
   4   1  -3    1.00    4.90
   4   1  -3   -2.50    5.60
   4   1  -3   -0.70    5.40
   4   1  -2  482.85   31.00
   4   1  -2  527.05   37.00
   4   1  -2  506.75   48.90
   4   1  -2  554.64   39.50
   4   1  -2  566.14   38.00
   4   1  -1 1418.96   54.59
   4   1  -1 1476.05   63.99
   4   1  -1 1377.26   74.19
   4   1  -1 1475.95   63.09
   4   1  -1 1433.46   60.19
   4   1  -1 1437.56   49.90
   4   1   0 1239.08   49.99
   4   1   0 1340.67   59.19
   4   1   0 1298.97   63.19
   4   1   0 1427.66   82.69
   4   1   0 1281.77   54.49
   4   1   0 1187.28   51.09
   4   1   0 1246.48   39.90
   4   1   0 1264.67   33.50
   4   1   0 1314.77   47.50
   4   1   1   88.19   14.40
   4   1   1   82.49   11.60
   4   1   1   94.59   19.00
   4   1   1   74.49   12.40
   4   1   1   86.49   12.20
   4   1   1   70.89   10.50
   4   1   1   86.99   10.10
   4   1   1   81.79    6.80
   4   1   1   95.89   10.60
   4   1   2  369.26   26.40
   4   1   2  368.66   23.20
   4   1   2  398.26   20.30
   4   1   2  372.06   25.00
   4   1   2  414.16   27.00
   4   1   3 1126.19   50.79
   4   1   3 1059.69   41.00
   4   1   3 1127.19   37.50
   4   1   3 1176.78   55.79
   4   1   3 1049.20   43.20
   4   1   3 1195.28   54.59
   4   1   4 1803.92   70.49
   4   1   4 1955.00   78.09
   4   1   4 1681.93   56.09
   4   1   4 1800.62   73.49
   4   1   4 1749.72   54.49
   4   1   4 1862.01   77.19
   4   1   5  115.29   17.80
   4   1   5   92.59   13.80
   4   1   5  122.39   19.30
   4   1   5  126.09   20.10
   4   1   6   -1.20    3.50
   4   1   6    3.80    3.80
   4   1   6    6.40    5.00
   4   1   7   77.09   16.60
   4   1   7   63.69   12.40
   4   1   7   94.99   20.90
   4   1   8    8.50    5.90
   4   1   8    0.60    1.30
   4   1   8   -1.50    5.00
   4   1   9   38.40   15.40
   4   1   9    0.10    0.90
   4   1   9   25.10   11.70
   4   1  10   91.29   24.90
   4   1  10  137.49   20.70
   4   1  10  147.59   31.60
   4   1  11  108.99   17.20
   4   1  11   89.79   28.60
   4   1  11  191.48   25.90
   4   1  11  153.28   32.30
   4   1  12  141.09   24.60
   4   1  12  127.99   31.60
   4   1  13   25.70   11.50
   4   1  13   11.60   10.20
   4   1  14   13.40   15.60
   4   2  -9   -7.20   10.10
   4   2  -8    9.30   12.70
   4   2  -7    7.30   14.10
   4   2  -6   46.60   19.10
   4   2  -5  202.98   28.70
   4   2  -5  160.58   35.70
   4   2  -4   86.89   17.60
   4   2  -4   94.89   17.70
   4   2  -4  114.09   27.00
   4   2  -4   77.49   26.20
   4   2  -3    3.10    3.10
   4   2  -3   -0.20    2.80
   4   2  -3   -2.60    7.10
   4   2  -2    3.00    3.90
   4   2  -2   -1.70    3.50
   4   2  -2   -1.40    5.20
   4   2  -2   -1.40    5.50
   4   2  -2  -17.20    7.10
   4   2  -2  -21.30   10.90
   4   2  -2    2.50   11.40
   4   2  -1  185.08   16.70
   4   2  -1  177.68   15.90
   4   2  -1  165.18   19.20
   4   2  -1  177.88   21.30
   4   2  -1  181.88   20.70
   4   2  -1  202.68   28.50
   4   2   0  894.01   32.50
   4   2   0  942.61   46.50
   4   2   0  871.31   38.30
   4   2   0  889.21   55.59
   4   2   0 1016.90   75.09
   4   2   0  934.81   46.70
   4   2   0  950.30   46.90
   4   2   1  400.26   25.60
   4   2   1  451.05   32.30
   4   2   1  354.96   30.00
   4   2   1  468.35   45.70
   4   2   1  439.16   28.60
   4   2   1  460.25   30.20
   4   2   1  453.15   20.30
   4   2   1  464.55   21.70
   4   2   2  315.07   23.50
   4   2   2  272.97   21.10
   4   2   2  332.27   35.30
   4   2   2  293.37   23.00
   4   2   2  329.27   14.70
   4   2   2  325.17   22.40
   4   2   2  294.67   20.20
   4   2   3    8.30    4.80
   4   2   3    4.60    4.90
   4   2   3   12.80    3.10
   4   2   3   14.80    7.70
   4   2   3   10.90    3.80
   4   2   3   23.40    5.50
   4   2   3    8.50    4.10
   4   2   3   13.60    2.50
   4   2   4    0.30    2.40
   4   2   4   -4.70    6.50
   4   2   4   -6.00    5.00
   4   2   4   -2.80    6.00
   4   2   5  223.38   24.60
   4   2   5  193.98   15.50
   4   2   5  224.68   23.20
   4   2   5  250.67   27.80
   4   2   5  205.88   25.10
   4   2   6   95.19   14.10
   4   2   6   94.89   13.20
   4   2   6  106.19   19.50
   4   2   7   35.10    9.60
   4   2   7   36.90    7.50
   4   2   7   26.70   10.90
   4   2   8  433.46   40.60
   4   2   8  367.66   19.70
   4   2   9  232.68   32.50
   4   2   9  303.07   40.50
   4   2  10    4.30    7.10
   4   2  10    1.00    6.30
   4   2  11   42.60   16.60
   4   2  11   54.79   19.60
   4   2  12  254.47   43.40
   4   2  13  236.08   34.30
   4   2  13  228.98   43.20
   4   2  14   33.80   16.30
   4   2  14   60.09   24.50
   4   3  -9  152.18   41.70
   4   3  -8   83.39   29.30
   4   3  -7   13.20   14.10
   4   3  -6    7.90    8.50
   4   3  -5   32.90   12.30
   4   3  -5   54.59   22.00
   4   3  -4  157.98   23.90
   4   3  -4  193.48   35.60
   4   3  -3   47.90    7.20
   4   3  -3   53.59   13.10
   4   3  -3   38.60   14.80
   4   3  -3   36.20   20.90
   4   3  -2  109.19   14.00
   4   3  -2   78.49    9.30
   4   3  -2   95.49   16.90
   4   3  -2  105.19   23.20
   4   3  -2   64.79   25.70
   4   3  -1  500.25   25.00
   4   3  -1  509.15   31.80
   4   3  -1  578.54   39.90
   4   3  -1  541.05   48.30
   4   3   0  223.78   16.80
   4   3   0  243.08   21.50
   4   3   0  239.58   29.20
   4   3   0  228.88   40.00
   4   3   0  229.28   23.50
   4   3   0  268.57   25.70
   4   3   1  275.07   20.00
   4   3   1  284.17   14.80
   4   3   1  347.37   29.70
   4   3   1  322.37   43.30
   4   3   1  342.47   27.80
   4   3   1  295.57   24.20
   4   3   1  295.17   14.30
   4   3   1  332.47   17.80
   4   3   2  458.95   28.50
   4   3   2  510.05   29.20
   4   3   2  548.55   53.29
   4   3   2  538.75   34.20
   4   3   2  464.85   28.10
   4   3   2  517.45   26.50
   4   3   2  548.05   16.60
   4   3   3 1820.02   67.29
   4   3   3 2011.30   97.09
   4   3   3 2023.50   85.49
   4   3   3 1899.61   68.49
   4   3   3 1780.02   56.49
   4   3   3 1811.82   62.49
   4   3   4 1971.10   75.19
   4   3   4 2193.68   93.89
   4   3   4 2139.89   89.39
   4   3   4 1936.01   55.59
   4   3   4 1988.60   73.39
   4   3   5  569.94   40.90
   4   3   5  537.95   43.30
   4   3   5  505.65   37.70
   4   3   6   17.40    6.10
   4   3   6   33.20   11.90
   4   3   6   16.60    7.20
   4   3   7  119.99   21.40
   4   3   8   71.39   13.50
   4   3   8   75.19   18.70
   4   3   9  178.78   24.90
   4   3   9  196.68   31.60
   4   3  10  142.99   25.30
   4   3  10  128.39   27.00
   4   3  11    3.60    6.90
   4   3  11    6.10    7.30
   4   3  12   -4.40    7.10
   4   3  12    3.90    6.20
   4   3  13   -4.10   11.90
   4   3  14   45.50   21.30
   4   3  15    8.20    9.20
   4   4  -8   -1.90   10.60
   4   4  -7    9.70   11.50
   4   4  -6   13.20    2.90
   4   4  -6   31.00   16.20
   4   4  -5  133.79    9.00
   4   4  -5  104.19    7.80
   4   4  -4  178.08   10.20
   4   4  -4  285.97   44.30
   4   4  -3   25.00    3.60
   4   4  -3   33.60   15.20
   4   4  -2   38.00    4.90
   4   4  -2   50.99   13.50
   4   4  -2   48.30   15.70
   4   4  -2   25.10   16.30
   4   4  -1   36.10    7.70
   4   4  -1   30.90    5.00
   4   4  -1   45.20   12.30
   4   4  -1   24.00   12.10
   4   4  -1   20.30   12.50
   4   4   0  800.62   32.00
   4   4   0  877.81   40.60
   4   4   0  933.91   58.69
   4   4   0  752.02   75.09
   4   4   0  949.71   53.69
   4   4   1 1737.03   56.89
   4   4   1 1903.01   77.49
   4   4   1 1957.40   77.19
   4   4   1 1857.01   52.89
   4   4   1 1864.11   56.39
   4   4   1 1865.81   54.39
   4   4   2  108.59   13.40
   4   4   2  121.69   27.50
   4   4   2  112.79   14.40
   4   4   2  139.99   18.50
   4   4   2  117.49    7.50
   4   4   2  111.19   14.00
   4   4   2  134.29    9.90
   4   4   2  128.89   13.60
   4   4   3    0.80    1.00
   4   4   3    2.00    6.90
   4   4   3   -0.50    2.30
   4   4   3   -3.20    8.50
   4   4   3   -0.20    2.90
   4   4   3    0.30    2.60
   4   4   4  126.99   23.00
   4   4   4  157.18   24.50
   4   4   4  125.69   11.10
   4   4   4  138.39   16.80
   4   4   5  926.91   53.49
   4   4   5  983.80   62.79
   4   4   5  922.31   49.90
   4   4   6  477.55   44.20
   4   4   6  444.06   37.20
   4   4   7  160.28   27.40
   4   4   7  138.89   22.20
   4   4   8  331.47   37.50
   4   4   9  428.66   45.80
   4   4  10   75.49   21.30
   4   4  11   27.80   13.60
   4   4  12  154.38   32.40
   4   4  13  185.88   37.80
   4   4  14  124.29   32.50
   4   5  -8   69.09   30.40
   4   5  -7   36.90   20.80
   4   5  -6   20.40   12.70
   4   5  -5   -2.60    9.50
   4   5  -4   95.19   26.10
   4   5  -3  213.58   26.50
   4   5  -3  209.28   36.70
   4   5  -2   98.99   16.40
   4   5  -2   99.39   23.80
   4   5  -1  334.47   18.80
   4   5  -1  267.77   47.70
   4   5  -1  372.16   41.80
   4   5  -1  342.07   27.70
   4   5  -1  350.46   34.90
   4   5   0  488.85   27.30
   4   5   0  518.45   45.60
   4   5   0  422.46   57.39
   4   5   0  502.05   30.10
   4   5   0  562.04   42.40
   4   5   0  456.25   31.00
   4   5   1  129.69   29.80
   4   5   1  162.28   22.60
   4   5   1  190.48   23.60
   4   5   1  154.58   13.90
   4   5   1  195.48   17.70
   4   5   2   83.59   14.40
   4   5   2   71.49   23.00
   4   5   2   78.49    8.00
   4   5   2   76.29   14.70
   4   5   2   76.09    9.80
   4   5   2   78.29   11.80
   4   5   3  235.58   36.20
   4   5   3  255.07   26.40
   4   5   3  245.68   16.20
   4   5   3  247.68   21.90
   4   5   4  882.01   33.30
   4   5   4 1026.10   69.49
   4   5   4  973.50   65.39
   4   5   4  801.22   33.00
   4   5   4  876.61   45.60
   4   5   5 1226.98   44.60
   4   5   5 1179.68   34.30
   4   5   5 1128.99   56.19
   4   5   6  322.67   38.00
   4   5   6  285.27   28.70
   4   5   7   -8.70   10.40
   4   5   7   26.50    9.80
   4   5   8   10.90   11.50
   4   5   8    2.00    6.50
   4   5   9  186.08   29.00
   4   5  10  518.55   52.19
   4   5  11  215.68   35.70
   4   5  12   16.50   10.20
   4   5  13   -1.80    7.00
   4   5  14   15.70   12.00
   4   6  -7   34.20   21.60
   4   6  -6   23.00   18.30
   4   6  -5    6.10    7.50
   4   6  -4    3.90    9.20
   4   6  -3   18.50   12.30
   4   6  -3   16.00    8.60
   4   6  -2   11.40   10.40
   4   6  -2    0.60    3.80
   4   6  -1    2.20    8.00
   4   6  -1    1.80    4.20
   4   6  -1   -4.50    3.70
   4   6   0  173.68   14.20
   4   6   0  174.38   38.00
   4   6   0  213.08   31.10
   4   6   0  218.58   21.00
   4   6   0  203.28   28.50
   4   6   0  182.48   21.10
   4   6   1  876.61   58.69
   4   6   1  738.93   75.39
   4   6   1  934.71   57.89
   4   6   1  826.32   38.90
   4   6   1  861.01   45.10
   4   6   2  294.47   30.20
   4   6   2  234.38   40.20
   4   6   2  319.77   32.10
   4   6   2  254.07   18.00
   4   6   2  275.97   23.10
   4   6   3  118.39   25.50
   4   6   3  145.59   21.50
   4   6   3  133.99   24.50
   4   6   3  111.49   15.80
   4   6   3  122.29   14.30
   4   6   3  130.79   10.50
   4   6   4  139.29   26.90
   4   6   4  126.49   24.20
   4   6   4   93.79   11.80
   4   6   4   86.59   14.70
   4   6   5  288.07   21.60
   4   6   5  258.07   15.40
   4   6   5  261.07   26.70
   4   6   6  653.33   36.10
   4   6   6  599.24   43.50
   4   6   7  113.69   15.60
   4   6   7  102.29   23.90
   4   6   7   70.39   14.90
   4   6   8   31.40   15.50
   4   6   8   32.40   11.30
   4   6   9  128.59   23.50
   4   6  10   72.89   19.10
   4   6  11    0.40    7.50
   4   6  12   24.10   12.00
   4   6  13  102.29   27.30
   4   6  14  131.99   32.30
   4   7  -6  -25.00   17.30
   4   7  -5  -14.90   13.40
   4   7  -4   31.00   16.50
   4   7  -4   85.09   21.00
   4   7  -3  158.08   33.90
   4   7  -3  174.88   28.20
   4   7  -2   45.50   18.50
   4   7  -2   68.39   16.70
   4   7  -2   52.79   13.30
   4   7  -1   68.89   20.90
   4   7  -1   53.39   14.00
   4   7  -1   48.70   11.60
   4   7   0   23.70   11.20
   4   7   0   15.00    7.00
   4   7   0   13.50    3.00
   4   7   0   18.60    7.00
   4   7   1   16.50   16.00
   4   7   1   17.10   11.40
   4   7   1   20.10    8.00
   4   7   1   15.90    6.20
   4   7   2  507.65   61.89
   4   7   2  495.95   43.40
   4   7   2  512.25   29.70
   4   7   2  543.65   36.90
   4   7   3  178.18   34.90
   4   7   3  194.88   26.40
   4   7   3  140.49   27.40
   4   7   3  167.58   21.60
   4   7   3  191.78   20.60
   4   7   3  175.78   15.30
   4   7   4  165.58   31.10
   4   7   4  129.89   16.20
   4   7   4  120.39   19.10
   4   7   5  132.09   19.90
   4   7   5  165.48   18.00
   4   7   6   -1.10    2.60
   4   7   6   -5.40    7.80
   4   7   6    0.90    0.90
   4   7   6   -3.30    5.90
   4   7   7   43.20   10.40
   4   7   7   20.30   12.90
   4   7   7   31.80   11.50
   4   7   8   37.40   10.30
   4   7   8   36.10   15.80
   4   7   8   14.60    7.00
   4   7   9   70.49   21.40
   4   7   9   63.39   15.80
   4   7  10  203.08   31.60
   4   7  11  144.69   28.50
   4   7  12   17.90   11.10
   4   7  13    7.40    7.40
   4   7  14   38.10   16.70
   4   8  -6    7.70   12.50
   4   8  -5   13.70   12.70
   4   8  -5   16.70   11.20
   4   8  -4   28.30   19.10
   4   8  -4   14.90   12.10
   4   8  -3   16.00   11.90
   4   8  -3    2.70    6.70
   4   8  -2   15.00   11.80
   4   8  -2   20.80   12.20
   4   8  -1   -1.30    9.20
   4   8  -1   -2.40    8.40
   4   8  -1   -0.30    4.60
   4   8   0   63.29   20.10
   4   8   0   41.00   11.90
   4   8   0   58.59   13.30
   4   8   1  241.58   24.40
   4   8   1  302.47   31.60
   4   8   2  348.07   27.00
   4   8   2  344.37   32.40
   4   8   3   11.10    5.30
   4   8   3   21.60   12.60
   4   8   3   12.90    5.00
   4   8   4   84.79   14.90
   4   8   4   75.99   20.80
   4   8   4   81.69   11.10
   4   8   4   47.60   13.10
   4   8   5  333.27   44.50
   4   8   5  250.77   29.80
   4   8   5  259.47   25.50
   4   8   6  690.23   51.59
   4   8   6  819.82   46.80
   4   8   7  416.56   34.10
   4   8   7  417.96   40.20
   4   8   8   66.99   14.30
   4   8   8   55.49   19.80
   4   8   8   40.40   13.40
   4   8   9   29.80    9.70
   4   8   9   17.00    7.60
   4   8  10   -2.60    4.60
   4   8  11   29.50   12.60
   4   8  12   47.50   18.00
   4   8  13   66.29   21.80
   4   8  14   36.90   20.40
   4   9  -5   -2.60    6.60
   4   9  -4   10.40   12.70
   4   9  -4   -6.20    8.30
   4   9  -3   82.39   28.80
   4   9  -3   50.89   17.80
   4   9  -2  202.78   41.70
   4   9  -2  181.88   30.20
   4   9  -1  152.18   26.70
   4   9   0  143.49   21.60
   4   9   0  173.88   27.10
   4   9   1   46.00    6.90
   4   9   1   70.19   16.70
   4   9   1   56.49   13.10
   4   9   2   63.89   15.50
   4   9   2   38.20   10.10
   4   9   3  154.88   30.50
   4   9   3  204.18   25.80
   4   9   3  176.58   20.10
   4   9   4  215.28   36.50
   4   9   4  246.78   22.40
   4   9   4  225.98   26.70
   4   9   5  120.39   27.60
   4   9   5  166.58   22.20
   4   9   5  130.19   22.40
   4   9   6   76.39   15.20
   4   9   6   68.59   22.50
   4   9   6   72.79   18.30
   4   9   7    4.80    4.90
   4   9   7    0.80    0.90
   4   9   7   -0.60    1.10
   4   9   7    4.40    6.00
   4   9   8   28.80    9.90
   4   9   8   29.90   14.40
   4   9   8    4.70    6.20
   4   9   9    2.40   10.10
   4   9   9   10.80    8.40
   4   9  10  282.27   33.60
   4   9  10  189.38   31.80
   4   9  11  349.07   44.40
   4   9  12  106.09   26.90
   4   9  13    6.00    8.90
   4   9  14   22.80   13.10
   4  10  -4   14.00   11.50
   4  10  -3   10.10   10.00
   4  10  -2   -1.00    6.50
   4  10  -1   -4.80    7.50
   4  10   0   37.00   13.80
   4  10   1  135.39   24.60
   4  10   2  227.68   39.20
   4  10   2  174.38   23.00
   4  10   2  221.88   30.50
   4  10   3   47.20   14.00
   4  10   3   20.60   15.00
   4  10   3   46.90   11.80
   4  10   4    6.00    5.90
   4  10   4   -0.20    7.60
   4  10   4   14.60    6.10
   4  10   5    5.70    5.60
   4  10   5   -1.90   10.90
   4  10   6  106.49   18.90
   4  10   6  149.79   32.70
   4  10   6  130.49   23.70
   4  10   7  239.28   15.80
   4  10   7  217.68   32.20
   4  10   7  235.18   28.70
   4  10   8  113.69   20.40
   4  10   8  121.39   29.80
   4  10   8   62.19   17.30
   4  10   9   65.59   15.20
   4  10   9   47.60   18.80
   4  10   9   60.79   18.10
   4  10  10    8.80    7.00
   4  10  10   -3.00    5.50
   4  10  11    1.70    5.60
   4  10  11  -11.20    9.70
   4  10  12   65.19   21.60
   4  10  13   40.10   17.10
   4  11  -3  -26.10   15.50
   4  11  -2   15.50   15.30
   4  11  -1    5.40   12.90
   4  11   0   19.70   10.10
   4  11   1   -6.90    6.80
   4  11   2   23.30   10.40
   4  11   2   -3.30    8.70
   4  11   3   99.79   22.30
   4  11   3  136.79   33.30
   4  11   4   60.39   16.50
   4  11   4   32.90   16.10
   4  11   5    1.40    4.50
   4  11   5    3.70   10.80
   4  11   6    3.90    6.80
   4  11   6  -15.40   12.80
   4  11   7   16.90    8.30
   4  11   7   26.60   17.30
   4  11   7   20.70    5.40
   4  11   7   12.20    7.80
   4  11   8   49.40   14.20
   4  11   8   79.99   24.90
   4  11   8   48.60   16.60
   4  11   9   21.60    9.50
   4  11   9   34.10   18.10
   4  11   9   -0.20    7.60
   4  11  10    7.30    6.70
   4  11  10   14.20   12.40
   4  11  10    2.00    5.70
   4  11  11   81.09   20.00
   4  11  11   46.90   18.10
   4  11  12   49.10   16.70
   4  11  12   34.90   16.90
   4  11  13   -0.60   11.20
   4  12  -1   12.30   13.20
   4  12   0   38.40   18.30
   4  12   1   33.30   16.80
   4  12   1   20.30   18.90
   4  12   2   45.40   16.80
   4  12   2   26.50   20.20
   4  12   3   17.00    9.80
   4  12   3   24.40   19.00
   4  12   4   -2.40    4.70
   4  12   4   14.00   15.80
   4  12   5   32.60   13.00
   4  12   5   70.89   23.90
   4  12   6   49.10   14.00
   4  12   6   63.79   22.00
   4  12   7   92.29   20.40
   4  12   7   90.79   30.30
   4  12   8   27.80    8.40
   4  12   8   45.00   21.30
   4  12   8   36.00   15.20
   4  12   9    6.20    6.20
   4  12   9    0.20    8.80
   4  12   9    2.70    5.30
   4  12  10   -7.60    7.40
   4  12  10    5.50   10.00
   4  12  10   -9.80    9.50
   4  12  11   46.60   17.30
   4  12  11   24.30   14.50
   4  12  12   80.69   22.50
   4  12  12   68.49   26.30
   4  12  13  102.69   26.20
   4  13   1    2.40    8.10
   4  13   1    9.50   17.60
   4  13   2    5.80    8.10
   4  13   2   25.70   21.00
   4  13   3   63.69   20.20
   4  13   3   23.30   19.10
   4  13   4   88.19   22.80
   4  13   4   70.19   29.20
   4  13   5   86.69   22.20
   4  13   5   71.69   26.10
   4  13   6   21.90   12.50
   4  13   6   21.90   19.20
   4  13   7    9.10    8.70
   4  13   7   12.70   12.30
   4  13   8   20.40   11.70
   4  13   8   45.40   24.70
   4  13   9   49.80   15.90
   4  13   9   37.00   21.80
   4  13  10   35.00   13.80
   4  13  10   40.60   23.40
   4  13  10   23.10   12.30
   4  13  11   28.60   13.70
   4  13  12   28.60   15.80
   4  13  13  -17.00   12.10
   4  14   4    3.90   11.80
   4  14   5   -0.50    7.80
   4  14   5  -13.30   13.80
   4  14   6   11.30   10.70
   4  14   6   21.10   19.20
   4  14   7   28.10   14.30
   4  14   7   42.40   24.90
   4  14   8   46.50   17.80
   4  14   8   30.50   20.30
   4  14   9    6.60    7.00
   4  14   9   23.40   20.60
   4  14  10    7.80   10.30
   5 -11  -6   45.10   21.20
   5 -11  -5   55.79   22.90
   5 -11  -4   38.30   18.10
   5 -11  -3    1.30    8.40
   5 -11  -2   37.70   17.70
   5 -11  -1   58.09   21.60
   5 -11   0   23.90   15.10
   5 -10  -8   16.90   12.20
   5 -10  -7   52.39   20.20
   5 -10  -6    4.80    6.70
   5 -10  -5   -2.10    7.90
   5 -10  -4   38.40   17.50
   5 -10  -3  183.38   34.90
   5 -10  -2  135.49   30.20
   5 -10  -1   30.80   15.30
   5 -10   0  -19.10   14.10
   5 -10   0   -0.30    7.80
   5 -10   1  -28.90   16.00
   5 -10   1   -0.70    7.00
   5 -10   2   33.40   18.10
   5 -10   2   30.30   18.20
   5 -10   3   59.49   22.60
   5  -9  -9   48.50   24.20
   5  -9  -9   46.80   21.00
   5  -9  -8   13.20   10.40
   5  -9  -7    4.00    6.90
   5  -9  -6  127.79   28.90
   5  -9  -5  253.27   40.10
   5  -9  -4  231.18   38.20
   5  -9  -3  119.29   26.50
   5  -9  -2   23.80   15.00
   5  -9  -2   19.70   12.60
   5  -9  -1   86.09   25.10
   5  -9  -1  100.99   25.40
   5  -9   0  120.89   28.00
   5  -9   0  154.08   30.20
   5  -9   1  104.89   27.60
   5  -9   1  104.09   25.60
   5  -9   2   82.49   24.40
   5  -9   2   72.49   22.00
   5  -9   3   17.40   11.80
   5  -9   3   61.99   20.60
   5  -9   4   10.20   14.20
   5  -9   4   -5.70    6.40
   5  -9   5    8.80   12.40
   5  -9   5   -4.60   16.00
   5  -8 -10    5.10   11.40
   5  -8 -10   32.10   19.20
   5  -8  -9   30.20   20.80
   5  -8  -9   24.60   14.50
   5  -8  -8   73.29   22.60
   5  -8  -7  122.69   28.80
   5  -8  -6   -9.20   12.40
   5  -8  -5    2.00    6.10
   5  -8  -5   -3.00   11.20
   5  -8  -4    6.40    3.20
   5  -8  -4    4.20    6.70
   5  -8  -3   92.99   25.50
   5  -8  -3   92.69   22.90
   5  -8  -2  276.97   42.80
   5  -8  -2  218.98   35.00
   5  -8  -1  149.19   32.90
   5  -8  -1  115.89   25.80
   5  -8   0   27.20   14.90
   5  -8   0    8.40    7.00
   5  -8   1   33.60   16.90
   5  -8   1   46.30   16.50
   5  -8   2   13.50    9.20
   5  -8   2    0.60    4.70
   5  -8   3   31.90   15.80
   5  -8   3   52.99   16.10
   5  -8   4   63.09   20.90
   5  -8   4   80.99   22.40
   5  -8   5   85.19   38.20
   5  -8   5  121.09   29.30
   5  -8   5  153.18   33.50
   5  -8   6   19.20   20.10
   5  -8   6   27.40   18.50
   5  -8   7  -26.60   24.00
   5  -7 -10  -55.99   26.90
   5  -7 -10    1.30    6.40
   5  -7  -9  -15.40   15.20
   5  -7  -9   13.60   10.60
   5  -7  -8   28.00   16.60
   5  -7  -8   -1.60    6.30
   5  -7  -7   -8.70    9.80
   5  -7  -6   94.09   19.80
   5  -7  -6  114.99   25.20
   5  -7  -5  129.09   21.40
   5  -7  -5  135.59   26.80
   5  -7  -4  156.08   20.80
   5  -7  -4  183.88   30.80
   5  -7  -3   68.69   18.90
   5  -7  -3  111.09   13.30
   5  -7  -3  117.89   24.50
   5  -7  -2   18.50   20.30
   5  -7  -2    2.10    6.40
   5  -7  -1  248.58   38.60
   5  -7  -1  258.07   35.90
   5  -7   0  359.26   46.80
   5  -7   0  365.76   43.60
   5  -7   1  135.79   28.00
   5  -7   1  172.28   29.00
   5  -7   2  115.19   25.60
   5  -7   2  106.69   23.10
   5  -7   3   29.80   14.30
   5  -7   3   39.10   15.10
   5  -7   4   -1.80   11.00
   5  -7   4    4.10    4.80
   5  -7   5  -19.80   13.10
   5  -7   5  -20.50   11.80
   5  -7   6    9.90   19.40
   5  -7   6   22.10   12.80
   5  -7   7   31.60   28.30
   5  -7   7   59.69   23.30
   5  -7   8   50.79   39.70
   5  -7   9  -20.10   25.10
   5  -6 -10   31.30   21.90
   5  -6 -10   71.09   23.30
   5  -6  -9   35.10   21.40
   5  -6  -9   67.59   21.20
   5  -6  -8  104.39   32.60
   5  -6  -8  137.89   29.90
   5  -6  -7  118.79   32.50
   5  -6  -7  106.59   25.30
   5  -6  -7  102.49   21.00
   5  -6  -6    4.20    5.80
   5  -6  -6   17.30    8.20
   5  -6  -5   28.40   10.60
   5  -6  -5   12.30    8.60
   5  -6  -4  163.98   32.30
   5  -6  -4  142.79   26.40
   5  -6  -4  150.78   23.50
   5  -6  -3  222.98   36.40
   5  -6  -3  190.48   20.10
   5  -6  -3  227.38   28.70
   5  -6  -3  216.38   31.50
   5  -6  -2  312.17   41.50
   5  -6  -2  239.68   15.90
   5  -6  -2  247.88   33.20
   5  -6  -2  256.17   29.90
   5  -6  -2  256.77   34.90
   5  -6  -1    6.10   10.80
   5  -6  -1   -2.10    7.50
   5  -6  -1   -3.20    3.30
   5  -6  -1   -4.60   10.50
   5  -6   0   95.99   23.60
   5  -6   0   89.89   19.70
   5  -6   0   64.59   16.50
   5  -6   1  114.99   24.60
   5  -6   1  120.89   23.80
   5  -6   2  127.69   25.90
   5  -6   2   97.29   21.40
   5  -6   3  170.88   30.70
   5  -6   3  122.19   23.70
   5  -6   4  175.48   32.60
   5  -6   4  133.09   26.10
   5  -6   5  119.79   27.30
   5  -6   5   79.19   21.90
   5  -6   6   26.20   21.50
   5  -6   6   48.00   17.40
   5  -6   7    4.90   17.80
   5  -6   7   24.20   17.70
   5  -6   8   27.00   26.40
   5  -6   8   73.29   25.00
   5  -6   9   53.39   41.00
   5  -5 -10   18.90   17.80
   5  -5 -10   -0.10   12.70
   5  -5  -9    4.30   14.10
   5  -5  -9   -0.50    6.30
   5  -5  -8   11.50   12.50
   5  -5  -8   -2.60    7.00
   5  -5  -8    0.40    5.00
   5  -5  -7   43.10   21.40
   5  -5  -7   12.10   10.30
   5  -5  -7   17.70    8.00
   5  -5  -6  266.97   46.90
   5  -5  -6  199.08   26.20
   5  -5  -6  202.98   32.40
   5  -5  -5  211.48   26.50
   5  -5  -5  227.88   33.10
   5  -5  -4  400.66   47.00
   5  -5  -4  373.76   40.70
   5  -5  -4  399.36   35.60
   5  -5  -4  397.26   41.90
   5  -5  -3  396.96   46.00
   5  -5  -3  479.65   38.30
   5  -5  -3  404.96   41.90
   5  -5  -3  462.05   43.70
   5  -5  -2   96.69   20.30
   5  -5  -2  153.68   28.70
   5  -5  -2  102.59   20.10
   5  -5  -2  138.69   20.30
   5  -5  -2   90.49   19.40
   5  -5  -1  286.77   40.20
   5  -5  -1  241.08   30.70
   5  -5  -1  277.97   29.10
   5  -5  -1  295.37   33.90
   5  -5   0  402.16   39.40
   5  -5   0  397.66   44.80
   5  -5   0  364.16   37.40
   5  -5   0  440.86   41.80
   5  -5   1  362.86   37.20
   5  -5   1  342.87   41.30
   5  -5   1  305.27   34.40
   5  -5   1  321.17   37.10
   5  -5   2  276.67   32.90
   5  -5   2  246.88   35.80
   5  -5   2  252.87   31.30
   5  -5   3  102.69   25.90
   5  -5   3   94.29   22.40
   5  -5   3   75.69   17.50
   5  -5   4    8.40   11.20
   5  -5   4   11.40    8.20
   5  -5   5   47.20   17.60
   5  -5   5   45.70   15.30
   5  -5   6  117.39   28.10
   5  -5   7  121.59   40.10
   5  -5   7  217.98   37.80
   5  -5   8   68.09   34.70
   5  -5   8  147.59   34.20
   5  -5   9  -37.90   24.70
   5  -5   9    2.70    9.90
   5  -5  10   14.60   22.10
   5  -5  10    4.00   14.50
   5  -4 -10    9.70   13.70
   5  -4  -9   35.90   21.20
   5  -4  -8   37.90   20.30
   5  -4  -8   23.20   11.20
   5  -4  -8   29.70   11.10
   5  -4  -7  196.58   41.20
   5  -4  -7  179.88   23.80
   5  -4  -7  189.78   32.20
   5  -4  -6  394.76   54.69
   5  -4  -6  312.27   30.50
   5  -4  -6  382.16   43.40
   5  -4  -5    2.10    8.20
   5  -4  -5   -7.70    7.50
   5  -4  -5   -1.30    5.00
   5  -4  -5   -0.80    4.70
   5  -4  -4   77.79   17.00
   5  -4  -4  117.09   21.80
   5  -4  -4  127.79   23.40
   5  -4  -4  120.59   17.80
   5  -4  -3  402.76   46.60
   5  -4  -3  467.65   58.09
   5  -4  -3  447.66   41.10
   5  -4  -3  421.16   39.90
   5  -4  -3  472.85   35.20
   5  -4  -3  440.46   41.50
   5  -4  -2 1099.69   74.39
   5  -4  -2 1196.88   67.29
   5  -4  -2 1176.48   57.39
   5  -4  -2 1184.88   67.69
   5  -4  -2 1166.88   65.69
   5  -4  -1  760.52   61.09
   5  -4  -1  754.02   52.29
   5  -4  -1  879.41   55.99
   5  -4  -1  821.42   54.19
   5  -4   0   47.20   12.90
   5  -4   0   53.19   17.90
   5  -4   0   13.70    4.70
   5  -4   0   14.10    7.40
   5  -4   1   83.49   17.00
   5  -4   1   66.79   15.00
   5  -4   1   91.79   20.90
   5  -4   1   79.09   16.50
   5  -4   2   15.70    6.70
   5  -4   2    9.30    8.70
   5  -4   2   19.90    9.20
   5  -4   3  142.89   26.50
   5  -4   3  171.58   25.10
   5  -4   3  179.48   24.80
   5  -4   3  174.78   30.90
   5  -4   4  310.37   33.80
   5  -4   4  294.47   39.10
   5  -4   4  244.38   30.20
   5  -4   4  275.37   40.40
   5  -4   5  246.48   37.20
   5  -4   5  279.27   33.90
   5  -4   5  262.37   40.70
   5  -4   6  355.06   44.80
   5  -4   6  278.67   35.10
   5  -4   7   54.19   24.10
   5  -4   7   79.89   23.20
   5  -4   8    7.00   16.10
   5  -4   8   26.40   16.20
   5  -4   9  120.29   38.90
   5  -4   9  177.08   36.20
   5  -4  10   69.29   34.50
   5  -4  10  141.89   35.00
   5  -4  11   35.70   20.70
   5  -3 -10   63.39   28.80
   5  -3  -9   -5.10    9.80
   5  -3  -8   29.70   19.10
   5  -3  -7   30.60   18.10
   5  -3  -7   22.40    8.00
   5  -3  -6   55.39   22.00
   5  -3  -6   49.00   15.20
   5  -3  -6   66.29   12.70
   5  -3  -5  296.87   46.20
   5  -3  -5  231.38   31.60
   5  -3  -5  232.18   22.90
   5  -3  -5  278.77   34.80
   5  -3  -4  148.29   31.80
   5  -3  -4  120.99   24.60
   5  -3  -4  162.68   32.00
   5  -3  -4  129.29   21.90
   5  -3  -4  138.59   23.40
   5  -3  -4  139.89   17.10
   5  -3  -4  138.99   23.00
   5  -3  -3   43.90   12.30
   5  -3  -3   58.89   20.70
   5  -3  -3   60.49   16.80
   5  -3  -3   58.79   14.60
   5  -3  -3   63.09   15.30
   5  -3  -3   69.99   12.30
   5  -3  -2   55.69   12.90
   5  -3  -2   37.10   18.10
   5  -3  -2   47.40   15.80
   5  -3  -2   75.19   15.90
   5  -3  -2   48.50   12.70
   5  -3  -2   73.59   12.70
   5  -3  -1  118.69   22.20
   5  -3  -1  122.79   20.30
   5  -3  -1  104.79   17.20
   5  -3  -1   94.79   17.50
   5  -3   0  252.97   28.50
   5  -3   0  279.07   34.30
   5  -3   0  260.57   28.60
   5  -3   0  265.77   28.30
   5  -3   0  216.18   24.90
   5  -3   1  334.27   33.30
   5  -3   1  290.77   35.40
   5  -3   1  290.97   16.10
   5  -3   1  305.57   30.30
   5  -3   1  326.77   30.30
   5  -3   2  179.28   28.80
   5  -3   2  181.38   24.20
   5  -3   2  160.78   21.70
   5  -3   3  316.17   32.70
   5  -3   3  326.07   38.00
   5  -3   3  311.57   37.40
   5  -3   3  269.37   28.50
   5  -3   4   37.10   12.80
   5  -3   4   23.30    9.60
   5  -3   4   11.00    9.00
   5  -3   4   12.10    7.50
   5  -3   5   21.80   11.10
   5  -3   5   22.10   11.80
   5  -3   5   24.50    9.30
   5  -3   5   19.50    8.40
   5  -3   6  100.99   24.30
   5  -3   6  107.79   23.90
   5  -3   6   81.59   17.80
   5  -3   7  256.47   38.80
   5  -3   8  251.97   45.70
   5  -3   8  300.17   43.00
   5  -3   9   40.10   19.80
   5  -3   9   26.70   14.80
   5  -3  10    8.20   16.20
   5  -3  10  -11.50    9.60
   5  -3  10   -6.90   11.70
   5  -3  11    2.60   10.00
   5  -3  11   19.90   15.00
   5  -3  12    2.80    9.10
   5  -2 -10    0.20   13.70
   5  -2  -9   27.80   24.80
   5  -2  -8   -0.40    7.60
   5  -2  -7   14.00   14.70
   5  -2  -6   16.60   13.30
   5  -2  -6   63.09   11.00
   5  -2  -5  -14.90   11.70
   5  -2  -5   -2.50    6.80
   5  -2  -5   -0.70    1.90
   5  -2  -4   25.90    9.90
   5  -2  -4   39.70   19.20
   5  -2  -4   42.90   14.90
   5  -2  -4   47.90   18.00
   5  -2  -4   42.30   13.40
   5  -2  -4   40.60   12.70
   5  -2  -4   36.30    7.60
   5  -2  -3  470.95   45.70
   5  -2  -3  541.95   53.69
   5  -2  -3  555.54   62.09
   5  -2  -3  430.66   39.20
   5  -2  -3  503.95   28.40
   5  -2  -3  476.95   40.30
   5  -2  -3  455.65   38.00
   5  -2  -2  596.94   51.09
   5  -2  -2  759.92   69.19
   5  -2  -2  719.03   49.50
   5  -2  -2  663.73   33.90
   5  -2  -2  724.73   45.40
   5  -2  -2  633.24   44.90
   5  -2  -1  890.71   61.59
   5  -2  -1  884.51   74.09
   5  -2  -1  949.51   55.29
   5  -2  -1  889.91   48.30
   5  -2  -1  938.41   41.80
   5  -2  -1  894.21   51.79
   5  -2   0   36.80   10.00
   5  -2   0   54.19   17.40
   5  -2   0   36.30    8.80
   5  -2   0   55.49   12.40
   5  -2   0   34.20    9.80
   5  -2   1  644.04   44.70
   5  -2   1  572.74   48.70
   5  -2   1  628.74   42.80
   5  -2   1  599.24   39.80
   5  -2   1  578.14   36.80
   5  -2   2  446.26   36.70
   5  -2   2  444.86   42.60
   5  -2   2  381.76   31.50
   5  -2   2  353.66   22.90
   5  -2   3  380.26   40.20
   5  -2   3  382.36   34.30
   5  -2   3  362.96   30.70
   5  -2   4  206.98   25.50
   5  -2   4  224.68   32.00
   5  -2   4  185.78   26.90
   5  -2   4  197.88   22.90
   5  -2   5   64.99   17.10
   5  -2   5   74.69   18.10
   5  -2   5   76.59   16.20
   5  -2   5   89.19   16.30
   5  -2   6   -4.00    8.80
   5  -2   6    1.00    3.90
   5  -2   6   13.70    9.30
   5  -2   7   30.30   15.00
   5  -2   8    3.70    7.20
   5  -2   8   11.60   11.10
   5  -2   9  170.98   37.20
   5  -2   9  174.38   13.30
   5  -2  10  125.99   33.40
   5  -2  10  167.78   36.50
   5  -2  11   16.10   12.70
   5  -2  12   23.40   18.70
   5  -1 -10   95.39   35.80
   5  -1  -9   19.60   17.00
   5  -1  -8   17.60   14.70
   5  -1  -7   10.10   14.60
   5  -1  -6  122.59   33.40
   5  -1  -6  130.39   25.30
   5  -1  -5  729.23   76.29
   5  -1  -5  699.33   52.59
   5  -1  -4  168.58   35.40
   5  -1  -4  168.78   26.20
   5  -1  -4  154.98   32.80
   5  -1  -4  183.08   27.60
   5  -1  -4  163.68   12.90
   5  -1  -4  205.28   26.00
   5  -1  -3   30.20    8.70
   5  -1  -3   31.60   14.00
   5  -1  -3   35.50   13.20
   5  -1  -3   29.30   13.20
   5  -1  -3   47.80   13.10
   5  -1  -3   41.70   12.10
   5  -1  -3   34.90    5.60
   5  -1  -2   -4.00    6.70
   5  -1  -2   -4.00    3.80
   5  -1  -2   -5.30   11.20
   5  -1  -2   -4.00    6.10
   5  -1  -2    2.00    3.60
   5  -1  -2    4.00    5.50
   5  -1  -2    0.30    1.80
   5  -1  -1  151.88   25.20
   5  -1  -1  187.68   22.70
   5  -1  -1  212.08   35.30
   5  -1  -1  198.78   23.80
   5  -1  -1  168.48   14.50
   5  -1  -1  163.68   18.60
   5  -1  -1  176.28   21.40
   5  -1   0  906.51   51.69
   5  -1   0  826.72   56.19
   5  -1   0 1024.10   74.29
   5  -1   0  869.11   49.99
   5  -1   0  883.51   46.90
   5  -1   0  816.52   41.10
   5  -1   1  427.76   34.80
   5  -1   1  370.86   38.00
   5  -1   1  477.55   49.30
   5  -1   1  424.66   33.30
   5  -1   1  370.46   24.80
   5  -1   1  436.66   31.10
   5  -1   1  372.86   25.90
   5  -1   2   -2.30    5.40
   5  -1   2   -2.20    8.40
   5  -1   2    1.10    1.50
   5  -1   2   10.60    4.00
   5  -1   2    3.80    2.70
   5  -1   2    4.70    3.00
   5  -1   3  112.99   21.20
   5  -1   3  114.39   17.80
   5  -1   3  101.69   14.70
   5  -1   3  110.09   14.70
   5  -1   3  121.19   10.20
   5  -1   4   77.49   15.00
   5  -1   4   52.89   14.50
   5  -1   4   40.10   11.10
   5  -1   4   73.79    5.90
   5  -1   4   58.89   11.40
   5  -1   5  143.79   21.30
   5  -1   5  116.49   17.20
   5  -1   5  113.99   19.70
   5  -1   6  253.67   30.50
   5  -1   6  214.48   29.70
   5  -1   7  659.83   52.69
   5  -1   7  585.34   55.29
   5  -1   7  650.73   24.00
   5  -1   8  390.46   49.50
   5  -1   8  398.46   44.30
   5  -1   8  436.66   23.20
   5  -1   9   88.79   25.90
   5  -1   9   76.79   21.30
   5  -1   9  101.79   13.00
   5  -1   9   96.99   26.10
   5  -1  10   23.20   13.70
   5  -1  10   48.40    9.50
   5  -1  10   28.70   15.40
   5  -1  11  147.29   37.30
   5  -1  12   84.29   28.40
   5   0 -10   10.50   12.60
   5   0  -9  105.49   36.10
   5   0  -8   28.30   16.60
   5   0  -7   -9.40   11.80
   5   0  -6   30.50   14.40
   5   0  -5   76.29   26.70
   5   0  -5   74.09   17.40
   5   0  -4   26.70   15.80
   5   0  -4   56.19   15.80
   5   0  -4   45.70   19.50
   5   0  -4   52.59   13.50
   5   0  -3  576.24   46.60
   5   0  -3  487.25   54.49
   5   0  -3  464.35   57.79
   5   0  -3  543.95   45.20
   5   0  -3  525.95   38.30
   5   0  -2  611.04   47.20
   5   0  -2  631.74   55.99
   5   0  -2  665.93   65.59
   5   0  -2  665.03   46.90
   5   0  -2  580.94   41.00
   5   0  -2  601.94   37.40
   5   0  -1 2216.48   83.49
   5   0  -1 2190.08   93.19
   5   0  -1 2386.66  103.69
   5   0  -1 2394.66  125.69
   5   0  -1 2248.28   88.09
   5   0  -1 2180.18   81.99
   5   0  -1 2242.88   53.39
   5   0  -1 2285.37   81.29
   5   0  -1 2115.79   72.29
   5   0   0  698.63   42.70
   5   0   0  666.03   48.40
   5   0   0  797.72   51.69
   5   0   0  736.33   63.89
   5   0   0  697.33   43.50
   5   0   0  632.84   38.10
   5   0   0  646.84   32.70
   5   0   0  716.63   39.40
   5   0   1    5.10    2.90
   5   0   1    1.10   10.20
   5   0   1    2.60    1.90
   5   0   1   10.00    6.50
   5   0   1    4.40    3.30
   5   0   1    1.50    2.80
   5   0   1   -5.50    6.00
   5   0   2  592.54   39.90
   5   0   2  636.84   47.90
   5   0   2  529.85   37.10
   5   0   2  632.54   33.70
   5   0   2  603.94   38.10
   5   0   2  602.54   31.30
   5   0   3  558.14   39.00
   5   0   3  545.65   37.20
   5   0   3  491.15   29.80
   5   0   3  550.84   27.30
   5   0   3  555.94   48.80
   5   0   4 1012.70   55.49
   5   0   4  980.20   52.19
   5   0   4  985.90   44.50
   5   0   4  974.30   36.00
   5   0   4  975.10   50.19
   5   0   5  728.03   48.40
   5   0   5  710.03   28.90
   5   0   5  669.43   38.40
   5   0   5  620.84   42.00
   5   0   6  132.09   20.70
   5   0   6  129.29   21.60
   5   0   7   19.50    9.80
   5   0   7   14.00    8.60
   5   0   7   -2.70    7.90
   5   0   8   17.10   10.50
   5   0   8   13.70    8.40
   5   0   8   20.30   12.60
   5   0   9  280.27   43.00
   5   0   9  301.17   36.10
   5   0   9  341.57   26.60
   5   0   9  299.37   43.50
   5   0  10  169.18   36.00
   5   0  10  156.28   26.80
   5   0  10  266.77   25.90
   5   0  10  240.58   40.70
   5   0  11  134.09   20.00
   5   0  11  130.89   32.00
   5   0  12   15.20   13.50
   5   0  13    1.60   14.40
   5   1  -9   38.30   26.80
   5   1  -8  -12.70   14.20
   5   1  -7    4.80   10.00
   5   1  -6    6.40   14.50
   5   1  -5  252.77   32.60
   5   1  -5  256.37   45.70
   5   1  -4  317.27   33.30
   5   1  -4  316.07   48.40
   5   1  -3  227.28   27.40
   5   1  -3  192.98   23.10
   5   1  -3  213.08   28.80
   5   1  -3  204.68   26.10
   5   1  -3  166.58   32.30
   5   1  -3  149.88   35.90
   5   1  -2   12.60    7.90
   5   1  -2   12.00    4.40
   5   1  -2   11.20    4.60
   5   1  -2    5.90    6.20
   5   1  -2   30.30   15.20
   5   1  -2   19.10    8.20
   5   1  -2   18.00    7.60
   5   1  -1  130.99   17.10
   5   1  -1  136.49   21.40
   5   1  -1  121.89   24.20
   5   1  -1  115.09   27.10
   5   1  -1  127.89   19.30
   5   1  -1  142.49   19.50
   5   1  -1  150.18   15.70
   5   1   0  973.80   49.10
   5   1   0 1043.20   58.59
   5   1   0 1024.90   62.29
   5   1   0 1189.78   82.89
   5   1   0 1065.29   54.89
   5   1   0 1022.50   51.49
   5   1   0  996.90   30.50
   5   1   0  999.00   38.40
   5   1   0 1054.99   46.70
   5   1   1  478.35   33.30
   5   1   1  539.55   41.30
   5   1   1  580.94   40.40
   5   1   1  601.34   55.49
   5   1   1  500.75   34.70
   5   1   1  488.15   32.50
   5   1   1  488.75   27.00
   5   1   1  534.55   29.70
   5   1   1  517.35   22.00
   5   1   2   12.30    5.30
   5   1   2   10.20    5.80
   5   1   2   22.60   10.20
   5   1   2   11.50    4.80
   5   1   2    8.00    3.50
   5   1   2   21.00    5.50
   5   1   2   15.90    5.40
   5   1   3   56.19   12.00
   5   1   3   68.29   16.90
   5   1   3   78.79   15.00
   5   1   3   60.09   10.80
   5   1   3   52.99    9.00
   5   1   3   50.29   11.50
   5   1   3   50.99    7.90
   5   1   4  196.88   22.80
   5   1   4  237.38   29.50
   5   1   4  173.58   16.70
   5   1   4  189.98   16.70
   5   1   4  185.98   23.70
   5   1   4  178.68   15.40
   5   1   4  188.78   23.80
   5   1   5   16.30    6.90
   5   1   5   22.90    8.60
   5   1   5   14.30    5.30
   5   1   5    8.90    3.70
   5   1   5   13.60    8.20
   5   1   5   23.70    9.20
   5   1   6   14.70    7.60
   5   1   6   13.80    6.50
   5   1   6   17.40    7.30
   5   1   6   15.20    7.30
   5   1   7  184.78   25.60
   5   1   7  228.38   29.90
   5   1   7  210.88   31.60
   5   1   8  455.95   45.60
   5   1   8  524.15   53.39
   5   1   9  545.45   53.79
   5   1   9  553.94   57.99
   5   1  10   -8.60   10.90
   5   1  10   -0.70    1.80
   5   1  10   -1.90   11.80
   5   1  11   37.20   18.80
   5   1  11   24.80    9.10
   5   1  11   50.49   19.60
   5   1  12   56.39   13.90
   5   1  12   28.50   14.60
   5   1  13   33.60   16.90
   5   2  -9   28.30   23.10
   5   2  -8   40.30   20.60
   5   2  -7   22.00   14.90
   5   2  -6   -8.50   10.70
   5   2  -5   11.40    7.40
   5   2  -5    5.70   10.00
   5   2  -4  112.69   20.20
   5   2  -4   93.29   27.00
   5   2  -3   71.79   14.50
   5   2  -3   78.09   12.50
   5   2  -3   76.19   18.20
   5   2  -3   77.39   16.70
   5   2  -3   88.79   25.30
   5   2  -3   68.29   23.70
   5   2  -3   73.09   14.60
   5   2  -2   94.29   14.30
   5   2  -2  126.59   19.90
   5   2  -2   97.79   13.70
   5   2  -2  124.49   32.50
   5   2  -2  119.89   27.10
   5   2  -2   94.09   18.60
   5   2  -2   95.99   17.80
   5   2  -1  311.97   24.70
   5   2  -1  278.97   28.30
   5   2  -1  326.07   40.40
   5   2  -1  383.96   53.59
   5   2  -1  333.87   32.90
   5   2  -1  327.07   31.30
   5   2  -1  321.57   23.40
   5   2   0  291.17   24.10
   5   2   0  330.97   31.50
   5   2   0  294.27   34.70
   5   2   0  301.27   44.60
   5   2   0  350.76   31.10
   5   2   0  327.87   29.50
   5   2   0  307.27   18.90
   5   2   1   -0.70    4.20
   5   2   1   -2.70    6.50
   5   2   1    4.80    1.70
   5   2   1   16.60    7.20
   5   2   1    7.30    8.40
   5   2   1    4.30    3.90
   5   2   1    0.00    3.40
   5   2   1    6.10    3.30
   5   2   1    9.20    3.00
   5   2   2  306.77   26.00
   5   2   2  291.97   26.50
   5   2   2  377.56   43.30
   5   2   2  338.17   19.10
   5   2   2  318.27   25.70
   5   2   2  325.77   26.70
   5   2   2  336.47   23.30
   5   2   3   91.39   14.60
   5   2   3  114.69   22.80
   5   2   3   83.69   11.40
   5   2   3   90.89   13.20
   5   2   3   95.29   17.80
   5   2   3   95.79    8.50
   5   2   3  101.89   13.60
   5   2   3   94.19   14.20
   5   2   4  387.06   32.10
   5   2   4  373.66   18.70
   5   2   4  396.56   39.40
   5   2   4  372.46   18.10
   5   2   4  391.96   27.40
   5   2   4  403.86   37.40
   5   2   4  369.96   25.10
   5   2   4  385.46   19.20
   5   2   4  381.66   32.70
   5   2   5  834.52   51.19
   5   2   5  774.12   30.40
   5   2   5  858.91   56.99
   5   2   5  889.01   56.79
   5   2   5  817.22   53.19
   5   2   6  157.48   23.30
   5   2   6  120.69   14.60
   5   2   6  162.28   22.10
   5   2   6  174.78   26.00
   5   2   6  179.88   26.50
   5   2   7   -0.20    3.00
   5   2   7    3.50    5.20
   5   2   7    4.70    5.10
   5   2   8   48.10   12.90
   5   2   8   44.20    9.90
   5   2   8   73.59   20.10
   5   2   9  256.47   32.70
   5   2   9  228.38   18.80
   5   2  10  394.96   45.20
   5   2  10  477.65   55.69
   5   2  11   94.29   23.00
   5   2  11  147.49   32.50
   5   2  12   -2.20    8.10
   5   2  13   18.30   10.80
   5   2  13   26.90   16.80
   5   2  14   12.60   11.60
   5   3  -8  -35.30   20.80
   5   3  -7   18.90   14.00
   5   3  -6   11.20   10.80
   5   3  -5   32.00   12.80
   5   3  -5   38.90    8.20
   5   3  -5   61.09   22.40
   5   3  -4  399.26   39.40
   5   3  -4  384.96   25.70
   5   3  -4  450.05   59.09
   5   3  -3   65.59   14.80
   5   3  -3   88.59   11.90
   5   3  -3   63.89   22.40
   5   3  -2   51.19    8.90
   5   3  -2   41.80   10.70
   5   3  -2   55.79   15.30
   5   3  -2   43.70   12.90
   5   3  -2   51.29   11.90
   5   3  -2   27.00   17.30
   5   3  -2   43.70   15.90
   5   3  -1  191.88   17.80
   5   3  -1  201.68   19.80
   5   3  -1  218.78   24.20
   5   3  -1  234.38   28.20
   5   3  -1  238.38   27.70
   5   3  -1  165.08   38.40
   5   3  -1  234.48   34.30
   5   3   0 1158.18   48.70
   5   3   0 1201.48   43.50
   5   3   0 1258.17   60.89
   5   3   0 1236.08   73.89
   5   3   0 1229.88   98.89
   5   3   0 1278.57   63.99
   5   3   0 1333.97   64.89
   5   3   1 1557.34   60.49
   5   3   1 1817.82   75.29
   5   3   1 1779.32   80.89
   5   3   1 1773.72  113.69
   5   3   1 1590.54   68.99
   5   3   1 1764.42   74.89
   5   3   1 1746.13   47.70
   5   3   1 1703.03   41.80
   5   3   2  279.57   24.00
   5   3   2  260.37   24.90
   5   3   2  290.27   27.20
   5   3   2  270.37   24.10
   5   3   2  288.87   19.80
   5   3   2  305.57   15.60
   5   3   3   86.89   14.00
   5   3   3   90.79   10.50
   5   3   3   70.79   20.70
   5   3   3  101.69   15.30
   5   3   3   78.09   18.10
   5   3   3   71.59   11.20
   5   3   3   91.19   13.00
   5   3   4   97.89   16.00
   5   3   4  124.79   24.20
   5   3   4   83.49   13.90
   5   3   4   98.19   19.10
   5   3   4   99.39   12.30
   5   3   4   98.29   15.40
   5   3   5   85.99   16.60
   5   3   5  101.09   20.20
   5   3   5   79.99   18.40
   5   3   5  100.99   17.10
   5   3   6  270.77   30.10
   5   3   6  242.18   31.50
   5   3   6  218.08   28.20
   5   3   7  132.69   18.60
   5   3   7  151.28   26.30
   5   3   7   99.39   20.40
   5   3   8   86.59   11.20
   5   3   8   54.49   15.30
   5   3   9   79.09   14.70
   5   3   9   61.99   19.30
   5   3  10    4.70    5.60
   5   3  10    7.60    8.40
   5   3  11  159.88   27.50
   5   3  11  170.38   34.90
   5   3  12  308.37   48.30
   5   3  13  127.89   33.70
   5   3  14   42.00   21.80
   5   4  -8   66.69   29.30
   5   4  -7   51.39   23.80
   5   4  -6   12.30   12.10
   5   4  -5  -28.40   16.50
   5   4  -4   13.60    3.60
   5   4  -4    6.80    7.00
   5   4  -3  173.68   13.90
   5   4  -3  163.58   24.30
   5   4  -3  183.08   36.30
   5   4  -2  391.26   28.30
   5   4  -2  357.16   21.40
   5   4  -2  329.77   31.30
   5   4  -2  417.86   49.99
   5   4  -1   53.39   10.90
   5   4  -1   22.80    7.60
   5   4  -1   36.70    6.90
   5   4  -1   34.80   11.30
   5   4  -1   58.59   18.40
   5   4  -1   16.80   15.00
   5   4   0  117.49   13.10
   5   4   0   88.79   12.40
   5   4   0  126.29   17.50
   5   4   0   63.39   24.40
   5   4   0  128.79   23.30
   5   4   0  124.19   20.00
   5   4   0  139.29   21.40
   5   4   1   53.39   11.20
   5   4   1   54.39    7.40
   5   4   1   59.19   10.00
   5   4   1   47.50   12.40
   5   4   1   54.39   22.50
   5   4   1   59.99   12.80
   5   4   1   70.09   14.60
   5   4   1   61.69    7.40
   5   4   2  221.98   21.20
   5   4   2  156.28   34.70
   5   4   2  213.28   22.60
   5   4   2  248.18   27.00
   5   4   2  226.18   23.00
   5   4   2  227.38   11.70
   5   4   2  230.08   18.20
   5   4   2  239.68   12.80
   5   4   3  421.46   31.70
   5   4   3  477.35   25.90
   5   4   3  463.55   35.90
   5   4   3  398.06   41.10
   5   4   3  441.76   29.10
   5   4   3  446.96   28.80
   5   4   4  299.87   28.60
   5   4   4  265.27   37.80
   5   4   4  284.27   35.20
   5   4   4  309.27   28.90
   5   4   4  295.57   21.20
   5   4   4  299.37   25.80
   5   4   5  935.61   65.99
   5   4   5  933.21   36.80
   5   4   5  884.21   50.79
   5   4   6  589.04   44.60
   5   4   6  548.05   49.80
   5   4   6  489.85   40.50
   5   4   7   93.49   12.60
   5   4   7   90.19   20.60
   5   4   7   94.69   19.70
   5   4   8   19.70   13.60
   5   4   8    9.50    6.40
   5   4   9  211.58   33.30
   5   4  10  640.54   62.59
   5   4  11  162.18   32.60
   5   4  12    0.10    7.80
   5   4  13   11.50   11.00
   5   4  14   36.80   19.10
   5   5  -7   49.60   25.40
   5   5  -6   22.30   14.10
   5   5  -5   40.70   20.70
   5   5  -4  124.69   31.60
   5   5  -3   95.99   25.90
   5   5  -3   87.59   17.40
   5   5  -2  129.39   28.60
   5   5  -2  119.19   18.80
   5   5  -1    2.60    3.60
   5   5  -1   -2.40    3.10
   5   5   0  129.39   16.90
   5   5   0  109.59   31.50
   5   5   0  159.88   27.00
   5   5   0  121.49   21.70
   5   5   0  152.08   16.70
   5   5   0  145.99   16.90
   5   5   1  905.91   48.00
   5   5   1  889.61   58.19
   5   5   1  832.42   35.40
   5   5   1  954.60   58.69
   5   5   1  858.51   37.90
   5   5   2  744.83   46.20
   5   5   2  646.64   72.29
   5   5   2  764.32   51.39
   5   5   2  705.23   25.30
   5   5   2  639.24   41.90
   5   5   2  727.23   29.00
   5   5   2  743.93   36.70
   5   5   3   28.30   17.70
   5   5   3   26.00    6.90
   5   5   3   40.70    9.40
   5   5   3   45.00   12.00
   5   5   3   36.70    4.10
   5   5   3   35.50    8.50
   5   5   4   21.20   13.00
   5   5   4   25.60   13.30
   5   5   4   28.80    9.40
   5   5   4   33.10    7.10
   5   5   4   34.40    8.80
   5   5   5    4.50    6.50
   5   5   5    6.30    9.10
   5   5   5    0.80    2.00
   5   5   5   -2.50    3.90
   5   5   6  295.17   31.80
   5   5   6  351.66   42.20
   5   5   6  259.27   28.30
   5   5   7  310.17   40.00
   5   5   7  307.67   33.70
   5   5   8  248.28   36.30
   5   5   8  240.68   31.70
   5   5   9  196.78   31.50
   5   5  10  105.19   24.40
   5   5  11    9.10   10.40
   5   5  12  112.79   28.20
   5   5  13   91.79   26.70
   5   5  14   70.89   25.50
   5   6  -6    2.90    7.70
   5   6  -5   -3.40    8.70
   5   6  -4    5.20    7.40
   5   6  -3  224.88   40.60
   5   6  -2  193.88   36.50
   5   6  -2  173.78   23.50
   5   6  -1   52.49   17.50
   5   6  -1   43.00    6.70
   5   6  -1   72.49   14.70
   5   6  -1   47.90   11.30
   5   6   0   50.69   15.80
   5   6   0   58.69   11.70
   5   6   0   47.90    9.50
   5   6   0   43.10    9.40
   5   6   1   13.00    6.90
   5   6   1    9.60    8.30
   5   6   1    6.30    3.80
   5   6   1    2.90    3.30
   5   6   1    8.10    3.30
   5   6   2  204.98   40.20
   5   6   2  221.38   26.80
   5   6   2  205.08   27.60
   5   6   2  192.58   14.30
   5   6   2  226.78   19.10
   5   6   3  322.27   47.70
   5   6   3  323.37   34.00
   5   6   3  261.67   25.40
   5   6   3  301.57   26.50
   5   6   3  345.97   20.70
   5   6   4   19.20    4.50
   5   6   4   28.30   15.00
   5   6   4   20.10    6.60
   5   6   4   17.60   10.10
   5   6   4   28.80    9.40
   5   6   4   18.50    7.40
   5   6   5  103.69   10.70
   5   6   5   94.49   21.60
   5   6   5   87.49   10.50
   5   6   5   82.09   22.50
   5   6   5   92.29   16.10
   5   6   6  375.36   17.00
   5   6   6  351.36   33.40
   5   6   7  103.79   25.10
   5   6   7  101.59   18.60
   5   6   8  -20.80   12.80
   5   6   8   -3.70    6.00
   5   6   9   19.20   13.90
   5   6   9   22.20    9.40
   5   6  10  278.77   38.90
   5   6  11  248.88   38.80
   5   6  12   65.49   21.00
   5   6  13    6.00    9.20
   5   6  14   10.70   11.40
   5   7  -5    3.50   13.90
   5   7  -4   -4.10    8.90
   5   7  -4    8.40    7.60
   5   7  -3   25.60   16.70
   5   7  -3   14.20    8.40
   5   7  -2   -3.00    8.40
   5   7  -2    1.40    5.50
   5   7  -2   -1.60    4.40
   5   7  -1  134.19   29.60
   5   7  -1   99.09   18.50
   5   7  -1   93.69   16.80
   5   7   0   24.20   11.20
   5   7   0   26.40    5.90
   5   7   0   26.50    8.20
   5   7   0   35.10    9.50
   5   7   1  247.88   22.00
   5   7   1  249.38   34.60
   5   7   1  240.88   21.60
   5   7   1  276.77   26.50
   5   7   2  177.18   38.20
   5   7   2  262.77   32.20
   5   7   2  201.38   17.00
   5   7   2  223.78   21.90
   5   7   3   13.10    5.50
   5   7   3   -8.80   14.50
   5   7   3    5.30    8.70
   5   7   3    7.50    2.90
   5   7   3    9.20    5.60
   5   7   4   37.40    8.20
   5   7   4   34.30   16.30
   5   7   4   48.80   10.30
   5   7   4   17.70   13.80
   5   7   4   43.50   11.10
   5   7   5  122.09   13.70
   5   7   5   83.99   22.20
   5   7   5  117.29   13.30
   5   7   5  100.39   17.70
   5   7   6  266.17   21.60
   5   7   6  226.88   14.40
   5   7   6  228.68   28.00
   5   7   7  387.46   29.10
   5   7   7  446.66   52.59
   5   7   7  327.47   34.90
   5   7   8  171.28   33.60
   5   7   8  149.59   24.90
   5   7   9    3.70   10.70
   5   7   9  -23.70   11.20
   5   7  10   -1.50    7.10
   5   7  11  121.39   27.10
   5   7  12  132.59   29.70
   5   7  13   81.59   24.30
   5   7  14   18.10   12.90
   5   8  -5    8.50   16.70
   5   8  -5   14.30   12.20
   5   8  -4   -6.20   11.10
   5   8  -4   28.80   14.00
   5   8  -3   12.80   13.40
   5   8  -3   24.00   10.80
   5   8  -2  113.39   31.30
   5   8  -2  120.19   22.70
   5   8  -1  184.98   36.10
   5   8  -1  153.58   24.80
   5   8  -1  137.69   21.40
   5   8   0    0.00    8.30
   5   8   0    9.40    5.70
   5   8   1   10.20    8.40
   5   8   1   10.70    4.40
   5   8   1   20.30    8.30
   5   8   1   18.50    7.30
   5   8   2  221.88   20.30
   5   8   2  236.28   25.60
   5   8   3  552.94   58.39
   5   8   3  476.25   35.40
   5   8   3  479.85   27.10
   5   8   4  169.38   32.20
   5   8   4  188.28   20.30
   5   8   4  160.68   23.00
   5   8   5   42.20    8.80
   5   8   5   40.30    8.80
   5   8   5   20.20   11.20
   5   8   5   40.40   12.10
   5   8   6   98.29   14.50
   5   8   6  102.09   11.00
   5   8   6   75.09   17.10
   5   8   7    0.90    2.90
   5   8   7    5.80   12.20
   5   8   7   -3.70    6.00
   5   8   8    6.20    3.90
   5   8   8    7.20   11.20
   5   8   8   -1.10    7.20
   5   8   9   63.89   22.60
   5   8   9   54.79   16.60
   5   8  10  152.38   32.70
   5   8  10   94.79   22.20
   5   8  11  272.27   40.30
   5   8  12   28.90   14.50
   5   8  13  -40.10   17.80
   5   8  14   -1.90   15.10
   5   9  -4   20.90   20.00
   5   9  -4   23.30   14.10
   5   9  -3   26.60   18.40
   5   9  -3   55.59   19.30
   5   9  -2  -11.90   11.80
   5   9  -2   18.60   10.00
   5   9  -1  -10.00    9.00
   5   9  -1    1.40    6.00
   5   9   0   11.30    8.30
   5   9   1   85.89   17.90
   5   9   1   59.29   12.80
   5   9   2  121.19   16.20
   5   9   2  155.28   22.90
   5   9   3   91.09   16.70
   5   9   3   40.70   18.90
   5   9   3   70.79   11.50
   5   9   4   -3.30    5.10
   5   9   4    1.80    2.20
   5   9   5   -2.10    4.70
   5   9   5   -4.60    9.40
   5   9   6   39.30   10.00
   5   9   6   28.20    6.40
   5   9   6   61.89   22.60
   5   9   6   34.00   12.00
   5   9   7  305.87   13.30
   5   9   7  342.67   38.70
   5   9   8  535.65   40.40
   5   9   8  395.16   43.30
   5   9   9  143.49   21.80
   5   9   9  192.68   37.00
   5   9   9  117.29   23.70
   5   9  10   59.49   23.50
   5   9  10   23.90   11.30
   5   9  11   13.30    8.30
   5   9  12  144.19   31.00
   5   9  13  140.79   32.00
   5   9  14   34.80   21.00
   5  10  -3   21.50   14.60
   5  10  -3    1.50   12.30
   5  10  -2   68.39   21.70
   5  10  -1   84.29   21.30
   5  10   0   30.70   12.20
   5  10   1   18.30    7.60
   5  10   2    5.40    8.60
   5  10   3  133.59   22.40
   5  10   3  117.69   29.50
   5  10   4  163.68   35.30
   5  10   4  155.38   22.50
   5  10   5   29.90   10.00
   5  10   5   -2.20   15.50
   5  10   6   15.60    7.10
   5  10   6   13.90    7.90
   5  10   7    1.20    3.70
   5  10   7   -1.80   10.20
   5  10   7    1.60    5.30
   5  10   8    4.10    4.80
   5  10   8  -12.40   15.20
   5  10   8  -12.70    9.10
   5  10   9   62.09   15.30
   5  10   9   69.49   24.70
   5  10   9   47.10   15.90
   5  10  10   45.40   14.40
   5  10  10   32.40   17.30
   5  10  10   43.40   15.40
   5  10  11   86.69   22.60
   5  10  12   45.00   17.00
   5  10  13  -20.20   13.10
   5  11   0   51.09   17.50
   5  11   1   12.60    8.10
   5  11   2   17.00   10.30
   5  11   2  -18.70   14.50
   5  11   3    8.80    6.80
   5  11   3   -8.00   10.40
   5  11   4   17.80    9.60
   5  11   4    5.50   11.60
   5  11   5   19.20    7.80
   5  11   5    0.80    8.10
   5  11   6   15.50    7.20
   5  11   6    3.70   12.70
   5  11   7   48.00   13.00
   5  11   7   55.59   23.50
   5  11   7   17.20    7.30
   5  11   8   64.49   15.50
   5  11   8   82.49   29.60
   5  11   8   63.89   18.50
   5  11   9   63.39   15.30
   5  11   9   46.60   16.90
   5  11  10    4.50    4.20
   5  11  10   23.50   15.70
   5  11  10   22.70   12.20
   5  11  11    0.10    5.80
   5  11  11    6.30   10.10
   5  11  12   44.90   17.40
   5  12   1    7.80   12.70
   5  12   2   11.00   15.80
   5  12   3   53.99   18.10
   5  12   3   55.59   25.80
   5  12   4   57.59   16.20
   5  12   4  105.29   30.50
   5  12   5   59.29   16.20
   5  12   5   35.00   19.20
   5  12   6    2.10    5.20
   5  12   6    2.90   10.90
   5  12   7    2.80    5.80
   5  12   7    6.30   13.90
   5  12   8   69.19   17.00
   5  12   8   74.69   27.50
   5  12   8   35.80   15.10
   5  12   9  140.99   24.40
   5  12   9  135.59   36.80
   5  12   9  133.29   29.30
   5  12  10  125.09   23.90
   5  12  10  102.89   31.50
   5  12  10   98.09   25.10
   5  12  11   30.50   13.10
   5  12  11    1.60   14.40
   5  12  11   48.70   18.70
   5  12  12   35.20   14.20
   5  12  12   35.10   18.90
   5  13   4    2.30   14.80
   5  13   5    2.20    9.70
   5  13   6   20.30   13.40
   5  13   7   24.30   19.20
   5  13   8   45.20   23.40
   5  13   9   27.20   19.00
   5  13   9   29.40   14.90
   5  13  10  -15.50   15.80
   5  13  10   -9.60   10.10
   6 -11   1   -0.10   15.30
   6 -11   2    2.40   11.50
   6 -10  -6   88.09   28.80
   6 -10  -5  113.19   29.30
   6 -10  -4   49.90   19.90
   6 -10  -3   -3.50    8.90
   6 -10  -2    9.80   10.80
   6 -10  -1   56.09   25.40
   6 -10  -1   62.89   22.50
   6 -10   0   15.50   15.20
   6 -10   0   39.00   19.50
   6 -10   1   12.80   10.80
   6 -10   1   38.10   20.30
   6 -10   2   36.40   25.30
   6 -10   3    9.80   19.60
   6  -9  -7  117.89   30.60
   6  -9  -6   52.59   20.70
   6  -9  -5   27.10   14.50
   6  -9  -4   26.70   14.30
   6  -9  -3   74.29   22.40
   6  -9  -2   84.49   25.10
   6  -9  -2  114.09   28.00
   6  -9  -1   60.99   23.50
   6  -9  -1  107.09   26.80
   6  -9   0   49.20   21.00
   6  -9   0   47.90   18.50
   6  -9   1   29.10   18.30
   6  -9   1   36.40   16.10
   6  -9   2   -5.00    9.40
   6  -9   2   -4.70   10.20
   6  -9   3   20.00   15.80
   6  -9   3   58.19   24.30
   6  -9   4   74.19   30.10
   6  -9   5   43.50   24.70
   6  -8  -8   17.00   15.20
   6  -8  -8   -0.50    8.20
   6  -8  -7  -10.30   13.20
   6  -8  -6   41.20   16.90
   6  -8  -5  166.18   34.30
   6  -8  -4   83.89   22.40
   6  -8  -3   55.09   18.70
   6  -8  -3   51.69   18.60
   6  -8  -2    8.40   12.70
   6  -8  -2    2.90    6.30
   6  -8  -1   16.30    8.90
   6  -8  -1   23.80   12.70
   6  -8   0   22.00   16.20
   6  -8   0   36.70   16.50
   6  -8   1   82.59   25.80
   6  -8   1   76.19   21.60
   6  -8   2  126.59   30.80
   6  -8   2  145.89   31.10
   6  -8   3   73.39   22.20
   6  -8   3   66.39   21.50
   6  -8   4   21.30   16.30
   6  -8   4   21.60   13.30
   6  -8   5   12.30   14.60
   6  -8   5    4.70    8.80
   6  -8   6    4.80   17.40
   6  -8   6   30.10   20.20
   6  -8   7   -9.90   23.30
   6  -7  -9   23.60   19.00
   6  -7  -9   23.40   18.20
   6  -7  -8   73.59   30.30
   6  -7  -8   40.00   16.00
   6  -7  -7  163.48   40.60
   6  -7  -7  143.09   33.00
   6  -7  -6   25.80   12.20
   6  -7  -5   15.80    8.40
   6  -7  -4  142.09   28.70
   6  -7  -3  137.69   30.50
   6  -7  -3  108.49   12.50
   6  -7  -3  184.98   32.30
   6  -7  -2  163.28   34.80
   6  -7  -2  168.38   30.50
   6  -7  -1   92.89   25.60
   6  -7  -1   66.79   19.10
   6  -7   0   17.50   11.40
   6  -7   0    9.10    7.10
   6  -7   1    2.60    7.20
   6  -7   1    5.40    7.60
   6  -7   2   -7.50   11.30
   6  -7   2   26.60   10.60
   6  -7   3   34.80   15.90
   6  -7   3   55.09   18.10
   6  -7   4  118.19   29.40
   6  -7   4  122.09   27.10
   6  -7   5   53.69   22.60
   6  -7   5  112.59   27.40
   6  -7   6   22.70   13.80
   6  -7   6   -2.40    6.30
   6  -7   7  -28.70   23.70
   6  -7   7   15.40   15.10
   6  -7   8    0.40   15.70
   6  -6  -9  -50.49   25.70
   6  -6  -9  -26.20   15.20
   6  -6  -8    8.10    8.30
   6  -6  -8   -4.40    8.60
   6  -6  -7   -7.70    9.70
   6  -6  -7   -2.90    7.70
   6  -6  -6   78.29   22.20
   6  -6  -5  145.89   29.20
   6  -6  -5  135.79   23.30
   6  -6  -4    5.80   10.60
   6  -6  -4   -4.60    9.20
   6  -6  -4   13.40    7.00
   6  -6  -3   -2.70   13.20
   6  -6  -3    3.10    3.10
   6  -6  -3    6.50    5.80
   6  -6  -3    8.20    7.70
   6  -6  -2   30.70   15.00
   6  -6  -2   19.00    4.40
   6  -6  -2   29.60   12.00
   6  -6  -1  213.98   37.90
   6  -6  -1  154.08   28.00
   6  -6   0  347.47   47.00
   6  -6   0  328.27   39.80
   6  -6   1  211.08   36.20
   6  -6   1  214.58   32.90
   6  -6   2  127.19   27.90
   6  -6   2  160.88   28.20
   6  -6   3  123.49   28.50
   6  -6   3   87.79   21.40
   6  -6   4  -17.00   11.20
   6  -6   4   12.60    8.70
   6  -6   5  114.39   28.70
   6  -6   5   81.99   21.10
   6  -6   6  116.49   31.10
   6  -6   6  118.09   26.00
   6  -6   7   -5.30   12.60
   6  -6   7   88.79   29.80
   6  -6   8  -29.40   22.00
   6  -6   8   23.70   19.70
   6  -6   9   -0.10   16.30
   6  -6   9   16.90   20.40
   6  -5  -9   18.40   20.30
   6  -5  -9   61.99   24.10
   6  -5  -8   58.99   26.40
   6  -5  -8   52.39   22.20
   6  -5  -7  166.68   40.20
   6  -5  -7  181.18   34.40
   6  -5  -6  184.58   25.50
   6  -5  -6  234.38   37.30
   6  -5  -5   66.19   19.20
   6  -5  -5   53.89   13.20
   6  -5  -4  128.59   28.10
   6  -5  -4  154.38   28.10
   6  -5  -4  152.98   22.30
   6  -5  -3  117.89   25.50
   6  -5  -3  110.89   23.40
   6  -5  -3  162.58   23.30
   6  -5  -2  234.48   37.50
   6  -5  -2  187.18   24.80
   6  -5  -2  182.18   29.10
   6  -5  -2  164.28   27.40
   6  -5  -1  145.09   29.40
   6  -5  -1  123.49   20.50
   6  -5  -1  163.18   26.70
   6  -5  -1  141.79   25.20
   6  -5   0   42.80   16.80
   6  -5   0   15.80    8.70
   6  -5   0   17.50    8.10
   6  -5   1   -9.40   12.30
   6  -5   1    2.20    4.70
   6  -5   1    2.90    5.40
   6  -5   2   -4.40    9.90
   6  -5   2   14.40    9.00
   6  -5   3   95.69   25.50
   6  -5   3   69.09   17.70
   6  -5   4  237.68   39.60
   6  -5   4  226.58   33.00
   6  -5   5  322.17   48.30
   6  -5   5  342.27   40.50
   6  -5   6   82.49   25.00
   6  -5   6   76.59   19.90
   6  -5   7   22.60   15.80
   6  -5   8   22.00   19.90
   6  -5   8   19.10   14.60
   6  -5   9    1.50   14.80
   6  -5   9   72.19   28.00
   6  -5  10   16.70   21.10
   6  -4  -9   69.29   28.70
   6  -4  -9   37.20   20.10
   6  -4  -8   -2.30   11.60
   6  -4  -8   -0.90    6.60
   6  -4  -7    6.60    9.60
   6  -4  -7    9.90    8.50
   6  -4  -6  133.69   34.60
   6  -4  -6  153.38   21.50
   6  -4  -6  201.68   34.50
   6  -4  -5  214.18   24.60
   6  -4  -5  273.67   38.80
   6  -4  -4  286.37   41.00
   6  -4  -4  313.37   38.30
   6  -4  -4  270.97   27.50
   6  -4  -4  269.07   36.30
   6  -4  -3   32.30   15.70
   6  -4  -3   36.90   12.80
   6  -4  -3   18.10    9.20
   6  -4  -3   28.70    9.40
   6  -4  -2    0.20    4.00
   6  -4  -2    2.30    3.80
   6  -4  -1   -1.50    7.60
   6  -4  -1    9.20   12.80
   6  -4  -1    1.20    5.20
   6  -4  -1   -1.90    7.00
   6  -4   0  209.68   34.10
   6  -4   0  160.28   13.00
   6  -4   0  191.78   27.40
   6  -4   0  180.68   25.70
   6  -4   1  250.17   37.00
   6  -4   1  177.98   26.50
   6  -4   1  191.78   26.90
   6  -4   2  414.56   49.70
   6  -4   2  379.26   38.80
   6  -4   3  624.14   60.49
   6  -4   3  549.74   46.90
   6  -4   3  695.93   64.19
   6  -4   4  172.98   33.00
   6  -4   4  132.99   28.90
   6  -4   4  147.39   24.40
   6  -4   5   23.30    9.30
   6  -4   5   36.60   13.40
   6  -4   6  242.98   40.20
   6  -4   6  211.88   31.80
   6  -4   7  210.68   37.00
   6  -4   8  113.99   35.00
   6  -4   8  128.89   30.60
   6  -4   9  -38.80   21.70
   6  -4   9    5.40   12.20
   6  -4  10   -9.10   12.10
   6  -4  11    1.00   13.90
   6  -3  -9   25.50   23.80
   6  -3  -8   14.40   21.30
   6  -3  -8   30.20   14.90
   6  -3  -7  -19.00   15.60
   6  -3  -7   21.10   12.00
   6  -3  -6  218.48   42.80
   6  -3  -6  123.59   16.90
   6  -3  -6  178.38   31.90
   6  -3  -5   17.40   13.50
   6  -3  -5   15.00    9.60
   6  -3  -5   26.30    8.00
   6  -3  -4   87.69   22.30
   6  -3  -4   73.49   24.50
   6  -3  -4  104.49   21.30
   6  -3  -4   81.49   19.80
   6  -3  -4   87.09   14.00
   6  -3  -3  111.19   24.80
   6  -3  -3  125.99   23.30
   6  -3  -3  166.08   25.60
   6  -3  -3  178.08   19.60
   6  -3  -2  253.17   36.70
   6  -3  -2  271.37   24.70
   6  -3  -2  230.98   30.20
   6  -3  -2  248.48   29.60
   6  -3  -1  263.47   32.00
   6  -3  -1  222.38   34.70
   6  -3  -1  251.87   42.40
   6  -3  -1  255.97   31.70
   6  -3  -1  212.48   22.40
   6  -3  -1  238.88   29.90
   6  -3  -1  252.57   28.60
   6  -3   0   77.19   21.00
   6  -3   0  106.29   20.50
   6  -3   0   70.69   14.40
   6  -3   0   78.49   17.10
   6  -3   0   81.89   17.20
   6  -3   1   11.40    6.30
   6  -3   1   13.80   11.90
   6  -3   1    3.70    3.90
   6  -3   1    7.60    3.70
   6  -3   1    4.90    4.00
   6  -3   2   60.99   15.90
   6  -3   2   67.69   19.40
   6  -3   2   76.49   15.80
   6  -3   3   -1.00    8.40
   6  -3   3    4.40    6.10
   6  -3   4  375.36   46.40
   6  -3   4  289.87   31.90
   6  -3   4  310.57   40.70
   6  -3   5  310.77   42.80
   6  -3   5  307.87   42.00
   6  -3   5  258.67   31.40
   6  -3   6   58.39   20.40
   6  -3   6   40.20   14.80
   6  -3   6   48.90   13.90
   6  -3   7   -0.30   10.00
   6  -3   8  -12.70   19.10
   6  -3   9  -11.50   12.70
   6  -3   9   14.00    7.90
   6  -3  10   54.69   24.70
   6  -3  10   18.80   10.50
   6  -3  10   46.90   22.10
   6  -3  11   -1.50    8.80
   6  -3  12    1.20   15.30
   6  -2  -9    7.70   10.10
   6  -2  -8  -15.40   16.30
   6  -2  -7   16.40    7.60
   6  -2  -6   84.69   28.40
   6  -2  -6   98.19   23.80
   6  -2  -5  314.37   50.99
   6  -2  -5  297.67   37.00
   6  -2  -5  275.47   20.40
   6  -2  -5  324.17   40.60
   6  -2  -4  435.56   55.39
   6  -2  -4  345.87   43.20
   6  -2  -4  342.97   23.50
   6  -2  -4  390.46   42.00
   6  -2  -4  393.86   40.40
   6  -2  -3   53.29   17.80
   6  -2  -3   75.99   22.70
   6  -2  -3   77.69   16.80
   6  -2  -3   62.39    9.80
   6  -2  -3   53.59   15.20
   6  -2  -2  123.89   25.90
   6  -2  -2  120.09   19.20
   6  -2  -2  110.79   19.90
   6  -2  -2  148.69   16.00
   6  -2  -1  191.58   26.20
   6  -2  -1  131.79   26.10
   6  -2  -1  155.78   34.50
   6  -2  -1  161.28   24.10
   6  -2  -1  165.28   17.60
   6  -2  -1  164.28   23.10
   6  -2  -1  157.58   21.00
   6  -2   0  213.38   28.10
   6  -2   0  219.88   34.30
   6  -2   0  243.28   39.90
   6  -2   0  233.58   28.30
   6  -2   0  237.18   27.50
   6  -2   0  187.78   22.20
   6  -2   1  219.58   28.50
   6  -2   1  224.68   33.00
   6  -2   1  180.78   23.20
   6  -2   1  208.18   26.20
   6  -2   1  180.98   21.30
   6  -2   2   61.89   14.90
   6  -2   2   64.59   17.80
   6  -2   2   55.19   10.90
   6  -2   2   63.39   13.60
   6  -2   3  125.09   21.20
   6  -2   3  111.79   25.00
   6  -2   3  103.09   13.60
   6  -2   3  102.99   17.20
   6  -2   4   74.69   17.80
   6  -2   4   82.69   17.80
   6  -2   4   92.69   22.40
   6  -2   4   56.39   12.90
   6  -2   5    8.60    5.00
   6  -2   5    2.80   10.90
   6  -2   5    3.10    5.70
   6  -2   6  572.74   59.29
   6  -2   6  540.35   44.40
   6  -2   6  523.55   52.69
   6  -2   7  333.17   44.40
   6  -2   7  432.26   53.89
   6  -2   8  234.78   41.40
   6  -2   8  339.77   49.70
   6  -2   9    4.70    8.00
   6  -2   9   53.89   22.10
   6  -2  10   12.90   15.90
   6  -2  10    1.40   13.80
   6  -2  11    9.60    9.70
   6  -2  12   14.70   15.10
   6  -2  13   20.50   19.10
   6  -1  -9   21.20   17.80
   6  -1  -8  140.09   42.60
   6  -1  -7    8.80   13.70
   6  -1  -6   34.50   17.40
   6  -1  -5   -4.10   16.40
   6  -1  -5    5.40    7.00
   6  -1  -4   10.80   11.10
   6  -1  -4   -0.90    6.70
   6  -1  -4    3.20    5.00
   6  -1  -4   18.20   10.10
   6  -1  -3  326.17   46.10
   6  -1  -3  298.47   38.50
   6  -1  -3  295.37   15.60
   6  -1  -3  347.47   36.90
   6  -1  -3  341.07   33.80
   6  -1  -2  223.78   28.70
   6  -1  -2  255.57   33.90
   6  -1  -2  256.97   44.60
   6  -1  -2  270.97   37.90
   6  -1  -2  238.28   30.20
   6  -1  -2  244.88   16.40
   6  -1  -2  248.38   26.80
   6  -1  -2  260.47   30.30
   6  -1  -1  126.19   25.20
   6  -1  -1  134.89   21.30
   6  -1  -1  113.89   28.10
   6  -1  -1  140.79   26.40
   6  -1  -1  130.99   21.70
   6  -1  -1  127.29   17.60
   6  -1  -1  129.99   13.20
   6  -1  -1  128.39   19.50
   6  -1   0  271.87   30.10
   6  -1   0  228.48   32.80
   6  -1   0  284.77   42.40
   6  -1   0  260.77   29.20
   6  -1   0  239.88   25.90
   6  -1   0  227.78   22.10
   6  -1   1   -5.60   10.60
   6  -1   1    1.90    2.90
   6  -1   1   -0.20    4.50
   6  -1   1   -4.00    7.90
   6  -1   1    0.70    3.30
   6  -1   1   -6.30    6.00
   6  -1   2  189.28   25.20
   6  -1   2  212.98   32.10
   6  -1   2  134.79   19.00
   6  -1   2  137.09   18.60
   6  -1   2  168.58   22.60
   6  -1   2  212.98   34.90
   6  -1   3  290.87   31.80
   6  -1   3  266.07   37.90
   6  -1   3  245.18   24.80
   6  -1   3  240.68   24.50
   6  -1   4  926.81   58.69
   6  -1   4  888.81   49.00
   6  -1   4  894.51   48.50
   6  -1   4  806.02   54.99
   6  -1   5  491.85   43.60
   6  -1   5  592.54   56.99
   6  -1   5  455.55   41.90
   6  -1   5  442.36   35.20
   6  -1   6   99.19   20.40
   6  -1   6  125.49   19.20
   6  -1   7   74.29   18.00
   6  -1   8  134.69   28.30
   6  -1   8  160.68   32.30
   6  -1   9  149.09   32.80
   6  -1   9  206.48   33.90
   6  -1   9  219.18   39.90
   6  -1  10   95.49   24.50
   6  -1  10  121.19   32.30
   6  -1  11   18.60   15.80
   6  -1  12  -31.40   19.10
   6   0  -9   27.30   22.40
   6   0  -8    2.30   14.80
   6   0  -7  -15.50   14.70
   6   0  -6   61.79   24.90
   6   0  -5  449.86   64.49
   6   0  -5  363.76   40.10
   6   0  -4  630.04   73.09
   6   0  -4  738.03   58.99
   6   0  -4  679.93   51.49
   6   0  -3  152.58   33.50
   6   0  -3  190.68   29.30
   6   0  -3  165.18   23.10
   6   0  -2    2.00    6.80
   6   0  -2   -2.80    5.40
   6   0  -2    4.60    3.60
   6   0  -2    5.70   10.20
   6   0  -2    7.90    9.70
   6   0  -2    0.90    5.10
   6   0  -2   -4.90    5.30
   6   0  -1  137.59   26.00
   6   0  -1  151.28   21.80
   6   0  -1  139.39   33.10
   6   0  -1  162.68   28.90
   6   0  -1  161.48   23.90
   6   0  -1  179.88   23.30
   6   0  -1  155.18   10.30
   6   0  -1  141.39   17.50
   6   0  -1  136.29   10.40
   6   0  -1  150.98   20.80
   6   0   0  333.27   32.30
   6   0   0  319.17   36.60
   6   0   0  366.86   38.80
   6   0   0  322.87   46.30
   6   0   0  332.37   32.90
   6   0   0  341.17   30.60
   6   0   0  338.27   29.30
   6   0   0  319.47   23.90
   6   0   1  541.75   41.30
   6   0   1  510.45   46.90
   6   0   1  562.14   58.09
   6   0   1  528.85   35.10
   6   0   1  547.55   41.00
   6   0   1  442.76   33.40
   6   0   1  484.95   27.70
   6   0   2  275.37   29.40
   6   0   2  246.68   32.40
   6   0   2  290.17   40.00
   6   0   2  257.27   29.30
   6   0   2  278.57   28.10
   6   0   2  259.07   23.20
   6   0   2  254.57   23.00
   6   0   3   74.89   15.80
   6   0   3   76.39   22.90
   6   0   3   93.19   22.40
   6   0   3   92.49   16.90
   6   0   3   73.49   10.90
   6   0   3   71.19   13.80
   6   0   3   85.69   12.80
   6   0   4  391.16   36.60
   6   0   4  418.06   44.50
   6   0   4  403.66   44.50
   6   0   4  347.17   27.00
   6   0   4  397.96   35.60
   6   0   4  374.56   23.60
   6   0   5    3.00    5.40
   6   0   5   -1.70    4.00
   6   0   5    6.30    5.90
   6   0   5    5.20    2.00
   6   0   5    3.70    2.80
   6   0   6  407.96   37.50
   6   0   6  482.05   24.10
   6   0   6  404.66   44.20
   6   0   7  376.26   39.30
   6   0   7  484.45   24.50
   6   0   7  463.05   50.19
   6   0   8  412.16   45.80
   6   0   8  499.45   55.19
   6   0   9  108.49   25.50
   6   0   9  135.79   24.70
   6   0   9  152.18   15.30
   6   0   9  153.58   32.30
   6   0  10   13.50   10.20
   6   0  10   12.80   11.90
   6   0  10   17.10    6.00
   6   0  10    7.50    9.60
   6   0  11   79.69   26.10
   6   0  12   47.30   21.30
   6   1  -8   74.79   32.70
   6   1  -7   27.40   19.20
   6   1  -6  -14.30   14.00
   6   1  -5   -0.10    9.80
   6   1  -5   10.30    8.80
   6   1  -4   44.90   22.20
   6   1  -4   21.40   10.40
   6   1  -3  319.47   48.80
   6   1  -3  355.66   38.60
   6   1  -3  305.67   30.20
   6   1  -3  353.66   33.00
   6   1  -2   67.29   13.10
   6   1  -2   65.49   17.10
   6   1  -2   61.59   13.40
   6   1  -2   60.89   20.30
   6   1  -2   69.39   15.70
   6   1  -1   51.39   14.80
   6   1  -1   38.70   10.50
   6   1  -1   45.80    9.60
   6   1  -1   31.90   13.10
   6   1  -1   72.59   25.70
   6   1  -1   50.79   13.10
   6   1  -1   58.79   14.40
   6   1  -1   47.10   11.60
   6   1   0  168.58   27.40
   6   1   0  176.08   22.20
   6   1   0  209.48   38.00
   6   1   0  172.28   28.30
   6   1   0  160.38   23.40
   6   1   0  203.98   24.40
   6   1   0  180.18   16.20
   6   1   0  184.28   11.20
   6   1   0  195.88   21.30
   6   1   1   90.49   15.50
   6   1   1   95.89   20.80
   6   1   1   92.59   22.60
   6   1   1  102.89   18.90
   6   1   1  117.89   18.50
   6   1   1  109.89   16.70
   6   1   1   94.89    9.60
   6   1   1   98.09   12.40
   6   1   1  104.99   14.40
   6   1   2   -0.20    3.20
   6   1   2   -5.90    9.40
   6   1   2    7.40    5.80
   6   1   2    1.70    4.40
   6   1   2    0.40    2.30
   6   1   2   -0.40    4.10
   6   1   2    5.00    4.10
   6   1   2    4.40    3.40
   6   1   3   50.79   11.90
   6   1   3   40.80   13.60
   6   1   3   53.19   16.20
   6   1   3   39.90   10.70
   6   1   3   41.70    9.30
   6   1   3   53.69   11.70
   6   1   3   46.30    8.10
   6   1   3   30.80    9.20
   6   1   4  182.68   24.70
   6   1   4  239.18   33.60
   6   1   4  184.18   17.10
   6   1   4  192.08   26.40
   6   1   4  203.28   19.50
   6   1   4  172.28   23.80
   6   1   5  797.82   53.49
   6   1   5  951.90   65.59
   6   1   5  729.43   40.80
   6   1   5  781.22   38.50
   6   1   5  759.02   53.69
   6   1   5  773.42   39.00
   6   1   5  743.43   54.49
   6   1   6  753.02   54.99
   6   1   6  865.81   60.49
   6   1   6  729.43   44.30
   6   1   6  784.42   38.70
   6   1   6  823.12   57.29
   6   1   6  731.83   57.69
   6   1   7    8.60    9.00
   6   1   7   -0.10    4.90
   6   1   7   -9.90   10.20
   6   1   8   23.10   11.40
   6   1   8   53.39   14.90
   6   1   8   48.30   14.90
   6   1   9   80.39   18.00
   6   1   9  105.49   23.30
   6   1   9  122.59   19.20
   6   1   9  138.39   29.20
   6   1  10   42.10   12.80
   6   1  10   68.19   20.60
   6   1  10   70.39   23.40
   6   1  11   29.30   16.60
   6   1  12   -7.70   13.40
   6   1  13   10.40   11.00
   6   2  -8   31.30   21.20
   6   2  -7   12.70   14.10
   6   2  -6   34.20   18.90
   6   2  -5   70.49   26.10
   6   2  -5   23.50    7.90
   6   2  -4  196.48   41.20
   6   2  -4  183.68   26.50
   6   2  -4  159.48   20.10
   6   2  -3  271.17   46.00
   6   2  -3  304.77   33.90
   6   2  -3  238.38   24.90
   6   2  -3  269.57   29.20
   6   2  -2   50.69   18.50
   6   2  -2   37.10   10.10
   6   2  -2   33.90    9.50
   6   2  -2   30.40   11.50
   6   2  -1  130.99   22.20
   6   2  -1  110.59   16.60
   6   2  -1  154.38   29.60
   6   2  -1  141.79   35.90
   6   2  -1  138.69   23.10
   6   2  -1  127.39   20.90
   6   2  -1  117.99   15.20
   6   2   0  181.38   21.40
   6   2   0  215.98   29.10
   6   2   0  144.29   27.00
   6   2   0  176.78   38.10
   6   2   0  203.08   26.00
   6   2   0  212.38   26.30
   6   2   0  202.38   21.10
   6   2   0  194.68   15.90
   6   2   1  367.86   31.00
   6   2   1  409.86   39.70
   6   2   1  393.26   40.60
   6   2   1  385.26   52.09
   6   2   1  436.06   36.20
   6   2   1  416.06   34.90
   6   2   1  421.06   20.40
   6   2   1  383.46   15.70
   6   2   1  392.36   26.60
   6   2   2  291.77   28.00
   6   2   2  314.57   35.10
   6   2   2  272.47   29.50
   6   2   2  364.16   48.00
   6   2   2  309.67   28.50
   6   2   2  318.97   21.40
   6   2   2  290.27   27.80
   6   2   2  292.37   22.50
   6   2   3    9.10    4.10
   6   2   3   18.30    8.70
   6   2   3    4.60    3.50
   6   2   3    4.90    6.10
   6   2   3    2.70    2.80
   6   2   3    7.10    5.00
   6   2   3    8.30    4.50
   6   2   3    8.60    3.30
   6   2   4   20.60    7.90
   6   2   4   21.90   10.70
   6   2   4   18.20    5.20
   6   2   4   25.30    7.40
   6   2   4   22.80   10.80
   6   2   4   20.60    6.70
   6   2   4   15.60    4.20
   6   2   4   15.40    7.50
   6   2   5   36.40   10.50
   6   2   5   35.60    6.30
   6   2   5   24.30   10.10
   6   2   5   33.10    8.70
   6   2   5   49.40   14.90
   6   2   5   30.50   10.80
   6   2   6  139.89   23.30
   6   2   6  138.99   23.90
   6   2   6  124.19   13.60
   6   2   6  136.89   17.30
   6   2   6  137.19   24.40
   6   2   6  141.99   24.30
   6   2   7  528.45   34.90
   6   2   7  609.14   48.50
   6   2   7  637.74   54.29
   6   2   7  582.54   53.39
   6   2   8  225.58   25.80
   6   2   8  199.98   26.00
   6   2   8  216.08   34.70
   6   2   9  108.69   20.00
   6   2   9  147.89   20.10
   6   2   9  143.79   28.70
   6   2  10   19.30    4.50
   6   2  10   20.40   10.30
   6   2  10   26.40   13.20
   6   2  11    5.80    6.60
   6   2  12   -8.80   10.90
   6   2  13  -26.10   16.40
   6   3  -7   64.99   28.70
   6   3  -6   32.10   20.40
   6   3  -5    5.70   18.30
   6   3  -4   68.19   16.50
   6   3  -4   76.49   12.30
   6   3  -4   72.59   25.40
   6   3  -3  350.96   33.70
   6   3  -3  333.27   33.40
   6   3  -3  306.77   25.50
   6   3  -3  322.17   51.39
   6   3  -2  406.36   30.00
   6   3  -2  408.66   33.50
   6   3  -2  449.86   39.30
   6   3  -2  428.86   53.89
   6   3  -1   73.29   12.30
   6   3  -1   63.29   11.70
   6   3  -1  108.99   19.40
   6   3  -1  101.39   20.70
   6   3  -1   79.69   22.20
   6   3   0    7.40    3.50
   6   3   0   -1.20    4.10
   6   3   0   -3.00    7.00
   6   3   0    1.10   12.10
   6   3   0    1.10    4.90
   6   3   0    5.70    5.40
   6   3   0    0.10    3.60
   6   3   1   -5.10    7.50
   6   3   1   -0.90    4.30
   6   3   1   15.10   11.80
   6   3   1    1.30    4.70
   6   3   1   -1.10    4.80
   6   3   1    0.20    3.60
   6   3   1    2.20    4.00
   6   3   1   -1.10    1.90
   6   3   2   87.69   17.50
   6   3   2   73.09   13.70
   6   3   2   94.09   17.00
   6   3   2  101.49   29.00
   6   3   2  118.29   17.90
   6   3   2   99.29   17.00
   6   3   2  100.49   11.60
   6   3   2   95.19   10.30
   6   3   3  149.88   20.10
   6   3   3  147.99   17.60
   6   3   3  131.79   30.20
   6   3   3  136.19   19.70
   6   3   3  158.58   26.40
   6   3   3  148.69    9.50
   6   3   3  130.19   17.50
   6   3   3  141.59   16.70
   6   3   4   68.39   14.40
   6   3   4   63.69    7.00
   6   3   4   98.79   24.20
   6   3   4   79.29   14.40
   6   3   4   46.80   14.60
   6   3   4   70.19   12.20
   6   3   4   68.09   13.30
   6   3   5  609.94   46.50
   6   3   5  635.44   57.99
   6   3   5  561.94   38.90
   6   3   5  629.04   53.49
   6   3   5  512.95   32.00
   6   3   5  575.64   43.60
   6   3   6  248.08   31.20
   6   3   6  266.57   34.80
   6   3   6  233.08   24.90
   6   3   6  255.37   34.80
   6   3   6  227.68   29.70
   6   3   7   33.20   11.40
   6   3   7   10.40    8.80
   6   3   7    7.90    6.70
   6   3   8  502.15   41.70
   6   3   8  498.45   51.39
   6   3   9  612.44   37.50
   6   3   9  677.93   63.99
   6   3  10  349.67   31.80
   6   3  10  488.95   56.59
   6   3  11  200.78   38.10
   6   3  12    3.90    9.10
   6   3  13   22.10   14.20
   6   4  -7   -4.10   10.20
   6   4  -6   21.40   14.20
   6   4  -5    1.60   11.20
   6   4  -4   83.29   20.00
   6   4  -4   90.59   28.80
   6   4  -3   78.09   16.90
   6   4  -3   84.99   11.60
   6   4  -3   98.39   27.50
   6   4  -2   15.80    5.30
   6   4  -2   10.00    5.30
   6   4  -2    8.40    7.40
   6   4  -2    7.80    6.40
   6   4  -1   49.00   10.80
   6   4  -1   50.39   12.60
   6   4  -1   38.70    8.60
   6   4  -1   50.89   17.70
   6   4   0  190.08   19.70
   6   4   0  189.08   17.20
   6   4   0  187.08   24.60
   6   4   0  202.58   32.30
   6   4   0  195.78   27.30
   6   4   1  380.46   29.30
   6   4   1  488.85   40.30
   6   4   1  449.26   43.10
   6   4   1  437.26   64.39
   6   4   1  459.65   40.20
   6   4   1  484.35   41.60
   6   4   1  431.66   18.30
   6   4   1  442.46   18.80
   6   4   2  709.93   42.90
   6   4   2  776.22   53.49
   6   4   2  755.12   48.60
   6   4   2  666.73   77.39
   6   4   2  690.63   46.10
   6   4   2  831.72   53.39
   6   4   2  785.72   34.70
   6   4   2  737.33   28.00
   6   4   3  246.88   26.20
   6   4   3  278.27   47.00
   6   4   3  280.27   23.00
   6   4   3  298.07   30.80
   6   4   3  249.97   24.70
   6   4   3  320.67   24.50
   6   4   4    5.60    4.20
   6   4   4    2.70    7.40
   6   4   4   17.50    7.40
   6   4   4   20.70   11.70
   6   4   4   17.70    6.40
   6   4   4    6.50    5.00
   6   4   5    2.70    5.00
   6   4   5   -5.60   11.00
   6   4   5    3.30    4.30
   6   4   5    2.50    6.60
   6   4   5    0.00    2.20
   6   4   5   -3.70    5.00
   6   4   6  148.79   29.10
   6   4   6  162.08   22.40
   6   4   6  173.38   29.50
   6   4   6  126.99   21.20
   6   4   7  789.22   56.29
   6   4   7  877.81   67.89
   6   4   7  848.22   60.69
   6   4   8  105.39   25.00
   6   4   8   91.39   20.70
   6   4   9   11.60    9.90
   6   4  10   -6.80   11.60
   6   4  11  -13.40   14.70
   6   4  12   45.80   19.10
   6   4  13   19.00   16.00
   6   4  14   67.39   26.50
   6   5  -6   24.70   17.70
   6   5  -5   10.90    9.60
   6   5  -4    5.20    9.70
   6   5  -3   39.70   16.50
   6   5  -3   57.89   15.00
   6   5  -2  334.27   19.50
   6   5  -2  341.77   33.50
   6   5  -1   71.99   21.60
   6   5  -1  108.79   16.50
   6   5  -1   78.49   14.20
   6   5  -1   86.29   11.20
   6   5   0   -0.50    5.00
   6   5   0    6.70    3.30
   6   5   0    4.30    3.90
   6   5   0    8.10    4.00
   6   5   0   10.10    8.30
   6   5   0    3.70    6.40
   6   5   0    2.90    3.40
   6   5   1    7.30    2.60
   6   5   1   -4.90    6.60
   6   5   1   13.00    3.50
   6   5   1   14.30    5.80
   6   5   1   17.20    8.50
   6   5   1   12.40    7.40
   6   5   1   18.60    5.20
   6   5   2    4.50    6.00
   6   5   2   11.30    5.30
   6   5   2    6.30    5.70
   6   5   2   -0.40    8.40
   6   5   2   12.10    6.60
   6   5   2   24.40   10.60
   6   5   2   10.70    3.10
   6   5   2   10.10    3.80
   6   5   2   13.50    3.10
   6   5   3   58.79   12.90
   6   5   3   67.09   11.60
   6   5   3   64.69   23.80
   6   5   3   57.59   14.10
   6   5   3   47.70   11.10
   6   5   3   53.69   10.40
   6   5   4  130.09   30.40
   6   5   4  133.79   21.50
   6   5   4  102.89   24.60
   6   5   4  120.09   16.00
   6   5   4  112.79   16.70
   6   5   5  273.37   42.80
   6   5   5  304.37   32.30
   6   5   5  263.77   38.00
   6   5   5  216.68   19.50
   6   5   5  230.38   25.50
   6   5   6  411.56   47.30
   6   5   6  471.35   40.70
   6   5   6  462.45   50.69
   6   5   6  440.16   25.10
   6   5   6  384.86   36.10
   6   5   7  450.15   41.10
   6   5   7  423.86   48.60
   6   5   7  380.56   38.70
   6   5   8    1.40    8.40
   6   5   8   20.40   10.30
   6   5   9  133.99   29.10
   6   5   9  164.58   29.40
   6   5  10  292.77   41.60
   6   5  11  241.68   40.40
   6   5  12   72.89   22.90
   6   5  13    3.80    7.40
   6   5  14   -6.00   11.30
   6   6  -5   13.60   16.00
   6   6  -4    5.90    9.80
   6   6  -3   -2.90   13.30
   6   6  -2   -4.80    5.90
   6   6  -2    4.60    5.20
   6   6  -1   48.10   17.80
   6   6  -1   50.99    9.60
   6   6  -1   59.39   13.10
   6   6  -1   57.49   12.90
   6   6   0   74.59   19.70
   6   6   0   72.89   13.90
   6   6   0   80.69   13.00
   6   6   0   61.49   11.60
   6   6   1   33.00    9.90
   6   6   1   51.79    9.20
   6   6   1   44.50   14.30
   6   6   1   15.80    8.20
   6   6   1   39.40    7.90
   6   6   2  154.08   40.20
   6   6   2  179.58   24.70
   6   6   2  181.08   13.00
   6   6   2  157.18   23.40
   6   6   2  179.88   13.80
   6   6   3  218.48   44.30
   6   6   3  306.57   28.10
   6   6   3  203.58   24.60
   6   6   3  237.18   23.10
   6   6   4   19.50    8.00
   6   6   4   10.50   10.20
   6   6   4   25.20    7.60
   6   6   4   17.80    6.80
   6   6   5   13.80   11.80
   6   6   5   31.00   14.60
   6   6   5   54.79   15.00
   6   6   5   28.00    7.20
   6   6   5   25.00    8.80
   6   6   6  209.28   33.40
   6   6   6  191.88   28.40
   6   6   6  160.58   32.00
   6   6   6  171.58   15.20
   6   6   6  164.58   23.50
   6   6   7  375.56   38.60
   6   6   7  313.07   43.80
   6   6   7  355.36   36.60
   6   6   8  339.57   45.60
   6   6   8  273.27   34.60
   6   6   9   28.00   14.60
   6   6   9    8.30    6.80
   6   6  10   -2.00   11.60
   6   6  11    9.80    6.70
   6   6  12   57.69   20.90
   6   6  13    1.10    7.80
   6   6  14   -6.60   11.70
   6   7  -5   18.90   18.60
   6   7  -5   -3.50    7.00
   6   7  -4   13.90   16.50
   6   7  -4   11.60    6.00
   6   7  -3   21.80   17.00
   6   7  -3   42.70   13.50
   6   7  -2  160.68   35.10
   6   7  -2  151.58   24.70
   6   7  -1  106.79   26.80
   6   7  -1  110.49   18.90
   6   7  -1   82.49   16.00
   6   7   0   11.40    7.70
   6   7   0   11.00    6.50
   6   7   0    7.80    4.30
   6   7   0    0.90    4.00
   6   7   1   22.10   11.50
   6   7   1   25.30    7.60
   6   7   1   29.50    8.80
   6   7   1   16.40    5.80
   6   7   2   95.39   17.00
   6   7   2  110.99   20.90
   6   7   2   82.09   17.20
   6   7   2   87.39   10.10
   6   7   2  100.19   12.80
   6   7   3  220.18   26.80
   6   7   3  223.48   16.60
   6   7   4  157.18   35.40
   6   7   4  150.28   32.30
   6   7   4  197.48   23.10
   6   7   4  188.48   23.10
   6   7   4  212.18   13.40
   6   7   5   19.00    8.50
   6   7   5   37.70    8.60
   6   7   5   26.40    9.40
   6   7   6   66.39   19.20
   6   7   6   55.29   20.20
   6   7   6   46.80    8.00
   6   7   6   49.50   12.90
   6   7   7   28.80   15.50
   6   7   7   17.50    9.80
   6   7   8  212.88   38.10
   6   7   8  122.59   23.10
   6   7   9  142.69   30.70
   6   7   9  104.89   22.40
   6   7  10  104.09   28.20
   6   7  10  128.09   26.60
   6   7  11   87.59   23.00
   6   7  12   25.70   16.00
   6   7  13  -12.60   11.30
   6   7  14   -5.90   14.40
   6   8  -4    2.50    8.40
   6   8  -3   14.90   15.50
   6   8  -3  -23.00   11.40
   6   8  -2   -1.20   10.10
   6   8  -2    2.10    7.30
   6   8  -1   95.69   27.70
   6   8  -1   80.49   18.50
   6   8   0   94.99   25.10
   6   8   0  103.89   18.90
   6   8   1   46.70   17.10
   6   8   1   48.90   11.70
   6   8   1   27.60    7.70
   6   8   2   51.99   11.80
   6   8   2   58.39   11.70
   6   8   2   65.09    9.80
   6   8   3   87.29   12.50
   6   8   3   80.79   17.00
   6   8   3   96.49   26.60
   6   8   3   80.29    7.80
   6   8   4    4.40    3.80
   6   8   4   15.20    6.80
   6   8   4    3.80   10.30
   6   8   4    1.60    5.20
   6   8   5   -3.20    4.70
   6   8   5    2.90    6.80
   6   8   5   -0.50    3.20
   6   8   5   14.40    9.70
   6   8   5   -1.60    4.60
   6   8   6   50.79    8.60
   6   8   6   66.49   22.30
   6   8   6   60.49    9.70
   6   8   6   55.29   15.20
   6   8   7  156.28    9.70
   6   8   7  150.68   24.70
   6   8   8  617.64   70.59
   6   8   8  488.15   46.60
   6   8   9   48.90   18.10
   6   8   9   27.40   10.70
   6   8  10    8.80   12.30
   6   8  10    1.80    7.90
   6   8  11   55.79   18.60
   6   8  12   67.49   21.70
   6   8  13   44.00   20.70
   6   8  14    5.60   14.30
   6   9  -3   15.10   14.40
   6   9  -2   19.70   16.30
   6   9  -1   59.49   16.20
   6   9  -1   91.09   28.10
   6   9   0   27.60   11.40
   6   9   0   30.40   16.80
   6   9   1   -2.80    4.90
   6   9   2    3.80    5.10
   6   9   2   -8.60    5.50
   6   9   3   61.59   12.00
   6   9   3   39.00   17.60
   6   9   4  253.97   44.50
   6   9   4  213.28   26.50
   6   9   4  224.48   21.80
   6   9   5  168.08   36.80
   6   9   5  181.08   21.90
   6   9   5  178.58   26.40
   6   9   5  196.38   19.70
   6   9   6  170.68   18.50
   6   9   6  141.69   32.30
   6   9   6  151.58   17.10
   6   9   6  151.98   24.50
   6   9   7   37.50    8.70
   6   9   7   48.30   22.00
   6   9   7   37.10   13.70
   6   9   8    2.90    5.20
   6   9   8    1.80   10.50
   6   9   8    3.10    6.90
   6   9   9  205.28   41.10
   6   9   9  100.29   23.00
   6   9  10  155.18   35.10
   6   9  10  123.39   26.20
   6   9  11   74.19   26.10
   6   9  11   54.59   19.20
   6   9  12   67.49   21.90
   6   9  13   26.50   14.90
   6  10  -2   22.70   20.60
   6  10   2   15.80    8.30
   6  10   3   24.90    8.90
   6  10   3    2.00    9.60
   6  10   4    0.10    4.40
   6  10   4   32.90   20.20
   6  10   5   -1.00    3.20
   6  10   5  -24.10   15.70
   6  10   6    4.50    4.10
   6  10   6    4.70    9.50
   6  10   6    1.60    6.20
   6  10   7   60.09   12.60
   6  10   7   58.49   23.40
   6  10   7   49.20   15.40
   6  10   8  170.68   22.00
   6  10   8  139.99   26.70
   6  10   9   62.29   14.60
   6  10   9   53.39   17.00
   6  10  10   25.30   19.00
   6  10  10   13.90   10.00
   6  10  11    7.50    8.90
   6  10  11  -16.00   11.10
   6  10  12   33.70   16.70
   6  10  13   38.50   19.50
   6  11   2    0.30   12.70
   6  11   3   14.40   13.80
   6  11   4   68.29   25.70
   6  11   5   49.30   22.20
   6  11   6   20.50   15.90
   6  11   7   -1.60   10.90
   6  11   7    1.10    7.00
   6  11   8   31.80   19.40
   6  11   8    1.40    5.70
   6  11   9  118.09   35.50
   6  11   9   73.89   21.60
   6  11  10   65.39   25.90
   6  11  10   43.30   17.40
   6  11  11   10.20   13.30
   6  11  11    8.20    6.20
   6  11  12    2.10    6.20
   6  12   4    3.20   14.90
   6  12   5   28.50   17.50
   6  12   6   57.29   23.70
   6  12   7   51.39   23.30
   6  12   8   19.20   20.00
   6  12   8   35.20   16.70
   6  12   9  117.69   35.70
   6  12   9   73.79   23.40
   6  12  10   25.20   21.40
   6  12  10   -5.30    8.00
   6  12  11   12.60   13.10
   6  13   9   40.30   18.10
   6  13  10   28.80   18.90
   7 -10  -1   18.60   12.30
   7 -10   0   -2.80   15.20
   7 -10   1    4.90   19.10
   7 -10   2    0.10   14.20
   7 -10   3    5.00   16.60
   7  -9  -5   59.79   23.80
   7  -9  -4   53.59   23.00
   7  -9  -3   22.40   14.60
   7  -9  -2    2.90    7.70
   7  -9  -2    0.70    7.60
   7  -9  -1  -11.70   13.70
   7  -9  -1    2.40    6.60
   7  -9   0   42.10   21.60
   7  -9   0   61.19   22.40
   7  -9   1   53.89   21.70
   7  -9   1   83.59   26.40
   7  -9   2   43.20   22.30
   7  -9   3   75.59   29.40
   7  -9   4   35.20   24.50
   7  -9   5   16.70   24.30
   7  -8  -6   45.40   19.70
   7  -8  -5    2.40    6.50
   7  -8  -4   22.90   14.10
   7  -8  -3  -56.89   22.90
   7  -8  -3    9.60    9.60
   7  -8  -2   11.30   14.30
   7  -8  -2   26.90   15.20
   7  -8  -1   85.99   27.20
   7  -8  -1  139.99   30.70
   7  -8   0   66.89   23.40
   7  -8   0   52.59   19.50
   7  -8   1   29.70   18.10
   7  -8   1   24.20   16.40
   7  -8   2   13.60   15.50
   7  -8   2   -3.60    7.80
   7  -8   3   -0.10   13.10
   7  -8   3    6.20    6.20
   7  -8   4   85.59   29.80
   7  -8   4  110.99   29.30
   7  -8   5   35.80   24.60
   7  -8   6    4.40   16.40
   7  -7  -7    5.40   10.30
   7  -7  -7   41.20   18.80
   7  -7  -6   39.30   17.80
   7  -7  -5  111.39   27.80
   7  -7  -4   30.10   16.20
   7  -7  -4   44.10   18.20
   7  -7  -3   15.00   13.20
   7  -7  -3   12.30    7.60
   7  -7  -2   29.70   17.00
   7  -7  -2   21.00   10.90
   7  -7  -1    8.40   12.00
   7  -7  -1  -22.80   12.40
   7  -7   0   47.10   20.40
   7  -7   0   22.50   10.60
   7  -7   1  164.88   36.00
   7  -7   1  143.39   29.50
   7  -7   2  171.18   37.10
   7  -7   2  143.19   29.90
   7  -7   3   31.90   14.60
   7  -7   3   24.50   12.20
   7  -7   4  -20.40   15.30
   7  -7   4   -3.20    9.60
   7  -7   5   31.10   18.80
   7  -7   5   64.39   22.10
   7  -7   6   59.89   25.60
   7  -7   6   27.30   17.70
   7  -7   7    4.10   17.50
   7  -7   7    6.00   19.30
   7  -6  -8   54.59   29.00
   7  -6  -8   43.80   21.80
   7  -6  -7   49.20   22.20
   7  -6  -7   16.70   11.10
   7  -6  -6   23.40   15.70
   7  -6  -6    6.50    8.30
   7  -6  -5  -19.20   12.20
   7  -6  -4  107.29   27.80
   7  -6  -4  154.58   31.70
   7  -6  -3  229.58   41.10
   7  -6  -3  273.57   40.00
   7  -6  -2  149.69   33.00
   7  -6  -2  125.69   26.30
   7  -6  -1  172.18   35.70
   7  -6  -1  144.49   28.00
   7  -6   0   58.49   21.20
   7  -6   0   59.29   18.30
   7  -6   1   19.30   15.70
   7  -6   1    1.40    4.60
   7  -6   2   30.90   12.90
   7  -6   2   20.20   10.20
   7  -6   3   64.79   22.70
   7  -6   3  129.99   26.80
   7  -6   4  153.58   36.50
   7  -6   4  151.58   29.20
   7  -6   5   47.20   22.00
   7  -6   5   52.19   18.80
   7  -6   6   10.30   14.60
   7  -6   6   -7.80    8.50
   7  -6   7   -3.20   15.80
   7  -6   8   -0.10   22.90
   7  -6   8    9.20   13.90
   7  -6   9    9.70   14.10
   7  -5  -8   17.30   17.50
   7  -5  -8    0.10    6.80
   7  -5  -7   38.30   23.70
   7  -5  -7   16.20   11.30
   7  -5  -6   44.50   21.30
   7  -5  -6   28.60   15.30
   7  -5  -5   78.89   28.00
   7  -5  -5   87.19   22.90
   7  -5  -4    8.00   10.60
   7  -5  -4   34.30   14.50
   7  -5  -4   40.80   12.10
   7  -5  -3   14.60   12.20
   7  -5  -3    5.50    6.30
   7  -5  -3    7.10    5.20
   7  -5  -2    2.40    9.80
   7  -5  -2    7.90    6.70
   7  -5  -2    1.50    5.50
   7  -5  -1   -3.00    9.80
   7  -5  -1   12.30    8.40
   7  -5  -1    6.00    8.70
   7  -5   0   64.09   22.10
   7  -5   0   55.69   18.90
   7  -5   1  323.87   47.20
   7  -5   1  332.27   40.50
   7  -5   2  257.67   42.90
   7  -5   2  257.87   35.00
   7  -5   3  262.17   43.70
   7  -5   3  185.28   30.00
   7  -5   4   70.89   25.70
   7  -5   4   49.70   16.00
   7  -5   5  128.89   33.00
   7  -5   5   97.69   23.20
   7  -5   6  200.48   41.30
   7  -5   6  145.89   28.70
   7  -5   7  122.99   34.40
   7  -5   8    8.50   19.00
   7  -5   8   32.30   21.50
   7  -5   9   -1.20   11.20
   7  -5   9   47.30   24.90
   7  -5  10   24.30   18.40
   7  -4  -8   60.19   29.20
   7  -4  -8   91.69   27.90
   7  -4  -7   69.09   30.00
   7  -4  -7   65.79   23.40
   7  -4  -6   63.59   25.20
   7  -4  -6   40.60   16.70
   7  -4  -5   63.49   24.30
   7  -4  -5   48.90   17.90
   7  -4  -4   -8.40   10.50
   7  -4  -4   27.60   16.10
   7  -4  -4    6.80    6.90
   7  -4  -4   15.60    7.70
   7  -4  -3  116.59   27.00
   7  -4  -3   82.59   20.70
   7  -4  -3  103.19   17.40
   7  -4  -2  126.59   28.50
   7  -4  -2   97.39   20.20
   7  -4  -2  119.09   19.10
   7  -4  -2  108.39   22.90
   7  -4  -1  261.57   41.40
   7  -4  -1  247.48   33.50
   7  -4  -1  231.98   27.20
   7  -4  -1  257.17   32.90
   7  -4   0  407.76   51.49
   7  -4   0  355.06   23.70
   7  -4   0  381.56   41.60
   7  -4   0  400.96   40.60
   7  -4   1   68.09   23.40
   7  -4   1   69.09   15.30
   7  -4   1   64.09   16.00
   7  -4   2    6.10   11.10
   7  -4   2   25.00   10.80
   7  -4   3  250.27   41.40
   7  -4   3  223.38   31.50
   7  -4   4  176.98   35.40
   7  -4   4  158.48   27.40
   7  -4   5  314.27   48.70
   7  -4   5  257.57   34.70
   7  -4   6   18.80   14.70
   7  -4   6   26.80   10.30
   7  -4   7   -3.60    8.40
   7  -4   8   -1.80   10.80
   7  -4   9   28.80   20.20
   7  -4   9  -32.20   19.30
   7  -4  10   -0.10   13.10
   7  -4  11    5.80   18.80
   7  -3  -8    5.60   15.90
   7  -3  -8   21.70   12.90
   7  -3  -7    7.00    9.80
   7  -3  -7   26.70   16.10
   7  -3  -6   87.89   33.00
   7  -3  -6   42.60   17.40
   7  -3  -5  111.79   32.00
   7  -3  -5   69.19   20.80
   7  -3  -4  115.99   27.70
   7  -3  -4  143.59   35.40
   7  -3  -4  133.79   27.20
   7  -3  -4   93.39   14.10
   7  -3  -3  -15.20   11.70
   7  -3  -3    0.50    7.10
   7  -3  -3    1.30    4.20
   7  -3  -3   -5.30    6.40
   7  -3  -3   -3.50    3.60
   7  -3  -2   41.70   18.60
   7  -3  -2   40.70   13.30
   7  -3  -2   36.50   14.10
   7  -3  -2   28.10    8.10
   7  -3  -1    2.30    8.70
   7  -3  -1    2.20    3.90
   7  -3  -1    9.30    5.20
   7  -3  -1   -3.00    6.50
   7  -3   0   -0.10    7.50
   7  -3   0   -0.90    5.90
   7  -3   0   -3.30    5.20
   7  -3   1  204.48   36.70
   7  -3   1  164.98   17.70
   7  -3   1  174.28   26.00
   7  -3   1  148.79   22.80
   7  -3   2  165.58   32.70
   7  -3   2  152.18   14.50
   7  -3   2  139.19   23.30
   7  -3   3  269.37   41.30
   7  -3   3  191.68   27.10
   7  -3   4   32.30   14.60
   7  -3   4   11.80   12.40
   7  -3   4   22.90    9.50
   7  -3   5    1.30    5.60
   7  -3   5   -9.60   10.60
   7  -3   5   -5.20    6.40
   7  -3   6   46.60   17.80
   7  -3   6   58.59   15.90
   7  -3   7   83.29   24.50
   7  -3   8    1.60    8.60
   7  -3   9   17.50   15.40
   7  -3   9   23.60   15.30
   7  -3  10   -5.00   11.70
   7  -3  10   -1.00   14.90
   7  -3  11    9.10   14.20
   7  -3  12    3.20   13.90
   7  -2  -8   52.59   26.30
   7  -2  -8   60.99   23.40
   7  -2  -7   28.80   18.10
   7  -2  -7   27.60   12.50
   7  -2  -6   55.39   25.30
   7  -2  -6   -1.40    8.20
   7  -2  -5    1.10   10.70
   7  -2  -5    4.30    5.60
   7  -2  -4   17.00   11.40
   7  -2  -4   14.70    9.20
   7  -2  -4   42.30   14.50
   7  -2  -4   24.90   12.30
   7  -2  -4   21.40    5.00
   7  -2  -3  125.59   27.10
   7  -2  -3  119.69   28.90
   7  -2  -3  109.69   21.50
   7  -2  -3  102.19   22.00
   7  -2  -3  100.99   12.30
   7  -2  -2  109.89   27.60
   7  -2  -2   96.09   24.00
   7  -2  -2  127.19   21.00
   7  -2  -2   99.19   20.30
   7  -2  -2   97.19   13.40
   7  -2  -1   81.19   22.60
   7  -2  -1   89.89   16.70
   7  -2  -1   72.79   16.70
   7  -2  -1   84.39   13.20
   7  -2   0  196.28   34.90
   7  -2   0  197.18   26.90
   7  -2   0  180.78   23.20
   7  -2   1  113.99   28.50
   7  -2   1   57.69   12.00
   7  -2   1   88.49   17.50
   7  -2   2  102.69   26.10
   7  -2   2   79.89   14.40
   7  -2   2   77.89   16.30
   7  -2   3  475.15   53.99
   7  -2   3  419.76   30.90
   7  -2   3  448.16   39.20
   7  -2   4  508.05   56.89
   7  -2   4  450.95   39.40
   7  -2   4  444.86   47.10
   7  -2   5  713.33   68.89
   7  -2   5  545.95   53.19
   7  -2   5  581.94   45.80
   7  -2   6    9.50    4.50
   7  -2   6   15.60   11.50
   7  -2   6    3.90    4.80
   7  -2   7    0.70    8.20
   7  -2   7  -11.10   15.70
   7  -2   8   41.50   16.50
   7  -2   9   -6.20   13.10
   7  -2   9   19.00   15.10
   7  -2  10   15.80   14.30
   7  -2  10   10.50   12.00
   7  -2  11   21.60   20.40
   7  -2  12   -7.90   12.90
   7  -1  -8   10.90   17.70
   7  -1  -7    5.70   17.50
   7  -1  -6   39.10   22.10
   7  -1  -6   72.29   22.30
   7  -1  -5   72.29   27.40
   7  -1  -5  101.49   24.20
   7  -1  -4  128.19   33.10
   7  -1  -4  170.68   32.60
   7  -1  -4  202.48   31.90
   7  -1  -4  177.18   28.30
   7  -1  -3   43.10   15.10
   7  -1  -3   50.79   20.70
   7  -1  -3   44.50   13.00
   7  -1  -3   57.39   15.50
   7  -1  -2   30.40   14.40
   7  -1  -2    4.20   10.50
   7  -1  -2   29.30    9.30
   7  -1  -2   21.90    4.50
   7  -1  -2   24.80   10.20
   7  -1  -1   83.19   22.90
   7  -1  -1   69.79   21.10
   7  -1  -1   70.99   14.00
   7  -1  -1   73.29   16.40
   7  -1  -1   69.69   10.20
   7  -1   0   90.49   15.10
   7  -1   0   97.09   25.20
   7  -1   0  114.89   19.40
   7  -1   1  367.26   45.30
   7  -1   1  368.16   34.30
   7  -1   1  368.56   37.60
   7  -1   1  395.26   30.00
   7  -1   2  402.76   47.30
   7  -1   2  362.36   34.80
   7  -1   2  363.66   33.10
   7  -1   2  382.16   37.40
   7  -1   3   80.39   22.30
   7  -1   3   96.19   28.60
   7  -1   3   67.39   14.90
   7  -1   3   89.29   16.00
   7  -1   4   -5.80   14.60
   7  -1   4    5.40    8.20
   7  -1   4   -4.40    8.70
   7  -1   4    1.70    4.10
   7  -1   5   20.60   10.00
   7  -1   5    5.20    9.70
   7  -1   5   10.60    6.10
   7  -1   6  479.15   57.79
   7  -1   6  389.16   35.70
   7  -1   6  399.66   42.40
   7  -1   7  309.87   39.40
   7  -1   7  350.36   50.89
   7  -1   8   90.09   23.40
   7  -1   8  110.69   31.80
   7  -1   8   81.99   23.40
   7  -1   9   78.89   25.60
   7  -1  10    5.10    8.00
   7  -1  11   16.20   15.70
   7   0  -8   48.40   30.00
   7   0  -7   89.09   35.20
   7   0  -6   45.80   27.70
   7   0  -5    2.80   11.10
   7   0  -4   15.40    9.90
   7   0  -4  -12.30   13.30
   7   0  -4   -2.70    5.60
   7   0  -4   -9.30    7.00
   7   0  -3  153.38   35.40
   7   0  -3  115.49   24.80
   7   0  -3   78.39   17.80
   7   0  -3  112.79   22.60
   7   0  -3  131.09   22.00
   7   0  -2  118.19   28.60
   7   0  -2  111.99   20.90
   7   0  -2   98.89   17.40
   7   0  -2   70.79   19.40
   7   0  -2  104.49   20.60
   7   0  -1   71.29   21.10
   7   0  -1   55.59   14.60
   7   0  -1   81.19   19.70
   7   0  -1   68.39   12.70
   7   0  -1   56.79   14.20
   7   0  -1   51.19    5.00
   7   0  -1   40.10    4.60
   7   0   0  166.88   25.40
   7   0   0  168.98   29.40
   7   0   0  129.69   25.50
   7   0   0  139.39   21.30
   7   0   0  132.99   20.20
   7   0   0  111.79   12.80
   7   0   0  131.89   16.00
   7   0   1  472.45   42.80
   7   0   1  480.55   50.49
   7   0   1  458.65   44.30
   7   0   1  436.96   58.99
   7   0   1  432.76   39.90
   7   0   1  465.85   37.20
   7   0   1  416.16   34.40
   7   0   1  445.96   27.80
   7   0   1  387.26   29.10
   7   0   2    5.30    6.00
   7   0   2    6.50   11.80
   7   0   2   -0.90   10.10
   7   0   2   14.00   11.20
   7   0   2    3.90    3.90
   7   0   2    6.80    6.70
   7   0   2   -4.60    6.10
   7   0   3  272.67   45.60
   7   0   3  190.48   28.50
   7   0   3  200.78   25.40
   7   0   3  183.28   21.00
   7   0   3  167.08   19.50
   7   0   3  211.28   36.40
   7   0   4  861.31   69.99
   7   0   4  763.62   68.09
   7   0   4  746.03   52.59
   7   0   4  785.32   44.30
   7   0   4  748.73   39.70
   7   0   5  619.24   62.19
   7   0   5  607.24   58.59
   7   0   5  523.25   41.90
   7   0   5  567.74   45.30
   7   0   5  572.64   31.10
   7   0   5  585.64   38.60
   7   0   5  559.84   50.59
   7   0   6  388.86   51.29
   7   0   6  376.06   44.80
   7   0   6  320.17   33.50
   7   0   6  369.16   31.90
   7   0   6  435.26   24.00
   7   0   6  345.17   42.00
   7   0   7   -5.00    5.50
   7   0   7    3.30    2.30
   7   0   7    0.60    5.40
   7   0   8  116.59   23.80
   7   0   8  119.69   10.00
   7   0   8   99.69   27.00
   7   0   9   48.30   17.70
   7   0   9   70.29   21.20
   7   0  10   47.60   18.90
   7   0  11   37.50   17.10
   7   0  12   16.80   18.50
   7   1  -7   16.30   16.40
   7   1  -6   20.60   17.10
   7   1  -5   39.70   23.00
   7   1  -4   50.49   22.80
   7   1  -4   59.89   16.10
   7   1  -4   55.49   14.50
   7   1  -3  129.69   32.40
   7   1  -3  112.39   23.90
   7   1  -3  110.79   19.60
   7   1  -3  102.39   19.20
   7   1  -2   22.90   13.20
   7   1  -2    6.50    6.50
   7   1  -2   10.70    6.00
   7   1  -2   14.40    7.20
   7   1  -2   15.30    8.70
   7   1  -1   32.40   15.50
   7   1  -1   28.80   10.80
   7   1  -1   17.90   11.10
   7   1  -1   28.30    8.00
   7   1  -1   19.40    8.30
   7   1   0   26.70    9.90
   7   1   0   36.70   14.70
   7   1   0   23.40    6.00
   7   1   0    7.80    4.70
   7   1   0   28.60   10.00
   7   1   0   18.70    7.30
   7   1   0   17.00    2.70
   7   1   0   20.10    2.90
   7   1   1  187.28   30.50
   7   1   1  172.88   24.70
   7   1   1  163.18   35.80
   7   1   1  176.28   28.40
   7   1   1  192.58   26.30
   7   1   1  171.28   23.50
   7   1   1  171.28   13.80
   7   1   1  154.88   15.80
   7   1   1  169.48   20.30
   7   1   2  473.45   41.10
   7   1   2  522.25   51.59
   7   1   2  434.86   39.80
   7   1   2  419.36   54.69
   7   1   2  475.45   40.00
   7   1   2  443.36   36.20
   7   1   2  488.35   32.60
   7   1   2  433.46   32.20
   7   1   3  174.68   32.60
   7   1   3  202.38   26.90
   7   1   3  174.78   33.80
   7   1   3  193.28   23.60
   7   1   3  157.78   26.20
   7   1   3  194.48   24.70
   7   1   3  178.48   19.10
   7   1   3  162.88   20.80
   7   1   3  145.99   20.80
   7   1   4   -2.80   11.30
   7   1   4    4.70    4.60
   7   1   4    4.70    7.10
   7   1   4   -0.90    8.10
   7   1   4    4.40    3.10
   7   1   4    8.60    4.20
   7   1   4   11.70    7.00
   7   1   5   -7.50   12.90
   7   1   5   14.70    8.70
   7   1   5   23.30    7.50
   7   1   5    7.50    7.40
   7   1   5    5.60    3.30
   7   1   5   15.10    5.50
   7   1   5   13.00    7.90
   7   1   6  173.38   30.50
   7   1   6  140.99   19.20
   7   1   6  156.98   25.20
   7   1   6  166.48   18.20
   7   1   6  140.99   25.80
   7   1   7   85.99   20.90
   7   1   7   78.09   15.40
   7   1   7  104.39   14.00
   7   1   7   49.50   15.20
   7   1   8   34.10   12.70
   7   1   8   42.40   13.20
   7   1   8   51.39   10.10
   7   1   8   47.00   17.50
   7   1   9   19.30    9.70
   7   1   9   14.10    9.30
   7   1   9   13.30    5.60
   7   1   9    8.40    6.10
   7   1  10   61.59   19.50
   7   1  11   37.10   18.80
   7   1  12   15.60   11.20
   7   2  -7   67.69   31.50
   7   2  -6   26.70   20.50
   7   2  -5   35.20   21.00
   7   2  -4   36.20   17.30
   7   2  -4   39.80   12.30
   7   2  -4   23.00    9.00
   7   2  -3  155.38   36.60
   7   2  -3  131.49   24.70
   7   2  -3   89.89   16.50
   7   2  -3  127.89   21.00
   7   2  -2  132.19   32.00
   7   2  -2  138.69   25.30
   7   2  -2  128.89   19.80
   7   2  -2  117.79   18.10
   7   2  -1   25.60   14.80
   7   2  -1   17.90    7.30
   7   2  -1   26.10   11.00
   7   2  -1   35.50    8.70
   7   2  -1   32.50   10.30
   7   2   0   -2.50    5.60
   7   2   0   -3.50    8.60
   7   2   0    0.80    2.10
   7   2   0    1.40    4.90
   7   2   0   -3.90    6.30
   7   2   0    1.90    4.00
   7   2   1   49.20   12.50
   7   2   1   36.30   12.70
   7   2   1   47.20   16.00
   7   2   1   50.99   13.40
   7   2   1   59.59   14.60
   7   2   1   56.79   10.70
   7   2   1   60.99    5.30
   7   2   1   52.09    6.50
   7   2   2    3.90    5.60
   7   2   2   -0.70    8.10
   7   2   2   -4.00    8.00
   7   2   2   16.10    9.10
   7   2   2    7.20    4.60
   7   2   2    8.70    5.50
   7   2   2    4.80    4.70
   7   2   2    5.20    3.60
   7   2   3  135.39   26.70
   7   2   3  116.39   20.10
   7   2   3   86.49   16.40
   7   2   3  103.19   27.00
   7   2   3   94.19   23.30
   7   2   3  129.19   19.60
   7   2   3  126.09   13.50
   7   2   3  139.49   20.40
   7   2   3  121.79   17.60
   7   2   4  364.36   35.90
   7   2   4  351.66   43.20
   7   2   4  303.57   26.50
   7   2   4  374.46   49.90
   7   2   4  324.87   21.00
   7   2   4  336.07   40.20
   7   2   4  326.07   30.20
   7   2   4  326.97   29.80
   7   2   4  334.47   32.70
   7   2   5  291.97   21.40
   7   2   5  318.97   43.00
   7   2   5  345.27   22.50
   7   2   5  366.16   41.40
   7   2   5  335.07   22.00
   7   2   5  326.07   29.00
   7   2   5  290.27   33.50
   7   2   6  651.63   31.50
   7   2   6  696.83   62.19
   7   2   6  735.33   43.40
   7   2   6  753.02   59.69
   7   2   6  646.64   54.09
   7   2   7   12.30    4.90
   7   2   7   19.20   10.20
   7   2   7   17.40    6.70
   7   2   7    2.00    7.20
   7   2   7    7.00    6.10
   7   2   8   18.40    6.30
   7   2   8    8.90    6.30
   7   2   8   17.20    5.40
   7   2   8   18.30   12.40
   7   2   9   43.90   11.20
   7   2   9   68.09   17.10
   7   2   9   56.19   19.50
   7   2  10   26.10   15.60
   7   2  11   82.09   26.30
   7   2  12    8.90    8.90
   7   2  13   -1.00   12.90
   7   3  -6   70.49   30.80
   7   3  -5   58.79   25.20
   7   3  -4   33.50   23.90
   7   3  -3   45.40   20.20
   7   3  -3   27.40   10.90
   7   3  -3   45.20   12.60
   7   3  -3   35.70    9.80
   7   3  -2   -8.40   10.20
   7   3  -2   11.30    8.80
   7   3  -2    9.90    6.60
   7   3  -2    7.10    4.90
   7   3  -1   46.20   16.40
   7   3  -1   53.29   10.70
   7   3  -1   62.09   13.10
   7   3  -1   32.70   12.20
   7   3   0   49.80   18.30
   7   3   0   49.00   12.10
   7   3   0   75.89   18.00
   7   3   0   51.69    8.10
   7   3   0   54.89   11.70
   7   3   1  123.69   18.80
   7   3   1  160.98   27.30
   7   3   1  141.99   27.00
   7   3   1  146.39   23.80
   7   3   1  156.68   24.60
   7   3   1  144.19   16.90
   7   3   2  494.85   39.50
   7   3   2  527.85   49.40
   7   3   2  552.94   47.60
   7   3   2  443.46   63.69
   7   3   2  514.25   28.10
   7   3   2  483.75   41.00
   7   3   2  541.25   43.90
   7   3   2  523.75   27.40
   7   3   3  219.88   26.80
   7   3   3  254.77   34.90
   7   3   3  221.88   25.90
   7   3   3  264.57   45.60
   7   3   3  261.07   36.90
   7   3   3  226.48   14.90
   7   3   3  226.88   25.90
   7   3   3  228.68   27.50
   7   3   3  208.68   20.80
   7   3   4   28.00   10.00
   7   3   4   29.80    6.80
   7   3   4   32.50   15.90
   7   3   4   14.80   10.50
   7   3   4   21.40    6.80
   7   3   4   30.60   10.60
   7   3   4   35.90   11.80
   7   3   4   24.70    4.00
   7   3   5  654.53   50.59
   7   3   5  620.94   65.09
   7   3   5  577.44   42.20
   7   3   5  680.63   59.69
   7   3   5  558.34   38.20
   7   3   5  611.64   46.50
   7   3   6  541.65   57.39
   7   3   6  569.44   41.60
   7   3   6  608.34   55.99
   7   3   6  529.65   47.40
   7   3   7  951.70   73.49
   7   3   7  896.91   53.59
   7   3   7  896.61   69.39
   7   3   7  863.41   65.89
   7   3   8  297.97   37.50
   7   3   8  276.67   29.00
   7   3   8  274.77   39.60
   7   3   8  220.38   34.70
   7   3   9    4.80    6.30
   7   3   9  -15.00   10.50
   7   3  10    0.20    7.40
   7   3  11  -13.60   11.70
   7   3  12   18.80   11.60
   7   3  13   17.80   13.90
   7   4  -6    7.20   11.90
   7   4  -5   -9.10   12.00
   7   4  -4   16.80   15.30
   7   4  -3   45.10   21.10
   7   4  -2  235.68   43.00
   7   4  -2  248.68   30.50
   7   4  -2  217.98   22.10
   7   4  -2  231.68   26.20
   7   4  -1  232.78   39.50
   7   4  -1  161.58   19.80
   7   4  -1  187.78   26.70
   7   4  -1  162.38   18.90
   7   4   0   33.30   15.70
   7   4   0   27.10    5.90
   7   4   0   46.20   14.20
   7   4   0   34.30    9.20
   7   4   1    4.50    8.40
   7   4   1    2.40    3.10
   7   4   1   10.40   10.90
   7   4   1   11.70    7.10
   7   4   1    6.00    3.60
   7   4   2    8.20    8.30
   7   4   2   29.30    9.40
   7   4   2   40.70   12.90
   7   4   2   17.30    7.30
   7   4   2   25.70    5.60
   7   4   2   25.50    5.20
   7   4   3   87.49   19.80
   7   4   3   79.09   16.20
   7   4   3   97.19   31.20
   7   4   3   91.79   15.30
   7   4   3  101.39   19.10
   7   4   3   97.49   17.40
   7   4   3   92.69   12.80
   7   4   4  153.98   24.20
   7   4   4  141.29   36.20
   7   4   4  153.88   12.20
   7   4   4  169.18   24.30
   7   4   4  141.39   29.60
   7   4   4  140.79   19.20
   7   4   4  163.78   19.90
   7   4   5  230.98   29.80
   7   4   5  171.58   38.10
   7   4   5  181.78   25.40
   7   4   5  192.28   32.50
   7   4   5  178.88   20.50
   7   4   5  176.08   23.00
   7   4   6   44.90   19.80
   7   4   6  112.79   19.50
   7   4   6  114.49   26.20
   7   4   6   71.69   15.70
   7   4   7   -0.30   12.80
   7   4   7    4.50    3.60
   7   4   7   16.90   10.90
   7   4   7   15.50    9.70
   7   4   8    5.50    9.00
   7   4   8   18.90   10.90
   7   4   8    2.40    5.40
   7   4   9  197.78   35.60
   7   4   9  133.89   27.50
   7   4  10   54.09   19.50
   7   4  11  115.29   30.00
   7   4  12  110.39   28.90
   7   4  13    6.70    9.10
   7   5  -5   26.90   18.70
   7   5  -4    1.30   10.30
   7   5  -3    2.20    9.70
   7   5  -2    1.00    7.60
   7   5  -2    3.30    4.30
   7   5  -1   -5.60    6.60
   7   5  -1   -0.40    6.10
   7   5   0   15.60   11.90
   7   5   0   12.20    4.40
   7   5   0   16.90    9.50
   7   5   0   11.20    4.50
   7   5   0    7.10    4.10
   7   5   1   21.30    9.50
   7   5   1   15.10    6.60
   7   5   1   13.70    2.50
   7   5   1   10.20    6.30
   7   5   1   16.30    2.90
   7   5   1   20.00    6.30
   7   5   1   26.70    6.50
   7   5   2  237.68   26.40
   7   5   2  300.87   35.30
   7   5   2  271.07   31.40
   7   5   2  284.17   33.40
   7   5   2  251.37   14.40
   7   5   2  267.57   15.90
   7   5   3  500.15   41.00
   7   5   3  582.94   50.29
   7   5   3  525.25   36.50
   7   5   3  515.35   41.80
   7   5   3  537.25   32.50
   7   5   4  240.28   29.60
   7   5   4  155.38   40.30
   7   5   4  194.78   36.70
   7   5   4  214.78   24.00
   7   5   4  201.28   21.90
   7   5   5   10.00   13.40
   7   5   5    1.90    4.40
   7   5   5   -4.30   11.70
   7   5   5    0.80    2.40
   7   5   5    1.40    3.10
   7   5   6  124.39   29.70
   7   5   6  110.69   20.50
   7   5   6   87.19   25.20
   7   5   6   94.89   13.50
   7   5   6   79.49   16.60
   7   5   7  546.95   56.89
   7   5   7  664.63   51.39
   7   5   7  610.44   61.89
   7   5   7  560.94   48.30
   7   5   8  272.97   31.90
   7   5   8  316.37   44.00
   7   5   8  266.87   35.90
   7   5   9   75.09   21.60
   7   5   9   51.49   16.50
   7   5  10  -17.20   11.50
   7   5  11   16.70   13.30
   7   5  12   -1.40    9.40
   7   5  13   29.60   16.30
   7   6  -5  -10.70   14.30
   7   6  -4   -2.60   13.60
   7   6  -3    9.90   11.00
   7   6  -2   64.49   23.30
   7   6  -2   58.69   14.70
   7   6  -1   90.79   25.60
   7   6  -1   96.09   16.00
   7   6  -1  124.29   18.60
   7   6   0   26.10   13.20
   7   6   0   38.70    8.70
   7   6   0   31.70   10.40
   7   6   1   -4.90    7.00
   7   6   1   -1.90    2.70
   7   6   1   -0.10    2.40
   7   6   1   -4.50    6.50
   7   6   1    1.30    1.90
   7   6   2   -4.00    4.90
   7   6   2    4.30    6.10
   7   6   2    0.00    5.20
   7   6   2    1.20    2.00
   7   6   2    2.80    2.00
   7   6   3  108.99   17.20
   7   6   3   86.09   17.70
   7   6   3   84.89   13.20
   7   6   4  192.28   44.60
   7   6   4  216.88   38.40
   7   6   4  202.48   24.30
   7   6   4  197.78   22.10
   7   6   5  190.78   41.60
   7   6   5  130.09   30.40
   7   6   5  119.49   16.90
   7   6   5  144.49   20.60
   7   6   6   19.20   14.50
   7   6   6   -4.60   14.70
   7   6   6    4.10    2.20
   7   6   6    3.40    4.50
   7   6   7    5.10    6.50
   7   6   7   32.70   15.50
   7   6   7   23.10    9.40
   7   6   8   27.50   10.90
   7   6   8   -0.30   11.00
   7   6   8   18.50   11.60
   7   6   9   67.69   22.00
   7   6   9   51.89   16.10
   7   6  10   10.50   12.70
   7   6  10    9.60    8.80
   7   6  11    4.80    6.00
   7   6  12   75.69   23.80
   7   6  13   14.10   14.20
   7   7  -4    9.30   12.30
   7   7  -3  -19.60   15.20
   7   7  -2   10.10    8.30
   7   7  -1   60.89   22.20
   7   7   0   67.89   13.70
   7   7   0   89.09   23.80
   7   7   1   38.90   11.10
   7   7   1   35.00    7.90
   7   7   1   26.70   12.30
   7   7   2   30.20   10.90
   7   7   2   11.60    3.30
   7   7   2   26.80   10.90
   7   7   3  104.49   20.00
   7   7   4   28.90   15.40
   7   7   4   30.10   10.00
   7   7   4   35.20    9.50
   7   7   5   40.00   20.10
   7   7   5   13.80   13.80
   7   7   5   31.60    9.80
   7   7   5   26.60    9.30
   7   7   6  176.18   35.90
   7   7   6  153.58   34.40
   7   7   6  145.99   17.00
   7   7   6  174.78   24.80
   7   7   7  252.17   38.40
   7   7   7  298.27   46.80
   7   7   7  228.08   30.30
   7   7   8  266.17   44.60
   7   7   8  211.48   30.40
   7   7   9   68.39   21.40
   7   7   9   63.69   16.50
   7   7  10    6.10   10.50
   7   7  10    6.70    9.00
   7   7  11   28.50   14.40
   7   7  12   10.10   10.60
   7   7  13   82.39   25.60
   7   8  -3    3.60   11.30
   7   8  -2   20.50   17.10
   7   8  -1   66.29   24.40
   7   8   0   67.99   20.80
   7   8   1    1.00    6.40
   7   8   2    0.60    4.80
   7   8   2   -1.40    4.00
   7   8   3   26.40   10.20
   7   8   3   11.20   10.20
   7   8   4  205.48   39.70
   7   8   4  202.38   27.00
   7   8   5  262.07   45.10
   7   8   5  216.18   24.70
   7   8   5  216.28   27.10
   7   8   6   40.90   15.80
   7   8   6   46.70   21.20
   7   8   6   50.89   13.70
   7   8   7   -7.00   11.20
   7   8   7   -1.60    4.00
   7   8   8  113.29   31.90
   7   8   8   74.89   18.80
   7   8   9  137.89   34.20
   7   8   9   95.09   21.60
   7   8  10  103.39   29.90
   7   8  10   62.09   18.90
   7   8  11   31.60   14.60
   7   8  11    5.90   10.10
   7   8  12   -6.20    8.80
   7   8  13   14.30   13.20
   7   9  -2   -3.20    9.80
   7   9  -1    7.00    9.30
   7   9   0   33.20   18.00
   7   9   3   67.69   16.10
   7   9   3  125.29   33.60
   7   9   4  109.29   31.50
   7   9   5   17.10   15.20
   7   9   5   -8.10    7.10
   7   9   6   14.70   13.10
   7   9   6   24.10   10.20
   7   9   7   74.59   28.20
   7   9   7   52.49   15.10
   7   9   8  225.48   44.90
   7   9   8  236.08   33.80
   7   9   9  109.99   31.40
   7   9   9   94.59   22.50
   7   9  10   22.80   17.60
   7   9  10   11.20    8.10
   7   9  11   17.60   18.10
   7   9  11  -15.20   11.40
   7   9  12   10.20    8.00
   7   9  13   44.80   21.90
   7  10   3    4.40   12.60
   7  10   4   71.69   27.70
   7  10   5  121.79   35.00
   7  10   6   76.69   27.40
   7  10   6   64.79   17.60
   7  10   7  -15.50   14.60
   7  10   7  -14.60    9.00
   7  10   8  -20.20   15.90
   7  10   8    2.80    6.00
   7  10   9   71.99   29.10
   7  10   9   29.40   13.60
   7  10  10   63.69   26.20
   7  10  10   73.29   22.10
   7  10  11   10.50   12.90
   7  10  11    4.80   11.80
   7  10  12   -4.20    7.50
   7  11   4   -5.90   12.00
   7  11   5   18.10   13.80
   7  11   6   61.59   27.40
   7  11   7   31.10   19.60
   7  11   7   18.80   10.10
   7  11   8    8.90   11.30
   7  11   8   11.30    9.20
   7  11   9   30.40   20.40
   7  11   9   -4.00   10.00
   7  11  10    4.60   15.80
   7  11  10    1.00   10.50
   7  11  11   -8.40    9.20
   7  11  12   -8.70   11.20
   7  12   8    0.90    5.50
   7  12   9   24.80   15.10
   7  12  10   44.00   19.00
   7  12  11    9.90   16.40
   8  -8  -4   54.09   23.40
   8  -8  -3   17.50   10.50
   8  -8  -3   39.20   19.20
   8  -8  -2   22.50   16.90
   8  -8  -2   14.70   14.10
   8  -8  -1   -9.50   14.70
   8  -8  -1   -6.00    8.40
   8  -8   0    5.70    8.60
   8  -8   0   13.20   12.20
   8  -8   1   77.19   27.40
   8  -8   1   87.79   27.00
   8  -8   2   84.89   32.40
   8  -8   2   61.79   24.90
   8  -8   3   25.50   19.50
   8  -8   4   -2.30   12.10
   8  -7  -5   -1.00    6.70
   8  -7  -4    0.70    7.60
   8  -7  -4  -17.30   12.10
   8  -7  -3   31.60   17.80
   8  -7  -3   60.89   22.00
   8  -7  -2   27.70   17.90
   8  -7  -2   76.29   22.90
   8  -7  -1   84.19   27.60
   8  -7  -1   90.29   25.90
   8  -7   0   97.59   29.00
   8  -7   0   68.09   23.80
   8  -7   1   -3.00    9.90
   8  -7   1   18.60   12.00
   8  -7   2   99.49   32.20
   8  -7   2   29.20   13.50
   8  -7   3   43.20   20.70
   8  -7   3   53.99   20.30
   8  -7   4   32.60   24.40
   8  -7   4   40.10   19.30
   8  -7   5   -0.50    9.10
   8  -7   5   13.70   16.80
   8  -7   6    3.40   17.60
   8  -6  -6   69.19   30.50
   8  -6  -6   56.79   23.80
   8  -6  -5   51.19   24.10
   8  -6  -5   31.80   17.00
   8  -6  -4   89.89   28.80
   8  -6  -4   56.99   20.50
   8  -6  -3   38.20   19.50
   8  -6  -3   26.50   14.20
   8  -6  -2    6.30    8.70
   8  -6  -2    7.30    7.30
   8  -6  -1    7.40   14.40
   8  -6  -1   -5.40    6.90
   8  -6   0   72.99   25.80
   8  -6   0   41.90   17.40
   8  -6   1  177.08   38.60
   8  -6   1  163.48   32.50
   8  -6   2  133.39   34.80
   8  -6   2  112.39   26.30
   8  -6   3    7.60   14.10
   8  -6   3    9.70    8.10
   8  -6   4   -0.80    9.80
   8  -6   4    3.40    6.80
   8  -6   5  -10.50   13.80
   8  -6   5   24.00   15.60
   8  -6   6   86.49   34.90
   8  -6   6   38.70   19.00
   8  -6   7   28.40   23.20
   8  -6   8    5.30   16.80
   8  -5  -7   -2.20   10.00
   8  -5  -6    8.00   10.50
   8  -5  -6  -11.20   10.40
   8  -5  -5   18.90   19.20
   8  -5  -5    4.70    8.00
   8  -5  -4    6.50    7.30
   8  -5  -4  -11.40   10.00
   8  -5  -3   35.60   18.60
   8  -5  -3   32.20   15.20
   8  -5  -2  133.29   32.30
   8  -5  -2  146.29   29.60
   8  -5  -1  155.68   34.80
   8  -5  -1  180.68   31.40
   8  -5   0  244.28   43.30
   8  -5   0  261.57   37.90
   8  -5   1   18.30   14.80
   8  -5   1   26.30   11.40
   8  -5   2   56.79   22.30
   8  -5   2   33.00   13.40
   8  -5   3  192.58   40.60
   8  -5   3  160.68   29.60
   8  -5   4  147.09   37.30
   8  -5   4  114.79   25.50
   8  -5   5   93.49   32.20
   8  -5   5   34.30   14.40
   8  -5   6   40.30   25.80
   8  -5   6   27.20   13.60
   8  -5   7   10.40   13.90
   8  -5   8    5.30   10.70
   8  -5   9   -1.00   14.60
   8  -4  -7  -16.10   17.60
   8  -4  -7   -9.20   10.60
   8  -4  -6   16.20   15.70
   8  -4  -6   14.30   12.90
   8  -4  -5    2.80    9.50
   8  -4  -5   28.90   14.70
   8  -4  -4   77.79   25.70
   8  -4  -4   98.39   30.70
   8  -4  -4   91.59   23.10
   8  -4  -3   97.39   27.10
   8  -4  -3   99.19   28.10
   8  -4  -3   74.89   21.20
   8  -4  -2   28.50   17.90
   8  -4  -2   15.50    8.10
   8  -4  -1    5.10    9.80
   8  -4  -1   -3.10    4.30
   8  -4  -1   -2.80    5.60
   8  -4   0   56.09   21.20
   8  -4   0   40.30   14.00
   8  -4   0   27.30    8.40
   8  -4   0   52.19   14.10
   8  -4   0   62.09   18.10
   8  -4   1  155.78   34.70
   8  -4   1  159.78   26.50
   8  -4   1   73.69    7.60
   8  -4   1  123.39   25.60
   8  -4   2  302.07   49.50
   8  -4   2  220.58   32.50
   8  -4   3   76.29   25.30
   8  -4   3   39.80   13.90
   8  -4   4   48.80   21.80
   8  -4   4   10.80    7.80
   8  -4   5    3.40   12.10
   8  -4   5   -1.00    5.80
   8  -4   6   21.70   14.00
   8  -4   6   12.00    7.70
   8  -4   7   87.59   30.80
   8  -4   7   41.40   15.70
   8  -4   8   49.30   28.20
   8  -4   9   59.39   27.60
   8  -3  -7   20.30   18.40
   8  -3  -7    5.60    8.80
   8  -3  -6   -2.50   11.20
   8  -3  -6    1.30    8.30
   8  -3  -5    6.60    9.70
   8  -3  -5  -24.30   13.60
   8  -3  -4    0.80   10.90
   8  -3  -4   16.10   15.00
   8  -3  -4   -3.20    7.50
   8  -3  -3  -14.50   12.30
   8  -3  -3   13.50   11.70
   8  -3  -3   10.50    6.50
   8  -3  -2   88.29   25.50
   8  -3  -2   43.60   19.60
   8  -3  -2   58.29   16.70
   8  -3  -2   71.89   19.00
   8  -3  -1  103.99   28.50
   8  -3  -1  102.29   19.80
   8  -3  -1   95.79   16.00
   8  -3  -1   97.09   21.60
   8  -3   0  198.08   38.50
   8  -3   0  187.38   23.80
   8  -3   0  170.78   25.10
   8  -3   0  166.28   27.60
   8  -3   1  108.19   30.20
   8  -3   1   62.79   15.20
   8  -3   1   78.29   13.10
   8  -3   1   86.69   19.40
   8  -3   2   15.10   12.40
   8  -3   2   10.40    5.50
   8  -3   2    0.50    6.30
   8  -3   3  211.08   41.80
   8  -3   3  112.09   22.20
   8  -3   4  111.69   29.90
   8  -3   4  101.09   21.30
   8  -3   5   44.60   20.40
   8  -3   5   38.50   13.00
   8  -3   6   35.20   17.20
   8  -3   6   13.90    6.40
   8  -3   7  -13.90   13.10
   8  -3   7  -15.20    9.50
   8  -3   8  -12.60   16.70
   8  -3   9    3.40   16.80
   8  -3  10   26.20   21.80
   8  -2  -7  -13.50   16.30
   8  -2  -7    1.00    6.30
   8  -2  -6   13.00   12.10
   8  -2  -6   48.80   21.00
   8  -2  -5   32.20   19.40
   8  -2  -5   30.10   12.80
   8  -2  -4   40.50   18.60
   8  -2  -4   71.09   27.70
   8  -2  -4   45.50   17.20
   8  -2  -3   72.19   22.60
   8  -2  -3   86.39   26.60
   8  -2  -3   85.59   21.70
   8  -2  -2    5.90   10.50
   8  -2  -2   10.30    5.90
   8  -2  -2    8.70    6.70
   8  -2  -2   12.90    8.00
   8  -2  -1   47.60   18.60
   8  -2  -1   58.69   20.60
   8  -2  -1   79.09   17.00
   8  -2  -1   65.49   11.90
   8  -2  -1   50.79   15.00
   8  -2   0  154.98   33.40
   8  -2   0  117.59   19.30
   8  -2   0   94.79   15.40
   8  -2   0   97.29   21.50
   8  -2   1  362.56   50.29
   8  -2   1  314.07   33.50
   8  -2   1  335.47   36.70
   8  -2   1  355.06   33.30
   8  -2   2  373.46   51.09
   8  -2   2  411.66   39.90
   8  -2   2  363.26   32.90
   8  -2   3   64.79   22.20
   8  -2   3   68.69   13.20
   8  -2   3   50.39   13.30
   8  -2   4   20.50   16.60
   8  -2   4   12.70    5.90
   8  -2   5   18.60   10.00
   8  -2   5    9.10    5.80
   8  -2   6   -4.80    8.70
   8  -2   6  -17.50   19.60
   8  -2   6    4.60    3.80
   8  -2   7   56.19   23.50
   8  -2   8   71.89   27.50
   8  -2   9   47.90   21.60
   8  -2   9   34.80   22.00
   8  -2  10   -4.30   17.20
   8  -2  10   14.20   19.10
   8  -2  11  -53.89   26.60
   8  -1  -7   47.90   28.40
   8  -1  -7   59.59   23.40
   8  -1  -6  -55.69   28.10
   8  -1  -6   10.60   10.10
   8  -1  -5   32.70   20.40
   8  -1  -5   11.90    9.50
   8  -1  -4    6.40    8.40
   8  -1  -4   -5.10   10.70
   8  -1  -4    0.60    6.00
   8  -1  -3    4.90    9.60
   8  -1  -3   17.20   11.30
   8  -1  -3   12.10    7.40
   8  -1  -3    5.80    4.80
   8  -1  -2  110.99   26.90
   8  -1  -2  132.59   31.60
   8  -1  -2  109.49   20.10
   8  -1  -2   99.69   21.00
   8  -1  -1   96.79   24.20
   8  -1  -1  114.99   27.70
   8  -1  -1  102.89   17.50
   8  -1  -1  108.39   21.80
   8  -1  -1   93.39   11.50
   8  -1   0   85.79   23.00
   8  -1   0  107.39   26.30
   8  -1   0  101.99   16.30
   8  -1   0   84.69   12.80
   8  -1   0   84.19   17.80
   8  -1   1   24.60   15.00
   8  -1   1   49.00   10.80
   8  -1   1   44.30   12.40
   8  -1   2   45.50   22.80
   8  -1   2   24.50   14.20
   8  -1   2   12.10    9.60
   8  -1   3  465.85   57.09
   8  -1   3  363.76   36.50
   8  -1   3  420.46   37.90
   8  -1   4  499.85   62.09
   8  -1   4  468.35   39.70
   8  -1   4  529.75   41.70
   8  -1   5  215.88   31.70
   8  -1   5  249.88   28.70
   8  -1   6   63.89   17.60
   8  -1   6   91.79   26.80
   8  -1   6   84.99   16.90
   8  -1   7   16.00   10.70
   8  -1   7   20.20   12.40
   8  -1   7    4.70    6.50
   8  -1   8   21.70   13.20
   8  -1   8   27.10   17.30
   8  -1   9   62.19   25.90
   8  -1   9   66.29   22.70
   8  -1  10   97.09   34.20
   8  -1  10  102.29   31.40
   8  -1  11  124.59   37.80
   8   0  -7    4.00   14.00
   8   0  -7  -16.90   12.40
   8   0  -6   -0.10    9.70
   8   0  -6   33.40   16.20
   8   0  -5    9.60   12.20
   8   0  -5   35.50   16.00
   8   0  -4   30.10   18.50
   8   0  -4   17.90   11.20
   8   0  -4   25.60   12.60
   8   0  -3  111.19   32.10
   8   0  -3  112.99   27.00
   8   0  -3  129.19   26.20
   8   0  -2  108.39   30.00
   8   0  -2  113.59   27.10
   8   0  -2  111.19   22.60
   8   0  -2  134.29   21.20
   8   0  -1   11.00    8.80
   8   0  -1   -8.60   10.90
   8   0  -1    0.40    2.50
   8   0  -1   -7.20    7.50
   8   0   0   92.09   22.90
   8   0   0   78.49   12.80
   8   0   0   74.09   22.50
   8   0   0   65.49    8.90
   8   0   0   50.49    8.30
   8   0   0   74.79   16.10
   8   0   1  356.16   48.70
   8   0   1  266.37   36.90
   8   0   1  278.17   31.30
   8   0   1  374.06   34.60
   8   0   1  335.37   24.90
   8   0   1  282.97   24.90
   8   0   2  622.74   63.29
   8   0   2  515.95   47.10
   8   0   2  526.45   49.10
   8   0   2  517.75   39.60
   8   0   2  460.35   38.80
   8   0   2  452.55   35.80
   8   0   3  215.68   39.20
   8   0   3  194.48   28.40
   8   0   3  222.18   24.90
   8   0   3  212.98   24.40
   8   0   3  180.18   24.50
   8   0   4   -7.90   11.30
   8   0   4    3.60    2.50
   8   0   4   14.10    9.00
   8   0   4    9.10    6.10
   8   0   4    9.70    4.60
   8   0   5   30.70   13.40
   8   0   5   27.50   15.60
   8   0   5   32.60   11.20
   8   0   5   31.60    8.20
   8   0   5   17.90    8.90
   8   0   5   22.30   10.50
   8   0   5   29.40    9.30
   8   0   6   57.99   18.50
   8   0   6   39.30   15.80
   8   0   6   55.89   15.00
   8   0   6   67.69   10.00
   8   0   6   85.09   18.80
   8   0   6   49.10   16.40
   8   0   6   73.39   14.80
   8   0   7   40.60   17.70
   8   0   7   56.59   15.40
   8   0   7   34.20   17.70
   8   0   7   34.80   14.40
   8   0   8   42.90   17.00
   8   0   8   38.20   16.30
   8   0   9   35.20   15.70
   8   0  10   48.20   23.80
   8   0  11   10.10   10.20
   8   1  -6   20.00   13.60
   8   1  -5    2.00    9.30
   8   1  -5  -17.00   11.00
   8   1  -4    9.00   10.90
   8   1  -4   -1.20    8.10
   8   1  -3   12.80   13.50
   8   1  -3    4.00    7.90
   8   1  -3    7.00    5.70
   8   1  -2   87.49   27.40
   8   1  -2   69.59   20.10
   8   1  -2   85.19   19.70
   8   1  -1  119.59   29.70
   8   1  -1  102.79   24.60
   8   1  -1   97.49   15.00
   8   1  -1   98.89   19.70
   8   1   0   24.00   12.70
   8   1   0   21.90    6.10
   8   1   0   23.60   13.60
   8   1   0   25.50    9.00
   8   1   1   14.20    8.50
   8   1   1   23.60   12.30
   8   1   1   22.90    9.20
   8   1   1   21.40    5.40
   8   1   1   30.20    9.30
   8   1   2   -3.50   13.30
   8   1   2    2.60    6.00
   8   1   2   11.00    7.80
   8   1   2    1.70    4.60
   8   1   2    3.60    4.10
   8   1   3  129.69   31.80
   8   1   3   81.49   17.20
   8   1   3  127.69   26.40
   8   1   3   85.39   17.00
   8   1   3   78.29   15.70
   8   1   3   85.99   14.00
   8   1   4  170.48   33.30
   8   1   4  193.08   37.50
   8   1   4  158.48   21.60
   8   1   4  153.48   17.80
   8   1   4  168.28   27.90
   8   1   4  161.08   23.90
   8   1   4  154.78   21.30
   8   1   4  131.99   21.60
   8   1   5   47.30   19.10
   8   1   5   63.19   19.90
   8   1   5   63.59   13.00
   8   1   5   70.79   17.70
   8   1   5   54.99   11.70
   8   1   5   46.70   10.10
   8   1   5   42.20   13.70
   8   1   6   52.79   18.00
   8   1   6   46.60   18.70
   8   1   6   55.99   12.00
   8   1   6   80.69   13.80
   8   1   6   74.89   19.40
   8   1   6   45.30   14.90
   8   1   7   79.39   21.80
   8   1   7   94.59   16.60
   8   1   7  135.99   25.10
   8   1   7  115.59   15.60
   8   1   7   93.39   22.10
   8   1   8   13.90    6.80
   8   1   8    2.50    5.90
   8   1   9    9.10   10.00
   8   1  10   19.20   13.10
   8   1  11  114.89   32.10
   8   1  12   63.69   28.30
   8   2  -6   31.30   20.90
   8   2  -5   15.10   17.60
   8   2  -4  -12.20   13.40
   8   2  -3   -4.80   13.00
   8   2  -3   10.40   10.10
   8   2  -3   -2.50    7.40
   8   2  -2   48.40   23.10
   8   2  -2   63.09   18.80
   8   2  -2   57.59   15.10
   8   2  -1    7.90    6.40
   8   2  -1    1.80    2.70
   8   2  -1    4.80    4.30
   8   2   0   77.89   23.20
   8   2   0   43.70   13.80
   8   2   0   57.59    8.30
   8   2   0   50.49   16.70
   8   2   0   67.79   14.10
   8   2   1  105.59   25.00
   8   2   1  161.78   30.50
   8   2   1  165.88   20.30
   8   2   2  458.15   51.99
   8   2   2  419.66   44.50
   8   2   2  415.76   40.20
   8   2   2  410.86   30.30
   8   2   2  410.96   26.80
   8   2   3  452.05   53.39
   8   2   3  355.96   37.70
   8   2   3  454.45   49.60
   8   2   3  469.95   41.80
   8   2   3  434.66   28.90
   8   2   3  440.06   39.70
   8   2   3  440.56   33.70
   8   2   4    8.00   10.80
   8   2   4    7.70    4.70
   8   2   4   33.00   21.60
   8   2   4   20.10   11.50
   8   2   4    9.50    6.00
   8   2   4    8.10    5.70
   8   2   4    9.40    5.60
   8   2   4   -1.10    4.90
   8   2   5   48.40   16.70
   8   2   5   70.69   23.00
   8   2   5   63.39   10.70
   8   2   5   47.70   10.20
   8   2   5   80.99   20.80
   8   2   5   78.09   15.40
   8   2   5   74.99   17.30
   8   2   5   61.59    9.80
   8   2   6   78.39   10.20
   8   2   6  100.69   25.70
   8   2   6   55.19    8.90
   8   2   6  100.79   22.70
   8   2   6   96.29   16.10
   8   2   6   77.29   18.50
   8   2   7   27.10    6.20
   8   2   7   31.60   11.70
   8   2   7   23.00   10.40
   8   2   7   38.90   10.90
   8   2   7   20.10   11.60
   8   2   8   57.19   19.40
   8   2   8   71.79   13.90
   8   2   8   67.89   21.00
   8   2   9   15.90   12.10
   8   2  10   22.70   13.60
   8   2  11   12.30   12.80
   8   2  12   13.40   11.70
   8   3  -6   29.30   26.20
   8   3  -5   36.40   23.60
   8   3  -4   33.20   20.60
   8   3  -3   38.90   20.90
   8   3  -3    3.50    8.80
   8   3  -2  106.29   31.70
   8   3  -2  101.99   23.80
   8   3  -2  112.49   22.10
   8   3  -1  218.08   41.50
   8   3  -1  183.08   30.40
   8   3  -1  151.18   22.30
   8   3  -1  220.58   28.30
   8   3   0   33.00   14.20
   8   3   0   42.30   11.90
   8   3   0   40.20    5.80
   8   3   0   43.60   14.90
   8   3   0   35.40   10.20
   8   3   1    6.60    6.30
   8   3   1   -9.00   10.40
   8   3   1    0.50    3.90
   8   3   1    3.90    4.00
   8   3   2  168.58   30.40
   8   3   2  116.99   20.90
   8   3   2  178.48   28.80
   8   3   2  141.89   15.80
   8   3   2  120.99   11.80
   8   3   3  460.95   53.29
   8   3   3  364.06   37.20
   8   3   3  411.66   52.79
   8   3   3  355.26   21.70
   8   3   3  333.47   35.30
   8   3   3  370.96   39.80
   8   3   3  418.16   29.70
   8   3   4  820.32   70.59
   8   3   4  643.04   40.90
   8   3   4  656.93   78.49
   8   3   4  756.42   66.89
   8   3   4  648.64   47.30
   8   3   4  621.64   25.10
   8   3   4  662.63   50.09
   8   3   4  633.04   43.30
   8   3   5  258.67   41.30
   8   3   5  255.67   45.90
   8   3   5  268.47   39.50
   8   3   5  209.28   25.40
   8   3   5  214.38   27.40
   8   3   5  224.78   28.10
   8   3   6   39.30   20.50
   8   3   6   32.80   12.60
   8   3   6   58.89   14.20
   8   3   6   46.90   13.00
   8   3   7   30.30   14.90
   8   3   7    6.10    3.50
   8   3   7   35.10   15.90
   8   3   7   11.60    7.00
   8   3   8   -2.80    9.10
   8   3   8    1.30    3.40
   8   3   8    2.70    8.90
   8   3   8   -3.70    6.50
   8   3   9   24.10   14.40
   8   3  10   81.29   23.40
   8   3  11  179.28   38.90
   8   3  12  114.99   33.60
   8   4  -5    7.90   13.00
   8   4  -4   22.70   19.40
   8   4  -3  -33.00   18.70
   8   4  -2   13.00    8.90
   8   4  -2    3.70    6.30
   8   4  -1    8.70    8.20
   8   4  -1    8.10    7.10
   8   4  -1   13.50    5.90
   8   4   0   17.10   11.90
   8   4   0    5.10    8.90
   8   4   0    5.00    3.00
   8   4   0    9.40    6.40
   8   4   1   31.70   13.30
   8   4   1    6.00    5.90
   8   4   1   24.80    9.50
   8   4   1   22.90    6.70
   8   4   2  101.19   22.30
   8   4   2  122.39   20.60
   8   4   2  144.79   25.40
   8   4   2  104.09   11.50
   8   4   3  184.98   26.40
   8   4   3  180.08   32.80
   8   4   3  217.78   25.80
   8   4   3  139.89    7.90
   8   4   3  230.58   39.40
   8   4   3  167.28   25.00
   8   4   3  173.68   17.30
   8   4   4   16.00   11.20
   8   4   4   23.90    6.30
   8   4   4   29.50   16.90
   8   4   4   33.80   10.70
   8   4   4   23.10    7.90
   8   4   5   84.09   29.30
   8   4   5   74.89   23.20
   8   4   5   75.89   15.30
   8   4   5   53.99   14.90
   8   4   5   94.49   17.60
   8   4   6  117.69   34.20
   8   4   6  134.99   22.70
   8   4   6  137.69   30.40
   8   4   6  127.39   22.20
   8   4   7  139.69   35.60
   8   4   7  157.18   24.40
   8   4   7  149.29   30.50
   8   4   7  133.09   24.30
   8   4   8  119.19   30.30
   8   4   8  195.98   27.30
   8   4   8  142.09   30.00
   8   4   8  151.78   28.40
   8   4   9   80.69   18.10
   8   4   9  120.09   28.10
   8   4   9   75.69   21.50
   8   4  10   -4.30    8.10
   8   4  11    0.10    9.80
   8   4  12   14.70   13.20
   8   4  13   48.50   26.90
   8   5  -4    0.20   15.50
   8   5  -3    4.50   10.30
   8   5  -2   36.20   18.50
   8   5  -1  131.79   32.10
   8   5  -1  114.09   21.60
   8   5   0  204.28   36.00
   8   5   0  171.58   27.50
   8   5   0  157.08   21.40
   8   5   1   56.59   17.80
   8   5   1   35.80   14.60
   8   5   1   33.30   10.50
   8   5   1   31.80    8.30
   8   5   2   -1.90    4.10
   8   5   2    1.40    3.60
   8   5   2   -0.80    1.60
   8   5   3   40.70   16.30
   8   5   3   28.40   11.20
   8   5   3   46.00   11.50
   8   5   3   22.20   19.60
   8   5   3   39.60   13.40
   8   5   3   36.50    8.10
   8   5   4  341.57   38.20
   8   5   4  392.86   46.40
   8   5   4  313.27   20.50
   8   5   4  373.16   52.39
   8   5   4  306.37   32.40
   8   5   4  346.07   28.30
   8   5   5  109.89   36.10
   8   5   5  208.98   38.50
   8   5   5  169.78   22.30
   8   5   5  160.18   21.70
   8   5   6   15.00   10.30
   8   5   6   22.20   10.40
   8   5   6   17.60    6.00
   8   5   6   17.90    8.70
   8   5   7   11.50    8.30
   8   5   7   -1.70   10.40
   8   5   7    6.40    6.80
   8   5   8   41.90   17.70
   8   5   8   21.80   11.00
   8   5   9    6.00    7.10
   8   5   9    0.20    4.80
   8   5  10   32.50   16.50
   8   5  10   28.40   17.50
   8   5  11   75.69   23.60
   8   5  12  112.99   31.10
   8   5  13   89.39   30.20
   8   6  -4    1.70   13.30
   8   6  -3    9.60   10.80
   8   6  -2   20.80   13.10
   8   6  -1  -15.80   12.20
   8   6   0    4.10    6.60
   8   6   0   37.40   16.50
   8   6   1   29.80   14.50
   8   6   1   39.10   15.20
   8   6   2   30.30   11.80
   8   6   2   37.80   12.90
   8   6   3   60.69   18.30
   8   6   3   45.80   11.60
   8   6   3   48.10   21.20
   8   6   4   44.90   15.40
   8   6   4   33.80   18.10
   8   6   4   27.10    9.00
   8   6   4   30.60    9.00
   8   6   5   10.80   12.60
   8   6   5    1.60    3.40
   8   6   5   16.00    7.40
   8   6   6   99.69   30.50
   8   6   6   81.19   26.40
   8   6   6   79.99   13.80
   8   6   6   56.99   14.60
   8   6   7   56.49   20.80
   8   6   7   43.50   18.00
   8   6   7   38.00   11.30
   8   6   8   52.89   22.30
   8   6   8   56.19   15.90
   8   6   9   83.59   24.80
   8   6   9   83.09   21.10
   8   6  10   27.30   14.20
   8   6  10   19.10   11.50
   8   6  11    6.30   10.80
   8   6  12    6.20   11.30
   8   6  13   38.10   20.90
   8   7  -3    4.40   11.20
   8   7  -2   17.10   15.30
   8   7  -1   56.89   24.20
   8   7   0   66.49   21.70
   8   7   1   12.90    6.60
   8   7   2    6.30    6.50
   8   7   2    0.60    5.90
   8   7   3   78.49   19.80
   8   7   3   96.39   18.60
   8   7   3   79.49   26.10
   8   7   4  247.88   35.70
   8   7   4  274.27   48.40
   8   7   4  233.48   24.30
   8   7   5  289.87   49.10
   8   7   5  266.67   28.50
   8   7   6   44.10   19.50
   8   7   6   23.20    9.30
   8   7   7   21.20   16.90
   8   7   7   -3.30    6.40
   8   7   8   28.70   17.40
   8   7   8   10.80    6.80
   8   7   9   29.30   17.10
   8   7   9   14.60    6.10
   8   7  10   71.59   25.10
   8   7  10   64.89   19.70
   8   7  11   44.50   20.70
   8   7  11   27.70   13.50
   8   7  12   38.00   15.00
   8   7  13   23.10   12.20
   8   8  -2  -37.20   20.50
   8   8  -1  -11.70   11.80
   8   8   0   -8.30    9.70
   8   8   1   59.99   18.80
   8   8   3   11.30    8.20
   8   8   3   35.10   18.90
   8   8   4    6.80    6.80
   8   8   4    7.50   10.60
   8   8   5   15.40   15.90
   8   8   5   18.40    8.40
   8   8   6   41.30   21.50
   8   8   6   90.29   18.70
   8   8   7   58.29   23.60
   8   8   7   63.39   16.10
   8   8   8   37.30   18.40
   8   8   8   38.00   14.10
   8   8   9   93.19   28.80
   8   8   9   47.20   16.10
   8   8  10   -4.50   14.70
   8   8  10   16.40   10.40
   8   8  11   13.10   10.00
   8   8  11    6.10    7.10
   8   8  12    1.40    6.80
   8   8  13   77.79   28.30
   8   9   3    5.40    9.60
   8   9   4   44.20   15.40
   8   9   4   13.90   14.20
   8   9   5   93.09   32.10
   8   9   6  106.89   32.30
   8   9   6  116.89   21.50
   8   9   7    8.50   15.30
   8   9   7    1.70    6.70
   8   9   8   10.40   10.00
   8   9   8  -11.20    8.30
   8   9   9    9.80   11.10
   8   9   9   -3.00    6.20
   8   9  10   35.40   21.20
   8   9  10   56.09   18.90
   8   9  11   74.79   27.00
   8   9  11   56.09   20.00
   8   9  12   34.00   17.20
   8  10   4   15.80   18.70
   8  10   5  -11.10   18.30
   8  10   6   27.00   19.40
   8  10   7   -0.10   14.50
   8  10   7   25.00   10.20
   8  10   8   10.00   10.90
   8  10   8    1.90    5.40
   8  10   9  -15.30   14.70
   8  10   9   10.70    8.40
   8  10  10   13.50   21.50
   8  10  10    6.80    7.20
   8  10  11    1.70    6.60
   8  10  12    7.50   14.10
   8  11   8  -24.20   12.10
   8  11   9    7.90    9.70
   8  11  10   23.60   15.20
   8  11  11    9.40   11.10
   8  12   9   -7.40    8.60
   8  12  10    1.80   10.20
   9  -7  -2    4.40   12.30
   9  -7  -1    0.10    8.10
   9  -7   0   31.60   16.60
   9  -7   1   39.40   20.20
   9  -7   2   31.30   19.10
   9  -6  -4  -16.20   15.60
   9  -6  -4    1.30    9.60
   9  -6  -3    9.70    8.00
   9  -6  -2   90.89   30.60
   9  -6  -2  114.39   28.80
   9  -6  -1   96.59   33.90
   9  -6  -1   80.49   25.20
   9  -6   0   43.40   24.00
   9  -6   0   15.20   11.20
   9  -6   1    9.20   15.40
   9  -6   1   -8.00    9.10
   9  -6   2   21.50   19.40
   9  -6   2   22.30   12.20
   9  -6   3   65.99   27.10
   9  -6   3   74.19   23.50
   9  -6   4   49.99   24.40
   9  -6   4   27.20   15.40
   9  -6   5   17.10   16.50
   9  -5  -5  -23.00   19.20
   9  -5  -5   30.20   17.40
   9  -5  -4   23.60   15.20
   9  -5  -4   72.99   28.80
   9  -5  -4   71.79   24.30
   9  -5  -3  103.99   31.50
   9  -5  -3   59.79   24.70
   9  -5  -3   75.89   22.90
   9  -5  -2   19.60   16.40
   9  -5  -2   -9.50    9.60
   9  -5  -1   16.70   12.20
   9  -5  -1   18.00   11.00
   9  -5   0   59.09   23.70
   9  -5   0   34.40   15.60
   9  -5   1   79.99   28.00
   9  -5   1   50.69   18.50
   9  -5   2   48.80   24.60
   9  -5   2   41.00   16.60
   9  -5   3   41.90   22.10
   9  -5   3   42.00   16.20
   9  -5   4   12.20   14.60
   9  -5   4   -3.90    7.10
   9  -5   5   23.00   14.90
   9  -5   5    5.00    7.40
   9  -5   6   -6.10   13.10
   9  -5   6   -5.50    7.90
   9  -5   7   25.10   16.70
   9  -4  -5   16.80   11.00
   9  -4  -5   21.00   13.70
   9  -4  -4   13.60   13.60
   9  -4  -4    0.10    6.50
   9  -4  -3    2.20   12.90
   9  -4  -3   -4.80    9.00
   9  -4  -3   11.30   11.30
   9  -4  -2  104.29   31.00
   9  -4  -2   89.59   28.20
   9  -4  -2   96.59   24.50
   9  -4  -1  115.69   34.70
   9  -4  -1  146.19   29.30
   9  -4   0   81.79   28.00
   9  -4   0   76.29   20.60
   9  -4   1    5.60   14.70
   9  -4   1   11.30    5.00
   9  -4   2  -27.00   17.40
   9  -4   2    2.20    6.60
   9  -4   3   49.20   21.80
   9  -4   3   70.19   19.00
   9  -4   4   57.89   26.10
   9  -4   4   48.60   16.50
   9  -4   5   77.09   29.50
   9  -4   5   76.79   20.60
   9  -4   6   58.19   24.80
   9  -4   6   49.60   18.30
   9  -4   7   26.80   22.60
   9  -4   7   15.70   10.20
   9  -3  -6  -14.90   13.60
   9  -3  -5    8.00   12.00
   9  -3  -5   39.10   19.30
   9  -3  -4    9.10    9.80
   9  -3  -4    8.80   14.40
   9  -3  -4   35.30   16.90
   9  -3  -3   63.29   24.70
   9  -3  -3   73.19   25.90
   9  -3  -3   64.29   21.80
   9  -3  -2   61.39   21.80
   9  -3  -2    6.30   12.70
   9  -3  -2   40.70   16.40
   9  -3  -1    8.10   10.70
   9  -3  -1   14.00   10.70
   9  -3  -1   23.90   11.90
   9  -3   0   97.29   30.10
   9  -3   0   56.39   14.50
   9  -3   0   95.49   22.70
   9  -3   1   72.39   25.10
   9  -3   1   50.39   15.20
   9  -3   2   12.10   13.60
   9  -3   2   27.30   11.10
   9  -3   3   32.60   19.80
   9  -3   3   18.40   10.20
   9  -3   4   11.80   16.60
   9  -3   4    3.30    6.30
   9  -3   5   -6.20   13.50
   9  -3   5   -3.10    5.70
   9  -3   6    0.50   15.90
   9  -3   6    3.00    6.00
   9  -3   7   35.10   21.30
   9  -3   7    9.90    8.40
   9  -3   8   42.00   27.30
   9  -2  -6   17.70   12.70
   9  -2  -5   -1.30    8.80
   9  -2  -5   -9.50   10.20
   9  -2  -4  -24.10   17.20
   9  -2  -4   -5.00   11.10
   9  -2  -4   11.00   10.30
   9  -2  -3   10.70   12.60
   9  -2  -3   21.90   13.90
   9  -2  -3   30.10   13.40
   9  -2  -2   83.19   26.20
   9  -2  -2   74.19   25.40
   9  -2  -2   79.39   20.90
   9  -2  -1  187.98   36.20
   9  -2  -1  119.49   30.40
   9  -2  -1  159.28   28.30
   9  -2   0   50.89   18.20
   9  -2   0   61.09   23.00
   9  -2   0   46.60   15.40
   9  -2   1   -6.80    9.10
   9  -2   1    3.70    4.20
   9  -2   2    4.00    9.40
   9  -2   2   10.20    5.30
   9  -2   2  -10.20    6.90
   9  -2   3   46.80   19.70
   9  -2   3   30.80    8.70
   9  -2   3   25.40   10.90
   9  -2   4   69.29   24.90
   9  -2   4   55.29   15.20
   9  -2   5  120.99   35.20
   9  -2   5   70.49   17.50
   9  -2   6   57.29   23.50
   9  -2   6   65.79   17.00
   9  -2   7   32.00   22.60
   9  -2   7   41.70   14.20
   9  -2   8   -8.50   13.50
   9  -2   8  -16.70   14.70
   9  -2   9   30.40   23.10
   9  -2   9   55.99   26.50
   9  -1  -6   -5.90    8.90
   9  -1  -5    7.30   12.80
   9  -1  -5   38.20   17.20
   9  -1  -4   10.20    9.60
   9  -1  -4    4.30    9.50
   9  -1  -4   10.00    7.50
   9  -1  -3   69.09   26.20
   9  -1  -3   70.89   25.90
   9  -1  -3   63.59   20.40
   9  -1  -2   43.30   18.70
   9  -1  -2   62.39   22.70
   9  -1  -2   52.29   16.80
   9  -1  -1   14.20    7.90
   9  -1  -1    5.30    5.10
   9  -1   0  210.38   40.20
   9  -1   0  183.08   35.00
   9  -1   0  201.38   29.50
   9  -1   0  146.29   17.20
   9  -1   1  310.47   49.40
   9  -1   1  300.77   41.90
   9  -1   1  368.36   38.20
   9  -1   1  227.98   25.30
   9  -1   2  268.97   46.10
   9  -1   2  208.18   31.10
   9  -1   2  258.47   31.30
   9  -1   3   74.19   25.00
   9  -1   3   78.39   18.40
   9  -1   3   93.69   19.00
   9  -1   4   -9.00    9.70
   9  -1   4    1.90    5.80
   9  -1   4   -9.10   10.00
   9  -1   4   -9.90    9.10
   9  -1   5    6.30   12.10
   9  -1   5   21.30    8.00
   9  -1   5   17.20    9.80
   9  -1   5   37.70   11.90
   9  -1   6   19.90   16.30
   9  -1   6   15.00   10.60
   9  -1   6   16.20    8.70
   9  -1   7  106.89   31.20
   9  -1   7   49.00   19.70
   9  -1   8  188.68   44.90
   9  -1   8  146.19   34.70
   9  -1   9  104.19   35.00
   9  -1   9   96.59   31.20
   9  -1  10   -4.90   20.30
   9  -1  10   16.80   18.70
   9   0  -6   27.90   18.40
   9   0  -5   36.40   24.40
   9   0  -5    6.40    6.90
   9   0  -4   -9.00   12.80
   9   0  -4  -19.10   13.70
   9   0  -4   13.20   12.00
   9   0  -3    1.60    9.10
   9   0  -3  -12.50   11.80
   9   0  -3   17.70   11.40
   9   0  -2   56.99   23.00
   9   0  -2   44.30   20.20
   9   0  -2   41.20   15.40
   9   0  -1  193.28   38.70
   9   0  -1  233.68   40.50
   9   0  -1  185.88   28.80
   9   0   0   23.70   12.20
   9   0   0   43.80   19.10
   9   0   0   35.90   11.40
   9   0   1   -4.00    8.10
   9   0   1    5.80    9.80
   9   0   1   -4.00    4.20
   9   0   1    0.90    4.50
   9   0   2    1.00   10.40
   9   0   2   -5.70    8.80
   9   0   2    0.80    6.20
   9   0   2   -2.90    3.50
   9   0   2    1.70    3.70
   9   0   3   18.30   12.60
   9   0   3   17.30    8.10
   9   0   3   18.80   12.20
   9   0   3   36.40   10.80
   9   0   3   15.30    8.80
   9   0   4   59.49   21.70
   9   0   4   48.80   16.50
   9   0   4   49.70   11.70
   9   0   4   37.80   11.90
   9   0   5   69.19   17.90
   9   0   5   55.79   13.30
   9   0   5   39.50   14.50
   9   0   6  103.99   30.90
   9   0   6   86.79   19.10
   9   0   6   67.69   14.60
   9   0   6   47.20   16.30
   9   0   7  127.79   35.90
   9   0   7   63.59   20.40
   9   0   8    2.40   15.60
   9   0   8   10.80    9.80
   9   0   9   27.00   18.60
   9   0   9   26.30   13.70
   9   0  10  145.09   44.50
   9   0  10  147.09   37.10
   9   1  -6    0.80   10.80
   9   1  -5   28.40   20.30
   9   1  -5    4.70   12.60
   9   1  -4   -6.00   11.00
   9   1  -4    6.40    8.10
   9   1  -3   11.30   10.00
   9   1  -3  -15.60   12.10
   9   1  -3   12.80    8.70
   9   1  -2   23.20   16.50
   9   1  -2   37.80   17.00
   9   1  -2   44.00   14.70
   9   1  -1   11.20   12.00
   9   1  -1   26.00   15.50
   9   1  -1    4.20    5.70
   9   1   0   28.60   16.00
   9   1   0   50.09   22.00
   9   1   0   43.10   12.90
   9   1   1  128.89   31.00
   9   1   1   90.89   23.10
   9   1   1  136.19   20.70
   9   1   2   68.19   23.20
   9   1   2   99.79   22.70
   9   1   2   53.99   20.20
   9   1   2  119.49   18.80
   9   1   2   77.09   13.30
   9   1   3  138.19   31.60
   9   1   3   88.09   19.50
   9   1   3  101.29   19.90
   9   1   3  111.49   26.10
   9   1   3  123.99   18.40
   9   1   3  101.09   17.30
   9   1   4    7.00    9.00
   9   1   4   23.20    9.60
   9   1   4   42.30   12.30
   9   1   4   38.00   14.30
   9   1   4   17.60    5.30
   9   1   4   28.90   11.30
   9   1   5    0.40   14.60
   9   1   5    5.00    5.60
   9   1   5    0.30    7.30
   9   1   5    9.70    5.70
   9   1   5    0.80    4.70
   9   1   6   -3.50   12.80
   9   1   6   16.50    9.50
   9   1   6    4.00    3.60
   9   1   6   -2.70    4.90
   9   1   7   12.00   12.40
   9   1   7   33.90   13.10
   9   1   7   10.50    7.10
   9   1   8   87.49   33.60
   9   1   8   75.89   22.40
   9   1   9   94.89   32.70
   9   1   9   61.09   22.60
   9   1  10   24.00   14.60
   9   1  11  -26.10   17.50
   9   2  -5  -17.40   16.90
   9   2  -5   -6.40    9.00
   9   2  -4   -0.90    8.40
   9   2  -4   -2.20    6.10
   9   2  -3   13.40   11.60
   9   2  -3    8.20   10.80
   9   2  -3    7.40    7.60
   9   2  -2   82.39   29.20
   9   2  -2   76.39   23.70
   9   2  -2   90.29   21.70
   9   2  -1  184.88   39.80
   9   2  -1  165.98   32.00
   9   2  -1  226.98   30.30
   9   2   0  144.89   33.80
   9   2   0   78.49   24.90
   9   2   0  126.29   20.60
   9   2   1    6.70   10.80
   9   2   1  -14.40   12.10
   9   2   1    2.80    3.80
   9   2   2   18.20    8.80
   9   2   2   21.50    5.20
   9   2   2   10.30    5.50
   9   2   3   -0.10    9.40
   9   2   3   25.20   11.30
   9   2   3    4.70    8.30
   9   2   3   26.40    8.40
   9   2   3   21.90    7.50
   9   2   4    0.80    9.80
   9   2   4   37.80   12.60
   9   2   4   19.20   12.20
   9   2   4   32.10   11.80
   9   2   4   45.20   11.50
   9   2   4   24.90    6.70
   9   2   5   37.30   18.90
   9   2   5   14.70    6.30
   9   2   5   28.40   13.40
   9   2   5   28.30   11.00
   9   2   5   35.20   12.80
   9   2   5   18.10    5.20
   9   2   6    8.30   11.20
   9   2   6    8.20    9.00
   9   2   6   -1.50    6.80
   9   2   7   63.39   23.90
   9   2   7   22.20   12.30
   9   2   7   36.20   13.90
   9   2   8   61.09   19.60
   9   2   8   30.10   14.30
   9   2   9   37.30   16.90
   9   2  10   91.99   27.40
   9   2  11  113.49   32.30
   9   3  -4   14.60   21.00
   9   3  -3   22.90   21.00
   9   3  -2   -2.40   11.60
   9   3  -2   -3.00    7.40
   9   3  -2   -1.40    6.50
   9   3  -1    3.10    7.40
   9   3  -1  -16.30   11.70
   9   3  -1  -11.60    7.70
   9   3   0   99.59   27.90
   9   3   0  129.59   29.10
   9   3   0  101.19   17.90
   9   3   1  288.57   42.70
   9   3   1  239.18   24.80
   9   3   1  259.47   40.40
   9   3   2  170.28   33.70
   9   3   2  163.88   29.30
   9   3   2  159.88   17.80
   9   3   3  154.38   33.50
   9   3   3  144.59   25.40
   9   3   3  142.99   31.70
   9   3   3  142.09   14.40
   9   3   3  134.29   15.60
   9   3   4   58.29   21.50
   9   3   4   55.09   12.80
   9   3   4   49.90   19.00
   9   3   4   51.89   11.50
   9   3   4   42.70    6.50
   9   3   5    9.90   13.00
   9   3   5    6.20   11.30
   9   3   5   17.20   10.10
   9   3   5    5.40    5.90
   9   3   6   59.29   21.50
   9   3   6   69.49   22.00
   9   3   6   58.79   15.80
   9   3   6   61.89   16.00
   9   3   7  110.79   26.70
   9   3   7   91.79   20.80
   9   3   8  170.38   33.00
   9   3   8  120.89   25.80
   9   3   9  125.49   28.60
   9   3  10    2.40    9.30
   9   3  11   16.60   14.10
   9   3  12   32.80   23.90
   9   4  -4    4.40   11.50
   9   4  -3   19.30   16.40
   9   4  -2    9.60   12.40
   9   4  -1   42.10   18.00
   9   4  -1   43.50   19.60
   9   4   0  139.89   29.10
   9   4   0  152.58   33.10
   9   4   1    5.40   10.00
   9   4   1    0.10    6.70
   9   4   2   33.40   14.60
   9   4   2   50.49   16.10
   9   4   3   94.89   25.50
   9   4   3   95.89   19.20
   9   4   3   80.39   25.70
   9   4   4  135.39   30.80
   9   4   4  130.99   32.00
   9   4   4  125.29   17.30
   9   4   5  121.99   31.60
   9   4   5  115.59   28.60
   9   4   5   78.19   15.50
   9   4   6   -4.40    8.50
   9   4   6   21.00   12.50
   9   4   6   20.30    9.00
   9   4   7   10.20    7.30
   9   4   7    5.90    5.30
   9   4   8   15.80    9.50
   9   4   8   23.40   11.80
   9   4   9   15.40    9.30
   9   4   9    5.10    5.80
   9   4  10   40.10   18.00
   9   4  11  130.39   32.90
   9   4  12   42.00   22.00
   9   5  -3    4.40   12.10
   9   5  -2   15.60   17.80
   9   5  -1    4.60    8.80
   9   5   0   -8.60    8.80
   9   5   0    8.10   10.50
   9   5   1   69.99   20.80
   9   5   1   63.59   18.70
   9   5   2   64.39   19.20
   9   5   2   51.59   15.70
   9   5   3   14.60   10.20
   9   5   3   26.10   17.70
   9   5   4   62.99   22.00
   9   5   4   78.29   25.40
   9   5   4   38.40    8.90
   9   5   5    2.00    6.90
   9   5   5   -2.60   10.30
   9   5   5   18.20    6.80
   9   5   6   19.60   15.30
   9   5   6    0.40    5.50
   9   5   7   10.90   14.60
   9   5   7   14.20    8.10
   9   5   8   88.29   27.40
   9   5   8   87.49   20.80
   9   5   9  199.18   40.30
   9   5   9  161.68   30.90
   9   5  10   75.39   27.00
   9   5  10   68.19   20.60
   9   5  11    9.00   11.10
   9   5  12   35.80   21.70
   9   6  -2   10.90   15.60
   9   6  -1   28.50   14.90
   9   6   1   14.90   11.50
   9   6   2   -3.80    8.10
   9   6   3   30.70   14.40
   9   6   3   65.99   24.80
   9   6   4   90.79   24.30
   9   6   4   83.19   29.40
   9   6   5   88.49   24.60
   9   6   5  115.99   32.30
   9   6   5   97.09   16.40
   9   6   6   65.39   25.20
   9   6   6   30.80   10.20
   9   6   7   -1.60   12.50
   9   6   7   -0.90    6.40
   9   6   8  -16.40   13.90
   9   6   8   -8.90    9.10
   9   6   9    3.50   11.50
   9   6   9   -0.30    4.80
   9   6  10    9.40   14.50
   9   6  10   20.20   12.50
   9   6  11   25.60   15.50
   9   6  12    7.90    9.50
   9   7   3  -20.20   12.00
   9   7   3    0.30   11.30
   9   7   4  -10.40    9.60
   9   7   4  -21.40   16.40
   9   7   5    6.30    8.30
   9   7   5    0.10   10.30
   9   7   6   14.30   15.90
   9   7   6   19.30    8.30
   9   7   7   49.40   22.50
   9   7   7   29.80   10.40
   9   7   8   51.49   23.90
   9   7   8   25.70   12.40
   9   7   9  110.99   31.80
   9   7   9   62.89   17.50
   9   7  10   60.99   25.30
   9   7  10   80.99   21.60
   9   7  11   24.50   20.00
   9   7  11    9.90   10.10
   9   7  12   12.20   11.10
   9   8   3   -2.40   11.20
   9   8   4   13.80    9.70
   9   8   4   59.39   31.00
   9   8   5   76.49   21.70
   9   8   5   65.49   26.60
   9   8   6   56.29   26.40
   9   8   7   11.90   14.40
   9   8   7    3.20    5.20
   9   8   8  -11.00   13.90
   9   8   8    7.20    7.10
   9   8   9   32.50   19.00
   9   8   9   33.10   14.70
   9   8  10  112.69   33.30
   9   8  10   96.79   24.90
   9   8  11  105.19   35.50
   9   8  11  108.39   27.70
   9   8  12   32.80   18.80
   9   9   5   -5.10    7.80
   9   9   5  -40.00   23.00
   9   9   6    4.90   13.60
   9   9   7   15.70   14.90
   9   9   8   38.90   25.20
   9   9   8   13.90   10.20
   9   9   9   -0.30   12.10
   9   9   9   31.90   14.40
   9   9  10   46.10   17.80
   9   9  11    5.70    8.30
   9   9  12   -0.30    8.40
   9  10   9   13.40   10.60
   9  10  10   10.70   10.40
   9  10  11   12.60   15.10
  10  -6   0   35.90   21.10
  10  -6   1   21.80   18.60
  10  -6   2   17.80   16.30
  10  -5  -3   -1.10   10.40
  10  -5  -2   17.00   14.10
  10  -5  -2   10.80   12.80
  10  -5  -1   40.40   18.70
  10  -5   0    4.70    7.10
  10  -5   1   20.60   13.90
  10  -5   2    1.40    7.70
  10  -5   3  -16.00   11.00
  10  -5   4   41.60   18.80
  10  -5   5   88.09   27.10
  10  -4  -4   17.40   19.00
  10  -4  -3   13.10   15.20
  10  -4  -3   12.60   13.30
  10  -4  -2    3.00   12.60
  10  -4  -2    2.60    8.40
  10  -4  -1    9.80   14.20
  10  -4  -1   -6.90   10.00
  10  -4  -1    5.30    9.60
  10  -4   0   40.60   22.20
  10  -4   0   41.10   15.80
  10  -4   1   45.40   22.00
  10  -4   1   20.20   11.90
  10  -4   2   30.90   13.80
  10  -4   2   27.20   13.90
  10  -4   3   20.60   17.80
  10  -4   3   43.50   16.80
  10  -4   4    5.80    5.90
  10  -4   5   17.90   14.70
  10  -4   6   11.70   11.70
  10  -4   7   -8.20    9.30
  10  -3  -4   13.60   15.90
  10  -3  -4   -6.50    9.00
  10  -3  -3   19.50   16.80
  10  -3  -3  -23.90   17.00
  10  -3  -3  -19.70   13.40
  10  -3  -2   37.70   22.60
  10  -3  -2   -5.70    9.80
  10  -3  -2   28.30   14.90
  10  -3  -1   21.10   17.30
  10  -3  -1   42.20   19.80
  10  -3  -1   15.40   10.70
  10  -3   0   -0.10    6.10
  10  -3   0    4.50   10.40
  10  -3   0    0.80    6.30
  10  -3   1  -35.80   20.20
  10  -3   1   -5.20    8.00
  10  -3   2  -28.30   18.40
  10  -3   2   -0.30    5.20
  10  -3   3   -6.50   13.70
  10  -3   3    2.90    7.20
  10  -3   4   44.30   25.20
  10  -3   4   38.60   14.60
  10  -3   5   72.29   30.20
  10  -3   5   48.00   17.40
  10  -3   6   66.29   20.10
  10  -3   7    9.70    9.20
  10  -2  -5   -5.10   13.20
  10  -2  -4   35.60   26.20
  10  -2  -4   10.90   15.20
  10  -2  -4   41.80   21.60
  10  -2  -3    8.90   12.80
  10  -2  -3   21.30   17.80
  10  -2  -3   27.20   15.40
  10  -2  -2   45.10   23.10
  10  -2  -2   17.20   13.00
  10  -2  -2   24.80   12.70
  10  -2  -1    0.30   10.60
  10  -2  -1    2.60    7.20
  10  -2  -1  -15.70   10.30
  10  -2   0   31.60   15.80
  10  -2   0    7.80   13.10
  10  -2   0   43.70   14.30
  10  -2   1   35.10   17.10
  10  -2   1   75.09   27.20
  10  -2   1   57.79   17.50
  10  -2   2    1.80   11.50
  10  -2   2   46.00   15.20
  10  -2   3   13.70   17.10
  10  -2   3   40.20   14.40
  10  -2   4   20.20   16.90
  10  -2   4   13.30    7.80
  10  -2   5   -1.60    5.80
  10  -2   5    6.90    5.70
  10  -2   6   25.50   19.90
  10  -2   6   33.90   17.10
  10  -2   6   41.40   14.00
  10  -2   7   51.89   24.10
  10  -2   7   57.99   17.00
  10  -2   8   96.39   33.80
  10  -1  -4  -14.50   15.10
  10  -1  -4    5.20   10.90
  10  -1  -4   -4.60    8.60
  10  -1  -3   21.50   15.20
  10  -1  -3   47.30   23.40
  10  -1  -3   42.60   17.50
  10  -1  -2   89.89   31.60
  10  -1  -2   51.69   24.70
  10  -1  -2   63.99   20.10
  10  -1  -1   75.29   27.80
  10  -1  -1   77.09   27.40
  10  -1  -1  117.89   25.40
  10  -1   0   28.60   14.00
  10  -1   0   38.50   20.10
  10  -1   0   37.30   13.90
  10  -1   1   -2.90    9.70
  10  -1   1    4.00    7.00
  10  -1   1    4.90    3.60
  10  -1   2    6.20   11.80
  10  -1   2    3.70    5.20
  10  -1   2  -13.90    9.90
  10  -1   2   -3.40    7.20
  10  -1   3  -21.70   11.40
  10  -1   3    4.40   11.60
  10  -1   3   -0.40    7.10
  10  -1   3    1.70    4.40
  10  -1   4   33.60   18.80
  10  -1   4   41.10   14.40
  10  -1   4   68.19   16.90
  10  -1   5   92.59   29.80
  10  -1   5   79.89   21.70
  10  -1   5  106.39   20.50
  10  -1   6  183.38   43.70
  10  -1   6   89.29   25.00
  10  -1   6  141.49   24.40
  10  -1   7   22.70   21.10
  10  -1   7   17.20    9.50
  10  -1   8   -6.50    9.80
  10  -1   9   15.80   18.00
  10   0  -4   17.80   18.40
  10   0  -3  -22.80   18.00
  10   0  -3    0.90   13.60
  10   0  -3   -9.70    9.50
  10   0  -2    0.90    7.60
  10   0  -2   19.00   15.40
  10   0  -2  -10.50    8.90
  10   0  -1    2.40    7.70
  10   0  -1   -4.90    6.60
  10   0   0   15.10    9.30
  10   0   0   -2.40    8.70
  10   0   0   21.60   10.60
  10   0   1   55.09   20.20
  10   0   1   59.39   24.00
  10   0   1   70.89   16.80
  10   0   2   60.69   25.80
  10   0   2   36.80   14.30
  10   0   2   51.89   18.40
  10   0   2   37.80   11.80
  10   0   3   67.09   26.20
  10   0   3   35.10   13.80
  10   0   3   56.49   17.90
  10   0   3   57.49   14.40
  10   0   3   63.09   15.20
  10   0   4   88.39   29.10
  10   0   4   49.70   16.20
  10   0   4   49.10   15.40
  10   0   4   79.59   16.30
  10   0   4   64.19   15.40
  10   0   5   -0.40   11.00
  10   0   5    8.10    8.10
  10   0   5    4.90    6.00
  10   0   5    6.00    6.10
  10   0   6   45.10   22.00
  10   0   6   42.50   12.50
  10   0   6   30.40   14.70
  10   0   7   86.89   31.10
  10   0   7   76.59   22.60
  10   0   8  135.39   41.10
  10   0   8  130.29   31.30
  10   0   9   24.10   14.80
  10   1  -4   -8.60   13.30
  10   1  -3    4.50   12.00
  10   1  -3   -4.30    9.00
  10   1  -2   31.40   20.00
  10   1  -2   24.00   16.20
  10   1  -1   42.60   22.20
  10   1  -1   24.70   18.60
  10   1   0   45.80   21.70
  10   1   0   36.70   19.00
  10   1   0   23.90   10.70
  10   1   1   -6.30    8.20
  10   1   1   -1.60    8.20
  10   1   1    4.20    6.20
  10   1   2   15.70   16.70
  10   1   2    9.20    9.80
  10   1   2    3.10   10.30
  10   1   2    3.10    5.80
  10   1   3  -27.00   17.00
  10   1   3  -15.60    9.60
  10   1   3  -14.60   13.60
  10   1   4    6.40   14.60
  10   1   4    6.40    7.00
  10   1   4    4.00    4.90
  10   1   5   31.80   18.30
  10   1   5   33.60   15.60
  10   1   5   23.90   10.60
  10   1   6   50.09   22.70
  10   1   6   61.19   18.40
  10   1   6   58.39   18.20
  10   1   7   39.10   20.30
  10   1   7   18.70    9.30
  10   1   7   22.20   10.90
  10   1   8   15.90   15.30
  10   1   8  -10.90   10.30
  10   1   9   16.10   17.40
  10   1   9   -7.10    9.50
  10   1  10   61.09   25.80
  10   2  -3   12.90   18.80
  10   2  -2   -9.30   11.80
  10   2  -2   -1.00    7.50
  10   2  -1  -17.60   13.30
  10   2  -1   -0.30    6.80
  10   2   0   -8.30   14.60
  10   2   0   16.80   12.90
  10   2   1   20.70   15.30
  10   2   1    8.80    9.50
  10   2   2   -2.40    9.60
  10   2   2    5.20    6.20
  10   2   3   17.50   16.40
  10   2   3   12.00    8.70
  10   2   4   54.69   21.90
  10   2   4   52.39   19.40
  10   2   5   15.60   15.40
  10   2   5   38.20   18.70
  10   2   5   27.50    9.60
  10   2   6   32.80   19.30
  10   2   6   12.10   10.20
  10   2   6   14.90    6.20
  10   2   7  109.39   25.20
  10   2   7   80.49   20.80
  10   2   8  140.99   39.10
  10   2   8  202.58   37.50
  10   2   8  115.19   26.20
  10   2   9  110.49   37.60
  10   2   9   70.59   23.20
  10   2  10  -19.00   13.40
  10   2  11   -1.50   16.00
  10   3  -3   16.00   20.10
  10   3  -2   22.80   19.60
  10   3  -1   70.39   26.20
  10   3  -1  104.89   29.90
  10   3   0   86.49   26.80
  10   3   0   69.69   24.90
  10   3   1   18.50   15.10
  10   3   2   11.20   11.70
  10   3   3   13.70   14.60
  10   3   3   19.60   13.70
  10   3   4   64.09   25.00
  10   3   4   57.79   22.40
  10   3   5  116.69   33.50
  10   3   5  106.59   30.20
  10   3   5  121.59   20.10
  10   3   6   50.09   23.40
  10   3   6   47.20   18.60
  10   3   6   64.69   15.80
  10   3   7  -10.10   13.10
  10   3   7   26.10   13.90
  10   3   7   10.40   11.10
  10   3   8   -5.80   11.90
  10   3   8   -8.60   12.30
  10   3   8  -16.20   10.70
  10   3   9   16.20   19.70
  10   3   9   18.50   11.90
  10   3   9   40.00   17.60
  10   3  10   55.29   22.60
  10   3  11   51.09   22.20
  10   4   0   16.60   10.30
  10   4   1   57.59   22.00
  10   4   2   44.80   22.60
  10   4   3  -12.80   12.20
  10   4   3   -5.50   10.20
  10   4   4    0.10    9.60
  10   4   4   13.10   12.10
  10   4   5   33.20   19.60
  10   4   5   24.40   14.00
  10   4   6   10.40   15.50
  10   4   6   27.40   16.60
  10   4   6    5.00    6.40
  10   4   7   58.59   24.70
  10   4   7   31.50   14.60
  10   4   7   68.09   17.40
  10   4   8   92.19   34.00
  10   4   8  104.39   29.80
  10   4   8   79.49   21.00
  10   4   9  115.49   31.50
  10   4   9  116.59   27.10
  10   4  10   34.60   18.10
  10   4  11   -9.80   10.00
  10   5   1   29.30   15.80
  10   5   2   21.90   13.70
  10   5   3   11.40   12.30
  10   5   3  -19.10   15.40
  10   5   4    7.90   11.90
  10   5   4   42.50   20.50
  10   5   5   46.80   21.50
  10   5   5   64.09   25.30
  10   5   6  167.28   38.90
  10   5   6  125.69   34.60
  10   5   7   46.60   21.90
  10   5   7   29.50   20.00
  10   5   7   38.70   12.80
  10   5   8    4.10   10.60
  10   5   8   -3.40    5.10
  10   5   9  -20.50   15.80
  10   5   9    2.30    7.20
  10   5  10   75.49   27.00
  10   5  10   27.20   14.80
  10   5  11   39.00   17.80
  10   6   3    9.00   10.10
  10   6   3  -38.50   20.90
  10   6   4  -31.20   16.30
  10   6   4   23.00   20.50
  10   6   5   23.20   12.80
  10   6   5   17.40   15.70
  10   6   6   12.70   10.50
  10   6   6   -0.40    9.80
  10   6   7    6.30   11.00
  10   6   7   10.20   16.70
  10   6   8    7.40   10.60
  10   6   8   12.70    8.40
  10   6   9   34.40   19.70
  10   6   9    8.80   10.40
  10   6  10    9.70    9.80
  10   6  10    3.50    6.20
  10   6  11  -18.30   15.30
  10   6  11    6.20    9.70
  10   7   4    4.20    8.80
  10   7   4   11.20   17.20
  10   7   5   46.90   20.30
  10   7   5   36.70   21.00
  10   7   6  102.79   31.00
  10   7   6  133.19   39.30
  10   7   7   46.00   22.00
  10   7   7   62.69   26.60
  10   7   8  -24.90   17.60
  10   7   9    7.20   14.90
  10   7   9   -9.90    8.40
  10   7  10    4.70   12.60
  10   7  10   36.70   15.50
  10   7  11    0.10    9.00
  10   8   5    8.30    8.30
  10   8   6    8.00   10.90
  10   8  10   25.60   16.40
  10   8  11    6.20   13.40
  10   9   7   26.40   22.10
  11  -4   0   20.60   17.10
  11  -4   0    2.70    9.50
  11  -4   1   14.50   12.30
  11  -4   2    3.00    5.70
  11  -4   3    6.00    8.20
  11  -3  -1    6.40   14.10
  11  -3  -1    1.50    8.60
  11  -3   0   -0.20   10.10
  11  -3   0  -18.20   11.90
  11  -3   1    3.40    8.40
  11  -3   1   11.70    8.10
  11  -3   2   25.20   13.70
  11  -3   5    8.50   12.80
  11  -2  -2   -0.10   11.30
  11  -2  -1    8.60   11.90
  11  -2   0   -2.80    8.80
  11  -2   6   49.80   24.20
  11  -2   7    1.30   10.00
  11  -1  -2    5.00   11.20
  11  -1  -1    5.20   13.40
  11  -1   1    4.00   14.40
  11  -1   2   16.20   17.10
  11  -1   6   55.59   19.70
  11  -1   7   33.00   20.50
  11  -1   8    3.50   10.70
  11   0  -2    0.10   16.40
  11   0  -1    7.80   12.40
  11   0   0   28.70   20.80
  11   0   1   16.10   15.90
  11   0   2  -21.20   17.30
  11   0   3  -11.30   14.80
  11   0   4   33.80   26.80
  11   0   7   14.90   13.80
  11   0   8   -0.10   11.70
  11   1  -1    8.10   12.30
  11   1   0  -34.80   18.90
  11   1   1   14.20   11.10
  11   1   1    2.30    8.40
  11   1   2    6.50   11.90
  11   1   2   22.60   17.30
  11   1   3   63.39   28.50
  11   1   3   16.90   12.20
  11   1   4   59.09   28.20
  11   1   4   28.90   16.90
  11   1   5   28.60   20.30
  11   1   7   30.30   13.70
  11   1   8   16.50   12.40
  11   1   9   12.10   11.30
  11   2  -1    9.20   17.90
  11   2   0   36.20   20.40
  11   2   1   18.20   16.00
  11   2   2   30.20   19.60
  11   2   2   -1.50    8.60
  11   2   3    2.00   14.60
  11   2   3    8.20   11.80
  11   2   4   35.60   20.40
  11   2   4   58.39   21.80
  11   2   5   69.69   29.40
  11   2   5   91.89   26.90
  11   2   6   84.69   33.80
  11   2   6   82.89   25.70
  11   2   8   -0.10    8.60
  11   2   9  -14.00   11.30
  11   2  10    5.70   11.50
  11   3   0    2.90   12.80
  11   3   1   -6.20   11.40
  11   3   2   25.40   17.00
  11   3   2   31.60   18.80
  11   3   3   24.50   19.30
  11   3   3    7.70   13.10
  11   3   4   17.00   10.40
  11   3   4   37.70   22.30
  11   3   5  -11.40   13.60
  11   3   5   25.00   17.60
  11   3   6    7.30   13.90
  11   3   6  -28.80   16.70
  11   3   7  119.59   39.20
  11   3   7   92.19   28.30
  11   3   8   61.19   22.20
  11   3   9   37.40   17.30
  11   3  10    2.90   10.40
  11   4   2   32.20   21.10
  11   4   2    3.90   10.50
  11   4   3   17.80   20.10
  11   4   3    5.30   10.90
  11   4   4   15.00   17.20
  11   4   4   16.90   15.60
  11   4   5   72.19   29.50
  11   4   5  137.29   37.00
  11   4   6   80.59   30.30
  11   4   6   69.79   28.40
  11   4   7   15.90   14.50
  11   4   7   -3.50   10.90
  11   4   8   12.40   17.60
  11   4   9   25.30   21.00
  11   4  10    0.30    8.30
  11   5   3   14.30   16.20
  11   5   3  -21.20   17.40
  11   5   4    7.60   11.60
  11   5   4    0.70   15.90
  11   5   5    3.30    9.70
  11   5   5   34.10   22.00
  11   5   6  -20.80   16.00
  11   5   6    0.10   18.00
  11   5   7   58.39   29.70
  11   5   7   38.10   21.30
  11   5   8   35.60   23.30
  11   5   9    0.10   14.00
  11   5  10   26.50   22.80
  11   6   4   -6.50   11.00
  11   6   5   30.00   19.80
  11   6   5   28.50   25.00
  11   6   6   30.70   19.70
  11   6   6   91.29   36.10
  11   6   7   19.60   16.20
  11   6   7   19.00   16.10
  11   6   8   -8.90   14.10
  11   6   9    0.10   24.00
  11   7   5   -1.60    9.80
  11   7   6   24.60   20.60
  11   7   7   46.20   26.80
   0   0   0    0.00    0.00

_computing_structure_solution     'SHELXT 2014/5 (Sheldrick, 2014)'
;
_shelx_hkl_checksum              2928
loop_
_space_group_symop_operation_xyz
'x, y, z'
'-x, -y, -z'
loop_
_atom_site_label
_atom_site_type_symbol
_atom_site_fract_x
_atom_site_fract_y
_atom_site_fract_z
_atom_site_U_iso_or_equiv
_atom_site_adp_type
_atom_site_occupancy
_atom_site_site_symmetry_order
_atom_site_calc_flag
_atom_site_refinement_flags_posn
_atom_site_refinement_flags_adp
_atom_site_refinement_flags_occupancy
_atom_site_disorder_assembly
_atom_site_disorder_group
In1 In 0.23359(3) 0.74926(3) 0.58182(3) 0.03602(13) Uani 1 1 d . . . . .
Cl1 Cl 0.46268(14) 0.73100(14) 0.67399(13) 0.0497(3) Uani 1 1 d . . . . .
Cl2 Cl 0.39243(15) 0.85486(14) 0.35073(13) 0.0513(3) Uani 1 1 d . . . . .
Cl3 Cl 0.21360(17) 0.52137(12) 0.58635(14) 0.0541(3) Uani 1 1 d . . . . .
Cl4 Cl 0.03066(16) 0.68616(15) 0.79729(13) 0.0565(3) Uani 1 1 d . . . . .
N1 N 0.0069(4) 0.8364(4) 0.4915(4) 0.0353(8) Uani 1 1 d . . . . .
N2 N -0.1747(4) 1.0227(4) 0.4357(4) 0.0357(8) Uani 1 1 d . . . . .
C1 C -0.0764(5) 0.7695(5) 0.4533(5) 0.0412(11) Uani 1 1 d . . . . .
H1 H -0.042035 0.682344 0.458718 0.049 Uiso 1 1 calc R U . . .
C2 C -0.2094(5) 0.8246(5) 0.4068(5) 0.0431(11) Uani 1 1 d . . . . .
H2 H -0.266472 0.776640 0.381121 0.052 Uiso 1 1 calc R U . . .
C3 C -0.2566(5) 0.9537(5) 0.3993(5) 0.0407(11) Uani 1 1 d . . . . .
H3 H -0.347540 0.993770 0.368154 0.049 Uiso 1 1 calc R U . . .
C4 C -0.0464(5) 0.9618(4) 0.4798(4) 0.0298(9) Uani 1 1 d . . . . .
N3 N 0.4853(5) 0.3653(4) 0.8970(4) 0.0488(10) Uani 1 1 d . . . . .
C5 C 0.5817(7) 0.4036(5) 0.7744(5) 0.0515(13) Uani 1 1 d . . . . .
H5 H 0.537978 0.418423 0.704534 0.062 Uiso 1 1 calc R U . . .
C6 C 0.7459(7) 0.4208(6) 0.7521(6) 0.0637(15) Uani 1 1 d . . . . .
H6 H 0.813459 0.445960 0.666891 0.076 Uiso 1 1 calc R U . . .
C7 C 0.8112(7) 0.4018(6) 0.8524(7) 0.0668(16) Uani 1 1 d . . . . .
H7 H 0.922021 0.416385 0.836698 0.080 Uiso 1 1 calc R U . . .
C8 C 0.7095(8) 0.3605(7) 0.9778(7) 0.0712(17) Uani 1 1 d . . . . .
H8 H 0.751271 0.344640 1.048916 0.085 Uiso 1 1 calc R U . . .
C9 C 0.5492(7) 0.3430(6) 0.9976(6) 0.0589(14) Uani 1 1 d . . . . .
H9 H 0.481031 0.314814 1.082968 0.071 Uiso 1 1 calc R U . . .
C10 C 0.3054(7) 0.3491(8) 0.9205(7) 0.0778(19) Uani 1 1 d . . . . .
H10A H 0.249738 0.354203 1.003615 0.093 Uiso 1 1 calc R U . . .
H10B H 0.268670 0.426047 0.850508 0.093 Uiso 1 1 calc R U . . .
C11 C 0.2573(9) 0.2228(9) 0.9251(8) 0.103(3) Uani 1 1 d . . . . .
H11A H 0.140901 0.224852 0.933275 0.123 Uiso 1 1 calc R U . . .
H11B H 0.313053 0.216473 0.842532 0.123 Uiso 1 1 calc R U . . .
C12 C 0.2919(11) 0.1092(9) 1.0278(10) 0.121(3) Uani 1 1 d . . . . .
H12A H 0.255277 0.123651 1.108163 0.146 Uiso 1 1 calc R U . . .
H12B H 0.409132 0.096324 1.010417 0.146 Uiso 1 1 calc R U . . .
C13 C 0.2044(14) -0.0300(10) 1.0504(13) 0.186(6) Uani 1 1 d . . . . .
H13A H 0.247780 -0.049368 0.974135 0.278 Uiso 1 1 calc R U . . .
H13B H 0.088897 -0.015879 1.063072 0.278 Uiso 1 1 calc R U . . .
H13C H 0.225309 -0.106389 1.127401 0.278 Uiso 1 1 calc R U . . .
loop_
_atom_site_aniso_label
_atom_site_aniso_U_11
_atom_site_aniso_U_22
_atom_site_aniso_U_33
_atom_site_aniso_U_23
_atom_site_aniso_U_13
_atom_site_aniso_U_12
In1 0.03553(19) 0.0347(2) 0.0439(2) -0.01962(16) -0.01673(15) 0.00678(13)
Cl1 0.0446(6) 0.0577(8) 0.0530(8) -0.0230(6) -0.0263(6) 0.0099(5)
Cl2 0.0466(6) 0.0645(8) 0.0442(7) -0.0234(6) -0.0112(5) -0.0046(6)
Cl3 0.0709(8) 0.0367(6) 0.0658(9) -0.0271(6) -0.0288(7) 0.0093(6)
Cl4 0.0518(7) 0.0676(9) 0.0488(8) -0.0274(7) -0.0035(6) -0.0071(6)
N1 0.0331(18) 0.0335(19) 0.049(2) -0.0243(18) -0.0145(17) 0.0047(15)
N2 0.0326(18) 0.036(2) 0.043(2) -0.0196(18) -0.0138(16) 0.0027(15)
C1 0.043(2) 0.035(2) 0.053(3) -0.024(2) -0.017(2) 0.005(2)
C2 0.040(2) 0.044(3) 0.062(3) -0.034(3) -0.022(2) 0.002(2)
C3 0.036(2) 0.044(3) 0.054(3) -0.026(2) -0.023(2) 0.004(2)
C4 0.0273(19) 0.030(2) 0.036(2) -0.0172(19) -0.0080(17) -0.0026(16)
N3 0.055(2) 0.053(3) 0.044(3) -0.022(2) -0.020(2) 0.005(2)
C5 0.076(4) 0.040(3) 0.039(3) -0.015(2) -0.021(3) 0.006(3)
C6 0.070(4) 0.050(3) 0.062(4) -0.023(3) -0.006(3) 0.006(3)
C7 0.057(3) 0.055(4) 0.090(5) -0.031(4) -0.020(4) -0.002(3)
C8 0.086(4) 0.072(4) 0.076(5) -0.035(4) -0.046(4) 0.008(3)
C9 0.074(4) 0.063(4) 0.049(3) -0.029(3) -0.022(3) 0.008(3)
C10 0.055(4) 0.098(6) 0.072(5) -0.028(4) -0.016(3) -0.006(3)
C11 0.085(5) 0.104(6) 0.109(7) -0.036(6) -0.024(5) -0.002(5)
C12 0.126(7) 0.095(6) 0.164(10) -0.054(7) -0.083(7) 0.036(6)
C13 0.243(14) 0.086(7) 0.250(16) -0.046(9) -0.140(13) 0.006(8)
loop_
_atom_type_symbol
_atom_type_description
_atom_type_scat_dispersion_real
_atom_type_scat_dispersion_imag
_atom_type_scat_source
C C 0.0033 0.0016 'International Tables Vol C Tables 4.2.6.8 and 6.1.1.4'
H H 0.0000 0.0000 'International Tables Vol C Tables 4.2.6.8 and 6.1.1.4'
Cl Cl 0.1484 0.1585 'International Tables Vol C Tables 4.2.6.8 and 6.1.1.4'
In In -0.7276 1.3100 'International Tables Vol C Tables 4.2.6.8 and 6.1.1.4'
N N 0.0061 0.0033 'International Tables Vol C Tables 4.2.6.8 and 6.1.1.4'
loop_
_geom_angle_atom_site_label_1
_geom_angle_atom_site_label_2
_geom_angle_atom_site_label_3
_geom_angle
_geom_angle_site_symmetry_1
_geom_angle_site_symmetry_3
_geom_angle_publ_flag
N1 In1 N2 69.77(11) . 2_576 ?
N1 In1 Cl1 162.00(9) . . ?
N2 In1 Cl1 92.24(9) 2_576 . ?
N1 In1 Cl2 84.17(10) . . ?
N2 In1 Cl2 86.96(10) 2_576 . ?
Cl1 In1 Cl2 95.00(4) . . ?
N1 In1 Cl3 93.33(9) . . ?
N2 In1 Cl3 162.72(9) 2_576 . ?
Cl1 In1 Cl3 104.64(4) . . ?
Cl2 In1 Cl3 95.08(5) . . ?
N1 In1 Cl4 84.63(10) . . ?
N2 In1 Cl4 82.93(10) 2_576 . ?
Cl1 In1 Cl4 93.60(5) . . ?
Cl2 In1 Cl4 166.97(5) . . ?
Cl3 In1 Cl4 92.19(5) . . ?
C4 N1 C1 116.4(4) . . ?
C4 N1 In1 117.9(3) . . ?
C1 N1 In1 125.7(3) . . ?
C4 N2 C3 117.4(4) . . ?
C4 N2 In1 117.4(3) . 2_576 ?
C3 N2 In1 125.2(3) . 2_576 ?
N1 C1 C2 122.2(4) . . ?
N1 C1 H1 118.9 . . ?
C2 C1 H1 118.9 . . ?
C1 C2 C3 117.5(4) . . ?
C1 C2 H2 121.3 . . ?
C3 C2 H2 121.3 . . ?
N2 C3 C2 121.4(4) . . ?
N2 C3 H3 119.3 . . ?
C2 C3 H3 119.3 . . ?
N2 C4 N1 125.2(3) . . ?
N2 C4 C4 117.9(4) . 2_576 ?
N1 C4 C4 116.9(4) . 2_576 ?
C5 N3 C9 120.0(5) . . ?
C5 N3 C10 119.3(5) . . ?
C9 N3 C10 120.7(5) . . ?
N3 C5 C6 119.5(5) . . ?
N3 C5 H5 120.3 . . ?
C6 C5 H5 120.3 . . ?
C7 C6 C5 121.0(6) . . ?
C7 C6 H6 119.5 . . ?
C5 C6 H6 119.5 . . ?
C6 C7 C8 118.2(6) . . ?
C6 C7 H7 120.9 . . ?
C8 C7 H7 120.9 . . ?
C9 C8 C7 119.8(6) . . ?
C9 C8 H8 120.1 . . ?
C7 C8 H8 120.1 . . ?
N3 C9 C8 121.4(6) . . ?
N3 C9 H9 119.3 . . ?
C8 C9 H9 119.3 . . ?
C11 C10 N3 115.0(6) . . ?
C11 C10 H10A 108.5 . . ?
N3 C10 H10A 108.5 . . ?
C11 C10 H10B 108.5 . . ?
N3 C10 H10B 108.5 . . ?
H10A C10 H10B 107.5 . . ?
C12 C11 C10 112.6(8) . . ?
C12 C11 H11A 109.1 . . ?
C10 C11 H11A 109.1 . . ?
C12 C11 H11B 109.1 . . ?
C10 C11 H11B 109.1 . . ?
H11A C11 H11B 107.8 . . ?
C11 C12 C13 112.0(8) . . ?
C11 C12 H12A 109.2 . . ?
C13 C12 H12A 109.2 . . ?
C11 C12 H12B 109.2 . . ?
C13 C12 H12B 109.2 . . ?
H12A C12 H12B 107.9 . . ?
C12 C13 H13A 109.5 . . ?
C12 C13 H13B 109.5 . . ?
H13A C13 H13B 109.5 . . ?
C12 C13 H13C 109.5 . . ?
H13A C13 H13C 109.5 . . ?
H13B C13 H13C 109.5 . . ?
loop_
_geom_bond_atom_site_label_1
_geom_bond_atom_site_label_2
_geom_bond_distance
_geom_bond_site_symmetry_2
_geom_bond_publ_flag
In1 N1 2.365(3) . ?
In1 N2 2.378(4) 2_576 ?
In1 Cl1 2.4313(11) . ?
In1 Cl2 2.4436(13) . ?
In1 Cl3 2.4537(12) . ?
In1 Cl4 2.4626(14) . ?
N1 C4 1.335(5) . ?
N1 C1 1.339(5) . ?
N2 C4 1.323(5) . ?
N2 C3 1.332(5) . ?
C1 C2 1.357(6) . ?
C1 H1 0.9300 . ?
C2 C3 1.373(6) . ?
C2 H2 0.9300 . ?
C3 H3 0.9300 . ?
C4 C4 1.488(7) 2_576 ?
N3 C5 1.334(6) . ?
N3 C9 1.341(6) . ?
N3 C10 1.500(7) . ?
C5 C6 1.371(8) . ?
C5 H5 0.9300 . ?
C6 C7 1.355(8) . ?
C6 H6 0.9300 . ?
C7 C8 1.372(9) . ?
C7 H7 0.9300 . ?
C8 C9 1.344(8) . ?
C8 H8 0.9300 . ?
C9 H9 0.9300 . ?
C10 C11 1.438(10) . ?
C10 H10A 0.9700 . ?
C10 H10B 0.9700 . ?
C11 C12 1.360(10) . ?
C11 H11A 0.9700 . ?
C11 H11B 0.9700 . ?
C12 C13 1.635(12) . ?
C12 H12A 0.9700 . ?
C12 H12B 0.9700 . ?
C13 H13A 0.9600 . ?
C13 H13B 0.9600 . ?
C13 H13C 0.9600 . ?
loop_
_geom_hbond_atom_site_label_D
_geom_hbond_atom_site_label_H
_geom_hbond_atom_site_label_A
_geom_hbond_distance_DH
_geom_hbond_distance_HA
_geom_hbond_distance_DA
_geom_hbond_angle_DHA
_geom_hbond_site_symmetry_A
_geom_hbond_publ_flag
C1 H1 Cl3 0.93 2.94 3.562(5) 125.1 . yes
C3 H3 Cl1 0.93 2.88 3.506(5) 125.4 2_576 yes
C3 H3 Cl2 0.93 2.91 3.554(4) 127.3 1_455 yes
C6 H6 Cl3 0.93 2.87 3.615(7) 137.5 2_666 yes
C8 H8 Cl4 0.93 2.82 3.719(6) 162.2 2_667 yes
C9 H9 Cl1 0.93 2.81 3.507(6) 132.4 2_667 yes
C10 H10A Cl4 0.97 2.74 3.602(7) 148.4 2_567 yes
C10 H10B Cl3 0.97 2.94 3.766(7) 144.2 . yes
loop_
_geom_torsion_atom_site_label_1
_geom_torsion_atom_site_label_2
_geom_torsion_atom_site_label_3
_geom_torsion_atom_site_label_4
_geom_torsion
_geom_torsion_site_symmetry_1
_geom_torsion_site_symmetry_2
_geom_torsion_site_symmetry_3
_geom_torsion_site_symmetry_4
_geom_torsion_publ_flag
C4 N1 C1 C2 -1.0(7) . . . . ?
In1 N1 C1 C2 177.5(4) . . . . ?
N1 C1 C2 C3 0.4(8) . . . . ?
C4 N2 C3 C2 -0.2(7) . . . . ?
In1 N2 C3 C2 176.8(3) 2_576 . . . ?
C1 C2 C3 N2 0.2(8) . . . . ?
C3 N2 C4 N1 -0.5(7) . . . . ?
In1 N2 C4 N1 -177.7(3) 2_576 . . . ?
C3 N2 C4 C4 179.8(5) . . . 2_576 ?
In1 N2 C4 C4 2.5(6) 2_576 . . 2_576 ?
C1 N1 C4 N2 1.0(7) . . . . ?
In1 N1 C4 N2 -177.5(3) . . . . ?
C1 N1 C4 C4 -179.2(5) . . . 2_576 ?
In1 N1 C4 C4 2.2(6) . . . 2_576 ?
C9 N3 C5 C6 -0.5(7) . . . . ?
C10 N3 C5 C6 178.9(5) . . . . ?
N3 C5 C6 C7 -1.1(8) . . . . ?
C5 C6 C7 C8 2.0(9) . . . . ?
C6 C7 C8 C9 -1.4(9) . . . . ?
C5 N3 C9 C8 1.1(8) . . . . ?
C10 N3 C9 C8 -178.3(6) . . . . ?
C7 C8 C9 N3 -0.1(9) . . . . ?
C5 N3 C10 C11 78.6(8) . . . . ?
C9 N3 C10 C11 -102.0(7) . . . . ?
N3 C10 C11 C12 63.4(10) . . . . ?
C10 C11 C12 C13 168.3(8) . . . . ?
