#------------------------------------------------------------------------------
#$Date: 2021-11-19 01:58:09 +0200 (Fri, 19 Nov 2021) $
#$Revision: 270752 $
#$URL: file:///home/coder/svn-repositories/cod/cif/7/70/88/7708870.cif $
#------------------------------------------------------------------------------
#
# This file is available in the Crystallography Open Database (COD),
# http://www.crystallography.net/
#
# All data on this site have been placed in the public domain by the
# contributors.
#
data_7708870
loop_
_publ_author_name
'Huang, Xing'
'Zhao, Zhiying'
'Wang, Yanqi'
'Zhang, Mengsi'
'He, Zhangzhen'
_publ_section_title
;
 Synthesis, structure and magnetic properties of two new spin-chain
 compounds Ca2Ni(HSeO3)2(SeO3)2 and Na2Cu(SeO3)2&#x00B7;2H2O
;
_journal_name_full               'Dalton Transactions'
_journal_paper_doi               10.1039/D1DT03058B
_journal_year                    2021
_chemical_formula_moiety         'Cu H4 Na2 O8 Se2'
_chemical_formula_sum            'Cu H4 Na2 O8 Se2'
_chemical_formula_weight         399.47
_space_group_crystal_system      triclinic
_space_group_IT_number           2
_space_group_name_Hall           '-P 1'
_space_group_name_H-M_alt        'P -1'
_atom_sites_solution_hydrogens   difmap
_atom_sites_solution_primary     dual
_audit_creation_date             2021-04-30
_audit_creation_method
;
Olex2 1.2
(compiled 2018.05.29 svn.r3508 for OlexSys, GUI svn.r5506)
;
_cell_angle_alpha                103.914(2)
_cell_angle_beta                 104.661(2)
_cell_angle_gamma                105.325(2)
_cell_formula_units_Z            1
_cell_length_a                   5.19270(10)
_cell_length_b                   5.9081(2)
_cell_length_c                   7.5358(2)
_cell_measurement_reflns_used    2795
_cell_measurement_temperature    293
_cell_measurement_theta_max      32.7600
_cell_measurement_theta_min      3.7590
_cell_volume                     203.670(11)
_computing_cell_refinement       'CrysAlisPro 1.171.39.46c (Rigaku OD, 2018)'
_computing_data_collection       'CrysAlisPro 1.171.39.46c (Rigaku OD, 2018)'
_computing_data_reduction        'CrysAlisPro 1.171.39.46c (Rigaku OD, 2018)'
_computing_molecular_graphics    'Olex2 (Dolomanov et al., 2009)'
_computing_publication_material  'Olex2 (Dolomanov et al., 2009)'
_computing_structure_refinement  'ShelXL (Sheldrick, 2015)'
_computing_structure_solution    'ShelXT (Sheldrick, 2015)'
_diffrn_ambient_temperature      293
_diffrn_detector                 'CCD plate'
_diffrn_measured_fraction_theta_full 0.992
_diffrn_measured_fraction_theta_max 0.924
_diffrn_measurement_details
;
List of Runs (angles in degrees, time in seconds):

  # Type    Start    End  Width  t~exp~   \w     \q     \k     \f   Frames
--------------------------------------------------------------------------
  1  \w   -115.00  65.00   0.50    5.00    --  -25.00  45.00   0.00  360
  2  \w   -115.00  65.00   0.50    5.00    --  -25.00  45.00  90.00  360
  3  \w   -115.00  65.00   0.50    5.00    --  -25.00  45.00 180.00  360
;
_diffrn_measurement_device       'abstract diffractometer'
_diffrn_measurement_device_type
'dtrek-CrysAlisPro-abstract goniometer imported rigaku-d*trek images'
_diffrn_measurement_method       '\w scans'
_diffrn_orient_matrix_type
'CrysAlisPro convention (1999,Acta A55,543-557)'
_diffrn_orient_matrix_UB_11      0.0712795000
_diffrn_orient_matrix_UB_12      -0.0495073000
_diffrn_orient_matrix_UB_13      0.0658853000
_diffrn_orient_matrix_UB_21      -0.1247278000
_diffrn_orient_matrix_UB_22      -0.1055324000
_diffrn_orient_matrix_UB_23      -0.0306817000
_diffrn_orient_matrix_UB_31      0.0448667000
_diffrn_orient_matrix_UB_32      -0.0615929000
_diffrn_orient_matrix_UB_33      -0.0730462000
_diffrn_radiation_monochromator  graphite
_diffrn_radiation_probe          x-ray
_diffrn_radiation_type           MoK\a
_diffrn_radiation_wavelength     0.71073
_diffrn_reflns_av_R_equivalents  0.0267
_diffrn_reflns_av_unetI/netI     0.0216
_diffrn_reflns_Laue_measured_fraction_full 0.992
_diffrn_reflns_Laue_measured_fraction_max 0.924
_diffrn_reflns_limit_h_max       7
_diffrn_reflns_limit_h_min       -7
_diffrn_reflns_limit_k_max       8
_diffrn_reflns_limit_k_min       -8
_diffrn_reflns_limit_l_max       11
_diffrn_reflns_limit_l_min       -11
_diffrn_reflns_number            3242
_diffrn_reflns_point_group_measured_fraction_full 0.992
_diffrn_reflns_point_group_measured_fraction_max 0.924
_diffrn_reflns_theta_full        25.242
_diffrn_reflns_theta_max         33.140
_diffrn_reflns_theta_min         2.959
_diffrn_source                   'fine-focus sealed X-ray tube'
_diffrn_source_type              'Enhance (Mo) X-ray Source'
_exptl_absorpt_coefficient_mu    11.732
_exptl_absorpt_correction_T_max  1.00000
_exptl_absorpt_correction_T_min  0.60210
_exptl_absorpt_correction_type   multi-scan
_exptl_absorpt_process_details
;
CrysAlisPro 1.171.39.46c (Rigaku Oxford Diffraction, 2018)
Empirical absorption correction using spherical harmonics,
 implemented in SCALE3 ABSPACK scaling algorithm.
;
_exptl_crystal_colour            bluish
_exptl_crystal_colour_modifier   bluish
_exptl_crystal_density_diffrn    3.257
_exptl_crystal_description       prism
_exptl_crystal_F_000             187
_refine_diff_density_max         0.510
_refine_diff_density_min         -1.084
_refine_diff_density_rms         0.197
_refine_ls_extinction_method     none
_refine_ls_goodness_of_fit_ref   1.110
_refine_ls_hydrogen_treatment    refall
_refine_ls_matrix_type           full
_refine_ls_number_parameters     69
_refine_ls_number_reflns         1425
_refine_ls_number_restraints     0
_refine_ls_restrained_S_all      1.110
_refine_ls_R_factor_all          0.0210
_refine_ls_R_factor_gt           0.0192
_refine_ls_shift/su_max          0.001
_refine_ls_shift/su_mean         0.000
_refine_ls_structure_factor_coef Fsqd
_refine_ls_weighting_details
'w=1/[\s^2^(Fo^2^)+(0.0256P)^2^+0.0105P] where P=(Fo^2^+2Fc^2^)/3'
_refine_ls_weighting_scheme      calc
_refine_ls_wR_factor_gt          0.0428
_refine_ls_wR_factor_ref         0.0433
_reflns_Friedel_coverage         0.000
_reflns_number_gt                1362
_reflns_number_total             1425
_reflns_threshold_expression     'I > 2\s(I)'
_cod_data_source_file            d1dt03058b2.cif
_cod_data_source_block           nacuseo
_cod_original_cell_volume        203.670(10)
_cod_database_code               7708870
_shelx_shelxl_version_number     2016/6
_shelx_space_group_comment
;
The symmetry employed for this shelxl refinement is uniquely defined
by the following loop, which should always be used as a source of
symmetry information in preference to the above space-group names.
They are only intended as comments.
;
_reflns_odcompleteness_completeness 92.68
_reflns_odcompleteness_iscentric 1
_reflns_odcompleteness_theta     33.06
_olex2_refinement_description
;
;
_shelx_res_file
;
TITL nacuseo_a.res in P-1
    nacuseo.res
    created by SHELXL-2016/6 at 20:33:36 on 30-Apr-2021
REM Old TITL nacuseo_a.res in P-1
REM SHELXT solution in P-1
REM R1 0.063, Rweak 0.009, Alpha 0.029, Orientation as input
REM Formula found by SHELXT: Na2 Cu Se2 O8
CELL 0.71073 5.1927 5.9081 7.5358 103.914 104.661 105.325
ZERR 1 0.0001 0.0002 0.0002 0.002 0.002 0.002
LATT 1
SFAC Cu H Na O Se
UNIT 1 4 2 8 2

L.S. 4 0 0
PLAN  20
TEMP 19.85
list 4
fmap 2 53
acta
OMIT 0 -1 1
OMIT 0 2 1
OMIT -1 -1 2
OMIT 1 -2 1
OMIT -1 1 2
OMIT 0 -3 3
REM <olex2.extras>
REM <HklSrc "%.\\NaCuSeO.hkl">
REM </olex2.extras>

WGHT    0.025600    0.010500
FVAR       1.15926
SE1   5    1.053695    0.931511    0.734199    11.00000    0.01031    0.01362 =
         0.01551    0.00679    0.00450    0.00384
CU1   1    0.500000    1.000000    0.500000    10.50000    0.00994    0.01554 =
         0.01859    0.01100    0.00718    0.00645
NA1   3    0.320045    0.512528    0.667077    11.00000    0.01842    0.01951 =
         0.02689    0.01037    0.00855    0.00848
O1    4    1.114343    0.741562    0.860087    11.00000    0.01967    0.02860 =
         0.02117    0.01711    0.00552    0.00978
O2    4    0.693999    0.803535    0.625311    11.00000    0.00952    0.01848 =
         0.02288    0.01246    0.00638    0.00614
O3    4    1.150744    0.815271    0.539260    11.00000    0.01233    0.01723 =
         0.01910    0.00858    0.00853    0.00575
O4    4    0.650754    0.346359    0.808541    11.00000    0.01861    0.02732 =
         0.02360    0.01458    0.00269    0.00427
H4B   2    0.719239    0.301591    0.897228    11.00000    0.03386
H4A   2    0.784244    0.451084    0.824851    11.00000    0.04431
HKLF 4




REM  nacuseo_a.res in P-1
REM R1 =  0.0192 for    1362 Fo > 4sig(Fo)  and  0.0210 for all    1425 data
REM     69 parameters refined using      0 restraints

END

WGHT      0.0256      0.0104

REM Highest difference peak  0.510,  deepest hole -1.084,  1-sigma level  0.197
Q1    1   0.9346  0.3638  0.9682  11.00000  0.05    0.51
Q2    1   1.0367  0.4616  0.9480  11.00000  0.05    0.49
Q3    1   0.1996  0.3421  0.7534  11.00000  0.05    0.48
Q4    1   0.9350  0.2945  0.8236  11.00000  0.05    0.48
Q5    1   0.6744  0.2989  0.9368  11.00000  0.05    0.47
Q6    1   1.0342  0.3874  0.9203  11.00000  0.05    0.47
Q7    1   0.6206  0.2390  1.0199  11.00000  0.05    0.45
Q8    1   0.4611  0.6216  0.7628  11.00000  0.05    0.45
Q9    1   0.9926  0.2803  0.8164  11.00000  0.05    0.45
Q10   1   0.3951  0.4555  0.7625  11.00000  0.05    0.45
Q11   1   0.6201  0.4165  0.8958  11.00000  0.05    0.42
Q12   1   0.8620  0.8377  0.9765  11.00000  0.05    0.42
Q13   1   0.0661  0.3401  0.7566  11.00000  0.05    0.41
Q14   1   0.5103  0.2745  0.9643  11.00000  0.05    0.41
Q15   1   1.3393  1.2557  0.9848  11.00000  0.05    0.39
Q16   1   0.7446  0.6186  0.8620  11.00000  0.05    0.38
Q17   1   0.5341  0.3181  0.9979  11.00000  0.05    0.37
Q18   1   0.5345  0.4014  0.7985  11.00000  0.05    0.35
Q19   1   0.9224  0.6975  0.8476  11.00000  0.05    0.34
Q20   1   0.5597  0.5615  0.7647  11.00000  0.05    0.33
;
_shelx_res_checksum              14609
_shelx_hkl_file
;
  -7  -1   3  554.77   16.03
  -7  -1   4  294.20   11.49
  -7  -1   5   43.02    4.80
  -7  -1   6   60.39    5.65
  -7   0   1   62.63    5.92
  -7   0   2  227.09   10.28
  -7   0   3  436.57   13.64
  -7   0   4 1021.46   19.95
  -7   0   5   -0.43    2.31
  -7   0   6  142.93    7.62
  -7   1   0  489.62   14.78
  -7   1   1    4.65    2.55
  -7   1   2   82.42    6.18
  -7   1   3   56.15    5.03
  -7   1   4  718.44   16.06
  -7   1   5   91.70    5.99
  -7   1   6  138.42    7.23
  -7   1   7    1.19    2.19
  -7   2  -1  223.33   10.23
  -7   2   0  921.66   19.39
  -7   2   1  113.27    6.89
  -7   2   2  197.12    8.75
  -7   2   3   -1.63    2.10
  -7   2   4  951.05   18.12
  -7   2   5  628.92   14.64
  -7   2   6   57.52    4.89
  -7   2   7   44.90    4.62
  -7   3  -2  125.88    7.78
  -7   3  -1    1.40    2.52
  -7   3   0 1322.23   22.85
  -7   3   1  723.99   16.73
  -7   3   2   26.85    3.82
  -7   3   3   17.25    3.38
  -7   3   4  315.59   11.20
  -7   3   5  473.17   13.54
  -7   3   6   21.63    3.50
  -7   3   7   12.24    3.10
  -7   4  -2   25.56    4.29
  -7   4  -1   24.82    4.05
  -7   4   0  345.26   12.18
  -7   4   1  698.93   16.46
  -7   4   2    0.70    2.28
  -7   4   3   55.71    5.11
  -7   4   4  243.66    9.70
  -7   4   5  645.52   15.84
  -7   4   6   40.54    4.65
  -7   5   0   52.89    5.31
  -7   5   1  911.59   19.47
  -7   5   2  111.59    7.09
  -7   5   3  156.52    8.32
  -7   5   4   10.82    3.43
  -6  -3   2   13.10    2.78
  -6  -3   2    9.86    3.74
  -6  -3   3   11.30    3.71
  -6  -3   3   10.00    2.68
  -6  -3   4  349.09   12.64
  -6  -3   4  329.16   10.58
  -6  -3   5  802.79   16.98
  -6  -3   5  782.58   18.45
  -6  -3   6   42.12    4.64
  -6  -3   6   25.10    4.10
  -6  -2   0  209.34   10.51
  -6  -2   1  593.23   16.42
  -6  -2   2   13.67    3.36
  -6  -2   3  435.89   13.25
  -6  -2   4   23.92    3.22
  -6  -2   4   24.82    3.63
  -6  -2   5 1191.98   19.67
  -6  -2   5 1125.69   19.98
  -6  -2   6  361.34   11.24
  -6  -2   6  359.25   11.15
  -6  -2   7  118.71    6.63
  -6  -2   7  117.39    6.95
  -6  -1  -2   48.28    5.60
  -6  -1  -1  202.05    9.84
  -6  -1   0   26.28    4.00
  -6  -1   1 1346.03   23.13
  -6  -1   2  191.97    8.61
  -6  -1   3  304.43   10.45
  -6  -1   4    3.03    2.09
  -6  -1   5  418.34   11.57
  -6  -1   6  227.68    8.66
  -6  -1   6  239.97    8.65
  -6  -1   7   18.25    3.05
  -6  -1   7   20.53    3.22
  -6  -1   8   24.33    3.84
  -6   0  -3  513.48   15.55
  -6   0  -2   84.38    6.48
  -6   0  -1   29.44    3.94
  -6   0   0   57.40    5.11
  -6   0   1 1237.17   21.17
  -6   0   2  807.88   15.88
  -6   0   3  110.24    6.00
  -6   0   4  135.39    6.48
  -6   0   5  608.10   13.10
  -6   0   6  767.57   14.16
  -6   0   7    1.53    2.02
  -6   0   7    3.39    2.06
  -6   0   8  204.28    8.95
  -6   0   9   59.06    5.72
  -6   1  -4    3.44    2.94
  -6   1  -3  738.90   17.50
  -6   1  -2  481.32   13.85
  -6   1  -1  143.71    7.36
  -6   1   0  157.21    7.39
  -6   1   1  681.29   14.51
  -6   1   2 2444.87   26.72
  -6   1   3  160.02    6.87
  -6   1   4  163.08    6.77
  -6   1   5  275.43    8.53
  -6   1   6  821.83   14.39
  -6   1   7   26.78    3.43
  -6   1   8   43.88    4.33
  -6   1   9   29.58    4.28
  -6   2  -4  146.12    8.45
  -6   2  -4  148.79    7.99
  -6   2  -3  345.32   11.58
  -6   2  -3  325.56   11.30
  -6   2  -2 1103.46   19.56
  -6   2  -1    0.47    1.91
  -6   2   0  169.16    7.42
  -6   2   1  267.45    9.22
  -6   2   2  919.38   16.21
  -6   2   3  182.88    7.55
  -6   2   4   48.43    4.04
  -6   2   5  139.37    6.47
  -6   2   6 1407.11   18.99
  -6   2   7  321.64    9.90
  -6   2   8   99.82    6.11
  -6   3  -5    9.26    4.02
  -6   3  -4   51.31    5.33
  -6   3  -4   40.47    4.50
  -6   3  -3  145.71    7.79
  -6   3  -3  137.09    7.15
  -6   3  -2  983.27   18.13
  -6   3  -2 1067.58   19.38
  -6   3  -1   95.52    5.96
  -6   3  -1   83.85    5.06
  -6   3   0  515.04   12.71
  -6   3   1    1.46    1.76
  -6   3   2 1260.38   19.33
  -6   3   3  496.39   12.05
  -6   3   4  124.65    6.14
  -6   3   5   78.46    4.94
  -6   3   6  562.05   12.57
  -6   3   7  624.21   13.65
  -6   4  -5   45.59    5.90
  -6   4  -4  193.96    9.87
  -6   4  -4  179.57    8.33
  -6   4  -3    6.04    2.66
  -6   4  -3    5.21    3.11
  -6   4  -2  981.72   18.67
  -6   4  -2  977.70   18.01
  -6   4  -1  992.50   18.12
  -6   4  -1  991.99   17.85
  -6   4   0   55.78    4.48
  -6   4   0   63.51    4.59
  -6   4   1   86.45    5.49
  -6   4   2  536.68   13.24
  -6   4   3  294.86    9.80
  -6   4   4   55.76    4.49
  -6   4   5   48.56    4.36
  -6   4   6  148.40    7.06
  -6   5  -4   38.68    5.24
  -6   5  -4   50.55    4.87
  -6   5  -3    0.29    2.34
  -6   5  -3    0.57    2.81
  -6   5  -2  453.16   12.74
  -6   5  -2  445.39   13.29
  -6   5  -1  463.17   13.03
  -6   5  -1  486.64   13.26
  -6   5   0    7.73    2.43
  -6   5   0    3.37    2.43
  -6   5   1   37.13    3.91
  -6   5   2  445.82   12.60
  -6   5   3 1037.22   19.09
  -6   5   4    2.53    1.97
  -6   5   5  275.43   10.09
  -6   5   6    1.36    2.25
  -6   6  -4    0.41    3.53
  -6   6  -4   -2.16    2.63
  -6   6  -3   89.78    7.07
  -6   6  -3  108.99    6.90
  -6   6  -2  234.29    9.72
  -6   6  -2  239.58   10.60
  -6   6  -1  901.62   18.66
  -6   6  -1  903.44   19.17
  -6   6   0  104.47    6.78
  -6   6   0  106.43    6.73
  -6   6   1   94.77    6.27
  -6   6   1   98.92    6.47
  -6   6   2   32.62    4.10
  -6   6   3  818.53   18.01
  -6   6   4  213.81    9.48
  -6   6   5   25.23    4.04
  -6   7  -2   37.87    5.20
  -6   7  -1  429.74   13.94
  -6   7   0   51.70    5.61
  -6   7   1   34.81    4.63
  -5  -5   5  143.61   10.21
  -5  -5   5  121.03    7.44
  -5  -5   6  554.22   16.04
  -5  -5   6  562.49   17.60
  -5  -4   1   79.14    7.18
  -5  -4   2  718.88   19.19
  -5  -4   3  162.64    7.26
  -5  -4   3  150.45    8.74
  -5  -4   4  309.92   10.24
  -5  -4   4  317.55   12.05
  -5  -4   5   63.21    5.86
  -5  -4   5   58.28    4.98
  -5  -4   6  672.23   16.00
  -5  -4   6  630.22   15.97
  -5  -4   7  508.14   15.05
  -5  -4   8    7.94    3.17
  -5  -3  -1  127.10    8.72
  -5  -3   0  277.03   11.58
  -5  -3   1   66.05    5.86
  -5  -3   2  752.14   17.37
  -5  -3   2  729.83   13.62
  -5  -3   3  958.92   15.92
  -5  -3   3  952.35   18.83
  -5  -3   4   37.70    4.15
  -5  -3   4   24.43    2.98
  -5  -3   5  162.31    7.21
  -5  -3   5  163.88    7.61
  -5  -3   6  338.43   10.53
  -5  -3   6  352.17   10.93
  -5  -3   7  376.28   11.91
  -5  -3   7  359.58   10.68
  -5  -3   8   38.04    4.44
  -5  -3   9   41.34    5.09
  -5  -2  -3   10.28    3.51
  -5  -2  -2  645.84   17.29
  -5  -2  -1  684.85   17.31
  -5  -2   0   84.96    6.01
  -5  -2   1   31.03    3.87
  -5  -2   2  896.87   17.22
  -5  -2   3  825.86   15.66
  -5  -2   4    4.62    1.70
  -5  -2   4    7.83    2.24
  -5  -2   5  166.59    6.96
  -5  -2   5  162.22    6.68
  -5  -2   6  165.40    6.69
  -5  -2   6  173.95    7.22
  -5  -2   7 1146.77   19.48
  -5  -2   7 1232.27   17.59
  -5  -2   8   54.53    4.96
  -5  -2   9  372.20   12.67
  -5  -1  -4   40.61    4.91
  -5  -1  -4   44.51    5.28
  -5  -1  -3    3.54    2.75
  -5  -1  -3    6.72    2.96
  -5  -1  -2  635.53   13.72
  -5  -1  -2  647.75   15.64
  -5  -1  -1 1403.42   18.13
  -5  -1  -1 1487.19   22.68
  -5  -1   0   55.86    4.56
  -5  -1   1  585.22   13.27
  -5  -1   2  199.57    7.57
  -5  -1   3 2636.70   26.47
  -5  -1   4  560.23   11.97
  -5  -1   5  113.57    5.39
  -5  -1   6   15.82    2.38
  -5  -1   6   10.63    2.19
  -5  -1   7 1188.20   18.90
  -5  -1   7 1139.42   15.70
  -5  -1   8  423.99   12.38
  -5  -1   9  106.43    6.81
  -5  -1  10    7.99    3.27
  -5   0  -5  445.77   14.74
  -5   0  -4    4.90    2.62
  -5   0  -4    5.54    2.75
  -5   0  -3  425.80   12.40
  -5   0  -3  416.02   11.86
  -5   0  -2   33.98    3.51
  -5   0  -2   41.91    4.06
  -5   0  -1 1670.87   18.75
  -5   0  -1 1835.16   23.33
  -5   0   0  785.84   11.31
  -5   0   0  792.07   14.75
  -5   0   1  188.19    7.11
  -5   0   2   29.40    2.85
  -5   0   3 1817.48   20.27
  -5   0   4  309.15    8.17
  -5   0   5  114.97    4.95
  -5   0   6   45.06    3.58
  -5   0   6   44.06    3.28
  -5   0   7 1075.97   14.25
  -5   0   7 1091.80   17.17
  -5   0   8 1038.43   18.37
  -5   0   9    4.09    2.81
  -5   0  10  105.86    7.25
  -5   1  -5  663.05   17.48
  -5   1  -4   50.89    4.92
  -5   1  -4   45.51    4.37
  -5   1  -3  425.36   11.64
  -5   1  -3  422.56   11.55
  -5   1  -2   29.48    3.15
  -5   1  -2   37.44    3.64
  -5   1  -1 1200.39   15.87
  -5   1  -1 1161.29   17.45
  -5   1   0  353.67    9.36
  -5   1   0  362.37    7.69
  -5   1   1  152.95    6.08
  -5   1   1  141.47    4.12
  -5   1   2  106.18    5.02
  -5   1   3 1509.16   17.94
  -5   1   4 2196.12   21.17
  -5   1   5   69.07    3.90
  -5   1   6  436.94    9.39
  -5   1   7  242.24    7.76
  -5   1   8 1054.36   18.10
  -5   1   9  128.39    7.08
  -5   2  -6   46.61    5.59
  -5   2  -5  811.49   16.13
  -5   2  -5  787.04   18.54
  -5   2  -4  692.17   16.02
  -5   2  -4  703.53   14.69
  -5   2  -3  198.55    8.08
  -5   2  -3  172.65    6.97
  -5   2  -2  409.47   10.42
  -5   2  -2  415.78   10.65
  -5   2  -1  872.17   13.80
  -5   2  -1  815.61   14.21
  -5   2   0 1872.30   21.36
  -5   2   0 1816.20   17.84
  -5   2   1    8.81    1.83
  -5   2   1    4.54    1.29
  -5   2   2  345.12    8.75
  -5   2   2  350.82    6.38
  -5   2   3  236.42    7.19
  -5   2   4 1596.24   18.14
  -5   2   5   17.15    2.23
  -5   2   6  324.72    8.20
  -5   2   7   78.10    4.47
  -5   2   8  522.45   12.64
  -5   3  -6   44.80    5.28
  -5   3  -5  419.29   13.62
  -5   3  -5  413.18   11.15
  -5   3  -4 1456.33   23.33
  -5   3  -4 1453.85   20.05
  -5   3  -3  119.50    5.96
  -5   3  -3  124.85    6.62
  -5   3  -2  135.32    5.96
  -5   3  -2  131.80    6.27
  -5   3  -1  619.66   12.38
  -5   3  -1  615.32   12.44
  -5   3   0 1504.94   19.14
  -5   3   0 1506.66   18.05
  -5   3   1   18.72    2.48
  -5   3   1   14.49    1.99
  -5   3   2  226.25    7.37
  -5   3   2  246.34    6.57
  -5   3   3  265.02    6.58
  -5   3   3  263.33    7.73
  -5   3   4 1629.99   19.18
  -5   3   5  476.03   10.52
  -5   3   6  289.63    8.21
  -5   3   7  102.05    5.20
  -5   4  -6   84.28    7.22
  -5   4  -5  350.69   12.39
  -5   4  -5  379.90   10.74
  -5   4  -4  863.92   15.60
  -5   4  -4  843.53   18.24
  -5   4  -3  135.17    7.07
  -5   4  -3  117.03    5.86
  -5   4  -2   92.89    5.28
  -5   4  -2   94.29    5.62
  -5   4  -1  118.32    5.93
  -5   4  -1  118.58    5.79
  -5   4   0 2798.33   26.62
  -5   4   0 2784.16   27.16
  -5   4   1 1002.98   15.11
  -5   4   1 1018.55   16.40
  -5   4   2  291.94    8.72
  -5   4   2  308.86    8.30
  -5   4   3   77.00    4.63
  -5   4   3   64.55    4.03
  -5   4   4  784.24   13.55
  -5   4   4  778.95   14.21
  -5   4   5  805.22   14.37
  -5   4   6    3.09    1.83
  -5   5  -6  262.45   12.05
  -5   5  -5    4.50    3.06
  -5   5  -5    7.83    2.38
  -5   5  -4  804.67   18.47
  -5   5  -4  829.60   15.73
  -5   5  -3  456.96   13.24
  -5   5  -3  479.84   12.06
  -5   5  -2   48.14    4.16
  -5   5  -2   46.75    4.45
  -5   5  -1   12.15    2.60
  -5   5  -1    9.82    2.32
  -5   5   0 1001.62   17.41
  -5   5   0 1028.43   17.30
  -5   5   1 1069.25   18.19
  -5   5   1 1048.14   17.08
  -5   5   2   31.21    3.40
  -5   5   2   30.69    3.44
  -5   5   3   25.26    3.22
  -5   5   3   34.71    3.66
  -5   5   4  578.82   13.24
  -5   5   4  570.35   13.60
  -5   5   5  555.71   13.42
  -5   5   6    5.72    2.34
  -5   6  -5   17.76    3.15
  -5   6  -5   19.06    4.20
  -5   6  -4  494.03   12.69
  -5   6  -4  520.70   15.53
  -5   6  -3  181.27    8.93
  -5   6  -3  197.23    8.24
  -5   6  -2  184.94    8.35
  -5   6  -2  178.92    7.93
  -5   6  -1   48.36    4.60
  -5   6  -1   49.24    4.44
  -5   6   0  494.07   13.28
  -5   6   0  480.35   12.82
  -5   6   1 1173.65   19.75
  -5   6   2   53.10    4.64
  -5   6   3  261.00    9.81
  -5   6   4   38.70    4.29
  -5   7  -5   36.81    4.22
  -5   7  -4  224.32   10.71
  -5   7  -4  215.63    9.04
  -5   7  -3  919.09   20.69
  -5   7  -3  915.26   18.62
  -5   7  -2    7.87    3.18
  -5   7  -2    8.01    2.79
  -5   7  -1  330.10   11.47
  -5   7   0    6.44    2.77
  -5   7   1  525.46   14.54
  -5   7   2  154.56    8.24
  -5   7   3   52.13    5.44
  -5   7   4    1.98    2.94
  -5   8  -1   82.49    6.88
  -5   8   0   11.38    3.65
  -4  -6   4  252.57   12.46
  -4  -6   5   16.22    4.75
  -4  -6   6   46.03    5.34
  -4  -6   6   52.49    6.18
  -4  -5   0  412.01   16.30
  -4  -5   1   54.93    6.54
  -4  -5   2  461.85   17.40
  -4  -5   3  187.80   11.05
  -4  -5   4  987.93   23.45
  -4  -5   4  842.23   16.89
  -4  -5   5   17.51    3.37
  -4  -5   5   10.54    3.48
  -4  -5   6  107.34    7.18
  -4  -5   6  105.95    6.76
  -4  -5   7   78.88    5.93
  -4  -5   8  567.28   16.65
  -4  -4  -2   78.78    8.41
  -4  -4  -2   73.94    6.14
  -4  -4  -1  499.80   22.88
  -4  -4   0  962.96   21.64
  -4  -4   1   73.64    6.18
  -4  -4   2  181.16    8.86
  -4  -4   2  171.72    6.50
  -4  -4   3  159.04    8.03
  -4  -4   3  179.38    6.89
  -4  -4   4 1127.02   18.00
  -4  -4   4 1058.62   19.29
  -4  -4   5    5.00    2.14
  -4  -4   5    4.28    2.21
  -4  -4   6  294.95   10.55
  -4  -4   6  279.36    9.88
  -4  -4   7   61.66    5.19
  -4  -4   7   54.82    5.23
  -4  -4   8  766.69   17.85
  -4  -4   9  360.54   13.25
  -4  -3  -4  474.84   18.42
  -4  -3  -4  347.95   12.63
  -4  -3  -3   -0.05    3.01
  -4  -3  -3    4.19    2.79
  -4  -3  -2  213.13   10.20
  -4  -3  -2  191.72    8.08
  -4  -3  -1  375.14   12.54
  -4  -3  -1  371.46   10.04
  -4  -3   0 1632.26   19.37
  -4  -3   0 1577.78   24.31
  -4  -3   1  272.57    9.83
  -4  -3   2  116.00    6.23
  -4  -3   2  100.14    4.53
  -4  -3   3    1.11    1.23
  -4  -3   3    2.06    1.73
  -4  -3   4 1784.16   22.28
  -4  -3   4 1761.06   19.98
  -4  -3   5 1381.80   19.04
  -4  -3   5 1371.03   19.00
  -4  -3   6  158.19    6.42
  -4  -3   6  159.56    7.01
  -4  -3   7  130.52    5.90
  -4  -3   7  125.33    6.65
  -4  -3   8  618.98   15.62
  -4  -3   9  591.01   15.41
  -4  -3  10    1.47    2.92
  -4  -2  -5   60.26    6.11
  -4  -2  -4  632.47   17.00
  -4  -2  -4  625.73   15.82
  -4  -2  -3  194.63    9.03
  -4  -2  -3  201.47    8.39
  -4  -2  -2  420.97   10.88
  -4  -2  -2  424.90   12.46
  -4  -2  -1  170.14    7.76
  -4  -2  -1  166.18    6.21
  -4  -2   0 1385.66   15.80
  -4  -2   0 1395.61   20.05
  -4  -2   1 1546.16   20.55
  -4  -2   1 1528.91   14.56
  -4  -2   2    6.40    1.81
  -4  -2   3  130.97    5.58
  -4  -2   4 1495.91   17.88
  -4  -2   4 1479.18   17.13
  -4  -2   5 1687.33   18.67
  -4  -2   5 1614.77   18.62
  -4  -2   6   20.58    2.72
  -4  -2   6   17.33    2.18
  -4  -2   7  145.18    6.75
  -4  -2   7  132.15    5.10
  -4  -2   8  676.14   15.61
  -4  -2   9  936.69   19.37
  -4  -2  10   44.40    5.15
  -4  -1  -6  126.87    8.65
  -4  -1  -5   22.41    3.92
  -4  -1  -5   20.56    3.94
  -4  -1  -4  582.51   14.46
  -4  -1  -4  560.12   14.25
  -4  -1  -3  638.46   13.81
  -4  -1  -3  656.59   14.43
  -4  -1  -2   86.32    5.08
  -4  -1  -2   86.78    4.77
  -4  -1  -1  185.38    6.10
  -4  -1  -1  195.94    7.24
  -4  -1   0 1228.82   17.19
  -4  -1   0 1233.56   13.46
  -4  -1   1 1133.32   16.02
  -4  -1   1 1054.32   10.19
  -4  -1   2  478.43    9.88
  -4  -1   3  212.81    6.54
  -4  -1   4 1220.46   15.05
  -4  -1   5 3133.62   23.24
  -4  -1   5 3166.38   24.98
  -4  -1   6  531.46   10.89
  -4  -1   6  544.17    9.40
  -4  -1   7  416.38   10.63
  -4  -1   7  406.35    7.83
  -4  -1   8    1.72    1.92
  -4  -1   9 1078.94   20.32
  -4  -1  10  264.42   10.84
  -4  -1  11   19.72    4.39
  -4   0  -6  118.69    7.88
  -4   0  -5   39.76    4.06
  -4   0  -5   35.71    4.39
  -4   0  -4 1040.23   18.83
  -4   0  -4 1040.45   17.48
  -4   0  -3 1137.80   17.31
  -4   0  -3 1135.68   17.84
  -4   0  -2    5.05    1.76
  -4   0  -2    2.30    1.44
  -4   0  -1  451.55    8.95
  -4   0  -1  440.51    9.76
  -4   0   0  116.68    4.86
  -4   0   0  121.29    4.07
  -4   0   1 3484.41   25.17
  -4   0   1 3468.44   16.98
  -4   0   2  349.33    2.94
  -4   0   2  378.15    8.04
  -4   0   3 1443.66   15.21
  -4   0   4   15.13    1.69
  -4   0   5 1725.55   15.77
  -4   0   6  573.77    8.92
  -4   0   6  536.13   10.21
  -4   0   7   72.03    4.40
  -4   0   8    2.08    1.89
  -4   0   9  644.33   15.43
  -4   0  10  231.92   10.16
  -4   1  -7  591.61   17.92
  -4   1  -6   25.43    4.33
  -4   1  -5  357.48    9.86
  -4   1  -5  350.95   11.60
  -4   1  -4   85.25    5.49
  -4   1  -4   91.90    4.95
  -4   1  -3 2305.62   22.84
  -4   1  -3 2275.66   24.38
  -4   1  -2  579.01   10.81
  -4   1  -2  620.80   11.70
  -4   1  -1   57.53    3.31
  -4   1  -1   55.10    3.38
  -4   1   0  243.43    6.62
  -4   1   0  253.42    5.84
  -4   1   1 2978.06   16.31
  -4   1   1 3193.29   23.59
  -4   1   2  640.49    6.07
  -4   1   2  626.00    9.93
  -4   1   3 1103.08   13.12
  -4   1   3 1088.61    5.68
  -4   1   3 1100.10    5.93
  -4   1   4   17.54    0.94
  -4   1   4   17.54    1.84
  -4   1   5 1900.79   16.31
  -4   1   5 1859.31   11.16
  -4   1   6  785.11   10.55
  -4   1   6  740.87   12.11
  -4   1   7   69.31    4.22
  -4   1   8  165.86    7.07
  -4   1   9  133.97    7.00
  -4   2  -7  612.25   17.38
  -4   2  -6  189.71    9.21
  -4   2  -5  145.09    5.97
  -4   2  -5  142.02    7.51
  -4   2  -4   81.90    4.32
  -4   2  -4   82.12    5.35
  -4   2  -3 2562.74   25.75
  -4   2  -3 2597.54   23.11
  -4   2  -2  364.41    8.50
  -4   2  -2  356.61    8.98
  -4   2  -1  585.20   10.43
  -4   2  -1  566.23   10.22
  -4   2   0  144.21    4.81
  -4   2   0  132.36    4.86
  -4   2   1 3857.17   25.93
  -4   2   1 3872.19   22.12
  -4   2   2 4327.75   21.55
  -4   2   2 4266.07   26.90
  -4   2   3   52.20    3.04
  -4   2   3   51.27    2.50
  -4   2   4  802.99    9.56
  -4   2   4  826.45   11.54
  -4   2   5  300.80    6.23
  -4   2   5  293.56    6.81
  -4   2   6 1494.55   14.97
  -4   2   6 1532.22   16.85
  -4   2   7   16.51    2.29
  -4   3  -7  688.27   18.96
  -4   3  -6  219.17    9.96
  -4   3  -5   82.28    4.40
  -4   3  -5   77.59    5.70
  -4   3  -4  128.32    6.64
  -4   3  -4  127.03    5.40
  -4   3  -3 1025.07   14.39
  -4   3  -3 1032.93   16.93
  -4   3  -2 2811.27   25.95
  -4   3  -2 2861.85   23.90
  -4   3  -1    7.42    1.50
  -4   3  -1    5.30    1.47
  -4   3   0  504.60    9.74
  -4   3   0  510.14    9.94
  -4   3   1  924.68   12.26
  -4   3   1  953.90   13.43
  -4   3   2 2801.82   21.15
  -4   3   2 2865.93   23.84
  -4   3   3  292.22    6.86
  -4   3   3  317.15    7.95
  -4   3   4   46.53    3.16
  -4   3   4   42.91    2.83
  -4   3   5  401.01    8.83
  -4   3   5  406.67    8.51
  -4   3   6 1391.34   16.69
  -4   3   6 1436.18   16.32
  -4   3   6 1397.44   15.79
  -4   3   7   48.20    3.51
  -4   4  -7  241.66   11.24
  -4   4  -6  621.07   16.57
  -4   4  -5    3.60    1.66
  -4   4  -5    1.85    2.21
  -4   4  -4   87.13    5.60
  -4   4  -4   80.76    4.43
  -4   4  -3  519.15   10.66
  -4   4  -3  508.65   12.35
  -4   4  -2 1615.34   18.47
  -4   4  -2 1651.24   20.85
  -4   4  -1   18.57    2.47
  -4   4  -1   18.27    2.35
  -4   4   0  927.55   14.59
  -4   4   0  895.30   13.82
  -4   4   1  474.48    9.98
  -4   4   2 2417.45   22.37
  -4   4   3  302.41    7.95
  -4   4   4  139.28    5.56
  -4   4   5    9.74    2.07
  -4   4   6  817.27   14.41
  -4   4   7  593.40   13.35
  -4   5  -7  265.57   11.84
  -4   5  -6  823.44   19.42
  -4   5  -5   33.51    4.36
  -4   5  -5   29.10    3.03
  -4   5  -4  317.96    8.93
  -4   5  -4  296.14   10.50
  -4   5  -3  211.89    7.45
  -4   5  -3  205.21    8.30
  -4   5  -2 1908.35   23.74
  -4   5  -2 1920.88   22.38
  -4   5  -1  877.84   15.39
  -4   5   0  368.16    9.86
  -4   5   1  345.05    9.44
  -4   5   2  715.04   13.64
  -4   5   3  573.36   12.27
  -4   5   4   51.07    3.97
  -4   5   5   17.47    2.74
  -4   5   6  302.98    9.91
  -4   5   7  289.73   10.41
  -4   6  -6  881.08   20.58
  -4   6  -5  501.88   14.83
  -4   6  -5  490.65   11.74
  -4   6  -4  168.06    7.21
  -4   6  -4  155.09    8.05
  -4   6  -3    5.65    2.46
  -4   6  -2  935.60   17.50
  -4   6  -1  716.14   14.94
  -4   6   0   11.72    2.31
  -4   6   1   27.50    3.30
  -4   6   2  572.37   13.42
  -4   6   3  506.06   12.79
  -4   6   4   77.02    5.61
  -4   6   5  179.01    8.26
  -4   6   6   51.50    5.21
  -4   7  -5  494.87   12.89
  -4   7  -5  477.59   15.00
  -4   7  -4   90.48    6.47
  -4   7  -3   48.83    5.00
  -4   7  -2  798.53   17.43
  -4   7  -1  967.96   18.87
  -4   7   0   18.24    3.29
  -4   7   1   83.61    5.93
  -4   7   2   74.57    5.68
  -4   7   3  692.56   16.65
  -4   7   4   77.65    6.21
  -4   8  -5  672.55   16.11
  -4   8  -4   84.65    6.94
  -4   8  -3  167.76    9.06
  -4   8  -2   26.88    4.36
  -4   8  -1  640.37   16.67
  -4   8   0  104.22    7.19
  -4   8   1   22.49    4.13
  -3  -7   5  409.62   15.27
  -3  -7   6  118.36    8.43
  -3  -6   0    4.01    4.10
  -3  -6   1  638.15   19.63
  -3  -6   2  199.57   11.05
  -3  -6   3   61.90    6.36
  -3  -6   4   19.41    3.37
  -3  -6   4   17.77    3.89
  -3  -6   5  663.59   15.88
  -3  -6   5  681.42   18.31
  -3  -6   6  197.75    9.61
  -3  -6   6  224.97    9.92
  -3  -6   7  228.55   10.25
  -3  -6   8   89.08    7.10
  -3  -5  -2  119.47    8.94
  -3  -5  -1   88.44    7.63
  -3  -5   0    6.47    3.26
  -3  -5   1 1221.79   24.28
  -3  -5   2  528.50   15.67
  -3  -5   3  190.84    7.30
  -3  -5   3  180.42    8.95
  -3  -5   4    8.16    2.75
  -3  -5   4    9.98    2.41
  -3  -5   5  920.02   16.75
  -3  -5   5  971.35   19.01
  -3  -5   6 1241.76   20.90
  -3  -5   6 1211.86   20.50
  -3  -5   7   49.69    4.96
  -3  -5   7   42.85    4.44
  -3  -5   8  301.22   11.68
  -3  -5   9   21.01    4.05
  -3  -4  -4    1.33    3.77
  -3  -4  -4    6.22    3.53
  -3  -4  -3  667.70   16.21
  -3  -4  -3  757.72   20.32
  -3  -4  -2  501.05   16.26
  -3  -4  -2  432.05   12.25
  -3  -4  -1   39.48    3.90
  -3  -4  -1   60.93    6.98
  -3  -4   0  155.94    8.64
  -3  -4   1  360.35    7.97
  -3  -4   1  379.85   12.06
  -3  -4   2 2006.66   26.14
  -3  -4   2 1953.98   19.67
  -3  -4   3   79.12    5.23
  -3  -4   3   77.00    4.28
  -3  -4   4  274.51    9.21
  -3  -4   4  256.53    8.01
  -3  -4   5  891.91   19.31
  -3  -4   5  615.92   13.09
  -3  -4   6 1978.00   25.48
  -3  -4   6 1976.49   23.85
  -3  -4   7  140.58    6.97
  -3  -4   7  145.50    6.43
  -3  -4   8   64.18    5.43
  -3  -4   9   77.42    6.33
  -3  -4  10  682.96   18.74
  -3  -3  -5   33.88    4.73
  -3  -3  -4  272.92   10.45
  -3  -3  -4  279.32   12.11
  -3  -3  -3  142.15    7.03
  -3  -3  -3  278.89   15.50
  -3  -3  -2 1000.09   16.72
  -3  -3  -2  985.72   19.10
  -3  -3  -1   -0.20    1.41
  -3  -3  -1    1.79    1.80
  -3  -3   0  159.33    7.04
  -3  -3   0  161.60    5.76
  -3  -3   1  630.37    9.51
  -3  -3   1  647.51   13.30
  -3  -3   2 2068.00   22.80
  -3  -3   2 2029.89   17.59
  -3  -3   3   11.78    2.02
  -3  -3   3   10.75    1.64
  -3  -3   4 1069.23   15.29
  -3  -3   4 1065.88   14.81
  -3  -3   5  162.28    6.24
  -3  -3   5  167.34    6.10
  -3  -3   6 2970.33   28.36
  -3  -3   6 2899.26   24.01
  -3  -3   7  929.95   14.86
  -3  -3   7  676.38   14.94
  -3  -3   8   21.55    3.18
  -3  -3   9    8.41    2.75
  -3  -3  10  397.10   13.73
  -3  -2  -6  436.50   14.80
  -3  -2  -5    2.02    3.75
  -3  -2  -5    1.14    2.65
  -3  -2  -4  242.48    9.42
  -3  -2  -4  230.14    9.03
  -3  -2  -3  267.28    9.21
  -3  -2  -3  251.35    8.53
  -3  -2  -2 2074.70   24.12
  -3  -2  -2 2020.73   21.65
  -3  -2  -1    5.85    1.61
  -3  -2  -1    7.40    1.97
  -3  -2   0 1108.50   15.62
  -3  -2   0 1049.26   12.50
  -3  -2   1  106.10    4.79
  -3  -2   1  107.13    3.59
  -3  -2   2 2854.99   23.29
  -3  -2   3 2019.42   18.93
  -3  -2   3 2024.79   17.34
  -3  -2   4  165.57    5.23
  -3  -2   4  157.09    5.14
  -3  -2   5  883.77   11.55
  -3  -2   5  872.77   13.34
  -3  -2   6  793.60   13.80
  -3  -2   6  769.15   10.62
  -3  -2   7 1280.45   18.97
  -3  -2   8   29.09    3.50
  -3  -2   9   18.33    3.34
  -3  -2  10  472.57   14.56
  -3  -2  11  416.73   13.82
  -3  -1  -7  178.68    9.88
  -3  -1  -6 1040.41   21.23
  -3  -1  -5  182.97    7.73
  -3  -1  -5  193.74    8.65
  -3  -1  -4   98.95    5.65
  -3  -1  -4  102.37    5.45
  -3  -1  -3   11.38    2.17
  -3  -1  -3    6.66    1.75
  -3  -1  -2 1512.53   18.08
  -3  -1  -2 1592.60   17.78
  -3  -1  -1 2292.36   20.83
  -3  -1  -1 2249.79   18.80
  -3  -1   0  222.55    6.25
  -3  -1   0  230.34    5.18
  -3  -1   1  178.28    5.37
  -3  -1   1  174.98    3.60
  -3  -1   2 3109.16   21.60
  -3  -1   3 1906.14   15.95
  -3  -1   4  132.81    4.19
  -3  -1   4  133.21    4.51
  -3  -1   5  244.44    6.47
  -3  -1   5  249.38    3.07
  -3  -1   6  851.11   13.52
  -3  -1   6  840.49    9.49
  -3  -1   7 1551.10   19.88
  -3  -1   8   30.87    3.45
  -3  -1   9  382.57   11.91
  -3  -1  10   56.07    5.27
  -3  -1  11  440.86   14.37
  -3   0  -7   36.28    4.88
  -3   0  -6  713.70   17.11
  -3   0  -5  673.63   12.56
  -3   0  -5  666.52   15.08
  -3   0  -4   28.68    2.73
  -3   0  -4   33.89    3.45
  -3   0  -3   66.91    3.67
  -3   0  -3   68.87    4.11
  -3   0  -2 2992.25   21.83
  -3   0  -2 3080.50   23.21
  -3   0  -1 3032.09   21.12
  -3   0  -1 2981.97   20.10
  -3   0   0  400.73    7.36
  -3   0   0  427.97    6.35
  -3   0   1 1009.05   11.26
  -3   0   1  999.98    7.34
  -3   0   2 3617.05   20.95
  -3   0   3 6031.21   25.97
  -3   0   4  364.38    2.81
  -3   0   4  357.59    2.69
  -3   0   5  240.06    4.79
  -3   0   5  241.73    4.18
  -3   0   5  250.25    6.21
  -3   0   6    6.92    0.97
  -3   0   6    5.53    1.40
  -3   0   7 1367.81   18.01
  -3   0   8  410.57   10.91
  -3   0   9  240.64    9.23
  -3   0  10   14.31    3.28
  -3   1  -8   77.91    7.11
  -3   1  -7   91.64    6.84
  -3   1  -6  757.43   16.78
  -3   1  -5 1114.59   14.49
  -3   1  -5 1080.60   18.43
  -3   1  -4  311.83    7.26
  -3   1  -4  359.60    9.96
  -3   1  -3  362.26    8.90
  -3   1  -3  355.47    7.32
  -3   1  -2 1684.73   15.80
  -3   1  -2 1705.20   17.04
  -3   1  -1 5150.31   25.83
  -3   1  -1 4909.83   25.58
  -3   1   0 2537.05   17.69
  -3   1   0 2522.27   15.84
  -3   1   1  445.23    5.60
  -3   1   1  452.83    7.23
  -3   1   2   51.41    1.70
  -3   1   2   50.24    1.64
  -3   1   2   52.11    2.49
  -3   1   3 4337.92   15.65
  -3   1   3 4371.55   15.25
  -3   1   4 1170.30    9.06
  -3   1   4 1241.55   11.50
  -3   1   5  112.32    4.08
  -3   1   5  113.56    3.46
  -3   1   6  282.69    5.19
  -3   1   6  296.97    7.38
  -3   1   7 1784.01   19.88
  -3   1   8  461.49   10.86
  -3   2  -8    0.10    2.75
  -3   2  -7  131.38    7.91
  -3   2  -6   25.53    3.64
  -3   2  -5 1293.47   14.37
  -3   2  -5 1356.23   20.57
  -3   2  -4  195.93    7.15
  -3   2  -4  208.14    5.72
  -3   2  -3  950.96   11.64
  -3   2  -3  976.92   14.59
  -3   2  -2  156.30    5.38
  -3   2  -2  147.12    4.55
  -3   2  -1 4064.41   24.44
  -3   2  -1 4034.42   23.08
  -3   2   0  630.41    8.80
  -3   2   0  625.43    8.97
  -3   2   1  479.93    7.98
  -3   2   1  474.12    7.08
  -3   2   2   62.15    2.54
  -3   2   2   61.06    2.94
  -3   2   3 4161.31   20.58
  -3   2   3 4229.65   23.87
  -3   2   4 1648.48   13.66
  -3   2   4 1546.72   14.39
  -3   2   5  383.04    7.09
  -3   2   5  371.20    7.10
  -3   2   6  105.83    4.39
  -3   2   6  109.08    3.72
  -3   2   7  839.84   13.49
  -3   3  -8   44.83    5.58
  -3   3  -7   74.42    6.14
  -3   3  -6  222.72    9.09
  -3   3  -5 2035.93   18.08
  -3   3  -5 2011.66   25.30
  -3   3  -4  283.49    8.86
  -3   3  -4  289.98    6.69
  -3   3  -3 1773.21   20.36
  -3   3  -3 1725.71   16.17
  -3   3  -2  157.55    5.74
  -3   3  -2  158.21    4.97
  -3   3  -1 3845.86   25.62
  -3   3  -1 3807.67   24.57
  -3   3   0 2188.54   18.38
  -3   3   1   39.09    2.54
  -3   3   2  378.39    7.39
  -3   3   3  239.10    5.82
  -3   3   4 1926.09   17.26
  -3   3   5   30.91    2.47
  -3   3   5   33.62    2.17
  -3   4  -8  144.67    8.83
  -3   4  -7  221.57   10.02
  -3   4  -6   14.64    1.98
  -3   4  -6   18.42    3.36
  -3   4  -5 1481.57   22.13
  -3   4  -5 1515.93   16.18
  -3   4  -4 2114.81   24.51
  -3   4  -4 2130.17   19.05
  -3   4  -3  112.43    5.62
  -3   4  -3  112.18    4.61
  -3   4  -2  629.09   11.84
  -3   4  -1  323.11    8.07
  -3   4   0 2259.30   20.88
  -3   4   1    5.47    1.32
  -3   4   2  212.19    6.31
  -3   4   3  714.12   11.63
  -3   4   4 1489.79   17.46
  -3   4   5   16.02    2.31
  -3   4   6  474.54   11.02
  -3   4   7    6.44    2.24
  -3   4   8  368.36   11.51
  -3   5  -8  519.18   16.21
  -3   5  -7    5.85    2.97
  -3   5  -6  100.73    6.60
  -3   5  -6   94.66    4.43
  -3   5  -5  981.03   18.48
  -3   5  -5  989.37   14.27
  -3   5  -4 1879.36   24.39
  -3   5  -3   34.81    3.48
  -3   5  -2  130.75    5.90
  -3   5  -1  725.77   13.33
  -3   5   0 3168.13   27.42
  -3   5   1  163.95    6.25
  -3   5   2  595.54   11.78
  -3   5   3    4.44    1.73
  -3   5   4 1003.02   16.07
  -3   5   5  528.89   12.45
  -3   5   6   30.30    3.51
  -3   5   7   74.21    5.72
  -3   6  -8  540.73   16.94
  -3   6  -7    8.06    3.37
  -3   6  -6  411.85   13.22
  -3   6  -6  468.54   10.57
  -3   6  -5  169.87    8.26
  -3   6  -4 1910.10   25.95
  -3   6  -3  430.25   11.62
  -3   6  -2   42.79    3.83
  -3   6  -1    3.33    1.94
  -3   6   0 1066.81   17.59
  -3   6   1  993.97   16.89
  -3   6   2   36.64    3.62
  -3   6   3   28.17    3.35
  -3   6   4  579.51   13.99
  -3   6   5  371.93   11.55
  -3   6   6    2.65    2.50
  -3   7  -7  226.25   10.94
  -3   7  -6   81.01    6.56
  -3   7  -5   73.98    5.78
  -3   7  -4  539.31   14.37
  -3   7  -3  356.10   11.47
  -3   7  -2  114.36    6.62
  -3   7  -1    1.70    1.95
  -3   7   0  914.44   17.98
  -3   7   1  698.53   15.79
  -3   7   2   13.79    2.93
  -3   7   3  157.21    7.96
  -3   7   4  123.18    7.26
  -3   8  -5   32.30    4.68
  -3   8  -4  393.90   13.23
  -3   8  -3  527.84   14.96
  -3   8  -2   63.55    5.56
  -3   8  -1  254.02   10.48
  -3   8   0   92.15    6.67
  -3   8   1  514.52   15.03
  -2  -7   1    3.47    3.64
  -2  -7   2  519.00   17.35
  -2  -7   3  594.87   18.01
  -2  -7   4   10.92    3.66
  -2  -7   5  228.73   10.93
  -2  -7   5  225.38    9.60
  -2  -7   6  153.98    8.87
  -2  -7   6  173.12    8.86
  -2  -7   7  857.37   20.08
  -2  -6  -2  220.51   12.16
  -2  -6  -1  637.86   19.55
  -2  -6   0    3.35    3.27
  -2  -6   1  179.88   10.01
  -2  -6   2  290.43   12.17
  -2  -6   3 1284.89   24.36
  -2  -6   3 1269.70   18.90
  -2  -6   4  383.27   11.20
  -2  -6   4  383.00   12.94
  -2  -6   5   64.25    5.45
  -2  -6   5   71.26    5.39
  -2  -6   6    7.78    2.91
  -2  -6   6    4.57    2.65
  -2  -6   7  842.27   18.18
  -2  -6   8  418.82   14.23
  -2  -6   9   55.34    5.95
  -2  -5  -4    2.19    3.91
  -2  -5  -4    0.74    3.30
  -2  -5  -3  136.66    9.31
  -2  -5  -2    4.49    3.43
  -2  -5  -1  528.83   16.23
  -2  -5   0  181.18    9.24
  -2  -5   1  319.01   11.88
  -2  -5   2   39.87    4.36
  -2  -5   2   55.18    3.68
  -2  -5   3 2262.27   23.78
  -2  -5   3 2227.92   28.30
  -2  -5   4  514.08   13.34
  -2  -5   4  511.58   12.00
  -2  -5   5  237.00    8.69
  -2  -5   5  242.67    9.15
  -2  -5   6    9.30    2.44
  -2  -5   6   13.53    2.72
  -2  -5   7 1056.41   20.21
  -2  -5   8 1006.37   20.93
  -2  -5   9    7.81    3.24
  -2  -5  10   42.42    5.62
  -2  -4  -5  454.97   15.76
  -2  -4  -5  447.91   14.34
  -2  -4  -4   90.85    7.35
  -2  -4  -4   70.89    5.71
  -2  -4  -3  205.65    9.93
  -2  -4  -3  189.83    8.15
  -2  -4  -2   47.82    4.11
  -2  -4  -2   56.96    5.30
  -2  -4  -1 1615.02   25.15
  -2  -4  -1 1549.78   20.21
  -2  -4   0  382.10    7.05
  -2  -4   0  427.22   13.46
  -2  -4   1 1099.38   12.73
  -2  -4   1 1344.37   22.90
  -2  -4   2  524.75    9.70
  -2  -4   2  637.91   15.21
  -2  -4   3 1900.78   19.67
  -2  -4   3 2270.92   27.44
  -2  -4   4 2377.70   23.51
  -2  -4   4 2384.61   25.13
  -2  -4   5    5.17    1.66
  -2  -4   5    2.38    1.62
  -2  -4   6  146.34    6.91
  -2  -4   6  150.50    6.19
  -2  -4   7  117.29    6.59
  -2  -4   8  930.48   19.09
  -2  -4   9  104.05    7.04
  -2  -4  10  142.94    8.74
  -2  -3  -6    0.11    2.70
  -2  -3  -5  908.44   19.64
  -2  -3  -5  903.18   18.76
  -2  -3  -4  589.95   13.94
  -2  -3  -4  604.78   15.50
  -2  -3  -3  270.71   10.86
  -2  -3  -3  213.44    7.87
  -2  -3  -2   47.91    3.63
  -2  -3  -2   80.73    7.51
  -2  -3  -1 1428.28   16.82
  -2  -3  -1 1411.20   19.91
  -2  -3   0 2197.76   23.62
  -2  -3   0 2235.25   19.41
  -2  -3   0 2220.57   14.37
  -2  -3   1  170.60    6.34
  -2  -3   1  162.54    4.35
  -2  -3   2  761.80   12.67
  -2  -3   2  767.66   10.16
  -2  -3   3   64.00    3.33
  -2  -3   3   64.58    3.71
  -2  -3   4 2607.48   22.33
  -2  -3   4 2681.94   22.34
  -2  -3   5    9.84    2.00
  -2  -3   5    6.62    1.73
  -2  -3   6  543.38    9.60
  -2  -3   6  488.11   11.00
  -2  -3   7  491.63   12.64
  -2  -3   8 1516.66   23.28
  -2  -3   9   86.99    6.22
  -2  -3  10  247.19   10.89
  -2  -3  11   26.83    4.75
  -2  -2  -7   12.17    3.69
  -2  -2  -6   40.94    4.65
  -2  -2  -5  247.19    9.18
  -2  -2  -5  240.85    9.31
  -2  -2  -4 1234.30   19.92
  -2  -2  -4 1164.96   18.33
  -2  -2  -3   42.22    3.55
  -2  -2  -3   41.34    3.45
  -2  -2  -2  231.78    7.21
  -2  -2  -2  218.25    6.59
  -2  -2  -1 2488.20   21.98
  -2  -2  -1 2498.14   19.56
  -2  -2   0 6201.69   33.38
  -2  -2   0 6282.81   27.46
  -2  -2   1   62.71    3.23
  -2  -2   1   64.26    2.55
  -2  -2   2  768.77   10.45
  -2  -2   2  757.15    8.86
  -2  -2   3  491.97    8.07
  -2  -2   3  478.26    7.74
  -2  -2   4 4902.49   28.21
  -2  -2   4 4908.73   19.38
  -2  -2   4 4868.22   24.22
  -2  -2   5 1035.34   14.19
  -2  -2   5  997.14   10.70
  -2  -2   6  817.24   14.27
  -2  -2   6  927.58   10.83
  -2  -2   7   30.49    3.17
  -2  -2   8 1043.64   18.58
  -2  -2   9  613.82   15.31
  -2  -2  10    5.19    2.85
  -2  -2  11   87.97    7.33
  -2  -1  -8  320.39   13.26
  -2  -1  -7   21.32    3.94
  -2  -1  -6  151.64    7.83
  -2  -1  -5  598.66   11.86
  -2  -1  -5  641.98   14.15
  -2  -1  -4 2227.76   23.87
  -2  -1  -4 2236.79   21.29
  -2  -1  -3   20.31    2.17
  -2  -1  -3   16.65    2.08
  -2  -1  -2 2156.87   18.25
  -2  -1  -2 2055.56   18.09
  -2  -1  -1  180.93    4.99
  -2  -1  -1  170.48    4.57
  -2  -1   0 8440.66   32.08
  -2  -1   0 8854.98   27.00
  -2  -1   1 4141.41   21.42
  -2  -1   1 4240.27   14.31
  -2  -1   2  185.47    4.21
  -2  -1   3   47.33    1.12
  -2  -1   3   45.95    2.28
  -2  -1   4 1557.59    9.84
  -2  -1   4 1547.20   10.88
  -2  -1   4 1538.98   14.38
  -2  -1   5 2754.49   21.74
  -2  -1   5 2732.97   13.39
  -2  -1   6    7.24    0.80
  -2  -1   6    5.07    1.51
  -2  -1   6    5.55    0.94
  -2  -1   7  172.49    6.56
  -2  -1   8 1150.41   18.77
  -2  -1   9 1005.08   18.73
  -2  -1  10   13.88    3.39
  -2   0  -8  639.72   17.61
  -2   0  -7   17.24    3.38
  -2   0  -6  503.88   13.34
  -2   0  -5   36.38    2.64
  -2   0  -5   39.33    3.69
  -2   0  -4 1718.74   15.69
  -2   0  -4 1674.13   19.42
  -2   0  -3 1230.35   12.55
  -2   0  -3 1202.29   14.84
  -2   0  -2   41.06    2.22
  -2   0  -2   38.03    2.44
  -2   0  -1 1163.63   10.62
  -2   0  -1 1131.48   10.43
  -2   0   0 1898.19   12.70
  -2   0   0 1871.97   10.91
  -2   0   1 4613.91   18.76
  -2   0   1 4235.82   10.27
  -2   0   2  634.53    6.74
  -2   0   3   33.41    1.52
  -2   0   3   41.47    1.28
  -2   0   4 5918.57   24.81
  -2   0   4 5859.87   20.94
  -2   0   4 5899.96   23.75
  -2   0   5 3983.22   14.26
  -2   0   5 3897.75   19.11
  -2   0   6    1.69    1.25
  -2   0   6    1.93    0.47
  -2   0   7  592.56   11.96
  -2   0   8  153.66    6.86
  -2   0   9 1226.63   20.22
  -2   1  -9    2.90    3.39
  -2   1  -8  354.14   13.03
  -2   1  -7  408.01   12.47
  -2   1  -6  213.88    8.46
  -2   1  -5   30.75    2.13
  -2   1  -5   28.17    3.11
  -2   1  -4 3663.47   20.54
  -2   1  -4 3657.32   28.21
  -2   1  -3 2174.21   14.61
  -2   1  -3 2141.14   19.05
  -2   1  -2 1160.67   10.17
  -2   1  -2 1134.62   12.30
  -2   1  -1 1546.14   12.42
  -2   1  -1 1557.98   11.42
  -2   1   0 1845.02   11.45
  -2   1   0 1887.47   12.17
  -2   1   1 5633.75   17.36
  -2   1   1 5180.79   19.84
  -2   1   2   55.77    1.73
  -2   1   2   57.23    2.12
  -2   1   3 1805.70   11.67
  -2   1   3 1807.14   11.84
  -2   1   4  375.67    5.35
  -2   1   4  361.69    6.12
  -2   1   5 2946.19   20.39
  -2   1   5 2828.01   14.32
  -2   1   6  796.10   12.21
  -2   1   6  728.79    6.72
  -2   1   7   67.86    4.09
  -2   1   8    7.90    2.14
  -2   2  -9    1.22    2.82
  -2   2  -8  940.31   20.21
  -2   2  -7 1051.97   20.07
  -2   2  -6  154.98    4.25
  -2   2  -6  150.86    7.13
  -2   2  -5  774.43    9.01
  -2   2  -5  765.93   13.95
  -2   2  -4 1739.23   13.17
  -2   2  -4 1736.06   19.35
  -2   2  -3 5895.92   32.47
  -2   2  -3 6113.14   24.50
  -2   2  -2  677.32    9.82
  -2   2  -2  700.03    8.21
  -2   2  -1   20.93    1.69
  -2   2   0    8.00    1.04
  -2   2   1 1440.74   11.34
  -2   2   2  831.97    8.55
  -2   2   4    0.92    0.60
  -2   2   5 3003.14   19.44
  -2   2   6  423.84    8.30
  -2   3  -9   46.56    5.62
  -2   3  -8  393.78   13.14
  -2   3  -7 1093.57   19.98
  -2   3  -6  415.45    6.86
  -2   3  -6  371.39   10.99
  -2   3  -5  102.51    5.40
  -2   3  -5  105.61    3.50
  -2   3  -4   49.58    3.62
  -2   3  -4   52.84    2.51
  -2   3  -3 4513.44   29.67
  -2   3  -2  882.34   11.90
  -2   3  -1  737.52   10.34
  -2   3   0 1376.92   13.51
  -2   3   1 7293.61   29.53
  -2   3   2 1681.27   14.75
  -2   3   3  705.79    9.97
  -2   3   4  646.51    7.03
  -2   4  -9  212.00   10.67
  -2   4  -8  113.72    7.19
  -2   4  -7 1789.66   25.78
  -2   4  -6  190.23    8.09
  -2   4  -6  185.38    4.87
  -2   4  -5  522.03   12.20
  -2   4  -5  555.05    8.93
  -2   4  -4    4.12    1.83
  -2   4  -3 3472.60   27.19
  -2   4  -2 2844.46   23.34
  -2   4  -1  175.02    5.73
  -2   4   0   82.98    3.83
  -2   4   1 2003.98   18.32
  -2   4   2 2683.94   21.29
  -2   4   3  267.31    7.17
  -2   4   4  102.77    4.70
  -2   5  -9  267.54   11.66
  -2   5  -8   67.29    5.99
  -2   5  -7  955.21   19.46
  -2   5  -6  830.10   17.02
  -2   5  -6  843.11   11.96
  -2   5  -5    6.73    2.19
  -2   5  -4   44.05    3.82
  -2   5  -3  318.71    8.84
  -2   5  -2 1424.84   18.13
  -2   5  -1    3.26    1.54
  -2   5   0  483.40   10.22
  -2   5   1  947.85   13.99
  -2   5   2 2662.25   24.03
  -2   5   3   60.75    4.00
  -2   5   4  218.16    7.74
  -2   5   5   53.41    4.34
  -2   5   6  655.92   14.91
  -2   5   7  159.05    8.02
  -2   6  -8   88.34    6.92
  -2   6  -7  220.94    9.97
  -2   6  -6  940.32   18.62
  -2   6  -5   58.24    4.69
  -2   6  -4  286.33    9.27
  -2   6  -3  809.25   15.23
  -2   6  -2 1811.01   22.51
  -2   6  -1   39.43    3.59
  -2   6   0  795.75   14.66
  -2   6   1   30.87    3.21
  -2   6   2 1001.23   17.04
  -2   6   3  398.33   10.93
  -2   6   4   27.25    3.46
  -2   6   5    2.29    2.15
  -2   7  -8   78.48    6.83
  -2   7  -7  132.95    8.06
  -2   7  -6 1132.42   21.89
  -2   7  -5  145.00    7.64
  -2   7  -4  243.64    9.37
  -2   7  -3   12.76    2.82
  -2   7  -2  851.42   16.81
  -2   7  -1  369.27   11.17
  -2   7   0   31.18    3.61
  -2   7   1   72.57    5.30
  -2   7   2  242.81    9.37
  -2   7   3  249.17    9.97
  -2   7   4   73.43    6.02
  -2   8  -6  391.74   13.38
  -2   8  -5  320.89   11.79
  -2   8  -4   64.48    5.62
  -2   8  -3   14.42    3.24
  -2   8  -2  870.93   18.69
  -2   8  -1  584.94   15.40
  -2   8   0   35.10    4.49
  -2   8   1   74.26    6.03
  -1  -8   3   -0.26    3.33
  -1  -8   4  743.50   20.61
  -1  -8   5  481.95   16.80
  -1  -8   6    3.06    3.64
  -1  -8   7    2.68    3.36
  -1  -7  -1    0.73    3.78
  -1  -7   0  386.78   15.29
  -1  -7   1  225.23   11.49
  -1  -7   2   22.52    4.37
  -1  -7   3   60.75    6.01
  -1  -7   4  420.72   12.05
  -1  -7   4  429.17   14.25
  -1  -7   5  981.98   19.58
  -1  -7   5  934.19   20.34
  -1  -7   6    8.29    3.07
  -1  -7   6   11.84    3.50
  -1  -7   7   55.58    5.80
  -1  -7   8  533.50   16.53
  -1  -6  -4  118.03    9.36
  -1  -6  -3  156.50   10.06
  -1  -6  -2   75.57    7.22
  -1  -6  -1   71.26    6.65
  -1  -6   0  867.69   20.47
  -1  -6   1 1008.08   21.37
  -1  -6   2  183.29    8.98
  -1  -6   3  509.22   14.36
  -1  -6   3  526.59   11.83
  -1  -6   4  216.58    9.24
  -1  -6   4  219.63    8.16
  -1  -6   5 1384.54   21.72
  -1  -6   5 1349.30   21.79
  -1  -6   6  139.63    7.51
  -1  -6   6  138.44    7.07
  -1  -6   7  175.83    8.85
  -1  -6   8   66.39    6.11
  -1  -6   9  724.95   19.57
  -1  -5  -5   14.30    4.49
  -1  -5  -5   17.92    4.22
  -1  -5  -4  500.75   16.29
  -1  -5  -4  496.89   15.04
  -1  -5  -3  744.94   19.00
  -1  -5  -2   35.09    4.61
  -1  -5  -1  534.80   15.27
  -1  -5   0  266.21   10.48
  -1  -5   1 2452.73   30.33
  -1  -5   1 2503.76   20.01
  -1  -5   2  318.18    7.94
  -1  -5   2  345.58   11.03
  -1  -5   3  159.98    7.29
  -1  -5   3  162.96    6.21
  -1  -5   4   11.77    2.43
  -1  -5   4    8.48    1.99
  -1  -5   5  653.74   14.04
  -1  -5   5  664.22   13.68
  -1  -5   6  283.55    8.68
  -1  -5   6  263.54    9.43
  -1  -5   7  268.43   10.28
  -1  -5   8   24.84    3.70
  -1  -5   9 1167.62   24.07
  -1  -5  10  420.93   15.14
  -1  -4  -6    4.91    3.22
  -1  -4  -5   87.67    6.70
  -1  -4  -5   88.53    6.48
  -1  -4  -4  235.97   10.13
  -1  -4  -4  225.90    8.98
  -1  -4  -3 1100.07   21.05
  -1  -4  -3 1033.12   17.40
  -1  -4  -2  255.94    9.83
  -1  -4  -2  234.49    8.00
  -1  -4  -1   73.43    5.11
  -1  -4   0   39.39    3.81
  -1  -4   0   -0.48    0.64
  -1  -4   1 3218.75   21.07
  -1  -4   1 3208.90   30.14
  -1  -4   2 1387.85   15.34
  -1  -4   2 1353.73   18.66
  -1  -4   3  779.71   12.47
  -1  -4   3  837.91   14.53
  -1  -4   4   24.35    2.68
  -1  -4   4   27.62    2.82
  -1  -4   5 3424.31   30.13
  -1  -4   5 3499.71   27.14
  -1  -4   6 1171.17   19.16
  -1  -4   6 1149.93   14.71
  -1  -4   7  197.34    8.26
  -1  -4   8  405.38   12.74
  -1  -4   9  174.42    9.13
  -1  -4  10  700.28   18.80
  -1  -3  -7  211.71   10.45
  -1  -3  -6   41.86    4.77
  -1  -3  -5  259.14    9.69
  -1  -3  -5  259.97    9.60
  -1  -3  -4   78.98    5.45
  -1  -3  -4   77.13    4.94
  -1  -3  -3 3482.48   32.35
  -1  -3  -3 3549.46   29.31
  -1  -3  -2  920.23   15.81
  -1  -3  -2  885.22   13.31
  -1  -3  -1  979.31    7.22
  -1  -3  -1 1071.87    7.54
  -1  -3  -1 1042.77   16.16
  -1  -3  -1  971.84   12.79
  -1  -3   0   88.05    2.76
  -1  -3   0   87.97    4.98
  -1  -3   1 3535.72   19.37
  -1  -3   1 3742.86   30.23
  -1  -3   2 5120.84   26.92
  -1  -3   2 5103.16   31.48
  -1  -3   3   89.32    3.86
  -1  -3   3   89.94    4.07
  -1  -3   4  121.58    4.52
  -1  -3   4  121.82    5.00
  -1  -3   5 1599.56   19.34
  -1  -3   5 1553.00   14.81
  -1  -3   6 2312.67   25.11
  -1  -3   6 2222.83   16.26
  -1  -3   7  127.41    6.45
  -1  -3   8  105.06    6.36
  -1  -3   9   30.97    4.11
  -1  -3  10  739.08   18.59
  -1  -3  11   56.49    6.04
  -1  -2  -8    5.04    3.15
  -1  -2  -7  694.95   17.36
  -1  -2  -6  243.18    9.53
  -1  -2  -5  523.84   11.93
  -1  -2  -5  540.12   12.76
  -1  -2  -4  459.03   10.62
  -1  -2  -4  482.30   10.91
  -1  -2  -3 1670.17   10.36
  -1  -2  -3 1689.55   18.45
  -1  -2  -2 3236.77   24.67
  -1  -2  -2 3174.48   22.65
  -1  -2  -2 3191.90   12.87
  -1  -2  -1   49.35    1.64
  -1  -2  -1   56.28    3.14
  -1  -2  -1   50.72    2.62
  -1  -2   0   14.22    1.60
  -1  -2   0   11.15    1.01
  -1  -2   0   10.37    1.13
  -1  -2   0   13.22    0.89
  -1  -2   1  621.00    8.91
  -1  -2   1  608.60    6.74
  -1  -2   2 2321.01   15.30
  -1  -2   2 2315.06   16.28
  -1  -2   2 2301.38   12.44
  -1  -2   3  353.50    6.84
  -1  -2   3  401.95    6.85
  -1  -2   4  844.38    9.00
  -1  -2   4  842.16   11.80
  -1  -2   5 1401.00   10.43
  -1  -2   5 1433.30   17.49
  -1  -2   6 6566.46   40.30
  -1  -2   7  367.41   10.39
  -1  -2   8  356.55   11.05
  -1  -2   9   18.19    3.29
  -1  -2  10  566.20   15.79
  -1  -2  11  237.63   11.09
  -1  -1  -8    5.01    2.79
  -1  -1  -7  529.73   14.44
  -1  -1  -6  571.17   10.74
  -1  -1  -6  556.43   13.39
  -1  -1  -5    6.50    1.58
  -1  -1  -5    4.86    1.89
  -1  -1  -4  361.82    8.15
  -1  -1  -4  329.37    8.33
  -1  -1  -3  317.89    6.57
  -1  -1  -3  317.25    5.54
  -1  -1  -3  312.43    7.18
  -1  -1  -2 4780.88   17.80
  -1  -1  -2 4771.29   23.21
  -1  -1  -2 4765.61   24.58
  -1  -1  -1   11.20    1.15
  -1  -1  -1   10.64    0.83
  -1  -1   0 4307.94   18.53
  -1  -1   0 4398.81   15.18
  -1  -1   1 3054.24   14.31
  -1  -1   1 3063.14   14.75
  -1  -1   2 8746.12   22.09
  -1  -1   2 8743.88   25.17
  -1  -1   3  308.82    5.75
  -1  -1   3  319.88    3.91
  -1  -1   4 1769.19   16.20
  -1  -1   4 1850.06    8.55
  -1  -1   5  274.87    7.11
  -1  -1   6 2215.84   22.66
  -1  -1   7 1526.26   19.18
  -1  -1   8    3.68    1.74
  -1  -1   9    6.18    2.77
  -1  -1  10  286.96   10.86
  -1   0  -9    2.47    3.14
  -1   0  -8  118.88    7.40
  -1   0  -7  854.86   17.68
  -1   0  -6 3147.89   30.57
  -1   0  -6 3157.10   19.99
  -1   0  -5   15.99    1.62
  -1   0  -5   13.54    2.20
  -1   0  -4 1411.14   11.65
  -1   0  -4 1378.13   16.08
  -1   0  -3  116.11    3.06
  -1   0  -3  108.19    4.04
  -1   0  -2 5564.16   21.07
  -1   0  -2 5409.78   24.06
  -1   0  -1 2559.90   11.21
  -1   0  -1 2555.65   12.97
  -1   0  -1 2525.91   11.80
  -1   0   0 1164.87    7.41
  -1   0   0 1179.73    6.07
  -1   0   1   16.26    0.78
  -1   0   1    3.38    0.57
  -1   0   2 3545.93   11.08
  -1   0   2 3570.81   10.25
  -1   0   3 1320.02    7.55
  -1   0   3 1305.02    9.39
  -1   0   3 1312.43    5.79
  -1   0   4   83.67    3.28
  -1   0   4   83.37    1.78
  -1   0   4   78.72    1.22
  -1   0   5  327.99    7.37
  -1   0   6  657.87   11.56
  -1   0   7 1410.32   18.40
  -1   0   8   55.98    4.34
  -1   1  -9   14.03    3.73
  -1   1  -8  318.19   11.35
  -1   1  -7   38.44    3.97
  -1   1  -6 2786.33   13.41
  -1   1  -6 2744.94   27.26
  -1   1  -5 1500.29   18.11
  -1   1  -5 1451.08   10.61
  -1   1  -4   61.31    3.36
  -1   1  -4   51.97    2.10
  -1   1  -3  721.82    6.25
  -1   1  -3  685.08    9.68
  -1   1  -2 2113.56   14.36
  -1   1  -2 2103.25    9.95
  -1   1  -1 3343.20   15.43
  -1   1  -1 3346.57   14.97
  -1   1   0  170.16    2.88
  -1   1   0  170.33    2.93
  -1   1   0  165.46    3.34
  -1   1   1 1519.67    7.80
  -1   1   1 1527.82   10.70
  -1   1   1 1522.87    8.40
  -1   1   2 8926.91   24.49
  -1   1   2 8886.61   21.49
  -1   1   3 7664.13   23.92
  -1   1   3 7640.15   26.82
  -1   1   4  357.41    6.05
  -1   1   4  398.76    6.31
  -1   1   5  962.27    8.70
  -1   1   5  945.54   11.70
  -1   1   6  200.21    6.01
  -1   1   7 1127.52   15.63
  -1   2 -10  291.15   12.70
  -1   2  -9   80.81    6.49
  -1   2  -8   74.82    5.68
  -1   2  -7   40.39    3.94
  -1   2  -6 1608.44    8.48
  -1   2  -6 1615.22   20.44
  -1   2  -5 2672.97   15.71
  -1   2  -5 2696.32   24.28
  -1   2  -4  679.72   10.96
  -1   2  -4  691.41    6.51
  -1   2  -3  138.27    4.52
  -1   2  -3  131.60    3.77
  -1   2  -2 9999.00   33.29
  -1   2  -1 8101.03   27.44
  -1   2   0   46.09    1.92
  -1   2   0   75.75    2.28
  -1   2   1 1095.28    9.28
  -1   2   1 1103.59    7.12
  -1   2   2  296.88    3.10
  -1   2   3 4911.10   15.47
  -1   2   3 4864.45   14.93
  -1   2   4 1137.32    9.21
  -1   2   4 1110.62    8.40
  -1   2   5   41.31    2.20
  -1   3 -10  669.93   18.59
  -1   3  -9  554.43   15.87
  -1   3  -8  265.74   10.18
  -1   3  -7  400.12   11.35
  -1   3  -6  501.31   11.82
  -1   3  -6  502.56    5.83
  -1   3  -5 2436.63   23.39
  -1   3  -4   95.50    4.42
  -1   3  -3  524.45    9.13
  -1   3  -2 1136.00   12.54
  -1   3  -1 3738.21   21.64
  -1   3   0  796.56    8.61
  -1   3   0  773.99    9.46
  -1   3   1   56.38    2.59
  -1   3   1   57.18    1.98
  -1   3   2   56.31    1.36
  -1   4 -10  205.76   10.56
  -1   4  -9  827.84   19.12
  -1   4  -8   23.78    3.53
  -1   4  -7   45.41    4.26
  -1   4  -6  180.55    7.34
  -1   4  -5  996.10   15.56
  -1   4  -4  103.40    4.78
  -1   4  -3 1585.73   16.96
  -1   4  -2    2.79    1.09
  -1   4  -1 6633.40   32.46
  -1   4   0 1557.06   15.64
  -1   4   1 1076.64    9.03
  -1   4   1 1056.26   13.14
  -1   4   2  182.81    5.61
  -1   4   3  909.74   13.15
  -1   5 -10   28.59    5.02
  -1   5  -9 1017.25   21.08
  -1   5  -8  227.11    9.74
  -1   5  -7  423.92   12.28
  -1   5  -6  120.60    6.21
  -1   5  -5 3062.46   28.92
  -1   5  -4 1023.56   15.63
  -1   5  -3  305.50    8.32
  -1   5  -2  557.95   10.91
  -1   5  -1  693.06   11.89
  -1   5   0 1628.51   18.16
  -1   5   1    2.45    1.48
  -1   5   2   77.06    4.30
  -1   5   3  256.77    8.09
  -1   5   4  518.78   11.97
  -1   5   6  219.30    9.02
  -1   6  -9  494.78   15.42
  -1   6  -8  604.32   15.99
  -1   6  -7   13.24    3.08
  -1   6  -6    5.13    2.35
  -1   6  -5 1126.91   18.45
  -1   6  -4 1132.33   17.77
  -1   6  -3   13.55    2.34
  -1   6  -2   93.45    5.14
  -1   6  -1  375.09    9.89
  -1   6   0 1631.12   20.45
  -1   6   1    7.43    1.95
  -1   6   2  421.27   10.95
  -1   6   3   78.55    5.21
  -1   6   4  744.20   16.01
  -1   6   5   71.00    5.69
  -1   7  -8  329.89   12.42
  -1   7  -7    3.92    2.79
  -1   7  -6  248.09    9.98
  -1   7  -5  536.22   13.44
  -1   7  -4 2273.17   27.20
  -1   7  -3   95.78    5.81
  -1   7  -2  234.15    8.81
  -1   7  -1   51.91    4.36
  -1   7   0  853.95   16.80
  -1   7   1  282.10    9.64
  -1   7   2   45.99    4.55
  -1   7   3    2.62    2.21
  -1   8  -7   23.39    4.36
  -1   8  -6  181.36    9.01
  -1   8  -5    0.95    2.29
  -1   8  -4  565.88   14.80
  -1   8  -3  286.06   10.70
  -1   8  -2   16.19    3.36
  -1   8  -1   17.01    3.44
  -1   8   0  382.00   12.52
   0  -8   1   60.30    6.92
   0  -8   2  641.05   19.51
   0  -8   3   60.59    6.58
   0  -8   4  280.33   12.40
   0  -8   5   22.96    4.53
   0  -8   6  752.32   19.29
   0  -8   6  741.35   18.70
   0  -8   7  134.74    8.84
   0  -7  -3  110.06    9.12
   0  -7  -2  848.55   23.22
   0  -7  -1   29.34    5.30
   0  -7   0  382.42   14.65
   0  -7   1    5.83    3.10
   0  -7   2  715.51   18.70
   0  -7   3  444.66   14.53
   0  -7   4   46.78    4.84
   0  -7   4   61.15    4.89
   0  -7   5   12.07    2.91
   0  -7   5   17.02    3.52
   0  -7   6  519.65   14.58
   0  -7   6  530.22   15.23
   0  -7   7  302.75   12.16
   0  -7   8   33.98    4.91
   0  -6  -4   86.93    7.92
   0  -6  -3    3.09    2.94
   0  -6  -2  909.74   21.53
   0  -6  -1  599.09   17.03
   0  -6   0   27.90    4.00
   0  -6   1    7.72    2.75
   0  -6   2  796.76   13.01
   0  -6   2  817.52   17.98
   0  -6   3  686.20   13.44
   0  -6   3  658.41   15.69
   0  -6   4   51.43    4.26
   0  -6   4   54.92    4.78
   0  -6   5  318.44   10.39
   0  -6   5  306.42   10.41
   0  -6   6  777.13   17.45
   0  -6   6  726.48   15.36
   0  -6   7 1859.42   28.19
   0  -6   8    2.41    2.72
   0  -6   9  271.07   12.29
   0  -5  -5   80.97    6.93
   0  -5  -5   83.93    6.77
   0  -5  -4   87.26    6.80
   0  -5  -3   26.33    4.06
   0  -5  -2 1043.10   20.52
   0  -5  -1 2107.34   28.28
   0  -5   0   35.12    4.01
   0  -5   0   38.93    2.07
   0  -5   1  480.41   12.74
   0  -5   1  459.88    8.41
   0  -5   2 1877.26   19.07
   0  -5   2 1832.61   23.67
   0  -5   3 3624.69   29.82
   0  -5   3 3412.24   31.62
   0  -5   4  100.38    5.43
   0  -5   4   90.41    5.19
   0  -5   5  283.63    9.68
   0  -5   5  250.97    8.15
   0  -5   6   61.54    5.06
   0  -5   6   52.52    3.81
   0  -5   7 1396.96   23.51
   0  -5   8  385.96   13.12
   0  -5   9   58.34    5.87
   0  -5  10    9.19    3.55
   0  -4  -7   49.08    5.68
   0  -4  -6  481.53   14.32
   0  -4  -5  851.24   18.05
   0  -4  -5  800.91   17.13
   0  -4  -4  159.10    7.77
   0  -4  -4  158.84    7.17
   0  -4  -3  711.41   15.70
   0  -4  -3  734.11   14.33
   0  -4  -2  245.34    8.85
   0  -4  -2  250.49    7.95
   0  -4  -1 2010.80   24.00
   0  -4   0  559.32    7.46
   0  -4   0  550.58   12.32
   0  -4   1  100.15    3.81
   0  -4   1  104.06    5.29
   0  -4   2  623.05   10.31
   0  -4   2  620.32   12.30
   0  -4   3 3334.08   26.98
   0  -4   3 3288.23   25.73
   0  -4   4  440.53   10.30
   0  -4   4  443.89    9.63
   0  -4   5  147.95    6.52
   0  -4   5  135.79    5.15
   0  -4   6   21.98    3.15
   0  -4   6   19.02    2.08
   0  -4   7 1822.02   26.28
   0  -4   8 1220.92   22.31
   0  -4   9   78.92    6.32
   0  -4  10   57.50    6.01
   0  -3  -8    5.73    3.19
   0  -3  -7  134.59    7.98
   0  -3  -6  125.94    7.00
   0  -3  -5 1164.81   18.32
   0  -3  -5 1143.22   18.71
   0  -3  -4   52.44    4.08
   0  -3  -4   58.07    4.09
   0  -3  -3  213.44    7.39
   0  -3  -3  232.40    7.08
   0  -3  -2  204.54    7.10
   0  -3  -2  212.14    6.23
   0  -3  -1 1301.50   16.92
   0  -3  -1 1237.36   14.12
   0  -3   0  220.25    6.71
   0  -3   0  101.29    2.80
   0  -3   1 1764.83   13.96
   0  -3   1 1748.23   18.13
   0  -3   2  258.48    5.99
   0  -3   2  239.38    6.37
   0  -3   3 7537.58   35.79
   0  -3   3 7608.95   33.92
   0  -3   4 4558.21   25.34
   0  -3   4 4614.21   31.33
   0  -3   5  656.38   12.73
   0  -3   5  642.47    8.70
   0  -3   6  286.98    9.26
   0  -3   6  282.69    4.95
   0  -3   7  758.66   16.26
   0  -3   8  985.32   19.15
   0  -3   9   66.76    5.69
   0  -3  10   30.54    4.76
   0  -3  11   97.66    7.97
   0  -2  -9  282.24   12.52
   0  -2  -8   18.12    3.70
   0  -2  -7  107.75    6.66
   0  -2  -6   61.33    3.74
   0  -2  -6   65.91    4.79
   0  -2  -5 2589.70   22.77
   0  -2  -5 2545.64   25.64
   0  -2  -4 1378.24   16.24
   0  -2  -4 1444.01   17.41
   0  -2  -3 1405.39   16.02
   0  -2  -3 1449.94   15.53
   0  -2  -2  132.04    4.81
   0  -2  -2  174.87    4.83
   0  -2  -1 6358.94   30.79
   0  -2  -1 6493.67   25.87
   0  -2   0  253.88    3.61
   0  -2   0 2219.36   17.41
   0  -2   1  912.95   10.30
   0  -2   1  907.86    8.80
   0  -2   2 1323.90   12.51
   0  -2   2 1313.86   11.76
   0  -2   3  366.94    7.38
   0  -2   3  409.14    6.17
   0  -2   4 3256.72   24.57
   0  -2   4 3292.78   15.31
   0  -2   5   80.28    4.33
   0  -2   6  169.51    6.88
   0  -2   7  388.35   10.93
   0  -2   8  855.65   17.14
   0  -2   9   25.73    3.72
   0  -2  10  176.15    9.10
   0  -1  -9  928.58   21.02
   0  -1  -8  342.63   11.93
   0  -1  -7  316.80   10.38
   0  -1  -6   35.62    2.38
   0  -1  -6   44.09    3.78
   0  -1  -5 1655.79   14.44
   0  -1  -5 1614.95   18.82
   0  -1  -4 3101.56   19.46
   0  -1  -4 3070.94   15.95
   0  -1  -3  318.29    4.32
   0  -1  -3  299.95    5.93
   0  -1  -3  306.22    6.40
   0  -1  -2  149.48    2.14
   0  -1  -2  141.92    3.73
   0  -1  -2  143.48    3.73
   0  -1  -1 5423.91   20.85
   0  -1  -1 5702.01   19.22
   0  -1   0  530.23    5.91
   0  -1   0   -0.12    0.13
   0  -1   1   11.40    0.86
   0  -1   1   13.38    0.81
   0  -1   2  891.14    9.01
   0  -1   2  891.24    7.45
   0  -1   2  881.48    5.76
   0  -1   3  314.63    6.21
   0  -1   4 5512.47   29.60
   0  -1   5  529.56   10.18
   0  -1   6 1591.27   19.42
   0  -1   7    4.44    1.75
   0  -1   8 1432.50   21.03
   0  -1   9  158.01    7.69
   0   0 -10   37.40    5.26
   0   0  -9  401.61   13.42
   0   0  -8  591.73   14.85
   0   0  -7   29.19    3.39
   0   0  -6   10.51    2.11
   0   0  -5 1393.07    7.56
   0   0  -5 1293.06   15.71
   0   0  -4 2461.70   10.92
   0   0  -4 2377.90   18.82
   0   0  -3  181.43    4.15
   0   0  -3  182.61    4.50
   0   0  -3  185.57    2.83
   0   0  -2 1981.51   10.61
   0   0  -2 2049.71   11.86
   0   0  -1 2765.77    9.50
   0   0  -1    0.00    0.23
   0   0   1 3379.16   10.42
   0   0   1    0.17    0.24
   0   0   2 1972.07   10.75
   0   0   2 2051.50   11.37
   0   0   3  182.26    2.01
   0   0   3  170.33    4.09
   0   0   4 2443.13    7.93
   0   0   4 2403.93   18.20
   0   0   5 1311.83   14.87
   0   0   5 1307.20    5.55
   0   0   6    8.19    1.66
   0   0   7   26.64    2.86
   0   0   8  620.79   13.13
   0   1 -10   82.83    6.84
   0   1  -9  154.61    8.35
   0   1  -8 1463.26   22.33
   0   1  -7    7.03    2.12
   0   1  -6 1590.92   18.63
   0   1  -5  564.01   10.06
   0   1  -4 5696.67   27.44
   0   1  -3  339.54    5.85
   0   1  -2  908.90    5.97
   0   1  -2  916.42    7.82
   0   1  -1   12.80    0.86
   0   1  -1   14.37    0.98
   0   1   0 4675.57   10.47
   0   1   0 4732.55   14.31
   0   1   1 5666.81   19.43
   0   1   1 5679.87   18.69
   0   1   2  140.94    3.23
   0   1   2  142.35    2.17
   0   1   3  295.52    4.73
   0   1   3  285.78    4.25
   0   1   4 3108.16   17.20
   0   1   5 1645.10   14.40
   0   1   6   52.28    3.02
   0   2 -10  184.38    9.57
   0   2  -9   29.22    4.04
   0   2  -8  871.63   16.60
   0   2  -7  395.00   10.43
   0   2  -6  163.56    5.98
   0   2  -5   80.37    1.62
   0   2  -5   84.77    4.07
   0   2  -5   82.52    1.41
   0   2  -4 3334.52   14.97
   0   2  -4 3299.12   21.62
   0   2  -3  507.40    7.42
   0   2  -3  419.74    6.82
   0   2  -2 1395.91   12.23
   0   2  -2 1336.40   10.87
   0   2  -1  926.04    8.51
   0   2  -1  928.81    8.29
   0   2   0 2260.08    9.70
   0   2   0 2285.00   12.55
   0   2   4 1393.77    7.20
   0   2   4 1365.83    6.66
   0   3 -11  111.02    8.14
   0   3 -10   29.92    4.41
   0   3  -9   71.11    5.65
   0   3  -8  988.14   17.81
   0   3  -7  706.74   14.00
   0   3  -6  272.70    8.00
   0   3  -5  636.23   10.94
   0   3  -4 4512.98   26.74
   0   3  -3 7594.20   31.38
   0   3  -2  243.00    5.45
   0   3  -1 1764.68   13.76
   0   3   0  212.71    4.79
   0   3   0  201.20    3.21
   0   4 -11  406.08   14.80
   0   4 -10   53.21    5.53
   0   4  -9   78.34    5.87
   0   4  -8 1228.40   20.38
   0   4  -7 1735.02   22.38
   0   4  -6   18.73    2.48
   0   4  -5  134.47    5.39
   0   4  -4  421.35    8.75
   0   4  -3 3322.82   23.72
   0   4  -2  591.47    9.65
   0   4  -1  119.29    4.23
   0   4   0  558.72    9.20
   0   4   1 2085.84   18.27
   0   5 -10    5.52    3.05
   0   5  -9   56.95    5.28
   0   5  -8  423.64   12.41
   0   5  -7 1366.57   20.66
   0   5  -6   54.81    4.16
   0   5  -5  266.65    8.07
   0   5  -4   92.23    4.62
   0   5  -3 3480.49   27.23
   0   5  -2 1821.57   19.11
   0   5  -1  449.66    9.33
   0   5   0   43.64    3.09
   0   5   1 2161.34   21.67
   0   5   2 1051.99   15.94
   0   5   3   20.92    2.73
   0   6 -10   26.00    4.70
   0   6  -9  270.66   11.05
   0   6  -8    3.84    2.74
   0   6  -7 1815.03   24.72
   0   6  -6  776.36   15.63
   0   6  -5  299.56    9.22
   0   6  -4   50.99    3.93
   0   6  -3  680.45   13.45
   0   6  -2  825.25   14.54
   0   6  -1    7.68    2.01
   0   6   0   24.53    2.98
   0   6   1  592.91   12.78
   0   6   2  905.43   16.65
   0   6   3    2.95    2.02
   0   6   4   91.99    6.15
   0   7  -9   53.04    5.59
   0   7  -8   30.12    4.50
   0   7  -7  317.93   11.33
   0   7  -6  533.96   13.75
   0   7  -5   13.78    2.84
   0   7  -4   49.48    4.26
   0   7  -3  416.54   11.74
   0   7  -2  684.59   14.80
   0   7  -1    3.21    2.08
   0   7   0  392.92   11.45
   0   7   1   37.13    4.08
   0   7   2  823.28   17.34
   0   8  -7  127.16    7.60
   0   8  -6  735.42   17.24
   0   8  -5   25.43    3.81
   0   8  -4  274.81   10.47
   0   8  -3   48.35    4.89
   0   8  -2  679.48   16.43
   0   8  -1   56.60    5.28
   1  -8   0  409.65   16.31
   1  -8   1   10.65    4.20
   1  -8   2   14.17    4.30
   1  -8   3  289.84   12.91
   1  -8   4  604.51   18.20
   1  -8   5    4.22    2.87
   1  -8   5    2.81    3.12
   1  -8   6  170.52    9.60
   1  -8   6  185.87    9.69
   1  -8   7   18.82    4.29
   1  -7  -4  247.87   13.15
   1  -7  -3   -0.10    3.65
   1  -7  -2   37.89    5.77
   1  -7  -1  278.99   12.57
   1  -7   0  838.78   20.93
   1  -7   1   55.29    5.72
   1  -7   2  251.83   11.17
   1  -7   3   87.46    6.64
   1  -7   3   88.48    5.43
   1  -7   4 2212.00   30.52
   1  -7   4 2275.53   27.95
   1  -7   5  579.77   15.46
   1  -7   5  587.65   15.63
   1  -7   6  238.38   10.56
   1  -7   6  228.74    9.69
   1  -7   7    6.53    3.20
   1  -7   8  355.19   14.29
   1  -6  -5   53.69    6.23
   1  -6  -4  715.41   19.50
   1  -6  -3   76.68    6.72
   1  -6  -2  494.78   15.47
   1  -6  -1   33.29    4.41
   1  -6   0 1592.46   26.45
   1  -6   1  418.53   13.07
   1  -6   1  376.58    8.29
   1  -6   2   95.70    6.26
   1  -6   2   89.45    4.72
   1  -6   3   14.89    2.52
   1  -6   3   13.13    2.86
   1  -6   4 1171.34   20.12
   1  -6   4 1133.64   19.03
   1  -6   5 1116.89   20.23
   1  -6   5 1107.60   18.95
   1  -6   6    2.16    2.07
   1  -6   6    6.85    2.31
   1  -6   7   20.81    3.81
   1  -6   8  546.77   16.76
   1  -6   9  523.78   17.27
   1  -5  -5   -0.35    2.86
   1  -5  -4  505.03   14.72
   1  -5  -3  264.21   10.66
   1  -5  -2   73.77    5.46
   1  -5  -1   30.38    3.79
   1  -5   0 1620.84   24.10
   1  -5   0 1679.43   13.86
   1  -5   1  701.76   15.23
   1  -5   1  714.88   10.84
   1  -5   2  577.31   13.21
   1  -5   2  553.06   10.75
   1  -5   3  320.34    9.65
   1  -5   3  325.46    9.00
   1  -5   4 1022.12   17.36
   1  -5   4 1049.58   17.13
   1  -5   5 3043.68   31.95
   1  -5   5 3116.03   28.58
   1  -5   6  122.81    7.08
   1  -5   6  123.25    5.70
   1  -5   7  420.33   13.44
   1  -5   8  237.81   10.65
   1  -5   9 1023.25   23.14
   1  -4  -7  161.18    8.94
   1  -4  -6   93.09    6.38
   1  -4  -5    1.00    1.93
   1  -4  -5    3.49    2.19
   1  -4  -4 1086.36   18.88
   1  -4  -4 1133.62   18.35
   1  -4  -3  843.25   15.98
   1  -4  -2  181.85    7.52
   1  -4  -1 1061.74    8.06
   1  -4  -1 1008.69   16.84
   1  -4   0 1335.86   19.22
   1  -4   0 1532.91   12.31
   1  -4   1 6461.17   40.24
   1  -4   1 6589.95   30.46
   1  -4   2    4.28    1.32
   1  -4   2    3.37    1.74
   1  -4   3 1489.27   17.87
   1  -4   3 1593.84   18.70
   1  -4   4  108.20    5.49
   1  -4   4  124.71    5.35
   1  -4   5  991.62   17.30
   1  -4   5 1045.32   14.10
   1  -4   6  176.30    7.84
   1  -4   6  179.24    5.52
   1  -4   7   41.96    4.44
   1  -4   8   19.77    3.64
   1  -4   9  797.07   19.70
   1  -4  10  189.99   10.37
   1  -3  -8  383.91   13.24
   1  -3  -7 1018.43   19.99
   1  -3  -6    6.04    2.06
   1  -3  -6    2.92    1.94
   1  -3  -5  419.54   10.28
   1  -3  -5  383.27   10.17
   1  -3  -4 1097.44   16.27
   1  -3  -4 1055.92   15.43
   1  -3  -3 3100.22   26.22
   1  -3  -3 3235.13   24.79
   1  -3  -2   57.14    3.82
   1  -3  -2   54.73    1.27
   1  -3  -1   -0.07    0.24
   1  -3  -1   56.03    3.55
   1  -3   0  764.65   12.18
   1  -3   0  810.25    8.32
   1  -3   1 3631.11   25.77
   1  -3   1 3762.95   20.94
   1  -3   2 1095.83   13.13
   1  -3   2 1098.75   13.53
   1  -3   3  538.62   10.27
   1  -3   3  550.32    9.35
   1  -3   4   92.93    4.83
   1  -3   4  101.14    3.98
   1  -3   5 2364.76   25.32
   1  -3   6  477.31   12.32
   1  -3   7  387.65   11.73
   1  -3   8  236.96    9.86
   1  -3   9  492.25   14.69
   1  -3  10  611.01   17.69
   1  -2  -9  111.94    7.67
   1  -2  -8  139.83    7.73
   1  -2  -7  666.53   14.88
   1  -2  -6   86.07    3.92
   1  -2  -6   86.67    5.02
   1  -2  -5   47.49    3.03
   1  -2  -5   40.20    3.19
   1  -2  -4 1174.22   13.84
   1  -2  -4 1136.61   14.13
   1  -2  -3 4934.35   27.49
   1  -2  -3 4941.99   26.74
   1  -2  -2  351.37    7.14
   1  -2  -2  344.87    6.28
   1  -2  -1 1144.94    7.38
   1  -2  -1 1125.03   12.44
   1  -2   0   50.02    2.64
   1  -2   0   53.64    2.00
   1  -2   1 7823.15   29.73
   1  -2   1 8365.94   28.38
   1  -2   2 9122.22   34.49
   1  -2   2 9391.36   31.27
   1  -2   3  139.68    4.91
   1  -2   3  139.09    3.70
   1  -2   4  630.37   11.35
   1  -2   5 2616.33   25.11
   1  -2   6 1605.65   21.07
   1  -2   7   41.71    3.98
   1  -2   8   74.21    5.50
   1  -2   9   81.64    6.28
   1  -1 -10    0.18    3.18
   1  -1  -9  165.95    8.71
   1  -1  -8   72.28    5.39
   1  -1  -7 1057.10   17.48
   1  -1  -6  198.30    3.89
   1  -1  -6  193.24    6.79
   1  -1  -5  952.91   13.21
   1  -1  -5   -0.30    0.48
   1  -1  -4  412.47    6.35
   1  -1  -4  389.70    7.43
   1  -1  -3 7977.36   26.54
   1  -1  -3 7878.78   28.58
   1  -1  -2 9035.34   27.49
   1  -1  -2 9108.29   25.16
   1  -1  -1 1528.92    8.28
   1  -1  -1 1522.82   10.67
   1  -1   0  172.05    2.97
   1  -1   0  168.97    2.81
   1  -1   1 3405.69   14.85
   1  -1   1 3408.04   16.02
   1  -1   1 3412.13   15.27
   1  -1   2 2065.98   14.69
   1  -1   3  691.71    9.83
   1  -1   4   61.82    3.41
   1  -1   5 1551.33   18.12
   1  -1   6 2769.96   25.73
   1  -1   7   33.88    3.53
   1  -1   8  346.07   10.85
   1   0 -10  247.43   10.87
   1   0  -9  244.41   10.04
   1   0  -8   57.93    4.61
   1   0  -7 1427.20   19.16
   1   0  -6  653.80   11.65
   1   0  -5  337.11    7.27
   1   0  -4   82.93    3.17
   1   0  -3 1351.24    9.95
   1   0  -2 3728.94   11.89
   1   0  -1    6.80    0.78
   1   0  -1    2.54    0.40
   1   0   0 1201.13    7.73
   1   0   0 1184.41    6.13
   1   0   1 2557.60   10.99
   1   0   1 2555.55   12.25
   1   0   2 5437.23   17.16
   1   0   2 5716.20   21.37
   1   0   3  114.90    2.65
   1   0   3  112.37    3.51
   1   0   4 1352.64   13.93
   1   0   5   10.05    1.78
   1   0   6 3253.68   25.94
   1   0   7  865.27   14.40
   1   1 -11  255.01   11.66
   1   1 -10  284.44   11.07
   1   1  -9    2.49    2.25
   1   1  -8    4.04    1.89
   1   1  -7 1618.37   19.47
   1   1  -6 2161.23   19.84
   1   1  -5  290.64    6.41
   1   1  -4 1658.69   12.76
   1   1  -4 1772.56    6.60
   1   1  -3  329.18    3.75
   1   1  -3  338.78    4.95
   1   1  -2 8449.48   21.34
   1   1  -2 8457.84   18.35
   1   1  -1 3093.32   15.14
   1   1  -1 3126.70    9.75
   1   1  -1 3083.34   10.62
   1   1   0 4640.93   15.75
   1   1   0 4453.25   16.09
   1   1   1   11.52    0.85
   1   1   2 4618.56   17.31
   1   1   3  270.34    4.35
   1   1   4  321.26    5.88
   1   1   5    7.02    1.37
   1   2 -11  241.16   11.05
   1   2 -10  577.96   15.50
   1   2  -9   14.06    2.86
   1   2  -8  355.37   10.05
   1   2  -7  364.17    9.14
   1   2  -6 6514.42   34.13
   1   2  -5 1422.13    8.39
   1   2  -5 1417.14   14.18
   1   2  -4  853.99    7.98
   1   2  -4  846.55    9.66
   1   2  -3  348.15    5.42
   1   2  -2 2353.63   13.11
   1   2  -1  623.55    6.37
   1   2   1   49.67    1.74
   1   2   2 3207.96   12.41
   1   2   3 1693.51    9.35
   1   2   4  455.03    5.35
   1   3 -11   56.37    5.80
   1   3 -10  681.37   16.51
   1   3  -9   34.93    3.87
   1   3  -8  111.80    5.73
   1   3  -7  123.64    5.50
   1   3  -6 2227.67   20.57
   1   3  -5 1587.53   15.69
   1   3  -4  158.23    4.57
   1   3  -3   88.67    3.30
   1   3  -2 5146.23   23.67
   1   3  -1 3488.88   19.08
   1   3   0   74.71    2.94
   1   4 -10  669.84   16.29
   1   4  -9  174.43    7.85
   1   4  -8  381.23   10.58
   1   4  -7  176.25    6.73
   1   4  -6 1141.50   15.55
   1   4  -5 3436.66   25.16
   1   4  -4   26.39    2.28
   1   4  -3  777.26   11.02
   1   4  -2 1363.32   14.21
   1   4  -1 3206.12   21.56
   1   4   0   35.53    2.49
   1   4   1   65.51    3.44
   1   5  -9 1090.15   19.92
   1   5  -8   34.99    3.84
   1   5  -7  263.65    8.64
   1   5  -6  260.16    8.02
   1   5  -5  628.82   11.75
   1   5  -4   10.73    1.92
   1   5  -3  147.70    5.55
   1   5  -2  328.16    8.13
   1   5  -1 2444.09   22.20
   1   5   0  319.56    8.22
   1   5   1  521.02   11.03
   1   5   2   26.21    2.92
   1   5   3  756.42   14.75
   1   6  -8   63.96    5.19
   1   6  -7  169.36    7.52
   1   6  -6  129.90    6.26
   1   6  -5 1372.83   19.04
   1   6  -4  211.35    7.53
   1   6  -3  507.26   11.50
   1   6  -2  183.27    6.95
   1   6  -1  978.06   15.65
   1   6   0  852.90   15.07
   1   6   1   69.27    4.72
   1   6   2   72.39    5.08
   1   6   3  153.03    7.77
   1   7  -7   51.99    4.74
   1   7  -6    7.22    2.44
   1   7  -5  946.29   17.23
   1   7  -4  449.15   12.11
   1   7  -3   56.99    4.67
   1   7  -2   25.48    3.44
   1   7  -1  227.31    8.87
   1   7   0  387.31   11.69
   1   7   1    0.69    2.23
   1   8  -5  434.76   12.91
   1   8  -4  724.19   16.67
   1   8  -3    1.95    2.67
   1   8  -2  134.11    7.60
   2  -8  -1   78.22    7.94
   2  -8   0   36.61    5.85
   2  -8   1  598.25   19.10
   2  -8   2  880.42   22.27
   2  -8   3   16.84    4.39
   2  -8   4   67.91    6.57
   2  -8   4   57.16    5.30
   2  -8   5  328.52   12.88
   2  -8   5  333.86   12.84
   2  -8   6  396.18   14.57
   2  -7  -4   65.88    7.21
   2  -7  -3  249.09   12.67
   2  -7  -2  240.21   12.13
   2  -7  -1   50.69    5.96
   2  -7   0   27.36    4.72
   2  -7   1  456.11   15.37
   2  -7   2  877.80   20.27
   2  -7   2  849.67   15.49
   2  -7   3   11.68    2.61
   2  -7   3   28.16    3.99
   2  -7   4  255.00   10.72
   2  -7   4  248.50    9.91
   2  -7   5  138.81    7.78
   2  -7   5  139.35    8.09
   2  -7   6 1074.01   20.50
   2  -7   6 1118.91   23.27
   2  -7   7  123.88    8.60
   2  -6  -5    2.36    3.57
   2  -6  -4   24.28    4.38
   2  -6  -3  419.91   14.71
   2  -6  -2 1030.57   22.41
   2  -6  -1   23.61    3.90
   2  -6   0  806.15   11.80
   2  -6   0  791.72   18.67
   2  -6   1   49.25    4.92
   2  -6   1   37.46    3.01
   2  -6   2 1965.23   27.31
   2  -6   2 1914.51   21.84
   2  -6   3  828.59   17.75
   2  -6   3  797.69   15.60
   2  -6   4  299.94   10.27
   2  -6   4  299.50   10.44
   2  -6   5   57.34    5.13
   2  -6   5   73.50    5.32
   2  -6   6  955.95   20.58
   2  -6   6  978.67   18.28
   2  -6   7  224.22   10.73
   2  -6   8   80.10    7.20
   2  -5  -5   59.97    5.51
   2  -5  -4  222.30    9.82
   2  -5  -3   49.32    4.81
   2  -5  -2 2546.29   31.37
   2  -5  -1  976.41   10.91
   2  -5  -1  957.81   18.91
   2  -5   0  459.54    8.34
   2  -5   0  481.48   13.00
   2  -5   1    7.72    1.64
   2  -5   1    4.77    2.09
   2  -5   2 1325.75   20.74
   2  -5   2 1403.86   18.17
   2  -5   3  332.23   10.02
   2  -5   3  313.72    9.51
   2  -5   4   42.16    3.92
   2  -5   4   44.00    4.03
   2  -5   5    5.72    2.25
   2  -5   5    7.69    2.08
   2  -5   6  800.91   18.09
   2  -5   7  959.29   20.99
   2  -5   8   60.35    6.14
   2  -5   9  289.49   13.01
   2  -4  -8  130.05    8.65
   2  -4  -7    7.30    3.24
   2  -4  -6  806.74   16.36
   2  -4  -6  811.08   17.55
   2  -4  -5  160.75    7.52
   2  -4  -4  109.75    6.04
   2  -4  -3  275.08    9.31
   2  -4  -3  263.93    4.48
   2  -4  -2 2606.32   27.83
   2  -4  -2 2675.25   15.76
   2  -4  -1 1990.16   15.13
   2  -4  -1 1965.23   23.74
   2  -4   0   94.34    5.22
   2  -4   0   91.31    3.66
   2  -4   1  185.89    7.02
   2  -4   1  188.12    5.82
   2  -4   2 2822.54   26.05
   2  -4   2 2823.24   24.04
   2  -4   3 3587.05   28.85
   2  -4   3 3497.22   29.58
   2  -4   4    1.37    1.57
   2  -4   4    1.62    1.85
   2  -4   5  541.35   13.45
   2  -4   6  184.78    8.44
   2  -4   7 1784.69   27.27
   2  -4   8  124.81    7.95
   2  -4   9  215.38   10.92
   2  -3  -9   28.00    4.44
   2  -3  -8   74.49    5.76
   2  -3  -7    1.97    1.93
   2  -3  -6 1138.24   16.20
   2  -3  -6 1100.97   17.84
   2  -3  -5  724.79   13.16
   2  -3  -5  714.87   13.27
   2  -3  -4  666.23   12.62
   2  -3  -4  632.82   11.70
   2  -3  -3  742.78    8.64
   2  -3  -3  716.45   12.93
   2  -3  -2 1634.25   19.16
   2  -3  -2 1650.08   12.52
   2  -3  -1 7207.29   27.48
   2  -3  -1 7151.39   39.17
   2  -3   0 1367.66   12.76
   2  -3   0 1418.39   16.69
   2  -3   1  749.52   12.12
   2  -3   1  754.62   10.69
   2  -3   2  957.31   13.41
   2  -3   2 1001.25   13.65
   2  -3   3 4571.33   31.91
   2  -3   3 4577.05   28.59
   2  -3   4   56.75    4.11
   2  -3   5  100.45    5.70
   2  -3   6  376.20   11.52
   2  -3   7 1117.50   20.79
   2  -3   8  402.18   13.14
   2  -3   9   50.56    5.58
   2  -3  10   21.09    4.58
   2  -2 -10  234.79   11.26
   2  -2  -9  276.02   10.93
   2  -2  -8   37.28    4.06
   2  -2  -7  299.18    9.41
   2  -2  -6  433.90    8.38
   2  -2  -6  423.71   10.05
   2  -2  -5 3090.47   22.53
   2  -2  -5 2958.68   23.96
   2  -2  -4    4.70    1.40
   2  -2  -4   -0.33    1.05
   2  -2  -3 1454.03   12.77
   2  -2  -3 1432.25   15.25
   2  -2  -2  862.47   11.87
   2  -2  -2  837.62    9.07
   2  -2  -1 1478.52   11.97
   2  -2  -1 1484.45   14.97
   2  -2   0    9.42    1.23
   2  -2   0   14.19    1.73
   2  -2   1   16.45    1.79
   2  -2   1   18.80    1.73
   2  -2   2  699.80   10.58
   2  -2   3 5863.92   33.78
   2  -2   4 1728.09   19.82
   2  -2   5  789.65   14.52
   2  -2   6  160.58    7.08
   2  -2   7 1048.56   19.21
   2  -2   8  911.47   18.63
   2  -2   9    7.98    3.36
   2  -1 -10  203.15    9.87
   2  -1  -9  545.97   14.16
   2  -1  -8    8.12    2.34
   2  -1  -7   60.66    4.15
   2  -1  -6  730.72   11.90
   2  -1  -5 2875.90   20.78
   2  -1  -4  375.66    6.45
   2  -1  -3 1828.50   11.96
   2  -1  -3 1833.28   14.82
   2  -1  -2   50.76    2.36
   2  -1  -1 5592.54   15.66
   2  -1  -1 5759.70   23.63
   2  -1   0 1873.59   13.92
   2  -1   0 1855.04   11.31
   2  -1   1 1544.16   13.49
   2  -1   2 1154.35   12.66
   2  -1   3 2140.39   18.92
   2  -1   4 3766.43   27.88
   2  -1   5   33.53    3.16
   2  -1   6  213.34    7.88
   2  -1   7  430.82   11.62
   2  -1   8  347.49   11.15
   2   0 -10  159.55    8.31
   2   0  -9 1230.10   20.14
   2   0  -8  146.29    6.38
   2   0  -7  588.95   11.28
   2   0  -6   70.73    3.44
   2   0  -5 3929.32   21.57
   2   0  -4 6074.02   21.60
   2   0  -3   22.20    1.93
   2   0  -3   18.44    0.91
   2   0  -2  624.18    8.34
   2   0  -1 4876.25   11.54
   2   0  -1 4666.48   21.19
   2   0   0 1891.45   13.79
   2   0   0 1891.15   11.10
   2   0   1 1181.91   11.33
   2   0   2   43.19    2.43
   2   0   3 1165.21   12.91
   2   0   4 1525.23   16.39
   2   0   5   40.27    3.10
   2   0   6  505.15   10.91
   2   1 -10   10.99    3.03
   2   1  -9 1010.57   17.25
   2   1  -8 1182.43   17.07
   2   1  -7  167.76    5.78
   2   1  -6    6.01    1.30
   2   1  -5 2754.72   16.65
   2   1  -5 2730.70   13.44
   2   1  -4   -0.05    0.27
   2   1  -3   61.96    1.42
   2   1  -2  188.83    2.26
   2   1  -2  192.94    2.26
   2   1  -1 4234.82   22.01
   2   1  -1 4215.83   15.32
   2   1   0 9100.34   30.22
   2   1   1  165.48    4.22
   2   1   2 2139.13   15.67
   2   1   3   17.53    1.74
   2   1   4 2194.92   17.98
   2   1   5  626.86   10.57
   2   2  -9  598.82   12.99
   2   2  -8 1046.24   15.51
   2   2  -7   30.02    2.62
   2   2  -6  787.81   10.49
   2   2  -5 1042.31   10.58
   2   2  -4 4902.04   19.94
   2   2  -3  461.03    5.65
   2   2  -3  462.54    5.90
   2   2  -2  789.67    7.25
   2   2  -2  777.25    7.89
   2   2  -1   62.72    3.02
   2   2   0 6316.06   27.53
   2   2   1 2505.59   16.51
   2   2   2  212.39    4.83
   2   2   3   40.25    2.22
   2   3  -9   89.64    5.28
   2   3  -8 1483.58   18.58
   2   3  -7  459.19    9.22
   2   3  -6  524.31    9.13
   2   3  -5    8.48    1.38
   2   3  -4 2683.94   17.37
   2   3  -3   62.31    2.69
   2   3  -2  750.19    8.94
   2   3  -1  170.12    4.43
   2   4  -8  885.20   14.84
   2   4  -7  113.31    5.05
   2   4  -6  138.16    5.08
   2   4  -5    7.83    1.54
   2   4  -4 2407.74   19.14
   2   4  -3 1833.04   16.56
   2   4  -2  491.08    8.54
   2   4  -1 1073.71   13.05
   2   4   0  347.85    7.80
   2   5  -7 1010.92   15.66
   2   5  -6    8.32    2.02
   2   5  -5  230.52    6.94
   2   5  -4  505.99   10.16
   2   5  -3 2197.27   20.95
   2   5  -2   33.05    2.79
   2   5  -1  292.61    7.79
   2   5   0  197.04    6.87
   2   5   1  541.59   11.92
   2   5   2    2.02    1.78
   2   6  -5   58.69    4.16
   2   6  -4  386.54   10.00
   2   6  -3 1270.68   18.14
   2   6  -2  273.03    8.68
   2   6  -1  161.55    6.79
   2   6   0    6.93    2.21
   2   6   1  642.03   14.39
   2   6   2  207.82    8.81
   2   7  -3  613.62   14.30
   2   7  -2  478.97   12.70
   2   7  -1    3.98    2.61
   2   7   0    9.17    3.02
   3  -8  -1  479.10   17.82
   3  -8   0   94.97    8.29
   3  -8   1  235.53   12.13
   3  -8   2   63.37    6.71
   3  -8   3  539.29   17.41
   3  -8   3  516.14   14.85
   3  -8   4  395.64   14.87
   3  -8   4  398.13   13.54
   3  -8   5   30.80    5.17
   3  -8   5   38.79    5.42
   3  -8   6   36.57    5.56
   3  -7  -5  427.08   16.57
   3  -7  -4  122.30    9.17
   3  -7  -3  150.59    9.93
   3  -7  -2   20.45    4.74
   3  -7  -1  690.69   19.69
   3  -7   0  783.33   20.36
   3  -7   1    2.33    2.75
   3  -7   1    5.19    2.20
   3  -7   2  130.43    8.23
   3  -7   2  117.06    6.50
   3  -7   3  329.21   12.79
   3  -7   3  341.35   11.45
   3  -7   4  508.68   15.25
   3  -7   4  537.39   15.28
   3  -7   5   87.96    6.81
   3  -7   5   88.77    7.17
   3  -7   6   76.83    6.81
   3  -7   7  202.18   11.02
   3  -6  -5  383.37   14.30
   3  -6  -4  572.42   16.95
   3  -6  -3   29.34    4.61
   3  -6  -2   40.92    5.15
   3  -6  -1  948.14   13.73
   3  -6  -1  986.21   21.29
   3  -6   0 1042.13   15.60
   3  -6   0 1026.38   21.01
   3  -6   1    0.80    1.47
   3  -6   1    0.57    2.10
   3  -6   2   40.52    4.50
   3  -6   2   46.20    4.02
   3  -6   3  428.15   12.91
   3  -6   3  425.54   12.30
   3  -6   4 1963.08   27.89
   3  -6   4 1859.12   27.58
   3  -6   5  181.08    8.38
   3  -6   5  159.61    8.60
   3  -6   6  463.21   14.81
   3  -6   7    4.47    3.08
   3  -5  -6   20.70    4.12
   3  -5  -5  533.70   15.00
   3  -5  -4 1023.53   20.26
   3  -5  -3    4.46    2.42
   3  -5  -2  595.29   15.02
   3  -5  -2  595.01    9.89
   3  -5  -1  153.51    5.38
   3  -5  -1  164.02    7.90
   3  -5   0 3131.82   25.66
   3  -5   0 3140.62   33.31
   3  -5   1  699.78   12.80
   3  -5   1  756.38   16.57
   3  -5   2  151.72    7.23
   3  -5   2  132.18    6.14
   3  -5   3   29.73    3.59
   3  -5   3   33.06    3.56
   3  -5   4 1902.62   24.51
   3  -5   4 1883.66   26.01
   3  -5   5  942.25   19.40
   3  -5   6   93.56    6.88
   3  -5   7   14.15    3.52
   3  -5   8  530.91   17.32
   3  -4  -6  487.41   12.70
   3  -4  -5   12.68    2.75
   3  -4  -4 1570.00   22.82
   3  -4  -4 1464.80   14.82
   3  -4  -3  710.90   10.31
   3  -4  -3  744.65   15.35
   3  -4  -2  208.12    5.75
   3  -4  -2  221.47    8.30
   3  -4  -1    5.10    1.33
   3  -4  -1    3.71    1.95
   3  -4   0 2243.78   20.80
   3  -4   0 2243.16   25.60
   3  -4   1  343.31    8.56
   3  -4   1  350.44   10.11
   3  -4   2  696.58   13.79
   3  -4   2  658.14   12.83
   3  -4   3  115.70    5.90
   3  -4   4 1825.10   24.90
   3  -4   5 1494.54   23.48
   3  -4   6   14.66    3.25
   3  -4   7  212.19   10.26
   3  -4   8  156.70    9.46
   3  -4   9  676.63   19.75
   3  -3  -9   29.17    4.62
   3  -3  -8  668.00   16.14
   3  -3  -7  148.84    7.30
   3  -3  -6  365.43    9.47
   3  -3  -5   33.13    3.37
   3  -3  -4 1998.31   22.52
   3  -3  -4 1923.82   17.87
   3  -3  -3  224.75    5.95
   3  -3  -3  237.83    7.76
   3  -3  -2  376.10    7.70
   3  -3  -2  397.87    9.97
   3  -3  -1   38.51    2.69
   3  -3  -1   39.24    3.31
   3  -3   0 2205.62   20.08
   3  -3   0 2200.92   22.53
   3  -3   1 3869.22   27.40
   3  -3   2  162.99    6.21
   3  -3   3 1780.21   21.42
   3  -3   4  291.16    9.41
   3  -3   5 1984.77   25.89
   3  -3   6  211.02    9.10
   3  -3   7   78.56    6.13
   3  -3   8   47.51    5.36
   3  -3   9  462.47   15.88
   3  -2  -9   63.21    5.31
   3  -2  -8  999.09   17.43
   3  -2  -7  774.52   13.97
   3  -2  -6  101.94    4.81
   3  -2  -4 1617.91   16.81
   3  -2  -3 4093.38   25.22
   3  -2  -2   50.24    2.86
   3  -2  -1  488.14    8.87
   3  -2   0  615.10   10.14
   3  -2   1 4115.13   27.51
   3  -2   2  166.85    5.93
   3  -2   3  985.79   15.38
   3  -2   4  216.42    7.80
   3  -2   5 1340.45   20.25
   3  -2   6   19.80    3.28
   3  -2   7  126.14    7.43
   3  -2   8    3.09    2.87
   3  -1  -8  466.62   10.92
   3  -1  -7 1730.80   18.79
   3  -1  -6  273.92    6.59
   3  -1  -5  107.70    3.70
   3  -1  -4 1142.34   14.48
   3  -1  -3 4340.42   26.82
   3  -1  -2   50.54    2.84
   3  -1  -1  435.84    5.44
   3  -1  -1  434.29    8.12
   3  -1   0 2548.10   20.54
   3  -1   1 5236.28   30.04
   3  -1   2 1727.95   18.44
   3  -1   3  371.52    9.36
   3  -1   4  318.95    8.97
   3  -1   5 1068.88   17.09
   3  -1   6  753.37   15.31
   3  -1   7   87.43    6.05
   3   0  -8  404.06    9.34
   3   0  -7 1356.10   14.83
   3   0  -6    6.53    1.23
   3   0  -5  242.64    4.20
   3   0  -4  375.14    8.76
   3   0  -3 6558.48   34.76
   3   0  -2 3727.36   24.44
   3   0  -1 1015.46    7.89
   3   0  -1 1012.65   12.65
   3   0   0  405.79    8.04
   3   0   1 2944.18   22.46
   3   0   2 3105.34   23.60
   3   0   3   67.51    3.87
   3   0   4   37.26    3.28
   3   0   5  694.68   13.57
   3   1  -7 1501.39   14.15
   3   1  -6  874.33    8.59
   3   1  -5  261.13    3.07
   3   1  -3 1988.94   19.72
   3   1  -2 3228.42    9.66
   3   1  -2 3211.16   11.02
   3   1  -2 3211.95   23.99
   3   1  -1  157.08    5.24
   3   1  -1  181.21    4.00
   3   1   0  216.17    5.95
   3   1   1 2291.87   19.55
   3   1   2 1596.13   16.53
   3   1   3   11.80    1.92
   3   1   4  100.24    4.74
   3   2  -6  753.62    7.88
   3   2  -5  883.84    6.67
   3   2  -4  176.24    2.66
   3   2  -4  161.16    2.55
   3   2  -3 2039.75   10.48
   3   2  -3 2012.11   11.06
   3   2  -2 2897.81   24.08
   3   2  -2 2891.25   14.00
   3   2  -1  112.12    4.74
   3   2   0 1123.24   13.85
   3   2   1    8.09    1.59
   3   2   2 2046.45   18.58
   3   3  -5  155.95    3.91
   3   3  -4   -0.08    0.48
   3   3  -3   11.19    1.31
   3   3  -2 2107.08   14.92
   3   3  -1  634.49    8.92
   3   3   0  163.95    5.80
   3   3   1    2.75    1.55
   3   4  -4  265.53    6.20
   3   4  -3   71.57    3.39
   3   4  -2 1992.69   17.82
   3   4  -1  378.99    8.18
   3   4   0  141.23    5.36
   3   5  -3  182.30    6.22
   3   5  -2  517.54   10.45
   3   5  -1 1157.47   16.13
   3   5   0    3.81    1.96
   3   5   1   99.03    5.63
   3   5   2  127.01    6.67
   3   6   0    2.48    2.15
   3   6   1  113.97    6.73
   4  -8  -1   28.58    5.89
   4  -8   0   99.64    8.83
   4  -8   1  629.31   20.03
   4  -8   2   22.12    5.07
   4  -8   3  132.73    8.44
   4  -8   3  174.04   10.61
   4  -8   4   74.96    6.74
   4  -8   4   74.52    7.29
   4  -7  -4   88.43    8.14
   4  -7  -3  670.78   20.53
   4  -7  -2   66.03    7.06
   4  -7  -1   82.64    7.40
   4  -7   0   16.75    4.13
   4  -7   1  982.81   19.22
   4  -7   1  969.87   22.80
   4  -7   2  850.80   19.03
   4  -7   2  804.67   21.00
   4  -7   3   39.80    4.37
   4  -7   3   46.43    5.42
   4  -7   4   90.10    7.14
   4  -7   4   82.15    6.80
   4  -7   5  480.97   16.25
   4  -7   6  585.84   18.68
   4  -6  -5  174.66   10.15
   4  -6  -4   86.62    7.26
   4  -6  -3  510.82   16.26
   4  -6  -2  549.47   16.63
   4  -6  -1   33.61    3.42
   4  -6  -1   30.36    4.41
   4  -6   0   12.03    2.53
   4  -6   0   15.93    3.56
   4  -6   1  719.68   15.68
   4  -6   1  738.79   18.89
   4  -6   2  967.45   19.05
   4  -6   2  942.70   20.34
   4  -6   3   13.85    3.13
   4  -6   3    6.02    2.68
   4  -6   4  162.93    8.97
   4  -6   5  463.62   15.24
   4  -6   6  847.55   21.63
   4  -5  -6  319.48   11.93
   4  -5  -5   22.24    4.17
   4  -5  -4   57.16    5.74
   4  -5  -3  544.95   11.06
   4  -5  -3  607.73   16.35
   4  -5  -2  699.66   12.92
   4  -5  -2  759.13   17.88
   4  -5  -1  349.04    9.65
   4  -5  -1  370.43   12.71
   4  -5   0  358.74   10.05
   4  -5   0  380.14   12.43
   4  -5   1  906.88   16.79
   4  -5   1  893.20   18.49
   4  -5   2 1907.38   25.50
   4  -5   3  191.94    8.46
   4  -5   4  302.22   11.40
   4  -5   5   36.15    4.91
   4  -5   6  827.22   20.84
   4  -5   7  294.32   13.23
   4  -4  -5    4.52    1.81
   4  -4  -5    6.88    2.55
   4  -4  -4  126.48    5.43
   4  -4  -4  130.68    6.96
   4  -4  -3  295.40   10.17
   4  -4  -3  294.86    8.08
   4  -4  -2 2442.17   23.63
   4  -4  -2 2425.67   28.39
   4  -4  -1  474.25   10.84
   4  -4  -1  475.14   12.69
   4  -4   0  870.00   14.97
   4  -4   1   18.77    2.69
   4  -4   2 1734.34   24.06
   4  -4   3  443.31   11.64
   4  -4   4   82.26    6.01
   4  -4   5    5.20    2.54
   4  -4   6  596.92   16.99
   4  -4   7  252.71   11.87
   4  -3  -5  380.39    9.76
   4  -3  -4   38.91    3.22
   4  -3  -3  300.50    8.10
   4  -3  -2 2790.88   24.98
   4  -3  -1  930.30   14.83
   4  -3   0  434.96   10.53
   4  -3   1    4.38    1.76
   4  -3   2 2887.68   29.17
   4  -3   3 1017.48   18.45
   4  -3   4  112.54    6.53
   4  -3   5   73.52    5.31
   4  -3   6  182.42    8.49
   4  -3   7  627.08   17.52
   4  -3   8   18.46    4.61
   4  -2  -5  281.36    8.60
   4  -2  -4  792.14   13.33
   4  -2  -3   45.71    3.40
   4  -2  -2 4343.72   30.90
   4  -2  -1 3822.66   29.21
   4  -2   0  117.09    5.48
   4  -2   1  565.87   12.07
   4  -2   2  357.92   10.22
   4  -2   3 2536.11   27.88
   4  -2   4   93.18    5.85
   4  -2   5  146.02    7.60
   4  -2   6  182.01    8.88
   4  -2   7  566.91   16.30
   4  -1  -5 1751.27   21.47
   4  -1  -4   22.03    2.74
   4  -1  -3 1081.30   15.64
   4  -1  -2  621.11    5.54
   4  -1  -2  589.41   11.23
   4  -1  -1 3175.84   26.48
   4  -1   0  254.95    7.68
   4  -1   1   56.96    3.99
   4  -1   2  566.89   12.14
   4  -1   3 2263.23   25.51
   4  -1   4   81.26    5.28
   4  -1   5  364.38   11.49
   4  -1   6   27.97    4.02
   4   0  -5 1725.88   22.04
   4   0  -4    3.31    1.45
   4   0  -3 1456.02   18.45
   4   0  -2  367.38    9.08
   4   0  -2  333.62    2.84
   4   0  -1 3481.04   27.36
   4   0   0  139.58    5.73
   4   0   1  452.22   10.30
   4   0   2    1.28    1.44
   4   0   3 1128.91   17.81
   4   0   4 1018.28   17.66
   4   1  -4 1219.21   18.28
   4   1  -3  222.45    7.61
   4   1  -2  449.76    4.12
   4   1  -2  448.10   10.27
   4   1  -1 1059.78   15.88
   4   1   0 1249.84   17.07
   4   1   1  173.69    6.42
   4   1   2   90.44    4.97
   4   1   3  638.20   13.03
   4   2  -3    4.61    2.04
   4   2  -2   -0.37    0.59
   4   2  -2    6.34    1.97
   4   2  -1 1531.69   19.73
   4   2   0 1411.19   18.46
   4   2   1  173.30    6.70
   4   3  -1  267.85    6.27
   4   3  -1  265.46    8.77
   4   3   0 1634.92   20.82
   4   4   1  248.45    8.17
   5  -8   2  104.37    8.01
   5  -8   3  606.02   18.67
   5  -7  -3   33.48    5.83
   5  -7  -2  139.00    9.85
   5  -7  -1  494.47   17.51
   5  -7   0    3.92    2.74
   5  -7   0    4.61    3.67
   5  -7   1  345.63   12.53
   5  -7   1  333.20   13.93
   5  -7   2    4.54    3.19
   5  -7   3  889.18   21.66
   5  -7   4  220.72   11.68
   5  -6  -4   16.93    4.49
   5  -6  -3  264.45   12.27
   5  -6  -2   44.53    4.41
   5  -6  -2   42.18    5.54
   5  -6  -1 1157.91   20.42
   5  -6  -1 1176.04   25.07
   5  -6   0  489.63   13.87
   5  -6   1   53.56    5.21
   5  -6   2  197.87    9.92
   5  -6   3  209.43   10.44
   5  -6   4  512.09   16.97
   5  -6   5   18.77    4.51
   5  -5  -4  546.74   12.96
   5  -5  -3   23.04    3.16
   5  -5  -2   30.12    3.54
   5  -5  -1 1054.38   19.02
   5  -5   0 1037.12   19.45
   5  -5   1   20.92    3.49
   5  -5   2   55.62    5.50
   5  -5   3  450.11   14.67
   5  -5   4  807.15   20.23
   5  -5   5    7.89    3.65
   5  -5   6  269.64   13.52
   5  -4  -5  796.71   15.99
   5  -4  -4  767.57   15.36
   5  -4  -3   74.74    4.95
   5  -4  -2  300.72    9.78
   5  -4  -1 1033.27   18.29
   5  -4   0 2864.63   31.73
   5  -4   1  118.23    6.80
   5  -4   2   97.05    6.65
   5  -4   3  112.27    7.48
   5  -4   4  869.96   20.40
   5  -4   5  358.02   13.78
   5  -4   6   84.20    7.58
   5  -3  -6  277.34    9.91
   5  -3  -5  465.99   12.45
   5  -3  -4 1642.58   22.29
   5  -3  -3  262.66    8.92
   5  -3  -2  238.27    8.54
   5  -3  -1   18.64    2.86
   5  -3   0 1521.94   22.55
   5  -3   1  629.11   14.77
   5  -3   2  130.67    7.36
   5  -3   3  129.00    7.65
   5  -3   4 1483.43   26.07
   5  -3   5  411.69   14.55
   5  -3   6   50.54    6.25
   5  -2  -6  299.44   10.40
   5  -2  -5   32.68    3.72
   5  -2  -4 1570.02   21.95
   5  -2  -3  247.55    8.67
   5  -2  -2  353.94   10.28
   5  -2  -1    5.01    1.94
   5  -2   0 1831.95   24.11
   5  -2   1  888.70   17.50
   5  -2   2  410.03   12.19
   5  -2   3  195.05    8.80
   5  -2   4  681.20   17.09
   5  -2   5  813.03   19.58
   5  -2   6   39.42    5.41
   5  -1  -6  441.25   12.74
   5  -1  -5   89.86    5.77
   5  -1  -4 2184.93   25.79
   5  -1  -3 1487.45   21.14
   5  -1  -2  104.71    5.75
   5  -1  -1  150.02    6.87
   5  -1   0  374.46   10.81
   5  -1   1 1164.30   19.14
   5  -1   2   29.53    3.77
   5  -1   3  425.99   12.77
   5  -1   4   47.42    5.06
   5  -1   5  667.43   17.45
   5   0  -5  105.96    6.33
   5   0  -4  253.79    9.27
   5   0  -3 1852.58   23.76
   5   0  -2   31.59    3.42
   5   0  -1  179.44    7.50
   5   0   0  799.62   15.41
   5   0   1 1758.35   23.77
   5   0   2   42.72    4.26
   5   0   3  411.03   12.39
   5   1  -4  573.94   14.03
   5   1  -3 2614.34   29.27
   5   1  -2  191.86    7.93
   5   1  -1  571.81   13.38
   5   1   0   34.26    3.65
   5   1   1 1453.47   21.69
   5   1   2  632.23   14.63
   5   2  -3  837.20   17.08
   5   2  -2  857.50   17.13
   5   2  -1   28.64    3.69
   5   2   0   94.90    6.10
   6  -7   0   52.81    5.98
   6  -7   1  466.51   16.27
   6  -7   2   30.08    5.20
   6  -6  -2   25.74    4.36
   6  -6  -1   89.89    6.77
   6  -6   0  110.62    7.73
   6  -6   1 1002.41   23.10
   6  -6   2  263.95   12.37
   6  -6   3  109.34    8.68
   6  -5  -4    3.07    2.86
   6  -5  -3 1059.59   20.70
   6  -5  -2  477.99   14.37
   6  -5  -1   39.15    4.70
   6  -5   0    6.67    3.02
   6  -5   1  485.27   15.73
   6  -5   2  434.43   15.13
   6  -5   3    5.39    3.50
   6  -5   4   49.20    6.10
   6  -4  -5   48.52    5.12
   6  -4  -4   52.32    5.14
   6  -4  -3  304.35   11.09
   6  -4  -2  530.36   14.83
   6  -4  -1   87.76    6.41
   6  -4   0   57.35    5.56
   6  -4   1  945.17   21.28
   6  -4   2 1005.19   22.39
   6  -4   3    6.87    3.35
   6  -4   4  209.31   11.44
   6  -3  -6  563.71   15.62
   6  -3  -5   66.99    5.78
   6  -3  -4  128.71    7.41
   6  -3  -3  462.26   13.59
   6  -3  -2 1173.35   21.06
   6  -3  -1    0.62    2.19
   6  -3   0  507.91   14.55
   6  -3   1   84.11    6.60
   6  -3   2 1061.03   22.73
   6  -3   3  142.16    8.98
   6  -3   4   48.46    6.11
   6  -2  -6 1358.69   24.31
   6  -2  -5  130.55    7.72
   6  -2  -4   35.94    4.28
   6  -2  -3  153.54    7.94
   6  -2  -2  872.84   18.31
   6  -2  -1  258.68   10.32
   6  -2   0  188.00    8.97
   6  -2   1    4.11    2.56
   6  -2   2 1144.19   22.90
   6  -2   3  340.22   13.10
   6  -2   4  150.86    9.38
   6  -1  -6  835.67   19.32
   6  -1  -5  274.26   10.96
   6  -1  -4  158.71    8.25
   6  -1  -3  164.44    8.22
   6  -1  -2 2503.69   31.08
   6  -1  -1  786.44   17.58
   6  -1   0  167.11    8.45
   6  -1   1  144.73    8.08
   6  -1   2  442.04   14.22
   6  -1   3  683.78   18.46
   6  -1   4    1.08    3.34
   6   0  -5  626.19   16.57
   6   0  -4  144.54    8.12
   6   0  -3  113.75    6.97
   6   0  -2  849.66   18.36
   6   0  -1 1166.36   21.42
   6   0   0   63.09    5.43
   6   0   1   26.60    3.97
   6   0   2   82.33    6.37
   6   1  -5  427.98   14.24
   6   1  -4    7.88    2.87
   6   1  -3  291.24   11.26
   6   1  -2  205.80    9.68
   6   1  -1 1292.61   22.67
   6   1   0   25.94    4.30
   6   1   1  177.66    9.15
   6   2  -3  429.62   14.01
   6   2  -2   14.22    3.57
   6   2  -1  555.69   15.78
   7  -6  -2   94.59    7.69
   7  -6  -1  225.91   11.61
   7  -5  -4   10.28    3.97
   7  -5  -3  145.14    9.16
   7  -5  -2  115.37    8.15
   7  -5  -1  917.89   22.46
   7  -5   0   57.49    6.67
   7  -4  -6   39.06    5.54
   7  -4  -5  599.57   17.97
   7  -4  -4  236.58   11.26
   7  -4  -3   51.16    5.75
   7  -4  -2   -0.57    2.97
   7  -4  -1  700.53   19.49
   7  -4   0  352.19   14.22
   7  -4   1   15.75    4.26
   7  -3  -6   18.35    4.56
   7  -3  -5  473.33   15.88
   7  -3  -4  286.01   12.27
   7  -3  -3   25.45    4.43
   7  -3  -2   26.93    4.56
   7  -3  -1  728.95   19.00
   7  -3   0 1327.82   26.74
   7  -3   1    8.44    3.83
   7  -2  -6   60.84    6.71
   7  -2  -5  627.09   18.19
   7  -2  -4  910.33   21.15
   7  -2  -3    1.49    2.84
   7  -2  -2  214.10   10.68
   7  -2  -1   90.00    7.24
   7  -2   0  891.05   21.30
   7  -2   1  236.52   11.87
   7  -1  -6  131.01    8.95
   7  -1  -5   92.39    7.46
   7  -1  -4  738.44   20.07
   7  -1  -3   57.89    5.93
   7  -1  -2   86.40    7.03
   7  -1  -1    8.04    3.54
   7  -1   0  469.70   15.79
   7  -1   1  247.77   11.95
   7   0  -5   -0.61    3.03
   7   0  -4 1010.99   23.20
   7   0  -3  385.38   14.52
   7   0  -2  210.26   10.50
   7   0  -1   50.10    5.77
   7   0   0  300.23   13.06
   7   1  -4  288.62   12.85
   7   1  -3  554.13   17.60
   7   1  -2   -1.44    3.52
   7   1  -1   26.16    5.13
   0   0   0    0.00    0.00



TITL NaCuSeO in P1
REM P1 (#1 in standard setting)
CELL 0.71073   5.192746   5.908130   7.535789 103.9141 104.6613 105.3248
ZERR    1.00   0.000147   0.000169   0.000230   0.0025   0.0025   0.0025
LATT -1
SFAC C H N O
UNIT 11.00 10.00 1.00 1.00
TREF
HKLF 4
END
_computing_structure_solution     'SHELXT 2014/5 (Sheldrick, 2014)'
_computing_structure_solution     'SHELXT 2014/5 (Sheldrick, 2014)'
;
_shelx_hkl_checksum              64047
_olex2_submission_special_instructions 'No special instructions were received'
_oxdiff_exptl_absorpt_empirical_details
;
Empirical correction (ABSPACK) includes:
- Absorption correction using spherical harmonics
- Frame scaling
- Detector area scaling
;
_oxdiff_exptl_absorpt_empirical_full_max 2.458
_oxdiff_exptl_absorpt_empirical_full_min 0.667
loop_
_space_group_symop_operation_xyz
'x, y, z'
'-x, -y, -z'
loop_
_atom_site_label
_atom_site_type_symbol
_atom_site_fract_x
_atom_site_fract_y
_atom_site_fract_z
_atom_site_U_iso_or_equiv
_atom_site_adp_type
_atom_site_occupancy
_atom_site_site_symmetry_order
_atom_site_calc_flag
_atom_site_refinement_flags_posn
_atom_site_refinement_flags_adp
_atom_site_refinement_flags_occupancy
_atom_site_disorder_assembly
_atom_site_disorder_group
Se1 Se 1.05370(3) 0.93151(3) 0.73420(2) 0.01280(5) Uani 1 1 d . . . . .
Cu1 Cu 0.500000 1.000000 0.500000 0.01274(6) Uani 1 2 d S T P . .
Na1 Na 0.32005(15) 0.51253(13) 0.66708(11) 0.02049(14) Uani 1 1 d . . . . .
O1 O 1.1143(2) 0.7416(2) 0.86009(17) 0.0214(2) Uani 1 1 d . . . . .
O2 O 0.6940(2) 0.8035(2) 0.62531(17) 0.0154(2) Uani 1 1 d . . . . .
O3 O 1.1507(2) 0.8153(2) 0.53926(16) 0.01493(19) Uani 1 1 d . . . . .
O4 O 0.6508(3) 0.3464(3) 0.8085(2) 0.0237(2) Uani 1 1 d . . . . .
H4B H 0.719(6) 0.302(5) 0.897(4) 0.034(7) Uiso 1 1 d . . . . .
H4A H 0.784(7) 0.451(6) 0.825(4) 0.044(8) Uiso 1 1 d . . . . .
loop_
_atom_site_aniso_label
_atom_site_aniso_U_11
_atom_site_aniso_U_22
_atom_site_aniso_U_33
_atom_site_aniso_U_23
_atom_site_aniso_U_13
_atom_site_aniso_U_12
Se1 0.01031(8) 0.01362(8) 0.01551(8) 0.00679(6) 0.00450(5) 0.00384(5)
Cu1 0.00994(11) 0.01554(12) 0.01859(13) 0.01100(10) 0.00718(9) 0.00645(9)
Na1 0.0184(3) 0.0195(3) 0.0269(3) 0.0104(3) 0.0085(2) 0.0085(2)
O1 0.0197(5) 0.0286(6) 0.0212(6) 0.0171(5) 0.0055(4) 0.0098(5)
O2 0.0095(4) 0.0185(5) 0.0229(5) 0.0125(4) 0.0064(4) 0.0061(4)
O3 0.0123(4) 0.0172(5) 0.0191(5) 0.0086(4) 0.0085(4) 0.0058(4)
O4 0.0186(5) 0.0273(6) 0.0236(6) 0.0146(5) 0.0027(4) 0.0043(5)
loop_
_atom_type_symbol
_atom_type_description
_atom_type_scat_dispersion_real
_atom_type_scat_dispersion_imag
_atom_type_scat_source
Cu Cu 0.3201 1.2651 'International Tables Vol C Tables 4.2.6.8 and 6.1.1.4'
H H 0.0000 0.0000 'International Tables Vol C Tables 4.2.6.8 and 6.1.1.4'
Na Na 0.0362 0.0249 'International Tables Vol C Tables 4.2.6.8 and 6.1.1.4'
O O 0.0106 0.0060 'International Tables Vol C Tables 4.2.6.8 and 6.1.1.4'
Se Se -0.0929 2.2259 'International Tables Vol C Tables 4.2.6.8 and 6.1.1.4'
loop_
_geom_angle_atom_site_label_1
_geom_angle_atom_site_label_2
_geom_angle_atom_site_label_3
_geom_angle
_geom_angle_site_symmetry_1
_geom_angle_site_symmetry_3
_geom_angle_publ_flag
Na1 Se1 Na1 68.36(2) 1_655 2_666 ?
O1 Se1 Na1 94.30(5) . 2_666 ?
O1 Se1 Na1 48.48(4) . 1_655 ?
O1 Se1 O2 100.97(6) . . ?
O1 Se1 O3 100.02(6) . . ?
O2 Se1 Na1 109.34(4) . 1_655 ?
O2 Se1 Na1 50.23(4) . 2_666 ?
O2 Se1 O3 98.77(5) . . ?
O3 Se1 Na1 50.65(4) . 2_666 ?
O3 Se1 Na1 51.76(4) . 1_655 ?
Na1 Cu1 Na1 180.0 1_565 2_666 ?
Na1 Cu1 Na1 61.19(2) . 2_666 ?
Na1 Cu1 Na1 118.81(2) 2_676 2_666 ?
Na1 Cu1 Na1 61.19(2) 2_676 1_565 ?
Na1 Cu1 Na1 180.00(2) . 2_676 ?
Na1 Cu1 Na1 118.81(2) . 1_565 ?
O2 Cu1 Na1 137.42(3) 2_676 . ?
O2 Cu1 Na1 134.63(4) . 1_565 ?
O2 Cu1 Na1 45.37(4) . 2_666 ?
O2 Cu1 Na1 42.58(3) . . ?
O2 Cu1 Na1 134.63(4) 2_676 2_666 ?
O2 Cu1 Na1 42.58(3) 2_676 2_676 ?
O2 Cu1 Na1 137.42(3) . 2_676 ?
O2 Cu1 Na1 45.37(4) 2_676 1_565 ?
O2 Cu1 O2 180.00(4) 2_676 . ?
O2 Cu1 O3 87.93(4) 2_676 2_776 ?
O2 Cu1 O3 92.07(4) 2_676 1_455 ?
O2 Cu1 O3 92.07(4) . 2_776 ?
O2 Cu1 O3 87.93(4) . 1_455 ?
O3 Cu1 Na1 134.33(3) 1_455 2_676 ?
O3 Cu1 Na1 95.93(3) 1_455 2_666 ?
O3 Cu1 Na1 84.07(3) 1_455 1_565 ?
O3 Cu1 Na1 134.33(3) 2_776 . ?
O3 Cu1 Na1 45.67(3) 2_776 2_676 ?
O3 Cu1 Na1 45.67(3) 1_455 . ?
O3 Cu1 Na1 84.07(3) 2_776 2_666 ?
O3 Cu1 Na1 95.93(3) 2_776 1_565 ?
O3 Cu1 O3 180.0 2_776 1_455 ?
Se1 Na1 Se1 111.65(2) 1_455 2_666 ?
Se1 Na1 Cu1 167.95(3) 1_455 1_545 ?
Se1 Na1 Cu1 56.366(13) 2_666 1_545 ?
Se1 Na1 Cu1 100.71(2) 2_666 . ?
Se1 Na1 Cu1 59.274(12) 1_455 . ?
Se1 Na1 Na1 68.61(3) 2_666 2_666 ?
Se1 Na1 Na1 54.87(2) 2_666 2_566 ?
Se1 Na1 Na1 56.780(18) 1_455 2_566 ?
Se1 Na1 Na1 117.74(3) 1_455 2_666 ?
Cu1 Na1 Cu1 118.81(2) . 1_545 ?
Cu1 Na1 Na1 73.61(2) . 2_566 ?
Cu1 Na1 Na1 58.962(19) 1_545 2_666 ?
Cu1 Na1 Na1 111.22(3) 1_545 2_566 ?
Cu1 Na1 Na1 59.847(19) . 2_666 ?
Na1 Na1 Na1 94.66(4) 2_666 2_566 ?
O1 Na1 Se1 122.56(4) 1_455 2_666 ?
O1 Na1 Se1 31.72(3) 1_455 1_455 ?
O1 Na1 Cu1 88.14(3) 1_455 . ?
O1 Na1 Cu1 153.05(4) 1_455 1_545 ?
O1 Na1 Na1 74.69(4) 1_455 2_566 ?
O1 Na1 Na1 147.99(5) 1_455 2_666 ?
O1 Na1 O2 154.18(5) 1_455 2_666 ?
O1 Na1 O3 64.65(4) 1_455 1_455 ?
O1 Na1 O3 92.69(4) 1_455 2_666 ?
O2 Na1 Se1 134.58(4) 2_666 1_455 ?
O2 Na1 Se1 87.01(3) . 1_455 ?
O2 Na1 Se1 110.88(4) . 2_666 ?
O2 Na1 Se1 31.75(3) 2_666 2_666 ?
O2 Na1 Cu1 96.18(3) . 1_545 ?
O2 Na1 Cu1 34.40(2) 2_666 1_545 ?
O2 Na1 Cu1 94.69(3) 2_666 . ?
O2 Na1 Cu1 34.36(3) . . ?
O2 Na1 Na1 81.50(4) 2_666 2_566 ?
O2 Na1 Na1 45.50(3) . 2_666 ?
O2 Na1 Na1 42.76(3) 2_666 2_666 ?
O2 Na1 Na1 105.95(4) . 2_566 ?
O2 Na1 O1 107.62(5) . 1_455 ?
O2 Na1 O2 88.26(4) . 2_666 ?
O2 Na1 O3 138.02(5) . 2_666 ?
O2 Na1 O3 69.17(4) . 1_455 ?
O2 Na1 O3 62.73(4) 2_666 2_666 ?
O3 Na1 Se1 91.58(3) 1_455 2_666 ?
O3 Na1 Se1 32.07(3) 2_666 2_666 ?
O3 Na1 Se1 33.05(3) 1_455 1_455 ?
O3 Na1 Se1 92.76(3) 2_666 1_455 ?
O3 Na1 Cu1 138.39(4) 1_455 1_545 ?
O3 Na1 Cu1 35.03(3) 1_455 . ?
O3 Na1 Cu1 114.05(3) 2_666 . ?
O3 Na1 Cu1 77.08(3) 2_666 1_545 ?
O3 Na1 Na1 100.25(4) 2_666 2_666 ?
O3 Na1 Na1 86.39(4) 1_455 2_666 ?
O3 Na1 Na1 44.54(3) 1_455 2_566 ?
O3 Na1 Na1 43.92(3) 2_666 2_566 ?
O3 Na1 O2 104.50(4) 1_455 2_666 ?
O3 Na1 O3 88.46(4) 1_455 2_666 ?
O4 Na1 Se1 145.95(5) . 1_455 ?
O4 Na1 Se1 101.45(4) . 2_666 ?
O4 Na1 Cu1 45.99(4) . 1_545 ?
O4 Na1 Cu1 123.00(4) . . ?
O4 Na1 Na1 81.20(4) . 2_666 ?
O4 Na1 Na1 155.18(6) . 2_566 ?
O4 Na1 O1 120.58(5) . 1_455 ?
O4 Na1 O2 78.94(5) . 2_666 ?
O4 Na1 O2 88.64(5) . . ?
O4 Na1 O3 112.44(5) . 2_666 ?
O4 Na1 O3 157.22(5) . 1_455 ?
Se1 O1 Na1 99.80(6) . 1_655 ?
Se1 O2 Cu1 117.35(6) . . ?
Se1 O2 Na1 98.02(5) . 2_666 ?
Se1 O2 Na1 135.64(6) . . ?
Cu1 O2 Na1 100.23(5) . 2_666 ?
Cu1 O2 Na1 103.05(4) . . ?
Na1 O2 Na1 91.74(4) . 2_666 ?
Se1 O3 Cu1 122.42(6) . 1_655 ?
Se1 O3 Na1 97.27(5) . 2_666 ?
Se1 O3 Na1 95.19(5) . 1_655 ?
Cu1 O3 Na1 99.30(4) 1_655 1_655 ?
Cu1 O3 Na1 137.24(6) 1_655 2_666 ?
Na1 O3 Na1 91.54(4) 1_655 2_666 ?
loop_
_geom_bond_atom_site_label_1
_geom_bond_atom_site_label_2
_geom_bond_distance
_geom_bond_site_symmetry_2
_geom_bond_publ_flag
Se1 Na1 3.1398(7) 1_655 ?
Se1 Na1 3.2118(8) 2_666 ?
Se1 O1 1.6752(11) . ?
Se1 O2 1.7067(11) . ?
Se1 O3 1.7193(11) . ?
Cu1 Na1 3.4161(7) . ?
Cu1 Na1 3.4162(7) 2_676 ?
Cu1 Na1 3.4475(7) 1_565 ?
Cu1 Na1 3.4475(7) 2_666 ?
Cu1 O2 1.9793(10) . ?
Cu1 O2 1.9793(10) 2_676 ?
Cu1 O3 1.9871(10) 1_455 ?
Cu1 O3 1.9871(10) 2_776 ?
Na1 Na1 3.5686(14) 2_566 ?
Na1 Na1 3.4936(14) 2_666 ?
Na1 O1 2.3857(14) 1_455 ?
Na1 O2 2.3729(13) . ?
Na1 O2 2.4930(14) 2_666 ?
Na1 O3 2.4761(12) 1_455 ?
Na1 O3 2.5040(14) 2_666 ?
Na1 O4 2.3488(14) . ?
