#------------------------------------------------------------------------------
#$Date: 2021-10-29 02:52:10 +0300 (Fri, 29 Oct 2021) $
#$Revision: 270127 $
#$URL: file:///home/coder/svn-repositories/cod/cif/7/70/86/7708641.cif $
#------------------------------------------------------------------------------
#
# This file is available in the Crystallography Open Database (COD),
# http://www.crystallography.net/
#
# All data on this site have been placed in the public domain by the
# contributors.
#
data_7708641
loop_
_publ_author_name
'Biancalana, Lorenzo'
'Zanda, Emanuele'
'Hadiji, Mouna'
'Zacchini, Stefano'
'Pratesi, Alessandro'
'Pampaloni, Guido'
'Dyson, Paul J.'
'Marchetti, Fabio'
_publ_section_title
;
 Role of the (pseudo)halido ligand in ruthenium(II) <i>p</i>-cymene
 \a-amino acid complexes in speciation, protein reactivity and
 cytotoxicity.
;
_journal_name_full
'Dalton transactions (Cambridge, England : 2003)'
_journal_paper_doi               10.1039/d1dt03274g
_journal_year                    2021
_chemical_formula_sum            'C20 H28 N12 Ru2'
_chemical_formula_weight         638.68
_space_group_crystal_system      triclinic
_space_group_IT_number           2
_space_group_name_Hall           '-P 1'
_space_group_name_H-M_alt        'P -1'
_atom_sites_solution_hydrogens   geom
_audit_creation_method           SHELXL-2014/7
_audit_update_record
;
2021-08-23 deposited with the CCDC.	2021-10-22 downloaded from the CCDC.
;
_cell_angle_alpha                83.3520(10)
_cell_angle_beta                 85.0850(10)
_cell_angle_gamma                77.2420(10)
_cell_formula_units_Z            1
_cell_length_a                   8.0847(4)
_cell_length_b                   8.2571(5)
_cell_length_c                   9.7821(5)
_cell_measurement_reflns_used    9937
_cell_measurement_temperature    100(2)
_cell_measurement_theta_max      34.845
_cell_measurement_theta_min      2.588
_cell_volume                     631.39(6)
_computing_cell_refinement       'APEX3 (Bruker AXS, 2015)'
_computing_data_collection       'APEX3 (Bruker AXS, 2015)'
_computing_data_reduction        'SAINT (Bruker AXS, 2015)'
_computing_molecular_graphics    'ORTEPIII (Johnson, 1996)'
_computing_publication_material  'XCIF 2014/2 (Bruker AXS, 2014)'
_computing_structure_refinement  'SHELXL-2014/7 (Sheldrick, 2014)'
_computing_structure_solution    'SHELXT (Sheldrick, 2015)'
_diffrn_ambient_temperature      100(2)
_diffrn_measured_fraction_theta_full 0.999
_diffrn_measured_fraction_theta_max 0.995
_diffrn_measurement_device_type  'PHOTON100 area detector'
_diffrn_measurement_method       'phi and omega scans'
_diffrn_radiation_type           MoK\a
_diffrn_radiation_wavelength     0.71073
_diffrn_reflns_av_R_equivalents  0.0177
_diffrn_reflns_av_unetI/netI     0.0187
_diffrn_reflns_Laue_measured_fraction_full 0.999
_diffrn_reflns_Laue_measured_fraction_max 0.995
_diffrn_reflns_limit_h_max       10
_diffrn_reflns_limit_h_min       -10
_diffrn_reflns_limit_k_max       10
_diffrn_reflns_limit_k_min       -10
_diffrn_reflns_limit_l_max       12
_diffrn_reflns_limit_l_min       -12
_diffrn_reflns_number            9239
_diffrn_reflns_point_group_measured_fraction_full 0.999
_diffrn_reflns_point_group_measured_fraction_max 0.995
_diffrn_reflns_theta_full        25.242
_diffrn_reflns_theta_max         27.999
_diffrn_reflns_theta_min         2.100
_diffrn_source                   'fine-focus sealed tube'
_exptl_absorpt_coefficient_mu    1.229
_exptl_absorpt_correction_T_max  0.7469
_exptl_absorpt_correction_T_min  0.6414
_exptl_absorpt_correction_type   empirical
_exptl_absorpt_process_details
; 
 Data were corrected for Lorentz polarization and absorption
 effects (empirical absorption correction SADABS).
 R(int) =  0.1081 (selected reflections only, before parameter refinement)
 R(int) =  0.0339 (selected reflections only, after parameter refinement)
;
_exptl_crystal_colour            orange-red
_exptl_crystal_density_diffrn    1.680
_exptl_crystal_description       prism
_exptl_crystal_F_000             320
_exptl_crystal_size_max          0.220
_exptl_crystal_size_mid          0.160
_exptl_crystal_size_min          0.140
_refine_diff_density_max         0.325
_refine_diff_density_min         -0.707
_refine_diff_density_rms         0.083
_refine_ls_extinction_method     none
_refine_ls_goodness_of_fit_ref   1.162
_refine_ls_hydrogen_treatment    constr
_refine_ls_matrix_type           full
_refine_ls_number_parameters     157
_refine_ls_number_reflns         3024
_refine_ls_number_restraints     0
_refine_ls_restrained_S_all      1.162
_refine_ls_R_factor_all          0.0183
_refine_ls_R_factor_gt           0.0177
_refine_ls_shift/su_max          0.001
_refine_ls_shift/su_mean         0.000
_refine_ls_structure_factor_coef Fsqd
_refine_ls_weighting_details
'w=1/[\s^2^(Fo^2^)+(0.0175P)^2^+0.5034P] where P=(Fo^2^+2Fc^2^)/3'
_refine_ls_weighting_scheme      calc
_refine_ls_wR_factor_gt          0.0454
_refine_ls_wR_factor_ref         0.0457
_reflns_Friedel_coverage         0.000
_reflns_number_gt                2959
_reflns_number_total             3024
_reflns_threshold_expression     'I > 2\s(I)'
_cod_data_source_file            d1dt03274g2.cif
_cod_data_source_block           RuN3
_cod_database_code               7708641
_shelx_shelxl_version_number     2014/7
_shelx_space_group_comment
;
The symmetry employed for this shelxl refinement is uniquely defined
by the following loop, which should always be used as a source of
symmetry information in preference to the above space-group names.
They are only intended as comments.
;
_shelx_estimated_absorpt_t_min   0.774
_shelx_estimated_absorpt_t_max   0.847
_shelx_res_file
;

    p-1.res created by SHELXL-2014/7


TITL p-1_a.res in P-1
CELL  0.71073   8.0847   8.2571   9.7821   83.352   85.085   77.242
ZERR    1.000   0.0004   0.0005   0.0005    0.001    0.001    0.001
LATT 1
SFAC C  H  N  Ru
UNIT 20  28  12  2
omit -4 1 2
OMIT -3 56
L.S. 10
ACTA
BOND $H
conf
FMAP 2
PLAN 20
size 0.22 0.16 0.14
TEMP -173
WGHT    0.017500    0.503400
FVAR       0.28045
C1    1    0.142634    0.810444    0.532537    11.00000    0.01784    0.01418 =
         0.01552    0.00060    0.00069    0.00668
C2    1    0.055274    0.745262    0.439163    11.00000    0.00954    0.02044 =
         0.01869    0.00305    0.00128    0.00250
AFIX  13
H2    2   -0.032378    0.680318    0.476232    11.00000   -1.20000
AFIX   0
C3    1    0.116918    0.739570    0.298522    11.00000    0.01063    0.01910 =
         0.01645    0.00187   -0.00254   -0.00042
AFIX  13
H3    2    0.070903    0.669533    0.240667    11.00000   -1.20000
AFIX   0
C4    1    0.263525    0.798852    0.246932    11.00000    0.01272    0.01373 =
         0.01329    0.00287   -0.00127   -0.00004
C5    1    0.348502    0.866625    0.342740    11.00000    0.01570    0.00986 =
         0.01848    0.00239   -0.00169   -0.00143
AFIX  13
H5    2    0.465012    0.886210    0.315109    11.00000   -1.20000
AFIX   0
C6    1    0.288429    0.875110    0.482053    11.00000    0.02216    0.00929 =
         0.01838   -0.00149   -0.00469    0.00179
AFIX  13
H6    2    0.363623    0.899700    0.549475    11.00000   -1.20000
AFIX   0
C7    1    0.087259    0.802897    0.683249    11.00000    0.03143    0.02280 =
         0.01569   -0.00044    0.00444    0.00877
AFIX 137
H7A   2    0.187038    0.785157    0.737798    11.00000   -1.50000
H7B   2    0.028740    0.710509    0.707527    11.00000   -1.50000
H7C   2    0.009868    0.908102    0.702760    11.00000   -1.50000
AFIX   0
C8    1    0.332388    0.792440    0.097963    11.00000    0.01568    0.01928 =
         0.01313    0.00306    0.00042   -0.00115
AFIX  13
H8    2    0.459079    0.771912    0.097037    11.00000   -1.20000
AFIX   0
C9    1    0.287382    0.652465    0.028928    11.00000    0.04172    0.02457 =
         0.01471   -0.00173    0.00246   -0.00920
AFIX 137
H9A   2    0.320078    0.546507    0.086354    11.00000   -1.50000
H9B   2    0.348455    0.644428   -0.061827    11.00000   -1.50000
H9C   2    0.164734    0.676647    0.017963    11.00000   -1.50000
AFIX   0
C10   1    0.269861    0.963978    0.018954    11.00000    0.02379    0.02070 =
         0.01692    0.00510   -0.00093   -0.00191
AFIX 137
H10A  2    0.145694    0.987522    0.018132    11.00000   -1.50000
H10B  2    0.319588    0.963953   -0.076000    11.00000   -1.50000
H10C  2    0.304381    1.049973    0.064289    11.00000   -1.50000
AFIX   0
N1    3    0.276250    0.383963    0.399328    11.00000    0.01772    0.01872 =
         0.02412   -0.00387    0.00412   -0.00948
N2    3    0.364309    0.298085    0.319862    11.00000    0.02140    0.01204 =
         0.01795    0.00170   -0.00298   -0.00899
N3    3    0.445254    0.209403    0.244008    11.00000    0.03908    0.01973 =
         0.02824   -0.01013    0.01024   -0.01128
N4    3    0.582058    0.506993    0.379125    11.00000    0.01037    0.01298 =
         0.01356    0.00201    0.00126   -0.00126
N5    3    0.673729    0.579574    0.300328    11.00000    0.01073    0.01758 =
         0.01430    0.00309   -0.00125   -0.00097
N6    3    0.759503    0.642639    0.223249    11.00000    0.01598    0.03976 =
         0.02699    0.01507   -0.00033   -0.00955
RU1   4    0.322928    0.618471    0.427929    11.00000    0.00806    0.00960 =
         0.01034    0.00045    0.00059   -0.00136
HKLF 4

REM  p-1_a.res in P-1
REM R1 =  0.0177 for    2959 Fo > 4sig(Fo)  and  0.0183 for all    3024 data
REM    157 parameters refined using      0 restraints

END

WGHT      0.0175      0.5033

REM Highest difference peak  0.325,  deepest hole -0.707,  1-sigma level  0.083
Q1    1   0.1117  0.8067  0.6056  11.00000  0.05    0.33
Q2    1   0.4127  0.9145  0.2977  11.00000  0.05    0.30
Q3    1   0.2994  0.8447  0.2968  11.00000  0.05    0.29
Q4    1   0.0784  0.7594  0.3627  11.00000  0.05    0.28
Q5    1   0.2923  0.8774  0.0619  11.00000  0.05    0.27
Q6    1   0.2132  0.8441  0.5057  11.00000  0.05    0.26
Q7    1   0.3868  0.9025 -0.1301  11.00000  0.05    0.26
Q8    1   0.2840  0.7365  0.0627  11.00000  0.05    0.25
Q9    1   0.4212  1.1042 -0.0974  11.00000  0.05    0.23
Q10   1   0.0538  0.7247  0.2365  11.00000  0.05    0.22
Q11   1   0.2976  0.3198  0.0455  11.00000  0.05    0.22
Q12   1   0.3761  0.2545  0.1438  11.00000  0.05    0.20
Q13   1   0.3770  0.2225  0.3149  11.00000  0.05    0.20
Q14   1   0.4453  0.9570  0.3462  11.00000  0.05    0.20
Q15   1  -0.1574  0.7400  0.6752  11.00000  0.05    0.19
Q16   1   0.3337  0.1951  0.2139  11.00000  0.05    0.19
Q17   1   0.1699  0.8054  0.2666  11.00000  0.05    0.19
Q18   1   0.2014  0.4137  0.0107  11.00000  0.05    0.19
Q19   1   0.0560  1.1287 -0.0024  11.00000  0.05    0.19
Q20   1   0.1810  1.3273  0.0375  11.00000  0.05    0.19
;
_shelx_res_checksum              61867
_shelx_hkl_file
;
  -1   0   0  284.21    7.79
   1   0   0  273.20    7.70
   2   0   0  585.74   13.42
  -3   0   0  831.43   23.21
   3   0   0  834.26   23.19
  -4   0   0   28.43    0.76
  -4   0   0   28.13    0.87
   4   0   0   28.36    0.72
   4   0   0   27.13    0.70
   4   0   0   28.14    0.86
  -5   0   0  277.50    6.52
  -5   0   0  297.43    6.69
   5   0   0  279.95    6.44
   5   0   0  277.14    6.68
   5   0   0  267.95    6.46
  -6   0   0   96.58    2.29
   6   0   0   87.25    2.17
   6   0   0   92.54    2.20
   6   0   0   91.95    2.48
  -7   0   0    1.43    0.28
  -7   0   0    1.51    0.24
   7   0   0    1.79    0.33
  -8   0   0   70.15    1.86
  -8   0   0   67.56    2.04
   8   0   0   70.89    2.13
  -9   0   0   55.48    1.78
  -9   0   0   55.59    1.59
   9   0   0   54.77    1.87
 -10   0   0    0.88    0.29
 -10   0   0    1.30    0.40
  10   0   0    0.63    0.40
 -11   0   0   45.97    1.69
 -11   0   0   44.95    1.48
  11   0   0   47.01    1.86
 -12   0   0   25.81    1.30
 -12   0   0   26.40    1.28
  12   0   0   26.36    1.45
 -12   1   0    4.86    0.85
  11  -1   0   56.94    2.14
 -11   1   0   56.95    1.97
  10  -1   0   42.37    1.68
 -10   1   0   39.80    1.51
 -10   1   0   40.42    1.28
   9  -1   0    6.33    0.67
  -9   1   0    7.75    0.62
  -9   1   0    7.31    0.46
   8  -1   0   87.91    2.58
  -8   1   0   89.72    2.29
  -8   1   0   89.30    2.53
   7  -1   0   50.53    1.26
   7  -1   0   48.67    1.58
  -7   1   0   49.85    1.36
  -7   1   0   49.71    1.57
   6  -1   0    4.73    0.22
   6  -1   0    4.57    0.39
  -6   1   0    4.29    0.24
  -6   1   0    4.03    0.44
   5  -1   0  185.45    4.36
   5  -1   0  187.20    4.61
  -5   1   0  191.17    4.61
  -5   1   0  185.15    4.40
   4  -1   0  173.76    4.14
   4  -1   0  180.18    4.32
   4  -1   0  177.05    4.13
  -4   1   0  180.78    4.33
   3  -1   0  214.98    4.94
   3  -1   0  208.38    4.79
   3  -1   0  206.25    4.81
   3  -1   0  202.13    4.85
   2  -1   0  134.93    3.34
   2  -1   0  143.75    3.28
   2  -1   0  138.72    3.28
  -2   1   0  143.73    3.37
  -2   1   0  143.53    3.28
  -2   1   0  141.68    3.28
   1  -1   0  163.26    3.71
   1  -1   0  159.53    3.67
  -1   1   0  153.28    3.70
   0  -1   0  316.08    8.51
   0   1   0  330.30    8.53
  -1  -1   0  985.58   23.85
   1   1   0 1000.00   23.82
  -2  -1   0   62.92    1.46
  -2  -1   0   62.85    1.45
  -2  -1   0   58.52    1.45
   2   1   0   56.39    1.47
   2   1   0   63.13    1.45
   2   1   0   60.46    1.50
  -3  -1   0  222.23    5.01
  -3  -1   0  215.55    4.94
   3   1   0  212.68    4.95
   3   1   0  205.27    5.04
  -4  -1   0  435.03    9.61
  -4  -1   0  395.49    9.45
   4   1   0  408.76    9.63
   4   1   0  411.70    9.48
  -5  -1   0    2.88    0.27
  -5  -1   0    3.17    0.19
  -5  -1   0    3.01    0.13
   5   1   0    2.58    0.24
   5   1   0    2.93    0.16
  -6  -1   0  181.75    4.35
  -6  -1   0  177.34    4.07
  -6  -1   0  160.89    4.28
   6   1   0  180.41    4.42
   6   1   0  181.04    4.13
  -7  -1   0   65.08    1.95
  -7  -1   0   72.08    1.83
   7   1   0   69.85    2.03
  -8  -1   0   18.49    0.83
  -8  -1   0   19.60    0.72
   8   1   0   19.13    0.88
  -9  -1   0   89.59    2.61
  -9  -1   0   96.74    2.49
   9   1   0   94.84    2.77
 -10  -1   0   17.00    0.89
  10   1   0   17.70    1.04
 -11  -1   0   21.85    1.10
  11   1   0   22.94    1.28
 -12  -1   0   48.85    1.76
  12   1   0   48.94    2.02
  11  -2   0    3.71    0.71
 -11   2   0    4.63    0.74
  10  -2   0   81.57    2.64
 -10   2   0   81.47    2.52
   9  -2   0   30.38    1.37
  -9   2   0   25.48    0.89
  -9   2   0   26.07    1.24
   8  -2   0   34.42    1.32
  -8   2   0   35.72    1.28
  -8   2   0   28.66    0.96
   7  -2   0  147.38    4.00
   7  -2   0  165.69    3.74
  -7   2   0  152.20    3.98
  -7   2   0  150.31    3.71
   6  -2   0    8.00    0.52
   6  -2   0    8.06    0.31
  -6   2   0    7.78    0.31
  -6   2   0    7.82    0.52
   5  -2   0   43.92    1.35
   5  -2   0   44.79    1.11
  -5   2   0   40.94    1.34
  -5   2   0   43.62    1.12
   4  -2   0  137.31    3.50
   4  -2   0  137.65    3.31
  -4   2   0  148.44    3.53
   3  -2   0    7.54    0.35
   3  -2   0    8.04    0.27
  -3   2   0    7.85    0.37
  -3   2   0    7.70    0.28
   2  -2   0  172.02    4.05
   2  -2   0  175.12    4.16
  -2   2   0  175.56    4.04
  -2   2   0  176.59    4.17
  -2   2   0  176.44    4.11
   1  -2   0   23.18    0.55
   1  -2   0   22.46    0.64
  -1   2   0   22.92    0.64
  -1   2   0   22.63    0.55
  -1   2   0   23.61    0.65
   0  -2   0  144.79    3.17
   0  -2   0  134.07    3.13
   0  -2   0  137.89    3.22
   0   2   0  125.71    3.17
   0   2   0  137.15    3.12
  -1  -2   0   66.72    1.68
  -1  -2   0   69.74    1.60
  -1  -2   0   69.63    1.62
   1   2   0   69.79    1.62
   1   2   0   67.85    1.60
  -2  -2   0   52.06    1.25
  -2  -2   0   52.44    1.21
  -2  -2   0   52.27    1.21
  -2  -2   0   47.21    1.28
   2   2   0   51.63    1.28
  -3  -2   0    1.85    0.13
  -3  -2   0    1.53    0.13
   3   2   0    1.69    0.10
   3   2   0    1.52    0.12
   3   2   0    1.58    0.15
  -4  -2   0   65.03    1.63
  -4  -2   0   67.16    1.66
   4   2   0   64.91    1.74
   4   2   0   64.70    1.62
  -5  -2   0  112.82    2.76
  -5  -2   0  111.08    2.70
   5   2   0  107.75    2.83
   5   2   0  110.73    2.66
  -6  -2   0   28.06    0.91
  -6  -2   0   28.08    0.86
   6   2   0   27.74    0.77
   6   2   0   26.81    0.99
  -7  -2   0  114.87    2.81
  -7  -2   0  108.11    3.02
   7   2   0  111.51    2.67
   7   2   0  110.37    3.00
  -8  -2   0    9.36    0.48
  -8  -2   0    9.24    0.59
   8   2   0    8.97    0.60
  -9  -2   0   43.38    1.44
   9   2   0   44.68    1.60
 -10  -2   0   41.94    1.45
  10   2   0   40.52    1.62
 -11  -2   0    0.66    0.43
  11   2   0   -0.07    0.46
  12   2   0   42.74    1.87
  11  -3   0    5.31    0.94
 -11   3   0    5.05    0.80
  10  -3   0   13.78    1.06
 -10   3   0   13.97    0.92
   9  -3   0   42.64    1.66
  -9   3   0   40.96    1.55
   8  -3   0    0.15    0.33
  -8   3   0    0.23    0.16
  -8   3   0    0.27    0.28
   7  -3   0   84.33    2.47
  -7   3   0   83.02    2.16
  -7   3   0   82.57    2.40
   6  -3   0   74.03    1.83
   6  -3   0   72.11    2.13
  -6   3   0   71.84    2.10
  -6   3   0   73.57    1.81
   5  -3   0    1.82    0.17
   5  -3   0    1.80    0.30
  -5   3   0    1.31    0.27
  -5   3   0    1.70    0.14
  -4   3   0   39.01    1.57
  -4   3   0   40.90    1.09
   3  -3   0  176.17    4.16
   3  -3   0  183.30    4.35
  -3   3   0  171.64    4.13
  -3   3   0  182.30    4.25
  -3   3   0  179.74    4.34
   2  -3   0   26.31    0.71
  -2   3   0   28.10    0.82
  -2   3   0   26.69    0.79
  -2   3   0   28.52    0.67
   1  -3   0  106.59    2.64
   1  -3   0  104.65    2.51
  -1   3   0  107.40    2.51
  -1   3   0  108.98    2.65
  -1   3   0  115.74    2.63
   0  -3   0   69.77    1.66
   0   3   0   71.06    1.79
   0   3   0   71.50    1.66
  -1  -3   0   40.46    0.97
  -1  -3   0   39.96    0.97
   1   3   0   38.94    0.96
   1   3   0   39.25    1.07
   1   3   0   38.82    0.99
  -2  -3   0  833.77   21.77
   2   3   0  815.25   21.71
  -3  -3   0   93.74    2.24
  -3  -3   0   91.44    2.18
  -3  -3   0   92.66    2.18
   3   3   0   92.93    2.29
   3   3   0   93.02    2.35
  -4  -3   0   96.64    2.34
  -4  -3   0   97.30    2.32
   4   3   0   93.28    2.37
   4   3   0   96.71    2.48
  -5  -3   0  208.90    5.00
  -5  -3   0  211.07    5.00
   5   3   0  211.03    5.16
   5   3   0  212.82    4.99
  -6  -3   0   14.62    0.56
  -6  -3   0   14.53    0.56
   6   3   0   15.54    0.51
   6   3   0   14.20    0.67
  -7  -3   0   60.27    1.69
  -7  -3   0   62.86    1.68
   7   3   0   61.02    1.86
   7   3   0   59.66    1.57
  -8  -3   0   54.84    1.63
  -8  -3   0   54.04    1.56
   8   3   0   53.77    1.77
  -9  -3   0    0.26    0.26
  -9  -3   0    0.06    0.22
   9   3   0    0.72    0.32
 -10  -3   0   33.64    1.23
 -10  -3   0   32.41    1.19
  10   3   0   32.54    1.44
 -11  -3   0   22.80    0.99
  11   3   0   21.71    1.28
 -12  -3   0    0.75    0.41
  12   3   0    2.71    0.64
  10  -4   0    0.39    0.57
 -10   4   0    0.58    0.41
   9  -4   0   29.96    1.44
  -9   4   0   30.10    1.30
   8  -4   0   28.29    1.31
  -8   4   0   28.98    1.24
   7  -4   0    1.13    0.37
  -7   4   0    1.24    0.34
   6  -4   0  114.70    2.78
   6  -4   0  112.33    3.12
  -6   4   0  112.43    2.70
  -6   4   0  112.31    3.04
   5  -4   0   47.04    1.52
  -5   4   0   47.74    1.29
  -5   4   0   46.06    1.17
  -5   4   0   46.73    1.47
   4  -4   0    9.05    0.52
  -4   4   0    8.55    0.38
  -4   4   0    8.82    0.51
   3  -4   0  238.86    5.78
  -3   4   0  267.82    6.03
  -3   4   0  242.33    5.76
  -3   4   0  255.03    5.96
   2  -4   0  236.99    5.70
  -2   4   0  237.58    5.67
  -2   4   0  238.15    5.47
  -2   4   0  242.30    5.67
   1  -4   0  152.14    3.77
  -1   4   0  158.66    3.74
  -1   4   0  160.08    3.61
  -1   4   0  155.89    3.80
   0  -4   0  227.41    5.28
   0  -4   0  220.54    5.38
   0   4   0  233.94    5.27
   0   4   0  234.25    5.46
  -1  -4   0   22.89    0.60
   1   4   0   21.71    0.59
   1   4   0   22.02    0.71
  -2  -4   0  300.96    6.87
  -2  -4   0  300.57    6.92
   2   4   0  292.75    6.87
   2   4   0  301.89    7.04
   2   4   0  299.23    7.07
  -3  -4   0  328.73    7.48
  -3  -4   0  320.42    7.57
   3   4   0  323.83    7.72
   3   4   0  332.77    7.67
  -4  -4   0   11.41    0.35
  -4  -4   0   12.07    0.37
  -4  -4   0   12.08    0.43
   4   4   0   12.24    0.52
   4   4   0   11.74    0.46
  -5  -4   0  242.65    5.57
  -5  -4   0  251.11    5.52
   5   4   0  205.20    5.57
   5   4   0  241.33    5.75
  -6  -4   0  204.41    4.79
  -6  -4   0  197.78    4.82
   6   4   0  200.84    4.82
   6   4   0  199.12    5.02
  -7  -4   0    0.28    0.15
  -7  -4   0    0.03    0.15
   7   4   0    0.35    0.14
   7   4   0    0.04    0.21
  -8  -4   0   88.53    2.41
  -8  -4   0   90.17    2.38
   8   4   0   89.34    2.64
   8   4   0   94.39    2.38
  -9  -4   0   59.57    1.77
  -9  -4   0   63.42    1.81
   9   4   0   61.98    2.06
 -10  -4   0    2.65    0.46
  10   4   0    3.35    0.58
 -11  -4   0   47.99    1.60
  11   4   0   48.32    1.93
 -12  -4   0   15.15    0.90
  12   4   0   15.88    1.22
  10  -5   0   13.06    1.14
 -10   5   0   10.11    0.92
   9  -5   0    5.62    0.88
  -9   5   0    6.12    0.75
   8  -5   0   62.48    2.17
  -8   5   0   60.52    2.00
   7  -5   0   39.89    1.57
  -7   5   0   38.26    1.43
   6  -5   0   23.14    0.84
   6  -5   0   26.37    1.13
  -6   5   0   26.02    1.04
   5  -5   0  238.19    6.02
  -5   5   0  234.98    5.79
  -5   5   0  250.52    5.96
   4  -5   0   24.85    0.99
  -4   5   0   24.77    0.62
  -4   5   0   24.43    0.97
  -4   5   0   26.52    0.93
   3  -5   0   71.21    2.01
  -3   5   0   72.04    1.95
  -3   5   0   70.91    1.94
   2  -5   0  334.16    8.12
  -2   5   0  347.34    8.07
  -2   5   0  348.07    8.12
   1  -5   0   10.52    0.45
   1  -5   0   10.00    0.27
  -1   5   0    9.10    0.43
  -1   5   0    8.54    0.37
  -1   5   0    8.77    0.26
   0  -5   0  236.76    5.72
   0  -5   0  238.01    5.57
   0   5   0  249.11    5.81
  -1  -5   0  135.19    3.14
  -1  -5   0  130.79    3.24
   1   5   0  131.91    3.14
   1   5   0  134.38    3.33
   2   5   0    0.22    0.10
  -3  -5   0  122.54    2.99
  -3  -5   0  124.86    2.89
   3   5   0  122.81    3.12
   3   5   0  126.36    3.17
  -4  -5   0   52.97    1.30
  -4  -5   0   55.21    1.33
  -4  -5   0   54.68    1.44
   4   5   0   54.99    1.53
   4   5   0   55.31    1.61
  -5  -5   0   16.40    0.60
  -5  -5   0   16.84    0.50
   5   5   0   15.72    0.71
   5   5   0   15.34    0.60
  -6  -5   0  140.24    3.21
  -6  -5   0  133.31    3.30
   6   5   0  124.35    3.31
   6   5   0  132.63    3.50
  -7  -5   0   49.60    1.31
  -7  -5   0   46.48    1.39
   7   5   0   48.14    1.60
   7   5   0   47.23    1.38
  -8  -5   0   20.14    0.78
   8   5   0   18.51    0.68
   8   5   0   18.14    0.93
  -9  -5   0  102.33    2.73
   9   5   0   99.44    2.99
 -10  -5   0   21.35    0.93
  10   5   0   21.08    1.17
 -11  -5   0   15.39    0.85
  11   5   0   15.88    1.14
 -12  -5   0   41.94    1.54
  12   5   0   43.31    1.88
   9  -6   0    1.99    0.60
  -9   6   0    3.87    0.69
   8  -6   0   30.34    1.49
  -8   6   0   31.98    1.35
   7  -6   0   34.39    1.52
  -7   6   0   36.15    1.38
   6  -6   0    0.41    0.36
  -6   6   0    0.13    0.27
   5  -6   0  102.28    2.91
  -5   6   0  102.72    2.79
  -5   6   0  100.69    2.68
   4  -6   0   93.74    2.69
  -4   6   0   98.78    2.57
  -4   6   0   95.40    2.59
   3  -6   0    4.59    0.44
  -3   6   0    3.77    0.38
  -3   6   0    3.96    0.36
   2  -6   0   89.48    2.41
  -2   6   0   90.96    2.33
  -2   6   0   86.84    2.39
   1  -6   0  145.79    3.33
   1  -6   0  142.30    3.60
  -1   6   0  137.85    3.31
  -1   6   0  144.76    3.64
  -1   6   0  147.73    3.51
   0  -6   0    3.21    0.33
   0  -6   0    3.97    0.17
   0   6   0    3.77    0.35
  -1  -6   0  152.35    3.49
  -1  -6   0  141.89    3.62
   1   6   0  148.45    3.50
   1   6   0  146.30    3.72
  -2  -6   0   78.91    2.07
  -2  -6   0   81.15    1.98
   2   6   0   80.23    2.18
   2   6   0   77.95    1.93
  -3  -6   0   30.32    0.87
  -3  -6   0   32.23    0.84
   3   6   0   29.61    1.03
   3   6   0   29.82    0.78
  -4  -6   0  175.61    4.08
  -4  -6   0  175.58    4.22
  -4  -6   0  176.51    4.06
   4   6   0  175.89    4.37
   4   6   0  173.80    4.43
  -5  -6   0   31.44    0.98
  -5  -6   0   31.86    0.82
   5   6   0   32.32    1.15
   5   6   0   33.18    1.10
  -6  -6   0   43.76    1.28
   6   6   0   42.98    1.36
   6   6   0   44.02    1.48
  -7  -6   0  102.50    2.68
   7   6   0  102.57    2.72
   7   6   0  102.31    2.91
  -8  -6   0    2.36    0.36
   8   6   0    2.21    0.33
   8   6   0    2.36    0.44
  -9  -6   0   39.67    1.33
   9   6   0   38.68    1.59
 -10  -6   0   42.55    1.48
  10   6   0   44.44    1.78
 -11  -6   0    0.46    0.34
  11   6   0    0.83    0.56
 -12  -6   0   22.44    1.68
   8  -7   0    0.92    0.57
  -8   7   0    0.24    0.40
   7  -7   0   32.20    1.52
  -7   7   0   31.98    1.35
   6  -7   0    6.59    0.81
  -6   7   0    8.66    0.70
   5  -7   0    5.28    0.66
  -5   7   0    4.87    0.47
  -5   7   0    4.95    0.55
   4  -7   0   55.89    1.82
  -4   7   0   52.22    1.65
   3  -7   0    5.99    0.54
  -3   7   0    5.32    0.47
  -3   7   0    5.75    0.44
   2  -7   0   23.84    0.93
  -2   7   0   22.80    0.82
  -2   7   0   21.89    0.89
   1  -7   0  102.65    2.72
  -1   7   0  101.34    2.75
  -1   7   0  102.75    2.61
   0  -7   0   58.52    1.46
   0  -7   0   59.69    1.71
   0   7   0   58.65    1.76
   0   7   0   60.98    1.57
  -1  -7   0   20.41    0.78
  -1  -7   0   22.40    0.63
   1   7   0   20.28    0.84
   1   7   0   20.81    0.65
  -2  -7   0  143.75    3.41
  -2  -7   0  140.58    3.54
   2   7   0  141.32    3.66
   2   7   0  140.76    3.38
  -3  -7   0   19.46    0.65
  -3  -7   0   18.73    0.72
   3   7   0   18.96    0.54
   3   7   0   17.93    0.79
  -4  -7   0   92.02    2.36
   4   7   0   93.15    2.54
   4   7   0   92.78    2.59
  -5  -7   0  100.21    2.58
   5   7   0  102.87    2.74
   5   7   0   99.90    2.81
  -6  -7   0    0.19    0.18
   6   7   0    0.23    0.24
   6   7   0    0.33    0.26
  -7  -7   0  108.54    2.89
   7   7   0  109.93    3.15
   7   7   0  114.36    2.98
  -8  -7   0   75.39    2.12
   8   7   0   72.95    2.12
   8   7   0   74.92    2.42
  -9  -7   0    1.38    0.33
   9   7   0    1.71    0.47
 -10  -7   0   50.59    1.68
  10   7   0   51.74    1.99
 -11  -7   0   19.86    1.01
  11   7   0   21.30    1.34
   7  -8   0    3.67    0.68
  -7   8   0    3.21    0.56
   6  -8   0   37.15    1.64
  -6   8   0   35.42    1.41
   5  -8   0   22.82    1.19
  -5   8   0   22.92    0.99
  -5   8   0   22.20    1.11
   4  -8   0    6.10    1.09
  -4   8   0    3.86    0.53
   3  -8   0   76.11    2.32
  -3   8   0   75.66    2.24
  -3   8   0   76.80    2.17
   2  -8   0   15.67    0.82
  -2   8   0   15.04    0.67
  -2   8   0   15.67    0.79
   1  -8   0   35.96    1.24
  -1   8   0   34.31    1.24
  -1   8   0   33.95    1.08
   0  -8   0  102.37    2.76
   0   8   0  105.86    2.62
   0   8   0  100.45    2.83
  -1  -8   0    6.59    0.29
  -1  -8   0    5.97    0.45
   1   8   0    6.76    0.49
   1   8   0    7.21    0.32
  -2  -8   0   56.87    1.46
  -2  -8   0   54.95    1.62
   2   8   0   52.45    1.70
   2   8   0   54.60    1.42
  -3  -8   0  102.47    2.59
  -3  -8   0  103.09    2.71
   3   8   0  102.00    2.83
  -4  -8   0    0.39    0.19
  -4  -8   0    0.65    0.21
  -5  -8   0   48.33    1.40
   5   8   0   46.04    1.62
   5   8   0   48.02    1.56
  -6  -8   0   24.41    0.90
   6   8   0   24.22    1.08
   6   8   0   23.42    1.01
  -7  -8   0    5.09    0.49
   7   8   0    5.77    0.59
   7   8   0    5.27    0.64
  -8  -8   0   62.18    1.87
   8   8   0   61.26    1.93
   8   8   0   63.44    2.16
  -9  -8   0   14.89    0.82
   9   8   0   14.27    1.04
 -10  -8   0   16.68    0.91
  10   8   0   15.68    1.16
 -11  -8   0   37.40    1.48
  11   8   0   39.04    1.83
   6  -9   0   17.11    1.26
  -6   9   0   14.79    0.99
   5  -9   0   39.87    1.71
  -5   9   0   40.77    1.50
   4  -9   0    4.32    0.77
  -4   9   0    4.54    0.65
   3  -9   0   36.71    1.49
  -3   9   0   36.36    1.28
  -3   9   0   36.52    1.39
  -2   9   0   74.00    2.26
  -2   9   0   73.57    2.08
   1  -9   0    1.64    0.42
  -1   9   0    2.28    0.37
  -1   9   0    1.86    0.40
   0  -9   0   63.90    1.93
   0   9   0   62.31    1.98
   0   9   0   63.38    1.74
  -1  -9   0   55.61    1.74
   1   9   0   55.52    1.66
   1   9   0   57.77    1.84
  -2  -9   0    0.80    0.29
  -2  -9   0    0.65    0.19
   2   9   0    0.49    0.30
  -3  -9   0   52.93    1.61
  -3  -9   0   51.45    1.45
   3   9   0   49.38    1.69
  -4  -9   0   61.53    1.83
  -4  -9   0   58.36    1.69
   4   9   0   63.15    1.97
  -5  -9   0    3.43    0.40
  -5  -9   0    3.21    0.45
  -6  -9   0   45.13    1.42
   6   9   0   44.80    1.59
  -7  -9   0   18.15    1.07
   7   9   0   18.49    1.01
   7   9   0   18.87    1.06
  -8  -9   0    6.93    0.65
   8   9   0    9.05    0.78
   8   9   0    8.31    0.85
  -9  -9   0   32.00    1.29
   9   9   0   34.05    1.57
 -10  -9   0    1.58    0.45
  10   9   0    1.97    0.61
   5 -10   0   31.78    1.61
  -5  10   0   34.08    1.38
   4 -10   0   12.75    1.09
  -4  10   0   13.80    0.93
   3 -10   0    8.11    0.86
  -3  10   0    8.37    0.70
  -3  10   0    8.83    0.80
   2 -10   0   30.44    1.36
  -2  10   0   30.65    1.30
  -2  10   0   29.74    1.12
   1 -10   0    5.18    0.68
  -1  10   0    5.05    0.67
   0 -10   0   24.55    1.10
   0  10   0   21.75    1.08
  -1 -10   0   64.43    2.00
   1  10   0   62.60    2.09
  -2 -10   0    5.73    0.65
   2  10   0    6.00    0.83
  -3 -10   0   10.02    0.70
   3  10   0    8.96    0.94
  -4 -10   0   61.82    1.89
  -4 -10   0   57.32    1.69
   4  10   0   60.24    2.10
  -5 -10   0   12.69    0.68
  -5 -10   0   11.77    0.74
   5  10   0   12.49    0.86
  -6 -10   0   24.63    1.00
  -6 -10   0   25.95    1.11
  -7 -10   0   43.03    1.55
  -7 -10   0   40.41    1.45
   7  10   0   47.81    2.39
  -8 -10   0    2.65    0.50
   8  10   0    1.56    0.51
   8  10   0    1.90    0.57
  -9 -10   0   26.23    1.22
   9  10   0   27.95    1.43
  -4  11   0   42.08    1.67
   3 -11   0    9.38    0.99
  -3  11   0    8.25    0.89
   2 -11   0   11.91    1.03
  -2  11   0   11.92    0.94
   1 -11   0   30.32    1.37
  -1  11   0   27.80    1.32
   0 -11   0    2.42    0.52
   0  11   0    2.63    0.53
  -1 -11   0   50.26    1.79
   1  11   0   51.10    1.86
  -2 -11   0   37.02    1.46
   2  11   0   38.82    1.56
  -3 -11   0    4.09    0.65
   3  11   0    5.08    0.73
  -4 -11   0   46.11    1.65
   4  11   0   47.82    1.79
  -5 -11   0   44.96    1.64
   5  11   0   48.96    1.81
  -6 -11   0    1.26    0.43
   6  11   0    0.99    0.78
  -7 -11   0   36.11    1.36
  -7 -11   0   36.53    1.45
  -8 -11   0   14.71    0.97
  -8 -11   0   15.76    0.98
  -9 -11   0    2.28    0.57
  -2  12   0    4.78    0.89
   1 -12   0   17.85    1.15
  -1  12   0   16.69    1.12
   0 -12   0   47.23    1.85
   0  12   0   49.78    1.89
  -1 -12   0    3.72    0.63
   1  12   0    5.77    0.85
  -2 -12   0   53.60    1.92
   2  12   0   53.52    2.01
  -3 -12   0   26.15    1.29
   3  12   0   29.79    1.45
  -4 -12   0    2.98    0.57
   4  12   0    3.50    0.69
  -5 -12   0   44.66    1.69
   5  12   0   47.17    1.85
  -6 -12   0   20.54    1.13
   6  12   0   20.62    1.24
   7  12  -1   -0.64    0.70
   6  12  -1   33.96    1.59
  -6 -12   1   36.84    2.00
   5  12  -1   19.67    1.25
  -5 -12   1   19.42    1.08
   4  12  -1    2.72    0.61
  -4 -12   1    1.86    0.51
   3  12  -1   28.38    1.43
  -3 -12   1   26.73    1.28
   2  12  -1    5.20    0.89
  -2 -12   1    4.42    0.65
   1  12  -1   20.46    1.21
  -1 -12   1   18.04    1.12
   0  12  -1   28.04    1.42
   0 -12   1   28.27    1.39
  -1  12  -1    0.99    0.53
   1 -12   1    2.38    0.78
  -8 -11   1   33.53    1.40
  -8 -11   1   33.96    1.62
  -7 -11   1   20.88    1.08
  -7 -11   1   22.09    1.08
   6  11  -1    5.54    0.85
  -6 -11   1    5.18    0.68
  -6 -11   1    5.10    0.66
   5  11  -1   50.66    1.90
  -5 -11   1   49.97    1.74
   4  11  -1   15.74    1.04
  -4 -11   1   16.26    0.94
   3  11  -1    6.68    0.81
  -3 -11   1    6.37    0.70
   2  11  -1   48.08    1.81
  -2 -11   1   46.78    1.69
   1  11  -1    9.35    0.86
  -1 -11   1    9.08    0.82
   0  11  -1   10.59    0.92
   0 -11   1   12.10    0.93
  -1  11  -1   27.36    1.32
   1 -11   1   28.83    1.36
  -2  11  -1    0.07    0.47
   2 -11   1    0.70    0.53
  -3  11  -1   21.30    1.20
   3 -11   1   20.55    1.28
  -4  11  -1   16.43    1.14
   9  10  -1    0.75    0.54
  -9 -10   1    1.14    0.44
   8  10  -1   19.08    1.16
  -8 -10   1   17.53    0.97
  -7 -10   1   35.48    1.35
  -7 -10   1   32.80    1.28
  -6 -10   1    6.49    0.65
   5  10  -1   16.66    1.00
  -5 -10   1   15.70    0.83
  -5 -10   1   15.05    0.78
   4  10  -1   49.55    1.78
  -4 -10   1   48.97    1.50
  -4 -10   1   50.66    1.66
   3  10  -1   12.77    0.86
  -3 -10   1   13.14    0.78
   2  10  -1   22.07    1.08
  -2 -10   1   23.11    1.02
   1  10  -1   65.77    2.18
  -1 -10   1   70.32    2.11
   0  10  -1    3.66    0.61
   0 -10   1    3.02    0.52
  -1  10  -1   44.73    1.64
   1 -10   1   41.54    1.59
  -2  10  -1   56.66    1.91
  -2  10  -1   53.86    1.65
   2 -10   1   54.12    1.92
  -3  10  -1    4.98    0.78
  -3  10  -1    5.17    0.62
  -4  10  -1   35.36    1.37
  -4  10  -1   34.59    1.46
   4 -10   1   32.60    1.58
   5 -10   1   18.30    1.26
  10   9  -1   12.25    1.11
 -10  -9   1   11.49    0.89
   9   9  -1   25.99    1.39
  -9  -9   1   24.24    1.14
   8   9  -1    0.80    0.46
  -8  -9   1    1.41    0.40
   7   9  -1   25.60    1.20
   7   9  -1   26.82    1.24
  -7  -9   1   24.77    1.04
  -6  -9   1   32.22    1.14
  -5  -9   1    0.81    0.31
  -5  -9   1    1.13    0.29
   4   9  -1   78.42    2.37
  -4  -9   1   75.72    2.11
  -4  -9   1   79.68    2.23
   3   9  -1   57.41    1.89
  -3  -9   1   57.28    1.74
  -3  -9   1   57.38    1.61
   2   9  -1    0.89    0.31
  -2  -9   1    0.41    0.22
  -2  -9   1    0.78    0.29
   1   9  -1   79.32    2.42
  -1  -9   1   82.90    2.33
   0   9  -1   24.28    0.83
   0   9  -1   23.87    1.06
   0  -9   1   25.69    1.05
  -1   9  -1    9.53    0.70
  -1   9  -1    8.96    0.52
   1  -9   1    8.21    0.69
  -2   9  -1   82.08    2.48
  -2   9  -1   86.00    2.30
   2  -9   1   81.99    2.71
  -3   9  -1   16.85    0.93
  -3   9  -1   17.57    0.84
   3  -9   1   17.20    1.02
  -4   9  -1   48.95    1.73
  -4   9  -1   44.80    1.68
   4  -9   1   47.47    1.82
  -5   9  -1   56.84    1.85
   5  -9   1   54.84    2.09
  -6   9  -1   11.99    0.92
   6  -9   1   12.71    1.13
  11   8  -1   39.95    2.68
  10   8  -1    0.43    0.54
 -10  -8   1    0.37    0.39
   9   8  -1   43.17    1.76
  -9  -8   1   42.51    1.50
   8   8  -1   65.28    2.17
   8   8  -1   60.90    1.97
  -8  -8   1   62.19    1.91
   7   8  -1    0.07    0.50
   7   8  -1    0.55    0.37
  -7  -8   1    0.58    0.29
   6   8  -1   77.81    2.34
   6   8  -1   80.20    2.43
  -6  -8   1   79.92    2.19
   5   8  -1   41.44    1.94
  -5  -8   1   43.06    1.30
   4   8  -1   26.30    1.21
  -4  -8   1   27.34    0.92
  -4  -8   1   28.17    0.99
   3   8  -1  120.85    3.28
  -3  -8   1  120.03    3.13
  -3  -8   1  122.51    3.04
   2   8  -1   35.59    1.30
  -2  -8   1   37.48    1.20
   1   8  -1   42.36    1.15
   1   8  -1   41.58    1.44
  -1  -8   1   42.36    1.14
  -1  -8   1   42.76    1.35
   0   8  -1  133.67    3.64
   0  -8   1  145.19    3.40
   0  -8   1  133.60    3.55
  -1   8  -1   10.43    0.64
   1  -8   1   10.81    0.65
  -2   8  -1   15.38    0.79
  -2   8  -1   15.94    0.69
   2  -8   1   16.68    0.84
  -3   8  -1   93.47    2.58
  -3   8  -1   94.03    2.67
   3  -8   1   96.24    2.76
  -4   8  -1    0.13    0.31
  -4   8  -1    0.35    0.30
   4  -8   1    0.61    0.42
  -5   8  -1   62.72    1.96
   5  -8   1   64.69    2.20
  -6   8  -1   29.32    1.29
   6  -8   1   28.06    1.45
  -7   8  -1   -0.07    0.42
   7  -8   1   -0.12    0.53
  11   7  -1   43.00    1.86
 -11  -7   1   43.44    1.58
  10   7  -1   24.04    1.34
 -10  -7   1   25.70    1.09
   9   7  -1   15.53    1.03
  -9  -7   1   15.12    0.80
  -8  -7   1   69.68    2.17
   7   7  -1    8.78    0.61
   7   7  -1    8.19    0.66
  -7  -7   1    8.43    0.56
   6   7  -1   46.46    1.51
   6   7  -1   44.91    1.58
  -6  -7   1   47.95    1.41
   5   7  -1   83.88    2.38
   5   7  -1   83.82    2.43
  -5  -7   1   84.91    2.22
   4   7  -1    5.99    0.47
   4   7  -1    5.64    0.48
  -4  -7   1    5.78    0.39
   3   7  -1   41.69    1.39
  -3  -7   1   43.12    1.23
  -3  -7   1   42.31    1.27
   2   7  -1   67.71    1.71
   2   7  -1   68.30    2.03
  -2  -7   1   71.95    1.92
  -2  -7   1   71.69    1.81
   1   7  -1   25.39    0.98
   1   7  -1   25.92    0.74
  -1  -7   1   25.77    0.75
  -1  -7   1   25.56    0.90
   0   7  -1   77.58    2.23
   0   7  -1   79.07    1.99
   0  -7   1   78.95    1.93
   0  -7   1   77.98    2.14
  -1   7  -1   96.50    2.47
  -1   7  -1   95.03    2.63
   1  -7   1   96.08    2.59
   1  -7   1   97.34    2.30
  -2   7  -1    7.71    0.51
  -2   7  -1    8.14    0.48
   2  -7   1    7.73    0.53
  -3   7  -1   26.80    0.99
  -3   7  -1   28.47    1.04
   3  -7   1   28.15    1.11
  -4   7  -1  105.78    2.87
  -4   7  -1  107.49    2.97
   4  -7   1  105.06    3.01
  -5   7  -1    4.71    0.48
   5  -7   1    4.01    0.70
  -6   7  -1   30.97    1.27
   6  -7   1   29.98    1.40
  -7   7  -1   14.70    0.96
   7  -7   1   15.24    1.11
  -8   7  -1    6.09    0.80
   8  -7   1    6.74    0.94
  11   6  -1   13.06    1.13
 -11  -6   1   11.59    0.81
  10   6  -1   67.32    2.34
 -10  -6   1   65.26    2.02
   9   6  -1    7.91    0.77
  -9  -6   1    7.53    0.57
   8   6  -1   15.99    0.76
   8   6  -1   17.65    0.96
  -8  -6   1   17.54    0.76
   7   6  -1   40.21    1.46
   7   6  -1   40.09    1.32
  -7  -6   1   41.65    1.28
   6   6  -1    0.44    0.24
   6   6  -1    0.41    0.23
  -6  -6   1    0.15    0.16
   5   6  -1   29.63    1.06
   5   6  -1   31.33    1.13
  -5  -6   1   30.15    0.96
   4   6  -1   32.30    1.13
   4   6  -1   31.41    1.10
  -4  -6   1   32.38    0.98
   3   6  -1   21.79    0.86
  -3  -6   1   22.42    0.71
   2   6  -1   69.01    1.95
   2   6  -1   65.78    1.65
  -2  -6   1   70.06    1.76
  -2  -6   1   69.00    1.84
  -2  -6   1   70.62    1.75
   1   6  -1   41.32    1.31
   1   6  -1   41.44    1.08
  -1  -6   1   41.45    1.22
  -1  -6   1   42.85    1.11
   0   6  -1    0.87    0.15
   0   6  -1    0.44    0.21
   0  -6   1    0.51    0.09
   0  -6   1    0.58    0.21
  -1   6  -1  114.80    2.99
  -1   6  -1  116.10    2.84
   1  -6   1  112.38    2.94
   1  -6   1  114.18    2.71
  -2   6  -1    4.83    0.39
  -2   6  -1    5.45    0.41
   2  -6   1    5.63    0.43
   2  -6   1    5.03    0.21
  -3   6  -1    0.42    0.21
  -3   6  -1    0.11    0.19
   3  -6   1    0.02    0.21
  -4   6  -1   48.97    1.48
  -4   6  -1   46.82    1.52
   4  -6   1   49.41    1.61
  -5   6  -1   38.64    1.35
  -5   6  -1   36.84    1.22
   5  -6   1   39.40    1.44
  -6   6  -1   19.19    0.76
  -6   6  -1   18.17    0.93
   6  -6   1   19.04    1.04
  -7   6  -1   33.55    1.35
   7  -6   1   31.70    1.46
  -8   6  -1   12.73    0.92
   8  -6   1   11.94    1.03
  -9   6  -1   20.07    1.14
   9  -6   1   19.40    1.27
  12   5  -1   18.88    1.32
 -12  -5   1   16.29    0.94
  11   5  -1    1.59    0.53
 -11  -5   1    1.30    0.39
  10   5  -1   29.83    1.39
 -10  -5   1   27.69    1.12
   9   5  -1   58.02    1.99
  -9  -5   1   50.48    1.78
   8   5  -1    3.31    0.53
   8   5  -1    3.52    0.48
  -8  -5   1    4.18    0.41
   7   5  -1   52.01    1.71
   7   5  -1   54.28    1.58
  -7  -5   1   52.60    1.53
   6   5  -1  137.40    3.62
  -6  -5   1  134.68    3.41
  -6  -5   1  139.79    3.21
   5   5  -1   10.49    0.50
   5   5  -1    9.74    0.56
  -5  -5   1   10.28    0.46
   4   5  -1  104.27    2.80
   4   5  -1  108.26    2.76
   3   5  -1   83.35    2.24
   3   5  -1   83.81    2.27
  -3  -5   1   85.80    2.11
   2   5  -1   86.57    2.23
   2   5  -1   80.21    1.96
  -2  -5   1   84.62    2.07
  -2  -5   1   83.46    1.99
   1   5  -1  119.54    3.05
   1   5  -1  118.19    2.84
  -1  -5   1  121.14    2.95
  -1  -5   1  121.81    2.88
   0   5  -1   31.83    1.02
   0   5  -1   33.72    0.90
   0  -5   1   32.30    0.97
   0  -5   1   32.85    0.86
  -1   5  -1  158.36    3.75
  -1   5  -1  160.43    3.86
   1  -5   1  152.65    3.62
   1  -5   1  148.68    3.81
  -2   5  -1  238.12    5.67
  -2   5  -1  244.77    5.64
   2  -5   1  234.67    5.45
   2  -5   1  223.27    5.66
  -3   5  -1    1.28    0.20
  -3   5  -1    0.48    0.22
   3  -5   1    0.93    0.13
   3  -5   1    1.33    0.27
  -4   5  -1   18.46    0.80
   4  -5   1   19.37    0.85
   4  -5   1   19.31    0.57
  -5   5  -1   98.13    2.57
  -5   5  -1   98.15    2.71
   5  -5   1   98.84    2.76
  -6   5  -1   -0.14    0.25
   6  -5   1    0.72    0.35
  -7   5  -1   58.13    2.00
   7  -5   1   58.22    2.10
  -8   5  -1   25.82    1.19
   8  -5   1   25.58    1.30
  -9   5  -1    0.81    0.42
   9  -5   1    1.37    0.55
 -10   5  -1   33.16    1.47
  10  -5   1   34.64    1.68
  12   4  -1   31.62    1.62
 -12  -4   1   31.67    1.27
  11   4  -1   16.21    1.15
 -11  -4   1   16.93    0.89
  10   4  -1    3.67    0.68
 -10  -4   1    3.40    0.46
   9   4  -1  107.14    3.12
  -9  -4   1  105.50    2.83
   8   4  -1   38.08    1.17
   8   4  -1   39.16    1.46
  -8  -4   1   42.20    1.15
  -8  -4   1   41.42    1.27
   7   4  -1   30.11    0.95
   7   4  -1   29.78    1.14
  -7  -4   1   29.45    0.97
  -7  -4   1   30.50    0.87
   6   4  -1  231.21    5.67
   6   4  -1  230.95    5.50
  -6  -4   1  228.32    5.46
  -6  -4   1  223.07    5.34
   5   4  -1   78.98    2.06
   5   4  -1   78.23    2.17
  -5  -4   1   81.07    1.88
  -5  -4   1   78.27    2.01
  -5  -4   1   74.48    1.86
   4   4  -1   49.74    1.41
   4   4  -1   50.69    1.47
  -4  -4   1   50.50    1.33
   3   4  -1  464.67   11.16
   3   4  -1  483.05   11.14
  -3  -4   1  485.27   11.03
   2   4  -1   99.30    2.55
   2   4  -1  100.75    2.56
  -2  -4   1  102.14    2.44
   1   4  -1  145.68    3.48
   1   4  -1  147.61    3.66
  -1  -4   1  155.33    3.53
  -1  -4   1  146.01    3.57
  -1  -4   1  153.98    3.51
   0   4  -1  320.07    7.42
   0   4  -1  325.71    7.29
   0  -4   1  301.82    7.33
   0  -4   1  310.47    7.25
  -1   4  -1  124.59    3.06
  -1   4  -1  129.57    3.01
   1  -4   1  117.93    3.01
   1  -4   1  120.77    2.89
  -2   4  -1  477.86   11.27
  -2   4  -1  496.70   11.28
   2  -4   1  472.34   11.27
   2  -4   1  489.43   11.10
  -3   4  -1  346.00    7.77
  -3   4  -1  323.78    7.67
   3  -4   1  324.25    7.54
   3  -4   1  311.65    7.91
  -4   4  -1    1.06    0.25
  -4   4  -1    1.19    0.17
   4  -4   1    1.13    0.25
   4  -4   1    1.34    0.15
  -5   4  -1  147.76    3.85
  -5   4  -1  149.63    3.63
   5  -4   1  150.14    3.59
   5  -4   1  149.42    3.88
  -6   4  -1  150.98    3.91
   6  -4   1  146.82    3.94
  -7   4  -1   11.83    0.74
   7  -4   1   10.60    0.77
  -8   4  -1   58.11    1.93
   8  -4   1   56.87    2.01
  -9   4  -1    9.62    0.85
   9  -4   1   10.60    0.95
 -10   4  -1    7.22    0.86
  10  -4   1    5.75    0.97
  12   3  -1    9.18    1.06
 -12  -3   1    7.96    0.73
  11   3  -1   60.91    2.24
 -11  -3   1   63.24    1.92
  10   3  -1   19.50    1.10
 -10  -3   1   20.12    0.88
   9   3  -1   61.34    2.02
  -9  -3   1   60.32    1.76
  -9  -3   1   59.27    1.72
   8   3  -1  171.65    4.21
   8   3  -1  174.28    4.56
  -8  -3   1  173.35    4.43
  -8  -3   1  177.71    4.31
   7   3  -1    3.13    0.39
   7   3  -1    3.74    0.27
  -7  -3   1    4.16    0.28
  -7  -3   1    3.44    0.32
   6   3  -1  134.75    3.29
   6   3  -1  131.13    3.47
  -6  -3   1  130.62    3.29
  -6  -3   1  139.36    3.27
   5   3  -1  131.93    3.46
   5   3  -1  138.40    3.24
  -5  -3   1  131.72    3.14
  -5  -3   1  123.23    3.46
  -4  -3   1    0.60    0.09
   3   3  -1  116.89    2.89
   3   3  -1  118.92    2.93
  -3  -3   1  116.83    2.82
   2   3  -1  299.89    7.12
   2   3  -1  303.68    7.13
  -2  -3   1  308.32    7.03
   1   3  -1   34.32    0.85
   1   3  -1   35.11    0.99
  -1  -3   1   35.63    0.86
  -1  -3   1   35.82    0.90
   0   3  -1  154.03    3.47
   0   3  -1  148.63    3.49
   0   3  -1  149.21    3.58
   0  -3   1  149.79    3.47
   0  -3   1  139.93    3.51
   0  -3   1  150.82    3.51
  -1   3  -1  281.11    6.58
  -1   3  -1  290.38    6.61
  -1   3  -1  280.15    6.48
   1  -3   1  282.70    6.48
   1  -3   1  274.69    6.57
  -2   3  -1   20.40    0.68
  -2   3  -1   21.31    0.57
  -2   3  -1   18.90    0.62
   2  -3   1   19.35    0.54
  -3   3  -1  452.48   10.02
  -3   3  -1  415.75    9.88
   3  -3   1  417.83    9.81
   3  -3   1  419.14    9.98
  -4   3  -1   91.89    2.64
  -4   3  -1   79.51    2.03
   4  -3   1   75.38    2.32
   4  -3   1   79.45    2.01
  -5   3  -1    5.10    0.49
  -5   3  -1    7.33    0.29
   5  -3   1    6.13    0.30
   5  -3   1    5.88    0.45
  -6   3  -1  166.76    4.20
   6  -3   1  156.49    4.17
   6  -3   1  162.60    3.83
  -7   3  -1   81.89    2.06
  -7   3  -1   83.83    2.41
   7  -3   1   78.67    2.41
  -8   3  -1   16.59    0.62
  -8   3  -1   16.19    0.92
   8  -3   1   18.66    0.98
  -9   3  -1   63.75    2.13
   9  -3   1   65.57    2.21
 -10   3  -1   10.10    0.84
  10  -3   1    9.07    0.96
 -11   3  -1   15.01    1.06
  11  -3   1   15.31    1.18
  12   2  -1   16.95    1.24
  11   2  -1   34.47    1.58
  10   2  -1   47.55    1.77
 -10  -2   1   46.40    1.52
   9   2  -1    4.90    0.59
  -9  -2   1    5.21    0.45
   8   2  -1   74.54    2.26
  -8  -2   1   77.28    2.30
  -8  -2   1   74.99    2.08
   7   2  -1   85.94    2.15
   7   2  -1   83.64    2.40
  -7  -2   1   85.97    2.21
  -7  -2   1   84.17    2.23
   6   2  -1    1.59    0.29
   6   2  -1    1.40    0.19
  -6  -2   1    1.31    0.23
   5   2  -1  180.66    4.37
   5   2  -1  181.70    4.24
  -5  -2   1  175.83    4.22
  -5  -2   1  170.91    4.22
   4   2  -1  107.00    2.62
   4   2  -1  104.68    2.70
  -4  -2   1  108.88    2.58
  -4  -2   1  107.19    2.59
   3   2  -1   15.67    0.55
   3   2  -1   16.35    0.52
   3   2  -1   16.07    0.44
  -3  -2   1   16.81    0.45
   2   2  -1   54.33    1.42
   2   2  -1   54.92    1.41
  -2  -2   1   56.08    1.35
   1   2  -1   49.46    1.22
   1   2  -1   49.53    1.26
   1   2  -1   47.24    1.25
  -1  -2   1   50.76    1.20
   0   2  -1  168.20    4.07
   0   2  -1  181.58    4.06
   0   2  -1  175.26    4.13
   0  -2   1  168.06    4.08
   0  -2   1  183.36    4.07
   0  -2   1  176.28    4.05
  -1   2  -1   42.82    1.12
  -1   2  -1   42.26    1.10
  -1   2  -1   40.44    1.02
   1  -2   1   41.42    1.03
   1  -2   1   45.58    1.10
  -2   2  -1    5.04    0.18
  -2   2  -1    5.23    0.22
   2  -2   1    5.85    0.27
   2  -2   1    5.68    0.20
  -3   2  -1   68.90    1.84
  -3   2  -1   70.05    1.70
   3  -2   1   67.03    1.79
   3  -2   1   70.10    1.70
  -4   2  -1  136.78    3.39
  -4   2  -1  130.37    3.16
   4  -2   1  129.85    3.21
   4  -2   1  137.88    3.35
  -5   2  -1    4.99    0.48
   5  -2   1    4.62    0.26
   5  -2   1    4.62    0.20
   5  -2   1    3.98    0.40
  -6   2  -1   16.49    0.80
   6  -2   1   17.54    0.77
   6  -2   1   17.43    0.49
  -7   2  -1  101.87    2.78
   7  -2   1   96.09    2.74
  -8   2  -1    6.81    0.64
  -8   2  -1    5.98    0.37
   8  -2   1    7.34    0.64
  -9   2  -1   46.90    2.17
   9  -2   1   49.32    1.86
 -10   2  -1   45.78    1.74
  10  -2   1   44.57    1.78
 -11   2  -1    1.24    0.48
  11  -2   1    1.00    0.57
  12   1  -1   40.96    1.82
  11   1  -1   -0.23    0.46
 -11  -1   1    1.70    0.39
  10   1  -1   26.01    1.25
 -10  -1   1   25.00    1.05
 -10  -1   1   24.37    1.00
   9   1  -1   35.16    1.37
  -9  -1   1   33.82    1.20
  -9  -1   1   34.11    1.13
   8   1  -1    0.25    0.24
  -8  -1   1    0.10    0.15
  -8  -1   1   -0.08    0.19
   7   1  -1   80.83    2.33
   7   1  -1   81.29    2.05
  -7  -1   1   82.69    2.13
  -7  -1   1   83.53    2.22
   6   1  -1   51.40    1.33
   6   1  -1   49.59    1.52
  -6  -1   1   49.64    1.41
  -6  -1   1   50.13    1.37
   5   1  -1   63.31    1.58
   5   1  -1   62.63    1.72
  -5  -1   1   61.80    1.58
  -5  -1   1   60.39    1.63
   4   1  -1  298.26    6.85
   4   1  -1  288.67    6.95
  -4  -1   1  294.21    6.83
  -4  -1   1  296.30    6.87
   3   1  -1   21.25    0.60
  -3  -1   1   20.00    0.62
  -3  -1   1   20.71    0.58
  -3  -1   1   20.19    0.57
   2   1  -1   15.48    0.42
   2   1  -1   15.20    0.45
  -2  -1   1   14.23    0.41
  -2  -1   1   14.23    0.43
  -1  -1   1  380.91    8.75
   0   1  -1   50.66    1.29
   0   1  -1   54.99    1.30
   0   1  -1   57.63    1.34
   0  -1   1   56.37    1.29
  -1   1  -1    8.46    0.29
  -1   1  -1    8.80    0.24
  -1   1  -1    8.48    0.27
  -1   1  -1    9.07    0.30
   1  -1   1    8.87    0.25
   1  -1   1    8.99    0.28
   1  -1   1    8.41    0.26
   1  -1   1    8.39    0.27
  -2   1  -1    1.32    0.18
   2  -1   1    1.21    0.12
   2  -1   1    1.12    0.08
   2  -1   1    1.13    0.08
  -3   1  -1   39.56    0.97
   3  -1   1   38.21    0.97
   3  -1   1   40.10    1.03
   3  -1   1   40.61    1.10
  -4   1  -1  139.92    3.48
   4  -1   1  141.29    3.23
   4  -1   1  137.25    3.25
   4  -1   1  140.01    3.44
   4  -1   1  139.16    3.35
  -5   1  -1  105.57    2.67
   5  -1   1   97.56    2.50
   5  -1   1   96.27    2.35
   5  -1   1  100.59    2.63
   5  -1   1  100.45    2.34
  -6   1  -1    1.66    0.33
   6  -1   1    1.87    0.31
  -7   1  -1  100.37    2.49
  -7   1  -1   98.16    2.76
   7  -1   1   99.75    2.74
  -8   1  -1   57.63    1.59
  -8   1  -1   59.12    1.87
   8  -1   1   58.59    1.87
  -9   1  -1    5.98    0.43
  -9   1  -1    6.46    0.65
   9  -1   1    6.35    0.67
 -10   1  -1   48.30    1.46
 -10   1  -1   47.68    1.75
  10  -1   1   47.63    1.83
 -11   1  -1    7.86    0.56
 -11   1  -1    8.86    0.86
 -12   1  -1    9.54    0.95
  12   0  -1   12.94    1.16
 -12   0   1   13.45    1.00
  11   0  -1   36.71    1.65
 -11   0   1   38.72    1.46
 -11   0   1   36.33    1.29
  10   0  -1    1.56    0.46
 -10   0   1    2.10    0.34
 -10   0   1    1.93    0.38
   9   0  -1   36.84    1.44
  -9   0   1   35.16    1.14
  -9   0   1   36.44    1.29
   8   0  -1   35.95    1.34
  -8   0   1   36.45    1.10
  -8   0   1   36.48    1.23
   7   0  -1   26.39    0.80
   7   0  -1   28.76    1.06
  -7   0   1   27.66    0.99
  -7   0   1   28.39    0.87
   6   0  -1  175.51    4.40
   6   0  -1  173.34    4.18
  -6   0   1  179.08    4.20
   5   0  -1   26.27    0.88
   5   0  -1   27.54    0.77
  -5   0   1   26.52    0.85
  -5   0   1   27.72    0.77
   4   0  -1  251.56    5.86
   4   0  -1  247.39    5.97
  -4   0   1  250.26    5.86
  -4   0   1  258.86    5.95
   3   0  -1  269.67    6.32
   3   0  -1  268.76    6.40
  -3   0   1  274.59    6.31
  -3   0   1  291.93    6.38
  -3   0   1  262.39    6.29
   2   0  -1   34.23    0.89
   2   0  -1   32.96    0.83
   2   0  -1   32.64    0.88
  -2   0   1   34.09    0.84
  -2   0   1   34.72    0.84
  -2   0   1   35.46    0.88
   1   0  -1  406.16   11.24
   0   0  -1  752.00   18.38
  -1   0  -1   87.18    2.05
  -1   0  -1   90.12    2.06
  -1   0  -1   90.38    2.02
  -1   0  -1   89.06    2.05
   1   0   1   79.91    2.06
   1   0   1   84.87    2.05
   1   0   1   92.19    2.02
  -2   0  -1  338.35    7.83
  -2   0  -1  341.72    7.85
   3   0   1  266.18    6.22
   3   0   1  265.61    6.19
  -4   0  -1    2.34    0.23
   4   0   1    2.51    0.18
   4   0   1    2.19    0.19
  -5   0  -1  211.66    5.11
   5   0   1  206.85    5.01
   5   0   1  210.59    5.08
  -6   0  -1   38.84    1.16
  -6   0  -1   40.02    1.31
   6   0   1   38.35    1.25
  -7   0  -1   21.62    0.93
  -7   0  -1   21.54    0.71
   7   0   1   20.96    0.88
  -8   0  -1  103.03    2.58
  -8   0  -1   98.20    2.81
   8   0   1  101.25    2.84
  -9   0  -1   32.00    1.05
  -9   0  -1   30.88    1.27
   9   0   1   32.20    1.31
 -10   0  -1    7.50    1.08
 -10   0  -1    6.00    0.52
  10   0   1    5.77    0.76
 -11   0  -1   47.89    1.80
 -11   0  -1   47.69    1.54
  11   0   1   49.23    1.92
 -12   0  -1   13.04    1.01
 -12   0  -1   10.01    0.71
  12   0   1   10.33    1.08
 -12   1   1   13.97    1.03
  11  -1  -1   81.37    2.74
 -11   1   1   81.15    2.50
  10  -1  -1   15.14    1.03
 -10   1   1   16.17    0.73
 -10   1   1   16.52    0.90
   9  -1  -1   39.22    1.52
  -9   1   1   40.74    1.23
  -9   1   1   41.01    1.41
   8  -1  -1   78.78    2.38
  -8   1   1   80.14    2.09
  -8   1   1   81.10    2.28
   7  -1  -1   11.17    0.63
   7  -1  -1   11.10    0.44
  -7   1   1   10.87    0.61
  -7   1   1   13.39    0.51
   6  -1  -1   71.81    2.07
   6  -1  -1   73.34    1.85
  -6   1   1   74.49    1.85
  -6   1   1   74.41    2.04
   5  -1  -1  173.84    4.09
   5  -1  -1  168.19    4.28
  -5   1   1  171.36    4.09
  -5   1   1  179.89    4.26
   4  -1  -1    3.60    0.24
   4  -1  -1    3.71    0.18
  -4   1   1    3.28    0.24
  -3   1   1  495.86   11.46
   2  -1  -1  406.09    9.32
   1  -1  -1    0.34    0.06
   1  -1  -1    0.33    0.06
  -1   1   1    0.45    0.06
  -1   1   1    0.43    0.05
   0  -1  -1  739.36   18.03
   0   1   1  752.21   18.02
  -1  -1  -1  376.38    8.97
  -1  -1  -1  372.85    8.99
  -2  -1  -1  287.91    6.64
   2   1   1  286.21    6.63
   2   1   1  286.73    6.60
  -3  -1  -1  286.86    6.47
  -3  -1  -1  289.52    6.57
   3   1   1  278.69    6.60
   3   1   1  275.35    6.58
  -4  -1  -1   22.67    0.70
   4   1   1   20.70    0.69
   4   1   1   20.97    0.66
  -5  -1  -1  116.60    2.89
   5   1   1  111.49    2.89
  -6  -1  -1  124.78    3.11
  -6  -1  -1  130.03    3.27
   6   1   1  126.20    3.27
  -7  -1  -1   13.72    0.53
  -7  -1  -1   12.90    0.71
   7   1   1   12.26    0.65
  -8  -1  -1   34.97    1.26
  -8  -1  -1   34.83    1.08
   8   1   1   35.18    1.29
  -9  -1  -1   83.67    2.46
  -9  -1  -1   84.01    2.31
   9   1   1   84.13    2.54
 -10  -1  -1   12.63    0.86
  10   1   1   12.65    0.91
 -11  -1  -1   31.58    1.40
  11   1   1   34.65    1.55
 -12  -1  -1   60.41    2.11
  12   1   1   62.22    2.32
  11  -2  -1   48.35    2.00
 -11   2   1   50.30    1.80
  10  -2  -1   90.45    2.85
 -10   2   1   88.99    2.66
   9  -2  -1    5.57    0.68
  -9   2   1    5.75    0.64
  -9   2   1    5.43    0.39
   8  -2  -1  118.84    3.31
  -8   2   1  117.53    2.93
  -8   2   1  118.28    3.19
   7  -2  -1   77.92    2.03
   7  -2  -1   78.81    2.32
  -7   2   1   83.33    2.07
  -7   2   1   81.05    2.26
   6  -2  -1    5.68    0.46
   6  -2  -1    6.49    0.31
  -6   2   1    5.82    0.43
  -6   2   1    5.57    0.27
   5  -2  -1  118.93    2.89
   5  -2  -1  118.78    3.11
  -5   2   1  122.60    2.87
  -5   2   1  120.27    3.07
   4  -2  -1   77.19    1.89
   4  -2  -1   78.23    2.06
  -4   2   1   76.30    2.02
  -4   2   1   77.59    1.86
   3  -2  -1   73.71    1.85
  -3   2   1   72.52    1.83
  -3   2   1   71.05    1.67
  -3   2   1   65.81    1.69
  -2   2   1  408.15    9.34
  -2   2   1  398.39    9.30
   1  -2  -1   24.11    0.70
  -1   2   1   25.26    0.70
  -1   2   1   28.37    0.72
   0  -2  -1   69.62    1.71
   0  -2  -1   71.68    1.71
   0  -2  -1   73.91    1.66
   0   2   1   74.61    1.75
   0   2   1   70.06    1.70
   0   2   1   69.03    1.70
  -1  -2  -1  489.31   11.24
  -2  -2  -1  173.54    3.96
  -2  -2  -1  168.82    3.95
  -2  -2  -1  170.29    3.99
   2   2   1  170.65    4.00
   2   2   1  169.39    4.03
  -3  -2  -1   15.84    0.47
  -3  -2  -1   17.71    0.47
   3   2   1   15.88    0.53
   3   2   1   14.44    0.44
   3   2   1   14.78    0.50
  -4  -2  -1  134.07    3.13
  -4  -2  -1  128.41    3.05
   4   2   1  127.69    3.19
   4   2   1  127.60    3.04
  -5  -2  -1   14.60    0.55
  -5  -2  -1   14.21    0.42
  -5  -2  -1   14.37    0.49
   5   2   1   14.26    0.57
   5   2   1   14.23    0.41
  -6  -2  -1   75.13    1.79
  -6  -2  -1   77.61    1.96
  -6  -2  -1   77.62    2.06
   6   2   1   74.56    2.11
   6   2   1   75.57    1.81
  -7  -2  -1   95.49    2.42
  -7  -2  -1   96.26    2.58
   7   2   1   93.37    2.61
  -8  -2  -1    0.33    0.27
  -8  -2  -1    0.32    0.16
   8   2   1    0.39    0.23
  -9  -2  -1  105.21    2.96
   9   2   1  108.95    3.08
 -10  -2  -1   45.25    1.62
  10   2   1   48.27    1.76
 -11  -2  -1    7.02    1.05
 -11  -2  -1    6.44    0.72
  11   2   1    6.47    0.86
 -12  -2  -1   58.38    2.03
 -12  -2  -1   57.46    2.46
  12   2   1   53.64    2.17
  11  -3  -1    1.23    0.57
 -11   3   1    0.26    0.45
  10  -3  -1   41.96    1.78
 -10   3   1   43.06    1.60
   9  -3  -1   45.00    1.70
  -9   3   1   41.38    1.53
   8  -3  -1   15.87    0.92
  -8   3   1   15.12    0.82
   7  -3  -1  104.75    2.63
   7  -3  -1  107.61    2.99
  -7   3   1  106.56    2.59
  -7   3   1  104.10    2.88
   6  -3  -1   28.07    1.10
   6  -3  -1   31.17    0.87
  -6   3   1   29.21    1.05
  -6   3   1   29.53    0.81
   5  -3  -1   77.43    2.21
   5  -3  -1   81.08    1.99
  -5   3   1   78.30    2.17
  -5   3   1   81.69    1.93
  -4   3   1  129.26    2.81
  -4   3   1  110.21    3.11
   3  -3  -1    5.16    0.31
  -3   3   1    4.46    0.28
  -3   3   1    4.96    0.17
  -3   3   1    5.59    0.26
  -3   3   1    5.01    0.17
   2  -3  -1  207.05    4.96
  -2   3   1  207.60    4.93
  -2   3   1  210.73    4.93
   1  -3  -1   84.77    2.13
  -1   3   1   86.49    2.11
  -1   3   1   88.19    2.15
   0  -3  -1   54.31    1.38
   0  -3  -1   55.92    1.29
   0  -3  -1   54.06    1.28
   0   3   1   54.30    1.35
   0   3   1   55.67    1.42
  -1  -3  -1  247.90    5.87
  -1  -3  -1  253.33    5.88
   1   3   1  262.26    5.96
  -2  -3  -1  242.99    5.61
  -2  -3  -1  240.70    5.62
   2   3   1  239.62    5.73
   2   3   1  251.99    5.70
   2   3   1  240.96    5.62
  -3  -3  -1   13.93    0.41
  -3  -3  -1   14.26    0.43
   3   3   1   13.15    0.50
  -4  -3  -1  207.43    5.05
  -4  -3  -1  218.33    5.05
   4   3   1  213.55    5.06
   4   3   1  222.49    5.20
  -5  -3  -1  239.64    5.66
  -5  -3  -1  237.65    5.64
   5   3   1  237.81    5.60
   5   3   1  243.12    5.80
  -6  -3  -1    1.60    0.23
  -6  -3  -1    1.79    0.24
   6   3   1    1.97    0.15
   6   3   1    2.11    0.35
  -7  -3  -1  106.46    2.71
   7   3   1   99.20    2.46
   7   3   1  102.68    2.82
  -8  -3  -1   37.78    1.17
  -8  -3  -1   36.82    1.28
   8   3   1   37.56    1.35
  -9  -3  -1   25.49    1.06
  -9  -3  -1   27.61    0.98
   9   3   1   29.07    1.22
 -10  -3  -1   73.32    2.19
 -10  -3  -1   70.05    2.26
  10   3   1   73.16    2.38
 -11  -3  -1    6.35    0.85
 -11  -3  -1    5.16    0.57
  11   3   1    5.08    0.84
 -12  -3  -1   17.02    0.93
  12   3   1   17.10    1.26
  10  -4  -1    2.13    0.63
 -10   4   1    2.31    0.49
   9  -4  -1   56.32    2.08
  -9   4   1   59.02    1.93
   8  -4  -1   22.86    1.17
  -8   4   1   23.02    1.06
   7  -4  -1   17.12    0.92
   7  -4  -1   16.59    0.73
  -7   4   1   16.45    0.80
   6  -4  -1   93.76    2.51
   6  -4  -1   97.34    2.74
  -6   4   1   95.80    2.63
  -6   4   1   97.69    2.31
   5  -4  -1   16.05    0.56
   5  -4  -1   15.97    0.76
  -5   4   1   16.38    0.46
   4  -4  -1   51.63    1.57
  -4   4   1   50.99    1.25
  -4   4   1   52.49    1.51
  -4   4   1   53.46    1.25
  -4   4   1   53.10    1.42
  -3   4   1   97.21    2.45
  -3   4   1   95.84    2.59
   2  -4  -1    4.84    0.29
  -2   4   1    4.50    0.27
  -2   4   1    4.29    0.26
   1  -4  -1  176.47    4.26
  -1   4   1  183.02    4.29
  -1   4   1  174.62    4.23
   0  -4  -1  161.17    3.90
   0  -4  -1  169.19    3.90
   0  -4  -1  169.30    4.02
   0   4   1  176.51    4.09
   0   4   1  168.98    3.98
  -1  -4  -1   16.49    0.45
  -1  -4  -1   16.76    0.52
   1   4   1   16.18    0.56
  -2  -4  -1  263.54    6.13
   2   4   1  267.45    6.29
   2   4   1  267.83    6.26
   2   4   1  261.94    6.14
  -3  -4  -1   56.81    1.43
   3   4   1   56.54    1.56
   3   4   1   57.00    1.50
  -4  -4  -1   65.34    1.55
  -4  -4  -1   62.42    1.58
   4   4   1   60.67    1.72
   4   4   1   59.89    1.62
  -5  -4  -1  246.36    5.95
  -5  -4  -1  254.26    5.91
   5   4   1  256.70    6.12
   5   4   1  249.30    5.94
  -6  -4  -1   25.79    0.80
  -6  -4  -1   25.11    0.80
   6   4   1   22.89    0.93
   6   4   1   23.28    0.74
  -7  -4  -1   50.72    1.45
  -7  -4  -1   50.88    1.44
   7   4   1   48.98    1.61
   7   4   1   49.71    1.33
  -8  -4  -1   55.02    1.57
  -8  -4  -1   55.54    1.66
   8   4   1   51.80    1.76
  -9  -4  -1    7.97    0.53
  -9  -4  -1    9.00    0.60
   9   4   1    7.81    0.71
 -10  -4  -1   18.04    0.84
  10   4   1   19.93    1.11
 -11  -4  -1   28.18    1.13
  11   4   1   28.06    1.43
 -12  -4  -1    1.01    0.38
  12   4   1    0.13    0.59
  10  -5  -1    1.60    0.63
 -10   5   1    1.83    0.46
   9  -5  -1   30.03    1.47
  -9   5   1   28.45    1.28
   8  -5  -1   63.42    2.20
  -8   5   1   64.33    2.06
   7  -5  -1    0.35    0.36
  -7   5   1    0.33    0.28
   6  -5  -1   78.76    2.09
   6  -5  -1   80.73    2.41
  -6   5   1   79.33    2.29
   5  -5  -1  141.90    3.77
  -5   5   1  142.60    3.67
   4  -5  -1    1.99    0.38
  -4   5   1    2.40    0.32
  -4   5   1    1.47    0.26
   3  -5  -1  105.95    2.75
  -3   5   1  100.56    2.66
   2  -5  -1  112.69    2.93
  -2   5   1  117.03    2.92
  -2   5   1  114.29    2.87
  -1   5   1    2.06    0.18
  -1   5   1    2.11    0.21
   0  -5  -1  140.99    3.39
   0  -5  -1  138.72    3.22
   0  -5  -1  133.45    3.22
   0   5   1  141.47    3.45
   0   5   1  138.76    3.32
  -1  -5  -1   67.25    1.61
  -1  -5  -1   67.08    1.72
   1   5   1   67.27    1.66
   1   5   1   64.80    1.78
  -2  -5  -1   69.02    1.78
  -2  -5  -1   71.42    1.71
   2   5   1   69.05    1.86
   2   5   1   69.34    1.72
  -3  -5  -1  122.42    2.94
   3   5   1  122.55    2.91
   3   5   1  124.89    3.13
   3   5   1  120.73    3.07
  -4  -5  -1   26.54    0.79
  -4  -5  -1   27.96    0.73
   4   5   1   25.93    0.85
  -5  -5  -1    7.13    0.29
  -5  -5  -1    6.36    0.36
   5   5   1    5.99    0.33
   5   5   1    5.72    0.44
  -6  -5  -1   85.95    2.23
  -6  -5  -1   87.52    2.18
   6   5   1   85.57    2.42
   6   5   1   85.47    2.23
  -7  -5  -1    5.95    0.37
  -7  -5  -1    5.54    0.38
   7   5   1    5.69    0.33
   7   5   1    5.46    0.50
  -8  -5  -1   16.56    0.71
  -8  -5  -1   17.12    0.70
   8   5   1   15.34    0.86
  -9  -5  -1   41.78    1.37
   9   5   1   43.18    1.62
 -10  -5  -1    1.90    0.34
  10   5   1    2.09    0.51
 -11  -5  -1   33.14    1.28
  11   5   1   33.56    1.60
 -12  -5  -1   24.53    1.12
  12   5   1   25.92    1.47
   9  -6  -1    0.80    0.55
  -9   6   1   -0.06    0.40
   8  -6  -1   48.33    1.92
  -8   6   1   50.22    1.76
   7  -6  -1   31.62    1.40
  -7   6   1   29.69    1.23
   6  -6  -1   16.68    0.96
  -6   6   1   16.42    0.84
   5  -6  -1  138.99    3.80
  -5   6   1  143.31    3.69
   4  -6  -1   50.41    1.65
  -4   6   1   49.78    1.54
  -4   6   1   52.28    1.52
   3  -6  -1   78.90    2.22
  -3   6   1   77.65    2.14
  -3   6   1   77.42    2.12
   2  -6  -1  208.42    5.12
  -2   6   1  211.91    5.12
  -2   6   1  203.85    5.03
   1  -6  -1    8.55    0.48
  -1   6   1    8.85    0.39
  -1   6   1    7.59    0.47
   0  -6  -1   66.36    1.58
   0  -6  -1   67.00    1.80
   0  -6  -1   63.01    1.58
   0   6   1   67.82    1.71
   0   6   1   66.57    1.85
  -1  -6  -1   66.97    1.80
  -1  -6  -1   68.12    1.64
   1   6   1   64.65    1.86
   1   6   1   68.68    1.70
  -2  -6  -1    1.55    0.25
   2   6   1    1.35    0.15
   2   6   1    1.21    0.24
  -3  -6  -1  120.96    2.92
   3   6   1  121.09    2.88
   3   6   1  117.59    3.13
   3   6   1  122.63    3.10
  -4  -6  -1   49.60    1.22
   4   6   1   47.41    1.48
   4   6   1   46.74    1.43
  -5  -6  -1    6.84    0.38
  -5  -6  -1    7.14    0.29
   5   6   1    6.31    0.46
   5   6   1    6.61    0.47
  -6  -6  -1   54.43    1.38
  -6  -6  -1   52.69    1.48
   6   6   1   52.52    1.67
   6   6   1   48.74    1.52
  -7  -6  -1  114.57    2.92
   7   6   1  111.66    3.15
   7   6   1  114.07    2.94
  -8  -6  -1    1.02    0.25
   8   6   1    1.59    0.39
   8   6   1    0.66    0.30
  -9  -6  -1   34.45    1.41
   9   6   1   35.90    1.78
 -10  -6  -1   37.74    1.36
  10   6   1   38.61    1.66
 -11  -6  -1    2.84    0.46
  11   6   1    4.73    0.88
 -12  -6  -1   46.92    1.83
  12   6   1   44.50    2.18
   8  -7  -1    7.39    0.99
  -8   7   1    6.85    0.79
   7  -7  -1   48.47    1.92
  -7   7   1   48.53    1.72
   6  -7  -1    7.37    0.80
   6  -7  -1    5.89    0.56
  -6   7   1    6.81    0.65
   5  -7  -1   29.41    1.27
  -5   7   1   27.62    1.04
  -5   7   1   29.34    1.13
   4  -7  -1   83.67    2.48
  -4   7   1   81.80    2.31
   3  -7  -1    3.68    0.48
  -3   7   1    4.41    0.39
  -3   7   1    4.23    0.41
   2  -7  -1  110.77    3.00
  -2   7   1  113.88    3.00
  -2   7   1  113.57    2.90
   1  -7  -1  119.99    3.12
  -1   7   1  117.89    3.15
  -1   7   1  121.66    3.02
   0  -7  -1    8.25    0.49
   0  -7  -1    8.69    0.26
   0   7   1    8.40    0.50
   0   7   1    8.09    0.38
  -1  -7  -1  130.25    3.05
  -1  -7  -1  124.73    3.23
   1   7   1  124.91    3.32
   1   7   1  131.93    3.13
  -2  -7  -1  116.84    2.99
  -2  -7  -1  119.85    2.84
   2   7   1  116.30    2.86
   2   7   1  117.41    3.09
  -3  -7  -1   31.98    1.03
  -3  -7  -1   33.97    0.94
   3   7   1   31.66    1.11
   3   7   1   32.75    0.90
  -4  -7  -1  196.46    4.70
  -4  -7  -1  192.53    4.60
   4   7   1  199.39    4.90
   4   7   1  197.53    4.96
  -5  -7  -1   12.46    0.53
  -5  -7  -1   12.81    0.53
   5   7   1   11.97    0.62
   5   7   1   11.77    0.67
  -6  -7  -1   49.92    1.42
   6   7   1   48.97    1.51
   6   7   1   47.87    1.63
  -7  -7  -1  169.97    4.24
   7   7   1  170.76    4.51
  -8  -7  -1   14.99    0.73
   8   7   1   13.94    0.68
   8   7   1   14.99    0.91
  -9  -7  -1   40.24    1.38
   9   7   1   42.30    1.66
 -10  -7  -1   52.41    1.68
  10   7   1   49.67    1.96
 -11  -7  -1    6.08    0.68
  11   7   1    4.91    0.80
   7  -8  -1   28.98    1.54
  -7   8   1   27.97    1.29
   6  -8  -1   31.72    1.50
   6  -8  -1   30.53    1.20
  -6   8   1   30.76    1.29
   5  -8  -1    0.78    0.42
  -5   8   1    1.42    0.36
  -5   8   1    1.22    0.36
  -4   8   1   51.35    1.66
   3  -8  -1   71.87    2.20
  -3   8   1   71.27    2.13
  -3   8   1   71.05    2.04
   2  -8  -1    2.80    0.47
  -2   8   1    3.16    0.38
  -2   8   1    2.55    0.44
   1  -8  -1  111.27    2.97
  -1   8   1  109.87    2.82
  -1   8   1  108.87    2.99
   0  -8  -1   80.47    2.24
   0   8   1   80.25    2.30
  -1  -8  -1    5.37    0.44
  -1  -8  -1    6.61    0.27
   1   8   1    5.64    0.45
   1   8   1    5.85    0.32
  -2  -8  -1  116.99    3.02
  -2  -8  -1  118.99    2.83
   2   8   1  112.44    3.11
   2   8   1  116.08    2.86
  -3  -8  -1   76.03    2.11
   3   8   1   76.44    1.93
   3   8   1   78.29    2.22
  -4  -8  -1   75.19    2.13
  -4  -8  -1   76.87    2.03
   4   8   1   82.07    2.62
  -5  -8  -1  117.05    3.00
   5   8   1  121.12    3.30
   5   8   1  119.50    3.19
  -6  -8  -1    1.99    0.35
   6   8   1    1.25    0.33
   6   8   1    0.90    0.34
  -7  -8  -1   52.92    1.57
   7   8   1   49.88    1.64
   7   8   1   53.50    1.83
  -8  -8  -1   59.53    1.94
   8   8   1   60.84    1.85
   8   8   1   64.00    2.13
  -9  -8  -1    1.25    0.38
   9   8   1    0.54    0.47
 -10  -8  -1   34.28    1.32
  10   8   1   35.23    1.61
 -11  -8  -1   18.65    0.99
  11   8   1   18.98    1.31
   6  -9  -1   33.91    1.66
  -6   9   1   35.90    1.43
   5  -9  -1   20.32    1.24
  -5   9   1   19.82    1.02
   4  -9  -1   12.24    0.97
  -4   9   1   11.22    0.77
   3  -9  -1   68.71    2.19
  -3   9   1   65.85    1.97
  -3   9   1   64.96    2.12
   2  -9  -1   29.48    1.37
  -2   9   1   29.58    1.20
  -2   9   1   30.22    1.08
   1  -9  -1   17.32    0.89
  -1   9   1   15.55    0.84
  -1   9   1   16.77    0.72
   0  -9  -1  146.99    3.84
   0   9   1  145.69    3.89
  -1  -9  -1   17.01    0.81
   1   9   1   15.71    0.83
   1   9   1   17.13    0.69
  -2  -9  -1    6.89    0.53
   2   9   1    5.85    0.35
   2   9   1    6.62    0.57
  -3  -9  -1   50.33    1.55
  -3  -9  -1   49.00    1.38
   3   9   1   47.19    1.62
  -4  -9  -1   14.80    0.64
  -4  -9  -1   16.13    0.76
   4   9   1   17.58    0.88
  -5  -9  -1   33.80    1.18
  -5  -9  -1   31.86    1.07
  -6  -9  -1   25.62    0.95
   6   9   1   25.08    1.10
  -7  -9  -1    3.46    0.49
   7   9   1    3.13    0.53
   7   9   1    3.73    0.61
  -8  -9  -1   19.13    0.91
   8   9   1   18.52    0.94
   8   9   1   20.24    1.15
  -9  -9  -1   33.52    1.32
   9   9   1   36.80    1.62
  10   9   1   -0.56    0.54
   5 -10  -1   39.65    1.77
   4 -10  -1   10.10    1.00
  -4  10   1    9.30    0.83
   3 -10  -1   18.88    1.14
  -3  10   1   17.89    1.04
  -3  10   1   20.21    0.96
   2 -10  -1   23.95    1.21
  -2  10   1   24.57    1.12
  -2  10   1   24.38    1.00
   1 -10  -1    1.28    0.41
  -1  10   1    1.30    0.31
  -1  10   1    0.85    0.41
   0 -10  -1   40.76    1.49
   0  10   1   40.64    1.52
   0  10   1   43.22    1.31
  -1 -10  -1   41.21    1.72
   1  10   1   45.19    1.77
  -3 -10  -1   14.16    1.20
  -4 -10  -1   38.34    1.36
  -5 -10  -1    0.67    0.27
  -5 -10  -1    0.82    0.32
  -6 -10  -1   23.25    0.97
  -6 -10  -1   23.82    1.04
  -7 -10  -1   10.04    0.73
   7  10   1    9.71    0.84
  -8 -10  -1    0.71    0.39
   8  10   1    1.40    0.54
   8  10   1    1.92    0.47
  -9 -10  -1   36.50    1.41
   9  10   1   36.24    1.65
 -10 -10  -1   13.08    1.08
  -4  11   1   31.36    1.40
   3 -11  -1    1.23    0.55
  -3  11   1    0.87    0.49
   2 -11  -1   30.25    1.45
  -2  11   1   29.87    1.37
  -2  11   1   32.57    1.53
   1 -11  -1   17.93    1.11
  -1  11   1   17.46    1.02
   0 -11  -1    0.07    0.40
   0  11   1    0.70    0.42
  -1 -11  -1   51.26    1.79
   1  11   1   51.18    1.85
  -2 -11  -1   15.85    0.93
   2  11   1   15.25    0.98
  -3 -11  -1    9.59    0.75
   3  11   1   10.16    0.88
  -4 -11  -1   34.45    1.35
   4  11   1   33.03    1.45
  -5 -11  -1   19.65    1.02
   5  11   1   22.32    1.17
  -6 -11  -1   16.14    0.92
  -7 -11  -1   35.42    1.42
  -7 -11  -1   34.99    1.30
  -8 -11  -1    1.60    0.46
  -8 -11  -1    2.17    0.47
   8  11   1    1.66    0.53
  -9 -11  -1   17.73    1.08
  -2  12   1    7.17    1.04
   1 -12  -1   45.84    1.81
  -1  12   1   45.38    1.80
   0 -12  -1   15.27    1.10
   0  12   1   16.03    1.06
  -1 -12  -1   16.15    1.07
   1  12   1   15.16    1.08
  -2 -12  -1  102.29    3.06
   2  12   1  104.03    3.15
  -3 -12  -1    5.57    0.78
   3  12   1    6.03    0.86
  -4 -12  -1   22.63    1.18
   4  12   1   24.40    1.29
  -5 -12  -1   44.84    1.67
   5  12   1   46.16    1.81
  -6 -12  -1    1.92    0.49
   6  12   1    1.35    0.56
   6  12  -2   37.59    1.93
   5  12  -2    6.16    0.94
  -5 -12   2    6.53    0.85
   4  12  -2   15.50    1.13
  -4 -12   2   15.32    1.01
   3  12  -2   44.01    1.79
  -3 -12   2   39.72    1.61
   2  12  -2    0.51    0.53
  -2 -12   2   -0.41    0.47
   1  12  -2   35.52    1.60
  -1 -12   2   31.32    1.46
   0  12  -2   30.55    1.49
   0 -12   2   30.38    1.47
  -1  12  -2    1.33    0.74
  -8 -11   2   47.33    1.73
  -7 -11   2    3.83    0.71
  -7 -11   2    5.14    0.81
   6  11  -2   28.73    1.46
  -6 -11   2   29.24    1.21
  -6 -11   2   28.00    1.25
   5  11  -2   41.17    1.72
  -5 -11   2   42.05    1.56
   4  11  -2   -0.11    0.47
  -4 -11   2   -0.14    0.36
   3  11  -2   32.34    1.49
  -3 -11   2   34.28    1.38
   2  11  -2   22.24    1.22
  -2 -11   2   24.73    1.16
   1  11  -2    2.62    0.54
  -1 -11   2    3.01    0.56
   0  11  -2   21.60    1.23
   0 -11   2   23.72    1.20
  -1  11  -2   25.92    1.32
   1 -11   2   25.64    1.32
  -2  11  -2    0.72    0.52
   2 -11   2    0.80    0.53
  -3  11  -2   23.81    1.32
   3 -11   2   23.53    1.36
  -4  11  -2    8.04    1.01
   9  10  -2   -0.38    0.63
  -9 -10   2    0.42    0.45
  -8 -10   2   35.55    1.41
  -7 -10   2   28.07    1.20
  -7 -10   2   29.24    1.23
   6  10  -2    1.11    0.53
  -6 -10   2    0.86    0.40
  -6 -10   2    1.28    0.43
   5  10  -2   55.09    1.92
  -5 -10   2   49.36    1.64
  -5 -10   2   52.50    1.73
   4  10  -2   26.95    1.31
  -4 -10   2   30.06    1.18
  -4 -10   2   29.62    1.07
   3  10  -2    3.06    0.55
  -3 -10   2    2.90    0.47
   2  10  -2   38.83    1.55
  -2 -10   2   39.13    1.42
   1  10  -2    4.43    0.68
  -1 -10   2    5.32    0.64
   0  10  -2   16.70    1.01
   0 -10   2   17.02    0.94
  -1  10  -2   34.12    1.43
   1 -10   2   35.24    1.45
  -2  10  -2    9.15    0.85
   2 -10   2    9.03    0.86
  -3  10  -2   28.50    1.33
  -3  10  -2   31.17    1.15
   3 -10   2   26.85    1.37
  -4  10  -2   19.47    1.00
  -4  10  -2   18.10    1.09
   4 -10   2   18.87    1.26
   5 -10   2    3.14    0.76
  10   9  -2   13.66    1.32
 -10  -9   2   12.74    0.96
   9   9  -2   17.38    1.21
  -9  -9   2   16.60    0.95
   8   9  -2    0.35    0.47
   8   9  -2    0.98    0.53
  -8  -9   2    0.77    0.38
   7   9  -2   28.29    1.33
  -7  -9   2   26.79    1.11
  -6  -9   2   16.99    0.83
   5   9  -2    1.88    0.47
  -5  -9   2    1.17    0.33
   4   9  -2   67.58    2.16
  -4  -9   2   67.81    1.97
  -4  -9   2   64.09    1.87
   3   9  -2   31.73    1.31
  -3  -9   2   33.07    1.18
  -3  -9   2   32.15    1.07
   2   9  -2   19.67    0.98
  -2  -9   2   19.07    0.71
  -2  -9   2   19.68    0.86
   1   9  -2  104.00    3.00
  -1  -9   2  104.20    2.86
   0   9  -2   -0.15    0.31
   0  -9   2    0.28    0.31
  -1   9  -2   52.51    1.54
  -1   9  -2   54.19    1.82
   1  -9   2   54.10    1.78
  -2   9  -2   49.50    1.73
  -2   9  -2   49.82    1.53
   2  -9   2   50.26    1.73
  -3   9  -2   10.38    0.67
   3  -9   2    8.37    0.79
  -4   9  -2  109.74    3.12
  -4   9  -2  112.34    3.05
   4  -9   2  106.26    3.25
  -5   9  -2    8.67    0.94
   5  -9   2    9.87    1.02
   6  -9   2    3.09    0.70
  10   8  -2   12.52    1.11
 -10  -8   2   12.10    0.86
   9   8  -2   39.97    1.70
  -9  -8   2   38.92    1.43
   8   8  -2   16.45    1.03
   8   8  -2   16.15    0.95
  -8  -8   2   17.06    0.85
   7   8  -2   36.34    1.59
   7   8  -2   37.54    1.41
  -7  -8   2   35.65    1.32
   6   8  -2  106.38    3.01
   6   8  -2  107.41    3.06
  -6  -8   2  103.14    2.80
  -5  -8   2   19.17    0.79
   4   8  -2   60.41    1.91
  -4  -8   2   60.36    1.75
  -4  -8   2   57.52    1.68
   3   8  -2  137.56    3.71
  -3  -8   2  138.22    3.53
  -3  -8   2  138.36    3.45
   2   8  -2    6.33    0.54
  -2  -8   2    7.74    0.50
  -2  -8   2    7.03    0.45
   1   8  -2  118.43    2.86
   1   8  -2  119.13    3.24
  -1  -8   2  116.27    3.09
   0   8  -2  112.65    2.80
   0   8  -2  112.26    3.11
   0  -8   2  112.82    2.74
   0  -8   2  113.69    3.01
  -1   8  -2    6.62    0.44
  -1   8  -2    7.12    0.58
   1  -8   2    6.26    0.56
  -2   8  -2   68.99    1.95
  -2   8  -2   68.96    2.10
   2  -8   2   69.57    2.10
  -3   8  -2   80.12    2.21
  -3   8  -2   75.61    2.28
   3  -8   2   76.18    2.35
  -4   8  -2   21.92    0.99
  -4   8  -2   21.66    0.98
   4  -8   2   21.16    1.11
  -5   8  -2   91.87    2.62
   5  -8   2   93.31    2.88
  -6   8  -2   11.41    0.87
   6  -8   2    9.85    1.03
  -7   8  -2   10.56    0.94
   7  -8   2    9.41    1.07
  11   7  -2   61.69    2.33
 -11  -7   2   59.61    2.00
  10   7  -2    4.97    0.74
 -10  -7   2    4.82    0.63
   9   7  -2   32.29    1.49
  -9  -7   2   32.44    1.25
   8   7  -2   67.07    2.26
   8   7  -2   64.57    2.02
  -8  -7   2   65.12    1.97
   7   7  -2    0.59    0.31
   7   7  -2    0.36    0.32
  -7  -7   2    0.02    0.24
   6   7  -2  163.06    4.27
   6   7  -2  166.00    4.35
  -6  -7   2  163.54    4.11
   5   7  -2   92.76    2.65
   5   7  -2   92.17    2.61
  -5  -7   2   92.33    2.44
   4   7  -2   18.71    0.83
  -4  -7   2   16.45    0.68
   3   7  -2  213.23    5.41
  -3  -7   2  217.62    5.20
  -3  -7   2  217.04    5.25
   2   7  -2   94.40    2.28
   2   7  -2   98.67    2.69
  -2  -7   2   92.69    2.55
  -2  -7   2  100.74    2.54
   1   7  -2    2.53    0.38
   1   7  -2    3.12    0.19
  -1  -7   2    2.65    0.33
  -1  -7   2    2.14    0.20
   0   7  -2  161.47    3.91
   0   7  -2  162.74    4.19
   0  -7   2  166.82    3.89
   0  -7   2  160.70    4.07
  -1   7  -2   44.88    1.46
   1  -7   2   45.33    1.17
   1  -7   2   44.67    1.41
  -2   7  -2    9.22    0.53
  -2   7  -2   10.27    0.59
   2  -7   2    9.20    0.58
   2  -7   2   10.30    0.41
  -3   7  -2   87.67    2.43
  -3   7  -2   86.21    2.38
   3  -7   2   85.98    2.49
  -4   7  -2   73.21    2.12
  -4   7  -2   72.36    2.15
   4  -7   2   75.20    2.28
  -5   7  -2   45.19    1.46
  -6   7  -2   75.90    2.39
   6  -7   2   80.46    2.56
  -7   7  -2   11.01    0.86
   7  -7   2   10.58    1.03
  -8   7  -2   20.84    1.13
   8  -7   2   19.28    1.29
  11   6  -2   36.53    1.73
 -11  -6   2   34.74    1.41
  10   6  -2   79.15    2.64
 -10  -6   2   79.05    2.35
   9   6  -2    1.86    0.50
  -9  -6   2    1.31    0.35
   8   6  -2   50.01    1.78
  -8  -6   2   50.05    1.57
   7   6  -2   52.16    1.76
   7   6  -2   52.35    1.64
  -7  -6   2   51.77    1.56
   6   6  -2    8.69    0.58
   6   6  -2    8.56    0.57
  -6  -6   2    8.33    0.49
   5   6  -2   60.60    1.88
   5   6  -2   62.58    1.85
  -5  -6   2   62.77    1.72
   4   6  -2    7.51    0.50
   4   6  -2    6.95    0.50
  -4  -6   2    8.25    0.45
   3   6  -2   45.94    1.46
  -3  -6   2   46.49    1.31
   2   6  -2   89.52    2.21
   2   6  -2   97.28    2.58
  -2  -6   2   96.17    2.43
  -2  -6   2   95.99    2.38
   1   6  -2   38.74    1.28
   1   6  -2   40.31    1.03
  -1  -6   2   39.52    1.19
  -1  -6   2   41.38    1.10
   0   6  -2   23.59    0.70
   0   6  -2   22.93    0.88
   0  -6   2   22.69    0.81
   0  -6   2   22.77    0.67
  -1   6  -2  176.69    4.42
   1  -6   2  177.22    4.15
   1  -6   2  174.60    4.35
  -2   6  -2    4.37    0.42
  -2   6  -2    3.72    0.38
   2  -6   2    3.86    0.22
   2  -6   2    4.36    0.41
  -3   6  -2   21.45    0.84
  -3   6  -2   19.10    0.82
   3  -6   2   20.51    0.87
   3  -6   2   22.07    0.63
  -4   6  -2   68.68    1.98
  -4   6  -2   70.00    2.05
   4  -6   2   72.00    2.13
  -5   6  -2    0.09    0.23
   5  -6   2    0.50    0.33
  -6   6  -2   91.95    2.69
   6  -6   2   91.73    2.87
  -7   6  -2   27.23    1.23
   7  -6   2   24.86    1.29
  -8   6  -2    2.16    0.48
   8  -6   2    1.33    0.52
  -9   6  -2   38.93    1.62
   9  -6   2   40.94    1.80
 -12  -5   2   14.62    1.29
  11   5  -2    0.96    0.57
 -11  -5   2   -0.39    0.32
  10   5  -2   61.33    2.18
 -10  -5   2   58.60    1.87
  -9  -5   2   27.68    1.12
   8   5  -2    5.34    0.60
   8   5  -2    5.63    0.49
  -8  -5   2    5.12    0.45
   7   5  -2   48.56    1.65
  -7  -5   2   50.82    1.48
   6   5  -2   50.80    1.62
   6   5  -2   50.78    1.56
  -6  -5   2   50.14    1.45
   5   5  -2   14.27    0.69
   5   5  -2   14.61    0.69
  -5  -5   2   14.50    0.59
   4   5  -2  121.54    3.15
   4   5  -2  118.68    3.15
  -4  -5   2  121.96    3.00
  -3  -5   2   36.29    1.04
   2   5  -2   77.05    2.10
  -2  -5   2   76.20    1.96
  -2  -5   2   77.04    1.95
   1   5  -2   89.16    2.44
   1   5  -2   94.10    2.21
  -1  -5   2   94.40    2.28
  -1  -5   2   92.47    2.33
   0   5  -2    2.59    0.19
   0   5  -2    2.42    0.25
   0  -5   2    2.80    0.17
   0  -5   2    2.88    0.24
  -1   5  -2  178.53    4.24
  -1   5  -2  163.89    4.11
   1  -5   2  169.58    4.01
  -2   5  -2   80.22    2.15
  -2   5  -2   80.85    2.14
   2  -5   2   81.38    1.97
   2  -5   2   79.31    2.15
  -3   5  -2   25.25    0.86
  -3   5  -2   21.65    0.90
   3  -5   2   22.73    0.89
   3  -5   2   23.96    0.69
  -4   5  -2   32.95    1.17
   4  -5   2   31.76    1.17
   4  -5   2   33.84    0.93
  -5   5  -2   21.72    0.94
  -5   5  -2   21.11    0.93
   5  -5   2   22.07    0.69
   5  -5   2   22.04    0.96
  -6   5  -2   14.86    0.86
  -6   5  -2   16.36    0.72
   6  -5   2   14.99    0.87
  -7   5  -2   37.08    2.06
   7  -5   2   41.82    2.14
  -8   5  -2    2.62    0.56
   8  -5   2    2.37    0.58
  -9   5  -2   15.72    1.06
   9  -5   2   17.51    1.18
 -10   5  -2   36.64    1.76
  10  -5   2   35.50    1.82
  12   4  -2   11.90    1.17
 -12  -4   2   10.67    0.84
  11   4  -2    1.06    0.56
 -11  -4   2    1.25    0.36
  10   4  -2    2.12    0.50
 -10  -4   2    1.82    0.36
   9   4  -2   65.29    2.16
  -9  -4   2   64.73    1.91
   8   4  -2   15.61    0.75
   8   4  -2   14.62    0.85
  -8  -4   2   15.99    0.70
   7   4  -2    9.37    0.59
  -7  -4   2    9.29    0.34
  -7  -4   2    7.61    0.46
   6   4  -2  122.48    3.11
   6   4  -2  119.11    3.22
  -6  -4   2  123.11    2.86
  -6  -4   2  121.14    3.05
   5   4  -2   20.26    0.82
   5   4  -2   20.32    0.74
  -5  -4   2   21.02    0.71
   4   4  -2  177.75    4.39
   4   4  -2  180.20    4.43
  -4  -4   2  178.47    4.38
   3   4  -2  318.91    7.74
   3   4  -2  329.78    7.76
  -3  -4   2  331.88    7.63
   2   4  -2   29.82    0.92
   2   4  -2   30.01    0.94
  -2  -4   2   29.06    0.84
   1   4  -2  530.91   12.40
  -1  -4   2  522.47   12.28
  -1  -4   2  544.35   12.26
   0   4  -2  157.47    3.74
   0   4  -2  154.56    3.86
   0  -4   2  158.08    3.77
   0  -4   2  160.05    3.71
  -1   4  -2   42.59    1.23
  -1   4  -2   46.15    1.28
   1  -4   2   42.97    1.13
   1  -4   2   47.32    1.24
  -2   4  -2  365.82    8.40
  -2   4  -2  359.61    8.37
   2  -4   2  346.60    8.22
   2  -4   2  351.17    8.36
  -3   4  -2   27.35    0.96
  -3   4  -2   25.72    0.83
   3  -4   2   26.80    0.93
   3  -4   2   25.73    0.74
  -4   4  -2   38.82    1.10
  -4   4  -2   36.31    1.28
   4  -4   2   41.28    1.06
   4  -4   2   35.80    1.23
  -5   4  -2   74.87    2.23
  -5   4  -2   79.77    2.00
   5  -4   2   77.28    1.97
   5  -4   2   76.13    2.22
  -6   4  -2   19.59    0.93
  -6   4  -2   19.32    0.63
   6  -4   2   19.67    0.92
   6  -4   2   18.89    0.68
  -7   4  -2   21.76    1.05
   7  -4   2   22.19    1.06
  -8   4  -2   42.05    1.60
   8  -4   2   43.94    1.66
  -9   4  -2    2.19    0.48
   9  -4   2    2.51    0.56
 -10   4  -2   21.31    1.19
  10  -4   2   20.41    1.33
  12   3  -2   35.06    1.70
 -12  -3   2   35.29    1.37
  11   3  -2   20.98    1.26
 -11  -3   2   20.18    0.98
  10   3  -2    0.32    0.41
 -10  -3   2    0.82    0.30
   9   3  -2   67.35    2.21
  -9  -3   2   68.09    1.94
  -9  -3   2   68.83    1.91
   8   3  -2  105.39    3.00
   8   3  -2  102.57    2.71
  -8  -3   2  108.34    2.77
  -8  -3   2  107.30    2.71
   7   3  -2    1.91    0.26
   7   3  -2    2.41    0.37
  -7  -3   2    2.44    0.30
  -7  -3   2    2.30    0.20
   6   3  -2  127.20    3.19
   6   3  -2  123.92    3.31
  -6  -3   2  127.11    3.14
  -6  -3   2  128.04    3.04
   5   3  -2  142.88    3.51
  -5  -3   2  142.16    3.31
  -5  -3   2  137.57    3.43
   4   3  -2    1.65    0.11
   4   3  -2    1.64    0.20
   4   3  -2    1.63    0.19
  -4  -3   2    1.99    0.18
  -4  -3   2    1.69    0.09
   3   3  -2  141.35    3.48
   3   3  -2  141.30    3.48
  -3  -3   2  141.42    3.38
   2   3  -2   67.15    1.77
   2   3  -2   68.04    1.79
  -2  -3   2   68.60    1.69
   1   3  -2  174.91    4.04
   1   3  -2  150.84    3.88
  -1  -3   2  171.19    3.84
  -1  -3   2  171.36    3.93
  -1  -3   2  166.54    3.92
   0   3  -2  452.12   10.28
   0   3  -2  433.06   10.36
   0  -3   2  479.52   10.30
   0  -3   2  448.61   10.25
   0  -3   2  417.01   10.27
  -1   3  -2  173.47    3.88
  -1   3  -2  158.48    3.88
   1  -3   2  158.17    3.84
   1  -3   2  154.76    3.77
  -2   3  -2  149.92    3.52
  -2   3  -2  146.00    3.57
   2  -3   2  138.43    3.51
   2  -3   2  145.83    3.42
  -3   3  -2  549.46   12.48
  -3   3  -2  533.91   12.34
   3  -3   2  537.85   12.43
   3  -3   2  513.63   12.28
  -4   3  -2   49.80    1.33
  -4   3  -2   52.83    1.57
   4  -3   2   48.68    1.49
   4  -3   2   50.00    1.33
  -5   3  -2  101.52    2.77
  -5   3  -2  103.73    2.48
   5  -3   2  101.60    2.53
   5  -3   2   97.42    2.70
  -6   3  -2  155.20    4.13
   6  -3   2  156.79    4.10
   6  -3   2  163.40    3.90
  -7   3  -2    0.81    0.33
   7  -3   2    0.82    0.32
   7  -3   2    0.81    0.27
  -8   3  -2   61.05    2.09
  -8   3  -2   64.38    1.72
   8  -3   2   67.46    2.12
  -9   3  -2   47.43    1.77
   9  -3   2   48.52    1.81
 -10   3  -2    1.79    0.50
  10  -3   2    1.28    0.54
 -11   3  -2   31.52    1.50
  11  -3   2   33.07    1.62
  12   2  -2    1.13    0.63
  11   2  -2  106.65    3.30
  10   2  -2   41.31    1.65
 -10  -2   2   41.11    1.34
   9   2  -2   11.36    0.80
  -9  -2   2   12.25    0.60
   8   2  -2  218.44    5.31
   8   2  -2  223.90    5.62
  -8  -2   2  220.83    5.34
   7   2  -2   37.74    1.32
   7   2  -2   39.54    1.15
  -7  -2   2   39.41    1.13
  -7  -2   2   39.11    1.17
   6   2  -2   90.67    2.47
   6   2  -2   91.99    2.33
  -6  -2   2   88.84    2.30
  -6  -2   2   90.62    2.26
   5   2  -2  185.40    4.76
   5   2  -2  205.41    4.87
  -5  -2   2  197.27    4.66
  -5  -2   2  204.42    4.72
   4   2  -2   48.66    1.35
   4   2  -2   49.93    1.38
  -4  -2   2   48.78    1.22
  -4  -2   2   49.42    1.29
   3   2  -2   13.00    0.38
   3   2  -2   13.38    0.49
   3   2  -2   12.68    0.48
  -3  -2   2   13.34    0.43
  -3  -2   2   13.29    0.36
   2   2  -2  145.54    3.48
   2   2  -2  142.41    3.45
   2   2  -2  143.78    3.30
  -2  -2   2  140.41    3.30
  -2  -2   2  146.63    3.40
   1   2  -2  155.78    3.48
   1   2  -2  148.85    3.48
   1   2  -2  145.97    3.58
   1   2  -2  155.42    3.63
  -1  -2   2  149.88    3.55
   0   2  -2   18.23    0.57
   0   2  -2   18.41    0.51
   0  -2   2   18.75    0.49
   0  -2   2   17.59    0.50
   0  -2   2   17.85    0.50
  -1   2  -2  184.38    4.28
  -1   2  -2  185.07    4.27
   1  -2   2  172.24    4.23
   1  -2   2  181.73    4.21
  -2   2  -2   43.15    1.18
  -2   2  -2   41.14    1.11
   2  -2   2   43.21    1.14
   2  -2   2   42.50    1.08
  -3   2  -2  294.74    6.71
  -3   2  -2  296.91    6.87
   3  -2   2  287.43    6.72
   3  -2   2  275.78    6.79
  -4   2  -2  273.34    6.48
  -4   2  -2  295.68    6.74
   4  -2   2  275.16    6.65
   4  -2   2  272.84    6.54
  -5   2  -2    0.06    0.27
  -5   2  -2    0.24    0.07
   5  -2   2    0.25    0.10
   5  -2   2    0.27    0.19
  -6   2  -2  173.79    4.42
   6  -2   2  168.93    3.96
   6  -2   2  170.38    4.31
   6  -2   2  171.54    4.35
  -7   2  -2   71.06    2.16
   7  -2   2   71.45    1.96
   7  -2   2   69.84    2.10
  -8   2  -2    9.00    0.74
  -8   2  -2    9.21    0.46
   8  -2   2    9.04    0.70
  -9   2  -2   62.54    1.76
  -9   2  -2   66.06    2.33
   9  -2   2   63.73    2.17
 -10   2  -2   16.91    0.71
 -10   2  -2   15.21    1.06
  10  -2   2   16.79    1.11
 -11   2  -2   23.09    1.29
  11  -2   2   22.68    1.37
  12   1  -2   27.73    1.53
  11   1  -2   18.38    1.19
 -11  -1   2   19.47    0.95
  10   1  -2   47.99    1.79
 -10  -1   2   44.33    1.44
 -10  -1   2   44.77    1.49
   9   1  -2    5.62    0.64
  -9  -1   2    5.64    0.46
  -9  -1   2    5.56    0.47
   8   1  -2   31.44    0.96
   8   1  -2   30.85    1.21
  -8  -1   2   31.81    1.05
  -8  -1   2   31.61    1.02
   7   1  -2  143.04    3.56
   7   1  -2  146.94    3.79
  -7  -1   2  145.24    3.62
  -7  -1   2  145.57    3.57
   6   1  -2   15.12    0.56
   6   1  -2   13.73    0.67
  -6  -1   2   14.64    0.54
  -6  -1   2   15.53    0.56
   5   1  -2   98.52    2.44
   5   1  -2   98.19    2.53
  -5  -1   2   94.38    2.39
  -5  -1   2   96.20    2.39
   4   1  -2  243.85    5.84
  -4  -1   2  246.11    5.74
  -4  -1   2  246.72    5.73
   3   1  -2   31.15    0.87
   3   1  -2   30.15    0.88
  -3  -1   2   30.81    0.80
  -3  -1   2   30.76    0.82
   2   1  -2  335.82    7.76
   2   1  -2  345.53    7.86
  -2  -1   2  333.67    7.80
   1   1  -2  653.04   18.39
   0   1  -2    3.66    0.16
   0   1  -2    4.12    0.20
   0   1  -2    4.37    0.14
   0  -1   2    3.20    0.13
   0  -1   2    3.80    0.20
   0  -1   2    3.89    0.16
   1  -1   2  544.82   12.49
  -2   1  -2  189.45    4.35
  -2   1  -2  180.29    4.26
   2  -1   2  173.10    4.30
   2  -1   2  184.80    4.29
   2  -1   2  189.01    4.27
  -3   1  -2   84.37    1.94
  -3   1  -2   81.22    2.09
   3  -1   2   78.96    2.05
   3  -1   2   80.15    1.94
   3  -1   2   83.22    2.01
  -4   1  -2  248.35    6.04
   4  -1   2  254.40    5.99
   4  -1   2  253.27    5.79
   4  -1   2  250.58    5.92
   5  -1   2   46.00    1.29
   5  -1   2   46.77    1.38
  -6   1  -2   42.29    1.40
   6  -1   2   40.13    1.31
  -7   1  -2  144.66    3.81
   7  -1   2  141.04    3.73
   7  -1   2  142.80    3.61
  -8   1  -2   10.82    0.50
  -8   1  -2   11.69    0.77
   8  -1   2    9.90    0.70
  -9   1  -2   19.73    1.07
  -9   1  -2   19.65    0.75
   9  -1   2   19.46    1.02
 -10   1  -2   47.54    1.76
 -10   1  -2   45.06    1.42
  10  -1   2   45.60    1.78
 -11   1  -2    1.21    0.49
 -11   1  -2    0.62    0.29
  11  -1   2   -0.13    0.51
 -12   1  -2   28.79    1.47
  12   0  -2   20.83    1.86
 -12   0   2   19.48    1.18
  11   0  -2   10.74    1.02
 -11   0   2   11.07    0.69
 -11   0   2   12.54    0.86
  10   0  -2   10.33    0.86
 -10   0   2    9.48    0.63
 -10   0   2   11.08    0.71
   9   0  -2   10.45    0.79
  -9   0   2   11.10    0.58
  -9   0   2   11.96    0.67
   8   0  -2    6.54    0.58
  -8   0   2    6.34    0.46
  -8   0   2    6.34    0.41
   7   0  -2   31.46    1.16
   7   0  -2   32.55    0.97
  -7   0   2   31.66    0.97
  -7   0   2   33.13    1.06
   6   0  -2  111.80    2.96
   6   0  -2  114.24    2.81
   5   0  -2    1.42    0.20
   5   0  -2    1.33    0.20
  -5   0   2    1.21    0.17
  -5   0   2    1.41    0.15
   4   0  -2  187.90    4.93
   4   0  -2  219.39    5.04
  -4   0   2  214.33    4.96
  -4   0   2  217.43    4.91
   3   0  -2  295.55    6.99
   3   0  -2  297.01    6.96
  -3   0   2  299.35    6.91
  -3   0   2  304.72    6.94
   2   0  -2    0.29    0.06
  -2   0   2    0.21    0.05
   1   0  -2  289.87    6.82
   1   0  -2  301.69    6.82
   1   0  -2  300.48    6.86
  -1   0   2  295.90    6.84
   0   0  -2   93.13    2.22
   0   0  -2   98.55    2.25
   0   0  -2   93.31    2.22
   0   0   2   93.74    2.22
   0   0   2   94.86    2.22
  -1   0  -2  167.35    3.86
  -1   0  -2  163.63    3.86
  -1   0  -2  173.40    3.83
  -1   0  -2  164.66    3.86
  -1   0  -2  159.22    3.85
   1   0   2  166.36    3.86
   1   0   2  168.30    3.84
  -2   0  -2  476.45   10.95
  -3   0  -2   50.72    1.31
   3   0   2   47.63    1.26
   3   0   2   48.74    1.28
  -4   0  -2  169.75    4.18
   4   0   2  173.39    4.16
   4   0   2  174.08    4.13
  -5   0  -2  233.04    5.69
   5   0   2  236.13    5.61
   5   0   2  236.37    5.66
   6   0   2   34.82    1.17
   6   0   2   37.11    1.14
  -7   0  -2   95.02    2.69
   7   0   2   94.69    2.63
   7   0   2   98.25    2.56
  -8   0  -2  117.28    2.94
  -8   0  -2  119.89    3.25
   8   0   2  112.97    3.18
  -9   0  -2    0.64    0.34
  -9   0  -2    0.16    0.20
   9   0   2    0.54    0.34
 -10   0  -2   30.63    1.49
 -10   0  -2   32.00    1.10
  10   0   2   31.60    1.41
 -11   0  -2   30.46    1.25
 -11   0  -2   31.50    1.45
  11   0   2   29.04    1.46
 -12   0  -2    1.69    0.55
  12   0   2    1.64    0.62
 -12   1   2    8.86    0.93
  11  -1  -2   49.99    2.02
 -11   1   2   52.08    1.79
  10  -1  -2    2.32    0.59
 -10   1   2    2.40    0.43
 -10   1   2    2.08    0.32
   9  -1  -2   50.43    1.82
  -9   1   2   50.44    1.46
  -9   1   2   50.30    1.62
   8  -1  -2   61.48    1.95
  -8   1   2   61.77    1.82
  -8   1   2   61.48    1.67
   7  -1  -2    0.59    0.23
   7  -1  -2    0.69    0.17
  -7   1   2    0.25    0.17
  -7   1   2    1.24    0.24
   6  -1  -2  138.34    3.58
   6  -1  -2  139.02    3.40
  -6   1   2  136.38    3.49
  -6   1   2  142.59    3.36
   5  -1  -2   57.25    1.77
   5  -1  -2   60.29    1.56
  -5   1   2   60.89    1.63
  -5   1   2   60.75    1.51
   4  -1  -2   32.14    0.89
   3  -1  -2  284.94    6.69
   3  -1  -2  294.59    6.77
  -3   1   2  285.19    6.73
   2  -1  -2  104.03    2.45
   2  -1  -2  108.61    2.54
   2  -1  -2  106.75    2.50
  -2   1   2  101.84    2.46
  -2   1   2  104.43    2.52
   1  -1  -2   12.11    0.33
   1  -1  -2   12.09    0.36
   1  -1  -2   12.18    0.37
  -1   1   2   13.92    0.36
  -1   1   2   11.96    0.33
  -1   1   2   12.05    0.37
   0  -1  -2  113.53    2.62
   0  -1  -2  110.96    2.58
   0  -1  -2  113.89    2.61
   0   1   2  111.94    2.62
   0   1   2  116.60    2.61
   0   1   2  101.63    2.58
  -1  -1  -2  118.98    2.95
  -1  -1  -2  125.07    2.93
  -1  -1  -2  129.77    2.92
  -1  -1  -2  129.33    2.92
   1   1   2  125.81    2.95
   1   1   2  125.64    2.94
   1   1   2  125.46    2.93
  -2  -1  -2   34.04    0.92
  -2  -1  -2   36.62    0.88
  -2  -1  -2   36.34    0.93
   2   1   2   35.89    0.93
   2   1   2   36.58    0.94
  -3  -1  -2  113.31    2.65
  -3  -1  -2  113.90    2.66
  -3  -1  -2  119.24    2.78
   3   1   2  115.10    2.79
   3   1   2  114.03    2.78
  -4  -1  -2    1.52    0.19
   4   1   2    1.31    0.15
   4   1   2    1.28    0.14
  -5  -1  -2  100.61    2.55
   5   1   2   98.32    2.51
   5   1   2   97.98    2.55
   6   1   2  102.62    2.73
   6   1   2  104.16    2.68
  -7  -1  -2    6.09    0.55
   7   1   2    5.09    0.44
  -8  -1  -2  113.75    3.15
  -8  -1  -2  113.93    2.90
   8   1   2  114.93    3.14
  -9  -1  -2   53.62    1.82
   9   1   2   52.32    1.79
 -10  -1  -2    1.35    0.43
  10   1   2    0.41    0.40
 -11  -1  -2   34.19    1.51
  11   1   2   36.57    1.60
 -12  -1  -2   19.39    1.23
  12   1   2   17.67    1.29
  11  -2  -2   40.47    1.79
 -11   2   2   39.66    1.57
  10  -2  -2   38.62    1.62
 -10   2   2   35.25    1.43
   9  -2  -2   19.73    1.05
  -9   2   2   18.91    1.12
  -9   2   2   18.34    0.73
   8  -2  -2   84.39    2.50
  -8   2   2   80.44    2.13
  -8   2   2   84.13    2.37
   7  -2  -2   20.85    0.70
   7  -2  -2   18.58    0.87
  -7   2   2   19.68    0.68
  -7   2   2   19.71    0.81
   6  -2  -2   50.01    1.57
   6  -2  -2   51.55    1.39
  -6   2   2   52.43    1.33
  -6   2   2   50.62    1.51
   5  -2  -2  167.14    4.17
   5  -2  -2  167.57    3.99
  -5   2   2  166.63    4.10
  -5   2   2  164.81    3.92
   4  -2  -2   17.14    0.59
   4  -2  -2   20.71    0.72
  -4   2   2   21.33    0.56
  -4   2   2   20.70    0.68
   3  -2  -2   99.42    2.49
   3  -2  -2   95.73    2.39
  -3   2   2  100.76    2.33
  -3   2   2   99.96    2.46
   2  -2  -2  348.51    8.05
   2  -2  -2  348.83    8.00
  -2   2   2  342.02    8.04
   1  -2  -2   69.45    1.64
   1  -2  -2   71.95    1.73
  -1   2   2   73.12    1.74
  -1   2   2   68.25    1.64
   0  -2  -2  431.19   11.73
   0   2   2  414.40   11.54
  -1  -2  -2  481.61   11.03
  -2  -2  -2   39.12    1.02
   2   2   2   39.89    1.04
   2   2   2   40.53    1.05
   2   2   2   40.13    1.02
  -3  -2  -2  139.46    3.27
  -3  -2  -2  135.93    3.30
   3   2   2  140.38    3.26
   3   2   2  142.44    3.37
   3   2   2  138.18    3.34
  -4  -2  -2  187.11    4.52
  -4  -2  -2  188.53    4.43
   4   2   2  192.34    4.57
   4   2   2  190.22    4.41
   4   2   2  195.24    4.59
  -5  -2  -2   21.95    0.73
   5   2   2   21.32    0.75
   5   2   2   21.83    0.73
   5   2   2   20.91    0.54
  -6  -2  -2   53.99    1.54
   6   2   2   52.93    1.58
  -7  -2  -2   22.57    0.76
  -7  -2  -2   22.62    0.94
   7   2   2   22.06    0.90
  -8  -2  -2    7.18    0.60
  -8  -2  -2    7.69    0.43
   8   2   2    7.20    0.55
  -9  -2  -2   97.80    2.55
  -9  -2  -2   95.75    2.78
   9   2   2   95.15    2.81
 -10  -2  -2   14.99    1.03
 -10  -2  -2   14.08    0.91
  10   2   2   13.94    0.94
 -11  -2  -2    8.20    0.65
 -11  -2  -2    8.55    0.86
  11   2   2    8.69    0.92
 -12  -2  -2   41.59    1.49
 -12  -2  -2   43.72    1.72
  12   2   2   42.34    1.88
  11  -3  -2   20.64    1.37
 -11   3   2   21.18    1.14
  10  -3  -2   53.98    2.07
 -10   3   2   57.82    1.92
   9  -3  -2    4.26    0.72
  -9   3   2    2.81    0.44
   8  -3  -2   29.08    1.25
  -8   3   2   28.39    1.13
   7  -3  -2   28.54    1.00
   7  -3  -2   29.66    1.19
  -7   3   2   30.43    0.85
  -7   3   2   30.50    1.11
   6  -3  -2   -0.14    0.19
   6  -3  -2    0.13    0.14
  -6   3   2    0.21    0.17
   5  -3  -2   64.28    1.87
  -5   3   2   66.18    1.58
  -5   3   2   62.20    1.79
   4  -3  -2   89.26    2.17
  -4   3   2   87.62    2.07
  -4   3   2   84.51    2.27
   3  -3  -2    0.53    0.11
   3  -3  -2    0.24    0.10
  -3   3   2    0.46    0.09
  -3   3   2    0.50    0.07
   2  -3  -2  254.41    5.86
  -2   3   2  243.25    5.82
  -2   3   2  245.25    5.83
  -1   3   2  373.31    8.57
  -1   3   2  363.78    8.54
   0  -3  -2   12.57    0.33
   0   3   2   13.18    0.44
   0   3   2   12.54    0.40
  -1  -3  -2  806.59   18.42
   2   3   2  133.99    3.22
   2   3   2  136.07    3.29
   2   3   2  137.81    3.25
   2   3   2  136.86    3.24
  -3  -3  -2  116.36    2.76
   3   3   2  117.04    2.86
   3   3   2  113.78    2.82
   4   3   2  493.03   11.45
   4   3   2  494.97   11.60
   4   3   2  504.60   11.56
  -5  -3  -2   64.41    1.68
   5   3   2   62.74    1.57
   5   3   2   64.35    1.78
  -6  -3  -2  191.59    4.58
   6   3   2  186.24    4.68
   6   3   2  184.79    4.37
  -7  -3  -2  125.35    3.23
  -7  -3  -2  123.78    3.10
   7   3   2  123.88    3.31
  -8  -3  -2    6.73    0.41
  -8  -3  -2    6.91    0.57
   8   3   2    6.57    0.54
  -9  -3  -2   95.58    2.52
  -9  -3  -2   90.26    2.67
   9   3   2   95.55    2.78
 -10  -3  -2   78.14    2.43
 -10  -3  -2   81.23    2.30
  10   3   2   81.61    2.56
 -11  -3  -2    0.77    0.51
 -11  -3  -2    1.38    0.38
  11   3   2    1.28    0.54
 -12  -3  -2   36.40    1.37
  12   3   2   35.14    1.68
  10  -4  -2   33.55    1.62
 -10   4   2   34.03    1.43
   9  -4  -2   50.36    1.91
  -9   4   2   48.81    1.73
   8  -4  -2    0.65    0.38
  -8   4   2   -0.21    0.25
   7  -4  -2   60.68    1.97
   7  -4  -2   56.57    1.65
  -7   4   2   61.01    1.84
   6  -4  -2   72.19    1.92
   6  -4  -2   70.86    2.16
  -6   4   2   73.12    2.07
   5  -4  -2    1.98    0.33
   5  -4  -2    2.34    0.38
  -5   4   2    1.77    0.26
  -5   4   2    2.16    0.14
   4  -4  -2  106.47    2.87
   4  -4  -2  112.49    2.71
  -4   4   2  112.36    2.54
  -4   4   2  106.03    2.54
   3  -4  -2   21.74    0.87
  -3   4   2   21.61    0.77
  -3   4   2   24.09    0.74
   2  -4  -2   85.18    2.21
  -2   4   2   86.14    2.19
  -2   4   2   86.93    2.21
   1  -4  -2  226.41    5.45
  -1   4   2  233.51    5.49
  -1   4   2  231.85    5.44
   0  -4  -2   91.15    2.09
   0  -4  -2   86.07    2.21
   0   4   2   89.33    2.20
   0   4   2   92.80    2.28
  -1  -4  -2  143.83    3.37
  -1  -4  -2  142.33    3.45
   1   4   2  150.11    3.53
   1   4   2  143.59    3.44
  -2  -4  -2  364.72    8.50
   2   4   2  368.86    8.62
   2   4   2  375.67    8.66
  -3  -4  -2   30.15    0.82
   3   4   2   30.22    0.88
   3   4   2   30.48    0.93
   3   4   2   29.85    0.82
  -4  -4  -2   54.77    1.42
  -4  -4  -2   56.37    1.42
   4   4   2   54.52    1.55
  -5  -4  -2  259.74    6.01
  -5  -4  -2  257.44    6.02
   5   4   2  258.25    6.00
   5   4   2  245.19    6.35
  -6  -4  -2    1.74    0.22
  -6  -4  -2    1.75    0.25
   6   4   2    2.11    0.18
   6   4   2    1.61    0.30
  -7  -4  -2  196.58    4.74
  -7  -4  -2  191.93    4.68
   7   4   2  192.67    4.90
   7   4   2  190.21    4.54
  -8  -4  -2   74.92    2.02
  -8  -4  -2   71.26    2.10
   8   4   2   74.31    2.24
  -9  -4  -2    3.84    0.54
  -9  -4  -2    4.05    0.43
   9   4   2    3.59    0.57
 -10  -4  -2  113.49    3.27
 -10  -4  -2  122.61    3.17
  10   4   2  121.28    3.48
 -11  -4  -2   26.32    1.08
  11   4   2   26.37    1.40
 -12  -4  -2    8.87    0.72
  12   4   2    9.22    1.06
  10  -5  -2    1.43    0.68
 -10   5   2    1.69    0.56
   9  -5  -2   57.68    2.16
  -9   5   2   58.11    1.96
   8  -5  -2   28.49    1.38
  -8   5   2   28.57    1.22
   7  -5  -2   16.67    1.00
   7  -5  -2   16.50    0.71
   6  -5  -2  118.14    3.30
  -6   5   2  118.64    3.17
   5  -5  -2   41.06    1.19
   5  -5  -2   37.95    1.37
  -5   5   2   39.44    1.29
   4  -5  -2   52.31    1.62
  -4   5   2   51.41    1.53
   3  -5  -2  147.49    3.67
  -3   5   2  142.90    3.58
  -3   5   2  140.30    3.58
   2  -5  -2    7.91    0.46
  -2   5   2    7.08    0.40
   1  -5  -2   49.66    1.37
  -1   5   2   49.00    1.39
  -1   5   2   47.94    1.32
   0  -5  -2   93.91    2.38
   0  -5  -2   95.37    2.21
   0  -5  -2   93.11    2.23
   0   5   2   96.29    2.44
   0   5   2   94.88    2.35
  -1  -5  -2   31.12    0.79
  -1  -5  -2   30.64    0.90
   1   5   2   31.36    0.87
  -2  -5  -2  162.05    3.66
  -2  -5  -2  154.71    3.74
   2   5   2  144.86    3.70
   2   5   2  161.59    3.82
  -3  -5  -2  152.73    3.71
   3   5   2  156.04    3.83
   3   5   2  163.30    3.91
   3   5   2  155.37    3.73
  -4  -5  -2   19.87    0.60
  -4  -5  -2   19.51    0.62
   4   5   2   20.05    0.67
  -5  -5  -2   37.89    1.02
  -5  -5  -2   36.33    1.05
   5   5   2   35.18    1.21
  -6  -5  -2  146.62    3.50
  -6  -5  -2  141.12    3.50
   6   5   2  142.38    3.48
   6   5   2  139.02    3.70
  -7  -5  -2    1.65    0.24
  -7  -5  -2    1.58    0.28
   7   5   2    1.59    0.32
   7   5   2    2.31    0.22
  -8  -5  -2   29.31    1.01
  -8  -5  -2   28.69    1.08
   8   5   2   28.34    1.19
  -9  -5  -2   17.64    0.84
  -9  -5  -2   17.94    0.78
   9   5   2   17.09    0.99
 -10  -5  -2    5.18    0.53
  10   5   2    4.56    0.76
 -11  -5  -2   47.64    1.62
  11   5   2   49.59    1.96
 -12  -5  -2    6.48    0.68
  12   5   2    7.78    1.06
   9  -6  -2   13.27    1.13
  -9   6   2   12.55    0.91
   8  -6  -2   69.27    2.38
  -8   6   2   65.31    2.14
   7  -6  -2    6.95    0.79
  -7   6   2    5.81    0.61
   6  -6  -2   23.17    0.90
   6  -6  -2   24.94    1.16
  -6   6   2   24.19    1.02
   5  -6  -2   63.04    1.79
   5  -6  -2   67.49    2.07
  -5   6   2   63.73    1.92
   4  -6  -2    3.07    0.44
  -4   6   2    3.72    0.36
   3  -6  -2   58.21    1.72
  -3   6   2   55.62    1.62
  -3   6   2   54.87    1.63
   2  -6  -2   75.24    2.11
  -2   6   2   78.61    2.13
  -2   6   2   77.02    2.05
   1  -6  -2    1.06    0.23
  -1   6   2    1.16    0.23
  -1   6   2    1.04    0.18
   0  -6  -2   38.91    1.16
   0   6   2   38.29    1.08
   0   6   2   37.05    1.20
  -1  -6  -2   83.83    1.96
  -1  -6  -2   81.82    2.13
   1   6   2   81.96    2.07
   1   6   2   80.20    2.20
  -2  -6  -2    0.71    0.17
  -2  -6  -2    0.81    0.12
   2   6   2    0.85    0.11
   2   6   2    1.11    0.25
  -3  -6  -2  142.08    3.41
   3   6   2  143.04    3.43
   3   6   2  143.23    3.59
   4   6   2   27.32    1.03
   4   6   2   29.12    1.02
  -5  -6  -2    0.19    0.14
  -5  -6  -2    0.38    0.10
   5   6   2   -0.09    0.17
   5   6   2    0.37    0.31
  -6  -6  -2   92.61    2.30
  -6  -6  -2   89.95    2.35
   6   6   2   89.60    2.56
  -7  -6  -2   67.17    1.86
  -7  -6  -2   68.86    1.82
   7   6   2   65.45    2.07
  -8  -6  -2    6.75    0.50
   8   6   2    7.60    0.67
  -9  -6  -2   32.81    1.40
 -10  -6  -2   14.46    0.79
  10   6   2   15.77    1.10
 -11  -6  -2   14.08    0.82
  11   6   2   15.11    1.17
 -12  -6  -2   28.87    1.35
  12   6   2   30.29    1.63
   8  -7  -2   22.83    1.40
  -8   7   2   24.01    1.18
   7  -7  -2   42.36    1.78
  -7   7   2   43.93    1.60
   6  -7  -2    0.47    0.34
   6  -7  -2    0.13    0.42
  -6   7   2    0.79    0.35
   5  -7  -2   39.78    1.31
   5  -7  -2   41.68    1.56
  -5   7   2   40.01    1.39
   4  -7  -2   75.53    2.29
  -4   7   2   74.83    2.14
  -4   7   2   74.77    2.12
   3  -7  -2    0.96    0.30
  -3   7   2    1.24    0.27
   2  -7  -2   64.56    1.89
  -2   7   2   64.21    1.88
  -2   7   2   63.90    1.79
   1  -7  -2   28.76    1.02
  -1   7   2   28.63    1.03
  -1   7   2   28.56    0.93
   0  -7  -2   41.01    1.26
   0   7   2   39.98    1.31
   0   7   2   41.16    1.20
  -1  -7  -2   51.39    1.21
  -1  -7  -2   51.31    1.42
   1   7   2   49.22    1.48
   1   7   2   40.66    1.29
  -2  -7  -2   23.61    0.66
  -2  -7  -2   22.23    0.80
   2   7   2   22.43    0.72
   2   7   2   22.35    0.86
  -3  -7  -2   58.28    1.62
  -3  -7  -2   59.32    1.50
   3   7   2   57.80    1.52
   3   7   2   56.61    1.69
  -4  -7  -2  104.61    2.65
   4   7   2  105.36    2.81
   4   7   2  107.21    2.90
   4   7   2  109.31    2.62
  -5  -7  -2    0.62    0.17
   5   7   2    0.91    0.25
   5   7   2    0.69    0.24
  -6  -7  -2   21.80    0.78
  -6  -7  -2   22.22    0.72
   6   7   2   20.39    0.83
   6   7   2   21.05    0.95
  -7  -7  -2   97.19    2.53
   7   7   2   92.03    2.53
   7   7   2   96.37    2.77
  -8  -7  -2    0.40    0.25
   8   7   2    0.50    0.40
   8   7   2    0.56    0.35
  -9  -7  -2   55.62    1.72
   9   7   2   55.57    1.99
 -10  -7  -2   40.32    1.43
  10   7   2   42.05    1.75
 -11  -7  -2    0.02    0.36
  11   7   2   -0.03    0.57
   7  -8  -2   34.37    1.68
  -7   8   2   33.15    1.40
   6  -8  -2    8.33    0.77
   6  -8  -2   10.01    0.98
  -6   8   2   10.22    0.78
   5  -8  -2   10.40    0.91
   5  -8  -2   10.94    0.75
  -5   8   2   11.39    0.76
  -4   8   2   91.17    2.55
  -4   8   2   85.91    2.49
   3  -8  -2   40.68    1.49
  -3   8   2   42.04    1.43
   2  -8  -2   17.75    0.87
  -2   8   2   18.06    0.75
  -2   8   2   19.29    0.87
   1  -8  -2  169.05    4.29
  -1   8   2  165.85    4.30
  -1   8   2  167.68    4.15
   0  -8  -2   16.45    0.75
   0   8   2   17.37    0.79
   0   8   2   17.23    0.67
  -1  -8  -2   59.06    1.72
   1   8   2   58.36    1.78
  -2  -8  -2   73.38    1.82
  -2  -8  -2   72.48    2.02
   2   8   2   73.72    1.91
   2   8   2   70.60    2.09
  -3  -8  -2    1.51    0.21
  -3  -8  -2    1.55    0.26
   3   8   2    2.02    0.21
   3   8   2    1.59    0.29
  -4  -8  -2  169.00    4.00
  -4  -8  -2  161.70    4.12
   4   8   2  163.93    4.21
   4   8   2  164.37    3.95
  -5  -8  -2   67.95    1.85
   5   8   2   71.37    2.14
   5   8   2   68.69    2.02
  -6  -8  -2    5.09    0.40
   6   8   2    5.16    0.49
   6   8   2    5.41    0.57
  -7  -8  -2   75.41    2.08
   7   8   2   74.00    2.34
   7   8   2   73.38    2.13
  -8  -8  -2   42.14    1.90
   8   8   2   43.98    1.44
   8   8   2   46.52    1.72
  -9  -8  -2   10.29    0.72
   9   8   2   11.04    0.95
 -10  -8  -2   33.00    1.30
  10   8   2   35.18    1.60
 -11  -8  -2    7.09    0.72
  11   8   2    8.06    1.02
   6  -9  -2   37.84    1.73
  -6   9   2   38.67    1.50
   5  -9  -2    1.74    0.47
   5  -9  -2    0.53    0.52
  -5   9   2    0.61    0.37
   4  -9  -2   41.39    1.66
  -4   9   2   38.35    1.43
   3  -9  -2   42.54    1.61
   2  -9  -2    0.07    0.33
  -2   9   2    0.16    0.31
  -2   9   2    0.26    0.24
   1  -9  -2   52.63    1.73
  -1   9   2   52.62    1.57
  -1   9   2   52.14    1.72
   0  -9  -2  105.81    2.91
   0   9   2  103.16    2.95
   0   9   2  108.14    2.77
  -1  -9  -2    0.22    0.25
   1   9   2   -0.10    0.19
   1   9   2    0.09    0.29
  -2  -9  -2   55.50    1.69
   2   9   2   54.42    1.77
   2   9   2   55.80    1.56
  -3  -9  -2   70.49    2.04
  -3  -9  -2   70.26    1.87
   3   9   2   72.03    2.15
   3   9   2   71.56    1.88
  -4  -9  -2    0.73    0.28
  -4  -9  -2    0.67    0.21
  -5  -9  -2  109.63    2.96
  -5  -9  -2  111.68    2.84
   5   9   2  110.51    3.09
  -6  -9  -2   21.00    0.82
   6   9   2   20.08    0.96
  -7  -9  -2   10.79    0.66
   7   9   2   10.52    0.76
   7   9   2   11.42    0.86
  -8  -9  -2   74.68    2.18
   8   9   2   76.01    2.48
  -9  -9  -2   18.98    0.95
   9   9   2   20.10    1.22
 -10  -9  -2    6.02    0.71
  10   9   2    7.81    0.99
   5 -10  -2   25.88    1.46
  -5  10   2   26.16    1.21
   4 -10  -2    3.41    0.66
  -4  10   2    2.86    0.52
   3 -10  -2   43.16    1.72
  -3  10   2   41.76    1.58
   2 -10  -2   15.73    1.01
  -2  10   2   14.18    0.96
  -2  10   2   13.72    0.86
   1 -10  -2    1.44    0.44
  -1  10   2    1.47    0.32
  -1  10   2    1.33    0.41
   0 -10  -2   24.89    1.11
   0  10   2   24.73    1.11
   0  10   2   24.74    0.94
   1  10   2   12.67    0.87
   1  10   2   12.97    0.62
  -2 -10  -2    7.94    0.94
   3  10   2   13.71    1.19
  -4 -10  -2   16.13    0.85
   4  10   2   13.72    1.23
  -5 -10  -2    6.61    0.50
  -5 -10  -2    7.57    0.60
  -6 -10  -2   33.98    1.27
  -6 -10  -2   33.31    1.16
  -7 -10  -2    6.06    0.68
  -7 -10  -2    4.81    0.57
   7  10   2    5.36    0.71
  -8 -10  -2   12.30    0.80
   8  10   2   11.31    1.00
   8  10   2   13.66    0.89
  -9 -10  -2   41.75    1.51
   9  10   2   41.28    1.78
 -10 -10  -2    0.74    0.46
   3 -11  -2    6.45    0.97
  -3  11   2    5.04    0.80
   2 -11  -2   45.50    1.81
  -2  11   2   45.36    1.72
  -2  11   2   46.28    1.57
   1 -11  -2   10.83    0.93
  -1  11   2   12.62    0.99
  -1  11   2   12.59    0.90
   0 -11  -2    5.49    0.74
   0  11   2    3.98    0.59
  -1 -11  -2   48.27    1.71
   1  11   2   46.60    1.74
  -2 -11  -2    7.85    0.76
   2  11   2    8.63    0.80
  -3 -11  -2    6.49    0.70
   3  11   2    6.71    0.78
  -4 -11  -2   14.64    0.89
   4  11   2   13.54    0.97
  -5 -11  -2    2.28    0.45
   5  11   2    2.14    0.55
  -6 -11  -2   19.76    1.00
  -7 -11  -2   18.34    1.02
  -8 -11  -2    0.32    0.42
  -8 -11  -2    0.53    0.42
  -9 -11  -2   24.02    1.21
  -2  12   2   13.81    1.40
   1 -12  -2   27.57    1.41
  -1  12   2   28.17    1.36
   0 -12  -2   -0.57    0.49
   0  12   2   -0.09    0.44
  -1 -12  -2   29.84    1.38
   1  12   2   28.28    1.38
  -2 -12  -2   60.88    2.09
   2  12   2   61.32    2.16
  -3 -12  -2    0.83    0.45
   3  12   2   -0.07    0.47
  -4 -12  -2   30.25    1.34
   4  12   2   29.66    1.43
  -5 -12  -2   32.88    1.41
   5  12   2   34.14    1.53
  -6 -12  -2    0.79    0.45
   6  12   2    0.34    0.55
   4  12  -3   29.86    1.67
  -4 -12   3   27.02    1.34
   3  12  -3   13.52    1.15
  -3 -12   3   17.13    1.04
   2  12  -3    1.27    0.55
  -2 -12   3    2.66    0.54
   1  12  -3   33.89    1.64
  -1 -12   3   31.05    1.47
   0  12  -3   19.44    1.66
  -8 -11   3   19.84    1.55
   7  11  -3    4.58    0.74
  -7 -11   3    4.34    0.60
  -7 -11   3    5.39    0.86
   6  11  -3   38.32    1.73
  -6 -11   3   41.47    1.48
  -6 -11   3   37.31    1.48
   5  11  -3   22.39    1.32
  -5 -11   3   22.40    1.11
   4  11  -3   12.64    1.05
  -4 -11   3   12.57    0.88
   3  11  -3   44.55    1.82
  -3 -11   3   45.09    1.65
   2  11  -3   12.07    0.99
  -2 -11   3   13.92    0.92
   1  11  -3   18.87    1.14
  -1 -11   3   17.31    1.06
   0  11  -3   63.05    2.24
   0 -11   3   63.47    2.16
  -1  11  -3   20.81    1.23
   1 -11   3   20.31    1.22
  -2  11  -3   14.98    1.15
   2 -11   3   15.26    1.09
  -3  11  -3   39.29    1.68
  -9 -10   3    5.39    1.09
  -8 -10   3   48.60    1.78
  -8 -10   3   52.94    1.80
  -7 -10   3    4.44    0.66
  -7 -10   3    5.15    0.76
   6  10  -3   14.68    1.05
  -6 -10   3   13.70    0.86
  -6 -10   3   13.86    0.87
   5  10  -3   52.43    1.95
  -5 -10   3   51.27    1.70
  -5 -10   3   49.31    1.77
   4  10  -3    4.12    0.68
  -4 -10   3    5.02    0.56
  -4 -10   3    4.73    0.61
   3  10  -3   33.94    1.46
  -3 -10   3   32.06    1.12
  -3 -10   3   33.56    1.28
   2  10  -3   30.36    1.36
  -2 -10   3   30.85    1.24
   1  10  -3    0.40    0.39
  -1 -10   3    0.25    0.35
   0  10  -3   25.96    1.26
   0 -10   3   27.38    1.20
  -1  10  -3   33.23    1.47
   1 -10   3   35.57    1.45
  -2  10  -3    1.36    0.48
   2 -10   3    1.79    0.52
  -3  10  -3   41.59    1.63
   3 -10   3   38.47    1.65
  -4  10  -3   27.75    1.33
   4 -10   3   28.66    1.45
   9   9  -3   22.59    1.34
  -9  -9   3   19.14    1.06
   8   9  -3   11.81    0.98
   8   9  -3   10.71    1.00
  -8  -9   3   11.02    0.81
  -7  -9   3   65.49    2.03
  -6  -9   3    7.10    0.66
  -6  -9   3    7.12    0.62
   5   9  -3   11.55    1.38
  -5  -9   3   13.05    0.74
  -5  -9   3   12.74    0.74
   4   9  -3   45.22    1.80
  -4  -9   3   49.59    1.57
  -4  -9   3   46.67    1.48
   3   9  -3    0.48    0.35
  -3  -9   3    0.69    0.24
  -3  -9   3   -0.01    0.27
   2   9  -3   45.78    1.67
  -2  -9   3   45.04    1.33
  -2  -9   3   44.90    1.49
   1   9  -3   15.09    0.91
  -1  -9   3   16.57    0.63
  -1  -9   3   16.74    0.84
   0   9  -3   12.33    0.84
   0  -9   3   12.61    0.77
  -1   9  -3   33.02    1.37
  -2   9  -3    7.90    0.55
   2  -9   3    8.86    0.75
  -3   9  -3   16.00    0.83
  -3   9  -3   16.30    0.99
   3  -9   3   14.20    1.00
  -4   9  -3   39.15    1.50
  -4   9  -3   39.58    1.46
   4  -9   3   38.96    1.65
   5  -9   3    0.18    0.53
   6  -9   3    7.13    1.07
  10   8  -3   14.73    1.20
 -10  -8   3   16.53    0.96
   9   8  -3   12.93    1.04
  -9  -8   3   11.46    0.84
   8   8  -3   -0.07    0.46
   8   8  -3    1.32    0.72
  -8  -8   3    0.09    0.34
   7   8  -3   65.32    2.10
   7   8  -3   63.45    2.12
  -7  -8   3   61.49    1.92
   6   8  -3   41.22    1.56
  -6  -8   3   41.82    1.39
   5   8  -3   -0.02    0.33
  -5  -8   3    0.27    0.25
   4   8  -3   49.06    1.71
  -4  -8   3   52.16    1.55
  -4  -8   3   48.59    1.49
   3   8  -3   70.10    2.19
  -3  -8   3   71.48    2.00
  -3  -8   3   69.89    1.94
   2   8  -3    2.15    0.40
  -2  -8   3    2.27    0.38
  -2  -8   3    1.79    0.30
   1   8  -3   85.47    2.53
  -1  -8   3   86.34    2.37
  -1  -8   3   85.20    2.21
   0   8  -3   15.93    0.56
   0   8  -3   15.42    0.84
   0  -8   3   15.75    0.60
   0  -8   3   15.22    0.77
  -1   8  -3   50.50    1.68
  -1   8  -3   48.19    1.43
   1  -8   3   50.04    1.61
  -2   8  -3   73.05    2.13
  -2   8  -3   79.71    2.34
   2  -8   3   80.13    2.31
  -3   8  -3    6.69    0.59
  -3   8  -3    5.57    0.60
   3  -8   3    6.28    0.68
  -4   8  -3   55.90    1.82
  -4   8  -3   56.79    1.83
   4  -8   3   57.02    1.96
  -5   8  -3   37.01    1.38
   5  -8   3   38.30    1.60
   6  -8   3    1.50    0.59
  -7   8  -3   14.35    1.04
   7  -8   3   13.61    1.16
  11   7  -3   34.35    1.80
 -11  -7   3   34.97    2.12
  10   7  -3   17.54    1.22
 -10  -7   3   14.70    0.92
   9   7  -3   41.21    1.68
   9   7  -3   36.47    1.85
  -9  -7   3   40.90    1.46
   8   7  -3    8.62    0.75
   8   7  -3    8.27    0.76
  -8  -7   3    9.26    0.68
   7   7  -3   23.98    1.14
   7   7  -3   24.04    1.08
  -7  -7   3   22.39    0.96
   6   7  -3   97.11    2.77
   6   7  -3   96.02    2.79
  -6  -7   3   95.18    2.59
   5   7  -3    1.38    0.32
  -5  -7   3    1.67    0.28
   4   7  -3   43.14    1.49
  -4  -7   3   43.83    1.33
   3   7  -3  114.51    3.15
  -3  -7   3  117.34    2.97
  -3  -7   3  113.28    2.92
   2   7  -3   23.63    1.00
  -2  -7   3   25.22    0.89
  -2  -7   3   25.22    0.84
   1   7  -3   38.11    1.00
   1   7  -3   37.28    1.32
  -1  -7   3   38.00    1.20
  -1  -7   3   38.04    1.10
   0   7  -3  116.46    3.16
   0   7  -3  115.98    2.87
   0  -7   3  115.97    3.03
   0  -7   3  118.82    2.87
  -1   7  -3    5.03    0.47
  -1   7  -3    4.85    0.46
   1  -7   3    4.52    0.25
   1  -7   3    4.27    0.43
  -2   7  -3   54.25    1.57
  -2   7  -3   52.22    1.67
   2  -7   3   52.22    1.65
   2  -7   3   53.31    1.40
  -3   7  -3   91.20    2.55
  -3   7  -3   91.44    2.51
   3  -7   3   89.84    2.59
  -4   7  -3    2.97    0.64
  -4   7  -3    2.80    0.45
   4  -7   3    4.21    0.61
  -5   7  -3   93.69    2.59
   5  -7   3   92.22    2.95
  -6   7  -3   75.07    2.35
   6  -7   3   75.75    2.50
  -7   7  -3    0.85    0.46
   7  -7   3    0.69    0.52
  -8   7  -3   43.39    1.72
   8  -7   3   42.54    1.83
  11   6  -3   67.76    2.46
 -11  -6   3   66.14    2.14
  10   6  -3   28.12    1.43
 -10  -6   3   28.48    1.21
   9   6  -3   44.42    1.73
  -9  -6   3   43.89    1.51
   8   6  -3   80.14    2.49
   8   6  -3   78.35    2.33
   7   6  -3   21.10    1.02
   7   6  -3   21.62    0.98
  -7  -6   3   23.10    0.90
   6   6  -3   86.75    2.46
   6   6  -3   86.31    2.50
  -6  -6   3   84.42    2.32
   5   6  -3  144.99    3.84
   5   6  -3  146.60    3.84
  -5  -6   3  148.62    3.68
   4   6  -3    0.16    0.23
   4   6  -3    0.20    0.19
  -4  -6   3    0.11    0.17
   3   6  -3   96.69    2.69
  -3  -6   3   97.49    2.50
  -3  -6   3   98.78    2.51
   2   6  -3   71.55    2.15
  -2  -6   3   78.69    1.99
  -2  -6   3   76.28    2.00
   1   6  -3    1.24    0.24
   1   6  -3    0.77    0.13
  -1  -6   3    0.74    0.14
   0   6  -3   81.37    2.30
   0   6  -3   82.76    2.07
   0  -6   3   82.28    2.19
   0  -6   3   83.17    2.07
  -1   6  -3   64.27    1.77
  -1   6  -3   64.40    1.92
   1  -6   3   67.01    1.68
   1  -6   3   68.97    1.86
  -2   6  -3    0.62    0.23
  -2   6  -3    0.82    0.26
   2  -6   3    0.65    0.12
   2  -6   3    1.18    0.27
  -3   6  -3   50.39    1.60
  -3   6  -3   53.43    1.61
   3  -6   3   53.66    1.39
   3  -6   3   51.58    1.62
  -4   6  -3   57.90    1.78
  -4   6  -3   54.78    1.67
   4  -6   3   55.50    1.50
   4  -6   3   58.59    1.82
  -5   6  -3    9.71    0.58
   5  -6   3    8.01    0.69
  -6   6  -3   92.44    2.80
  -7   6  -3   35.64    1.50
   7  -6   3   34.44    1.55
  -8   6  -3   18.94    1.17
   8  -6   3   21.62    1.28
  -9   6  -3   55.77    2.05
   9  -6   3   56.78    2.17
  11   5  -3    7.21    1.03
 -11  -5   3    7.15    0.77
  10   5  -3   93.59    2.96
 -10  -5   3   93.72    2.69
   9   5  -3    6.72    0.77
  -9  -5   3    7.05    0.60
   8   5  -3   53.58    1.83
  -8  -5   3   54.06    1.66
   7   5  -3   70.80    2.19
   7   5  -3   70.33    2.08
  -7  -5   3   73.61    2.02
   6   5  -3    0.19    0.21
   6   5  -3    0.11    0.24
  -6  -5   3   -0.15    0.17
   5   5  -3  194.79    4.89
   5   5  -3  194.49    4.88
  -5  -5   3  194.50    4.73
   4   5  -3  128.54    3.44
   4   5  -3  132.34    3.44
  -4  -5   3  136.94    3.31
   3   5  -3    8.27    0.49
   3   5  -3    8.97    0.53
  -3  -5   3    8.25    0.46
   2   5  -3  193.18    4.78
  -2  -5   3  190.54    4.59
  -2  -5   3  191.40    4.61
   1   5  -3  132.93    3.14
   1   5  -3  130.74    3.41
  -1  -5   3  135.43    3.26
  -1  -5   3  132.62    3.22
   0   5  -3    2.43    0.33
   0   5  -3    1.90    0.22
   0  -5   3    2.51    0.23
   0  -5   3    2.24    0.18
  -1   5  -3  137.80    3.91
   1  -5   3  153.16    3.58
   1  -5   3  157.82    3.72
  -2   5  -3   23.84    1.03
  -2   5  -3   29.66    0.96
   2  -5   3   26.28    0.93
   2  -5   3   26.32    0.77
  -3   5  -3   42.75    1.46
  -3   5  -3   48.36    1.44
   3  -5   3   46.57    1.45
   3  -5   3   49.58    1.27
  -4   5  -3  109.87    2.86
  -4   5  -3  110.28    3.01
   4  -5   3  112.03    2.98
   4  -5   3  109.03    2.73
  -5   5  -3    1.50    0.28
   5  -5   3    1.93    0.36
   5  -5   3    1.62    0.27
  -6   5  -3   59.31    1.97
   6  -5   3   61.51    1.98
  -7   5  -3   42.95    1.75
   7  -5   3   43.29    2.10
  -8   5  -3    0.19    0.42
   8  -5   3    0.19    0.47
  -9   5  -3   48.22    1.86
   9  -5   3   43.56    1.86
  10  -5   3   19.44    2.33
  12   4  -3   18.78    1.99
  11   4  -3    2.07    0.62
 -11  -4   3    1.19    0.41
  10   4  -3   25.78    1.35
 -10  -4   3   25.78    1.10
   9   4  -3   75.04    2.51
   8   4  -3    3.68    0.45
   8   4  -3    3.56    0.52
  -8  -4   3    3.88    0.44
   7   4  -3   47.38    1.58
   7   4  -3   47.11    1.49
  -7  -4   3   48.33    1.43
   6   4  -3   32.71    1.14
   6   4  -3   31.21    1.16
  -6  -4   3   33.12    0.82
  -6  -4   3   32.59    1.05
   5   4  -3   18.21    0.79
   5   4  -3   19.28    0.79
  -5  -4   3   17.98    0.69
   4   4  -3  153.31    4.06
   4   4  -3  161.56    4.00
  -4  -4   3  157.74    3.84
   3   4  -3   15.17    0.65
   3   4  -3   15.22    0.60
  -3  -4   3   16.36    0.57
   2   4  -3  158.99    3.89
   2   4  -3  154.29    3.83
  -2  -4   3  153.86    3.74
   1   4  -3  320.71    7.30
   1   4  -3  306.47    7.51
  -1  -4   3  313.05    7.36
  -1  -4   3  323.94    7.37
   0   4  -3   47.15    1.42
   0   4  -3   51.90    1.33
   0  -4   3   50.27    1.33
   0  -4   3   50.23    1.29
  -1   4  -3  111.15    2.80
  -1   4  -3  107.97    2.74
   1  -4   3  106.51    2.64
   1  -4   3  111.88    2.72
  -2   4  -3  191.55    4.64
  -2   4  -3  188.26    4.61
   2  -4   3  185.27    4.48
   2  -4   3  192.82    4.59
  -3   4  -3    1.05    0.18
  -3   4  -3    0.79    0.39
   3  -4   3    1.18    0.16
   3  -4   3    1.49    0.31
  -4   4  -3   63.29    1.90
  -4   4  -3   64.45    1.70
   4  -4   3   62.79    1.65
   4  -4   3   60.70    1.82
  -5   4  -3   67.13    2.04
  -5   4  -3   64.89    1.75
   5  -4   3   68.50    1.99
   5  -4   3   65.58    1.77
  -6   4  -3    4.76    0.44
  -6   4  -3    4.42    0.60
   6  -4   3    4.35    0.53
   6  -4   3    4.80    0.48
  -7   4  -3   40.53    1.59
   7  -4   3   41.84    1.53
   7  -4   3   42.23    1.30
  -8   4  -3   46.42    1.77
   8  -4   3   46.94    1.74
  -9   4  -3    0.80    0.46
   9  -4   3    0.61    0.50
 -10   4  -3   48.43    1.92
  10  -4   3   49.46    2.00
  12   3  -3   42.69    1.96
 -12  -3   3   41.53    1.55
  11   3  -3   14.23    1.11
 -11  -3   3   14.68    0.86
  10   3  -3    0.63    0.42
 -10  -3   3    0.38    0.30
   9   3  -3   63.10    2.10
  -9  -3   3   61.41    1.84
   8   3  -3   42.01    1.52
   8   3  -3   40.15    1.36
  -8  -3   3   42.44    1.32
  -8  -3   3   43.91    1.19
   7   3  -3   16.99    0.77
   7   3  -3   16.71    0.79
  -7  -3   3   16.29    0.68
  -7  -3   3   16.74    0.54
   6   3  -3  100.65    2.76
   6   3  -3  103.66    2.70
  -6  -3   3  103.30    2.62
  -6  -3   3  101.65    2.46
   5   3  -3   49.10    1.48
   5   3  -3   48.72    1.44
  -5  -3   3   48.94    1.37
  -5  -3   3   48.81    1.21
   4   3  -3   51.66    1.49
   4   3  -3   52.08    1.48
   4   3  -3   50.76    1.26
  -4  -3   3   53.78    1.24
  -4  -3   3   50.32    1.45
   3   3  -3  178.36    4.33
   3   3  -3  171.29    4.27
  -3  -3   3  178.57    4.21
   2   3  -3    5.48    0.33
   2   3  -3    6.17    0.30
   2   3  -3    5.96    0.16
  -2  -3   3    5.49    0.28
   1   3  -3  213.37    5.05
   1   3  -3  219.35    5.27
   1   3  -3  228.21    5.07
  -1  -3   3  213.78    5.11
  -1  -3   3  220.56    5.14
   0   3  -3   51.43    1.45
   0   3  -3   52.59    1.35
   0  -3   3   52.52    1.35
   0  -3   3   55.90    1.36
  -1   3  -3   36.76    1.06
  -1   3  -3   37.64    1.04
   1  -3   3   35.33    0.96
   1  -3   3   35.02    0.99
  -2   3  -3  148.26    3.62
  -2   3  -3  149.54    3.58
   2  -3   3  146.24    3.50
   2  -3   3  142.71    3.56
  -3   3  -3   44.90    1.32
  -3   3  -3   41.70    1.18
   3  -3   3   40.16    1.14
   3  -3   3   43.54    1.24
  -4   3  -3    3.41    0.48
  -4   3  -3    3.37    0.23
   4  -3   3    2.67    0.21
   4  -3   3    3.29    0.37
  -5   3  -3   40.31    1.08
  -5   3  -3   39.73    1.39
   5  -3   3   39.57    1.14
   5  -3   3   38.32    1.28
  -6   3  -3   36.26    1.35
  -6   3  -3   34.78    0.96
   6  -3   3   34.84    1.24
   6  -3   3   34.02    1.11
  -7   3  -3    2.63    0.47
   7  -3   3    3.02    0.51
   7  -3   3    3.15    0.41
  -8   3  -3   29.92    1.38
   8  -3   3   29.79    1.09
   8  -3   3   30.38    1.28
  -9   3  -3   43.38    1.72
   9  -3   3   44.03    1.70
 -10   3  -3   13.33    1.06
  10  -3   3   13.42    1.07
 -11   3  -3   48.21    2.03
  11  -3   3   49.91    2.08
  12   2  -3   25.93    1.51
  11   2  -3   64.26    2.33
  10   2  -3    4.84    0.72
   9   2  -3   32.37    1.36
  -9  -2   3   32.13    1.06
   8   2  -3  145.53    3.88
  -8  -2   3  142.58    3.57
   7   2  -3   14.66    0.74
   7   2  -3   15.79    0.66
  -7  -2   3   15.38    0.63
  -7  -2   3   16.31    0.56
   6   2  -3   73.94    2.12
  -6  -2   3   75.56    1.98
  -6  -2   3   76.56    1.90
   5   2  -3  157.92    3.94
   5   2  -3  158.32    3.90
  -5  -2   3  155.19    3.72
  -5  -2   3  158.65    3.82
   4   2  -3    3.09    0.24
   4   2  -3    3.78    0.28
  -4  -2   3    2.58    0.21
  -4  -2   3    3.17    0.15
   3   2  -3  180.59    4.34
   3   2  -3  186.57    4.51
   3   2  -3  190.07    4.48
  -3  -2   3  187.69    4.42
  -3  -2   3  187.64    4.32
   2   2  -3  216.56    5.19
   2   2  -3  219.88    5.13
   2   2  -3  206.09    4.99
  -2  -2   3  225.21    5.10
  -2  -2   3  217.61    5.00
   1   2  -3    1.71    0.13
   1   2  -3    1.51    0.18
   1   2  -3    1.80    0.10
   1   2  -3    1.80    0.09
  -1  -2   3    1.32    0.13
   0   2  -3  186.67    4.29
   0   2  -3  163.01    4.16
   0  -2   3  185.99    4.19
  -1   2  -3  199.01    4.44
  -1   2  -3  189.01    4.47
   1  -2   3  180.26    4.39
   1  -2   3  181.69    4.39
  -2   2  -3    4.37    0.23
  -2   2  -3    4.49    0.28
   2  -2   3    4.22    0.24
   2  -2   3    4.81    0.21
  -3   2  -3  161.96    3.89
  -3   2  -3  166.92    4.03
   3  -2   3  164.16    3.96
   3  -2   3  161.20    3.90
  -4   2  -3   54.15    1.37
  -4   2  -3   54.74    1.62
   4  -2   3   53.85    1.51
   4  -2   3   52.56    1.43
  -5   2  -3    9.28    0.31
  -5   2  -3    7.96    0.62
   5  -2   3    7.76    0.50
   5  -2   3    9.36    0.40
  -6   2  -3  143.35    3.81
   6  -2   3  140.53    3.69
   6  -2   3  144.83    3.58
  -7   2  -3    2.02    0.40
   7  -2   3    1.75    0.31
   7  -2   3    1.35    0.26
  -8   2  -3   26.36    1.22
   8  -2   3   27.09    1.02
   8  -2   3   25.60    1.14
  -9   2  -3   22.42    0.83
  -9   2  -3   23.78    1.20
   9  -2   3   21.58    1.12
 -10   2  -3    2.57    0.57
 -10   2  -3    2.09    0.31
  10  -2   3    1.81    0.55
 -11   2  -3   34.50    1.62
  11  -2   3   36.07    1.67
  12   1  -3    8.84    1.32
  11   1  -3   41.98    1.78
  10   1  -3   48.32    1.82
 -10  -1   3   48.10    1.54
   9   1  -3    1.69    0.43
  -9  -1   3    1.38    0.28
  -9  -1   3    0.86    0.27
   8   1  -3  134.78    3.57
   8   1  -3  125.54    3.31
  -8  -1   3  131.53    3.30
  -8  -1   3  131.18    3.31
   7   1  -3  108.31    2.78
   7   1  -3  106.02    2.93
  -7  -1   3  107.92    2.74
  -7  -1   3  108.33    2.73
   6   1  -3   12.28    0.61
   6   1  -3   12.40    0.54
  -6  -1   3   12.58    0.48
  -6  -1   3   12.47    0.53
   5   1  -3  184.01    4.60
   5   1  -3  190.98    4.57
  -5  -1   3  185.52    4.46
  -5  -1   3  190.73    4.49
   4   1  -3   92.29    2.33
   4   1  -3   89.25    2.32
  -4  -1   3   91.74    2.25
  -4  -1   3   90.10    2.21
   3   1  -3   24.75    0.75
   3   1  -3   25.36    0.79
  -3  -1   3   24.48    0.67
  -3  -1   3   25.23    0.72
   2   1  -3  204.87    5.06
   2   1  -3  218.50    5.12
   2   1  -3  226.63    5.19
  -2  -1   3  222.43    5.11
  -2  -1   3  221.01    5.06
   1   1  -3   80.45    1.87
   1   1  -3   70.17    1.76
   1   1  -3   65.06    1.73
  -1  -1   3   71.35    1.78
  -1  -1   3   77.87    1.76
  -1  -1   3   72.60    1.74
   0   1  -3  206.19    4.63
   0   1  -3  207.61    4.73
   0  -1   3  194.82    4.59
   0  -1   3  190.06    4.62
   0  -1   3  199.94    4.65
  -1   1  -3  741.55   21.24
   1  -1   3  742.50   21.21
  -2   1  -3  237.58    5.52
  -2   1  -3  236.54    5.47
   2  -1   3  232.85    5.47
   2  -1   3  231.03    5.48
  -3   1  -3  342.50    7.99
  -3   1  -3  340.11    7.86
   3  -1   3  341.21    7.85
   3  -1   3  340.77    7.94
   3  -1   3  337.35    7.92
  -4   1  -3  338.83    8.00
  -4   1  -3  341.24    7.76
   4  -1   3  349.27    7.76
   4  -1   3  325.15    7.89
   4  -1   3  332.01    7.93
  -5   1  -3   15.48    0.75
   5  -1   3   14.33    0.65
   5  -1   3   14.14    0.54
  -6   1  -3  132.72    3.52
   6  -1   3  130.51    3.42
   6  -1   3  135.66    3.36
  -7   1  -3  121.65    3.33
   7  -1   3  120.85    3.13
   7  -1   3  119.38    3.22
  -8   1  -3   21.05    1.10
   8  -1   3   23.73    0.94
   8  -1   3   23.44    1.03
  -9   1  -3   41.19    1.63
  -9   1  -3   41.42    1.27
   9  -1   3   42.34    1.57
 -10   1  -3   21.95    0.90
 -10   1  -3   22.04    1.23
  10  -1   3   23.02    1.24
 -11   1  -3    5.13    0.55
 -11   1  -3    7.02    0.93
  11  -1   3    3.30    0.68
 -12   1  -3   39.77    2.27
  11   0  -3    0.56    0.54
 -11   0   3    0.31    0.39
 -11   0   3    0.08    0.33
  10   0  -3   53.66    1.95
 -10   0   3   51.78    1.61
 -10   0   3   52.57    1.77
   9   0  -3   30.72    1.32
  -9   0   3   30.29    1.11
  -9   0   3   29.66    1.04
   8   0  -3   11.05    0.72
   8   0  -3   10.59    0.54
  -8   0   3   10.06    0.52
  -8   0   3   11.95    0.59
   7   0  -3  131.34    3.50
   7   0  -3  133.83    3.33
  -7   0   3  133.17    3.27
  -7   0   3  130.03    3.33
   6   0  -3   36.58    1.11
   6   0  -3   35.78    1.21
  -6   0   3   36.67    1.11
  -6   0   3   37.32    1.07
   5   0  -3   58.84    1.65
  -5   0   3   58.07    1.55
  -5   0   3   59.40    1.53
   4   0  -3  322.13    7.82
   4   0  -3  328.99    7.81
  -4   0   3  344.32    7.74
  -4   0   3  336.09    7.76
   3   0  -3   76.97    1.96
   3   0  -3   75.66    1.93
  -3   0   3   76.50    1.89
  -3   0   3   78.59    1.89
   2   0  -3  194.66    4.55
   2   0  -3  189.69    4.49
  -2   0   3  196.46    4.48
  -2   0   3  186.45    4.47
   1   0  -3  426.09   13.63
  -1   0   3  435.25   13.74
   0   0  -3   68.28    1.68
   0   0   3   66.91    1.64
   0   0   3   68.50    1.65
   1   0   3  604.08   13.87
  -2   0  -3  264.88    5.70
  -2   0  -3  250.98    5.71
  -2   0  -3  243.39    5.74
   2   0   3  232.76    5.70
   2   0   3  241.76    5.67
   2   0   3  241.47    5.73
  -3   0  -3  139.41    3.30
  -3   0  -3  133.37    3.18
   3   0   3  132.57    3.14
   3   0   3  136.79    3.27
   3   0   3  136.87    3.26
  -4   0  -3  581.26   13.14
   4   0   3  553.95   13.07
   4   0   3  560.49   13.09
  -5   0  -3   85.80    2.28
   5   0   3   80.70    2.12
   5   0   3   78.43    2.14
  -6   0  -3    2.04    0.35
   6   0   3    1.73    0.26
   6   0   3    1.64    0.28
  -7   0  -3  169.90    4.40
   7   0   3  169.05    4.32
   7   0   3  169.77    4.25
  -8   0  -3   59.29    1.95
   8   0   3   58.70    1.76
   8   0   3   57.91    1.85
  -9   0  -3   21.01    0.81
  -9   0  -3   21.18    1.13
   9   0   3   22.97    1.09
 -10   0  -3   47.07    1.81
  10   0   3   48.40    1.80
 -11   0  -3   26.41    1.38
  11   0   3   25.69    1.37
 -12   0  -3   20.87    1.30
  12   0   3   21.79    1.36
 -12   1   3   24.29    1.29
  11  -1  -3   11.36    1.09
 -11   1   3   13.94    0.93
  10  -1  -3   19.12    1.16
 -10   1   3   18.32    0.95
 -10   1   3   17.83    0.83
   9  -1  -3   62.08    2.65
  -9   1   3   61.89    1.75
  -9   1   3   62.76    1.90
   8  -1  -3   18.15    0.91
  -8   1   3   18.09    0.79
  -8   1   3   18.27    0.70
   7  -1  -3   67.10    1.84
   7  -1  -3   63.43    1.96
  -7   1   3   67.48    1.76
  -7   1   3   66.66    1.87
   6  -1  -3  178.65    4.31
   6  -1  -3  172.59    4.43
  -6   1   3  180.38    4.23
  -6   1   3  174.75    4.33
  -5   1   3   17.18    0.86
  -5   1   3   19.12    0.58
   4  -1  -3  157.12    3.81
   4  -1  -3  155.64    3.76
  -4   1   3  153.75    3.75
   3  -1  -3  324.91    7.60
   3  -1  -3  320.39    7.58
  -3   1   3  329.99    7.57
   2  -1  -3    8.74    0.32
   2  -1  -3    8.76    0.33
  -2   1   3    8.81    0.32
   1  -1  -3  352.28    8.14
   0  -1  -3  200.40    4.63
   0   1   3  199.47    4.64
   0   1   3  196.06    4.60
  -1  -1  -3   50.11    1.24
  -1  -1  -3   50.12    1.20
   1   1   3   50.82    1.25
   1   1   3   50.28    1.27
   1   1   3   50.14    1.20
  -2  -1  -3   30.72    0.84
  -2  -1  -3   33.17    0.88
  -2  -1  -3   33.57    0.83
   2   1   3   33.59    0.89
   2   1   3   33.29    0.85
  -3  -1  -3   77.03    1.85
  -3  -1  -3   77.41    1.85
  -3  -1  -3   79.31    1.97
   3   1   3   78.27    1.97
   3   1   3   80.70    1.96
  -4  -1  -3   44.99    1.26
   4   1   3   45.39    1.25
   4   1   3   46.08    1.25
  -5  -1  -3  109.87    2.74
   5   1   3  106.69    2.72
   5   1   3  103.47    2.70
  -6  -1  -3   32.89    1.14
   6   1   3   32.05    1.05
   6   1   3   32.38    1.09
  -7  -1  -3    2.77    0.44
   7   1   3    2.50    0.38
   7   1   3    2.20    0.34
  -8  -1  -3  160.64    4.32
   8   1   3  167.80    4.30
  -9  -1  -3   16.15    0.98
   9   1   3   14.77    0.87
 -10  -1  -3   18.94    1.30
  10   1   3   18.66    1.09
 -11  -1  -3   33.97    1.59
  11   1   3   35.82    1.60
 -12  -1  -3    3.09    0.65
  12   1   3    1.78    0.66
  11  -2  -3   42.19    1.81
 -11   2   3   41.88    1.61
  10  -2  -3    8.56    0.93
 -10   2   3    8.96    0.76
   9  -2  -3   19.68    1.06
  -9   2   3   20.98    1.24
   8  -2  -3   71.42    2.21
  -8   2   3   71.88    2.08
  -8   2   3   69.01    1.87
   7  -2  -3    0.66    0.27
   7  -2  -3    0.47    0.43
  -7   2   3    0.57    0.21
  -7   2   3    0.58    0.22
   6  -2  -3  194.66    4.68
   6  -2  -3  190.28    4.84
  -6   2   3  192.57    4.75
  -6   2   3  194.48    4.58
   5  -2  -3  117.34    3.07
   5  -2  -3  118.03    2.94
  -5   2   3  122.00    2.86
  -5   2   3  116.51    3.00
   4  -2  -3    9.68    0.39
   4  -2  -3    9.05    0.44
  -4   2   3    9.87    0.42
  -4   2   3    9.79    0.34
   3  -2  -3  285.27    6.64
   3  -2  -3  278.85    6.58
  -3   2   3  283.64    6.50
  -3   2   3  278.27    6.61
   2  -2  -3  142.23    3.45
   2  -2  -3  150.71    3.55
   2  -2  -3  151.70    3.56
  -2   2   3  150.51    3.46
  -2   2   3  149.18    3.56
   1  -2  -3   12.59    0.40
   1  -2  -3   11.21    0.34
   1  -2  -3   12.32    0.39
  -1   2   3   12.47    0.34
   0  -2  -3   99.66    2.39
   0  -2  -3  100.15    2.39
   0  -2  -3  106.41    2.44
   0   2   3  101.81    2.39
   0   2   3  101.52    2.45
   0   2   3  101.04    2.38
  -1  -2  -3   27.05    0.69
  -1  -2  -3   24.99    0.69
   1   2   3   25.28    0.69
   1   2   3   26.17    0.70
   1   2   3   25.69    0.72
   2   2   3    0.54    0.09
   2   2   3    0.42    0.07
  -3  -2  -3   86.90    2.18
  -3  -2  -3   90.51    2.10
   3   2   3   87.66    2.21
   3   2   3   90.21    2.21
  -4  -2  -3  158.81    3.72
  -4  -2  -3  160.25    3.84
  -4  -2  -3  158.61    3.68
   4   2   3  159.13    3.86
   4   2   3  158.53    3.86
  -5  -2  -3   49.64    1.38
   5   2   3   49.20    1.41
   5   2   3   48.79    1.41
  -6  -2  -3   72.21    2.02
   6   2   3   72.08    2.01
   6   2   3   71.27    1.97
  -7  -2  -3   26.90    1.04
   7   2   3   28.78    1.05
   7   2   3   28.18    1.01
  -8  -2  -3   18.03    0.89
   8   2   3   17.37    0.84
  -9  -2  -3   75.65    2.34
  -9  -2  -3   76.61    2.08
   9   2   3   73.77    2.32
 -10  -2  -3    0.28    0.46
 -10  -2  -3    0.20    0.27
  10   2   3    0.33    0.38
 -11  -2  -3   13.15    0.75
 -11  -2  -3   12.64    1.03
  11   2   3   14.12    1.05
 -12  -2  -3   15.78    1.18
 -12  -2  -3   14.92    0.87
  12   2   3   12.92    1.19
  11  -3  -3   19.33    1.88
 -11   3   3   18.79    1.12
  10  -3  -3   50.11    1.92
 -10   3   3   47.28    1.72
   9  -3  -3    2.44    0.52
  -9   3   3    1.20    0.35
   8  -3  -3   15.07    0.92
  -8   3   3   16.02    0.81
   7  -3  -3   65.19    1.87
   7  -3  -3   67.63    2.07
  -7   3   3   67.12    1.96
  -7   3   3   67.49    1.72
   6  -3  -3    0.51    0.24
   6  -3  -3    0.63    0.27
  -6   3   3    0.25    0.17
  -6   3   3    0.97    0.16
   5  -3  -3   93.01    2.38
   5  -3  -3   91.53    2.52
  -5   3   3   96.79    2.26
  -5   3   3   90.71    2.45
   4  -3  -3   42.35    1.18
  -4   3   3   42.36    1.07
   3  -3  -3   16.97    0.55
   3  -3  -3   16.61    0.61
  -3   3   3   15.49    0.45
  -3   3   3   16.50    0.58
  -3   3   3   16.73    0.45
   2  -3  -3  366.90    8.30
   2  -3  -3  353.27    8.25
  -2   3   3  344.64    8.27
   1  -3  -3  155.32    3.70
   1  -3  -3  163.31    3.81
  -1   3   3  163.88    3.83
  -1   3   3  158.84    3.70
   0  -3  -3   75.84    1.81
   0  -3  -3   76.91    1.87
   0   3   3   77.10    1.91
   0   3   3   75.86    1.92
   0   3   3   78.54    1.83
   1   3   3  353.57    8.22
   1   3   3  355.09    8.23
   2   3   3    6.27    0.28
   2   3   3    6.83    0.27
   2   3   3    6.35    0.27
   2   3   3    6.06    0.26
   3   3   3  145.77    3.57
   3   3   3  150.56    3.60
  -4  -3  -3  143.86    3.39
   4   3   3  137.53    3.31
   4   3   3  138.42    3.43
   4   3   3  140.11    3.46
  -5  -3  -3   32.46    0.98
   5   3   3   33.57    1.04
   5   3   3   33.17    0.84
   5   3   3   30.42    1.12
  -6  -3  -3  242.56    5.72
  -6  -3  -3  230.21    5.49
  -6  -3  -3  235.27    5.44
   6   3   3  235.29    5.75
   6   3   3  240.34    5.80
  -7  -3  -3   17.61    0.79
   7   3   3   16.99    0.79
  -8  -3  -3    1.05    0.31
  -8  -3  -3    1.61    0.29
   8   3   3    1.14    0.31
  -9  -3  -3   61.56    1.76
  -9  -3  -3   59.86    1.96
   9   3   3   60.94    2.00
 -10  -3  -3   25.03    0.97
 -10  -3  -3   24.32    1.22
  10   3   3   24.15    1.21
 -11  -3  -3    3.12    0.53
 -11  -3  -3    4.52    0.79
  11   3   3    3.17    0.62
 -12  -3  -3   24.46    1.70
 -12  -3  -3   18.66    0.98
  12   3   3   19.99    1.31
  10  -4  -3   46.72    1.93
 -10   4   3   49.53    1.75
   9  -4  -3    7.19    0.91
  -9   4   3    7.29    0.71
   8  -4  -3   12.36    0.89
  -8   4   3   13.19    0.79
   7  -4  -3   31.27    1.28
   7  -4  -3   30.20    1.06
  -7   4   3   31.88    1.17
   6  -4  -3   37.82    1.35
  -6   4   3   37.36    1.26
   5  -4  -3   29.28    1.08
   5  -4  -3   27.26    0.93
  -5   4   3   29.47    0.74
  -5   4   3   27.64    0.98
   4  -4  -3  103.36    2.60
   4  -4  -3  103.38    2.74
  -4   4   3  101.72    2.67
  -4   4   3  103.18    2.40
   3  -4  -3   33.73    1.12
   3  -4  -3   36.06    1.03
  -3   4   3   35.61    1.07
   2  -4  -3  101.31    2.56
  -2   4   3  100.63    2.53
   1  -4  -3  317.45    7.50
  -1   4   3  325.54    7.55
  -1   4   3  319.23    7.50
   0  -4  -3    9.65    0.37
   0  -4  -3    9.90    0.27
   0   4   3    9.27    0.29
   1   4   3  538.10   12.47
   2   4   3  299.50    7.04
   2   4   3  302.36    7.11
   2   4   3  309.65    7.10
   2   4   3  298.16    7.06
   3   4   3   67.76    1.78
   3   4   3   67.15    1.70
   3   4   3   65.41    1.72
   3   4   3   66.68    1.72
  -4  -4  -3  171.94    4.09
   4   4   3  171.26    4.16
   4   4   3  173.28    4.21
   4   4   3  168.66    4.08
  -5  -4  -3   53.42    1.43
   5   4   3   51.88    1.36
   5   4   3   52.15    1.51
  -6  -4  -3  125.73    3.11
   6   4   3  122.89    3.24
   6   4   3  122.30    2.97
  -7  -4  -3  127.12    3.24
  -7  -4  -3  133.70    3.35
   7   4   3  126.55    3.06
   7   4   3  131.19    3.45
  -8  -4  -3    1.77    0.31
  -8  -4  -3    2.62    0.43
   8   4   3    1.10    0.33
  -9  -4  -3   36.86    1.21
  -9  -4  -3   35.83    1.36
   9   4   3   37.65    1.45
 -10  -4  -3   94.71    2.87
 -10  -4  -3   98.34    2.70
  10   4   3  102.53    3.02
 -11  -4  -3    6.74    1.03
 -11  -4  -3    5.84    0.58
  11   4   3    5.12    0.87
 -12  -4  -3   16.18    0.89
  12   4   3   16.25    1.25
   9  -5  -3   73.87    2.52
  -9   5   3   73.22    2.32
   8  -5  -3    1.88    0.54
  -8   5   3    1.07    0.35
   7  -5  -3   51.45    1.96
   7  -5  -3   46.95    1.47
  -7   5   3   47.30    1.62
   6  -5  -3   66.56    1.84
   6  -5  -3   64.32    2.07
  -6   5   3   65.49    1.96
   5  -5  -3    3.90    0.39
   5  -5  -3    4.18    0.47
  -5   5   3    3.75    0.40
   4  -5  -3  212.49    5.33
   4  -5  -3  216.53    5.17
  -4   5   3  215.08    5.26
   3  -5  -3   72.65    2.04
  -3   5   3   73.36    1.98
   2  -5  -3   33.49    1.19
  -2   5   3   34.48    1.04
  -2   5   3   33.83    1.06
   1  -5  -3  262.71    6.15
  -1   5   3  266.61    6.14
  -1   5   3  246.41    6.32
   0  -5  -3   84.34    1.97
   0  -5  -3   81.83    1.97
   0  -5  -3   84.31    2.15
   0   5   3   89.98    2.23
   0   5   3   82.65    2.14
  -1  -5  -3   22.44    0.70
  -1  -5  -3   23.29    0.60
   1   5   3   22.64    0.70
   1   5   3   22.60    0.76
  -2  -5  -3  269.26    6.52
   2   5   3  287.19    6.62
   2   5   3  278.99    6.54
   3   5   3   62.02    1.71
   3   5   3   63.22    1.67
   3   5   3   61.72    1.61
  -4  -5  -3   20.02    0.65
  -4  -5  -3   20.23    0.64
   4   5   3   20.85    0.68
   4   5   3   20.02    0.83
  -5  -5  -3  147.95    3.62
  -5  -5  -3  152.56    3.63
   5   5   3  147.10    3.80
   5   5   3  149.38    3.64
  -6  -5  -3   81.75    2.11
  -6  -5  -3   79.93    2.10
   6   5   3   80.07    2.28
   6   5   3   80.07    2.05
  -7  -5  -3   59.98    1.71
  -7  -5  -3   59.15    1.65
   7   5   3   58.96    1.54
   7   5   3   59.14    1.85
  -8  -5  -3   79.72    2.17
  -8  -5  -3   77.78    2.23
   8   5   3   81.58    2.41
  -9  -5  -3    3.56    0.55
  -9  -5  -3    4.06    0.45
   9   5   3    4.12    0.65
 -10  -5  -3   55.62    1.72
  10   5   3   54.20    1.99
 -11  -5  -3   53.44    1.72
  11   5   3   51.48    2.03
 -12  -5  -3    0.84    0.36
  12   5   3   -0.20    0.62
   9  -6  -3   47.63    1.95
  -9   6   3   44.40    1.68
   8  -6  -3   71.83    2.48
  -8   6   3   74.48    2.29
   7  -6  -3    4.21    0.73
  -7   6   3    3.18    0.57
   6  -6  -3   57.17    1.94
   6  -6  -3   54.77    1.66
   5  -6  -3   67.39    2.13
   5  -6  -3   66.55    1.90
  -5   6   3   70.77    2.02
   4  -6  -3   23.79    1.00
   4  -6  -3   24.82    0.88
  -4   6   3   25.50    0.94
   3  -6  -3  112.04    2.99
  -3   6   3  111.50    2.91
  -3   6   3  111.28    2.90
  -2   6   3    4.07    0.33
  -2   6   3    3.76    0.34
   1  -6  -3   96.79    2.58
  -1   6   3  101.23    2.63
  -1   6   3   99.37    2.54
   0  -6  -3  131.31    3.17
   0   6   3  133.41    3.24
   0   6   3  113.16    3.42
  -1  -6  -3   18.15    0.49
  -1  -6  -3   16.29    0.73
   1   6   3   17.41    0.71
   1   6   3   17.71    0.60
  -2  -6  -3   42.99    1.09
  -2  -6  -3   41.17    1.22
   2   6   3   43.15    1.19
   2   6   3   42.25    1.29
  -3  -6  -3  145.33    3.57
   3   6   3  155.18    3.76
   4   6   3    6.44    0.31
   4   6   3    6.38    0.42
   4   6   3    5.90    0.45
  -5  -6  -3   28.31    0.85
  -5  -6  -3   28.22    0.87
   5   6   3   27.71    1.03
  -6  -6  -3   96.51    2.49
  -6  -6  -3  101.90    2.49
   6   6   3   93.44    2.60
   6   6   3   96.50    2.70
  -7  -6  -3    1.34    0.27
  -7  -6  -3    1.11    0.23
   7   6   3    1.49    0.20
  -8  -6  -3   69.21    1.95
  -8  -6  -3   67.29    1.97
   8   6   3   70.36    2.20
  -9  -6  -3   36.27    1.27
  10   6   3    1.41    0.56
 -11  -6  -3   41.83    1.49
  11   6   3   43.39    1.82
 -12  -6  -3   13.80    1.13
  12   6   3   15.97    1.30
   8  -7  -3   60.18    2.22
  -8   7   3   55.74    1.96
   7  -7  -3   25.64    1.37
  -7   7   3   26.92    1.20
   6  -7  -3    4.22    0.64
   6  -7  -3    3.37    0.57
  -6   7   3    3.90    0.57
   5  -7  -3   50.06    1.59
   5  -7  -3   52.53    1.83
  -5   7   3   51.65    2.24
   4  -7  -3   67.14    2.11
   4  -7  -3   67.06    1.92
  -4   7   3   68.94    1.99
   3  -7  -3    5.57    0.54
  -3   7   3    4.94    0.43
   2  -7  -3   64.57    1.91
  -2   7   3   65.14    1.83
  -2   7   3   66.10    1.91
   1  -7  -3   24.09    0.92
  -1   7   3   24.29    0.85
  -1   7   3   24.80    0.93
   0  -7  -3   40.31    1.26
   0   7   3   41.63    1.22
   0   7   3   40.02    1.30
  -1  -7  -3   74.66    1.81
  -1  -7  -3   74.70    2.03
   1   7   3   76.82    2.12
   1   7   3   75.95    1.99
  -2  -7  -3    1.64    0.15
  -2  -7  -3    1.36    0.24
   2   7   3    1.27    0.19
   2   7   3    1.36    0.25
  -3  -7  -3  131.51    3.34
  -3  -7  -3  131.93    3.20
   3   7   3  134.02    3.42
   3   7   3  134.83    3.28
  -4  -7  -3   87.16    2.25
   4   7   3   90.83    2.26
   4   7   3   89.95    2.41
  -5  -7  -3    5.82    0.37
  -5  -7  -3    6.16    0.31
   5   7   3    6.48    0.50
   5   7   3    5.76    0.44
  -6  -7  -3   49.44    1.44
  -6  -7  -3   51.52    1.40
   6   7   3   49.23    1.49
  -7  -7  -3   23.00    0.85
   7   7   3   20.74    0.83
   7   7   3   23.51    1.05
  -8  -7  -3   18.53    0.82
   8   7   3   19.83    1.05
  -9  -7  -3   35.79    1.26
   9   7   3   34.71    1.51
 -10  -7  -3    3.33    0.46
  10   7   3    4.15    0.70
 -11  -7  -3   14.63    0.87
  11   7   3   17.46    1.26
   7  -8  -3   47.72    1.96
  -7   8   3   47.41    1.72
   6  -8  -3    5.97    0.70
   6  -8  -3    4.25    0.69
  -6   8   3    4.87    0.65
   5  -8  -3   12.14    0.94
  -5   8   3   11.07    0.74
   3  -8  -3    9.14    0.73
  -3   8   3   11.16    0.65
   2  -8  -3   59.68    1.85
  -2   8   3   58.05    1.82
  -2   8   3   60.14    1.74
   1  -8  -3  108.80    2.95
  -1   8   3  108.00    2.85
  -1   8   3  112.27    3.00
   0  -8  -3    0.31    0.22
   0   8   3    0.07    0.21
   0   8   3    0.04    0.16
  -1  -8  -3   98.85    2.65
   1   8   3   99.50    2.73
   1   8   3  100.49    2.58
  -2  -8  -3   51.15    1.30
  -2  -8  -3   49.76    1.51
   2   8   3   51.20    1.60
  -3  -8  -3    8.40    0.48
  -3  -8  -3    7.93    0.35
   3   8   3    7.68    0.53
  -4  -8  -3  113.68    2.98
  -4  -8  -3  116.44    2.86
   4   8   3  114.36    3.07
   4   8   3  116.02    2.87
  -5  -8  -3   22.31    0.78
  -5  -8  -3   22.43    0.73
   5   8   3   21.34    0.90
  -6  -8  -3   13.83    0.62
   6   8   3   13.95    0.82
   6   8   3   14.48    0.72
  -7  -8  -3   65.25    1.87
   7   8   3   65.94    2.13
   8   8   3   16.53    1.01
  -9  -8  -3   10.53    0.70
   9   8   3    8.61    0.93
 -10  -8  -3   23.14    1.06
  10   8   3   25.90    1.39
 -11  -8  -3    1.49    0.43
  11   8   3    1.20    0.62
   6  -9  -3   35.06    1.36
   6  -9  -3   33.77    1.62
  -6   9   3   34.53    1.41
   5  -9  -3    1.46    0.55
  -5   9   3    1.42    0.41
   4  -9  -3   44.50    1.76
  -4   9   3   44.82    1.55
   3  -9  -3   46.00    1.72
  -3   9   3   46.77    1.59
   2  -9  -3    7.39    0.70
  -2   9   3    7.06    0.62
  -2   9   3    8.57    0.58
   1  -9  -3   81.61    2.39
  -1   9   3   80.45    2.39
  -1   9   3   80.58    2.24
   0  -9  -3   21.59    0.96
   0   9   3   21.65    0.96
   0   9   3   21.09    0.84
  -1  -9  -3   48.67    1.57
   1   9   3   49.85    1.47
   1   9   3   49.36    1.63
  -2  -9  -3   99.83    2.73
   2   9   3  103.13    2.64
   2   9   3   99.52    2.83
  -3  -9  -3   10.24    0.60
   3   9   3    8.88    0.53
   3   9   3    9.00    0.64
  -4  -9  -3   38.97    1.31
  -4  -9  -3   40.81    1.17
  -5  -9  -3   77.78    2.22
  -5  -9  -3   77.41    2.08
   5   9   3   79.77    2.31
  -6  -9  -3    3.90    0.43
   6   9   3    5.17    0.59
  -7  -9  -3   28.02    1.05
   7   9   3   28.57    1.14
   7   9   3   28.06    1.27
  -8  -9  -3   53.49    1.69
   8   9   3   54.60    1.99
  -9  -9  -3    1.81    0.42
   9   9   3    1.59    0.56
 -10  -9  -3   16.57    0.93
  10   9   3   16.08    1.18
   5 -10  -3    6.39    1.03
  -5  10   3    6.39    0.78
   4 -10  -3   18.00    1.21
  -4  10   3   16.16    0.96
   3 -10  -3   51.34    1.92
  -3  10   3   51.04    1.77
   2 -10  -3   14.56    1.02
  -2  10   3   14.48    0.90
  -2  10   3   14.93    0.80
   1 -10  -3    9.74    0.82
  -1  10   3   10.39    0.75
  -1  10   3    9.62    0.68
   0 -10  -3   38.22    1.44
   0  10   3   39.60    1.31
   0  10   3   38.80    1.47
  -2 -10  -3   25.73    1.10
   2  10   3   22.93    1.30
   2  10   3   26.92    0.94
  -3 -10  -3   32.05    1.37
  -4 -10  -3    1.19    0.48
  -5 -10  -3   62.20    1.93
  -5 -10  -3   65.33    1.96
  -6 -10  -3   37.41    1.22
  -6 -10  -3   35.46    1.32
  -7 -10  -3    2.77    0.41
  -7 -10  -3    3.11    0.58
   7  10   3    3.59    0.62
  -8 -10  -3   50.63    1.65
  -9 -10  -3   12.85    0.87
   9  10   3   11.24    1.05
 -10 -10  -3    5.48    0.78
   4 -11  -3    1.23    0.55
   3 -11  -3   20.12    1.27
   2 -11  -3   33.13    1.52
  -2  11   3   35.60    1.35
  -2  11   3   33.67    1.41
   1 -11  -3    0.51    0.46
  -1  11   3    1.11    0.40
  -1  11   3    0.57    0.41
   0 -11  -3   27.07    1.27
   0  11   3   26.79    1.18
   0  11   3   26.97    1.24
  -1 -11  -3   46.75    1.70
   1  11   3   46.84    1.72
  -2 -11  -3    1.87    0.49
   2  11   3    2.75    0.53
  -3 -11  -3   29.89    1.29
   3  11   3   32.71    1.37
  -4 -11  -3   22.40    1.08
   4  11   3   23.67    1.18
  -5 -11  -3    6.88    0.69
   5  11   3    5.78    0.78
  -6 -11  -3   38.90    1.46
  -7 -11  -3    6.90    0.74
   7  11   3    7.96    0.88
  -8 -11  -3   16.72    0.92
  -8 -11  -3   15.41    0.96
  -9 -11  -3   40.06    1.51
   1 -12  -3   21.53    1.26
  -1  12   3   21.10    1.17
   0 -12  -3    3.97    0.65
   0  12   3    2.60    0.54
  -1 -12  -3   41.00    1.65
   1  12   3   41.93    1.67
  -2 -12  -3   17.46    1.06
   2  12   3   17.55    1.11
  -3 -12  -3    9.19    0.86
   3  12   3    9.83    0.89
  -4 -12  -3   47.76    1.77
   4  12   3   50.85    1.86
  -5 -12  -3    8.51    0.84
   5  12   3   10.93    0.97
  -6 -12  -3   16.58    1.01
   7  11  -4   23.81    1.58
  -7 -11   4   21.31    1.17
   6  11  -4   24.12    1.39
  -6 -11   4   23.74    1.12
  -6 -11   4   23.27    1.16
   5  11  -4    0.33    0.55
  -5 -11   4    0.30    0.42
   4  11  -4   39.94    1.76
  -4 -11   4   39.47    1.52
   3  11  -4   22.41    1.32
  -3 -11   4   23.01    1.14
   2  11  -4   -0.04    0.52
  -2 -11   4   -0.61    0.40
   1  11  -4   24.02    1.34
  -1 -11   4   22.93    1.20
   0  11  -4   41.97    1.77
   0 -11   4   41.26    1.66
  -1  11  -4    0.96    0.57
   1 -11   4    0.45    0.52
  -2  11  -4   33.43    1.53
   2 -11   4   29.51    1.47
  -3  11  -4   25.24    1.41
  -8 -10   4   42.97    1.57
  -8 -10   4   42.23    1.62
   7  10  -4    0.99    0.58
  -7 -10   4    0.27    0.40
  -7 -10   4   -0.69    0.42
   6  10  -4   21.53    1.24
  -6 -10   4   19.86    1.03
  -6 -10   4   20.56    1.03
   5  10  -4   32.24    1.52
  -5 -10   4   32.79    1.25
  -5 -10   4   32.93    1.30
   4  10  -4    1.91    0.55
  -4 -10   4    1.46    0.42
   3  10  -4   81.76    2.62
  -3 -10   4   78.53    2.35
  -3 -10   4   76.96    2.18
   2  10  -4   38.54    1.60
  -2 -10   4   37.57    1.43
   1  10  -4    5.50    0.79
  -1 -10   4    5.84    0.74
   0  10  -4   75.64    2.45
   0 -10   4   71.16    2.29
  -1  10  -4   33.65    1.50
   1 -10   4   34.37    1.45
  -2  10  -4   12.67    1.02
   2 -10   4   11.56    0.95
  -3  10  -4   55.83    1.99
   3 -10   4   53.24    2.02
  -4  10  -4    5.66    0.89
   4 -10   4    7.71    1.02
   9   9  -4    1.60    0.62
   9   9  -4    1.57    0.65
  -9  -9   4    1.55    0.46
   8   9  -4   49.38    1.92
  -8  -9   4   46.47    1.69
  -7  -9   4   65.31    2.05
   6   9  -4   -0.13    0.43
  -6  -9   4   -0.13    0.34
  -6  -9   4    0.53    0.33
   5   9  -4   43.57    1.70
  -5  -9   4   43.91    1.47
  -5  -9   4   40.63    1.80
   4   9  -4   56.12    1.97
  -4  -9   4   55.05    1.68
  -4  -9   4   55.39    2.24
   3   9  -4   10.78    0.87
  -3  -9   4   12.22    0.74
  -3  -9   4   10.13    0.61
   2   9  -4   85.76    3.11
  -2  -9   4   91.42    2.42
  -2  -9   4   96.03    2.59
  -1  -9   4   11.44    0.73
  -1  -9   4   12.18    0.55
   0   9  -4   38.94    2.23
   0  -9   4   38.37    1.82
  -1   9  -4   72.15    2.42
   1  -9   4   77.39    2.30
  -2   9  -4    6.01    0.75
   2  -9   4    8.64    0.79
  -3   9  -4   34.87    1.27
  -3   9  -4   34.71    1.44
   3  -9   4   33.65    1.48
  -4   9  -4   34.28    1.35
  -4   9  -4   33.03    1.41
   4  -9   4   34.52    1.55
   5  -9   4    0.27    0.57
   6  -9   4   26.98    1.97
  10   8  -4   18.48    1.29
 -10  -8   4   17.06    1.31
   9   8  -4   16.78    1.07
   9   8  -4   16.70    1.18
  -9  -8   4   16.69    0.97
   8   8  -4    2.15    0.54
  -8  -8   4    1.88    0.43
   7   8  -4   87.78    2.69
  -7  -8   4   84.58    2.48
   5   8  -4   30.38    1.31
  -5  -8   4   30.01    1.12
   4   8  -4   87.14    2.63
  -4  -8   4   87.52    2.40
   3   8  -4   10.46    0.75
  -3  -8   4   10.55    0.56
   2   8  -4   54.18    1.83
  -2  -8   4   53.45    1.53
   1   8  -4   60.53    1.97
  -1  -8   4   60.46    1.67
   0   8  -4    2.09    0.41
   0  -8   4    2.20    0.29
  -1   8  -4   56.67    1.61
  -1   8  -4   57.40    1.89
   1  -8   4   57.31    1.56
  -2   8  -4   48.99    1.69
   2  -8   4   48.41    1.63
  -3   8  -4    0.73    0.37
  -3   8  -4    0.63    0.34
  -4   8  -4   51.52    1.75
  -4   8  -4   53.67    1.78
   4  -8   4   53.11    1.90
   5  -8   4   26.24    1.35
   6  -8   4    1.31    0.58
  -7   8  -4   30.35    1.42
   7  -8   4   30.28    1.58
  10   7  -4   20.45    1.32
 -10  -7   4   17.98    1.02
   9   7  -4   26.96    1.35
   9   7  -4   23.17    1.72
  -9  -7   4   23.54    1.10
   8   7  -4    4.29    0.73
   8   7  -4    3.73    0.72
  -8  -7   4    3.32    0.55
   7   7  -4   22.87    1.11
   7   7  -4   21.69    1.09
  -7  -7   4   22.01    1.09
   6   7  -4   45.36    1.61
  -6  -7   4   45.10    1.47
   5   7  -4   -0.04    0.27
  -5  -7   4    0.45    0.26
   4   7  -4   26.82    1.13
  -4  -7   4   26.53    1.09
  -4  -7   4   26.41    0.96
   3   7  -4   34.64    1.31
  -3  -7   4   34.90    1.12
  -3  -7   4   34.61    1.12
   1   7  -4   74.54    2.27
  -1  -7   4   77.90    2.03
  -1  -7   4   78.48    2.12
   0   7  -4   56.27    1.79
   0   7  -4   55.22    1.50
   0  -7   4   58.26    1.54
   0  -7   4   56.34    1.66
  -1   7  -4   14.54    0.75
  -1   7  -4   13.13    0.65
   1  -7   4   13.93    0.98
   1  -7   4   13.61    0.56
  -2   7  -4   92.88    2.55
  -2   7  -4   94.25    2.67
   2  -7   4   97.31    2.43
  -3   7  -4   35.58    1.28
  -3   7  -4   36.59    1.31
  -4   7  -4   24.92    1.10
  -4   7  -4   26.81    1.06
   4  -7   4   24.76    1.17
  -5   7  -4   62.99    1.91
   5  -7   4   62.59    2.08
   6  -7   4   13.77    1.08
  -7   7  -4    9.79    0.94
   7  -7   4    9.44    1.05
   8  -7   4   28.25    1.50
  11   6  -4   45.66    1.92
 -11  -6   4   40.93    1.72
  10   6  -4    1.46    0.57
 -10  -6   4    0.72    0.40
   9   6  -4   53.08    1.83
   9   6  -4   59.46    2.06
  -9  -6   4   56.19    1.83
   8   6  -4   20.89    1.06
  -8  -6   4   20.38    0.94
   7   6  -4    2.02    0.41
   7   6  -4    0.79    0.38
  -7  -6   4    1.39    0.33
   6   6  -4   65.88    2.07
   6   6  -4   67.69    2.08
  -6  -6   4   67.03    1.93
   5   6  -4   66.70    2.02
   5   6  -4   69.85    2.22
  -5  -6   4   66.31    1.91
   4   6  -4    2.68    0.38
   4   6  -4    2.46    0.41
  -4  -6   4    3.21    0.36
   3   6  -4   44.30    1.50
  -3  -6   4   44.56    1.33
  -3  -6   4   45.42    1.30
   2   6  -4   73.50    2.16
  -2  -6   4   73.12    1.95
  -2  -6   4   74.43    1.96
   1   6  -4    0.08    0.22
  -1  -6   4    0.11    0.17
  -1  -6   4    0.24    0.16
   0   6  -4  103.16    2.83
   0   6  -4  103.02    2.58
   0  -6   4  104.07    2.67
   0  -6   4  102.92    2.60
  -1   6  -4   35.78    1.07
  -1   6  -4   31.42    1.17
   1  -6   4   32.89    1.09
   1  -6   4   33.39    1.01
  -2   6  -4   41.09    1.38
  -2   6  -4   43.69    1.42
   2  -6   4   44.84    1.22
   2  -6   4   42.66    1.36
  -3   6  -4  118.51    3.15
  -3   6  -4  117.10    3.12
   3  -6   4  116.09    3.17
  -4   6  -4    9.73    0.60
  -4   6  -4   11.66    0.74
   4  -6   4    9.93    0.57
  -5   6  -4   54.30    1.65
   5  -6   4   54.98    1.84
  -6   6  -4   38.97    1.86
   6  -6   4   44.12    1.69
  -7   6  -4    2.33    0.55
   7  -6   4    3.66    0.67
  -8   6  -4   38.49    1.65
   8  -6   4   38.68    1.70
  -9   6  -4   18.70    1.49
   9  -6   4   16.60    1.30
  11   5  -4   26.86    1.49
 -11  -5   4   26.06    1.21
  10   5  -4   37.44    1.65
 -10  -5   4   37.97    1.42
   9   5  -4    4.78    0.63
   9   5  -4    5.12    0.75
  -9  -5   4    3.89    0.57
   8   5  -4   60.43    1.93
   8   5  -4   62.05    2.05
  -8  -5   4   62.17    1.98
   7   5  -4   39.50    1.45
   7   5  -4   39.34    1.40
  -7  -5   4   41.40    1.33
   6   5  -4   20.25    0.89
   6   5  -4   20.39    0.90
  -6  -5   4   19.46    0.80
   5   5  -4  189.49    4.79
   5   5  -4  189.54    4.82
  -5  -5   4  190.01    4.66
   4   5  -4   64.10    1.88
   4   5  -4   64.05    1.93
  -4  -5   4   65.58    1.79
   3   5  -4   78.37    2.25
   3   5  -4   80.24    2.19
  -3  -5   4   78.83    2.09
   2   5  -4  271.93    6.51
  -2  -5   4  277.87    6.32
  -2  -5   4  247.11    6.57
   1   5  -4   47.84    1.54
   1   5  -4   51.80    1.30
  -1  -5   4   51.85    1.44
  -1  -5   4   50.39    1.47
   0   5  -4   49.00    1.52
   0   5  -4   49.45    1.36
   0  -5   4   49.38    1.33
  -1   5  -4  143.76    3.54
  -1   5  -4  116.34    3.37
   1  -5   4  143.83    3.32
   1  -5   4  141.78    3.41
  -2   5  -4    2.21    0.36
   2  -5   4    2.36    0.20
   2  -5   4    3.32    0.36
  -3   5  -4   76.85    2.26
  -3   5  -4   80.09    2.19
   3  -5   4   77.94    2.20
   3  -5   4   82.46    2.06
  -4   5  -4  108.33    2.99
  -4   5  -4  109.02    2.84
   4  -5   4  106.94    2.92
  -5   5  -4    5.90    0.50
   5  -5   4    6.33    0.51
  -6   5  -4   88.77    2.71
   6  -5   4   91.27    2.40
   6  -5   4   90.34    2.76
  -7   5  -4   43.76    1.69
   7  -5   4   43.05    1.66
  -8   5  -4    2.80    0.60
   8  -5   4    2.08    0.59
  -9   5  -4   69.71    2.43
   9  -5   4   69.22    2.43
  11   4  -4    1.02    0.58
 -11  -4   4    0.55    0.42
  10   4  -4   37.80    1.63
 -10  -4   4   37.59    1.40
   9   4  -4   19.50    1.66
  -9  -4   4   20.14    0.93
   8   4  -4   23.61    1.09
  -8  -4   4   25.00    0.98
   7   4  -4   94.45    2.69
   7   4  -4   93.36    2.63
  -7  -4   4   95.64    2.54
   6   4  -4    7.99    0.57
   6   4  -4    8.13    0.54
  -6  -4   4    8.16    0.48
   5   4  -4  118.23    3.14
   5   4  -4  117.37    3.16
  -5  -4   4  121.59    3.03
   4   4  -4  118.76    3.42
   4   4  -4  130.04    3.35
  -4  -4   4  132.47    3.20
   3   4  -4    1.97    0.22
   3   4  -4    2.27    0.38
  -3  -4   4    1.38    0.24
   2   4  -4  230.83    5.59
  -2  -4   4  256.45    5.79
   1   4  -4  171.71    4.00
   1   4  -4  165.56    4.22
  -1  -4   4  167.62    4.04
  -1  -4   4  172.34    4.06
   0   4  -4   12.83    0.58
   0   4  -4   12.18    0.49
   0  -4   4   14.37    0.49
   0  -4   4   13.71    0.47
  -1   4  -4  232.76    5.58
   1  -4   4  229.69    5.42
   1  -4   4  227.24    5.46
  -2   4  -4  136.26    3.40
  -2   4  -4  134.74    3.38
   2  -4   4  134.31    3.32
   2  -4   4  130.44    3.25
  -3   4  -4   18.14    0.86
  -3   4  -4   19.15    0.68
   3  -4   4   19.16    0.63
   3  -4   4   18.18    0.76
  -4   4  -4  188.05    4.81
  -4   4  -4  193.31    4.60
   4  -4   4  187.47    4.57
   4  -4   4  185.95    4.70
  -5   4  -4   64.16    1.71
  -5   4  -4   62.86    2.01
   5  -4   4   65.16    1.92
   5  -4   4   62.31    1.76
  -6   4  -4   79.54    2.49
   6  -4   4   82.37    2.19
  -7   4  -4   98.92    2.99
   7  -4   4   98.66    2.66
   7  -4   4  101.47    2.91
  -8   4  -4   25.08    1.31
   8  -4   4   26.71    1.27
  -9   4  -4   29.71    1.48
   9  -4   4   31.13    1.48
 -10   4  -4   66.94    2.41
  10  -4   4   69.70    2.45
 -12  -3   4   47.88    1.84
  11   3  -4    7.70    0.99
 -11  -3   4    7.08    0.74
  10   3  -4   31.59    1.46
 -10  -3   4   30.12    1.21
   9   3  -4   80.92    2.53
  -9  -3   4   79.89    2.80
   8   3  -4   -0.02    0.28
   8   3  -4    0.43    0.29
  -8  -3   4   -0.08    0.24
   7   3  -4   69.81    2.13
   7   3  -4   70.52    2.09
  -7  -3   4   73.79    1.82
  -7  -3   4   74.13    2.00
   6   3  -4   57.54    1.74
   6   3  -4   55.25    1.73
  -6  -3   4   59.17    1.45
  -6  -3   4   57.15    1.62
   5   3  -4   31.28    1.08
   5   3  -4   30.65    1.11
  -5  -3   4   32.22    0.82
  -5  -3   4   30.48    0.99
   4   3  -4  144.06    3.62
   4   3  -4  139.49    3.41
   4   3  -4  142.95    3.83
  -4  -3   4  148.56    3.38
  -4  -3   4  150.15    3.57
   3   3  -4   54.92    1.36
   3   3  -4   57.53    1.65
   3   3  -4   57.80    1.56
  -3  -3   4   57.77    1.53
  -3  -3   4   56.33    1.36
   2   3  -4    2.60    0.20
   2   3  -4    2.23    0.25
   2   3  -4    2.73    0.12
   2   3  -4    2.79    0.13
  -2  -3   4    2.38    0.20
   1   3  -4  155.12    3.62
   1   3  -4  150.81    3.84
  -1  -3   4  155.10    3.65
  -1  -3   4  156.44    3.70
   0   3  -4   71.98    1.77
   0   3  -4   70.40    1.91
   0  -3   4   70.02    1.78
   0  -3   4   70.21    1.76
  -1   3  -4   14.38    0.53
  -1   3  -4   13.93    0.55
   1  -3   4   14.28    0.47
   1  -3   4   14.14    0.48
  -2   3  -4  155.42    3.83
  -2   3  -4  158.88    3.82
   2  -3   4  153.01    3.73
   2  -3   4  154.97    3.77
  -3   3  -4   24.14    0.79
  -3   3  -4   26.18    0.92
   3  -3   4   24.30    0.77
   3  -3   4   25.27    0.83
  -4   3  -4   32.10    0.93
  -4   3  -4   30.27    1.14
   4  -3   4   30.60    0.94
   4  -3   4   29.88    1.04
  -5   3  -4  155.00    4.13
  -5   3  -4  161.41    3.80
   5  -3   4  158.80    3.90
   5  -3   4  155.19    4.00
  -6   3  -4    9.77    0.75
   6  -3   4    9.75    0.55
   6  -3   4   10.39    0.63
  -7   3  -4   66.39    2.20
   7  -3   4   66.47    1.91
  -8   3  -4   52.19    2.16
   8  -3   4   52.50    1.64
   8  -3   4   53.40    1.83
  -9   3  -4   13.73    1.09
   9  -3   4   13.15    0.99
 -10   3  -4   55.36    2.13
  10  -3   4   55.46    2.07
  11  -3   4   44.35    2.62
  11   2  -4   32.65    1.58
  10   2  -4    0.26    0.44
   9   2  -4   75.73    2.40
   8   2  -4   53.87    1.80
   8   2  -4   52.49    1.67
  -8  -2   4   55.35    1.51
   7   2  -4    1.03    0.27
   7   2  -4    0.37    0.32
  -7  -2   4    0.56    0.13
  -7  -2   4    0.77    0.23
   6   2  -4   70.29    2.02
   6   2  -4   68.36    2.00
  -6  -2   4   70.48    1.78
  -6  -2   4   71.24    1.90
   5   2  -4   80.84    2.60
   5   2  -4   87.13    2.33
  -5  -2   4   86.30    2.10
  -5  -2   4   88.70    2.23
   4   2  -4   42.09    1.32
   4   2  -4   44.62    1.28
  -4  -2   4   45.46    1.13
   3   2  -4  179.18    4.39
   3   2  -4  180.85    4.48
  -3  -2   4  184.16    4.26
  -3  -2   4  185.94    4.37
   2   2  -4   98.20    2.44
   2   2  -4  100.66    2.55
  -2  -2   4   98.82    2.44
  -2  -2   4   97.36    2.34
   1   2  -4   93.67    2.46
   1   2  -4   97.81    2.29
  -1  -2   4   96.80    2.36
   0   2  -4  426.19    9.87
   0  -2   4  417.77    9.75
  -1   2  -4   83.09    2.13
  -1   2  -4   84.30    2.07
   1  -2   4   82.92    2.02
   1  -2   4   81.29    2.04
  -2   2  -4   19.16    0.63
  -2   2  -4   18.95    0.64
   2  -2   4   17.54    0.57
   2  -2   4   17.90    0.58
  -3   2  -4   66.23    1.80
  -3   2  -4   65.60    1.69
   3  -2   4   64.46    1.72
   3  -2   4   65.25    1.70
  -4   2  -4    9.23    0.35
  -4   2  -4    8.96    0.60
   4  -2   4    8.31    0.42
   4  -2   4    8.36    0.38
  -5   2  -4    3.54    0.21
  -5   2  -4    3.75    0.51
   5  -2   4    3.65    0.36
   5  -2   4    4.31    0.43
  -6   2  -4   67.42    2.07
   6  -2   4   66.86    1.85
   6  -2   4   64.61    1.93
  -7   2  -4    0.89    0.40
   7  -2   4    0.71    0.24
  -8   2  -4   23.21    1.21
   8  -2   4   23.14    0.96
  -9   2  -4   27.96    1.37
   9  -2   4   25.99    1.12
   9  -2   4   27.20    1.25
 -10   2  -4    0.56    0.49
 -10   2  -4   -0.05    0.24
  10  -2   4    0.46    0.51
 -11   2  -4   43.50    1.91
  11  -2   4   45.76    1.92
  11   1  -4   27.94    1.48
  10   1  -4   14.81    1.06
 -10  -1   4   16.16    0.83
 -10  -1   4   17.43    0.91
   9   1  -4    0.61    0.38
  -9  -1   4    0.48    0.26
  -9  -1   4    0.74    0.24
   8   1  -4   51.76    1.74
   8   1  -4   50.82    1.60
  -8  -1   4   52.92    1.51
  -8  -1   4   52.60    1.54
   7   1  -4   25.69    1.01
   7   1  -4   25.60    1.01
  -7  -1   4   25.63    0.86
  -7  -1   4   25.82    0.89
   6   1  -4    0.85    0.23
  -6  -1   4    1.13    0.17
   5   1  -4  142.68    3.63
   5   1  -4  145.92    3.63
  -5  -1   4  143.46    3.47
  -5  -1   4  145.72    3.53
   4   1  -4   98.97    2.57
   4   1  -4   97.34    2.51
  -4  -1   4   99.11    2.41
  -4  -1   4  100.41    2.47
   3   1  -4   75.31    1.87
   3   1  -4   66.96    1.77
  -3  -1   4   67.41    1.75
  -3  -1   4   66.15    1.69
   2   1  -4  146.79    3.53
   2   1  -4  142.46    3.42
  -2  -1   4  140.82    3.43
  -2  -1   4  143.49    3.38
   1   1  -4   60.36    1.48
   1   1  -4   61.62    1.61
  -1  -1   4   60.24    1.49
  -1  -1   4   58.72    1.46
   0   1  -4  326.77    7.53
   0  -1   4  315.91    7.38
   0  -1   4  320.17    7.44
  -1   1  -4  354.79    8.07
  -1   1  -4  367.06    8.14
  -1   1  -4  336.77    7.98
   1  -1   4  349.43    8.00
   1  -1   4  331.65    8.05
  -2   1  -4    0.54    0.11
  -2   1  -4    0.38    0.10
   2  -1   4    0.43    0.09
  -3   1  -4  323.63    7.32
  -3   1  -4  316.89    7.41
   3  -1   4  304.72    7.34
   3  -1   4  311.37    7.36
  -4   1  -4  123.46    2.92
  -4   1  -4  121.21    3.13
   4  -1   4  125.64    3.05
   4  -1   4  119.93    3.03
  -5   1  -4    0.53    0.09
  -5   1  -4    0.15    0.23
   5  -1   4    0.26    0.20
   5  -1   4    0.56    0.18
  -6   1  -4   86.49    2.44
   6  -1   4   85.31    2.26
   6  -1   4   80.73    2.30
  -7   1  -4   27.58    1.16
   7  -1   4   26.60    0.97
   7  -1   4   26.30    1.03
  -8   1  -4   45.87    1.73
   8  -1   4   48.21    1.52
  -9   1  -4   19.47    1.80
   9  -1   4   19.83    0.96
   9  -1   4   20.14    1.06
 -10   1  -4    5.82    0.89
 -10   1  -4    5.98    0.52
  10  -1   4    5.44    0.86
 -11   1  -4   10.61    1.08
 -11   1  -4   12.16    0.71
  11  -1   4   11.59    1.10
  11   0  -4   16.87    1.20
  10   0  -4   53.53    2.00
   9   0  -4   20.32    1.06
  -9   0   4   18.74    0.83
  -9   0   4   19.55    0.84
   8   0  -4   47.72    1.65
   8   0  -4   47.36    1.53
  -8   0   4   49.24    1.43
  -8   0   4   49.41    1.47
   7   0  -4   90.85    2.59
   7   0  -4   94.18    2.53
  -7   0   4   93.56    2.40
  -7   0   4   91.73    2.42
   6   0  -4    0.14    0.20
   6   0  -4    0.53    0.22
  -6   0   4    0.66    0.21
   5   0  -4   28.69    0.95
   5   0  -4   26.67    0.92
  -5   0   4   28.80    0.85
  -5   0   4   27.29    0.84
   4   0  -4  124.91    3.12
   4   0  -4  123.45    3.08
  -4   0   4  121.56    3.01
  -4   0   4  126.54    3.02
   3   0  -4   13.83    0.49
   3   0  -4   14.82    0.56
  -3   0   4   13.61    0.46
  -3   0   4   15.50    0.49
   2   0  -4   83.63    2.08
   2   0  -4   86.76    2.19
  -2   0   4   83.64    2.09
  -2   0   4   88.52    2.10
   1   0  -4   40.71    1.13
  -1   0   4   40.53    0.99
  -1   0   4   41.06    1.06
  -1   0   4   41.14    1.06
   0   0  -4    8.23    0.35
   0   0   4    8.00    0.29
   0   0   4    7.94    0.30
  -1   0  -4  276.48    6.27
   1   0   4  258.67    6.22
  -2   0  -4  174.38    4.02
  -2   0  -4  167.79    3.96
  -2   0  -4  168.94    4.04
   2   0   4  167.14    4.03
   2   0   4  169.31    3.96
  -3   0  -4   88.35    2.10
  -3   0  -4   87.00    2.19
   3   0   4   83.10    2.16
  -4   0  -4  439.49    9.81
  -4   0  -4  434.37   10.01
   4   0   4  429.62    9.94
   4   0   4  416.54    9.95
   4   0   4  414.12    9.76
  -5   0  -4   24.84    0.94
   5   0   4   24.54    0.85
   5   0   4   24.77    0.82
  -6   0  -4   67.09    1.99
   6   0   4   66.39    1.91
   6   0   4   69.26    1.89
  -7   0  -4  200.78    5.10
   7   0   4  198.13    4.94
   7   0   4  198.10    4.98
  -8   0  -4    2.52    0.49
  -9   0  -4   82.50    2.70
   9   0   4   88.04    2.64
   9   0   4   88.58    2.51
 -10   0  -4   30.32    1.46
  10   0   4   32.02    1.41
 -11   0  -4    0.81    0.53
  11   0   4    0.19    0.52
 -12   0  -4   40.25    1.82
  12   0   4   40.82    1.89
  11  -1  -4   -0.70    0.53
 -11   1   4    0.23    0.42
  10  -1  -4   67.29    2.33
 -10   1   4   66.64    2.05
   9  -1  -4   47.40    2.16
  -9   1   4   46.09    1.43
  -9   1   4   47.77    1.55
   8  -1  -4    6.79    0.62
   8  -1  -4    6.87    0.58
  -8   1   4    7.26    0.53
  -8   1   4    7.15    0.47
   7  -1  -4  273.05    6.75
   7  -1  -4  280.69    6.86
  -7   1   4  280.73    6.71
  -7   1   4  280.42    6.61
   6  -1  -4   53.14    1.63
   6  -1  -4   54.10    1.62
  -6   1   4   53.65    1.53
  -6   1   4   55.38    1.48
   5  -1  -4   38.18    1.19
  -5   1   4   38.77    1.15
  -5   1   4   40.41    1.09
   4  -1  -4  160.70    3.97
   4  -1  -4  162.03    3.97
  -4   1   4  161.31    3.92
  -4   1   4  166.68    3.88
   3  -1  -4   80.27    2.07
   3  -1  -4   80.63    2.04
  -3   1   4   80.00    2.03
  -3   1   4   82.78    1.99
   2  -1  -4  216.26    5.09
   2  -1  -4  216.32    5.16
  -2   1   4  214.59    5.12
  -2   1   4  223.68    5.08
   1  -1  -4  128.23    3.08
   1  -1  -4  128.05    2.97
  -1   1   4  129.65    3.01
  -1   1   4  126.37    2.96
  -1   1   4  123.99    3.05
   0   1   4   12.33    0.42
   0   1   4   12.85    0.39
  -1  -1  -4  183.52    4.29
   1   1   4  182.61    4.29
   1   1   4  180.94    4.31
  -2  -1  -4  319.48    7.34
  -2  -1  -4  314.35    7.41
  -2  -1  -4  315.68    7.37
   2   1   4  323.36    7.35
   2   1   4  320.24    7.42
  -3  -1  -4   93.91    2.36
  -3  -1  -4   94.13    2.27
   3   1   4   93.08    2.36
   3   1   4   97.02    2.32
  -4  -1  -4  117.54    2.71
  -4  -1  -4  109.09    2.69
  -4  -1  -4  116.67    2.88
   4   1   4  115.26    2.84
   4   1   4  115.44    2.87
  -5  -1  -4  137.15    3.80
   5   1   4  151.90    3.67
   5   1   4  153.30    3.66
  -6  -1  -4    7.87    0.55
   6   1   4    7.30    0.45
   6   1   4    8.24    0.50
  -7  -1  -4   44.76    1.48
   7   1   4   42.86    1.41
   7   1   4   42.09    1.36
  -8  -1  -4  134.19    3.65
   8   1   4  131.86    3.51
  -9  -1  -4    0.55    0.40
 -10  -1  -4   60.70    2.19
  10   1   4   63.31    2.13
 -11  -1  -4   38.62    1.75
  11   1   4   41.71    1.74
 -12  -1  -4    6.76    1.03
  12   1   4    4.95    0.78
  11  -2  -4   23.96    1.43
 -11   2   4   26.37    1.21
  10  -2  -4   14.84    1.08
 -10   2   4   14.74    0.90
   9  -2  -4   41.48    1.62
  -9   2   4   41.55    1.44
   8  -2  -4   19.82    0.89
   8  -2  -4   20.74    0.99
  -8   2   4   20.65    0.89
  -8   2   4   20.82    0.76
   7  -2  -4   32.69    1.21
   7  -2  -4   31.12    1.13
  -7   2   4   32.76    1.01
  -7   2   4   33.14    1.12
   6  -2  -4  208.18    5.18
   6  -2  -4  210.26    5.28
  -6   2   4  212.05    5.19
  -6   2   4  218.86    5.05
   5  -2  -4    2.80    0.34
  -5   2   4    2.20    0.27
  -5   2   4    2.69    0.21
   4  -2  -4   68.94    1.86
   4  -2  -4   69.20    1.83
  -4   2   4   69.21    1.72
  -4   2   4   67.92    1.83
   3  -2  -4  326.56    7.56
   3  -2  -4  324.06    7.55
  -3   2   4  320.83    7.44
  -3   2   4  316.51    7.54
   2  -2  -4   35.02    1.00
   2  -2  -4   36.03    0.98
  -2   2   4   36.64    0.92
  -2   2   4   35.19    1.00
   1  -2  -4  226.41    5.15
   1  -2  -4  226.70    5.21
  -1   2   4  211.04    5.12
  -1   2   4  219.75    5.20
   0  -2  -4  101.86    2.73
   0  -2  -4  119.05    2.72
   0  -2  -4  123.23    2.81
   0   2   4  120.52    2.83
   0   2   4  117.37    2.76
  -1  -2  -4    2.34    0.16
  -1  -2  -4    2.22    0.12
  -1  -2  -4    2.85    0.12
   1   2   4    2.52    0.15
   1   2   4    2.62    0.17
  -2  -2  -4  197.33    4.55
   2   2   4  191.59    4.60
   2   2   4  194.65    4.55
   2   2   4  193.87    4.60
  -3  -2  -4  146.99    3.29
  -3  -2  -4  144.64    3.39
   3   2   4  144.17    3.40
   3   2   4  122.98    3.34
  -4  -2  -4    2.67    0.14
  -4  -2  -4    2.56    0.22
   4   2   4    2.06    0.19
   4   2   4    2.38    0.20
  -5  -2  -4  189.85    4.46
  -5  -2  -4  195.35    4.69
  -5  -2  -4  190.50    4.45
   5   2   4  195.48    4.69
   5   2   4  190.40    4.69
  -6  -2  -4  117.17    3.05
   6   2   4  117.68    3.04
   6   2   4  115.86    3.02
  -7  -2  -4    5.23    0.51
   7   2   4    4.91    0.43
   7   2   4    4.36    0.44
  -8  -2  -4   71.57    2.19
   8   2   4   69.61    2.10
   8   2   4   75.88    2.35
  -9  -2  -4   53.24    1.87
 -10  -2  -4   10.64    0.63
 -10  -2  -4    9.88    0.99
  10   2   4    9.64    0.85
 -11  -2  -4   36.05    1.71
 -11  -2  -4   37.96    1.32
  11   2   4   37.54    1.64
 -12  -2  -4    4.40    0.59
 -12  -2  -4    5.87    1.04
  12   2   4    5.77    0.82
  10  -3  -4   16.78    1.18
 -10   3   4   18.66    1.00
   9  -3  -4   12.93    0.98
  -9   3   4   11.85    0.82
   8  -3  -4   29.82    1.28
  -8   3   4   27.93    1.33
   7  -3  -4   54.33    1.74
   7  -3  -4   49.63    1.58
  -7   3   4   53.30    1.63
   6  -3  -4   36.93    1.27
   6  -3  -4   35.86    1.18
  -6   3   4   35.27    1.18
  -6   3   4   36.80    1.00
   5  -3  -4  122.10    3.16
   5  -3  -4  125.53    3.27
  -5   3   4  129.06    3.01
  -5   3   4  124.49    3.19
   4  -3  -4    5.27    0.38
  -4   3   4    4.26    0.32
  -4   3   4    4.38    0.21
   3  -3  -4   34.94    1.06
   3  -3  -4   36.79    1.05
  -3   3   4   35.24    1.07
  -3   3   4   36.16    0.91
   2  -3  -4  221.15    5.14
   2  -3  -4  222.70    5.14
  -2   3   4  206.85    4.99
  -2   3   4  214.79    5.15
   1  -3  -4    0.73    0.12
  -1   3   4    0.48    0.08
   0  -3  -4   78.15    1.92
   0  -3  -4   79.60    1.97
   0   3   4   77.33    1.98
   0   3   4   81.00    1.91
  -1  -3  -4   98.90    2.24
  -1  -3  -4   91.07    2.18
   1   3   4   78.89    2.20
   1   3   4   95.83    2.28
  -2  -3  -4    0.54    0.10
   2   3   4    0.69    0.11
   2   3   4    0.36    0.08
   2   3   4    0.63    0.10
  -3  -3  -4   66.73    1.58
   3   3   4   54.60    1.63
   3   3   4   67.77    1.66
   3   3   4   65.85    1.67
  -4  -3  -4   55.11    1.49
  -4  -3  -4   55.56    1.38
   4   3   4   56.29    1.52
   4   3   4   55.35    1.52
  -5  -3  -4   43.56    1.25
  -5  -3  -4   42.97    1.07
   5   3   4   43.09    1.28
   5   3   4   41.81    1.28
  -6  -3  -4  184.26    4.53
  -6  -3  -4  185.35    4.25
   6   3   4  180.60    4.55
   6   3   4  183.47    4.58
  -7  -3  -4   17.45    0.79
   7   3   4   18.52    0.82
   7   3   4   17.84    0.77
  -8  -3  -4   27.35    1.10
   8   3   4   28.11    1.26
   8   3   4   26.82    1.06
  -9  -3  -4   87.19    2.34
  -9  -3  -4   84.50    2.58
 -10  -3  -4    2.64    0.58
 -10  -3  -4    2.94    0.44
  10   3   4    3.01    0.53
 -11  -3  -4   17.59    0.87
 -11  -3  -4   17.25    1.21
  11   3   4   19.71    1.21
 -12  -3  -4   18.12    1.26
 -12  -3  -4   17.03    0.90
  12   3   4   18.18    1.27
  10  -4  -4   40.39    1.77
 -10   4   4   42.26    1.60
   9  -4  -4    3.06    0.62
  -9   4   4    2.54    0.47
   8  -4  -4   15.13    0.98
  -8   4   4   14.73    0.84
   7  -4  -4   31.72    1.29
  -7   4   4   32.93    1.20
   6  -4  -4   12.20    0.72
   6  -4  -4   12.07    0.63
  -6   4   4   12.51    0.65
   5  -4  -4  134.06    3.51
   5  -4  -4  133.16    3.36
  -5   4   4  133.15    3.42
   4  -4  -4   90.39    2.45
   4  -4  -4   92.87    2.36
  -4   4   4   90.41    2.14
  -4   4   4   89.07    2.40
   3  -4  -4    2.84    0.31
   3  -4  -4    3.10    0.28
  -3   4   4    3.11    0.14
  -3   4   4    2.71    0.12
  -3   4   4    3.01    0.28
   2  -4  -4   98.44    2.35
   2  -4  -4  105.46    2.58
  -2   4   4  100.47    2.36
   1  -4  -4  164.65    3.84
   1  -4  -4  165.69    3.85
   1  -4  -4  145.44    3.69
  -1   4   4  160.38    3.70
  -1   4   4  161.32    3.87
   0  -4  -4    3.09    0.20
   0   4   4    2.99    0.20
   0   4   4    2.97    0.15
  -1  -4  -4  130.32    3.16
   1   4   4  133.56    3.23
   1   4   4  133.09    3.15
   1   4   4  131.90    3.23
   2   4   4   44.53    1.21
   2   4   4   44.20    1.22
   2   4   4   44.57    1.19
   3   4   4   43.69    1.20
   3   4   4   43.28    1.22
   3   4   4   41.67    1.18
   3   4   4   43.79    1.17
  -4  -4  -4  108.53    2.64
   4   4   4  106.17    2.68
   4   4   4  100.79    2.57
   4   4   4  106.57    2.70
  -5  -4  -4   12.35    0.52
   5   4   4   12.35    0.75
   5   4   4   12.30    0.58
  -6  -4  -4   61.63    1.72
  -6  -4  -4   60.74    1.49
   6   4   4   59.44    1.74
   6   4   4   59.88    1.78
  -7  -4  -4   46.42    1.45
   7   4   4   45.86    1.46
   7   4   4   46.00    1.51
  -8  -4  -4    0.83    0.23
  -8  -4  -4    0.33    0.27
  -9  -4  -4   32.11    1.29
  -9  -4  -4   32.89    1.12
 -10  -4  -4   38.82    1.29
 -10  -4  -4   35.98    1.50
  10   4   4   36.30    1.55
 -11  -4  -4    0.69    0.30
 -11  -4  -4    2.02    0.56
  11   4   4    0.62    0.53
 -12  -4  -4   16.75    0.91
  12   4   4   18.67    1.27
   9  -5  -4   38.29    1.71
  -9   5   4   40.00    1.54
   8  -5  -4   18.55    1.13
  -8   5   4   15.58    0.91
   7  -5  -4   23.60    1.00
  -7   5   4   23.55    1.02
   6  -5  -4   11.55    0.66
   6  -5  -4   13.07    0.80
  -6   5   4   11.30    0.68
   5  -5  -4   26.16    1.04
   5  -5  -4   25.56    0.93
   4  -5  -4  137.76    3.59
   4  -5  -4  139.89    3.46
  -4   5   4  135.69    3.51
  -3   5   4    4.12    0.34
   2  -5  -4   61.65    1.65
  -2   5   4   59.01    1.66
   1  -5  -4  264.19    6.24
  -1   5   4  260.64    6.24
   0  -5  -4   54.42    1.34
   0  -5  -4   54.28    1.46
   0   5   4   55.37    1.34
   0   5   4   54.68    1.49
  -1  -5  -4   79.44    1.99
   1   5   4   76.46    2.17
   1   5   4   79.44    1.94
   1   5   4   79.86    2.03
  -2  -5  -4  188.72    4.54
   2   5   4  189.37    4.59
   2   5   4  189.88    4.54
   2   5   4  196.03    4.63
   3   5   4    1.29    0.16
   3   5   4    1.40    0.17
   3   5   4    1.34    0.17
   3   5   4    1.14    0.18
   4   5   4   96.88    2.52
   4   5   4   95.15    2.43
  -5  -5  -4   93.24    2.31
   5   5   4   87.66    2.42
   5   5   4   89.53    2.26
   5   5   4   87.03    2.37
   6   5   4    0.72    0.25
  -7  -5  -4   73.44    2.01
  -7  -5  -4   75.06    2.09
   7   5   4   76.30    2.21
  -8  -5  -4   56.97    1.64
  -8  -5  -4   55.62    1.74
  -9  -5  -4    0.71    0.36
 -10  -5  -4   45.71    1.72
 -10  -5  -4   48.60    1.56
  10   5   4   49.62    1.83
 -11  -5  -4   25.02    1.09
  11   5   4   26.86    1.41
 -12  -5  -4    0.42    0.34
  12   5   4    0.11    0.63
   9  -6  -4   63.54    2.34
  -9   6   4   64.68    2.76
   8  -6  -4   15.48    1.13
  -8   6   4   15.48    0.94
   7  -6  -4   50.40    1.88
   7  -6  -4   50.42    1.64
  -7   6   4   52.99    1.74
   6  -6  -4   42.66    1.42
   6  -6  -4   43.05    1.62
  -6   6   4   42.93    1.47
   5  -6  -4    6.40    0.55
   5  -6  -4    6.22    0.61
  -5   6   4    7.16    0.54
   4  -6  -4   71.45    1.97
   4  -6  -4   69.31    2.09
  -4   6   4   70.83    2.02
   3  -6  -4   60.69    1.73
   3  -6  -4   63.78    1.84
  -3   6   4   59.57    1.75
   2  -6  -4    9.12    0.53
  -2   6   4    8.72    0.47
   1  -6  -4  104.07    2.71
  -1   6   4  105.26    2.74
  -1   6   4  104.08    2.68
   0  -6  -4   79.56    2.07
   0  -6  -4   79.55    1.84
   0   6   4   76.22    2.13
   0   6   4   77.97    2.07
  -1  -6  -4    3.29    0.16
   1   6   4    2.85    0.30
   1   6   4    3.85    0.32
  -2  -6  -4  105.90    2.60
   2   6   4  108.80    2.81
   2   6   4  111.26    2.75
  -3  -6  -4   96.04    2.44
  -3  -6  -4   96.25    2.36
   3   6   4   97.87    2.46
   3   6   4   95.77    2.52
  -4  -6  -4    0.73    0.18
   4   6   4    0.54    0.14
   4   6   4    0.50    0.24
   4   6   4    0.66    0.24
  -5  -6  -4   81.05    2.08
   5   6   4   80.20    2.26
   5   6   4   80.62    2.14
  -6  -6  -4   45.30    1.32
  -6  -6  -4   45.89    1.36
   6   6   4   45.55    1.49
  -7  -6  -4   23.64    0.86
  -7  -6  -4   22.84    0.89
   7   6   4   24.17    0.77
   7   6   4   25.99    1.14
  -8  -6  -4  104.66    2.71
  -8  -6  -4   99.51    2.76
  -9  -6  -4   21.39    0.99
  -9  -6  -4   24.42    0.94
 -10  -6  -4   34.74    1.28
  10   6   4   35.40    1.57
 -11  -6  -4   63.15    1.99
  11   6   4   63.60    2.31
  12   6   4    2.67    0.75
   8  -7  -4   64.89    2.32
  -8   7   4   61.23    2.08
   7  -7  -4    2.90    0.62
  -7   7   4    2.06    0.44
   6  -7  -4   44.77    1.72
   6  -7  -4   43.60    1.51
  -6   7   4   43.51    1.55
   5  -7  -4   46.41    1.50
   5  -7  -4   46.39    1.70
  -5   7   4   45.67    1.54
   4  -7  -4    0.41    0.43
   4  -7  -4    0.57    0.32
  -4   7   4    0.12    0.23
   3  -7  -4  101.99    2.82
  -3   7   4  100.90    2.73
   2  -7  -4   48.78    1.52
  -2   7   4   47.58    1.50
   1  -7  -4    5.59    0.45
  -1   7   4    5.91    0.39
  -1   7   4    5.63    0.43
   0  -7  -4   79.55    2.15
   0   7   4   80.40    2.22
   0   7   4   78.69    2.13
  -1  -7  -4   26.95    0.91
  -1  -7  -4   27.52    0.71
   1   7   4   26.38    0.97
   1   7   4   26.92    0.90
  -2  -7  -4   13.58    0.57
  -2  -7  -4   13.18    0.43
   2   7   4   12.60    0.58
   2   7   4   13.52    0.64
  -3  -7  -4   85.31    2.10
  -3  -7  -4   84.20    2.22
   3   7   4   83.49    2.30
   3   7   4   85.22    2.23
  -4  -7  -4   22.33    0.73
   4   7   4   22.49    0.85
  -5  -7  -4   22.77    0.77
  -5  -7  -4   22.97    0.81
   5   7   4   22.69    0.85
   5   7   4   22.61    0.93
  -6  -7  -4   74.29    2.04
  -6  -7  -4   76.37    2.03
   6   7   4   76.37    2.24
  -7  -7  -4    1.53    0.27
  -7  -7  -4    1.82    0.30
   7   7   4    1.69    0.28
  -8  -7  -4   47.97    1.50
  -9  -7  -4   32.06    1.18
   9   7   4   32.10    1.43
 -10  -7  -4    1.21    0.36
  10   7   4    1.76    0.56
 -11  -7  -4   52.08    1.79
  11   7   4   57.23    2.16
   7  -8  -4   40.09    1.74
  -7   8   4   37.26    1.49
   6  -8  -4    1.57    0.51
   6  -8  -4    1.66    0.57
  -6   8   4    1.03    0.39
   5  -8  -4   27.80    1.35
  -5   8   4   28.18    1.18
  -4   8   4   23.05    1.00
   3  -8  -4    6.98    0.68
   3  -8  -4    7.75    0.71
  -3   8   4    6.55    0.55
   2  -8  -4   70.73    2.12
  -2   8   4   70.73    2.09
   1  -8  -4   14.61    0.73
  -1   8   4   14.82    0.75
  -1   8   4   14.91    0.68
   0  -8  -4   40.65    1.33
   0   8   4   40.70    1.38
   0   8   4   41.55    1.28
  -1  -8  -4  131.52    3.40
   1   8   4  131.93    3.36
   1   8   4  133.24    3.49
  -2  -8  -4   17.79    0.73
  -2  -8  -4   18.26    0.55
   2   8   4   18.38    0.81
   2   8   4   18.29    0.73
  -3  -8  -4   44.71    1.19
  -3  -8  -4   43.09    1.34
  -4  -8  -4   79.26    2.03
  -4  -8  -4   79.16    2.15
   4   8   4   78.07    2.10
   4   8   4   77.38    2.21
  -5  -8  -4    2.41    0.30
  -5  -8  -4    2.32    0.37
   5   8   4    2.81    0.41
  -6  -8  -4   39.06    1.22
  -6  -8  -4   39.76    1.23
   6   8   4   40.35    1.32
  -7  -8  -4   42.47    1.27
   7   8   4   34.72    1.25
  -8  -8  -4    1.61    0.33
   8   8   4    1.85    0.47
  -9  -8  -4   22.01    0.98
   9   8   4   22.51    1.26
 -10  -8  -4   19.37    0.96
  10   8   4   19.32    1.25
 -11  -8  -4    0.59    0.35
  11   8   4    0.70    0.59
   6  -9  -4   17.02    1.22
  -6   9   4   16.38    1.00
   5  -9  -4   14.71    1.14
  -5   9   4   15.25    0.92
   4  -9  -4   52.28    1.94
  -4   9   4   50.89    1.72
   3  -9  -4    9.58    0.76
   3  -9  -4    9.25    0.85
  -3   9   4    8.62    1.01
   2  -9  -4   24.54    1.12
  -2   9   4   22.53    1.10
   1  -9  -4   34.85    1.31
  -1   9   4   36.62    1.33
  -1   9   4   35.01    1.23
   0  -9  -4    0.99    0.32
   0   9   4    0.76    0.25
   0   9   4    0.56    0.29
  -1  -9  -4   58.03    1.77
   1   9   4   59.28    1.85
   1   9   4   58.28    1.71
  -2  -9  -4   41.73    1.36
   2   9   4   41.26    1.43
   2   9   4   40.13    1.29
  -3  -9  -4    2.39    0.39
   3   9   4    2.31    0.39
   3   9   4    2.12    0.38
  -4  -9  -4   51.89    1.59
  -4  -9  -4   52.45    1.43
   4   9   4   51.16    1.51
  -5  -9  -4   40.51    1.33
  -5  -9  -4   39.12    1.20
   5   9   4   38.97    1.38
  -6  -9  -4    2.39    0.33
   6   9   4    3.07    0.53
  -7  -9  -4   30.18    1.08
   7   9   4   29.52    1.15
   7   9   4   28.97    1.29
  -8  -9  -4   29.36    1.14
   8   9   4   31.70    1.44
  -9  -9  -4    0.59    0.33
   9   9   4    0.49    0.50
 -10  -9  -4   22.03    1.03
  10   9   4   21.29    1.33
   5 -10  -4    6.29    1.04
  -5  10   4    4.50    0.74
   4 -10  -4   29.60    1.38
   4 -10  -4   31.28    1.54
  -4  10   4   31.99    1.32
   3 -10  -4   59.69    1.92
   3 -10  -4   57.57    2.09
   2 -10  -4    0.99    0.53
  -2  10   4    0.62    0.36
   1 -10  -4   42.78    1.62
  -1  10   4   45.20    1.60
  -1  10   4   44.98    1.68
   0 -10  -4   33.59    1.35
   0  10   4   35.57    1.23
   0  10   4   33.68    1.34
  -1 -10  -4    1.32    0.57
   1  10   4    0.88    0.32
   1  10   4    1.43    0.38
  -2 -10  -4   31.77    1.25
   2  10   4   32.90    1.29
  -3 -10  -4    9.78    0.73
   3  10   4    8.81    0.78
   3  10   4    9.07    0.65
  -4 -10  -4    9.96    1.08
   4  10   4    9.46    1.14
  -5 -10  -4   28.71    1.12
  -6 -10  -4    9.57    0.70
  -6 -10  -4    9.63    0.58
   6  10   4    9.47    1.05
  -7 -10  -4    2.36    0.39
  -7 -10  -4    2.11    0.44
   7  10   4    1.87    0.49
  -8 -10  -4   34.79    1.29
  -9 -10  -4    3.99    0.54
   9  10   4    5.42    0.90
 -10 -10  -4    4.47    0.71
   4 -11  -4   -0.30    1.06
  -4  11   4   -0.27    0.60
   3 -11  -4   26.37    1.25
   3 -11  -4   25.52    1.40
   2 -11  -4   23.46    1.31
   1 -11  -4    2.65    0.58
  -1  11   4    3.72    0.66
  -1  11   4    2.82    0.53
   0 -11  -4   41.30    1.60
   0  11   4   40.13    1.40
   0  11   4   38.69    1.53
  -1 -11  -4   19.41    1.06
   1  11   4   18.30    1.04
  -2 -11  -4   11.83    0.86
   2  11   4   11.60    0.86
  -3 -11  -4   60.84    2.00
   3  11   4   63.60    2.09
  -4 -11  -4    8.82    0.76
   4  11   4    8.18    0.79
  -5 -11  -4   30.63    1.27
  -6 -11  -4   28.74    1.22
  -7 -11  -4   -0.04    0.37
   7  11   4    1.15    0.47
  -8 -11  -4   24.42    1.16
  -9 -11  -4   18.22    1.04
   1 -12  -4    2.88    0.65
  -1  12   4    3.25    0.69
   0 -12  -4   11.69    1.01
   0  12   4   11.13    0.89
  -1 -12  -4   18.72    1.13
   1  12   4   16.83    1.06
   2  12   4   -0.31    0.44
  -3 -12  -4   25.71    1.25
   3  12   4   28.71    1.36
  -4 -12  -4   30.07    1.33
   4  12   4   30.88    1.41
  -5 -12  -4    3.11    0.57
   5  12   4    4.52    0.80
  -6 -12  -4   50.51    1.81
  -7 -12  -4   18.39    1.68
  -6 -11   5    5.92    0.99
  -6 -11   5    7.99    0.88
   5  11  -5    5.08    0.77
  -5 -11   5    4.42    0.71
  -5 -11   5    3.81    0.74
   4  11  -5   36.56    1.71
  -4 -11   5   36.06    1.45
   3  11  -5   10.04    1.04
  -3 -11   5    9.38    0.90
   2  11  -5    4.10    0.70
  -2 -11   5    3.80    0.63
   1  11  -5   22.11    1.34
  -1 -11   5   23.20    1.22
   0  11  -5    8.14    1.01
   0 -11   5    9.28    0.94
  -1  11  -5    5.39    0.97
   1 -11   5    4.54    0.87
  -2  11  -5   30.75    1.61
   7  10  -5    8.03    1.04
  -7 -10   5    7.25    0.77
  -7 -10   5    7.86    0.85
   6  10  -5   22.54    1.38
  -6 -10   5   23.98    1.12
  -6 -10   5   23.19    1.10
   5  10  -5    3.01    0.66
  -5 -10   5    4.72    0.67
  -5 -10   5    3.59    0.54
   4  10  -5   22.17    1.29
  -4 -10   5   20.68    1.04
  -4 -10   5   19.99    0.95
   3  10  -5   34.84    1.59
  -3 -10   5   33.67    1.29
  -3 -10   5   35.42    1.37
   2  10  -5    3.04    0.61
  -2 -10   5    3.71    0.68
   1  10  -5   16.34    1.12
  -1 -10   5   15.30    0.97
   0  10  -5   31.67    1.48
   0 -10   5   29.60    1.35
  -1  10  -5    7.57    0.95
   1 -10   5    6.87    0.85
  -2  10  -5   15.92    1.13
   2 -10   5   12.66    1.03
  -3  10  -5   25.78    1.38
   3 -10   5   25.34    1.37
   4 -10   5    0.52    0.66
   9   9  -5    4.59    0.86
  -8  -9   5   61.70    2.03
   7   9  -5   13.63    1.17
  -7  -9   5   14.35    0.87
  -7  -9   5   13.87    0.91
   6   9  -5   23.77    1.30
  -6  -9   5   23.20    1.10
   5   9  -5   73.62    2.46
  -5  -9   5   69.92    2.13
   4   9  -5    9.36    0.88
  -4  -9   5    9.99    1.08
   3   9  -5   44.22    1.71
  -3  -9   5   41.38    1.36
   2   9  -5   75.60    2.45
  -2  -9   5   73.61    2.07
   1   9  -5   -0.04    0.44
  -1  -9   5    0.41    0.24
   0   9  -5   74.06    2.41
  -1   9  -5   39.55    1.61
  -2   9  -5    1.32    0.53
   2  -9   5    0.79    0.44
  -3   9  -5   43.56    1.66
   3  -9   5   41.92    1.68
  -4   9  -5    8.63    0.92
   4  -9   5   10.34    1.02
  -5   9  -5    7.43    0.84
   5  -9   5    5.87    0.98
   9   8  -5    4.10    0.66
   9   8  -5    4.31    0.77
  -9  -8   5    4.09    0.59
   8   8  -5   25.33    1.31
  -8  -8   5   22.72    1.12
   7   8  -5   47.73    1.80
  -7  -8   5   48.19    1.65
   6   8  -5    0.46    0.43
  -6  -8   5   -0.12    0.34
   5   8  -5   64.61    2.68
  -5  -8   5   62.12    1.95
   4   8  -5   52.92    1.93
  -4  -8   5   56.19    1.67
   3   8  -5   17.89    0.99
  -3  -8   5   16.79    0.76
   2   8  -5  115.47    3.29
  -2  -8   5  114.03    2.94
  -2  -8   5  112.25    3.26
   1   8  -5   51.02    1.82
  -1  -8   5   52.35    1.50
  -1  -8   5   51.94    1.97
   0   8  -5   29.35    1.24
   0  -8   5   26.51    0.92
  -1   8  -5   98.20    2.89
   1  -8   5   99.02    2.54
  -2   8  -5   16.29    0.96
  -2   8  -5   17.30    0.78
  -3   8  -5   18.19    1.02
  -3   8  -5   16.42    0.89
  -4   8  -5   59.39    2.36
  -4   8  -5   62.27    2.03
   4  -8   5   64.74    2.20
   5  -8   5    7.50    0.91
   6  -8   5   16.47    1.24
  -7   8  -5   45.16    1.83
   7  -8   5   43.38    2.68
  10   7  -5   41.32    1.78
 -10  -7   5   36.28    1.52
   9   7  -5   36.02    1.50
   9   7  -5   35.00    1.60
  -9  -7   5   34.92    1.41
   8   7  -5    1.16    0.52
   8   7  -5    1.04    0.46
  -8  -7   5    0.45    0.36
   7   7  -5   81.07    3.29
  -7  -7   5   82.96    2.39
   6   7  -5   34.12    1.35
  -6  -7   5   34.64    1.37
   5   7  -5   13.61    0.88
  -5  -7   5   13.09    0.71
   4   7  -5   87.04    2.63
  -4  -7   5   89.02    2.36
  -4  -7   5   85.96    2.40
   3   7  -5    0.03    0.31
  -3  -7   5    0.90    0.24
  -3  -7   5    0.87    0.24
   2   7  -5   83.41    2.54
  -2  -7   5   87.78    2.31
  -2  -7   5   85.60    2.27
   1   7  -5   51.21    1.76
  -1  -7   5   54.27    1.58
  -1  -7   5   53.19    1.50
   0   7  -5    1.46    0.24
   0  -7   5    1.78    0.27
   0  -7   5    2.21    0.39
  -1   7  -5   69.40    2.00
  -1   7  -5   73.13    2.21
   1  -7   5   74.42    2.08
   1  -7   5   71.98    1.92
  -2   7  -5   60.59    1.93
   2  -7   5   60.75    1.85
   2  -7   5   60.60    1.68
  -3   7  -5    6.00    0.63
  -3   7  -5    4.96    0.59
   3  -7   5    4.61    0.41
  -4   7  -5   30.89    1.23
  -4   7  -5   30.33    1.28
   6  -7   5    4.00    0.67
  -7   7  -5   37.60    1.65
   7  -7   5   36.71    1.69
  -8   7  -5   37.36    2.20
   8  -7   5   38.04    2.16
  11   6  -5   17.82    2.06
  10   6  -5    5.98    0.98
 -10  -6   5    7.82    0.79
   9   6  -5   56.68    2.05
  -9  -6   5   53.91    1.83
   8   6  -5   25.78    1.26
   8   6  -5   27.66    1.31
  -8  -6   5   26.59    1.12
   7   6  -5   24.16    1.15
   7   6  -5   23.96    1.11
   6   6  -5  105.14    2.98
  -6  -6   5  106.92    2.86
   5   6  -5   25.50    1.04
  -5  -6   5   25.58    0.97
   4   6  -5   15.11    0.82
  -4  -6   5   16.47    0.71
   3   6  -5  142.52    3.84
  -3  -6   5  138.00    3.60
  -3  -6   5  151.32    3.60
   2   6  -5    6.81    0.55
  -2  -6   5    8.00    0.45
  -2  -6   5    7.80    0.45
   1   6  -5   36.23    0.98
   1   6  -5   34.54    1.29
  -1  -6   5   35.60    1.11
  -1  -6   5   37.48    1.10
   0   6  -5   66.66    2.01
   0   6  -5   64.31    1.76
   0  -6   5   67.69    1.84
   0  -6   5   66.87    1.77
  -1   6  -5   -0.14    0.21
  -1   6  -5    0.22    0.19
   1  -6   5    0.09    0.21
   1  -6   5    0.42    0.16
  -2   6  -5  111.64    3.02
  -2   6  -5  110.73    2.97
   2  -6   5  109.78    2.92
   2  -6   5  110.94    2.80
  -3   6  -5   45.01    1.51
  -3   6  -5   46.50    1.57
   3  -6   5   48.97    1.54
   3  -6   5   45.92    1.36
  -4   6  -5    3.50    0.53
  -4   6  -5    5.32    0.50
   4  -6   5    3.60    0.54
   4  -6   5    4.89    0.43
  -5   6  -5   46.08    1.47
  -6   6  -5   10.12    1.31
  -7   6  -5    0.61    0.48
   7  -6   5    0.53    0.49
  -8   6  -5   19.75    1.29
   8  -6   5   18.69    1.26
  11   5  -5   32.93    1.64
 -11  -5   5   29.60    1.37
  10   5  -5    5.04    0.90
 -10  -5   5    4.08    0.68
   9   5  -5   23.67    1.12
   9   5  -5   24.04    1.23
  -9  -5   5   24.23    1.10
   8   5  -5   47.05    1.69
   8   5  -5   48.82    1.74
  -8  -5   5   47.20    1.57
   7   5  -5   12.27    0.78
   7   5  -5   13.30    0.83
  -7  -5   5   13.08    0.72
   6   5  -5   40.37    1.44
   6   5  -5   39.82    1.39
  -6  -5   5   38.37    1.30
   5   5  -5   60.38    1.85
   5   5  -5   59.61    1.94
  -5  -5   5   63.18    1.77
   4   5  -5   28.35    1.13
   4   5  -5   30.27    1.06
  -4  -5   5   27.77    0.98
   3   5  -5   55.41    1.74
  -3  -5   5   53.47    1.56
   2   5  -5  207.77    4.87
   2   5  -5  206.75    5.27
  -2  -5   5  209.21    5.06
  -2  -5   5  215.92    5.03
   1   5  -5    0.93    0.28
  -1  -5   5    0.33    0.16
  -1  -5   5   -0.04    0.19
   0   5  -5  119.36    2.95
   0   5  -5  115.07    3.13
   0  -5   5  116.36    2.92
   0  -5   5  120.23    2.96
  -1   5  -5  138.36    3.48
  -1   5  -5  138.03    3.59
   1  -5   5  137.50    3.38
   1  -5   5  136.79    3.44
  -2   5  -5   15.29    0.71
  -2   5  -5   13.50    0.77
   2  -5   5   15.57    0.59
   2  -5   5   13.55    0.64
  -3   5  -5  148.47    3.83
  -3   5  -5  150.65    3.92
   3  -5   5  150.39    3.71
   3  -5   5  149.23    3.82
  -4   5  -5   20.05    0.98
  -4   5  -5   18.93    0.81
   4  -5   5   20.97    0.89
   4  -5   5   18.69    0.75
  -5   5  -5   40.50    1.28
   5  -5   5   38.04    1.42
   5  -5   5   39.81    1.24
  -6   5  -5   44.62    1.71
   6  -5   5   42.09    1.36
  -7   5  -5    3.79    0.64
  -8   5  -5    7.20    0.95
   8  -5   5    7.72    0.94
  -9   5  -5   18.26    1.26
   9  -5   5   17.98    1.25
  11   4  -5    9.23    1.08
 -11  -4   5    8.78    0.82
  10   4  -5   40.31    1.72
 -10  -4   5   39.56    1.48
   9   4  -5    0.86    0.44
   9   4  -5    0.35    0.39
  -9  -4   5    0.35    0.33
   8   4  -5   32.58    1.32
   8   4  -5   32.01    1.29
  -8  -4   5   31.74    1.30
   7   4  -5   69.91    2.14
   7   4  -5   70.11    2.15
  -7  -4   5   70.65    2.02
   6   4  -5    1.30    0.30
   6   4  -5    1.11    0.30
  -6  -4   5    0.77    0.24
   5   4  -5  152.17    3.97
   5   4  -5  157.40    4.07
  -5  -4   5  157.49    3.90
   4   4  -5   51.76    1.58
   4   4  -5   52.49    1.68
  -4  -4   5   55.81    1.55
   3   4  -5    0.54    0.16
   3   4  -5    0.27    0.21
  -3  -4   5    0.60    0.20
   2   4  -5  157.20    4.16
   2   4  -5  152.18    3.85
   2   4  -5  167.49    3.83
  -2  -4   5  167.31    3.99
  -2  -4   5  172.73    3.92
   1   4  -5   12.05    0.43
   1   4  -5   10.54    0.61
  -1  -4   5   12.63    0.50
  -1  -4   5   11.88    0.44
   0   4  -5   99.79    2.72
   0   4  -5  100.38    2.54
   0  -4   5  104.64    2.53
  -1   4  -5   68.20    1.93
   1  -4   5   63.96    1.86
   1  -4   5   69.39    1.77
  -2   4  -5    8.79    0.52
   2  -4   5    8.36    0.43
  -3   4  -5   77.89    2.29
  -3   4  -5   82.21    2.31
   3  -4   5   80.42    2.21
   3  -4   5   84.28    2.15
  -4   4  -5  130.42    3.38
  -4   4  -5  124.03    3.16
   4  -4   5  121.18    3.13
   4  -4   5  120.01    3.21
  -5   4  -5    7.06    0.40
  -6   4  -5   79.43    2.51
   6  -4   5   79.41    2.20
   6  -4   5   79.74    2.37
   7  -4   5   66.07    1.94
  -8   4  -5    3.39    0.66
  -9   4  -5   51.07    2.06
   9  -4   5   56.40    2.02
 -10   4  -5   30.75    1.68
  10  -4   5   32.33    1.59
  11   3  -5   -0.30    0.60
 -11  -3   5    0.76    0.45
  10   3  -5   57.89    2.11
 -10  -3   5   56.21    1.85
   9   3  -5   48.11    1.81
  -9  -3   5   45.44    1.54
   8   3  -5   15.68    0.90
   8   3  -5   16.34    0.88
  -8  -3   5   16.35    0.79
   7   3  -5   99.17    2.79
   7   3  -5   97.68    2.77
  -7  -3   5  100.18    2.66
   6   3  -5   56.77    1.79
   6   3  -5   54.27    1.71
  -6  -3   5   59.10    1.45
  -6  -3   5   56.39    1.64
   5   3  -5  169.82    4.41
   5   3  -5  170.91    4.32
  -5  -3   5  178.48    4.05
  -5  -3   5  169.39    4.25
   4   3  -5  247.41    6.06
   4   3  -5  244.42    5.93
  -4  -3   5  244.93    5.88
  -4  -3   5  245.12    5.69
   3   3  -5    2.03    0.21
   3   3  -5    2.25    0.36
  -3  -3   5    2.77    0.31
  -3  -3   5    1.83    0.13
   2   3  -5   99.66    2.48
   2   3  -5   97.05    2.34
   1   3  -5  259.91    6.05
   1   3  -5  263.40    6.30
  -1  -3   5  253.79    6.05
  -1  -3   5  262.04    6.13
   0   3  -5    4.02    0.32
   0   3  -5    4.74    0.27
   0  -3   5    3.71    0.23
   0  -3   5    4.48    0.23
  -1   3  -5   70.72    1.94
  -1   3  -5   72.94    1.86
   1  -3   5   68.90    1.81
  -2   3  -5   41.28    1.25
  -2   3  -5   43.86    1.27
   2  -3   5   41.33    1.18
   2  -3   5   42.70    1.19
  -3   3  -5    2.21    0.38
  -3   3  -5    1.57    0.22
   3  -3   5    1.98    0.25
  -4   3  -5  120.96    3.28
  -4   3  -5  127.09    3.09
   4  -3   5  123.66    3.12
   4  -3   5  122.79    3.18
  -5   3  -5  104.60    2.56
  -5   3  -5  101.51    2.87
   5  -3   5  100.37    2.73
   5  -3   5   99.66    2.65
  -6   3  -5    8.71    0.80
   6  -3   5    9.83    0.55
   6  -3   5    8.91    0.62
  -7   3  -5  122.08    3.53
   7  -3   5  122.56    3.22
  -8   3  -5   45.17    1.80
   8  -3   5   41.58    1.46
  -9   3  -5    2.58    0.61
   9  -3   5    3.20    0.64
   9  -3   5    3.29    0.49
 -10   3  -5   69.48    2.57
  10  -3   5   77.10    2.53
  11   2  -5   11.33    1.11
  10   2  -5   15.28    1.10
   9   2  -5  107.44    3.30
   8   2  -5    1.69    0.38
  -8  -2   5    1.49    0.23
   7   2  -5   80.90    2.31
   7   2  -5   76.68    2.28
   6   2  -5  121.37    3.30
   6   2  -5  123.42    3.27
  -6  -2   5  128.43    3.04
  -6  -2   5  124.97    3.17
   5   2  -5    4.85    0.51
   5   2  -5    5.66    0.54
  -5  -2   5    5.93    0.42
  -5  -2   5    6.01    0.27
   4   2  -5  285.12    6.91
   4   2  -5  284.47    6.78
  -4  -2   5  288.30    6.62
  -4  -2   5  280.26    6.74
   3   2  -5  101.82    2.59
  -3  -2   5  104.14    2.48
   2   2  -5    0.21    0.15
   1   2  -5  243.52    5.89
   1   2  -5  256.01    6.11
  -1  -2   5  260.95    5.87
  -1  -2   5  252.90    5.96
   0   2  -5  441.87   10.40
   0  -2   5  444.86   10.19
   0  -2   5  443.34   10.27
  -1   2  -5    7.06    0.38
  -1   2  -5    7.37    0.34
   1  -2   5    7.91    0.30
  -2   2  -5  212.91    5.10
  -2   2  -5  213.66    5.12
   2  -2   5  213.53    5.03
   2  -2   5  210.20    5.06
  -3   2  -5  139.25    3.39
  -3   2  -5  130.85    3.51
   3  -2   5  140.38    3.40
   3  -2   5  140.11    3.38
  -4   2  -5   19.71    0.86
  -4   2  -5   22.01    0.68
  -5   2  -5  137.75    3.24
  -5   2  -5  131.82    3.55
   5  -2   5  131.27    3.38
   5  -2   5  135.10    3.43
  -6   2  -5   29.79    1.23
   6  -2   5   31.06    1.10
   6  -2   5   28.12    1.02
  -7   2  -5   52.28    1.95
   7  -2   5   60.65    1.75
   7  -2   5   59.42    1.82
  -8   2  -5   64.03    2.47
   8  -2   5   65.08    1.96
  -9   2  -5   11.19    1.02
   9  -2   5   10.47    0.81
 -10   2  -5   11.85    1.10
  10  -2   5   16.15    1.14
 -11   2  -5   38.54    1.81
  11  -2   5   38.73    1.77
  11   1  -5   37.54    1.74
  10   1  -5   15.25    1.09
 -10  -1   5   14.10    0.91
   9   1  -5   11.92    0.96
  -9  -1   5   12.88    0.74
  -9  -1   5   12.10    0.61
   8   1  -5   68.76    2.14
   8   1  -5   64.95    2.05
  -8  -1   5   69.59    1.89
  -8  -1   5   71.34    2.06
   7   1  -5    0.57    0.32
   7   1  -5    0.49    0.24
  -7  -1   5    0.46    0.17
  -7  -1   5    0.48    0.23
   6   1  -5   13.13    0.70
   6   1  -5   13.69    0.65
  -6  -1   5   12.49    0.71
  -6  -1   5   12.50    0.59
   5   1  -5  147.16    3.83
   5   1  -5  151.85    3.77
  -5  -1   5  149.46    3.61
  -5  -1   5  150.42    3.69
   4   1  -5    2.08    0.21
  -4  -1   5    2.49    0.17
  -4  -1   5    2.66    0.30
   3   1  -5  311.11    7.54
   3   1  -5  316.79    7.41
  -3  -1   5  321.26    7.42
  -3  -1   5  315.21    7.35
   2   1  -5  150.56    3.67
   2   1  -5  157.74    3.85
  -2  -1   5  152.43    3.67
  -2  -1   5  157.27    3.71
   1   1  -5    0.54    0.15
  -1  -1   5    0.37    0.07
   0   1  -5  460.59   10.68
   0  -1   5  452.91   10.48
   0  -1   5  458.21   10.57
  -1   1  -5   99.31    2.47
  -1   1  -5   96.72    2.35
  -1   1  -5  104.10    2.56
   1  -1   5   94.90    2.46
   1  -1   5  107.11    2.39
  -2   1  -5  142.84    3.51
  -2   1  -5  143.16    3.52
   2  -1   5  142.48    3.49
   2  -1   5  148.08    3.43
  -3   1  -5  187.20    4.46
  -3   1  -5  185.90    4.53
   3  -1   5  186.58    4.49
   3  -1   5  184.99    4.43
  -4   1  -5    1.79    0.18
  -4   1  -5    2.12    0.32
   4  -1   5    1.98    0.21
   4  -1   5    1.67    0.30
  -5   1  -5   55.94    1.73
  -5   1  -5   58.59    1.43
   5  -1   5   56.47    1.62
  -6   1  -5   64.13    1.99
   6  -1   5   65.25    1.85
   6  -1   5   64.03    1.86
  -7   1  -5    1.16    0.37
   7  -1   5    1.16    0.30
   7  -1   5    0.83    0.26
  -8   1  -5   39.09    1.60
   8  -1   5   39.35    1.37
   8  -1   5   40.29    1.54
  -9   1  -5   28.87    1.44
   9  -1   5   27.10    1.19
 -10   1  -5    2.38    0.65
  10  -1   5    1.52    0.54
 -11   1  -5   26.05    1.50
  11  -1   5   26.46    1.48
  11   0  -5   26.26    1.46
  10   0  -5   25.66    1.33
 -10   0   5   26.89    1.05
 -10   0   5   24.49    1.05
  -9   0   5   10.23    0.66
  -9   0   5   10.90    0.65
   8   0  -5   40.82    1.44
   8   0  -5   40.10    1.47
  -8   0   5   40.70    1.28
  -8   0   5   40.43    1.29
   7   0  -5   80.89    2.37
   7   0  -5   85.13    2.41
  -7   0   5   83.50    2.23
  -7   0   5   85.95    2.24
   6   0  -5    7.86    0.58
   6   0  -5    9.16    0.54
  -6   0   5    9.47    0.46
  -6   0   5    8.26    0.47
   5   0  -5   20.11    0.87
   5   0  -5   20.17    0.76
  -5   0   5   19.64    0.72
  -5   0   5   21.43    0.74
   4   0  -5  199.27    5.12
   4   0  -5  206.69    4.90
  -4   0   5  206.28    4.86
  -4   0   5  202.20    4.84
   3   0  -5   26.37    0.79
   3   0  -5   25.63    0.90
  -3   0   5   25.03    0.79
  -3   0   5   31.05    0.81
   2   0  -5  280.11    6.52
   2   0  -5  289.02    6.69
  -2   0   5  280.68    6.56
  -2   0   5  272.55    6.55
   1   0  -5   59.96    1.58
   1   0  -5   52.63    1.41
  -1   0   5   58.19    1.37
  -1   0   5   59.74    1.47
  -1   0   5   56.82    1.48
   0   0  -5   48.36    1.32
   0   0   5   47.88    1.25
   0   0   5   45.16    1.22
  -1   0  -5  352.32    7.91
   1   0   5  321.41    7.83
  -2   0  -5    6.32    0.31
  -2   0  -5    6.17    0.23
   2   0   5    6.61    0.30
   2   0   5    6.23    0.23
  -3   0  -5   75.93    1.90
  -3   0  -5   74.49    1.96
   3   0   5   74.08    1.86
   3   0   5   74.56    1.94
  -4   0  -5   61.36    1.52
  -4   0  -5   57.63    1.73
  -5   0  -5    6.42    0.26
   5   0   5    7.09    0.37
   5   0   5    7.84    0.44
  -6   0  -5   59.61    1.83
   6   0   5   60.09    1.73
   6   0   5   58.34    1.71
  -7   0  -5   37.41    1.38
   7   0   5   36.93    1.26
   7   0   5   36.90    1.25
  -8   0  -5   10.38    0.85
   8   0   5   12.84    0.77
   8   0   5   12.32    0.72
   9   0   5   50.68    1.71
 -10   0  -5   16.85    1.26
 -11   0  -5    2.99    0.67
  11  -1  -5    5.29    0.82
 -11   1   5    6.60    0.77
  10  -1  -5   49.52    1.92
 -10   1   5   51.21    1.70
   9  -1  -5   15.84    1.00
  -9   1   5   16.21    0.75
  -9   1   5   17.22    0.89
   8  -1  -5   13.49    0.80
   8  -1  -5   14.30    0.83
  -8   1   5   14.09    0.65
  -8   1   5   13.05    0.68
   7  -1  -5  162.54    4.26
   7  -1  -5  167.10    4.31
  -7   1   5  168.99    4.10
  -7   1   5  167.17    4.16
   6  -1  -5    2.59    0.37
   6  -1  -5    2.54    0.40
  -6   1   5    2.29    0.33
  -6   1   5    1.93    0.30
   5  -1  -5   56.70    1.67
   5  -1  -5   51.07    1.70
  -5   1   5   54.83    1.54
  -5   1   5   60.94    1.53
   4  -1  -5  100.71    2.54
  -4   1   5   97.45    2.60
  -4   1   5  100.98    2.47
   3  -1  -5   24.14    0.73
   3  -1  -5   24.12    0.82
  -3   1   5   24.53    0.71
  -3   1   5   24.03    0.74
   2  -1  -5  148.36    3.58
   2  -1  -5  150.66    3.71
  -2   1   5  152.32    3.65
  -2   1   5  154.31    3.60
   1  -1  -5   46.06    1.22
   1  -1  -5   50.98    1.38
  -1   1   5   51.71    1.20
  -1   1   5   51.50    1.28
  -1   1   5   50.85    1.33
   0   1   5    0.94    0.12
   0   1   5    0.71    0.10
  -1  -1  -5  165.07    3.92
   1   1   5  163.39    3.92
   1   1   5  162.45    3.90
  -2  -1  -5  346.89    7.86
  -2  -1  -5  339.53    7.96
   2   1   5  338.39    7.99
   2   1   5  342.82    7.87
  -3  -1  -5   15.11    0.50
  -3  -1  -5   14.78    0.55
   3   1   5   15.35    0.48
   3   1   5   14.37    0.53
  -4  -1  -5  183.73    4.62
  -4  -1  -5  190.51    4.35
   4   1   5  178.20    4.41
  -5  -1  -5  157.03    3.90
  -5  -1  -5  157.72    3.63
  -5  -1  -5  147.83    3.61
   5   1   5  150.85    3.86
   5   1   5  162.26    3.84
  -6  -1  -5    2.28    0.39
   6   1   5    1.95    0.37
   6   1   5    2.19    0.31
  -7  -1  -5   95.30    2.72
   7   1   5   95.22    2.63
   7   1   5   99.59    2.66
  -8  -1  -5   17.97    1.00
   8   1   5   18.89    0.90
   8   1   5   17.53    0.85
  -9  -1  -5   30.59    1.42
   9   1   5   31.50    1.26
 -10  -1  -5   44.87    1.85
 -11  -1  -5    5.74    0.59
 -11  -1  -5    7.21    1.05
  11   1   5    6.01    0.96
 -12  -1  -5   16.60    0.88
 -12  -1  -5   15.44    1.29
  12   1   5   16.59    1.24
  11  -2  -5   11.92    1.25
 -11   2   5   11.09    0.92
  10  -2  -5   42.15    1.78
 -10   2   5   42.53    1.54
   9  -2  -5   62.65    2.14
  -9   2   5   62.35    1.94
   8  -2  -5    4.45    0.61
   8  -2  -5    5.49    0.63
  -8   2   5    4.79    0.54
  -8   2   5    6.47    0.53
   7  -2  -5   81.39    2.33
   7  -2  -5   78.14    2.28
  -7   2   5   76.82    2.07
  -7   2   5   81.38    2.22
   6  -2  -5  125.14    3.33
   6  -2  -5  124.58    3.31
  -6   2   5  125.93    3.25
  -6   2   5  133.25    3.17
   5  -2  -5   26.83    0.96
   5  -2  -5   26.59    0.96
  -5   2   5   26.78    0.90
  -5   2   5   26.66    0.80
   4  -2  -5   98.80    2.54
   4  -2  -5   98.99    2.58
  -4   2   5   99.43    2.42
  -4   2   5   98.21    2.53
   3  -2  -5   98.92    2.64
   3  -2  -5  100.03    2.52
  -3   2   5  100.11    2.44
  -3   2   5  104.52    2.79
   2  -2  -5   17.25    0.61
   2  -2  -5   17.09    0.54
  -2   2   5   16.57    0.51
  -2   2   5   17.53    0.59
   1  -2  -5  299.18    7.25
   1  -2  -5  309.22    7.15
  -1   2   5  334.36    7.16
  -1   2   5  294.61    7.24
   0  -2  -5   90.56    2.05
   0  -2  -5   88.97    2.18
   0  -2  -5   82.20    2.06
   0   2   5   85.38    2.12
   0   2   5   87.93    2.19
  -1  -2  -5   39.72    1.06
  -1  -2  -5   38.69    0.96
  -1  -2  -5   38.08    0.94
   1   2   5   39.35    1.05
   1   2   5   37.86    1.08
  -2  -2  -5  334.23    7.74
  -2  -2  -5  334.33    7.68
   2   2   5  334.33    7.69
   2   2   5  334.08    7.78
   2   2   5  328.95    7.80
  -3  -2  -5  123.24    3.04
  -3  -2  -5  124.07    2.96
   3   2   5  123.76    2.98
   3   2   5  121.35    3.04
  -4  -2  -5   85.08    2.20
  -4  -2  -5   84.44    2.06
   4   2   5   82.70    2.14
  -5  -2  -5  285.74    6.54
  -5  -2  -5  283.09    6.77
   5   2   5  285.31    6.72
   5   2   5  274.46    6.75
  -6  -2  -5   42.97    1.36
   6   2   5   41.44    1.32
   6   2   5   42.02    1.33
  -7  -2  -5   42.03    1.41
   7   2   5   42.34    1.38
   7   2   5   41.13    1.36
  -8  -2  -5  103.86    2.95
   8   2   5  102.60    2.86
   8   2   5  104.88    2.89
  -9  -2  -5    3.00    0.51
   9   2   5    2.57    0.45
 -10  -2  -5   30.05    1.45
 -11  -2  -5   38.45    1.36
 -11  -2  -5   38.33    1.82
  11   2   5   41.46    1.72
 -12  -2  -5    0.52    0.36
 -12  -2  -5    0.70    0.63
  12   2   5   -0.03    0.63
  10  -3  -5    0.08    0.58
 -10   3   5    0.32    0.44
   9  -3  -5   49.17    1.86
  -9   3   5   49.45    1.69
   8  -3  -5   23.29    1.31
   8  -3  -5   24.04    1.06
  -8   3   5   24.48    1.01
   7  -3  -5    2.97    0.53
   7  -3  -5    3.10    0.47
  -7   3   5    2.78    0.38
   6  -3  -5  104.40    2.85
   6  -3  -5  102.84    2.78
  -6   3   5  106.48    2.57
  -6   3   5  102.60    2.77
   5  -3  -5  120.77    3.13
   5  -3  -5  120.33    3.18
  -5   3   5  123.05    2.93
  -5   3   5  121.43    3.12
   4  -3  -5    0.46    0.20
  -4   3   5    0.48    0.09
  -4   3   5    0.12    0.14
   3  -3  -5   85.72    2.27
   3  -3  -5   88.38    2.26
  -3   3   5   88.10    2.11
  -3   3   5   86.30    2.27
   2  -3  -5  146.83    3.47
  -2   3   5  138.42    3.35
   1  -3  -5   61.32    1.64
   1  -3  -5   62.12    1.58
  -1   3   5   64.38    1.66
  -1   3   5   61.28    1.53
   0  -3  -5  299.91    7.14
   0  -3  -5  307.25    7.06
   0   3   5  310.17    7.09
   0   3   5  303.12    7.17
  -1  -3  -5   15.28    0.52
  -1  -3  -5   15.72    0.45
   1   3   5   14.90    0.54
   1   3   5   15.58    0.50
  -2  -3  -5  232.28    5.39
   2   3   5  234.57    5.43
   2   3   5  225.72    5.45
   2   3   5  223.65    5.36
  -3  -3  -5  206.06    4.91
   3   3   5  211.81    4.96
   3   3   5  208.32    5.00
   3   3   5  209.06    5.00
  -4  -3  -5    0.37    0.10
  -5  -3  -5  154.15    3.59
  -5  -3  -5  150.27    3.78
   5   3   5  147.93    3.79
   5   3   5  154.75    3.78
  -6  -3  -5   79.33    1.89
  -6  -3  -5   79.72    2.17
   6   3   5   77.43    2.17
   6   3   5   76.24    2.16
  -7  -3  -5    3.62    0.43
   7   3   5    3.89    0.45
   7   3   5    3.75    0.40
  -8  -3  -5   90.79    2.63
   8   3   5   92.99    2.62
   8   3   5   89.66    2.58
  -9  -3  -5   34.10    1.41
   9   3   5   34.19    1.32
 -10  -3  -5   11.16    0.66
 -11  -3  -5   40.29    1.42
 -11  -3  -5   39.09    1.80
  11   3   5   43.53    1.78
 -12  -3  -5   13.65    0.82
 -12  -3  -5   16.30    1.34
  12   3   5   16.12    1.26
  10  -4  -5   15.95    1.22
 -10   4   5   16.00    1.02
   9  -4  -5    3.68    0.65
  -9   4   5    3.89    0.66
   8  -4  -5   29.00    1.36
  -8   4   5   29.71    1.21
   7  -4  -5   13.24    0.80
   7  -4  -5   12.82    0.82
   6  -4  -5    6.46    0.55
   6  -4  -5    4.59    0.53
  -6   4   5    4.76    0.48
   5  -4  -5  157.95    4.05
   5  -4  -5  159.02    3.96
  -5   4   5  155.09    3.98
   4  -4  -5   39.39    1.27
   4  -4  -5   40.64    1.24
  -4   4   5   38.96    1.00
  -4   4   5   40.19    1.24
   3  -4  -5   39.73    1.21
   3  -4  -5   41.09    1.23
  -3   4   5   39.88    1.22
  -3   4   5   40.38    1.00
   2  -4  -5  183.12    4.45
   2  -4  -5  187.02    4.44
  -2   4   5  179.08    4.46
  -2   4   5  184.64    4.27
   1  -4  -5   46.07    1.23
   1  -4  -5   45.24    1.28
  -1   4   5   45.62    1.14
  -1   4   5   43.40    1.28
   0  -4  -5   64.97    1.79
   0  -4  -5   66.70    1.69
   0   4   5   69.98    1.67
   0   4   5   66.83    1.78
  -1  -4  -5  109.48    2.68
  -1  -4  -5  112.66    2.75
   1   4   5  110.21    2.70
   1   4   5  113.28    2.79
  -2  -4  -5    3.46    0.19
  -2  -4  -5    3.07    0.21
   2   4   5    3.32    0.23
   2   4   5    3.91    0.22
  -3  -4  -5  148.52    3.52
   3   4   5  148.06    3.60
   3   4   5  146.23    3.59
   3   4   5  143.97    3.58
  -4  -4  -5  106.16    2.57
   4   4   5  106.83    2.69
   4   4   5  103.27    2.71
  -5  -4  -5    3.95    0.21
  -5  -4  -5    3.30    0.36
   5   4   5    3.10    0.30
   5   4   5    2.98    0.33
  -6  -4  -5  112.66    2.65
  -6  -4  -5  111.32    2.88
   6   4   5  106.90    2.91
   6   4   5  109.18    2.91
  -7  -4  -5   52.81    1.64
   7   4   5   54.37    1.69
   7   4   5   53.01    1.65
  -8  -4  -5    4.49    0.53
   8   4   5    4.61    0.52
   8   4   5    3.67    0.53
  -9  -4  -5   68.08    2.17
 -10  -4  -5    5.17    0.82
 -10  -4  -5    6.44    0.57
 -11  -4  -5   12.95    0.78
 -11  -4  -5   12.81    1.17
  11   4   5   16.38    1.17
 -12  -4  -5   26.81    1.17
  12   4   5   29.52    1.58
   9  -5  -5   15.97    1.21
  -9   5   5   17.13    1.00
   8  -5  -5   19.11    1.16
  -8   5   5   18.59    0.96
   7  -5  -5   40.01    1.86
   7  -5  -5   42.06    1.48
  -7   5   5   42.51    1.47
   6  -5  -5    5.74    0.63
   6  -5  -5    5.38    0.61
  -6   5   5    5.96    0.54
   5  -5  -5   43.52    1.39
   5  -5  -5   44.05    1.49
  -5   5   5   45.47    1.43
   4  -5  -5   93.83    2.49
   4  -5  -5   92.84    2.56
  -4   5   5   93.12    2.51
   3  -5  -5    2.10    0.34
   3  -5  -5    2.78    0.36
  -3   5   5    2.52    0.30
   2  -5  -5  118.93    2.99
  -2   5   5  116.79    3.01
   1  -5  -5  102.26    2.55
   1  -5  -5  101.88    2.59
   1  -5  -5   99.21    2.40
  -1   5   5  101.53    2.39
  -1   5   5  100.25    2.60
   0  -5  -5    1.81    0.28
   0  -5  -5    2.13    0.20
   0   5   5    2.40    0.15
   0   5   5    2.09    0.27
  -1  -5  -5  106.96    2.62
   1   5   5  106.57    2.59
   1   5   5  105.43    2.70
  -2  -5  -5   82.52    1.85
   2   5   5   62.01    1.83
   3   5   5    5.19    0.31
   3   5   5    5.27    0.30
   4   5   5  101.59    2.63
   4   5   5  100.41    2.62
   4   5   5  102.43    2.61
  -5  -5  -5   43.84    1.19
  -5  -5  -5   43.41    1.32
   5   5   5   45.53    1.36
   5   5   5   44.41    1.39
  -6  -5  -5   21.63    0.66
  -6  -5  -5   21.78    0.84
   6   5   5   22.32    0.87
   6   5   5   22.31    0.90
  -7  -5  -5   90.57    2.49
   7   5   5   91.41    2.57
   7   5   5   91.03    2.55
  -8  -5  -5   44.70    1.51
   8   5   5   46.62    1.61
  -9  -5  -5    6.25    0.70
  -9  -5  -5    6.75    0.52
 -10  -5  -5   55.02    1.69
 -10  -5  -5   51.76    1.90
 -11  -5  -5    6.46    0.61
  11   5   5    6.18    0.97
  12   5   5    2.70    0.67
   9  -6  -5   35.13    1.84
   8  -6  -5    2.78    0.63
  -8   6   5    0.62    0.40
   7  -6  -5   40.37    1.65
  -7   6   5   38.83    1.44
   6  -6  -5   32.49    1.23
   6  -6  -5   30.92    1.38
  -6   6   5   32.08    1.23
   5  -6  -5   -0.06    0.29
   5  -6  -5    0.44    0.32
  -5   6   5    0.39    0.26
   4  -6  -5   62.97    1.92
   4  -6  -5   62.60    2.05
  -4   6   5   62.80    1.86
   3  -6  -5   79.94    2.27
  -3   6   5   82.26    2.25
   2  -6  -5    0.23    0.22
   2  -6  -5    0.47    0.20
   1  -6  -5  103.32    2.67
   1  -6  -5  103.53    2.68
  -1   6   5  102.74    2.69
   0  -6  -5   71.67    2.07
   0   6   5   74.53    1.98
  -1  -6  -5   12.24    0.55
   1   6   5   12.10    0.56
   1   6   5   12.22    0.56
   1   6   5   12.96    0.43
  -2  -6  -5  144.00    3.69
   2   6   5  149.34    3.68
   2   6   5  148.28    3.70
   2   6   5  149.82    3.58
  -3  -6  -5   32.48    0.97
   3   6   5   31.56    1.02
   3   6   5   31.91    1.02
   4   6   5   53.84    1.59
   4   6   5   53.19    1.52
   4   6   5   53.13    1.52
   4   6   5   53.77    1.54
  -5  -6  -5  106.38    2.75
   5   6   5  106.42    2.71
   5   6   5  106.67    2.85
   5   6   5  106.75    2.80
  -6  -6  -5    1.15    0.25
   6   6   5    1.58    0.31
  -7  -6  -5   53.65    1.58
  -7  -6  -5   56.53    1.58
  -7  -6  -5   54.68    1.66
   7   6   5   54.93    1.77
  -8  -6  -5   40.26    1.39
  -8  -6  -5   41.27    1.31
   8   6   5   38.99    1.52
  -9  -6  -5    2.79    0.45
  -9  -6  -5    1.87    0.45
 -10  -6  -5   38.66    1.35
 -11  -6  -5   24.64    1.11
  11   6   5   27.03    1.45
  12   6   5    0.13    1.18
   8  -7  -5   20.76    1.34
   7  -7  -5    2.73    0.64
   7  -7  -5    1.73    0.55
  -7   7   5    2.02    0.43
   6  -7  -5   32.48    1.28
   6  -7  -5   31.98    1.45
  -6   7   5   31.54    1.28
   5  -7  -5   11.26    0.85
  -5   7   5   11.92    0.75
   4  -7  -5   10.44    0.73
  -4   7   5    9.98    0.64
   3  -7  -5   70.40    2.02
   3  -7  -5   69.00    2.08
  -3   7   5   69.69    2.03
   2  -7  -5   48.22    1.54
   2  -7  -5   47.93    1.50
  -2   7   5   50.69    1.51
   1  -7  -5   13.65    0.65
  -1   7   5   12.99    0.65
   0  -7  -5  155.01    3.90
   0   7   5  158.04    3.92
   0   7   5  155.45    3.97
  -1  -7  -5   46.72    1.39
  -1  -7  -5   47.92    1.19
   1   7   5   48.10    1.43
   1   7   5   47.88    1.46
  -2  -7  -5   24.74    0.84
  -2  -7  -5   24.28    0.69
   2   7   5   25.18    0.88
   2   7   5   23.21    0.89
  -3  -7  -5  103.20    2.49
  -3  -7  -5   96.14    2.56
   3   7   5  100.05    2.66
   3   7   5  101.34    2.62
  -4  -7  -5    1.79    0.28
  -4  -7  -5    2.65    0.27
   4   7   5    2.25    0.32
   4   7   5    1.91    0.32
  -5  -7  -5   77.05    2.14
  -5  -7  -5   79.35    2.08
   5   7   5   81.15    2.28
   5   7   5   81.27    2.17
  -6  -7  -5   66.73    1.82
  -6  -7  -5   66.64    1.87
   6   7   5   65.70    2.01
  -7  -7  -5   12.77    0.68
  -7  -7  -5   12.74    0.63
   7   7   5   13.01    0.58
   7   7   5   12.66    0.81
  -8  -7  -5   65.64    1.97
  -8  -7  -5   67.69    2.30
  -9  -7  -5   17.23    0.83
 -10  -7  -5   12.25    0.76
  10   7   5   12.73    1.16
 -11  -7  -5   46.29    1.63
  11   7   5   48.12    1.96
   7  -8  -5    8.84    1.05
  -7   8   5    7.64    0.94
   6  -8  -5    9.37    1.01
  -6   8   5    9.91    0.82
   5  -8  -5   36.54    1.57
  -5   8   5   40.34    1.47
   4  -8  -5    0.82    0.87
  -4   8   5    0.94    0.33
   3  -8  -5   40.28    1.38
   3  -8  -5   39.48    1.45
  -3   8   5   38.53    1.47
   2  -8  -5   26.25    1.09
   2  -8  -5   25.52    1.03
  -2   8   5   26.40    1.02
   1  -8  -5    1.78    0.34
   0  -8  -5   94.01    2.55
   0   8   5   93.43    2.60
   0   8   5   94.44    2.53
  -1  -8  -5   61.77    1.78
   1   8   5   62.41    1.79
   1   8   5   61.31    1.86
  -2  -8  -5    3.06    0.35
   2   8   5    2.67    0.39
   2   8   5    2.64    0.37
  -3  -8  -5   69.94    1.94
   3   8   5   70.01    1.95
  -4  -8  -5   48.20    1.45
  -4  -8  -5   48.55    1.35
   4   8   5   49.25    1.53
   4   8   5   48.34    1.45
  -5  -8  -5    2.01    0.34
  -5  -8  -5    2.98    0.32
   5   8   5    2.99    0.40
  -6  -8  -5   68.81    1.90
  -6  -8  -5   66.17    1.92
   6   8   5   68.68    1.97
   6   8   5   70.96    2.14
  -7  -8  -5   17.65    0.78
   7   8   5   17.65    0.75
  -8  -8  -5   36.16    1.24
  -9  -8  -5   50.29    1.64
 -10  -8  -5    7.23    0.68
  10   8   5    7.16    0.99
  11   8   5   24.01    1.45
   6  -9  -5    1.91    0.69
  -6   9   5    0.78    0.64
   5  -9  -5   23.99    1.36
  -5   9   5   24.66    1.18
   4  -9  -5   31.74    1.32
   4  -9  -5   34.06    1.50
  -4   9   5   32.38    1.31
   3  -9  -5    8.12    0.72
   3  -9  -5    7.96    0.85
  -3   9   5    8.58    0.67
   2  -9  -5   43.19    1.63
   2  -9  -5   45.22    1.52
   1  -9  -5    9.36    0.70
   0  -9  -5    9.39    0.66
   0   9   5    8.91    0.62
   0   9   5    9.12    0.64
  -1  -9  -5   63.21    1.91
   1   9   5   63.31    1.97
   1   9   5   65.68    1.89
  -2  -9  -5    5.75    0.51
   2   9   5    6.05    0.51
   2   9   5    5.79    0.55
  -3  -9  -5   28.16    1.04
   3   9   5   27.94    1.02
   3   9   5   27.52    1.10
  -4  -9  -5   57.97    1.57
  -4  -9  -5   57.69    1.73
  -5  -9  -5    8.69    0.57
  -5  -9  -5    8.69    0.49
   5   9   5    8.62    0.65
  -6  -9  -5   14.23    0.68
  -6  -9  -5   13.44    0.73
   6   9   5   14.30    0.78
  -7  -9  -5   49.56    1.71
   7   9   5   52.42    1.63
  -8  -9  -5    2.52    0.40
  -9  -9  -5   23.97    1.06
   9   9   5   23.84    1.33
 -10  -9  -5   25.64    1.13
  10   9   5   24.01    1.41
   5 -10  -5    0.53    0.64
   4 -10  -5   33.28    1.58
   4 -10  -5   31.03    1.38
  -4  10   5   33.43    1.36
   3 -10  -5   22.07    1.27
   3 -10  -5   25.92    1.19
  -3  10   5   24.83    1.14
   2 -10  -5   14.08    0.95
   2 -10  -5   16.95    1.09
   1 -10  -5   40.82    1.57
   0 -10  -5   15.99    0.94
   0  10   5   17.94    0.93
   0  10   5   17.98    0.88
   1  10   5   10.32    0.75
   1  10   5   11.72    0.71
  -2 -10  -5   64.24    2.01
   2  10   5   63.81    1.93
   2  10   5   66.21    2.07
  -3 -10  -5   11.11    0.76
   3  10   5   12.56    0.77
  -5 -10  -5   29.26    1.14
  -6 -10  -5    2.69    0.45
  -6 -10  -5    3.53    0.47
   6  10   5    3.39    0.51
  -7 -10  -5   13.62    0.74
  -7 -10  -5   13.49    0.83
   7  10   5   13.28    0.82
  -8 -10  -5   30.52    1.19
  -9 -10  -5   -0.66    0.36
   9  10   5    0.24    0.55
   3 -11  -5   41.12    1.59
   3 -11  -5   40.62    1.77
  -3  11   5   42.75    1.62
   2 -11  -5   17.07    1.03
   2 -11  -5   15.61    1.16
   1 -11  -5   13.83    1.06
   0 -11  -5   31.17    1.38
   0  11   5   29.78    1.30
   0  11   5   32.04    1.25
  -1 -11  -5    3.66    0.56
   1  11   5    3.89    0.58
   1  11   5    3.96    0.66
  -2 -11  -5   39.69    1.52
   2  11   5   39.44    1.53
  -3 -11  -5   56.52    1.89
   3  11   5   57.32    1.95
  -4 -11  -5    0.29    0.38
   4  11   5    0.84    0.43
  -5 -11  -5   39.16    1.48
  -6 -11  -5   25.70    1.16
  -7 -11  -5   -0.07    0.38
   7  11   5   -0.10    0.46
  -8 -11  -5   18.95    1.06
   1 -12  -5    0.69    0.58
   0 -12  -5   13.59    1.07
  -1 -12  -5   13.25    1.03
   1  12   5   12.73    0.93
  -2 -12  -5    0.18    0.50
   2  12   5    0.78    0.46
  -3 -12  -5   32.94    1.41
   3  12   5   30.84    1.40
  -4 -12  -5    8.14    0.85
   4  12   5    8.93    0.87
  -5 -12  -5   16.59    1.04
   5  12   5   19.75    1.12
  -6 -12  -5   43.85    1.65
  -5 -11   6   16.23    1.21
  -5 -11   6   18.66    1.19
  -4 -11   6   29.73    1.33
   3  11  -6    2.50    0.95
  -3 -11   6    2.69    0.60
   2  11  -6   25.75    1.50
  -2 -11   6   24.22    1.32
   1  11  -6   30.43    1.61
  -1 -11   6   29.62    1.40
   0  11  -6    1.84    0.84
   0 -11   6   -0.67    0.54
   1 -11   6   25.11    1.79
   7  10  -6    9.62    1.55
  -7 -10   6    8.40    1.02
  -7 -10   6   10.54    1.22
   6  10  -6   25.70    1.47
  -6 -10   6   26.09    1.20
   5  10  -6    4.44    0.76
  -5 -10   6    6.04    0.72
   4  10  -6   21.29    1.35
  -4 -10   6   21.62    1.03
   3  10  -6   31.04    1.56
  -3 -10   6   31.28    1.19
   2  10  -6    2.61    0.63
   1  10  -6   49.69    1.97
   0  10  -6   23.07    1.33
  -1  10  -6    4.01    0.71
  -2  10  -6   29.90    1.56
  -3  10  -6   15.34    1.20
   3 -10   6   15.08    1.15
  -8  -9   6   26.27    1.40
   7   9  -6    0.99    0.61
  -7  -9   6    0.40    0.43
   6   9  -6   35.22    1.64
  -6  -9   6   36.32    1.38
   5   9  -6   43.51    1.81
  -5  -9   6   43.03    1.52
   4   9  -6    2.85    0.61
  -4  -9   6    4.19    0.59
   3   9  -6   38.92    1.64
  -3  -9   6   36.61    1.38
   2   9  -6   39.55    1.66
  -2  -9   6   38.20    1.29
   1   9  -6    1.39    0.50
  -1  -9   6    1.06    0.29
   0   9  -6   50.82    1.92
  -1   9  -6   14.19    1.05
  -2   9  -6    2.22    0.57
  -3   9  -6   38.22    1.63
   5  -9   6   20.14    1.33
   9   8  -6   -0.05    0.59
   8   8  -6   37.27    1.62
  -8  -8   6   35.54    1.45
   7   8  -6   11.79    1.39
  -7  -8   6   12.94    0.88
   6   8  -6    8.23    0.94
  -6  -8   6    7.46    0.73
   5   8  -6   36.46    1.57
  -5  -8   6   35.07    1.30
   4   8  -6    5.27    0.77
  -4  -8   6    5.47    0.56
  -4  -8   6    5.74    0.73
   3   8  -6   47.85    1.78
  -3  -8   6   45.51    1.46
  -3  -8   6   46.44    1.48
   2   8  -6   32.67    1.88
  -2  -8   6   36.20    1.25
  -2  -8   6   35.81    1.18
  -1  -8   6   16.36    0.82
  -1  -8   6   16.37    0.71
   0   8  -6   23.30    1.41
   0  -8   6   24.11    1.02
   0  -8   6   24.53    0.89
  -1   8  -6   60.89    2.31
   1  -8   6   64.11    1.98
   1  -8   6   64.38    1.78
  -3   8  -6   14.45    0.83
  -4   8  -6   35.08    1.40
  -4   8  -6   32.74    1.41
  -5   8  -6    0.94    0.53
   6  -8   6   36.51    1.67
  10   7  -6   42.71    1.90
   9   7  -6    6.02    0.97
   9   7  -6    6.01    0.95
  -9  -7   6    7.43    0.79
   8   7  -6   22.05    1.22
  -8  -7   6   20.40    1.05
   7   7  -6   46.00    1.72
  -7  -7   6   47.03    1.61
   6   7  -6    0.45    0.46
   6   7  -6    0.60    0.40
  -6  -7   6    0.19    0.35
   5   7  -6   18.64    1.08
  -5  -7   6   17.81    0.79
  -5  -7   6   17.34    0.86
   4   7  -6   56.02    1.97
  -4  -7   6   55.31    1.70
  -4  -7   6   58.05    1.67
   3   7  -6    2.83    0.49
  -3  -7   6    3.20    0.40
  -3  -7   6    2.07    0.39
   2   7  -6   72.25    2.32
  -2  -7   6   72.63    2.03
  -2  -7   6   75.71    2.04
   1   7  -6   20.46    1.03
  -1  -7   6   20.63    0.84
  -1  -7   6   21.31    0.79
   0  -7   6    1.11    0.29
   0  -7   6    1.78    0.30
  -1   7  -6   99.83    2.87
  -1   7  -6  114.51    3.15
   1  -7   6  112.81    2.97
   1  -7   6  113.76    2.84
  -2   7  -6   34.63    1.26
  -2   7  -6   33.53    1.33
   2  -7   6   33.67    1.11
   2  -7   6   34.66    1.27
  -3   7  -6    7.94    0.78
  -3   7  -6    9.15    0.72
   3  -7   6    8.36    0.55
   3  -7   6    7.96    0.73
  -4   7  -6   44.87    1.56
  -4   7  -6   39.57    1.60
  -7   7  -6   55.48    2.10
   7  -7   6   56.93    2.16
  10   6  -6   36.58    1.68
 -10  -6   6   33.42    1.42
   9   6  -6   48.69    1.84
   9   6  -6   46.27    1.84
  -9  -6   6   45.17    1.66
   8   6  -6    2.57    0.61
   8   6  -6    1.98    0.55
  -8  -6   6    2.74    0.48
   7   6  -6   71.69    2.26
  -7  -6   6   69.87    2.13
   6   6  -6   58.02    1.89
  -6  -6   6   58.58    1.98
   5   6  -6    5.90    0.54
   5   6  -6    5.33    0.65
  -5  -6   6    5.53    0.52
   4   6  -6   94.54    2.82
  -4  -6   6   95.33    2.58
  -4  -6   6   97.64    2.50
   3   6  -6  107.69    3.10
  -3  -6   6  108.28    2.85
  -3  -6   6  111.17    2.79
   2   6  -6   50.26    1.71
  -2  -6   6   49.34    1.46
  -2  -6   6   51.13    1.45
   1   6  -6  113.11    3.22
  -1  -6   6  116.26    2.97
  -1  -6   6  119.78    2.98
   0   6  -6   32.40    1.02
   0   6  -6   32.29    1.24
   0  -6   6   32.94    1.08
   0  -6   6   32.43    1.01
  -1   6  -6    8.10    0.61
  -1   6  -6    8.38    0.68
   1  -6   6    8.45    0.53
   1  -6   6    8.29    0.45
  -2   6  -6  133.90    3.44
  -2   6  -6  111.66    3.31
   2  -6   6  129.60    3.30
   2  -6   6  128.94    3.20
  -3   6  -6   17.22    0.93
  -3   6  -6   15.26    0.81
   3  -6   6   16.09    0.82
   3  -6   6   15.03    0.69
  -4   6  -6   16.61    1.00
  -4   6  -6   17.11    0.83
   4  -6   6   16.10    0.74
   4  -6   6   15.91    0.90
   5  -6   6   55.32    2.09
   5  -6   6   58.60    1.75
  -7   6  -6   19.76    1.28
  -8   6  -6   40.00    1.79
   8  -6   6   41.12    1.78
  11   5  -6   11.53    1.38
  10   5  -6    0.09    0.57
 -10  -5   6    0.60    0.41
   9   5  -6   36.35    1.53
   9   5  -6   38.63    1.61
  -9  -5   6   36.31    1.42
   8   5  -6   45.78    1.90
   8   5  -6   47.37    1.77
  -8  -5   6   46.91    1.59
   7   5  -6    0.53    0.35
   7   5  -6    0.11    0.39
  -7  -5   6   -0.07    0.49
   6   5  -6  114.10    3.15
  -6  -5   6  116.18    3.08
   5   5  -6   33.92    1.24
  -5  -5   6   38.34    1.24
   4   5  -6    2.61    0.43
   4   5  -6    1.72    0.32
  -4  -5   6    1.88    0.31
   3   5  -6  103.29    3.00
  -3  -5   6  106.51    2.79
  -3  -5   6  112.70    2.72
   2   5  -6   45.11    1.61
   2   5  -6   49.73    1.27
  -2  -5   6   51.14    1.43
  -2  -5   6   50.67    1.38
   1   5  -6  118.46    2.86
   1   5  -6  114.40    3.16
  -1  -5   6  116.24    2.89
  -1  -5   6  113.43    2.92
   0   5  -6  131.12    3.27
   0   5  -6  130.65    3.49
   0  -5   6  126.13    3.24
   0  -5   6  135.19    3.27
  -1   5  -6   33.37    1.23
  -1   5  -6   35.85    1.16
   1  -5   6   33.10    1.04
   1  -5   6   34.36    1.10
  -2   5  -6   71.58    2.08
  -2   5  -6   68.42    2.05
   2  -5   6   70.21    1.95
   2  -5   6   71.04    1.90
  -3   5  -6  149.78    3.91
  -3   5  -6  151.84    4.00
   3  -5   6  151.03    3.79
   3  -5   6  153.91    3.88
  -4   5  -6    0.63    0.27
  -4   5  -6    1.02    0.39
   4  -5   6    1.16    0.33
   4  -5   6    0.85    0.24
  -5   5  -6   45.30    1.42
   5  -5   6   42.93    1.54
   5  -5   6   45.03    1.42
  -6   5  -6   26.30    1.96
   6  -5   6   24.63    1.02
   6  -5   6   26.43    1.22
  -7   5  -6    0.18    0.54
  -8   5  -6   22.28    1.37
  -9   5  -6   12.03    1.19
   9  -5   6    8.36    1.04
  11   4  -6   32.73    1.66
 -11  -4   6   31.06    1.61
  10   4  -6   22.50    1.30
 -10  -4   6   22.62    1.11
   9   4  -6    9.16    0.89
   9   4  -6    9.96    0.85
  -9  -4   6    8.57    0.76
   8   4  -6   37.66    1.52
   8   4  -6   37.83    1.48
  -8  -4   6   39.38    1.38
   7   4  -6   22.09    1.01
   7   4  -6   21.34    1.09
  -7  -4   6   23.08    0.96
   6   4  -6   10.51    0.74
   6   4  -6   11.63    0.66
  -6  -4   6   11.44    0.63
   5   4  -6   67.49    1.97
  -5  -4   6   68.42    1.92
   4   4  -6    9.54    0.56
   4   4  -6    9.13    0.62
  -4  -4   6    8.89    0.51
   3   4  -6    3.72    0.44
   3   4  -6    3.71    0.19
   3   4  -6    3.72    0.30
  -3  -4   6    3.97    0.35
   2   4  -6   88.00    2.49
   2   4  -6   88.76    2.14
  -2  -4   6   85.55    2.27
   1   4  -6   19.00    0.62
   1   4  -6   17.63    0.83
  -1  -4   6   19.21    0.61
  -1  -4   6   18.97    0.68
   0   4  -6   45.87    1.49
   0   4  -6   46.37    1.29
   0  -4   6   44.82    1.24
   0  -4   6   45.70    1.29
  -1   4  -6   42.40    1.39
   1  -4   6   43.52    1.24
  -2   4  -6    0.66    0.28
  -2   4  -6    0.11    0.26
   2  -4   6    0.24    0.15
  -3   4  -6  137.77    3.45
  -3   4  -6  130.93    3.49
   3  -4   6  127.84    3.36
   3  -4   6  133.20    3.34
  -4   4  -6   67.98    2.12
  -4   4  -6   69.41    1.96
   4  -4   6   67.32    1.91
   4  -4   6   70.28    1.98
  -5   4  -6    9.95    0.72
   5  -4   6    9.99    0.57
   5  -4   6   10.14    0.66
  -6   4  -6   56.47    2.04
   6  -4   6   57.12    1.74
   6  -4   6   59.05    1.87
  -7   4  -6   13.76    1.08
   7  -4   6   11.50    1.37
   7  -4   6   11.90    0.75
  -8   4  -6    5.70    0.97
   8  -4   6    4.45    0.67
  -9   4  -6   28.66    1.60
  10  -4   6    2.56    0.70
  11   3  -6   16.04    1.25
 -11  -3   6   13.20    0.93
  10   3  -6   63.33    2.24
 -10  -3   6   62.09    2.01
   9   3  -6    2.59    0.50
   9   3  -6    1.90    0.49
  -9  -3   6    2.59    0.42
   8   3  -6   61.72    2.01
   8   3  -6   61.79    2.04
   7   3  -6   56.81    1.83
   7   3  -6   59.67    1.94
  -7  -3   6   59.32    1.77
   6   3  -6    5.36    0.58
   6   3  -6    4.53    0.45
  -6  -3   6    5.18    0.47
   5   3  -6  114.46    3.08
   5   3  -6  117.78    3.24
  -5  -3   6  121.41    2.84
   4   3  -6   51.96    1.53
   4   3  -6   53.09    1.71
  -4  -3   6   58.14    1.58
  -4  -3   6   52.21    1.36
   3   3  -6    4.44    0.29
   3   3  -6    5.13    0.49
  -3  -3   6    4.38    0.35
   2   3  -6   34.92    1.25
   2   3  -6   36.25    0.96
  -2  -3   6   36.91    0.97
  -2  -3   6   35.43    1.07
   1   3  -6   90.94    2.26
   1   3  -6   90.76    2.53
  -1  -3   6   94.00    2.24
  -1  -3   6   90.88    2.34
   0   3  -6    6.87    0.35
   0   3  -6    6.78    0.51
   0  -3   6    6.97    0.36
   0  -3   6    7.40    0.31
  -1   3  -6   31.96    0.97
  -1   3  -6   28.95    1.22
   1  -3   6   32.34    0.90
   1  -3   6   30.91    0.95
  -2   3  -6   22.28    0.84
   2  -3   6   22.69    0.73
   2  -3   6   21.93    0.76
  -3   3  -6    0.78    0.28
  -3   3  -6    1.09    0.20
   3  -3   6    0.70    0.18
   3  -3   6    0.74    0.19
  -4   3  -6   75.97    2.05
  -4   3  -6   76.91    2.24
   4  -3   6   74.51    2.07
   4  -3   6   78.67    2.11
  -5   3  -6   43.72    1.25
  -5   3  -6   43.72    1.55
   5  -3   6   42.15    1.38
   5  -3   6   42.17    1.34
  -6   3  -6   14.63    0.97
   6  -3   6   14.30    0.76
   6  -3   6   14.38    0.71
  -7   3  -6   75.22    2.55
   7  -3   6   77.41    2.22
   7  -3   6   76.34    2.30
  -8   3  -6   18.54    1.22
   8  -3   6   17.93    0.96
  -9   3  -6   19.82    1.33
   9  -3   6   20.66    1.10
 -10   3  -6   38.82    1.81
  11   2  -6    1.83    0.65
  10   2  -6   22.11    1.28
   8   2  -6    8.59    0.79
   8   2  -6    8.77    0.71
   7   2  -6  105.16    2.90
   7   2  -6  100.89    2.93
  -7  -2   6  106.23    2.64
   6   2  -6   72.77    2.11
   6   2  -6   71.96    2.20
  -6  -2   6   76.71    1.90
   5   2  -6   18.57    0.89
   5   2  -6   19.73    0.79
  -5  -2   6   18.45    0.75
  -5  -2   6   20.67    0.62
   4   2  -6  345.12    8.20
   4   2  -6  345.08    8.39
  -4  -2   6  343.82    8.20
  -4  -2   6  353.71    8.08
   3   2  -6   39.07    1.33
   3   2  -6   38.55    1.12
  -3  -2   6   40.79    1.17
  -3  -2   6   38.98    1.06
   2   2  -6   58.39    1.77
   2   2  -6   60.11    1.54
  -2  -2   6   59.37    1.51
   1   2  -6  182.92    4.25
  -1  -2   6  186.26    4.19
  -1  -2   6  168.54    4.41
   0   2  -6   30.14    0.88
   0   2  -6   30.45    1.03
   0  -2   6   30.48    0.80
  -1   2  -6  134.20    3.34
  -1   2  -6  136.95    3.46
   1  -2   6  137.35    3.24
  -2   2  -6  155.99    3.80
  -2   2  -6  154.57    3.84
   2  -2   6  149.53    3.76
   2  -2   6  155.58    3.69
  -3   2  -6   26.81    0.96
  -3   2  -6   26.27    0.87
   3  -2   6   26.81    0.82
   3  -2   6   26.10    0.89
  -4   2  -6   53.83    1.65
  -4   2  -6   57.73    1.49
   4  -2   6   46.23    1.47
   4  -2   6   54.85    1.54
  -5   2  -6  149.79    3.96
  -5   2  -6  157.90    3.68
   5  -2   6  142.60    3.79
   5  -2   6  153.04    3.82
  -6   2  -6   10.74    0.81
   6  -2   6   10.49    0.60
   6  -2   6   10.85    0.62
  -7   2  -6   65.17    2.20
   7  -2   6   65.89    1.95
   7  -2   6   65.17    1.99
  -8   2  -6   63.01    2.26
   8  -2   6   65.46    1.99
   8  -2   6   63.89    2.06
  -9   2  -6   -0.28    0.49
   9  -2   6    1.03    0.43
 -10   2  -6   38.19    1.84
  10  -2   6   41.72    1.62
  11  -2   6   16.59    1.34
  11   1  -6   23.55    1.41
  10   1  -6   -0.21    0.52
   9   1  -6   47.13    2.08
  -9  -1   6   49.87    1.72
   8   1  -6   35.00    1.38
   8   1  -6   37.14    1.43
  -8  -1   6   36.27    1.15
  -8  -1   6   36.72    1.25
   7   1  -6   25.82    1.04
   7   1  -6   25.69    1.12
  -7  -1   6   25.73    0.96
  -7  -1   6   26.74    0.88
   6   1  -6   65.68    2.04
   6   1  -6   67.20    1.96
  -6  -1   6   67.10    1.87
  -6  -1   6   70.25    1.82
   5   1  -6   27.62    1.09
  -5  -1   6   28.85    0.87
  -5  -1   6   28.99    0.95
   4   1  -6   93.18    2.59
   4   1  -6   94.65    2.42
  -4  -1   6   92.02    2.42
  -4  -1   6   95.95    2.35
   3   1  -6  254.85    6.06
   3   1  -6  254.33    6.27
  -3  -1   6  254.80    6.10
  -3  -1   6  263.96    6.05
   2   1  -6   10.21    0.37
  -2  -1   6   10.41    0.39
  -2  -1   6   10.06    0.46
   1   1  -6   71.73    1.96
  -1  -1   6   67.92    1.69
  -1  -1   6   70.62    1.79
  -1  -1   6   69.64    1.81
  -1  -1   6   72.67    1.67
   0   1  -6  249.72    5.85
   0  -1   6  237.08    5.69
   0  -1   6  237.90    5.57
  -1   1  -6    9.31    0.46
  -1   1  -6    9.92    0.40
   1  -1   6   10.61    0.31
   1  -1   6    8.78    0.38
   1  -1   6    8.15    0.29
  -2   1  -6  182.90    4.23
  -2   1  -6  178.64    4.19
   2  -1   6  152.54    4.24
   2  -1   6  172.72    4.05
  -3   1  -6  117.48    3.06
  -3   1  -6  124.21    3.02
   3  -1   6  122.08    2.93
   3  -1   6  116.31    3.02
  -4   1  -6   25.26    0.95
  -4   1  -6   24.80    0.80
   4  -1   6   26.90    0.89
   4  -1   6   25.08    0.80
  -5   1  -6  199.13    4.65
  -5   1  -6  192.71    4.92
   5  -1   6  194.57    4.82
  -6   1  -6   68.05    2.07
   6  -1   6   65.48    1.92
   6  -1   6   66.29    1.91
  -7   1  -6   25.17    1.21
   7  -1   6   27.04    1.03
   7  -1   6   26.18    1.04
  -8   1  -6   87.89    2.79
   8  -1   6   86.13    2.49
   8  -1   6   85.41    2.53
  -9   1  -6   20.41    1.27
   9  -1   6   20.00    1.07
 -10   1  -6    9.73    1.09
  10  -1   6    8.14    0.88
 -11   1  -6   34.24    1.77
  11  -1   6   35.81    2.14
  11   0  -6   41.08    1.83
  10   0  -6   13.85    1.06
 -10   0   6   12.85    0.76
   9   0  -6   13.72    0.92
  -9   0   6   11.08    0.72
  -9   0   6   13.27    0.73
   8   0  -6   86.80    2.61
   8   0  -6   88.63    2.63
  -8   0   6   89.19    2.43
  -8   0   6   91.66    2.43
   7   0  -6    8.77    0.61
   7   0  -6   10.49    0.73
  -7   0   6    9.82    0.52
  -7   0   6    8.69    0.53
   6   0  -6   51.99    1.60
   6   0  -6   52.10    1.69
  -6   0   6   52.45    1.49
  -6   0   6   53.17    1.52
   5   0  -6   79.45    2.29
  -5   0   6   80.18    2.09
  -5   0   6   80.45    2.11
   4   0  -6   11.25    0.64
   4   0  -6   10.35    0.45
  -4   0   6   11.81    0.51
  -4   0   6   10.60    0.44
   3   0  -6  145.14    3.77
   3   0  -6  148.43    3.57
  -3   0   6  151.91    3.61
  -3   0   6  146.30    3.59
   2   0  -6  148.60    3.88
   2   0  -6  150.72    3.53
  -2   0   6  150.06    3.60
  -2   0   6  147.64    3.61
   1   0  -6    7.93    0.44
  -1   0   6    8.18    0.34
  -1   0   6    7.53    0.32
   0   0  -6  183.95    4.50
   0   0   6  183.55    4.40
   0   0   6  184.26    4.38
  -1   0  -6  123.71    3.03
   1   0   6  116.65    2.94
  -2   0  -6    5.60    0.20
  -2   0  -6    6.07    0.33
  -2   0  -6    6.00    0.35
   2   0   6    6.46    0.32
   2   0   6    6.23    0.23
  -3   0  -6   81.77    2.36
  -3   0  -6   87.15    2.21
   3   0   6   87.41    2.27
   3   0   6   88.15    2.12
  -4   0  -6    7.36    0.35
  -4   0  -6    7.24    0.48
   4   0   6    6.48    0.32
   4   0   6    6.11    0.40
  -5   0  -6   26.88    1.01
  -5   0  -6   28.54    0.79
   5   0   6   26.73    0.95
  -6   0  -6   49.04    1.59
   6   0   6   48.10    1.47
   6   0   6   47.86    1.49
  -7   0  -6    6.23    0.65
   7   0   6    6.05    0.52
   7   0   6    4.90    0.48
  -8   0  -6   27.08    1.30
   8   0   6   27.17    1.12
   8   0   6   29.56    1.19
  -9   0  -6   57.20    2.10
   9   0   6   57.73    1.94
   9   0   6   54.82    2.25
 -10   0  -6   12.82    1.14
  10   0   6   12.19    0.96
 -11   0  -6   27.99    1.63
  11  -1  -6   17.98    1.34
  10  -1  -6   38.19    1.68
 -10   1   6   41.65    1.47
   9  -1  -6    3.47    0.60
  -9   1   6    4.28    0.57
   8  -1  -6   22.50    1.03
   8  -1  -6   20.16    1.06
  -8   1   6   20.22    0.84
  -8   1   6   20.90    0.87
   7  -1  -6   57.30    1.81
   7  -1  -6   57.17    1.86
  -7   1   6   57.55    1.63
  -7   1   6   57.75    1.68
   6  -1  -6    3.40    0.51
   6  -1  -6    3.04    0.39
  -6   1   6    2.60    0.33
  -6   1   6    3.44    0.34
   5  -1  -6   90.19    2.52
   5  -1  -6   90.07    2.44
  -5   1   6   90.79    2.34
  -5   1   6   92.86    2.38
   4  -1  -6   81.34    2.09
   4  -1  -6   78.88    2.22
  -4   1   6   80.08    2.09
  -4   1   6   78.86    2.12
   3  -1  -6   16.25    0.53
   3  -1  -6   15.16    0.71
  -3   1   6   14.22    0.51
  -3   1   6   16.17    0.58
   2  -1  -6  264.24    6.09
  -2   1   6  259.43    6.19
  -2   1   6  262.25    6.14
   1  -1  -6   85.78    2.26
  -1   1   6   88.35    2.14
  -1   1   6   85.21    2.19
   0  -1  -6   68.93    1.84
   0   1   6   68.94    1.75
   0   1   6   69.11    1.80
  -1  -1  -6  178.19    4.27
   1   1   6  175.50    4.24
   1   1   6  174.20    4.21
  -2  -1  -6   24.72    0.77
   2   1   6   23.47    0.75
   2   1   6   22.92    0.61
  -3  -1  -6   23.47    0.76
   3   1   6   24.81    0.69
  -4  -1  -6   97.72    2.56
  -4  -1  -6   99.14    2.43
   4   1   6   95.52    2.54
   4   1   6   97.67    2.44
  -5  -1  -6   20.87    0.84
  -5  -1  -6   22.06    0.64
   5   1   6   20.98    0.79
   5   1   6   18.61    0.70
  -6  -1  -6   10.16    0.62
   6   1   6    9.22    0.54
   6   1   6    9.78    0.59
  -7  -1  -6   56.41    1.83
   7   1   6   56.54    1.72
   7   1   6   56.67    1.74
  -8  -1  -6    5.22    0.68
   8   1   6    6.21    0.60
   8   1   6    5.83    0.60
  -9  -1  -6   19.34    1.27
   9   1   6   18.16    1.48
   9   1   6   20.03    1.05
 -10  -1  -6   44.87    1.94
  10   1   6   46.41    1.72
 -11  -1  -6    4.11    0.61
 -11  -1  -6    3.23    0.73
 -12  -1  -6   29.86    1.59
  12   1   6   31.53    1.81
  10  -2  -6   48.37    1.93
 -10   2   6   48.20    1.69
   9  -2  -6   43.92    1.72
  -9   2   6   44.06    1.53
   8  -2  -6    1.37    0.47
   8  -2  -6    0.02    0.38
  -8   2   6    0.48    0.32
   7  -2  -6   65.40    2.02
   7  -2  -6   64.51    1.98
  -7   2   6   63.72    1.75
  -7   2   6   62.85    1.87
   6  -2  -6   47.00    1.51
   6  -2  -6   49.12    1.58
  -6   2   6   47.96    1.36
  -6   2   6   48.53    1.46
   5  -2  -6   12.36    0.62
   5  -2  -6   11.54    0.67
  -5   2   6   11.83    0.56
   4  -2  -6   70.46    1.86
   4  -2  -6   67.09    1.95
  -4   2   6   69.00    1.88
  -4   2   6   69.97    1.76
   3  -2  -6    8.73    0.37
   3  -2  -6    8.13    0.52
  -3   2   6    7.92    0.43
   2  -2  -6   67.67    1.81
   2  -2  -6   67.45    1.65
  -2   2   6   61.04    1.64
   1  -2  -6  161.27    3.82
   1  -2  -6  163.11    4.01
  -1   2   6  165.82    3.88
  -1   2   6  166.17    3.98
  -1   2   6  160.58    3.78
   0  -2  -6   54.13    1.46
   0   2   6   51.35    1.37
   0   2   6   53.53    1.45
  -1  -2  -6   83.42    2.14
   1   2   6   81.22    2.15
   1   2   6   86.93    2.12
  -2  -2  -6  209.05    4.92
  -2  -2  -6  207.77    4.79
   2   2   6  204.41    4.96
   2   2   6  200.70    4.79
   2   2   6  210.98    4.95
  -3  -2  -6   40.95    1.35
  -3  -2  -6   45.34    1.19
   3   2   6   40.54    1.33
   3   2   6   45.45    1.14
  -4  -2  -6   80.62    2.00
  -4  -2  -6   78.43    2.13
   4   2   6   80.15    2.03
   4   2   6   77.83    2.11
  -5  -2  -6  155.55    3.64
  -5  -2  -6  151.90    3.84
   5   2   6  147.09    3.81
   5   2   6  152.21    3.75
  -6  -2  -6    0.17    0.22
   6   2   6   -0.07    0.25
   6   2   6    0.08    0.19
  -7  -2  -6   98.10    2.78
   7   2   6  100.53    2.71
   7   2   6   99.01    2.73
  -8  -2  -6   52.83    1.80
   8   2   6   50.26    1.68
   8   2   6   52.12    1.68
  -9  -2  -6    6.83    0.81
   9   2   6    7.84    0.76
   9   2   6    8.19    0.73
 -10  -2  -6   31.22    1.55
  10   2   6   32.51    1.40
 -11  -2  -6   19.95    0.92
 -11  -2  -6   17.33    1.36
 -12  -2  -6    4.29    0.80
 -12  -2  -6    3.16    0.66
  12   2   6    2.66    0.71
  10  -3  -6    5.94    1.02
 -10   3   6    6.08    0.77
   9  -3  -6   76.97    2.53
  -9   3   6   77.39    2.34
   8  -3  -6   21.22    1.09
   8  -3  -6   20.61    1.66
  -8   3   6   23.39    1.00
   7  -3  -6   24.20    1.07
   7  -3  -6   23.29    1.11
  -7   3   6   25.03    1.00
   6  -3  -6  129.20    3.44
   6  -3  -6  128.10    3.43
  -6   3   6  131.78    3.38
   5  -3  -6   28.79    1.04
   5  -3  -6   29.28    1.07
  -5   3   6   29.86    0.83
  -5   3   6   28.80    1.01
   4  -3  -6   38.78    1.26
  -4   3   6   40.01    1.05
  -4   3   6   38.41    1.21
   3  -3  -6  114.88    3.00
   3  -3  -6  119.88    2.93
  -3   3   6  116.93    2.80
  -3   3   6  115.50    2.97
   2  -3  -6    6.81    0.45
   2  -3  -6    7.40    0.33
  -2   3   6    7.27    0.28
  -2   3   6    6.53    0.39
   1  -3  -6   53.69    1.30
   1  -3  -6   49.57    1.41
  -1   3   6   48.09    1.40
  -1   3   6   48.33    1.28
   0  -3  -6  123.35    2.63
   0  -3  -6  112.01    2.86
   0   3   6   95.64    2.66
  -1  -3  -6    2.35    0.13
  -1  -3  -6    2.77    0.23
  -1  -3  -6    3.04    0.26
   1   3   6    2.24    0.22
   1   3   6    2.63    0.19
  -2  -3  -6  197.70    4.74
  -2  -3  -6  206.45    4.86
   2   3   6  208.80    4.90
  -3  -3  -6  152.84    3.58
   3   3   6  146.57    3.56
   3   3   6  143.20    3.75
   3   3   6  150.79    3.67
  -4  -3  -6    0.34    0.11
  -4  -3  -6    0.71    0.22
   4   3   6    0.62    0.13
  -5  -3  -6  125.51    2.91
  -5  -3  -6  124.03    3.11
   5   3   6  120.19    3.10
   5   3   6  109.64    3.01
  -6  -3  -6   38.69    1.03
  -6  -3  -6   40.02    1.30
   6   3   6   37.93    1.25
   6   3   6   37.43    1.26
  -7  -3  -6   18.45    0.86
   7   3   6   18.84    0.86
   7   3   6   19.21    0.85
  -8  -3  -6   71.26    2.20
   8   3   6   72.44    2.16
   8   3   6   70.24    2.15
  -9  -3  -6    1.44    0.47
   9   3   6    1.00    0.37
   9   3   6    0.81    0.39
 -10  -3  -6   29.98    1.47
 -11  -3  -6   30.66    1.64
 -11  -3  -6   30.29    1.19
 -12  -3  -6    3.21    0.82
 -12  -3  -6    2.99    0.72
  12   3   6    3.35    0.77
  10  -4  -6    3.49    0.96
   9  -4  -6   21.76    1.25
  -9   4   6   20.57    1.08
   8  -4  -6   48.94    1.82
   8  -4  -6   51.76    2.09
  -8   4   6   50.06    1.70
   7  -4  -6    1.80    0.44
   7  -4  -6    2.31    0.51
  -7   4   6    1.63    0.36
   6  -4  -6   52.06    1.69
   6  -4  -6   50.23    1.68
  -6   4   6   54.76    1.66
   5  -4  -6   68.74    2.02
   5  -4  -6   69.20    2.01
  -5   4   6   70.19    2.00
   4  -4  -6    0.45    0.23
   4  -4  -6   -0.24    0.20
  -4   4   6    0.02    0.15
   3  -4  -6  149.04    3.70
   3  -4  -6  150.20    3.66
  -3   4   6  144.27    3.69
  -3   4   6  144.26    3.46
   2  -4  -6  107.59    2.66
   2  -4  -6  107.45    2.73
  -2   4   6  102.94    2.72
  -2   4   6  104.20    2.53
   1  -4  -6   37.00    1.03
   1  -4  -6   36.62    1.12
  -1   4   6   34.50    1.10
  -1   4   6   37.21    0.98
   0  -4  -6  143.38    3.40
   0  -4  -6  143.11    3.51
   0   4   6  140.96    3.54
   0   4   6  141.45    3.41
  -1  -4  -6   46.14    1.17
  -1  -4  -6   44.79    1.28
   1   4   6   44.75    1.32
  -2  -4  -6   78.40    1.96
  -2  -4  -6   80.18    2.07
   2   4   6   81.53    2.13
   2   4   6   82.30    2.07
  -3  -4  -6  160.04    3.78
   3   4   6  153.20    3.86
   3   4   6  155.96    3.79
  -4  -4  -6    5.55    0.28
  -4  -4  -6    5.71    0.40
   4   4   6    4.53    0.39
   4   4   6    5.01    0.30
  -5  -4  -6   42.19    1.31
  -5  -4  -6   42.58    1.14
   5   4   6   42.03    1.32
  -6  -4  -6   72.78    2.08
  -6  -4  -6   74.87    1.84
   6   4   6   72.94    2.07
   6   4   6   73.23    2.09
  -7  -4  -6   10.32    0.64
   7   4   6    9.93    0.63
   7   4   6    9.84    0.63
  -8  -4  -6   16.40    0.90
   8   4   6   18.13    0.88
   8   4   6   17.51    0.91
  -9  -4  -6   46.91    1.74
   9   4   6   47.72    1.67
   9   4   6   47.77    1.72
 -10  -4  -6    0.88    0.31
 -10  -4  -6    0.59    0.51
 -11  -4  -6   25.14    1.08
 -11  -4  -6   25.42    1.52
 -12  -4  -6   27.44    1.67
  12   4   6   30.21    1.82
   9  -5  -6    0.44    0.59
  -9   5   6    0.47    0.44
   8  -5  -6   38.88    1.65
  -8   5   6   39.58    1.49
   7  -5  -6   35.14    1.42
   7  -5  -6   30.40    1.34
  -7   5   6   33.31    1.30
   6  -5  -6    7.92    0.72
   6  -5  -6    7.89    0.70
  -6   5   6    8.49    0.61
   5  -5  -6   85.39    2.49
   5  -5  -6   87.48    2.45
  -5   5   6   89.93    2.47
   4  -5  -6   23.53    0.93
  -4   5   6   22.89    0.90
   3  -5  -6   19.92    0.80
   3  -5  -6   18.97    0.79
  -3   5   6   19.14    0.77
   2  -5  -6  129.26    3.27
  -2   5   6  126.89    3.28
  -2   5   6  129.13    3.03
   1  -5  -6    1.22    0.19
   1  -5  -6    0.68    0.21
  -1   5   6    1.07    0.12
   0  -5  -6  144.57    3.61
   0  -5  -6  144.47    3.53
   0   5   6  143.33    3.63
   0   5   6  149.30    3.48
  -1  -5  -6   68.89    1.86
  -1  -5  -6   70.73    1.77
   1   5   6   66.90    1.88
   1   5   6   70.33    1.78
  -2  -5  -6    0.73    0.22
  -2  -5  -6    0.46    0.11
   2   5   6    0.75    0.18
   2   5   6    0.23    0.10
  -3  -5  -6  107.41    2.70
  -3  -5  -6  107.53    2.63
   3   5   6  107.06    2.77
  -4  -5  -6   71.37    2.00
   4   5   6   75.25    2.02
   4   5   6   74.84    2.01
  -5  -5  -6    0.27    0.18
   5   5   6    0.19    0.20
   5   5   6    0.27    0.23
  -6  -5  -6   54.45    1.63
  -6  -5  -6   55.47    1.43
   6   5   6   53.88    1.65
   6   5   6   52.59    1.69
  -7  -5  -6   67.66    1.97
   7   5   6   65.23    1.98
   7   5   6   64.41    1.98
  -8  -5  -6    2.56    0.45
   8   5   6    2.29    0.40
   8   5   6    2.54    0.44
  -9  -5  -6   55.41    1.94
   9   5   6   59.61    1.99
 -10  -5  -6   39.61    1.64
 -10  -5  -6   40.43    1.40
 -11  -5  -6    3.19    0.54
 -11  -5  -6    1.86    0.61
  12   5   6   25.01    1.57
   8  -6  -6    3.46    0.69
  -8   6   6    4.28    0.72
   7  -6  -6   53.68    1.85
   7  -6  -6   54.23    1.97
  -7   6   6   52.93    1.81
  -6   6   6   24.73    1.09
   5  -6  -6   44.32    1.60
  -5   6   6   48.47    1.58
   4  -6  -6  106.55    2.95
  -4   6   6  109.41    2.94
   3  -6  -6   21.64    0.88
   3  -6  -6   21.41    0.88
  -3   6   6   20.46    0.85
   2  -6  -6   27.17    1.00
   2  -6  -6   27.85    0.99
  -2   6   6   28.57    1.00
   1  -6  -6  137.30    3.41
   1  -6  -6  138.34    3.45
  -1   6   6  130.55    3.44
   0  -6  -6    0.55    0.19
   0   6   6    0.03    0.09
   0   6   6    0.21    0.15
  -1  -6  -6   34.83    1.10
  -1  -6  -6   36.48    1.04
   1   6   6   35.40    0.99
   1   6   6   34.58    1.13
  -2  -6  -6   37.62    1.16
  -2  -6  -6   40.53    1.11
   2   6   6   38.06    1.20
   2   6   6   38.39    1.10
  -3  -6  -6    0.42    0.18
   3   6   6    0.35    0.19
   3   6   6    0.35    0.17
  -4  -6  -6   95.16    2.47
   4   6   6   98.74    2.56
   4   6   6   96.55    2.55
  -5  -6  -6   53.37    1.57
  -5  -6  -6   52.47    1.47
   5   6   6   55.04    1.62
   5   6   6   52.47    1.60
  -6  -6  -6    2.77    0.40
  -6  -6  -6    3.14    0.34
   6   6   6    2.78    0.42
   6   6   6    3.28    0.41
  -7  -6  -6   59.04    1.81
   7   6   6   59.30    1.86
   7   6   6   59.32    1.92
  -8  -6  -6   27.58    1.14
  -8  -6  -6   26.15    1.16
   8   6   6   27.41    1.19
  -9  -6  -6    1.39    0.43
  -9  -6  -6    2.60    0.46
 -10  -6  -6   40.70    1.62
 -10  -6  -6   40.11    1.41
 -11  -6  -6    5.22    0.61
   8  -7  -6    4.50    0.80
   7  -7  -6    6.36    0.86
   7  -7  -6    8.20    1.00
  -7   7   6    8.09    0.77
   6  -7  -6   45.71    1.77
  -6   7   6   45.73    1.62
   5  -7  -6   13.75    1.33
  -5   7   6   12.91    0.81
   4  -7  -6   44.48    1.59
  -4   7   6   46.49    1.53
   3  -7  -6   68.22    2.00
   3  -7  -6   64.82    2.01
  -3   7   6   69.12    2.01
   2  -7  -6   21.01    0.90
   2  -7  -6   22.68    0.92
  -2   7   6   21.33    0.88
   1  -7  -6   81.62    2.25
   1  -7  -6   81.19    2.23
  -1   7   6   81.40    2.26
   0  -7  -6  201.88    4.98
   0  -7  -6  201.93    4.94
  -1  -7  -6    0.86    0.23
  -1  -7  -6    0.74    0.23
  -2  -7  -6   70.85    1.90
   2   7   6   70.99    1.97
   2   7   6   69.27    1.83
  -3  -7  -6   75.35    2.04
   3   7   6   77.41    2.06
   3   7   6   77.42    2.11
  -4  -7  -6    8.17    0.45
   4   7   6    8.79    0.51
   4   7   6    8.81    0.51
  -5  -7  -6   84.61    2.31
  -6  -7  -6    8.67    0.53
  -6  -7  -6    9.31    0.49
  -6  -7  -6   10.08    0.60
   6   7   6    9.50    0.63
  -7  -7  -6   25.62    1.03
  -7  -7  -6   26.28    0.95
   7   7   6   26.75    1.14
  -8  -7  -6   33.93    1.17
  -8  -7  -6   33.79    1.28
   8   7   6   34.20    1.40
  -9  -7  -6    4.30    0.54
  -9  -7  -6    5.39    0.87
 -10  -7  -6    5.14    0.61
 -11  -7  -6   14.83    0.90
   7  -8  -6   -0.10    0.66
   6  -8  -6   13.86    1.13
  -6   8   6   11.48    0.87
   5  -8  -6   31.49    1.44
  -5   8   6   31.78    1.30
   4  -8  -6    1.68    0.58
   4  -8  -6    1.37    0.43
  -4   8   6    0.93    0.37
   3  -8  -6   47.80    1.60
   3  -8  -6   47.02    1.65
  -3   8   6   48.93    1.60
   2  -8  -6   17.10    0.89
   2  -8  -6   17.85    0.89
  -2   8   6   18.29    0.85
   1  -8  -6    0.40    0.27
   1  -8  -6    0.08    0.27
   0  -8  -6   89.46    2.44
   0  -8  -6   88.37    2.45
  -1  -8  -6   25.18    0.93
   1   8   6   25.93    0.97
  -2  -8  -6   30.59    1.04
   2   8   6   31.11    1.09
  -3  -8  -6   69.06    1.80
  -3  -8  -6   70.25    1.94
   3   8   6   69.60    1.98
  -4  -8  -6   15.41    0.58
  -4  -8  -6   13.99    0.64
   4   8   6   14.37    0.72
   4   8   6   15.79    0.71
  -5  -8  -6   36.51    1.11
  -5  -8  -6   35.37    1.17
  -6  -8  -6   55.23    1.58
  -6  -8  -6   54.04    1.65
  -7  -8  -6    0.30    0.29
  -7  -8  -6    0.60    0.26
   7   8   6    0.14    0.39
  -8  -8  -6   41.48    1.38
  -9  -8  -6   27.10    1.11
 -10  -8  -6    0.39    0.36
   6  -9  -6    5.43    0.82
   5  -9  -6   24.44    1.38
  -5   9   6   26.79    1.19
   4  -9  -6   10.23    0.97
   4  -9  -6   10.82    0.89
  -4   9   6   10.33    0.78
   3  -9  -6   53.59    1.92
   3  -9  -6   55.59    1.83
  -3   9   6   55.93    1.83
   2  -9  -6   45.99    1.72
   2  -9  -6   45.86    1.58
  -2   9   6   46.24    1.58
   1  -9  -6    0.24    0.35
   1  -9  -6    0.15    0.34
   0  -9  -6   22.94    0.99
   0  -9  -6   22.03    0.98
  -1  -9  -6   41.92    1.41
   1   9   6   42.43    1.42
  -2  -9  -6    2.58    0.45
   2   9   6    3.17    0.49
   2   9   6    2.73    0.45
  -3  -9  -6   21.01    0.88
   3   9   6   22.15    0.91
   3   9   6   21.83    0.96
  -4  -9  -6   11.52    0.64
   4   9   6   10.97    0.66
  -5  -9  -6    1.50    0.27
  -5  -9  -6    1.24    0.29
   5   9   6    1.65    0.36
  -6  -9  -6   35.68    1.26
  -6  -9  -6   36.39    1.18
  -6  -9  -6   35.97    1.45
  -7  -9  -6   26.09    1.07
  -8  -9  -6    4.24    0.60
  -9  -9  -6   41.27    1.47
 -10  -9  -6   16.35    0.94
   4 -10  -6   32.95    1.46
   4 -10  -6   32.94    1.61
  -4  10   6   35.85    1.42
   3 -10  -6    3.07    0.64
   3 -10  -6    1.24    0.49
  -3  10   6    2.06    0.47
   2 -10  -6   65.75    2.25
   2 -10  -6   67.44    2.15
  -2  10   6   70.82    2.16
   1 -10  -6   22.94    1.15
   1 -10  -6   22.65    1.11
   0 -10  -6    2.08    0.48
   0 -10  -6    2.78    0.48
   1  10   6   60.51    1.97
  -2 -10  -6   45.99    1.65
   2  10   6   49.06    1.61
   2  10   6   50.91    1.68
  -3 -10  -6    1.93    0.47
   3  10   6    3.23    0.56
   3  10   6    3.14    0.51
   4  10   6   31.15    1.15
  -5 -10  -6   16.27    0.84
  -6 -10  -6    3.13    0.53
   6  10   6    3.59    0.53
  -7 -10  -6   24.12    0.99
  -7 -10  -6   24.06    1.08
  -8 -10  -6    4.93    0.66
  -8 -10  -6    3.63    0.63
  -9 -10  -6   13.47    0.89
   3 -11  -6   27.21    1.55
  -3  11   6   27.33    1.42
   2 -11  -6    0.07    0.47
   2 -11  -6    0.07    0.59
   1 -11  -6   39.09    1.57
   1 -11  -6   40.57    1.67
   0 -11  -6   15.72    1.03
   0 -11  -6   17.93    1.03
  -1 -11  -6    1.89    0.52
   1  11   6    1.72    0.43
  -2 -11  -6   63.44    2.07
   2  11   6   64.81    1.98
  -3 -11  -6   18.72    1.02
   3  11   6   18.93    1.02
  -4 -11  -6   16.52    0.96
   4  11   6   18.17    1.00
  -5 -11  -6   53.99    1.81
  -6 -11  -6    9.08    0.76
  -7 -11  -6   10.37    0.81
  -8 -11  -6   18.54    1.06
   1 -12  -6    4.62    0.86
   0 -12  -6   28.33    1.44
  -1 -12  -6    4.28    0.69
  -1 -12  -6    6.00    0.97
  -2 -12  -6    8.45    0.93
  -3 -12  -6   28.37    1.35
  -4 -12  -6    1.00    0.51
   4  12   6    0.02    0.45
  -5 -12  -6   16.81    1.03
   5  12   6   16.62    1.05
  -6 -12  -6   14.71    1.03
  -6 -10   7   30.11    1.62
   5  10  -7    6.38    1.09
  -5 -10   7    5.51    0.75
   4  10  -7   53.21    2.14
  -4 -10   7   55.00    1.78
   3  10  -7   14.45    1.18
  -3 -10   7   15.90    0.87
   2  10  -7    7.26    1.03
   1  10  -7   76.18    2.65
   0  10  -7    0.14    0.57
  -1  10  -7   47.83    1.97
  -2  10  -7   32.85    1.69
  -3  10  -7    1.70    0.98
   7   9  -7    7.27    1.06
  -7  -9   7    7.69    0.82
   6   9  -7   48.66    2.01
  -6  -9   7   47.86    1.69
   5   9  -7   27.02    1.46
  -5  -9   7   28.02    1.18
   4   9  -7   34.02    1.60
  -4  -9   7   33.06    1.35
  -4  -9   7   31.94    1.26
   3   9  -7   90.62    2.93
  -3  -9   7   90.22    2.54
  -3  -9   7   90.12    2.58
   2   9  -7   19.88    1.21
  -2  -9   7   18.71    1.01
  -2  -9   7   21.13    0.92
   1   9  -7   32.04    1.51
  -1  -9   7   31.61    1.30
  -1  -9   7   32.29    1.15
   0   9  -7   97.42    3.05
   0  -9   7   96.90    2.87
  -1   9  -7    3.03    0.61
  -2   9  -7   45.25    1.84
  -3   9  -7   25.78    1.44
   9   8  -7    9.17    1.28
  -8  -8   7   31.31    1.37
   7   8  -7    2.31    0.67
  -7  -8   7    2.79    0.53
   6   8  -7   21.30    1.30
  -6  -8   7   19.32    0.96
  -6  -8   7   19.42    1.00
   5   8  -7   36.76    1.67
  -5  -8   7   36.95    1.30
  -5  -8   7   37.22    1.37
   4   8  -7    0.50    0.52
  -4  -8   7    0.92    0.34
  -4  -8   7    0.76    0.39
   3   8  -7   44.45    1.74
  -3  -8   7   43.01    1.43
  -3  -8   7   42.45    1.43
   2   8  -7   11.69    0.93
  -2  -8   7   11.21    0.73
  -2  -8   7   12.09    0.68
   1   8  -7    2.20    0.51
  -1  -8   7    2.22    0.42
  -1  -8   7    2.07    0.34
   0   8  -7   27.26    1.30
   0  -8   7   25.85    1.12
   0  -8   7   25.98    0.98
  -1   8  -7   34.29    1.46
   1  -8   7   32.70    1.30
   1  -8   7   33.34    1.15
  -2   8  -7    3.70    0.63
   2  -8   7    2.38    0.52
  -3   8  -7   22.24    1.20
   3  -8   7   19.92    1.35
  -5   8  -7   11.42    1.01
   9   7  -7    5.17    0.98
  -9  -7   7    4.23    0.97
   8   7  -7   33.66    1.49
  -8  -7   7   30.74    1.32
   7   7  -7   33.69    1.69
   7   7  -7   32.78    1.42
  -7  -7   7   30.89    1.29
   6   7  -7    7.24    0.92
  -6  -7   7    6.27    0.68
   5   7  -7   41.24    1.70
  -5  -7   7   42.09    1.35
  -5  -7   7   41.21    1.43
   4   7  -7   31.40    1.43
  -4  -7   7   32.61    1.12
   3   7  -7   10.47    1.21
  -3  -7   7    9.02    0.61
  -3  -7   7    9.42    0.59
   2   7  -7   40.39    1.58
  -2  -7   7   38.54    1.27
  -2  -7   7   38.59    1.27
   1   7  -7    5.77    0.68
  -1  -7   7    5.55    0.52
  -1  -7   7    5.75    0.46
   0   7  -7    0.65    0.41
   0  -7   7   -0.07    0.21
   0  -7   7   -0.05    0.28
  -1   7  -7   39.61    1.53
   1  -7   7   38.80    1.24
   1  -7   7   37.83    1.35
  -2   7  -7    5.12    0.63
  -2   7  -7    3.96    0.67
   2  -7   7    3.56    0.61
   2  -7   7    3.66    0.49
  -3   7  -7   16.46    1.01
  -3   7  -7   16.89    0.98
   3  -7   7   16.39    0.81
   3  -7   7   16.08    0.96
  -4   7  -7   21.56    1.42
  -4   7  -7   21.72    1.11
   4  -7   7   21.11    1.12
  -5   7  -7    2.47    0.86
  -7   7  -7   31.42    1.57
  10   6  -7   32.20    1.65
   9   6  -7   26.29    1.41
   9   6  -7   22.32    1.33
  -9  -6   7   22.48    1.13
   8   6  -7    3.51    0.59
  -8  -6   7    3.25    0.51
   7   6  -7   50.06    1.92
  -7  -6   7   48.87    1.68
   6   6  -7   12.88    1.01
   6   6  -7   12.86    0.84
  -6  -6   7   13.75    0.80
   5   6  -7   16.93    1.02
  -5  -6   7   15.47    0.98
   4   6  -7   85.60    2.66
  -4  -6   7   84.17    2.38
  -4  -6   7   88.03    2.30
   3   6  -7   36.73    1.48
  -3  -6   7   38.88    1.19
  -3  -6   7   38.89    1.25
   2   6  -7  100.74    2.94
  -2  -6   7  101.22    2.59
  -2  -6   7   97.52    2.64
   1   6  -7  158.71    4.34
  -1  -6   7  163.83    4.03
  -1  -6   7  164.13    4.04
   0   6  -7   12.99    0.60
   0   6  -7   12.47    0.81
   0  -6   7   12.17    0.63
   0  -6   7   12.90    0.59
  -1   6  -7   60.96    1.89
  -1   6  -7   65.97    2.07
   1  -6   7   64.00    1.84
   1  -6   7   64.67    1.79
  -2   6  -7  113.14    3.11
   2  -6   7  106.21    2.91
   2  -6   7  108.10    2.85
  -3   6  -7    2.19    0.43
  -3   6  -7    1.44    0.44
   3  -6   7    1.42    0.29
   3  -6   7    1.12    0.39
  -4   6  -7   58.05    1.82
  -4   6  -7   54.97    1.96
   4  -6   7   55.90    1.71
   4  -6   7   53.97    1.80
   5  -6   7   20.22    1.25
   5  -6   7   20.87    0.94
  -7   6  -7   34.79    1.68
  -8   6  -7   18.36    1.53
  10   5  -7    6.48    1.06
 -10  -5   7    5.31    0.83
   9   5  -7   34.51    1.56
   9   5  -7   35.43    1.62
  -9  -5   7   35.73    1.40
   8   5  -7   12.77    0.94
   8   5  -7   13.51    1.14
  -8  -5   7   13.61    0.86
   7   5  -7   16.59    0.92
  -7  -5   7   15.32    0.85
   6   5  -7   95.76    2.72
   5   5  -7    5.85    0.53
   5   5  -7    6.46    0.68
  -5  -5   7    6.71    0.54
   4   5  -7   51.27    1.80
  -4  -5   7   52.22    1.58
   3   5  -7  121.74    3.48
  -3  -5   7  127.60    3.21
   2   5  -7    0.56    0.32
  -2  -5   7    0.56    0.21
  -2  -5   7    0.40    0.18
   1   5  -7  227.37    5.80
   1   5  -7  224.35    5.44
  -1  -5   7  234.81    5.47
  -1  -5   7  226.46    5.52
   0   5  -7   85.50    2.46
   0   5  -7   87.99    2.23
   0  -5   7   71.66    2.15
   0  -5   7   88.69    2.22
  -1   5  -7   10.67    0.69
  -1   5  -7   10.40    0.66
   1  -5   7   10.30    0.50
  -2   5  -7  157.99    4.10
  -2   5  -7  160.32    4.14
   2  -5   7  159.47    3.96
   2  -5   7  155.23    3.96
  -3   5  -7   70.23    2.10
  -3   5  -7   71.29    2.18
   3  -5   7   68.09    1.97
   3  -5   7   70.61    2.02
  -4   5  -7   12.44    0.70
  -4   5  -7    9.97    0.90
   4  -5   7   10.75    0.64
   4  -5   7   10.61    0.69
   5  -5   7   72.22    2.24
   5  -5   7   78.21    2.19
  -6   5  -7   13.60    1.28
   6  -5   7   14.34    0.92
   6  -5   7   12.13    0.79
  -7   5  -7   14.35    1.23
  -8   5  -7   51.46    2.13
  10   4  -7    3.85    0.74
 -10  -4   7    3.68    0.54
   9   4  -7   25.59    1.28
   9   4  -7   21.78    1.21
  -9  -4   7   22.78    1.11
   8   4  -7   70.67    2.24
  -8  -4   7   68.87    2.14
   7   4  -7   10.71    0.99
   7   4  -7   10.83    0.76
  -7  -4   7   11.55    0.70
   6   4  -7   59.82    1.83
  -6  -4   7   58.45    1.80
   5   4  -7   77.47    2.22
   5   4  -7   77.98    2.44
  -5  -4   7   81.26    2.22
   4   4  -7    4.32    0.47
   4   4  -7    3.58    0.50
  -4  -4   7    4.05    0.39
   3   4  -7   84.38    2.02
   3   4  -7   80.89    2.45
  -3  -4   7   82.80    2.22
  -3  -4   7   81.45    2.37
   2   4  -7   64.03    2.00
   2   4  -7   62.85    1.64
  -2  -4   7   64.40    1.78
  -2  -4   7   66.27    1.67
   1   4  -7   25.68    1.06
   1   4  -7   26.67    0.80
  -1  -4   7   23.34    0.84
  -1  -4   7   26.36    0.77
   0   4  -7  109.88    2.80
   0   4  -7  109.47    3.04
   0  -4   7  113.34    2.75
   0  -4   7  110.46    2.81
  -1   4  -7   14.22    0.74
   1  -4   7   13.85    0.54
   1  -4   7   13.81    0.58
  -2   4  -7   32.73    1.18
  -2   4  -7   32.48    1.17
   2  -4   7   32.24    1.17
   2  -4   7   33.39    1.06
  -3   4  -7   82.25    2.38
  -3   4  -7   83.75    2.34
   3  -4   7   81.79    2.24
  -4   4  -7    8.40    0.74
  -4   4  -7    8.26    0.56
   4  -4   7    8.58    0.58
   4  -4   7    7.08    0.52
   5  -4   7   40.11    1.32
   5  -4   7   37.27    1.33
  -6   4  -7   48.04    2.11
   6  -4   7   49.77    1.68
   6  -4   7   49.65    1.61
  -7   4  -7    0.47    0.50
   7  -4   7    0.17    0.51
   7  -4   7    0.63    0.40
  -8   4  -7   26.10    1.53
   8  -4   7   27.92    1.23
  -9   4  -7   25.91    1.53
  11   3  -7   32.21    1.72
  10   3  -7   24.18    1.36
 -10  -3   7   25.31    1.18
   9   3  -7    6.81    0.84
   9   3  -7    7.75    0.84
  -9  -3   7    6.03    0.70
   8   3  -7   73.15    2.30
   8   3  -7   74.11    2.42
  -8  -3   7   74.54    2.20
   7   3  -7   32.99    1.27
   7   3  -7   34.40    1.44
  -7  -3   7   33.90    1.22
   6   3  -7    3.51    0.82
   6   3  -7    3.45    0.44
  -6  -3   7    3.43    0.45
   5   3  -7   69.30    1.99
  -5  -3   7   69.97    1.98
   4   3  -7   21.11    0.98
   4   3  -7   22.12    0.80
  -4  -3   7   21.38    0.81
  -4  -3   7   21.20    0.64
   3   3  -7    3.21    0.27
   3   3  -7    3.14    0.45
  -3  -3   7    3.31    0.31
   2   3  -7   63.28    1.61
   2   3  -7   61.68    1.94
  -2  -3   7   65.96    1.59
  -2  -3   7   60.09    1.71
   1   3  -7   42.34    1.45
   1   3  -7   42.39    1.18
  -1  -3   7   43.75    1.13
   0   3  -7   36.18    1.28
   0  -3   7   37.98    1.01
   0  -3   7   36.70    1.10
  -1   3  -7  160.90    4.13
  -1   3  -7  161.01    4.16
   1  -3   7  163.14    3.98
   1  -3   7  164.90    3.89
  -2   3  -7   22.76    0.94
  -2   3  -7   22.63    0.90
   2  -3   7   23.91    0.74
   2  -3   7   22.33    0.80
  -3   3  -7   71.84    2.11
  -3   3  -7   74.76    2.09
   3  -3   7   75.16    2.03
   3  -3   7   71.63    1.95
  -4   3  -7   81.09    2.27
  -4   3  -7   80.69    2.38
   4  -3   7   83.27    2.25
  -5   3  -7    1.14    0.56
  -5   3  -7    1.19    0.23
   5  -3   7    0.76    0.28
   5  -3   7    1.02    0.27
  -6   3  -7   55.51    1.96
   6  -3   7   55.97    1.73
   6  -3   7   52.67    1.71
  -7   3  -7   19.59    1.21
   7  -3   7   19.87    0.99
   7  -3   7   18.95    0.95
  -8   3  -7    2.38    0.68
   8  -3   7    2.81    0.52
   8  -3   7    3.82    0.73
  -9   3  -7   21.20    1.44
   9  -3   7   23.29    1.23
  11   2  -7    0.43    0.73
  10   2  -7   41.63    1.77
   9   2  -7    9.88    1.05
   9   2  -7   10.36    0.91
   8   2  -7   21.27    1.06
   8   2  -7   21.42    1.16
   7   2  -7   50.67    1.66
   7   2  -7   51.24    1.80
   6   2  -7    9.29    0.57
   6   2  -7    9.15    0.72
   5   2  -7   31.03    1.08
  -5  -2   7   31.53    0.91
  -5  -2   7   29.02    1.03
   4   2  -7  115.78    3.19
   4   2  -7  111.93    2.91
  -4  -2   7  117.05    2.84
  -4  -2   7  116.87    2.96
   3   2  -7   27.81    1.11
   3   2  -7   28.62    0.86
  -3  -2   7   27.89    0.83
  -3  -2   7   28.10    0.92
   2   2  -7   28.39    1.11
  -2  -2   7   28.02    0.92
  -2  -2   7   30.10    0.85
   1   2  -7  121.19    3.25
  -1  -2   7  124.17    2.89
  -1  -2   7  122.17    3.05
   0   2  -7    3.25    0.24
   0   2  -7    3.47    0.43
   0  -2   7    2.78    0.26
   0  -2   7    3.45    0.18
  -1   2  -7  114.59    2.80
  -1   2  -7  107.61    2.93
   1  -2   7  110.68    2.66
   1  -2   7  108.68    2.78
  -2   2  -7  167.82    4.09
   2  -2   7  164.00    3.93
   2  -2   7  161.63    4.04
  -3   2  -7    2.90    0.31
  -3   2  -7    3.39    0.42
   3  -2   7    2.71    0.24
  -4   2  -7  155.61    3.84
  -4   2  -7  150.66    3.98
   4  -2   7  152.72    3.80
   4  -2   7  157.55    3.90
  -5   2  -7  102.56    2.54
  -5   2  -7   96.63    2.80
   5  -2   7   97.63    2.67
  -6   2  -7    0.37    0.33
   6  -2   7    0.45    0.27
   6  -2   7    0.44    0.27
  -7   2  -7   78.54    2.58
   7  -2   7   79.43    2.32
   7  -2   7   79.34    2.32
  -8   2  -7   27.19    1.45
   8  -2   7   25.06    1.18
  -9   2  -7    5.90    1.05
   9  -2   7    6.03    0.83
   9  -2   7    6.28    0.90
 -10   2  -7   31.38    1.68
  10  -2   7   28.92    1.41
  11   1  -7    9.21    1.37
  10   1  -7    6.79    0.93
   9   1  -7   48.75    2.03
   9   1  -7   47.17    1.77
   8   1  -7   16.94    1.06
   8   1  -7   16.86    0.94
  -8  -1   7   17.54    0.85
   7   1  -7   26.42    1.08
   7   1  -7   27.71    1.26
  -7  -1   7   27.68    1.03
  -7  -1   7   27.34    0.94
   6   1  -7  109.02    2.99
   6   1  -7  115.17    3.19
  -6  -1   7  114.47    2.96
  -6  -1   7  113.89    2.87
   5   1  -7   20.75    0.97
  -5  -1   7   21.24    0.79
  -5  -1   7   21.30    0.76
   4   1  -7   99.41    2.55
   4   1  -7   98.30    2.79
  -4  -1   7   99.87    2.58
  -4  -1   7  103.23    2.53
   3   1  -7  169.04    4.03
   3   1  -7  167.74    4.31
  -3  -1   7  165.96    4.08
  -3  -1   7  167.35    4.05
   2   1  -7    2.36    0.39
   2   1  -7    1.42    0.15
  -2  -1   7    1.74    0.18
  -2  -1   7    1.45    0.24
   1   1  -7  175.61    4.57
  -1  -1   7  187.65    4.38
  -1  -1   7  182.85    4.39
   0   1  -7   91.00    2.46
   0  -1   7   88.32    2.28
  -1   1  -7   10.41    0.45
  -1   1  -7    9.28    0.53
   1  -1   7    9.73    0.44
  -2   1  -7  100.39    2.61
  -2   1  -7  102.62    2.66
   2  -1   7   99.13    2.59
   2  -1   7  102.41    2.43
  -3   1  -7   55.52    1.56
  -3   1  -7   54.29    1.59
   3  -1   7   51.93    1.55
   3  -1   7   54.81    1.42
  -4   1  -7   55.91    1.70
  -4   1  -7   58.40    1.58
   4  -1   7   57.84    1.65
   4  -1   7   54.17    1.51
  -5   1  -7  111.43    3.06
  -5   1  -7  115.26    2.82
   5  -1   7  110.39    2.97
  -6   1  -7   24.68    1.12
   6  -1   7   24.21    0.92
   6  -1   7   23.72    0.96
  -7   1  -7   34.58    1.45
   7  -1   7   35.23    1.28
   7  -1   7   33.85    1.24
  -8   1  -7   82.03    2.71
   8  -1   7   83.39    2.50
   8  -1   7   85.26    2.48
  -9   1  -7    4.31    0.77
   9  -1   7    4.31    0.65
   9  -1   7    3.49    0.55
 -10   1  -7   25.85    1.62
  10  -1   7   28.79    1.35
  11  -1   7   16.83    1.22
  10   0  -7    0.15    0.55
   9   0  -7   29.69    1.33
  -9   0   7   27.68    1.12
   8   0  -7   42.55    1.65
   8   0  -7   40.04    1.51
  -8   0   7   41.67    1.39
  -8   0   7   42.66    1.36
   7   0  -7    3.87    0.59
   7   0  -7    3.49    0.49
  -7   0   7    3.73    0.47
  -7   0   7    3.54    0.40
   6   0  -7  110.46    3.00
   6   0  -7  114.41    3.17
  -6   0   7  114.30    2.93
  -6   0   7  114.62    2.91
   5   0  -7   84.44    2.48
  -5   0   7   88.05    2.26
  -5   0   7   85.25    2.26
   4   0  -7   14.93    0.55
   4   0  -7   14.95    0.78
  -4   0   7   15.04    0.60
  -4   0   7   14.07    0.59
   3   0  -7  145.93    3.79
   3   0  -7  145.68    3.51
  -3   0   7  144.70    3.56
   2   0  -7   68.86    2.01
   2   0  -7   68.20    1.69
  -2   0   7   68.05    1.82
  -2   0   7   71.11    1.82
  -2   0   7   69.08    1.68
   1   0  -7   12.06    0.65
  -1   0   7   12.38    0.47
  -1   0   7   11.27    0.47
   0   0   7  173.14    4.19
   0   0   7  173.29    4.19
  -1   0  -7   10.73    0.54
   1   0   7    9.76    0.45
  -2   0  -7   28.22    0.95
  -2   0  -7   29.53    0.96
   2   0   7   29.67    0.93
  -3   0  -7  136.27    3.42
  -3   0  -7  135.28    3.46
   3   0   7  137.55    3.45
   3   0   7  138.24    3.27
  -4   0  -7    7.24    0.40
  -4   0  -7    6.99    0.50
   4   0   7    7.61    0.34
   4   0   7    7.36    0.44
  -5   0  -7   99.78    2.45
  -5   0  -7   92.69    2.65
   5   0   7   96.60    2.61
   5   0   7   97.97    2.49
  -6   0  -7   56.64    1.80
   6   0   7   55.06    1.70
  -7   0  -7    0.21    0.32
   7   0   7    1.07    0.32
   7   0   7    0.86    0.30
   8   0   7   64.98    2.04
   8   0   7   65.31    2.06
  -9   0  -7   31.65    1.58
   9   0   7   31.28    1.33
   9   0   7   30.41    1.36
 -10   0  -7    1.74    0.68
  10   0   7    1.80    0.53
 -11   0  -7   36.57    1.88
  11   0   7   38.57    1.65
  10  -1  -7   23.07    1.32
   9  -1  -7    4.23    0.77
  -9   1   7    5.71    0.63
   8  -1  -7   42.67    1.57
   8  -1  -7   42.21    1.64
  -8   1   7   44.59    1.45
  -8   1   7   43.37    1.37
   7  -1  -7    3.94    0.52
   7  -1  -7    4.26    0.68
  -7   1   7    5.43    0.45
  -7   1   7    4.78    0.47
   6  -1  -7   46.18    1.62
   6  -1  -7   46.62    1.47
  -6   1   7   46.57    1.41
  -6   1   7   45.54    1.36
   5  -1  -7   75.45    2.25
   5  -1  -7   76.59    2.09
  -5   1   7   75.74    2.06
  -5   1   7   76.37    2.01
   4  -1  -7    0.16    0.28
   4  -1  -7    0.30    0.14
  -4   1   7    0.03    0.16
  -4   1   7    0.35    0.16
   3  -1  -7  146.69    3.77
   3  -1  -7  147.23    3.52
  -3   1   7  146.14    3.62
  -3   1   7  144.34    3.56
   2  -1  -7  106.52    2.63
   2  -1  -7  109.07    2.92
  -2   1   7  121.50    2.68
  -2   1   7  105.67    2.79
   1  -1  -7   12.39    0.64
  -1   1   7   12.52    0.46
   0  -1  -7  105.45    3.02
   0   1   7  108.72    2.87
   0   1   7  116.55    2.74
  -1  -1  -7  128.29    3.05
   1   1   7  108.56    3.09
  -2  -1  -7   13.33    0.56
  -2  -1  -7   13.82    0.61
   2   1   7   14.60    0.59
  -3  -1  -7   79.03    2.05
  -3  -1  -7   74.85    2.07
   3   1   7   76.71    2.07
   3   1   7   78.10    1.89
  -4  -1  -7   92.35    2.38
  -4  -1  -7   92.88    2.49
   4   1   7   93.67    2.32
   4   1   7   92.07    2.47
  -5  -1  -7   16.30    0.60
  -5  -1  -7   17.60    0.79
   5   1   7   17.69    0.73
   5   1   7   17.31    0.63
  -6  -1  -7  114.76    3.13
   6   1   7  114.76    3.07
   6   1   7  115.59    2.99
  -7  -1  -7   38.66    1.46
   7   1   7   39.75    1.32
   7   1   7   38.56    1.36
  -8  -1  -7    4.48    0.70
   8   1   7    3.53    0.58
   8   1   7    5.17    0.61
  -9  -1  -7   57.61    2.15
   9   1   7   61.24    2.01
   9   1   7   60.98    2.01
 -10  -1  -7   25.68    1.52
  10   1   7   27.01    1.32
  10   1   7   27.84    1.28
 -11  -1  -7    6.94    0.98
  10  -2  -7   34.04    1.61
 -10   2   7   36.84    1.45
   9  -2  -7    5.78    0.89
  -9   2   7    5.20    0.70
   8  -2  -7   14.18    0.90
   8  -2  -7   11.90    0.99
  -8   2   7   12.14    0.77
   7  -2  -7   41.76    1.48
   7  -2  -7   41.89    1.59
  -7   2   7   42.18    1.25
  -7   2   7   42.00    1.40
   6  -2  -7    7.03    0.68
   6  -2  -7    7.82    0.56
  -6   2   7    7.47    0.52
  -6   2   7    8.08    0.44
   5  -2  -7   16.07    0.74
   5  -2  -7   16.30    0.83
  -5   2   7   16.25    0.69
  -5   2   7   16.38    0.61
   4  -2  -7   88.10    2.28
   4  -2  -7   87.55    2.46
  -4   2   7   88.56    2.35
   3  -2  -7    0.33    0.12
   3  -2  -7    0.19    0.23
  -3   2   7    0.34    0.15
  -3   2   7    0.50    0.12
   2  -2  -7  116.70    3.10
   2  -2  -7  119.37    2.87
  -2   2   7  119.51    3.03
  -2   2   7  123.61    2.92
   1  -2  -7  105.13    2.79
  -1   2   7  107.72    2.75
  -1   2   7  109.64    2.65
   0  -2  -7    1.08    0.26
   0   2   7    0.96    0.14
   0   2   7    0.80    0.20
  -1  -2  -7  307.27    7.55
   1   2   7  321.09    7.41
   1   2   7  314.74    7.45
  -2  -2  -7   82.39    2.13
   2   2   7   82.70    2.14
   2   2   7   78.13    2.13
  -3  -2  -7   19.16    0.74
  -3  -2  -7   19.37    0.68
   3   2   7   19.39    0.57
   3   2   7   19.01    0.73
  -4  -2  -7   85.61    2.20
  -4  -2  -7   85.23    2.32
   4   2   7   86.86    2.16
   4   2   7   85.14    2.31
  -5  -2  -7   33.30    0.96
  -5  -2  -7   31.17    1.12
   5   2   7   31.42    0.97
   5   2   7   31.54    1.09
  -6  -2  -7   49.88    1.61
   6   2   7   51.97    1.55
   6   2   7   50.68    1.58
  -7  -2  -7   86.53    2.54
   7   2   7   85.75    2.40
   7   2   7   86.06    2.47
  -8  -2  -7    8.78    0.80
   8   2   7    8.73    0.68
   8   2   7    8.00    0.68
  -9  -2  -7   25.82    1.32
   9   2   7   25.55    1.20
   9   2   7   26.99    1.21
 -10  -2  -7   49.12    2.01
  10   2   7   49.51    1.83
  10   2   7   50.71    1.88
 -11  -2  -7    7.08    1.17
 -10   3   7   20.45    1.42
   9  -3  -7   39.49    1.65
  -9   3   7   38.67    1.50
   8  -3  -7    2.63    0.53
  -8   3   7    2.88    0.47
   7  -3  -7   25.06    1.10
   7  -3  -7   24.00    1.19
  -7   3   7   25.11    1.18
   6  -3  -7   46.36    1.64
   6  -3  -7   46.17    1.51
  -6   3   7   46.82    1.49
   5  -3  -7    2.81    0.39
   5  -3  -7    4.34    0.54
  -5   3   7    3.64    0.34
  -5   3   7    3.41    0.40
   4  -3  -7   52.34    1.62
  -4   3   7   52.47    1.55
  -4   3   7   50.63    1.36
   3  -3  -7  161.10    4.11
   3  -3  -7  162.92    3.95
  -3   3   7  164.01    4.06
  -3   3   7  161.82    3.87
   2  -3  -7    0.37    0.20
   2  -3  -7    0.50    0.12
  -2   3   7    0.60    0.11
   1  -3  -7   95.56    2.28
   1  -3  -7   92.64    2.48
  -1   3   7   93.81    2.46
   0  -3  -7  177.07    4.29
   0  -3  -7  180.18    4.07
   0  -3  -7  168.93    4.07
   0   3   7  172.56    4.18
   0   3   7  173.98    4.29
  -1  -3  -7    1.88    0.28
   1   3   7    1.60    0.19
   1   3   7    1.97    0.27
  -2  -3  -7  289.16    6.52
  -2  -3  -7  275.01    6.46
   2   3   7  285.55    6.92
   2   3   7  273.98    6.71
  -3  -3  -7   62.91    1.64
   3   3   7   60.71    1.55
   3   3   7   59.38    1.70
   3   3   7   60.59    1.71
  -4  -3  -7   14.05    0.64
  -4  -3  -7   14.63    0.53
   4   3   7   14.00    0.62
   4   3   7   14.68    0.53
  -5  -3  -7  134.84    3.48
  -5  -3  -7  135.50    3.30
   5   3   7  135.02    3.36
   5   3   7  133.08    3.47
  -6  -3  -7   18.33    0.84
  -6  -3  -7   20.87    0.76
   6   3   7   17.96    0.80
   6   3   7   17.06    0.79
  -7  -3  -7   57.52    1.84
   7   3   7   56.58    1.79
   7   3   7   58.09    1.76
  -8  -3  -7   42.05    1.56
   8   3   7   43.25    1.49
   8   3   7   40.92    1.50
  -9  -3  -7    3.17    0.58
   9   3   7    3.86    0.56
   9   3   7    3.83    0.59
 -10  -3  -7   29.35    1.53
  10   3   7   30.70    1.38
  10   3   7   32.27    1.49
 -11  -3  -7   11.63    1.25
   9  -4  -7   46.10    1.85
  -9   4   7   46.02    1.70
   8  -4  -7   49.25    1.79
   8  -4  -7   49.35    1.80
  -8   4   7   48.77    1.71
   7  -4  -7    1.17    0.58
   7  -4  -7    1.60    0.44
  -7   4   7    1.48    0.35
   6  -4  -7   66.13    2.10
   6  -4  -7   68.33    2.05
   5  -4  -7   13.93    0.70
  -5   4   7   14.19    0.70
   4  -4  -7    7.74    0.52
  -4   4   7    8.62    0.38
  -4   4   7    7.48    0.51
   3  -4  -7   74.59    1.97
   3  -4  -7   71.89    2.06
  -3   4   7   74.30    2.05
  -3   4   7   71.68    1.81
   2  -4  -7   15.52    0.56
   2  -4  -7   14.67    0.68
  -2   4   7   16.06    0.50
  -2   4   7   14.61    0.64
   1  -4  -7   76.37    1.88
   1  -4  -7   73.07    2.02
  -1   4   7   74.11    1.87
  -1   4   7   71.24    2.01
   0  -4  -7   68.19    1.65
   0  -4  -7   62.55    1.79
   0   4   7   63.35    1.81
   0   4   7   66.16    1.69
  -1  -4  -7   83.68    2.03
  -1  -4  -7   81.98    2.19
   1   4   7   83.31    2.24
   1   4   7   85.69    2.15
  -2  -4  -7   29.33    0.94
  -2  -4  -7   30.77    0.80
   2   4   7   27.72    0.96
  -3  -4  -7  172.40    4.11
   3   4   7  164.17    4.17
   3   4   7  169.27    4.17
  -4  -4  -7   11.10    0.47
  -4  -4  -7   11.50    0.58
   4   4   7   11.40    0.46
   4   4   7   10.61    0.54
  -5  -4  -7   33.28    1.14
  -5  -4  -7   34.58    0.98
   5   4   7   33.13    1.14
   5   4   7   33.43    1.05
  -6  -4  -7   96.25    2.63
  -6  -4  -7   98.53    2.39
   6   4   7   91.90    2.55
   6   4   7   94.02    2.62
  -7  -4  -7    0.35    0.29
   7   4   7    0.39    0.28
   7   4   7    0.11    0.27
  -8  -4  -7   60.58    1.97
   8   4   7   59.85    2.03
   8   4   7   59.86    1.91
  -9  -4  -7   24.56    1.43
   9   4   7   28.04    1.29
   9   4   7   29.24    1.24
 -10  -4  -7    5.80    0.95
  10   4   7    5.94    0.92
 -11  -4  -7   29.13    1.59
 -11  -4  -7   27.67    1.14
 -12  -4  -7    9.30    1.44
   8  -5  -7   52.75    1.95
  -8   5   7   52.85    1.84
   7  -5  -7   16.00    1.06
   7  -5  -7   15.63    0.96
  -7   5   7   14.68    0.88
   6  -5  -7   29.97    1.23
  -6   5   7   31.41    1.20
   5  -5  -7   71.44    2.09
  -5   5   7   68.27    2.23
   4  -5  -7    0.74    0.28
  -4   5   7    0.23    0.20
   3  -5  -7   17.83    0.80
   3  -5  -7   17.16    0.75
  -3   5   7   17.16    0.76
   2  -5  -7   55.93    1.66
   2  -5  -7   55.89    1.58
  -2   5   7   54.73    1.65
  -2   5   7   57.80    1.43
   1  -5  -7   18.41    0.76
   1  -5  -7   19.17    0.66
  -1   5   7   18.96    0.76
  -1   5   7   19.46    0.59
   0  -5  -7   99.64    2.64
   0  -5  -7  101.56    2.51
   0   5   7  102.96    2.51
   0   5   7   99.97    2.66
  -1  -5  -7    7.70    0.33
   1   5   7    7.48    0.45
   1   5   7    7.33    0.35
  -2  -5  -7    6.99    0.31
  -2  -5  -7    6.90    0.43
   2   5   7    7.80    0.45
  -3  -5  -7  143.31    3.47
  -3  -5  -7  142.86    3.58
   3   5   7  146.76    3.66
   3   5   7  145.89    3.63
  -4  -5  -7   35.38    1.09
   4   5   7   35.88    1.17
   4   5   7   36.52    1.17
   4   5   7   36.19    1.09
  -5  -5  -7    7.84    0.51
  -5  -5  -7    8.21    0.47
   5   5   7    8.36    0.55
   5   5   7    7.65    0.50
  -6  -5  -7   46.97    1.35
  -6  -5  -7   48.26    1.53
  -7  -5  -7   27.55    1.12
   7   5   7   27.19    1.08
   7   5   7   26.22    1.09
  -8  -5  -7    9.39    0.75
   8   5   7   10.50    0.78
  -9  -5  -7   59.98    2.79
   9   5   7   64.88    2.10
   9   5   7   62.54    2.08
 -10  -5  -7    9.72    1.02
 -10  -5  -7    9.99    0.72
  10   5   7   11.00    1.00
 -11  -5  -7   20.94    0.99
 -11  -5  -7   19.35    1.39
   8  -6  -7   23.46    1.62
   7  -6  -7   26.23    1.36
   7  -6  -7   29.37    1.37
  -7   6   7   27.75    1.23
   6  -6  -7    1.59    0.66
   5  -6  -7   59.19    1.93
  -5   6   7   60.90    1.89
   4  -6  -7   35.75    1.28
   4  -6  -7   36.94    1.32
  -4   6   7   33.45    1.48
   3  -6  -7    1.95    0.36
   3  -6  -7    1.65    0.32
  -3   6   7    1.92    0.30
   2  -6  -7   52.05    1.55
   2  -6  -7   51.83    1.60
  -2   6   7   51.44    1.59
   1  -6  -7   85.31    2.35
   1  -6  -7   87.60    2.29
  -1   6   7   84.12    2.35
   0  -6  -7   27.62    0.90
   0  -6  -7   28.42    0.99
   0   6   7   27.97    1.01
   0   6   7   29.14    0.82
  -1  -6  -7   64.98    1.69
  -1  -6  -7   61.78    1.78
   1   6   7   63.58    1.83
   1   6   7   63.77    1.67
  -2  -6  -7   13.63    0.60
  -2  -6  -7   14.00    0.52
   2   6   7   13.94    0.64
   2   6   7   12.80    0.59
  -3  -6  -7   25.36    0.87
  -3  -6  -7   24.29    0.84
   3   6   7   25.37    0.89
   3   6   7   25.58    0.92
  -4  -6  -7  119.78    2.98
  -4  -6  -7  116.68    3.02
   4   6   7  122.93    3.12
   4   6   7  120.91    3.12
  -5  -6  -7    6.09    0.41
  -5  -6  -7    6.90    0.49
   5   6   7    6.57    0.50
  -6  -6  -7   32.28    1.18
  -6  -6  -7   33.37    1.03
   6   6   7   32.74    1.17
  -7  -6  -7   66.53    2.03
   7   6   7   68.18    2.14
   7   6   7   65.29    2.02
  -8  -6  -7    3.16    0.48
   8   6   7    4.95    0.61
   8   6   7    3.41    0.65
  -9  -6  -7   27.91    1.46
  -9  -6  -7   29.22    1.15
   9   6   7   30.50    1.73
 -10  -6  -7   30.52    1.51
 -10  -6  -7   31.96    1.23
  10   6   7   34.05    1.65
 -11  -6  -7    1.69    0.38
   7  -7  -7   25.52    1.34
  -7   7   7   25.60    1.25
   6  -7  -7   23.56    1.28
  -6   7   7   22.11    1.10
  -5   7   7    1.02    0.37
   4  -7  -7   73.69    2.21
   4  -7  -7   71.99    2.22
  -4   7   7   73.07    2.21
   3  -7  -7   14.43    0.94
   3  -7  -7   15.83    0.80
  -3   7   7   15.58    1.05
   2  -7  -7    3.01    0.52
   2  -7  -7    2.52    0.43
  -2   7   7    2.48    0.43
   1  -7  -7   80.61    2.28
   1  -7  -7   81.54    2.23
  -1   7   7   79.37    2.28
   0  -7  -7   36.18    1.15
   0  -7  -7   35.27    1.22
   0   7   7   36.07    1.24
  -1  -7  -7   50.47    1.46
  -1  -7  -7   50.16    1.54
  -2  -7  -7   76.77    2.12
  -2  -7  -7   77.23    2.04
   2   7   7   75.97    2.02
   2   7   7   77.38    2.18
  -3  -7  -7   26.43    0.93
  -3  -7  -7   25.34    0.87
   3   7   7   26.37    0.97
   3   7   7   27.16    0.93
  -4  -7  -7   36.17    1.11
  -4  -7  -7   36.39    1.16
   4   7   7   36.94    1.22
   4   7   7   36.35    1.20
  -5  -7  -7   88.77    2.32
  -5  -7  -7   86.14    2.40
  -5  -7  -7   83.49    2.28
   5   7   7   88.91    2.42
  -6  -7  -7    1.80    0.29
  -6  -7  -7    1.16    0.32
   6   7   7    1.15    0.34
  -7  -7  -7   40.75    1.44
   7   7   7   41.21    1.48
  -8  -7  -7   38.29    1.30
  -8  -7  -7   36.81    1.44
   8   7   7   39.18    1.50
  -9  -7  -7    0.23    0.41
  -9  -7  -7    0.71    0.33
   9   7   7    0.22    0.48
 -10  -7  -7   22.28    1.02
   6  -8  -7   20.27    1.26
  -6   8   7   19.79    1.07
   5  -8  -7   15.31    1.25
   5  -8  -7   17.16    1.14
  -5   8   7   15.62    0.94
   4  -8  -7   13.30    0.92
   4  -8  -7   13.52    0.90
  -4   8   7   11.55    0.79
   3  -8  -7   67.29    2.08
   3  -8  -7   65.34    2.08
  -3   8   7   67.25    2.07
   2  -8  -7    8.01    0.68
   2  -8  -7    9.86    0.72
  -2   8   7    8.73    0.63
   1  -8  -7    4.33    0.51
  -1   8   7    2.76    0.46
   0  -8  -7   61.91    1.88
   0  -8  -7   61.71    1.81
  -1  -8  -7    1.72    0.34
  -1  -8  -7    2.00    0.33
  -2  -8  -7   42.94    1.40
  -2  -8  -7   43.42    1.34
   2   8   7   43.53    1.43
  -3  -8  -7   28.78    0.99
  -3  -8  -7   29.30    0.88
  -3  -8  -7   28.12    1.04
   3   8   7   29.49    1.09
  -4  -8  -7    1.06    0.23
  -4  -8  -7    1.01    0.29
  -4  -8  -7    0.68    0.24
   4   8   7    1.18    0.30
  -5  -8  -7   67.22    1.79
  -5  -8  -7   63.79    1.84
  -5  -8  -7   63.78    1.85
  -6  -8  -7   31.63    1.06
  -6  -8  -7   30.34    1.16
  -6  -8  -7   31.04    1.07
  -6  -8  -7   29.38    1.07
  -7  -8  -7    1.62    0.40
  -7  -8  -7    3.01    0.52
   7   8   7    2.64    0.51
  -8  -8  -7   32.60    1.19
  -8  -8  -7   31.71    1.30
   8   8   7   32.68    1.39
  -9  -8  -7   14.40    0.80
   9   8   7   13.27    1.06
 -10  -8  -7    1.71    0.42
   5  -9  -7   18.25    1.13
   5  -9  -7   19.21    1.37
  -5   9   7   17.78    1.13
   4  -9  -7    1.66    0.53
   4  -9  -7    1.93    0.56
  -4   9   7    1.29    0.43
   3  -9  -7   38.43    1.52
   3  -9  -7   39.99    1.55
  -3   9   7   38.58    1.46
   2  -9  -7   26.24    1.20
  -2   9   7   27.21    1.17
   1  -9  -7    0.61    0.40
   1  -9  -7    0.86    0.40
  -1   9   7    0.01    0.29
   0  -9  -7   21.58    0.97
   0  -9  -7   21.96    1.00
  -1  -9  -7   42.39    1.45
  -1  -9  -7   41.97    1.40
  -2  -9  -7    0.89    0.36
  -2  -9  -7    0.33    0.29
   2   9   7    0.80    0.31
  -3  -9  -7   18.90    0.84
   3   9   7   20.84    0.91
  -4  -9  -7    8.60    0.64
  -4  -9  -7    8.02    0.59
   4   9   7   10.27    0.68
  -5  -9  -7    7.58    0.62
  -5  -9  -7    7.80    0.48
  -5  -9  -7    6.14    0.53
  -6  -9  -7   35.09    1.28
  -6  -9  -7   36.36    1.27
  -6  -9  -7   35.81    1.25
  -6  -9  -7   36.42    1.19
  -7  -9  -7    7.02    0.59
  -7  -9  -7    6.99    0.60
  -8  -9  -7   15.02    0.82
  -9  -9  -7   37.53    1.40
   3 -10  -7    6.37    0.92
   3 -10  -7    3.84    0.63
  -3  10   7    4.57    0.71
   2 -10  -7   52.56    1.84
   2 -10  -7   49.62    1.86
  -2  10   7   53.80    1.82
   1 -10  -7    4.95    0.77
   1 -10  -7    5.22    0.77
  -1  10   7    6.12    0.69
   0 -10  -7   10.22    0.80
   0 -10  -7    9.96    0.80
  -1 -10  -7   38.85    1.46
  -2 -10  -7   13.88    0.86
  -2 -10  -7   13.48    0.85
   2  10   7   12.49    0.81
  -3 -10  -7   10.09    0.78
  -3 -10  -7    9.14    0.82
  -4 -10  -7   35.73    1.35
   4  10   7   40.03    1.40
  -5 -10  -7   12.55    0.76
  -5 -10  -7   11.44    0.76
  -6 -10  -7   10.96    0.77
  -6 -10  -7   11.89    0.75
  -7 -10  -7   30.81    1.24
  -8 -10  -7    0.95    0.43
  -8 -10  -7    1.36    0.41
  -9 -10  -7   23.89    1.13
   2 -11  -7   12.74    1.45
  -2  11   7   12.58    0.92
   1 -11  -7   36.90    1.58
   1 -11  -7   37.43    1.52
   0 -11  -7    2.63    0.57
   0 -11  -7    2.28    0.54
  -1 -11  -7   13.31    0.96
  -1 -11  -7   14.51    0.98
  -2 -11  -7   29.18    1.26
  -2 -11  -7   27.52    1.28
   2  11   7   29.10    1.24
  -3 -11  -7    0.61    0.44
  -3 -11  -7    0.29    0.43
   3  11   7    0.38    0.37
  -4 -11  -7   21.10    1.07
  -4 -11  -7   22.05    1.07
  -5 -11  -7   24.66    1.12
  -5 -11  -7   21.85    1.11
  -6 -11  -7    0.95    0.49
  -6 -11  -7    1.01    0.48
  -7 -11  -7   25.98    1.20
  -8 -11  -7   10.75    0.87
  -1 -12  -7    0.59    0.68
  -2 -12  -7   19.57    1.16
  -3 -12  -7   11.29    0.97
  -3 -12  -7   12.59    1.15
  -4 -12  -7    0.88    0.52
  -4 -12  -7    0.85    0.53
  -5 -12  -7    9.27    0.93
  -5 -12  -7    7.83    0.89
  -6 -12  -7    2.84    0.72
  -6 -12  -7    1.84    0.67
  -4 -10   8   28.00    1.23
  -3 -10   8    0.77    0.44
   2  10  -8   16.49    1.68
   1  10  -8   26.89    1.61
   0  10  -8    3.30    0.81
  -1  10  -8   31.83    2.32
   6   9  -8   32.94    1.93
  -6  -9   8   36.41    1.46
   5   9  -8    0.55    0.65
  -5  -9   8    1.70    0.42
  -5  -9   8    1.46    0.70
   4   9  -8   57.38    2.23
  -4  -9   8   57.76    1.81
  -4  -9   8   54.71    1.82
   3   9  -8   26.11    1.49
  -3  -9   8   25.58    1.15
  -3  -9   8   28.08    1.13
  -2  -9   8    3.08    0.54
  -2  -9   8    3.59    0.62
   1   9  -8   66.68    2.40
  -1  -9   8   63.90    2.07
  -1  -9   8   68.21    2.00
   0   9  -8   28.10    1.47
   0  -9   8   26.58    1.24
  -1   9  -8   22.43    1.34
   1  -9   8   23.18    1.16
  -2   9  -8   57.61    2.14
   2  -9   8   52.96    1.91
  -3   9  -8    8.77    1.11
   7   8  -8    4.63    0.82
  -7  -8   8    5.22    0.76
   6   8  -8   40.16    1.83
  -6  -8   8   40.20    1.46
  -6  -8   8   38.33    1.47
   5   8  -8   29.47    1.55
  -5  -8   8   29.31    1.18
  -5  -8   8   28.89    1.12
   4   8  -8    5.25    0.81
  -4  -8   8    3.88    0.60
  -4  -8   8    3.78    0.55
   3   8  -8   47.03    1.92
  -3  -8   8   45.83    1.62
  -3  -8   8   48.30    1.57
   2   8  -8    9.27    0.94
  -2  -8   8    8.49    0.63
  -2  -8   8    6.81    0.67
   1   8  -8   14.39    1.09
  -1  -8   8   15.22    0.78
  -1  -8   8   14.36    0.84
   0   8  -8   52.19    2.00
   0  -8   8   50.26    1.72
   0  -8   8   53.68    1.63
  -1   8  -8    0.99    0.51
   1  -8   8    0.39    0.35
   1  -8   8    0.32    0.50
  -2   8  -8   44.68    1.77
   2  -8   8   40.84    1.57
  -3   8  -8   33.74    1.54
   3  -8   8   32.57    1.44
   4  -8   8    1.77    0.53
  -8  -7   8   35.75    1.45
   7   7  -8    4.47    0.78
  -7  -7   8    6.21    0.72
   6   7  -8   26.10    1.43
  -6  -7   8   24.13    1.09
  -6  -7   8   24.07    0.97
   5   7  -8   45.36    1.87
  -5  -7   8   44.48    1.43
  -5  -7   8   46.81    1.56
   4   7  -8    4.66    0.83
  -4  -7   8    4.08    0.51
  -4  -7   8    4.38    0.54
   3   7  -8   26.92    1.34
  -3  -7   8   26.70    0.99
  -3  -7   8   26.19    1.02
   2   7  -8   26.43    1.33
  -2  -7   8   26.72    1.01
   1   7  -8    3.55    0.59
  -1  -7   8    2.75    0.51
  -1  -7   8    3.47    0.45
   0   7  -8    6.34    0.76
   0  -7   8    5.61    0.52
   0  -7   8    6.56    0.61
  -1   7  -8   15.40    1.12
   1  -7   8   18.28    0.81
   1  -7   8   15.89    0.85
  -2   7  -8   -0.54    0.51
   2  -7   8    0.43    0.37
   2  -7   8    0.07    0.30
  -3   7  -8   24.66    1.34
  -3   7  -8   25.64    1.22
   3  -7   8   23.18    1.04
   3  -7   8   22.77    1.14
  -4   7  -8   26.06    1.36
   4  -7   8   26.43    1.23
  -5   7  -8    3.01    0.69
  -8  -6   8   22.30    1.11
   7   6  -8   50.28    2.01
   7   6  -8   50.11    1.82
  -7  -6   8   50.55    1.72
   6   6  -8    0.47    0.51
  -6  -6   8    0.32    0.33
   5   6  -8   54.14    2.04
  -5  -6   8   55.29    1.73
  -5  -6   8   53.70    1.59
   4   6  -8   43.95    1.78
  -4  -6   8   45.46    1.55
   3   6  -8    4.06    0.67
  -3  -6   8    3.02    0.45
  -3  -6   8    2.19    0.37
   2   6  -8   70.12    2.30
  -2  -6   8   69.94    2.00
  -2  -6   8   69.82    1.92
   1   6  -8   38.04    1.52
  -1  -6   8   39.57    1.24
  -1  -6   8   37.33    1.21
   0   6  -8    0.12    0.34
   0  -6   8   -0.02    0.21
   0  -6   8    0.12    0.26
  -1   6  -8   52.14    1.78
  -1   6  -8   45.53    1.58
   1  -6   8   50.21    1.51
  -2   6  -8   28.93    1.27
   2  -6   8   27.86    1.09
   2  -6   8   29.39    1.07
  -3   6  -8    0.99    0.42
  -3   6  -8    0.26    0.45
   3  -6   8    0.86    0.40
   3  -6   8    0.63    0.31
  -4   6  -8   52.89    1.98
  -4   6  -8   54.86    1.80
   4  -6   8   53.07    1.70
   4  -6   8   49.88    1.73
   5  -6   8   13.55    0.97
   6  -6   8   15.40    1.07
  -7   6  -8   32.18    1.69
   7  -6   8   30.01    1.47
  -9  -5   8   34.02    1.41
  -8  -5   8    1.06    0.41
   7   5  -8   32.79    1.32
  -7  -5   8   31.71    1.28
   6   5  -8   34.50    1.54
   6   5  -8   35.85    1.34
  -6  -5   8   36.39    1.32
  -5  -5   8    1.46    0.48
   4   5  -8   77.98    2.52
  -4  -5   8   79.71    2.22
  -4  -5   8   77.73    2.07
   3   5  -8   64.84    2.18
  -3  -5   8   66.95    1.91
  -3  -5   8   66.40    1.78
   2   5  -8   13.21    0.86
  -2  -5   8   11.78    0.62
  -2  -5   8   12.64    0.56
   1   5  -8  107.97    3.15
  -1  -5   8  112.02    2.86
  -1  -5   8  108.97    2.77
   0   5  -8   37.07    1.44
   0   5  -8   36.68    1.25
   0  -5   8   38.69    1.21
   0  -5   8   36.53    1.16
  -1   5  -8   43.35    1.52
  -1   5  -8   39.89    1.36
   1  -5   8   38.75    1.23
   1  -5   8   40.56    1.27
  -2   5  -8   91.36    2.66
  -2   5  -8   92.62    2.62
   2  -5   8   89.33    2.44
   2  -5   8   91.18    2.47
  -3   5  -8    3.26    0.53
  -3   5  -8    2.68    0.50
   3  -5   8    2.52    0.37
  -4   5  -8   23.87    1.03
  -4   5  -8   23.54    1.22
   4  -5   8   24.00    1.00
   4  -5   8   21.57    0.99
   5  -5   8   62.58    1.91
   5  -5   8   58.34    1.91
   6  -5   8    0.64    0.44
  -7   5  -8   24.01    1.51
   7  -5   8   23.34    1.24
  -8   5  -8   24.16    1.49
   8  -5   8   21.23    1.44
   9   4  -8   54.10    2.04
  -9  -4   8   51.19    1.80
  -8  -4   8   35.71    1.39
   7   4  -8    3.74    0.60
  -7  -4   8    3.01    0.54
   6   4  -8   71.58    2.50
   6   4  -8   68.28    2.07
  -6  -4   8   70.12    2.10
   5   4  -8   15.74    0.76
   5   4  -8   16.78    0.99
  -5  -4   8   17.00    0.79
   4   4  -8   31.91    1.36
  -4  -4   8   31.87    1.11
   3   4  -8  104.94    3.08
  -3  -4   8  108.12    2.81
   2   4  -8    2.47    0.42
   2   4  -8    3.12    0.26
  -2  -4   8    3.87    0.26
  -2  -4   8    3.92    0.35
   1   4  -8   73.25    2.28
   1   4  -8   75.23    1.96
  -1  -4   8   75.73    1.90
  -1  -4   8   74.65    2.03
   0   4  -8   71.97    2.21
   0   4  -8   71.76    2.11
   0  -4   8   72.78    1.98
   0  -4   8   72.84    1.86
  -1   4  -8    4.53    0.51
   1  -4   8    3.95    0.32
   1  -4   8    4.66    0.36
  -2   4  -8   50.30    1.61
  -2   4  -8   49.78    1.65
   2  -4   8   49.45    1.50
   2  -4   8   52.38    1.49
  -3   4  -8   13.62    0.82
  -3   4  -8   12.76    0.73
   3  -4   8   14.43    0.66
   3  -4   8   11.99    0.66
  -4   4  -8    0.43    0.41
  -4   4  -8   -0.07    0.29
   4  -4   8    0.12    0.26
   4  -4   8    0.30    0.28
   5  -4   8   22.14    0.96
   5  -4   8   21.52    0.96
  -6   4  -8   34.32    1.58
   6  -4   8   31.66    1.26
   6  -4   8   29.73    1.25
  -7   4  -8    8.00    1.13
   7  -4   8    8.89    0.97
   7  -4   8    9.23    0.85
  -8   4  -8   35.69    1.80
   8  -4   8   38.19    1.50
   8  -4   8   34.55    1.49
 -10  -3   8    6.90    0.75
   9   3  -8   20.27    1.27
  -9  -3   8   17.51    0.99
   8   3  -8   67.02    2.34
   8   3  -8   66.98    2.22
  -8  -3   8   64.21    2.05
   7   3  -8    6.55    0.61
  -7  -3   8    5.78    0.61
   6   3  -8   61.61    1.83
  -6  -3   8   58.16    1.81
   5   3  -8   92.19    2.80
   5   3  -8   92.18    2.50
  -5  -3   8   92.34    2.52
   4   3  -8    2.09    0.44
   4   3  -8    2.26    0.33
  -4  -3   8    2.11    0.32
   3   3  -8  105.38    3.07
   3   3  -8  107.44    2.65
  -3  -3   8  110.93    2.63
   2   3  -8   53.15    1.81
   2   3  -8   56.49    1.48
  -2  -3   8   57.53    1.43
  -2  -3   8   55.54    1.59
   1   3  -8   49.95    1.71
   1   3  -8   53.32    1.43
  -1  -3   8   53.07    1.33
  -1  -3   8   49.95    1.47
   0   3  -8  109.06    3.03
   0  -3   8  109.74    2.65
   0  -3   8  108.47    2.80
  -1   3  -8   43.71    1.36
  -1   3  -8   43.88    1.49
   1  -3   8   44.82    1.20
   1  -3   8   43.85    1.31
  -2   3  -8    9.66    0.62
  -2   3  -8    8.81    0.58
   2  -3   8    9.64    0.41
   2  -3   8    9.69    0.50
  -3   3  -8   98.33    2.72
  -3   3  -8   99.41    2.72
   3  -3   8   97.30    2.52
   3  -3   8   99.47    2.65
  -4   3  -8    7.90    0.57
  -4   3  -8    8.05    0.69
   4  -3   8    7.46    0.56
   4  -3   8    7.03    0.54
   5  -3   8    1.29    0.32
   5  -3   8    1.37    0.33
  -6   3  -8   43.60    2.32
   6  -3   8   44.05    1.49
   6  -3   8   47.60    1.57
  -7   3  -8    7.64    1.00
   7  -3   8    6.83    0.70
   7  -3   8    6.28    0.75
  -8   3  -8   25.77    1.57
   8  -3   8   27.05    1.26
   8  -3   8   27.20    1.26
  -9   3  -8   28.52    1.65
   9  -3   8   26.92    1.39
   9  -3   8   30.00    1.38
   9   2  -8    1.61    0.62
   8   2  -8   36.53    1.60
   8   2  -8   34.73    1.41
   7   2  -8   31.92    1.21
   6   2  -8    0.78    0.30
  -6  -2   8    0.67    0.27
   5   2  -8   54.19    1.91
   5   2  -8   56.32    1.66
  -5  -2   8   57.18    1.58
  -5  -2   8   56.93    1.67
   4   2  -8   29.33    0.93
   4   2  -8   29.67    1.23
  -4  -2   8   28.39    0.89
  -4  -2   8   29.66    1.00
   3   2  -8    3.97    0.52
   3   2  -8    5.11    0.30
  -3  -2   8    5.17    0.38
  -3  -2   8    4.70    0.30
   2   2  -8  112.14    3.12
  -2  -2   8  108.02    2.86
  -2  -2   8  113.67    2.80
  -2  -2   8  114.69    2.67
  -1  -2   8   57.38    1.60
  -1  -2   8   58.15    1.41
   0   2  -8   46.29    1.55
   0   2  -8   48.77    1.40
   0  -2   8   47.14    1.20
   0  -2   8   49.97    1.39
  -1   2  -8  137.96    3.47
  -1   2  -8  138.67    3.63
   1  -2   8  139.10    3.45
   1  -2   8  135.57    3.27
  -2   2  -8   66.67    1.97
  -2   2  -8   67.76    1.89
   2  -2   8   66.10    1.68
   2  -2   8   65.26    1.84
  -3   2  -8  124.27    3.27
  -3   2  -8  124.30    3.27
   3  -2   8  121.82    3.05
   3  -2   8  126.49    3.22
  -4   2  -8  177.83    4.42
   4  -2   8  174.07    4.43
   4  -2   8  175.37    4.29
  -5   2  -8    0.85    0.24
   5  -2   8    0.55    0.24
   5  -2   8    0.38    0.27
  -6   2  -8   39.09    1.54
   6  -2   8   40.24    1.35
   6  -2   8   31.96    1.21
  -7   2  -8   61.80    2.20
   7  -2   8   59.98    1.89
   7  -2   8   61.30    2.05
  -8   2  -8    1.47    0.63
   8  -2   8    1.58    0.47
   8  -2   8    2.00    0.49
  -9   2  -8   25.31    1.60
   9  -2   8   27.20    1.32
   9  -2   8   26.88    1.35
  10  -2   8   10.60    1.11
   9   1  -8   32.62    1.51
   8   1  -8    2.08    1.12
   8   1  -8    4.57    0.64
   7   1  -8   87.70    2.74
   7   1  -8   84.52    2.47
  -7  -1   8   89.08    2.77
   6   1  -8   54.53    1.68
  -6  -1   8   56.83    1.60
  -5  -1   8   -0.10    0.19
   4   1  -8   72.51    2.24
   4   1  -8   73.73    1.93
  -4  -1   8   73.57    1.97
  -4  -1   8   73.81    2.23
   3   1  -8   44.74    1.58
   3   1  -8   48.30    1.27
  -3  -1   8   47.31    1.35
  -3  -1   8   47.52    1.37
   2   1  -8    2.57    0.44
  -2  -1   8    1.99    0.26
  -2  -1   8    2.46    0.13
   1   1  -8  165.22    4.19
  -1  -1   8  161.84    3.95
  -1  -1   8  157.58    4.09
   0   1  -8   23.25    0.81
   0  -1   8   23.69    0.79
  -1   1  -8   50.72    1.59
  -1   1  -8   50.10    1.45
   1  -1   8   49.58    1.42
  -2   1  -8  127.12    3.25
  -2   1  -8  126.57    3.34
   2  -1   8  128.22    3.01
   2  -1   8  127.68    3.24
  -3   1  -8   40.37    1.31
  -3   1  -8   40.86    1.34
   3  -1   8   38.91    1.26
   3  -1   8   39.00    1.07
  -4   1  -8  117.47    2.99
  -4   1  -8  113.02    3.08
   4  -1   8  117.04    3.04
   4  -1   8  112.63    2.85
  -5   1  -8   56.17    1.82
  -5   1  -8   57.90    1.59
   5  -1   8   54.80    1.72
  -6   1  -8    0.48    0.36
   6  -1   8    0.27    0.26
   6  -1   8   -0.02    0.25
   7  -1   8   35.70    1.34
  -8   1  -8   39.57    1.73
   8  -1   8   39.27    1.48
   8  -1   8   41.59    1.55
  -9   1  -8    3.46    0.73
   9  -1   8    3.70    0.60
 -10   1  -8   24.99    1.62
  10  -1   8   27.94    1.37
  10  -1   8   27.00    1.39
  -9   0   8   42.28    1.44
   8   0  -8   32.25    2.03
   8   0  -8   31.73    1.71
  -8   0   8   33.51    1.19
   7   0  -8   24.68    1.27
   7   0  -8   25.81    1.03
  -7   0   8   23.78    0.95
  -7   0   8   26.15    0.97
   6   0  -8  151.00    3.87
  -6   0   8  149.71    3.82
  -6   0   8  153.90    3.82
  -5   0   8   40.13    1.23
  -5   0   8   39.41    1.22
   4   0  -8   84.83    2.52
   4   0  -8   88.11    2.22
  -4   0   8   87.94    2.29
  -4   0   8   84.34    2.26
   3   0  -8  187.67    4.83
   3   0  -8  186.93    4.46
  -3   0   8  194.85    4.58
  -3   0   8  183.57    4.59
   2   0  -8   15.62    0.80
  -2   0   8   15.45    0.62
  -2   0   8   15.66    0.59
   1   0  -8   61.36    1.89
  -1   0   8   63.60    1.69
  -1   0   8   63.53    1.72
   0   0  -8  109.53    2.89
   0   0   8  104.83    2.69
   0   0   8  105.20    2.71
  -1   0  -8   17.43    0.81
  -1   0  -8   18.36    0.72
   1   0   8   17.58    0.66
  -2   0  -8   24.06    0.86
  -2   0  -8   25.11    0.96
   2   0   8   23.18    0.83
  -3   0  -8   60.71    1.77
  -3   0  -8   61.91    1.85
   3   0   8   62.60    1.77
   3   0   8   60.20    1.52
  -4   0  -8    4.17    0.44
  -4   0  -8    4.44    0.35
   4   0   8    3.45    0.36
   4   0   8    3.71    0.27
  -5   0  -8   69.09    1.85
  -5   0  -8   67.48    2.05
   5   0   8   67.40    2.00
   5   0   8   69.83    1.83
  -6   0  -8   33.89    1.36
   6   0   8   34.94    1.17
   6   0   8   34.66    1.25
  -7   0  -8    3.55    0.57
   7   0   8    3.18    0.52
   7   0   8    3.93    0.56
  -8   0  -8   33.79    1.56
   8   0   8   36.37    1.41
   8   0   8   35.99    1.37
  -9   0  -8   22.82    1.39
   9   0   8   20.02    1.70
   9   0   8   23.26    1.19
 -10   0  -8    6.55    1.19
  10   0   8    7.83    0.94
  10   0   8    9.33    0.96
  11   0   8   28.10    1.96
  -9   1   8   14.39    0.92
   8  -1  -8   45.48    1.83
  -8   1   8   46.42    1.46
  -8   1   8   48.01    1.60
   7  -1  -8    6.94    0.88
   7  -1  -8    7.29    0.60
  -7   1   8    6.81    0.52
  -7   1   8    6.78    0.56
   6  -1  -8   60.09    1.79
  -6   1   8   61.30    1.78
  -6   1   8   60.29    1.71
   5  -1  -8   77.49    2.15
  -5   1   8   79.69    2.14
  -5   1   8   76.58    2.07
   4  -1  -8    4.15    0.29
   4  -1  -8    3.36    0.51
  -4   1   8    3.97    0.36
  -4   1   8    4.05    0.33
   3  -1  -8  167.27    4.26
   3  -1  -8  166.47    3.91
  -3   1   8  157.72    3.98
  -3   1   8  163.03    4.06
   2  -1  -8   40.59    1.37
  -2   1   8   39.03    1.13
  -2   1   8   38.54    1.20
   1  -1  -8    9.83    0.61
  -1   1   8   10.03    0.49
  -1   1   8    9.61    0.44
   0  -1  -8  136.11    3.52
   0   1   8  135.69    3.35
   0   1   8  136.04    3.41
  -1  -1  -8   26.52    0.98
   1   1   8   23.56    0.84
   1   1   8   24.66    0.83
  -2  -1  -8   68.73    1.90
  -2  -1  -8   68.37    1.96
   2   1   8   69.52    1.89
  -3  -1  -8   38.62    1.22
  -3  -1  -8   38.31    1.23
   3   1   8   38.10    1.21
  -4  -1  -8   26.74    1.00
  -4  -1  -8   28.39    0.92
   4   1   8   26.64    0.97
   4   1   8   26.64    0.79
  -5  -1  -8   59.72    1.85
  -5  -1  -8   60.50    1.66
   5   1   8   61.17    1.81
   5   1   8   60.79    1.63
  -6  -1  -8  103.60    2.93
   6   1   8  104.68    2.88
   6   1   8  104.12    2.74
  -7  -1  -8    4.68    0.65
   7   1   8    5.41    0.54
   7   1   8    3.78    0.51
  -8  -1  -8   20.33    1.15
   8   1   8   20.35    1.03
   8   1   8   20.38    0.98
  -9  -1  -8   51.32    2.03
   9   1   8   50.88    1.78
   9   1   8   52.14    1.86
 -10  -1  -8    2.52    0.71
  10   1   8    2.23    0.57
  10   1   8    2.58    0.59
 -11  -1  -8   21.19    1.72
  11   1   8   19.14    1.29
  -9   2   8    0.99    0.46
   8  -2  -8   32.83    1.53
  -8   2   8   31.89    1.26
   7  -2  -8   22.11    1.23
   7  -2  -8   22.63    1.06
  -7   2   8   22.56    1.29
   6  -2  -8   10.29    0.61
  -6   2   8   10.58    0.63
  -6   2   8    9.32    0.50
   5  -2  -8   82.38    2.26
  -5   2   8   82.59    2.28
   4  -2  -8   44.80    1.55
   4  -2  -8   45.24    1.30
  -4   2   8   44.96    1.39
  -4   2   8   47.10    1.30
   3  -2  -8   20.66    0.92
   3  -2  -8   21.60    0.67
  -3   2   8   21.45    0.79
  -3   2   8   19.97    0.70
   2  -2  -8  107.39    2.57
   2  -2  -8  106.07    2.90
  -2   2   8  110.27    2.69
  -2   2   8  106.68    2.79
   1  -2  -8   11.94    0.64
  -1   2   8   11.37    0.55
  -1   2   8   12.01    0.49
   0  -2  -8   24.71    0.94
   0   2   8   25.33    0.82
   0   2   8   24.91    0.87
  -1  -2  -8  208.07    5.14
   1   2   8  209.32    5.10
   1   2   8  210.66    5.06
  -2  -2  -8    0.75    0.26
   2   2   8    0.56    0.17
   2   2   8    0.30    0.16
  -3  -2  -8  131.17    3.35
   3   2   8  130.62    3.34
  -4  -2  -8   74.86    2.02
  -4  -2  -8   74.79    2.11
   4   2   8   76.59    2.11
   4   2   8   73.75    1.89
  -5  -2  -8    0.36    0.18
  -5  -2  -8    0.69    0.24
   5   2   8    0.29    0.16
   5   2   8    0.24    0.18
  -6  -2  -8  139.17    3.72
   6   2   8  138.49    3.68
   6   2   8  140.81    3.55
  -7  -2  -8   39.96    1.47
   7   2   8   37.06    1.28
   7   2   8   38.71    1.40
  -8  -2  -8    8.36    0.89
   8   2   8    8.96    0.71
   8   2   8    6.08    0.63
  -9  -2  -8   54.97    2.08
   9   2   8   53.15    1.84
   9   2   8   55.08    1.91
 -10  -2  -8   24.28    1.48
  10   2   8   24.83    1.28
  10   2   8   26.83    1.27
 -11  -2  -8    1.13    0.73
  11   2   8    1.25    0.59
  -9   3   8   13.27    0.94
  -8   3   8    8.11    0.76
   7  -3  -8   25.85    1.32
  -7   3   8   25.88    1.09
  -6   3   8   13.05    0.73
  -5   3   8   21.41    0.73
  -5   3   8   22.87    0.93
   4  -3  -8  104.89    2.91
   4  -3  -8  105.30    2.78
  -4   3   8  105.74    2.80
  -4   3   8  101.80    2.59
   3  -3  -8   53.13    1.62
   3  -3  -8   54.97    1.38
  -3   3   8   44.38    1.47
  -3   3   8   47.50    1.35
   2  -3  -8  117.99    2.77
   2  -3  -8  113.73    3.04
  -2   3   8  110.81    2.97
   1  -3  -8  211.58    5.21
  -1   3   8  210.01    5.17
   0   3   8   26.31    0.95
   0   3   8   30.20    0.91
  -1  -3  -8   90.72    2.45
   1   3   8   94.58    2.40
   1   3   8   91.31    2.44
  -2  -3  -8  179.56    4.37
   2   3   8  176.37    4.35
   2   3   8  175.69    4.39
  -3  -3  -8   16.20    0.70
   3   3   8   17.54    0.70
  -4  -3  -8   79.71    2.20
   4   3   8   78.24    2.18
   4   3   8   78.27    1.99
  -5  -3  -8   35.50    1.08
  -5  -3  -8   35.49    1.23
   5   3   8   33.95    1.19
   5   3   8   35.00    1.04
  -6  -3  -8    8.69    0.64
   6   3   8    9.20    0.61
   6   3   8    8.19    0.58
  -7  -3  -8   66.04    2.10
   7   3   8   66.68    1.96
   7   3   8   67.75    2.08
  -9  -3  -8    5.69    0.82
   9   3   8    5.92    0.75
   9   3   8    6.51    0.71
 -10  -3  -8   27.17    1.50
  10   3   8   27.14    1.33
  10   3   8   28.34    1.33
 -11  -3  -8    7.14    1.18
   8  -4  -8    9.46    1.05
  -8   4   8   10.05    0.82
   7  -4  -8   12.86    1.18
  -7   4   8   13.50    0.85
   6  -4  -8   47.82    1.77
  -6   4   8   50.55    1.65
   5  -4  -8    7.31    0.52
  -5   4   8    6.25    0.56
   4  -4  -8   26.83    1.13
   4  -4  -8   27.78    0.99
  -4   4   8   28.66    1.06
   3  -4  -8   76.38    2.01
   3  -4  -8   75.24    2.21
  -3   4   8   76.41    2.15
  -3   4   8   74.93    1.91
   2  -4  -8    0.69    0.15
   2  -4  -8    0.34    0.24
  -2   4   8    0.27    0.16
  -2   4   8    0.32    0.12
   1  -4  -8  165.08    3.90
   1  -4  -8  161.25    4.12
  -1   4   8  166.40    3.95
  -1   4   8  160.68    4.11
   0  -4  -8   80.08    1.92
   0  -4  -8   78.26    2.16
   0   4   8   76.75    2.16
  -1  -4  -8    1.04    0.25
  -1  -4  -8    1.00    0.11
   1   4   8    0.51    0.21
   1   4   8    0.62    0.16
  -2  -4  -8  136.89    3.17
  -2  -4  -8  134.23    3.39
   2   4   8  132.01    3.43
   2   4   8  134.73    3.38
  -3  -4  -8   80.84    1.93
  -3  -4  -8   80.71    2.13
   3   4   8   79.12    2.16
   3   4   8   76.89    2.17
  -4  -4  -8    8.93    0.52
  -4  -4  -8    8.84    0.54
   4   4   8    8.99    0.39
   4   4   8    9.98    0.54
  -5  -4  -8   48.57    1.40
  -5  -4  -8   47.20    1.52
   5   4   8   46.81    1.35
   5   4   8   48.18    1.95
  -6  -4  -8   21.89    0.96
   6   4   8   20.45    0.91
   6   4   8   20.84    0.87
  -7  -4  -8   18.68    0.95
   7   4   8   20.40    0.96
   7   4   8   18.31    0.85
  -8  -4  -8   51.33    2.47
   8   4   8   52.72    1.80
  -9  -4  -8    4.92    0.80
   9   4   8    3.95    0.72
   9   4   8    5.53    0.73
 -10  -4  -8   12.36    1.14
  10   4   8   13.90    1.00
  10   4   8   12.77    1.00
 -11  -4  -8   20.51    1.47
  -8   5   8   66.41    2.18
  -7   5   8    1.87    0.43
  -6   5   8   49.62    1.70
   5  -5  -8   46.93    1.58
  -5   5   8   47.91    1.60
   4  -5  -8    6.89    0.51
   4  -5  -8    6.45    0.67
  -4   5   8    5.32    0.54
   3  -5  -8   47.27    1.45
   3  -5  -8   48.71    1.58
  -3   5   8   47.30    1.52
   2  -5  -8   36.99    1.28
   2  -5  -8   38.04    1.12
  -2   5   8   36.03    1.24
   1  -5  -8   12.02    0.64
   1  -5  -8   11.63    0.46
  -1   5   8   11.92    0.44
  -1   5   8   11.44    0.61
   0  -5  -8   56.82    1.43
   0  -5  -8   52.43    1.59
   0   5   8   53.41    1.46
   0   5   8   52.16    1.60
  -1  -5  -8    8.40    0.34
  -1  -5  -8    7.45    0.48
   1   5   8    7.59    0.48
   1   5   8    7.92    0.46
  -2  -5  -8    5.29    0.26
  -2  -5  -8    5.09    0.40
   2   5   8    4.52    0.39
   2   5   8    4.60    0.38
  -3  -5  -8   95.22    2.32
  -3  -5  -8   94.30    2.48
   3   5   8   94.39    2.51
   3   5   8   93.88    2.54
  -4  -5  -8   17.19    0.69
  -4  -5  -8   17.11    0.56
   4   5   8   16.90    0.73
  -5  -5  -8   22.96    0.81
  -5  -5  -8   22.26    0.92
   5   5   8   21.88    0.98
   5   5   8   22.87    0.92
  -6  -5  -8   62.02    1.72
  -6  -5  -8   63.35    1.93
   6   5   8   61.50    1.80
  -7  -5  -8    3.21    0.55
   7   5   8    2.82    0.49
   7   5   8    3.24    0.55
   8   5   8   41.62    1.55
   8   5   8   39.40    1.46
  -9  -5  -8   36.63    1.56
   9   5   8   37.90    1.52
   9   5   8   35.60    1.44
 -10  -5  -8    0.42    0.54
  10   5   8    0.64    0.55
 -11  -5  -8   28.11    1.65
  -7   6   8   35.24    1.44
  -6   6   8    2.55    0.44
   5  -6  -8   57.39    2.14
  -5   6   8   59.10    1.90
   4  -6  -8   17.31    0.93
   4  -6  -8   16.71    0.85
  -4   6   8   16.80    0.87
   3  -6  -8   23.37    0.93
   3  -6  -8   25.01    1.06
  -3   6   8   23.81    1.01
   2  -6  -8   70.57    2.00
   2  -6  -8   73.05    2.12
  -2   6   8   72.69    2.11
   1  -6  -8   19.50    0.87
   1  -6  -8   20.19    0.81
  -1   6   8   19.63    0.85
   0  -6  -8   74.97    1.94
   0  -6  -8   73.10    2.09
   0   6   8   72.72    2.11
   0   6   8   72.51    1.89
  -1  -6  -8   96.48    2.63
  -1  -6  -8  100.83    2.47
   1   6   8   97.02    2.66
  -2  -6  -8    6.69    0.48
  -2  -6  -8    6.97    0.34
   2   6   8    6.64    0.48
   2   6   8    7.06    0.49
  -3  -6  -8   47.83    1.45
  -3  -6  -8   49.83    1.32
   3   6   8   47.34    1.44
  -4  -6  -8   70.87    1.97
  -4  -6  -8   71.08    1.88
   4   6   8   73.26    2.04
  -5  -6  -8    0.35    0.25
  -5  -6  -8    0.36    0.22
   5   6   8    0.18    0.25
  -6  -6  -8   48.44    1.41
  -6  -6  -8   48.42    1.60
   6   6   8   47.64    1.51
  -7  -6  -8   33.88    1.33
   7   6   8   33.95    1.49
  -8  -6  -8    3.07    0.61
   8   6   8    3.75    0.55
   8   6   8    3.41    0.51
  -9  -6  -8   35.15    1.51
   9   6   8   35.58    1.46
   9   6   8   34.21    1.52
 -10  -6  -8   12.15    1.11
 -10  -6  -8   12.83    0.80
  10   6   8   12.39    1.44
  -6   7   8    5.63    0.70
   5  -7  -8    9.33    0.91
  -5   7   8   10.13    0.79
   4  -7  -8   57.47    1.93
  -4   7   8   56.26    1.86
   3  -7  -8    6.97    0.71
   3  -7  -8    7.73    0.71
  -3   7   8    6.36    0.61
   2  -7  -8   24.90    0.96
   2  -7  -8   23.49    1.26
  -2   7   8   25.65    1.33
   1  -7  -8   59.99    1.80
   1  -7  -8   64.50    1.93
  -1   7   8   64.85    1.93
   0  -7  -8    0.84    0.30
   0  -7  -8    0.39    0.24
   0   7   8    0.49    0.22
  -1  -7  -8  126.80    3.24
  -1  -7  -8  128.79    3.37
   1   7   8  130.40    3.41
  -2  -7  -8   68.24    1.83
  -2  -7  -8   66.36    1.94
   2   7   8   67.36    1.85
  -3  -7  -8    8.15    0.45
  -3  -7  -8    8.95    0.58
   3   7   8    9.73    0.54
  -4  -7  -8  107.84    2.79
  -4  -7  -8  108.54    2.88
   4   7   8  113.73    2.94
  -5  -7  -8   36.97    1.21
  -5  -7  -8   37.11    1.32
  -5  -7  -8   37.49    1.15
   5   7   8   38.38    1.33
  -6  -7  -8    5.96    0.59
  -6  -7  -8    6.47    0.48
   6   7   8    6.34    0.61
  -7  -7  -8   47.11    1.56
   7   7   8   35.17    1.39
  -8  -7  -8    8.84    0.81
   8   7   8    6.47    0.73
  -9  -7  -8   12.34    0.75
  -9  -7  -8   13.27    1.03
   9   7   8   10.56    0.91
 -10  -7  -8   23.21    1.05
   5  -8  -8   -0.50    0.53
  -5   8   8    0.88    0.41
   4  -8  -8   27.68    1.28
  -4   8   8   25.50    1.19
   3  -8  -8   37.81    1.48
  -3   8   8   38.01    1.42
   2  -8  -8    0.97    0.40
  -2   8   8    1.20    0.35
   1  -8  -8   35.20    1.30
   1  -8  -8   32.24    1.22
  -1   8   8   32.51    1.26
   0  -8  -8   20.42    0.94
   0  -8  -8   19.74    0.82
   0   8   8   17.03    1.23
  -1  -8  -8    8.26    0.53
  -1  -8  -8    8.00    0.74
   1   8   8    9.33    0.65
  -2  -8  -8   36.17    1.27
  -2  -8  -8   36.07    1.16
  -3  -8  -8    2.61    0.41
  -3  -8  -8    2.01    0.35
  -4  -8  -8   29.56    1.01
  -4  -8  -8   29.47    1.09
   4   8   8   29.42    1.08
   4   8   8   31.11    1.15
  -5  -8  -8   43.24    1.39
  -5  -8  -8   42.45    1.31
  -6  -8  -8    3.18    0.41
  -6  -8  -8    2.52    0.40
  -6  -8  -8    3.18    0.46
  -7  -8  -8   15.08    1.08
  -7  -8  -8   17.54    0.81
  -8  -8  -8   30.81    1.20
  -8  -8  -8   32.06    1.36
   8   8   8   32.66    1.33
  -9  -8  -8    0.48    0.34
 -10  -8  -8   14.19    1.17
   4  -9  -8    1.50    0.57
  -4   9   8    1.70    0.45
   3  -9  -8   40.42    1.58
  -3   9   8   39.96    1.53
   2  -9  -8   15.33    0.98
  -2   9   8   14.42    0.90
   1  -9  -8   12.61    0.89
  -1   9   8   11.78    0.83
   0  -9  -8   40.95    1.51
   0   9   8   41.68    1.48
  -1  -9  -8    3.90    0.59
  -1  -9  -8    5.19    0.62
  -2  -9  -8   16.45    0.89
  -2  -9  -8   16.62    0.80
  -3  -9  -8   32.12    1.22
  -3  -9  -8   31.78    1.14
  -4  -9  -8    0.39    0.35
  -4  -9  -8    0.66    0.29
   4   9   8    0.92    0.54
  -5  -9  -8   24.50    1.06
  -5  -9  -8   25.74    0.98
  -6  -9  -8   13.64    0.90
  -6  -9  -8   13.11    0.84
  -6  -9  -8   12.11    1.19
  -7  -9  -8    0.19    0.42
  -7  -9  -8    0.95    0.32
  -8  -9  -8   20.96    0.98
  -9  -9  -8   13.01    0.84
   3 -10  -8   11.01    1.37
  -3  10   8   11.49    0.99
   2 -10  -8   40.44    1.63
  -2  10   8   42.03    1.58
   1 -10  -8   10.20    0.94
  -1  10   8    8.93    0.79
   0 -10  -8   17.40    1.03
   0  10   8   18.72    1.05
  -1 -10  -8   43.52    1.59
  -2 -10  -8    1.27    0.43
  -3 -10  -8   40.18    1.49
   3  10   8   41.74    1.51
  -4 -10  -8   54.73    1.84
   4  10   8   60.35    1.88
  -5 -10  -8    1.55    0.46
  -6 -10  -8   52.80    1.73
  -1  11   8   28.65    1.28
   0 -11  -8    1.29    0.53
  -1 -11  -8   28.53    1.31
  -2 -11  -8   24.27    1.20
  -3 -11  -8    0.73    0.48
   3  11   8    0.15    0.38
  -4 -11  -8   25.96    1.21
  -5 -11  -8   14.29    0.95
  -6 -11  -8   13.02    0.95
   4   9  -9   34.66    2.41
  -4  -9   9   34.88    1.36
   3   9  -9    4.47    0.75
  -3  -9   9    5.35    0.72
   2   9  -9   16.66    1.28
  -2  -9   9   17.37    0.94
   1   9  -9   51.30    2.10
  -1  -9   9   53.96    1.73
   0   9  -9    2.80    0.66
  -1   9  -9   24.41    1.48
  -2   9  -9   47.44    2.00
   6   8  -9   43.02    1.97
  -6  -8   9   42.83    1.64
   5   8  -9    6.49    1.04
  -5  -8   9    6.47    0.70
   4   8  -9   21.93    1.38
  -4  -8   9   19.12    0.99
   3   8  -9   25.69    1.45
  -3  -8   9   26.31    1.10
   2   8  -9    0.58    0.56
  -2  -8   9    0.96    0.37
   1   8  -9   23.49    1.38
  -1  -8   9   23.37    1.02
   0   8  -9   20.71    1.33
   0  -8   9   23.83    1.04
  -1   8  -9    5.51    0.80
   1  -8   9    5.27    0.69
  -2   8  -9   32.93    1.57
  -3   8  -9   26.92    1.39
   7   7  -9    0.27    0.64
  -7  -7   9    0.93    0.42
   6   7  -9   28.21    1.56
  -6  -7   9   27.63    1.20
   5   7  -9   31.57    1.61
  -5  -7   9   31.15    1.25
   4   7  -9    0.79    0.55
  -4  -7   9    0.23    0.33
   3   7  -9   51.03    2.01
  -3  -7   9   50.65    1.65
   2   7  -9   34.38    1.59
  -2  -7   9   32.82    1.21
   1   7  -9    3.62    0.67
  -1  -7   9    4.01    0.52
   0   7  -9   72.78    2.46
   0  -7   9   72.19    2.11
  -1   7  -9    7.21    0.87
   1  -7   9    5.76    0.66
  -2   7  -9   25.62    1.32
   2  -7   9   24.90    1.08
  -3   7  -9   42.95    1.69
   3  -7   9   42.02    1.52
  -5   7  -9   35.31    1.75
   8   6  -9   20.75    1.44
  -8  -6   9   21.83    1.50
   7   6  -9   11.20    1.17
  -7  -6   9   10.97    0.84
   6   6  -9    9.78    1.06
  -6  -6   9    8.73    0.74
   5   6  -9   42.69    1.83
  -5  -6   9   43.00    1.49
   4   6  -9   22.26    1.34
  -4  -6   9   24.53    1.03
   3   6  -9    9.92    0.91
  -3  -6   9   10.45    0.67
   2   6  -9   59.96    2.13
  -2  -6   9   59.88    1.80
   1   6  -9   11.94    0.92
   0   6  -9   28.00    2.02
   0  -6   9   29.00    1.16
  -1   6  -9   88.26    3.34
   1  -6   9   91.95    2.62
  -2   6  -9    0.30    0.43
  -2   6  -9    0.22    0.45
  -3   6  -9   39.08    1.64
  -3   6  -9   40.52    1.63
   3  -6   9   41.25    1.44
  -4   6  -9   82.67    2.72
   4  -6   9   85.46    2.49
   5  -6   9   -0.08    0.48
  -7   6  -9   21.80    2.19
  -8  -5   9    4.73    0.67
   7   5  -9   46.95    1.95
  -7  -5   9   45.80    1.63
   6   5  -9   10.22    1.02
  -6  -5   9   11.42    0.77
   5   5  -9   39.41    1.69
  -5  -5   9   39.41    1.38
   4   5  -9   68.72    2.36
  -4  -5   9   69.05    2.03
   2   5  -9   32.30    1.42
  -2  -5   9   31.63    1.12
   1   5  -9   40.85    1.62
  -1  -5   9   40.86    1.32
   0   5  -9   12.29    0.87
   0   5  -9   11.91    0.72
   0  -5   9   11.94    0.62
  -1   5  -9   30.47    1.32
  -1   5  -9   28.56    1.16
   1  -5   9   33.12    1.11
  -2   5  -9   42.11    1.52
  -2   5  -9   40.07    1.55
   2  -5   9   40.57    1.37
  -3   5  -9    0.43    0.47
  -3   5  -9    0.77    0.39
   3  -5   9    0.87    0.34
  -4   5  -9   33.38    1.58
  -4   5  -9   39.85    1.44
   5  -5   9   75.13    2.30
   6  -5   9    9.56    0.90
  -7   5  -9   51.12    2.20
  -9  -4   9   57.06    1.92
  -8  -4   9    6.52    0.73
   7   4  -9   25.73    1.73
  -7  -4   9   24.81    1.11
   6   4  -9   75.11    2.56
  -6  -4   9   76.20    2.24
   5   4  -9    3.82    0.66
  -5  -4   9    2.97    0.49
   4   4  -9   49.36    1.86
  -4  -4   9   49.07    1.58
   3   4  -9   73.74    2.40
  -3  -4   9   73.97    2.10
   2   4  -9    0.68    0.40
  -2  -4   9    1.67    0.29
   1   4  -9   56.96    1.95
   1   4  -9   56.78    1.64
  -1  -4   9   57.51    1.66
   0   4  -9   66.50    1.90
   0   4  -9   67.79    2.17
   0  -4   9   66.86    1.90
  -1   4  -9    5.21    0.62
   1  -4   9    5.19    0.45
  -2   4  -9   62.23    2.01
  -2   4  -9   62.96    1.95
   2  -4   9   63.34    1.85
  -3   4  -9   11.08    0.84
  -3   4  -9   12.09    0.77
   3  -4   9   10.49    0.66
  -4   4  -9    0.74    0.42
  -4   4  -9    1.18    0.34
   4  -4   9    1.07    0.34
  -6   4  -9   20.22    1.38
   6  -4   9   19.29    1.03
  -7   4  -9   16.83    1.38
   7  -4   9   18.94    1.11
  -8   4  -9   19.09    1.45
   8  -4   9   20.07    1.19
  -9  -3   9   23.60    1.11
  -8  -3   9   23.06    1.08
  -7  -3   9    2.28    0.42
   6   3  -9   31.52    1.47
  -6  -3   9   30.40    1.17
   5   3  -9   34.63    1.51
  -5  -3   9   33.76    1.23
   4   3  -9    9.20    0.80
  -4  -3   9    8.36    0.56
   3   3  -9   80.07    2.50
   3   3  -9   78.46    2.08
  -3  -3   9   77.36    2.17
   2   3  -9   39.72    1.32
   2   3  -9   43.33    1.60
  -2  -3   9   43.44    1.32
   1   3  -9   24.63    1.12
   1   3  -9   24.55    0.87
  -1  -3   9   24.09    0.88
   0   3  -9   75.80    2.31
   0  -3   9   73.98    2.05
  -1   3  -9   25.75    1.10
  -1   3  -9   25.15    0.96
   1  -3   9   25.77    0.92
  -2   3  -9   24.97    1.01
  -2   3  -9   25.76    1.08
   2  -3   9   25.43    0.96
  -3   3  -9   85.16    2.45
  -3   3  -9   82.37    2.43
   3  -3   9   84.36    2.36
  -4   3  -9   -0.05    0.30
   4  -3   9   -0.23    0.27
   5  -3   9    8.53    0.65
  -6   3  -9   41.74    1.78
   6  -3   9   43.99    1.55
  -7   3  -9   -0.01    0.57
   7  -3   9    0.57    0.48
  -8   3  -9   36.56    1.89
   8  -3   9   40.01    1.59
   9  -3   9   16.88    1.26
   9   2  -9    0.04    0.65
  -7  -2   9   13.86    0.82
   5   2  -9   36.78    1.55
  -5  -2   9   37.20    1.25
   4   2  -9    5.70    0.70
  -4  -2   9    5.01    0.44
  -4  -2   9    5.08    0.45
   3   2  -9   57.53    1.96
  -3  -2   9   57.98    1.60
   2   2  -9   93.62    2.75
  -2  -2   9   92.46    2.45
   1   2  -9    0.51    0.29
   1   2  -9    0.22    0.22
  -1  -2   9    0.64    0.19
   0   2  -9  115.51    2.93
   0   2  -9  114.84    3.17
   0  -2   9  111.25    2.92
  -1   2  -9   55.87    1.79
  -1   2  -9   56.35    1.63
   1  -2   9   53.94    1.59
  -2   2  -9    1.29    0.29
  -2   2  -9    0.82    0.30
   2  -2   9    0.95    0.24
  -3   2  -9  114.31    3.12
  -3   2  -9  115.27    3.11
   3  -2   9  116.23    3.06
  -4   2  -9   43.17    1.42
   4  -2   9   41.78    1.41
  -5   2  -9   18.55    1.02
   5  -2   9   20.50    0.93
  -6   2  -9   55.20    2.03
  -7   2  -9   35.10    1.66
   7  -2   9   35.91    1.42
  -8   2  -9   21.58    1.47
   8  -2   9   24.53    1.22
  -9   2  -9   53.17    2.28
   9  -2   9   58.14    2.07
  10  -2   9    4.25    1.45
   9   1  -9    1.13    0.65
  -6  -1   9    0.96    0.27
   5   1  -9   22.37    1.17
  -5  -1   9   23.10    0.86
   4   1  -9   61.32    2.04
  -4  -1   9   59.20    1.69
   3   1  -9    2.71    0.47
  -3  -1   9    1.98    0.32
   2   1  -9   48.47    1.67
  -2  -1   9   49.03    1.41
  -2  -1   9   48.15    1.41
   1   1  -9   85.53    2.53
  -1  -1   9   88.33    2.29
  -1  -1   9   85.81    2.28
   0   1  -9    5.27    0.53
   0   1  -9    5.36    0.41
   0  -1   9    6.14    0.38
  -1   1  -9  143.49    3.73
  -1   1  -9  140.84    3.55
   1  -1   9  135.74    3.52
  -2   1  -9   88.46    2.41
  -2   1  -9   88.96    2.50
   2  -1   9   86.80    2.37
  -3   1  -9    1.18    0.34
   3  -1   9    1.53    0.28
  -4   1  -9  169.43    4.30
  -4   1  -9  168.11    4.38
   4  -1   9  169.63    4.33
  -5   1  -9   11.86    0.81
   5  -1   9   11.24    0.69
  -6   1  -9   24.94    1.24
   6  -1   9   26.37    1.10
  -7   1  -9   44.24    1.79
   7  -1   9   44.54    1.61
  -8   1  -9    1.26    0.56
   8  -1   9    1.59    0.45
  -9   1  -9   29.38    1.72
   9  -1   9   34.26    1.48
  10  -1   9   19.25    1.27
  -8   0   9    1.12    0.35
  -7   0   9   68.14    2.36
  -7   0   9   70.01    2.00
  -6   0   9   39.03    1.30
  -6   0   9   40.83    1.30
   5   0  -9    7.99    0.79
  -5   0   9    8.23    0.53
  -5   0   9    8.86    0.60
   4   0  -9   56.17    1.90
  -4   0   9   54.71    1.60
  -4   0   9   54.17    1.58
   3   0  -9   35.33    1.37
  -3   0   9   34.91    1.09
  -3   0   9   34.54    1.12
   2   0  -9    2.61    0.42
  -2   0   9    2.10    0.29
  -2   0   9    2.34    0.28
   1   0  -9   65.61    2.05
  -1   0   9   67.78    1.86
  -1   0   9   67.52    1.82
   0   0  -9   70.33    2.08
   0   0   9   67.14    1.85
   0   0   9   67.92    1.89
  -1   0  -9   13.18    0.73
  -1   0  -9   14.53    0.65
   1   0   9   14.44    0.61
  -2   0  -9   76.06    2.19
  -2   0  -9   75.02    2.10
   2   0   9   76.04    2.09
  -3   0  -9   61.42    1.82
  -3   0  -9   59.64    1.79
   3   0   9   59.12    1.76
  -4   0  -9   12.63    0.72
  -4   0  -9   11.88    0.71
   4   0   9   13.05    0.68
  -5   0  -9  111.18    3.06
  -5   0  -9  103.76    2.95
   5   0   9  113.04    3.01
  -6   0  -9   13.34    0.91
   6   0   9   13.65    0.78
  -7   0  -9    9.26    0.86
   7   0   9    9.16    0.71
  -8   0  -9   36.43    1.65
   8   0   9   36.62    1.49
  -9   0  -9    0.41    0.60
   9   0   9    1.02    0.49
 -10   0  -9   17.59    1.44
  10   0   9   19.08    1.22
   8  -1  -9   33.31    2.14
  -8   1   9   34.95    1.28
  -7   1   9    0.30    0.33
  -7   1   9    0.15    0.28
  -6   1   9  101.42    2.72
  -6   1   9   98.63    2.64
   5  -1  -9   38.44    1.54
  -5   1   9   40.36    1.23
  -5   1   9   37.71    1.27
   4  -1  -9   10.16    0.79
  -4   1   9    9.91    0.56
  -4   1   9   10.02    0.51
   3  -1  -9   62.18    2.01
  -3   1   9   62.23    1.70
  -3   1   9   63.04    1.79
   2  -1  -9    4.14    0.53
  -2   1   9    4.50    0.38
  -2   1   9    4.50    0.33
   1  -1  -9   30.52    1.18
  -1   1   9   30.95    0.98
  -1   1   9   31.19    1.03
   0  -1  -9   64.46    1.94
   0   1   9   64.37    1.80
   0   1   9   62.39    1.74
  -1  -1  -9    1.16    0.32
   1   1   9    1.22    0.23
   1   1   9    1.16    0.21
  -2  -1  -9   45.21    1.39
  -2  -1  -9   44.30    1.45
   2   1   9   43.86    1.36
  -3  -1  -9   34.03    1.17
  -3  -1  -9   35.21    1.20
   3   1   9   32.96    1.14
  -4  -1  -9   13.88    0.73
  -4  -1  -9   14.74    0.75
   4   1   9   14.04    0.69
  -5  -1  -9   35.92    1.15
  -5  -1  -9   35.13    1.31
   5   1   9   33.65    1.24
  -6  -1  -9   65.23    2.10
   6   1   9   66.22    2.04
  -7  -1  -9    2.75    0.53
   7   1   9    3.93    0.64
  -8  -1  -9   36.04    1.63
   8   1   9   37.71    1.48
  -9  -1  -9   41.17    1.84
   9   1   9   41.59    1.66
 -10  -1  -9    1.48    0.68
  10   1   9    1.26    0.57
  -9   2   9    7.32    0.85
   8  -2  -9   23.38    2.11
  -8   2   9   26.55    1.17
  -7   2   9   15.14    0.88
  -6   2   9   10.23    0.56
  -6   2   9   14.15    0.75
   5  -2  -9  115.50    3.24
  -5   2   9  103.26    2.81
  -5   2   9  114.50    2.99
   4  -2  -9   21.11    1.07
  -4   2   9   21.58    0.88
  -4   2   9   21.03    0.75
   3  -2  -9   36.74    1.40
  -3   2   9   37.56    1.23
  -3   2   9   37.79    1.11
   2  -2  -9   96.33    2.72
  -2   2   9   97.51    2.46
  -2   2   9   94.64    2.57
   1  -2  -9    6.31    0.55
  -1   2   9    5.51    0.40
  -1   2   9    5.26    0.35
   0  -2  -9   36.28    1.26
   0   2   9   36.23    1.10
   0   2   9   35.44    1.16
  -1  -2  -9   63.36    1.88
   1   2   9   62.26    1.79
   1   2   9   62.69    1.75
  -2  -2  -9    9.94    0.59
   2   2   9    9.81    0.52
   2   2   9   10.01    0.53
  -3  -2  -9   89.16    2.45
  -3  -2  -9   88.86    2.45
   3   2   9   90.38    2.43
  -4  -2  -9   46.62    1.51
  -4  -2  -9   45.47    1.47
   4   2   9   48.39    1.50
  -5  -2  -9    5.72    0.54
   5   2   9    5.79    0.50
  -6  -2  -9   93.43    2.71
   6   2   9   93.00    2.67
   7   2   9   23.89    1.36
  -8  -2  -9   11.25    0.94
   8   2   9   12.78    0.87
  -9  -2  -9   47.48    1.96
   9   2   9   49.57    1.83
 -10  -2  -9    3.66    0.76
  10   2   9    5.40    0.89
  -9   3   9    0.62    0.61
  -8   3   9   30.92    1.31
  -7   3   9   16.18    0.92
  -6   3   9    0.32    0.32
   5  -3  -9   51.70    1.87
  -5   3   9   52.44    1.66
   4  -3  -9   47.95    1.66
  -4   3   9   44.99    1.31
  -4   3   9   46.08    1.49
   3  -3  -9    4.29    0.58
  -3   3   9    3.01    0.42
  -3   3   9    3.11    0.30
   2  -3  -9  100.69    2.79
  -2   3   9  101.20    2.69
  -2   3   9   96.57    2.52
   1  -3  -9   70.46    2.07
  -1   3   9   70.41    1.88
  -1   3   9   70.32    2.00
   0   3   9    1.28    0.24
   0   3   9    1.24    0.22
  -1  -3  -9  101.71    2.75
   1   3   9  102.90    2.66
   1   3   9  101.73    2.71
  -2  -3  -9   63.84    1.84
   2   3   9   63.41    1.79
   2   3   9   61.02    1.80
  -3  -3  -9   30.61    1.05
   3   3   9   27.51    1.01
  -4  -3  -9   99.80    2.66
  -4  -3  -9   99.46    2.73
   4   3   9  101.35    2.73
   5   3   9   14.68    0.76
  -6  -3  -9   45.94    1.61
   6   3   9   47.77    1.59
   7   3   9   64.66    2.63
  -8  -3  -9    4.91    0.79
   8   3   9    5.26    0.67
  -9  -3  -9   20.37    1.28
   9   3   9   21.64    1.15
 -10  -3  -9   23.25    1.46
  10   3   9   21.89    1.24
  -8   4   9    2.23    0.53
  -7   4   9   36.32    1.43
  -6   4   9   11.51    0.80
   5  -4  -9    7.67    0.81
  -5   4   9    7.69    0.65
   4  -4  -9   65.47    2.12
  -4   4   9   67.34    2.00
   3  -4  -9   17.52    0.91
  -3   4   9   16.96    0.64
  -3   4   9   16.38    0.78
   2  -4  -9   24.17    1.02
  -2   4   9   22.46    0.93
  -2   4   9   23.47    0.80
   1  -4  -9   77.22    2.22
  -1   4   9   75.08    2.02
  -1   4   9   77.01    2.17
   0  -4  -9    2.79    0.42
   0   4   9    2.53    0.32
  -1  -4  -9   43.78    1.38
   1   4   9   41.89    1.35
   1   4   9   42.08    1.28
  -2  -4  -9   67.96    1.93
   2   4   9   65.00    1.92
   2   4   9   68.32    1.89
  -3  -4  -9    0.47    0.23
   3   4   9    0.08    0.19
   3   4   9    0.41    0.20
  -4  -4  -9   38.36    1.31
  -4  -4  -9   37.51    1.22
   4   4   9   38.22    1.36
  -5  -4  -9   35.26    1.17
  -5  -4  -9   36.64    1.30
   5   4   9   34.82    1.37
  -6  -4  -9    0.54    0.32
   6   4   9    0.51    0.30
   7   4   9   29.10    1.25
  -8  -4  -9   25.87    1.27
   8   4   9   26.85    1.25
  -9  -4  -9    0.21    0.49
   9   4   9    0.61    0.46
 -10  -4  -9   26.75    1.55
  10   4   9   28.02    1.38
  -7   5   9    6.82    0.78
  -6   5   9   30.31    1.27
   5  -5  -9    5.66    0.81
  -5   5   9    5.50    0.65
   4  -5  -9   24.30    1.16
  -4   5   9   24.35    1.03
   3  -5  -9   62.56    2.00
  -3   5   9   62.59    1.92
   2  -5  -9    5.74    0.59
  -2   5   9    5.67    0.51
   1  -5  -9   33.81    1.25
  -1   5   9   35.64    1.08
  -1   5   9   34.69    1.22
   0  -5  -9   52.86    1.64
   0   5   9   51.85    1.63
   0   5   9   52.09    1.49
  -1  -5  -9    0.85    0.27
   1   5   9    0.64    0.23
  -2  -5  -9   28.59    1.03
   2   5   9   28.39    0.98
   2   5   9   29.26    1.06
  -3  -5  -9   16.78    0.74
   3   5   9   16.74    0.77
   3   5   9   16.31    0.73
  -4  -5  -9    3.38    0.41
   4   5   9    3.90    0.44
  -5  -5  -9   37.30    1.33
  -5  -5  -9   37.91    1.22
  -6  -5  -9   22.55    1.05
   6   5   9   22.18    1.03
  -7  -5  -9   12.12    0.97
   7   5   9   13.03    0.84
  -8  -5  -9   35.71    1.49
   8   5   9   36.24    1.49
  -9  -5  -9    9.28    1.01
   9   5   9   10.70    0.91
 -10  -5  -9    6.77    1.06
  10   5   9    8.63    0.93
 -11  -5  -9   29.82    2.27
  -6   6   9   22.13    1.14
   5  -6  -9   33.13    1.48
  -5   6   9   30.80    1.29
   4  -6  -9    0.59    0.46
  -4   6   9   -0.32    0.29
   3  -6  -9   36.88    1.42
  -3   6   9   36.53    1.35
   1  -6  -9    0.90    0.35
  -1   6   9    1.15    0.29
   0  -6  -9   61.52    1.86
   0   6   9   61.30    1.88
  -1  -6  -9   76.18    2.14
   1   6   9   72.43    2.16
   1   6   9   74.02    2.01
  -2  -6  -9    1.15    0.30
   2   6   9    0.77    0.25
   2   6   9    0.61    0.22
  -3  -6  -9   69.93    1.98
   3   6   9   68.83    1.96
   3   6   9   67.28    2.02
  -4  -6  -9   46.27    1.45
   4   6   9   47.61    1.51
   4   6   9   47.67    1.54
  -5  -6  -9    0.75    0.31
  -5  -6  -9    0.89    0.29
   5   6   9    0.35    0.31
  -6  -6  -9   72.65    2.23
  -7  -6  -9   14.62    0.90
   7   6   9   14.55    0.92
  -8  -6  -9   31.46    1.43
   8   6   9   32.59    1.40
  -9  -6  -9   39.25    1.68
   9   6   9   39.02    1.62
 -10  -6  -9    2.49    0.71
   6  -7  -9   -0.32    0.62
   5  -7  -9   35.64    1.57
  -5   7   9   34.51    1.41
   4  -7  -9   27.50    1.31
  -4   7   9   27.02    1.18
   3  -7  -9    4.28    0.59
  -3   7   9    4.24    0.58
   2  -7  -9   55.99    1.85
  -2   7   9   56.14    1.82
   1  -7  -9   18.98    0.95
  -1   7   9   18.86    0.91
   0   7   9   13.42    0.98
  -1  -7  -9   65.90    1.98
   1   7   9   64.61    1.99
  -2  -7  -9   25.64    1.04
   2   7   9   26.99    1.06
   2   7   9   26.18    0.92
  -3  -7  -9   28.37    1.07
   3   7   9   30.59    1.14
   3   7   9   25.57    1.00
  -4  -7  -9   81.56    2.29
   4   7   9   81.96    2.32
  -5  -7  -9   14.62    0.83
  -5  -7  -9   13.48    0.73
   5   7   9   14.03    0.82
  -6  -7  -9   11.41    0.97
  -6  -7  -9   10.47    0.79
   6   7   9   10.92    0.89
  -7  -7  -9   62.68    2.08
  -8  -7  -9    2.41    0.52
   8   7   9    1.55    0.52
  -9  -7  -9   23.15    1.32
 -10  -7  -9   20.38    1.38
   5  -8  -9    0.99    0.58
   4  -8  -9   33.07    1.49
  -4   8   9   32.83    1.38
   3  -8  -9   10.97    0.92
  -3   8   9   10.82    0.81
   2  -8  -9   19.20    1.05
  -2   8   9   18.17    0.97
   1  -8  -9   53.55    1.81
  -1   8   9   53.70    1.80
   0  -8  -9    0.96    0.37
   0   8   9    0.66    0.32
  -1  -8  -9   24.87    1.11
   1   8   9   26.39    1.09
  -2  -8  -9   27.42    1.12
   2   8   9   27.16    1.12
  -4  -8  -9   31.06    1.19
   4   8   9   28.04    1.09
  -5  -8  -9    7.68    0.73
  -5  -8  -9    7.22    0.65
   5   8   9    6.99    0.65
  -6  -8  -9    0.81    0.38
  -6  -8  -9    0.58    0.46
   6   8   9    0.37    0.41
  -7  -8  -9   13.07    0.95
  -8  -8  -9   14.52    1.07
  -8  -8  -9   18.10    0.90
  -9  -8  -9    1.56    0.41
   3  -9  -9   26.81    1.33
  -3   9   9   27.99    1.25
   2  -9  -9    1.36    0.52
  -2   9   9    0.06    0.37
   1  -9  -9   24.19    1.18
  -1   9   9   25.76    1.16
   0  -9  -9   13.51    0.92
   0   9   9   14.03    0.87
  -1  -9  -9    9.14    0.81
   1   9   9   10.69    0.79
  -2  -9  -9   24.09    1.13
  -3  -9  -9   14.85    0.89
  -4  -9  -9    3.25    0.50
  -5  -9  -9   22.91    1.05
  -6  -9  -9    2.47    0.49
  -6  -9  -9    2.15    0.59
  -7  -9  -9    0.88    0.45
  -7  -9  -9    1.19    0.36
  -8  -9  -9   15.76    0.89
  -9  -9  -9    2.22    0.69
  -2  10   9   12.65    0.97
   1 -10  -9    0.98    0.49
  -1  10   9    1.54    0.47
   0 -10  -9   28.01    1.34
   0  10   9   31.19    1.34
  -1 -10  -9    6.31    0.84
   1  10   9    6.38    0.74
  -2 -10  -9   13.75    0.93
  -3 -10  -9   24.53    1.18
  -4 -10  -9    5.85    0.77
  -5 -10  -9   25.50    1.17
   0  11   9    1.48    0.55
  -2 -11  -9    4.94    0.67
  -3 -11  -9   10.77    0.94
  -4 -11  -9   25.05    1.26
   4  11   9   28.12    1.44
  -5 -11  -9    1.38    0.54
  -2  -9  10   39.48    1.62
  -1  -9  10   20.15    1.08
   4   8 -10   37.96    1.93
  -4  -8  10   36.72    1.42
   3   8 -10   16.64    1.32
  -3  -8  10   19.51    0.97
   2   8 -10    8.36    1.07
  -2  -8  10    7.03    0.74
   1   8 -10   30.22    1.58
  -1  -8  10   28.29    1.20
   0   8 -10    8.86    1.15
   0  -8  10   10.25    0.81
  -1   8 -10    6.17    0.88
   1  -8  10    4.99    0.74
  -2   8 -10   18.83    1.29
   6   7 -10   56.91    2.40
   5   7 -10    9.16    1.08
  -5  -7  10   10.09    0.77
   4   7 -10    5.70    0.99
  -4  -7  10    7.34    0.72
   3   7 -10   41.28    1.83
  -3  -7  10   39.86    1.43
   2   7 -10    2.80    0.68
  -2  -7  10    2.96    0.44
   1   7 -10   21.94    1.35
  -1  -7  10   21.46    0.99
   0   7 -10   40.79    1.78
   0  -7  10   42.38    1.48
  -1   7 -10    0.97    0.58
   1  -7  10    1.25    0.43
  -2   7 -10   16.84    1.22
   2  -7  10   17.09    0.97
  -3   7 -10   28.78    1.44
   3  -7  10   27.22    1.27
   7   6 -10    4.97    0.77
   6   6 -10   19.77    1.39
  -6  -6  10   19.60    1.01
   5   6 -10   36.21    1.75
  -5  -6  10   35.20    1.34
   4   6 -10    4.01    0.77
  -4  -6  10    4.08    0.59
   3   6 -10   22.35    1.33
  -3  -6  10   22.15    0.99
   2   6 -10   53.98    2.05
  -2  -6  10   51.50    1.67
   1   6 -10    3.74    0.69
  -1  -6  10    3.77    0.51
   0   6 -10   89.33    2.85
   0  -6  10   89.42    2.50
  -1   6 -10   32.35    1.51
   1  -6  10   32.48    1.22
  -2   6 -10   40.13    1.68
   2  -6  10   39.89    1.45
  -3   6 -10   77.61    2.50
   3  -6  10   73.37    2.28
  -4   6 -10   15.75    1.26
   4  -6  10   15.45    0.99
   5  -6  10   21.98    1.17
   8   5 -10   20.01    1.42
   7   5 -10   20.95    1.39
  -7  -5  10   19.84    1.02
   6   5 -10    1.68    0.58
  -6  -5  10    1.68    0.38
   5   5 -10   55.09    2.15
  -5  -5  10   53.03    1.74
   4   5 -10   27.61    1.45
  -4  -5  10   27.01    1.11
   3   5 -10    2.52    0.59
  -3  -5  10    1.82    0.34
   2   5 -10   57.29    2.14
  -2  -5  10   60.59    1.79
   1   5 -10   25.93    1.31
  -1  -5  10   25.55    1.00
   0   5 -10   14.89    1.21
   0  -5  10   14.81    0.75
  -1   5 -10   72.01    2.61
  -1   5 -10   66.74    2.94
   1  -5  10   77.54    2.14
  -2   5 -10    3.79    0.57
  -2   5 -10    3.07    0.59
   2  -5  10    3.10    0.56
  -3   5 -10   41.33    1.70
  -3   5 -10   43.69    1.66
   3  -5  10   44.06    1.53
  -4   5 -10   54.07    2.09
   4  -5  10   54.57    1.84
   5  -5  10    6.51    0.81
   6  -5  10   49.75    1.81
  -7   5 -10   34.75    2.04
  -8  -4  10   14.12    0.89
   7   4 -10   67.56    2.50
  -7  -4  10   67.21    2.10
   6   4 -10   38.62    1.77
  -6  -4  10   39.21    1.42
   5   4 -10   27.12    1.44
  -5  -4  10   25.76    1.09
   4   4 -10  121.49    3.63
  -4  -4  10  120.84    3.24
   3   4 -10    5.86    0.77
  -3  -4  10    7.23    0.55
   1   4 -10   40.23    1.63
  -1  -4  10   40.75    1.34
   0   4 -10    5.56    0.74
   0  -4  10    5.05    0.47
  -1   4 -10    9.15    0.80
  -1   4 -10    6.72    0.63
   1  -4  10    9.76    0.61
  -2   4 -10   45.34    1.68
  -2   4 -10   45.20    1.59
   2  -4  10   42.33    1.57
  -3   4 -10    3.33    0.54
  -3   4 -10    4.16    0.69
   3  -4  10    3.23    0.48
  -4   4 -10   10.27    0.82
   4  -4  10    9.73    0.78
   5  -4  10   43.46    1.62
  -6   4 -10    4.97    0.84
   6  -4  10    4.34    0.78
  -7   4 -10   28.65    1.75
   7  -4  10   33.09    1.47
   8  -4  10   18.74    1.29
  -8  -3  10   24.06    1.09
   7   3 -10   19.11    1.34
  -7  -3  10   19.23    0.95
   6   3 -10   43.83    1.92
  -6  -3  10   44.68    1.52
   5   3 -10   16.25    1.16
  -5  -3  10   16.67    0.83
   4   3 -10   55.71    2.09
  -4  -3  10   57.72    1.75
   3   3 -10  102.83    3.11
  -3  -3  10   98.79    2.73
   2   3 -10    5.16    0.74
   2   3 -10    4.35    0.42
  -2  -3  10    4.77    0.45
   1   3 -10   39.99    1.29
   1   3 -10   43.16    1.65
  -1  -3  10   43.10    1.35
   0   3 -10   56.92    1.98
   0  -3  10   58.52    1.70
  -1   3 -10    1.36    0.41
  -1   3 -10    0.86    0.33
   1  -3  10    1.32    0.27
  -2   3 -10   43.96    1.63
  -2   3 -10   42.79    1.50
   2  -3  10   48.15    1.49
  -3   3 -10   30.51    1.26
  -3   3 -10   31.08    1.26
   3  -3  10   29.34    1.15
  -4   3 -10    7.65    0.68
   4  -3  10    6.13    0.88
   5  -3  10   29.37    1.26
  -6   3 -10   25.59    1.43
   6  -3  10   24.52    1.20
  -7   3 -10    2.26    0.68
   7  -3  10    2.28    0.56
  -8   3 -10   24.33    1.61
   8  -3  10   24.99    1.31
  -8  -2  10   51.53    1.74
   7   2 -10    6.60    0.99
  -7  -2  10    4.85    0.62
   6   2 -10    8.22    0.95
  -6  -2  10    9.01    0.64
   5   2 -10   38.10    1.64
  -5  -2  10   39.09    1.32
   4   2 -10   13.15    1.10
  -4  -2  10   14.81    0.72
   3   2 -10   58.15    2.08
  -3  -2  10   61.37    1.68
  -3  -2  10   59.52    1.75
   2   2 -10   87.38    2.67
   2   2 -10   83.77    2.27
  -2  -2  10   86.68    2.33
   1   2 -10    0.59    0.37
   1   2 -10    0.29    0.21
   0   2 -10  107.95    3.14
   0   2 -10  111.18    2.89
   0  -2  10  110.43    2.88
  -1   2 -10   55.98    1.89
  -1   2 -10   55.80    1.70
   1  -2  10   56.45    1.67
  -2   2 -10   10.43    0.73
  -2   2 -10    9.95    0.67
   2  -2  10   10.99    0.61
  -3   2 -10   92.87    2.67
  -3   2 -10   90.65    2.63
   3  -2  10   92.13    2.58
  -4   2 -10    3.42    0.53
   4  -2  10    4.36    0.56
  -5   2 -10   36.30    2.13
   5  -2  10   35.64    1.37
  -6   2 -10   43.39    1.78
   6  -2  10   43.92    1.58
  -7   2 -10    2.19    0.64
   7  -2  10    1.05    0.48
  -8   2 -10   25.98    1.62
   8  -2  10   28.40    1.38
   9  -2  10   31.10    1.57
   6   1 -10    6.12    0.89
   5   1 -10   52.99    2.01
  -5  -1  10   54.40    1.59
   4   1 -10   52.87    1.96
  -4  -1  10   53.47    1.56
   3   1 -10    9.96    0.81
  -3  -1  10   10.44    0.57
  -3  -1  10   10.64    0.56
   2   1 -10  143.00    3.99
  -2  -1  10  145.31    3.66
  -2  -1  10  146.35    3.65
   1   1 -10   30.90    1.31
  -1  -1  10   31.22    1.05
   0   1 -10   47.63    1.46
   0   1 -10   48.69    1.69
   0  -1  10   48.15    1.45
  -1   1 -10  101.41    2.73
  -1   1 -10  102.14    2.92
   1  -1  10  102.06    2.71
  -2   1 -10    9.99    0.70
  -2   1 -10    9.93    0.61
   2  -1  10    9.61    0.58
  -3   1 -10   37.68    1.38
   3  -1  10   39.54    1.33
  -4   1 -10   64.37    2.05
  -4   1 -10   65.89    2.00
   4  -1  10   66.77    2.01
  -5   1 -10   -0.11    0.35
   5  -1  10    0.30    0.39
  -6   1 -10   31.40    1.45
   6  -1  10   31.18    1.30
  -7   1 -10   32.28    1.57
   7  -1  10   33.08    1.40
  -8   1 -10    1.45    0.62
   8  -1  10    1.42    0.54
  -9   1 -10   28.15    1.70
   9  -1  10   31.99    1.50
  -8   0  10    0.32    0.35
  -7   0  10   52.19    1.64
   6   0 -10   12.19    1.06
  -6   0  10   13.00    0.72
  -6   0  10   14.34    0.99
   5   0 -10   33.46    1.63
  -5   0  10   34.49    1.19
  -5   0  10   35.26    1.21
   4   0 -10   48.88    1.83
  -4   0  10   49.07    1.51
  -4   0  10   50.10    1.53
   3   0 -10    1.09    0.43
  -3   0  10    0.96    0.25
   2   0 -10   78.41    2.47
  -2   0  10   82.23    2.21
   1   0 -10  111.05    3.14
  -1   0  10  109.09    2.87
   0   0 -10    0.27    0.30
   0   0  10    0.09    0.16
  -1   0 -10   85.53    2.35
  -1   0 -10   83.79    2.51
   1   0  10   88.24    2.34
  -2   0 -10   72.26    2.20
   2   0  10   74.83    2.10
  -3   0 -10    0.39    0.27
  -3   0 -10   -0.17    0.29
   3   0  10    0.22    0.24
  -4   0 -10   66.91    2.07
  -4   0 -10   65.33    1.99
   4   0  10   67.72    2.01
  -5   0 -10   28.09    1.22
   5   0  10   27.66    1.15
  -6   0 -10    3.20    0.53
   6   0  10    4.27    0.55
  -7   0 -10   40.91    1.74
   7   0  10   42.43    1.61
  -8   0 -10    9.09    1.02
   8   0  10    7.07    0.85
  -9   0 -10    6.52    1.12
   9   0  10   10.54    0.99
  -7   1  10   17.13    0.93
  -7   1  10   19.45    0.81
   6  -1 -10   66.86    2.34
  -6   1  10   65.90    1.99
  -6   1  10   63.95    1.89
   5  -1 -10    1.75    0.54
  -5   1  10    1.24    0.33
  -5   1  10    1.92    0.31
   4  -1 -10   19.14    1.12
  -4   1  10   20.66    0.79
  -4   1  10   20.82    0.88
   3  -1 -10   20.52    1.07
  -3   1  10   19.85    0.82
  -3   1  10   19.17    0.75
   2  -1 -10    0.27    0.36
  -2   1  10    0.52    0.19
  -2   1  10    0.15    0.20
   1  -1 -10   36.78    1.40
  -1   1  10   35.97    1.18
  -1   1  10   35.24    1.12
   0  -1 -10   42.09    1.50
   0   1  10   40.85    1.31
  -1  -1 -10    5.29    0.57
   1   1  10    7.39    0.45
  -2  -1 -10   95.06    2.56
  -2  -1 -10   91.82    2.64
   2   1  10   92.87    2.53
  -3  -1 -10   50.34    1.65
  -3  -1 -10   52.45    1.65
   3   1  10   52.37    1.62
  -4  -1 -10   13.88    0.75
  -4  -1 -10   14.34    0.80
   4   1  10   14.51    0.75
  -5  -1 -10   71.01    2.23
  -5  -1 -10   72.82    2.29
   5   1  10   71.43    2.18
  -6  -1 -10    5.64    0.71
   6   1  10    5.23    0.60
  -7  -1 -10   19.04    1.17
   7   1  10   22.01    1.06
  -8  -1 -10   43.34    1.83
   8   1  10   42.94    1.67
  -9  -1 -10    0.25    0.57
   9   1  10    0.97    0.54
  -8   2  10   28.06    1.24
  -7   2  10    1.99    0.43
   6  -2 -10   33.34    1.61
  -6   2  10   35.03    1.30
   5  -2 -10   61.19    2.15
  -5   2  10   61.72    1.89
  -5   2  10   59.36    1.71
   4  -2 -10    0.52    0.45
  -4   2  10    0.03    0.25
  -4   2  10    0.87    0.23
   3  -2 -10   64.69    2.13
  -3   2  10   64.67    1.92
  -3   2  10   64.55    1.78
   2  -2 -10   57.79    1.93
  -2   2  10   57.68    1.74
  -2   2  10   59.16    1.63
   1  -2 -10    1.04    0.39
  -1   2  10    1.40    0.24
  -1   2  10    1.49    0.28
   0  -2 -10   81.97    2.40
   0   2  10   78.82    2.24
   0   2  10   81.67    2.19
  -1  -2 -10   29.38    1.15
   1   2  10   30.02    1.02
   1   2  10   28.66    1.04
  -2  -2 -10   21.03    0.94
  -3  -2 -10   86.16    2.48
  -3  -2 -10   88.64    2.47
   3   2  10   88.05    2.44
  -4  -2 -10   20.55    0.91
  -4  -2 -10   20.65    0.95
   4   2  10   21.71    0.92
  -5  -2 -10   39.75    1.47
  -5  -2 -10   38.23    1.32
   5   2  10   42.57    1.45
  -6  -2 -10   55.21    2.47
   6   2  10   50.79    2.10
  -7  -2 -10    7.85    0.81
   7   2  10    8.06    0.72
  -8  -2 -10   28.00    1.44
   8   2  10   28.28    1.32
  -9  -2 -10   36.17    1.74
   9   2  10   35.91    1.57
 -10  -2 -10    2.52    0.79
  10   2  10    4.00    0.95
  -8   3  10   28.63    1.32
  -7   3  10   24.45    1.16
   6  -3 -10    0.89    0.61
  -6   3  10    1.01    0.37
   5  -3 -10   65.72    2.29
  -5   3  10   69.77    2.08
   4  -3 -10   51.32    1.87
  -4   3  10   50.68    1.45
  -4   3  10   51.23    1.66
   3  -3 -10   14.71    0.93
  -3   3  10   14.83    0.75
   2  -3 -10  119.30    3.33
  -2   3  10  119.18    3.19
  -2   3  10  120.46    3.03
   1  -3 -10   20.54    0.99
  -1   3  10   19.70    0.75
  -1   3  10   18.87    0.83
   0  -3 -10   60.46    1.92
   0   3  10   62.20    1.74
   0   3  10   61.43    1.82
  -1  -3 -10  138.57    3.65
   1   3  10  136.12    3.57
   1   3  10  137.75    3.51
  -2  -3 -10    4.80    0.52
   2   3  10    3.50    0.41
   2   3  10    3.73    0.40
  -3  -3 -10   52.57    1.67
  -3  -3 -10   54.47    1.69
  -4  -3 -10  106.14    2.91
  -4  -3 -10  102.11    2.84
   4   3  10  107.81    2.91
  -5  -3 -10    1.97    0.37
  -5  -3 -10    2.21    0.42
   5   3  10    2.45    0.42
  -6  -3 -10   59.13    2.33
   6   3  10   56.76    2.26
  -7  -3 -10   42.01    1.63
   7   3  10   41.61    1.56
  -8  -3 -10    2.75    0.63
   8   3  10    2.84    0.52
  -9  -3 -10   38.45    1.78
   9   3  10   39.99    1.67
 -10  -3 -10   17.62    1.39
  10   3  10   19.51    1.42
  -7   4  10   39.49    1.54
   6  -4 -10    6.36    1.00
  -6   4  10    7.95    0.75
   5  -4 -10   27.81    1.42
  -5   4  10   29.31    1.20
   4  -4 -10   72.67    2.38
  -4   4  10   73.98    2.21
   3  -4 -10   10.70    1.16
  -3   4  10    9.98    0.75
   2  -4 -10   32.54    1.32
  -2   4  10   34.10    1.22
  -2   4  10   31.32    1.02
   1  -4 -10   54.98    1.80
  -1   4  10   56.20    1.73
   0  -4 -10    0.52    0.32
   0   4  10    0.61    0.22
   0   4  10    0.37    0.22
  -1  -4 -10   54.95    1.74
   1   4  10   55.15    1.70
   1   4  10   55.02    1.61
  -2  -4 -10   35.84    1.25
   2   4  10   34.39    1.17
   2   4  10   34.30    1.21
  -3  -4 -10    8.27    0.60
   3   4  10    8.11    0.58
   3   4  10    8.95    0.58
  -4  -4 -10   60.93    1.86
  -4  -4 -10   63.95    1.94
  -5  -4 -10   48.12    1.55
  -5  -4 -10   50.21    1.69
   5   4  10   50.46    1.66
  -6  -4 -10   14.80    0.89
   6   4  10   14.16    0.95
  -7  -4 -10   43.06    1.66
   7   4  10   43.18    1.59
  -8  -4 -10   12.75    0.97
   8   4  10   12.37    0.94
  -9  -4 -10    2.78    0.65
   9   4  10    2.14    0.58
 -10  -4 -10   30.40    1.65
  10   4  10   31.44    2.06
  -7   5  10   19.77    1.52
   6  -5 -10   27.63    1.50
  -6   5  10   28.97    1.28
   5  -5 -10   -0.41    0.52
  -5   5  10   -0.02    0.33
   4  -5 -10   42.98    1.69
  -4   5  10   39.82    1.49
   3  -5 -10   32.97    1.40
  -3   5  10   33.29    1.28
   2  -5 -10    0.45    0.43
  -2   5  10    0.65    0.44
   1  -5 -10   54.75    1.79
  -1   5  10   53.64    1.73
  -1   5  10   52.43    1.52
   0  -5 -10   34.99    1.32
   0   5  10   36.95    1.29
   0   5  10   34.11    1.13
  -1  -5 -10    1.01    0.35
   1   5  10    1.45    0.28
   1   5  10    1.17    0.26
  -2  -5 -10   43.15    1.47
   2   5  10   44.50    1.40
   2   5  10   44.67    1.47
  -3  -5 -10    0.97    0.34
   3   5  10    1.45    0.31
   3   5  10    0.46    0.26
  -4  -5 -10   15.87    0.79
  -4  -5 -10   16.55    0.87
   4   5  10   17.13    0.83
  -5  -5 -10   32.41    1.68
  -5  -5 -10   31.95    1.15
  -6  -5 -10    1.80    0.38
   6   5  10    1.09    0.38
  -7  -5 -10   40.87    1.63
   7   5  10   45.35    1.64
  -8  -5 -10   14.95    1.06
   8   5  10   15.32    1.03
  -9  -5 -10   -0.03    0.52
   9   5  10    0.18    0.47
 -10  -5 -10   11.41    1.22
   6  -6 -10    8.64    1.07
  -6   6  10   11.67    0.96
   5  -6 -10   12.51    1.07
  -5   6  10   11.64    0.87
   4  -6 -10    4.26    0.68
  -4   6  10    3.83    0.60
   3  -6 -10   32.12    1.42
  -3   6  10   32.02    1.30
   2  -6 -10   18.72    1.02
  -2   6  10   19.50    0.94
   1  -6 -10    8.82    0.71
  -1   6  10    9.14    0.66
   0  -6 -10   52.98    2.30
  -1  -6 -10   20.71    0.95
   1   6  10   18.35    0.77
   1   6  10   18.87    0.92
  -2  -6 -10   36.64    1.31
   2   6  10   36.52    1.32
  -3  -6 -10   85.36    2.42
   3   6  10   85.91    2.40
   3   6  10   84.41    2.46
  -4  -6 -10    0.08    0.31
   4   6  10   -0.39    0.27
  -5  -6 -10   30.90    1.16
  -5  -6 -10   29.24    1.23
   5   6  10   32.57    1.25
  -6  -6 -10   49.43    1.76
  -7  -6 -10    3.89    0.59
   7   6  10    4.36    0.61
  -8  -6 -10   51.10    1.94
   8   6  10   52.70    1.90
  -9  -6 -10    8.36    1.04
   9   6  10    8.24    0.91
 -10  -6 -10    0.74    0.74
   5  -7 -10   14.01    1.18
  -5   7  10   12.71    0.93
   4  -7 -10    3.39    0.67
  -4   7  10    3.03    0.49
   3  -7 -10   20.21    1.16
  -3   7  10   18.80    1.00
   2  -7 -10   35.94    1.47
  -2   7  10   36.16    1.40
   1  -7 -10    6.43    0.74
  -1   7  10    5.09    0.65
   0  -7 -10   20.48    1.02
   0   7  10   20.83    0.99
  -1  -7 -10   49.72    1.65
   1   7  10   48.06    1.65
  -2  -7 -10    5.08    0.79
   2   7  10    6.63    0.58
  -3  -7 -10   54.61    1.80
   3   7  10   56.99    1.80
  -4  -7 -10   48.20    1.59
   4   7  10   48.15    1.60
   4   7  10   48.42    1.63
  -5  -7 -10    2.53    0.45
  -5  -7 -10    1.70    0.42
   5   7  10    1.02    0.42
  -6  -7 -10   54.01    1.87
  -7  -7 -10   47.53    1.80
  -8  -7 -10   12.85    1.04
   8   7  10   12.33    0.99
  -9  -7 -10   39.50    1.76
   9   7  10   41.71    1.69
   4  -8 -10   37.80    1.69
  -4   8  10   38.42    2.20
   3  -8 -10   -0.42    0.51
  -3   8  10   -0.15    0.36
   2  -8 -10   40.27    1.60
  -2   8  10   40.21    1.55
   1  -8 -10   24.71    1.21
  -1   8  10   26.69    1.18
   0  -8 -10    1.90    0.50
   0   8  10    2.24    0.46
  -1  -8 -10   35.94    1.41
   1   8  10   36.29    1.39
  -2  -8 -10   30.81    1.27
   2   8  10   32.39    1.29
  -3  -8 -10    0.57    0.40
   3   8  10    0.46    0.33
  -4  -8 -10   31.69    1.25
   4   8  10   31.15    1.28
  -5  -8 -10    8.97    0.74
  -5  -8 -10    8.31    0.80
  -6  -8 -10    0.35    0.41
   6   8  10    0.42    0.42
  -7  -8 -10   22.41    1.21
  -8  -8 -10    8.19    0.98
  -9  -8 -10    8.41    1.13
   2  -9 -10    2.74    0.60
  -2   9  10    4.03    0.70
   1  -9 -10   37.46    1.55
  -1   9  10   37.08    1.51
   0  -9 -10   10.69    0.91
   0   9  10   12.27    0.86
  -1  -9 -10   14.15    0.97
   1   9  10   15.42    0.92
  -2  -9 -10   32.83    1.37
   2   9  10   34.38    1.36
  -3  -9 -10   10.39    0.85
   3   9  10   10.39    0.80
  -4  -9 -10   10.51    0.87
  -5  -9 -10   28.29    1.30
  -5  -9 -10   30.43    1.27
  -6  -9 -10    1.67    0.51
  -7  -9 -10    2.99    0.59
  -8  -9 -10   15.99    0.94
   0 -10 -10   22.58    1.27
   0  10  10   22.54    1.15
  -1 -10 -10    0.55    0.54
   1  10  10    1.08    0.45
  -2 -10 -10   19.43    1.09
   2  10  10   20.11    1.08
  -3 -10 -10   19.14    1.12
  -4 -10 -10   -0.29    0.49
  -5 -10 -10   31.28    1.43
  -5 -10 -10   35.00    1.42
  -6 -10 -10   16.49    1.08
  -1  -8  11   23.44    1.19
   0  -8  11    0.34    0.49
   1  -8  11    8.44    0.98
   4   7 -11   15.25    1.56
  -4  -7  11   15.21    1.01
   3   7 -11   39.73    1.82
  -3  -7  11   37.68    1.43
   2   7 -11    0.83    0.64
  -2  -7  11    0.40    0.38
   1   7 -11   49.89    2.08
  -1  -7  11   49.22    1.67
   0   7 -11   22.57    1.44
   0  -7  11   26.10    1.17
  -1   7 -11    2.06    0.70
   1  -7  11    1.02    0.47
  -2   7 -11   25.28    1.55
   2  -7  11   26.70    1.25
   3  -7  11   18.93    1.18
   5   6 -11   17.81    1.37
  -5  -6  11   18.79    0.97
   4   6 -11    2.42    0.68
  -4  -6  11    1.78    0.42
   3   6 -11   15.31    1.24
  -3  -6  11   17.12    0.90
   2   6 -11   21.33    1.38
  -2  -6  11   22.50    1.03
   1   6 -11    6.08    0.96
  -1  -6  11    5.43    0.63
   0   6 -11   44.71    1.89
   0  -6  11   44.84    1.54
  -1   6 -11    9.92    1.09
   1  -6  11    9.20    0.75
  -2   6 -11   15.47    1.18
   2  -6  11   14.05    0.91
  -3   6 -11   41.76    2.14
   3  -6  11   43.48    1.64
   4  -6  11    7.47    0.91
   5  -6  11   20.16    1.26
   6   5 -11    1.31    0.65
  -6  -5  11    1.29    0.39
   5   5 -11   45.91    2.02
  -5  -5  11   45.66    1.61
   4   5 -11    5.27    0.84
  -4  -5  11    6.72    0.65
   3   5 -11    8.06    0.97
  -3  -5  11    8.08    0.64
   2   5 -11   33.26    1.61
  -2  -5  11   33.33    1.23
   1   5 -11    4.92    0.74
  -1  -5  11    5.29    0.57
   0   5 -11   38.99    1.75
   0  -5  11   39.10    1.37
  -1   5 -11   52.35    2.01
   1  -5  11   54.09    1.74
  -2   5 -11    1.74    0.58
  -3   5 -11   37.85    1.62
  -3   5 -11   38.92    1.63
   3  -5  11   39.22    1.49
  -4   5 -11   24.85    1.49
   4  -5  11   26.39    1.26
   5  -5  11    2.09    0.58
   6  -5  11   27.22    1.42
   7   4 -11   18.44    1.39
  -7  -4  11   19.32    1.02
   6   4 -11    0.29    0.60
  -6  -4  11    0.57    0.36
   5   4 -11   36.12    1.75
  -5  -4  11   37.03    1.38
   4   4 -11   52.62    2.11
  -4  -4  11   53.26    1.72
   3   4 -11    0.34    0.47
  -3  -4  11    0.51    0.31
   2   4 -11   27.42    1.42
  -2  -4  11   30.13    1.11
   1   4 -11   26.82    1.40
  -1  -4  11   27.45    1.05
   0   4 -11    2.25    0.54
   0  -4  11    2.47    0.44
  -1   4 -11   61.23    2.20
   1  -4  11   63.31    1.92
  -2   4 -11   23.80    1.17
   2  -4  11   25.05    1.06
  -3   4 -11    6.76    0.96
  -3   4 -11    6.27    1.00
   4  -4  11   45.48    1.66
   5  -4  11   19.90    1.13
  -6   4 -11    6.93    1.22
   6  -4  11    5.40    0.74
   7  -4  11   22.96    1.32
   8   3 -11    0.02    1.34
   7   3 -11   45.80    2.03
  -7  -3  11   44.55    1.58
   6   3 -11   15.33    1.28
  -6  -3  11   16.89    0.90
   5   3 -11    2.59    0.66
  -5  -3  11    3.07    0.47
   4   3 -11   63.52    2.36
  -4  -3  11   62.88    1.93
   3   3 -11   12.73    1.04
  -3  -3  11   12.63    0.71
   2   3 -11   14.80    1.08
  -2  -3  11   16.58    0.79
   1   3 -11   24.02    0.95
   1   3 -11   22.98    1.53
  -1  -3  11   25.31    0.97
   0   3 -11    5.34    0.77
   0   3 -11    3.25    0.45
   0  -3  11    4.39    0.47
  -1   3 -11    4.21    0.75
  -1   3 -11    3.79    0.61
   1  -3  11    5.26    0.50
  -2   3 -11   30.59    1.40
  -2   3 -11   31.27    1.27
   2  -3  11   31.74    1.19
  -3   3 -11    4.90    0.73
  -3   3 -11    5.74    0.72
   3  -3  11    4.77    0.61
   4  -3  11   15.45    0.96
   5  -3  11   55.03    1.89
  -6   3 -11    6.85    1.08
   6  -3  11    6.65    0.84
  -7   3 -11   22.32    1.54
   7  -3  11   24.53    1.30
   8   2 -11   34.70    1.82
  -8  -2  11   34.10    1.35
   7   2 -11    4.89    0.84
  -7  -2  11    4.83    0.66
   6   2 -11   54.15    2.17
  -6  -2  11   53.17    1.73
   5   2 -11   29.16    1.53
  -5  -2  11   31.00    1.19
   4   2 -11    2.93    0.60
  -4  -2  11    3.27    0.47
   3   2 -11   62.43    2.25
  -3  -2  11   64.14    1.87
   2   2 -11   15.42    0.72
   1   2 -11   13.95    0.71
   1   2 -11   15.03    0.99
  -1  -2  11   14.91    0.74
   0   2 -11   38.44    1.30
   0   2 -11   37.86    1.56
   0  -2  11   36.46    1.25
  -1   2 -11    6.04    0.73
  -1   2 -11    5.63    0.61
   1  -2  11    4.41    0.49
  -2   2 -11   23.43    1.05
  -2   2 -11   22.27    1.16
  -3   2 -11   40.11    1.54
   3  -2  11   39.96    1.42
  -4   2 -11    0.22    0.39
   4  -2  11    0.42    0.33
  -5   2 -11   30.48    1.43
   5  -2  11   30.85    1.33
  -6   2 -11   35.50    1.66
   6  -2  11   34.51    1.46
   7  -2  11    3.55    0.61
  -8   2 -11   26.35    1.92
   8  -2  11   24.78    1.36
   7   1 -11    8.36    1.11
   6   1 -11   22.17    1.41
   5   1 -11   54.23    2.13
   4   1 -11    9.31    0.94
  -4  -1  11    7.41    0.56
  -4  -1  11    8.53    0.58
   3   1 -11   37.87    1.65
  -3  -1  11   39.12    1.37
  -3  -1  11   40.51    1.29
   2   1 -11  120.67    3.52
  -2  -1  11  118.07    3.12
  -2  -1  11  120.87    3.15
   1   1 -11   14.29    0.97
   1   1 -11   13.90    0.71
  -1  -1  11   13.40    0.68
   0   1 -11   56.14    1.97
   0   1 -11   56.50    1.71
   0  -1  11   56.25    1.69
  -1   1 -11   67.71    2.22
  -1   1 -11   67.61    2.03
   1  -1  11   69.61    2.00
  -2   1 -11    0.25    0.31
  -2   1 -11    0.61    0.39
   2  -1  11    0.18    0.25
  -3   1 -11   60.74    2.00
   3  -1  11   61.13    2.52
  -4   1 -11   23.87    1.61
  -4   1 -11   26.72    1.15
   4  -1  11   26.54    1.11
  -5   1 -11    1.62    0.50
   5  -1  11    2.53    0.45
  -6   1 -11   41.41    1.74
   6  -1  11   40.17    1.58
  -7   1 -11   25.79    1.46
   7  -1  11   23.81    1.25
  -8   1 -11    5.15    0.83
   8  -1  11    4.88    0.88
   7   0 -11   43.90    1.99
   6   0 -11   -0.21    0.58
   5   0 -11   46.39    1.93
  -5   0  11   43.90    1.47
   4   0 -11   39.60    1.70
  -4   0  11   37.97    1.30
   3   0 -11    8.71    0.96
  -3   0  11   10.41    0.63
   2   0 -11   84.52    2.69
  -2   0  11   87.43    2.38
   1   0 -11   41.40    1.61
  -1   0  11   41.35    1.35
  -1   0  11   41.87    1.32
   0   0 -11   13.85    0.91
   0   0 -11   14.56    0.77
   0   0  11   14.96    0.70
  -1   0 -11   75.57    2.25
  -1   0 -11   74.94    2.37
   1   0  11   78.91    2.18
  -2   0 -11   22.89    1.11
   2   0  11   21.90    0.93
  -3   0 -11    4.69    0.59
  -3   0 -11    5.00    0.62
   3   0  11    4.86    0.53
  -4   0 -11   38.58    1.42
  -4   0 -11   39.79    1.50
   4   0  11   39.54    1.89
  -5   0 -11    7.96    0.76
   5   0  11    6.59    0.67
  -6   0 -11    3.46    0.65
   6   0  11    3.73    0.67
  -7   0 -11   52.97    2.06
   7   0  11   50.99    1.88
  -8   0 -11    6.30    1.06
   8   0  11    6.27    0.89
   9   0  11   12.10    1.87
   7  -1 -11   30.69    1.67
   6  -1 -11   25.35    1.45
  -6   1  11   25.15    1.11
  -6   1  11   26.66    1.01
   5  -1 -11    4.26    0.76
   4  -1 -11   56.56    2.12
  -4   1  11   59.18    1.80
  -4   1  11   57.23    1.70
   3  -1 -11   17.58    1.15
  -3   1  11   17.63    0.84
  -3   1  11   19.14    0.78
   2  -1 -11   20.68    1.14
  -2   1  11   21.65    0.90
  -2   1  11   21.12    0.83
   1  -1 -11   43.15    1.64
  -1   1  11   42.05    1.38
   0  -1 -11    8.44    0.77
   0   1  11    6.77    0.52
  -1  -1 -11   30.57    1.29
   1   1  11   31.76    1.11
  -2  -1 -11   40.22    1.52
  -2  -1 -11   42.27    1.43
   2   1  11   41.80    1.38
  -3  -1 -11    2.53    0.43
  -3  -1 -11    2.72    0.45
   3   1  11    2.75    0.46
  -4  -1 -11   34.12    1.30
  -4  -1 -11   33.04    1.33
   4   1  11   33.70    1.35
  -5  -1 -11   20.81    1.07
   5   1  11   19.06    0.98
  -6  -1 -11    0.90    0.44
   6   1  11    1.27    0.43
  -7  -1 -11   23.57    1.31
   7   1  11   21.44    1.15
  -8  -1 -11   19.88    1.35
   8   1  11   18.71    1.13
  -9  -1 -11    9.00    1.23
   9   1  11   13.83    1.10
   7  -2 -11    7.93    1.16
  -7   2  11    7.19    0.82
   6  -2 -11   24.01    1.47
  -6   2  11   26.24    1.17
   5  -2 -11    1.01    0.60
  -5   2  11    1.71    0.30
  -5   2  11    1.24    0.39
   4  -2 -11    8.28    0.93
  -4   2  11    8.21    0.54
   3  -2 -11   37.07    1.57
  -3   2  11   36.72    1.19
  -3   2  11   36.85    1.32
   2  -2 -11    1.46    0.51
  -2   2  11    1.21    0.29
  -2   2  11    1.46    0.27
   1  -2 -11   28.97    1.31
  -1   2  11   29.18    1.09
  -1   2  11   28.85    1.03
   0  -2 -11   58.41    1.96
   0   2  11   58.48    1.72
   0   2  11   58.55    1.78
  -1  -2 -11    7.25    0.70
   1   2  11    6.59    0.54
  -2  -2 -11   47.98    1.56
  -2  -2 -11   45.50    1.65
   2   2  11   48.99    1.75
  -3  -2 -11   57.34    1.89
  -3  -2 -11   59.04    1.86
   3   2  11   59.19    1.82
  -4  -2 -11    0.36    0.34
  -4  -2 -11    0.27    0.35
   4   2  11    0.57    0.31
  -5  -2 -11   75.20    2.35
   5   2  11   76.31    2.31
  -6  -2 -11    7.76    0.77
   6   2  11    8.31    0.74
  -7  -2 -11    9.42    0.91
   7   2  11   10.46    0.86
  -8  -2 -11   39.53    1.76
   8   2  11   39.74    1.64
  -9  -2 -11    2.26    0.64
   9   2  11    2.32    0.54
   7  -3 -11    3.31    0.80
  -7   3  11    3.75    0.58
   6  -3 -11   32.04    1.66
  -6   3  11   33.27    1.35
   5  -3 -11   32.34    1.59
  -5   3  11   30.14    1.27
   4  -3 -11   -0.28    0.56
  -4   3  11    0.13    0.32
   3  -3 -11   23.89    1.24
  -3   3  11   22.90    0.87
  -3   3  11   22.44    1.14
   2  -3 -11   31.07    1.60
  -2   3  11   30.28    1.17
  -2   3  11   30.16    1.05
   1  -3 -11   13.43    0.93
  -1   3  11   14.91    0.67
  -1   3  11   14.19    0.75
   0  -3 -11   65.84    2.11
   0   3  11   66.31    1.89
   0   3  11   64.72    1.96
  -1  -3 -11   27.62    1.19
   1   3  11   27.44    1.08
   1   3  11   27.69    1.07
  -2  -3 -11    9.47    0.75
   2   3  11   11.00    0.67
  -3  -3 -11   70.84    2.13
  -3  -3 -11   68.98    2.14
  -4  -3 -11   44.13    1.56
   4   3  11   46.72    1.58
  -5  -3 -11    6.35    0.68
   5   3  11    6.76    0.66
  -6  -3 -11   53.76    1.91
   6   3  11   54.31    1.85
  -7  -3 -11   12.75    0.97
   7   3  11   10.25    0.88
  -8  -3 -11    2.77    0.62
   8   3  11    3.74    0.62
  -9  -3 -11   50.07    2.11
   9   3  11   50.95    1.94
   7  -4 -11   45.61    2.93
   6  -4 -11    2.18    0.68
  -6   4  11    1.61    0.52
   5  -4 -11   81.55    2.75
  -5   4  11   84.07    2.52
   4  -4 -11   42.53    1.77
  -4   4  11   41.37    1.52
   3  -4 -11    3.26    0.59
  -3   4  11    2.65    0.45
   2  -4 -11   84.69    2.64
  -2   4  11   85.85    2.48
  -2   4  11   84.92    2.28
   1  -4 -11   25.83    1.81
  -1   4  11   26.04    0.95
   0  -4 -11   30.47    1.30
   0   4  11   31.20    1.18
   0   4  11   31.22    1.09
  -1  -4 -11   46.30    1.62
   1   4  11   44.51    1.44
   1   4  11   46.10    1.52
  -2  -4 -11    1.57    0.42
   2   4  11    1.45    0.33
   2   4  11    1.41    0.33
  -3  -4 -11   23.27    1.05
  -4  -4 -11   34.95    1.34
  -4  -4 -11   34.55    1.32
  -5  -4 -11   12.99    0.79
  -5  -4 -11   13.60    0.86
   5   4  11   12.84    0.83
  -6  -4 -11   16.51    1.01
   6   4  11   15.79    0.95
  -7  -4 -11   29.50    1.39
   7   4  11   28.99    1.33
  -8  -4 -11    8.94    0.96
   8   4  11    9.40    0.91
  -9  -4 -11    6.35    0.85
   9   4  11    6.00    0.76
   6  -5 -11   38.51    1.80
  -6   5  11   38.92    1.59
   5  -5 -11    6.38    0.88
  -5   5  11    5.86    0.76
   4  -5 -11   78.82    2.63
  -4   5  11   80.46    2.45
   3  -5 -11   13.89    1.04
  -3   5  11   13.62    0.84
   2  -5 -11    9.35    0.88
  -2   5  11    9.36    0.71
   1  -5 -11   78.59    2.44
  -1   5  11   78.50    2.35
   0  -5 -11    9.45    0.80
   0   5  11    7.25    0.52
   0   5  11    6.91    0.59
  -1  -5 -11   30.49    1.28
   1   5  11   30.36    1.20
   1   5  11   29.70    1.09
  -2  -5 -11   50.88    1.73
   2   5  11   52.25    1.63
   2   5  11   50.14    1.69
  -3  -5 -11    1.13    0.38
   3   5  11    0.87    0.33
  -4  -5 -11   21.20    1.04
  -4  -5 -11   21.07    1.02
  -5  -5 -11   30.30    1.21
  -5  -5 -11   33.33    1.32
  -6  -5 -11   -0.18    0.37
   6   5  11   -0.27    0.36
  -7  -5 -11   32.74    1.47
   7   5  11   33.09    1.43
  -8  -5 -11    7.63    0.95
   8   5  11    7.49    0.94
  -9  -5 -11   -0.40    0.56
   9   5  11   -0.16    0.59
   5  -6 -11    6.43    1.01
  -5   6  11    7.87    0.84
   4  -6 -11   24.64    1.41
  -4   6  11   26.45    1.23
   3  -6 -11   32.64    1.51
  -3   6  11   32.50    1.35
   2  -6 -11    2.66    0.59
  -2   6  11    3.21    0.52
   1  -6 -11   13.99    0.95
  -1   6  11   12.91    0.85
   0  -6 -11   38.02    1.49
   0   6  11   38.72    1.42
  -1  -6 -11    0.83    0.41
   1   6  11    1.01    0.34
  -2  -6 -11   52.26    1.82
   2   6  11   54.03    1.76
   2   6  11   52.51    1.65
  -3  -6 -11   24.65    1.22
   3   6  11   25.68    1.11
   3   6  11   26.55    1.07
  -4  -6 -11   12.63    0.84
   4   6  11   14.27    0.83
  -5  -6 -11   48.99    1.64
  -5  -6 -11   49.08    1.75
  -6  -6 -11   18.88    1.11
  -7  -6 -11   13.77    1.02
   7   6  11   13.38    1.01
  -8  -6 -11   30.90    1.51
   8   6  11   29.63    1.44
  -9  -6 -11    0.78    0.65
   4  -7 -11    0.85    0.61
  -4   7  11    0.61    0.45
   3  -7 -11   32.71    1.56
  -3   7  11   34.93    1.42
   2  -7 -11   13.03    1.04
  -2   7  11   14.51    0.91
   1  -7 -11    1.87    0.52
  -1   7  11    1.28    0.40
   0  -7 -11   36.45    1.48
   0   7  11   36.80    1.42
  -1  -7 -11   16.74    1.00
   1   7  11   17.58    0.93
  -2  -7 -11    9.10    0.77
   2   7  11   10.46    0.76
  -3  -7 -11   37.59    1.44
   3   7  11   38.21    1.43
  -4  -7 -11   -0.51    0.40
   4   7  11   -0.27    0.37
  -5  -7 -11   29.75    1.25
  -5  -7 -11   29.92    1.31
   5   7  11   32.68    1.34
  -6  -7 -11   29.01    1.35
  -7  -7 -11    0.44    0.45
  -8  -7 -11   26.53    1.44
   8   7  11   28.51    1.38
   2  -8 -11   43.10    1.74
  -2   8  11   42.91    1.65
   1  -8 -11    3.56    0.67
  -1   8  11    3.12    0.56
   0  -8 -11   10.65    0.92
   0   8  11   11.88    0.86
  -1  -8 -11   34.52    1.44
   1   8  11   35.56    1.39
  -2  -8 -11    4.72    0.74
   2   8  11    3.86    0.65
  -3  -8 -11    9.89    0.86
   3   8  11   11.24    0.83
  -4  -8 -11   23.79    1.15
   4   8  11   25.06    1.15
  -5  -8 -11   -0.01    0.49
  -5  -8 -11    0.36    0.40
  -6  -8 -11    9.73    0.89
   6   8  11    8.97    0.86
  -7  -8 -11   12.13    1.03
  -8  -8 -11    0.99    0.56
   1  -9 -11   32.05    1.91
  -1   9  11   34.34    1.57
   0  -9 -11    0.12    0.51
   0   9  11    0.03    0.39
  -1  -9 -11   18.67    1.12
   1   9  11   19.00    1.06
  -2  -9 -11   18.96    1.12
   2   9  11   18.78    1.06
  -3  -9 -11    0.65    0.49
   3   9  11    0.61    0.42
  -4  -9 -11   18.69    1.09
   4   9  11   17.71    1.05
  -5  -9 -11   17.34    1.05
  -5  -9 -11   16.23    1.05
  -6  -9 -11    0.14    0.47
  -7  -9 -11   15.19    1.18
  -2 -10 -11   34.69    2.18
   2  10  11   33.84    1.49
  -3 -10 -11   10.51    1.04
   3  10  11   13.10    0.97
  -4 -10 -11    4.18    0.65
   4  10  11    3.34    0.56
  -5 -10 -11   22.69    1.28
  -5 -10 -11   24.37    1.41
   3   6 -12   41.88    2.00
  -3  -6  12   40.31    1.51
   2   6 -12    3.81    0.82
  -2  -6  12    4.87    0.70
   1   6 -12   36.30    1.75
  -1  -6  12   36.16    1.38
   0   6 -12   43.18    1.94
   0  -6  12   43.47    1.56
  -1   6 -12    1.21    0.70
   1  -6  12    1.52    0.45
  -2   6 -12   28.51    1.60
   2  -6  12   27.03    1.29
   3  -6  12   10.33    1.01
   5   5 -12   48.77    3.13
   4   5 -12    1.40    0.64
  -4  -5  12    0.79    0.38
   3   5 -12   25.51    1.53
  -3  -5  12   26.73    1.14
   2   5 -12   26.76    1.54
  -2  -5  12   25.94    1.13
   1   5 -12   -0.19    0.55
  -1  -5  12    0.77    0.37
   0   5 -12   42.14    1.89
   0  -5  12   39.94    1.47
  -1   5 -12   38.06    1.74
   1  -5  12   35.74    1.40
  -2   5 -12    4.18    0.74
   2  -5  12    2.14    0.48
   3  -5  12   33.23    1.42
   4  -5  12   18.02    1.15
   5   4 -12   40.78    1.92
  -5  -4  12   42.08    1.50
   4   4 -12   19.90    1.38
  -4  -4  12   19.35    0.99
   3   4 -12    6.95    1.01
  -3  -4  12    7.71    0.67
   2   4 -12   63.17    2.36
  -2  -4  12   61.54    1.93
   1   4 -12   14.23    1.18
  -1  -4  12   14.72    0.81
   0   4 -12   13.84    1.17
   0  -4  12   14.84    0.84
  -1   4 -12   68.46    2.45
   1  -4  12   67.58    2.10
  -2   4 -12   11.80    1.15
  -2   4 -12   10.39    0.88
   2  -4  12   11.26    0.79
  -3   4 -12   24.11    1.38
  -3   4 -12   28.35    1.39
   3  -4  12   27.29    1.21
   4  -4  12   42.07    1.64
   5  -4  12    4.72    0.67
  -6   4 -12    9.07    1.55
   6   3 -12   13.53    1.31
  -6  -3  12   13.16    0.85
   5   3 -12    3.22    0.79
  -5  -3  12    2.52    0.45
   4   3 -12   26.27    1.56
  -4  -3  12   25.97    1.10
   3   3 -12   11.05    1.12
  -3  -3  12   11.20    0.72
   2   3 -12   13.38    1.13
  -2  -3  12   12.44    0.76
   1   3 -12   58.14    2.24
  -1  -3  12   59.84    1.84
   0   3 -12    0.18    0.33
   0   3 -12    0.09    0.49
   0  -3  12    0.61    0.31
  -1   3 -12   42.22    1.78
  -1   3 -12   38.57    1.50
   1  -3  12   44.05    1.49
  -2   3 -12   55.39    2.06
   2  -3  12   55.42    1.80
  -3   3 -12    0.95    0.52
  -3   3 -12    1.76    0.59
   3  -3  12    2.02    0.45
   4  -3  12   51.88    1.83
   5  -3  12   18.74    1.12
  -6   3 -12    3.71    0.77
   6  -3  12    6.08    0.89
  -7  -2  12   16.68    1.07
   6   2 -12   31.45    1.72
  -6  -2  12   32.89    1.28
   5   2 -12    5.79    1.02
  -5  -2  12    4.89    0.60
   4   2 -12   24.32    1.44
  -4  -2  12   23.80    1.02
   3   2 -12   25.79    1.43
  -3  -2  12   25.70    1.06
   2   2 -12    4.97    0.79
  -2  -2  12    3.76    0.56
   1   2 -12   21.05    1.24
   1   2 -12   19.93    0.92
  -1  -2  12   20.15    0.89
   0   2 -12   17.79    1.15
   0   2 -12   16.76    0.89
   0  -2  12   17.64    0.83
  -1   2 -12    3.74    0.53
  -1   2 -12    3.70    0.65
   1  -2  12    3.96    0.53
  -2   2 -12   29.25    1.45
   2  -2  12   30.68    1.20
  -3   2 -12   23.71    1.26
   3  -2  12   23.38    1.07
   4  -2  12    9.91    0.79
  -5   2 -12   48.03    1.93
   5  -2  12   47.69    1.77
  -6   2 -12   11.83    1.17
   6  -2  12   11.51    0.99
  -7   2 -12   21.26    1.52
   7  -2  12   24.15    1.34
   7   1 -12    0.18    0.82
   6   1 -12   28.03    1.65
   5   1 -12   34.67    1.74
  -5  -1  12   36.92    1.32
   4   1 -12    8.18    1.04
  -4  -1  12    9.84    0.69
   3   1 -12   66.92    2.45
  -3  -1  12   68.37    1.99
  -3  -1  12   70.38    2.04
   2   1 -12   15.87    0.84
   2   1 -12   16.08    1.10
  -2  -1  12   14.18    0.77
   1   1 -12    3.98    0.66
   1   1 -12    3.95    0.56
  -1  -1  12    4.25    0.51
   0   1 -12   61.98    1.90
   0   1 -12   60.59    2.32
   0  -1  12   63.87    1.89
  -1   1 -12    6.09    0.68
  -1   1 -12    6.41    0.83
   1  -1  12    5.90    0.56
  -2   1 -12   14.30    1.03
   2  -1  12   14.11    0.81
  -3   1 -12   38.15    1.58
   3  -1  12   40.54    1.45
  -4   1 -12    6.83    0.79
   4  -1  12    5.74    0.68
  -5   1 -12   18.95    1.21
   5  -1  12   19.94    1.07
  -6   1 -12   51.14    2.00
   6  -1  12   48.38    1.83
  -7   1 -12    3.45    0.77
   7  -1  12    2.62    0.61
   7   0 -12   12.83    1.50
   6   0 -12    6.65    0.94
   5   0 -12   42.42    1.92
   4   0 -12   36.22    1.72
  -4   0  12   34.37    1.33
   3   0 -12   24.83    1.41
  -3   0  12   25.27    1.04
   2   0 -12   53.19    2.03
  -2   0  12   53.27    1.68
  -2   0  12   55.36    1.67
   1   0 -12   13.90    1.01
  -1   0  12   13.39    0.80
   0   0 -12   23.53    1.03
   0   0  12   24.30    1.22
  -1   0 -12   92.16    2.86
   1   0  12   94.06    2.63
  -2   0 -12    0.74    0.47
   2   0  12    0.41    0.29
  -3   0 -12   39.72    1.57
  -3   0 -12   40.70    1.51
   3   0  12   41.00    1.47
  -4   0 -12   41.11    1.57
  -4   0 -12   41.98    1.60
   4   0  12   41.23    1.54
  -5   0 -12    0.38    0.46
   5   0  12    0.23    0.39
  -6   0 -12   27.53    1.44
   6   0  12   25.72    1.23
  -7   0 -12   38.90    1.78
   7   0  12   33.71    1.52
   8   0  12    0.79    1.16
   7  -1 -12   38.99    2.56
   6  -1 -12    2.87    0.76
  -6   1  12    4.20    0.73
   5  -1 -12   11.49    1.14
  -5   1  12   10.22    0.79
  -5   1  12   10.83    0.74
   4  -1 -12   68.85    2.49
  -4   1  12   70.14    2.04
  -4   1  12   70.96    2.11
   3  -1 -12   21.83    1.31
   2  -1 -12   48.43    1.90
  -2   1  12   49.56    1.60
   1  -1 -12   64.40    2.22
  -1   1  12   62.67    1.93
   0  -1 -12   18.62    1.52
   0   1  12   19.06    0.90
  -1  -1 -12   32.46    1.43
   1   1  12   33.81    1.36
  -2  -1 -12   51.76    2.03
  -2  -1 -12   52.10    1.86
   2   1  12   52.69    1.80
  -3  -1 -12    1.22    0.39
  -3  -1 -12    0.65    0.44
   3   1  12    0.74    0.35
  -4  -1 -12   38.67    1.53
  -4  -1 -12   40.88    1.57
   4   1  12   42.36    1.50
  -5  -1 -12   17.96    1.10
   5   1  12   18.06    1.00
  -6  -1 -12    3.19    0.64
   6   1  12    4.13    0.71
  -7  -1 -12   33.50    1.64
   7   1  12   34.29    1.51
  -8  -1 -12    9.99    1.18
   8   1  12   12.21    1.01
   6  -2 -12   24.49    1.52
  -6   2  12   25.51    1.21
   5  -2 -12    0.56    0.64
  -5   2  12    0.33    0.41
   4  -2 -12    8.61    1.04
  -4   2  12    9.17    0.61
  -4   2  12    7.60    0.71
   3  -2 -12   51.12    1.99
  -3   2  12   51.17    1.69
  -3   2  12   48.75    1.63
   2  -2 -12    1.40    0.52
  -2   2  12    1.50    0.37
  -2   2  12    1.50    0.34
   1  -2 -12   71.21    2.43
  -1   2  12   76.78    2.14
   0   2  12   36.30    1.43
  -1  -2 -12    0.38    0.44
  -2  -2 -12   69.53    2.23
  -2  -2 -12   64.11    2.42
   2   2  12   67.79    2.38
  -3  -2 -12   28.98    1.30
  -3  -2 -12   29.58    1.22
   3   2  12   29.08    1.18
  -4  -2 -12    9.26    0.81
  -4  -2 -12   10.34    0.84
   4   2  12   10.86    0.78
  -5  -2 -12   43.64    1.71
   5   2  12   44.01    1.63
  -6  -2 -12    1.41    0.52
   6   2  12    0.63    0.42
  -7  -2 -12   21.48    1.29
   7   2  12   20.33    1.18
  -8  -2 -12   31.98    1.64
   8   2  12   32.96    1.50
   6  -3 -12   23.66    1.53
  -6   3  12   23.33    1.20
   5  -3 -12    3.14    0.79
  -5   3  12    2.00    0.48
   4  -3 -12    5.02    0.83
  -4   3  12    5.33    0.70
   3  -3 -12    9.39    1.01
  -3   3  12    9.19    0.61
  -3   3  12   10.46    0.76
   2  -3 -12   14.86    1.10
  -2   3  12   15.62    0.75
  -2   3  12   13.51    0.82
   1  -3 -12   20.73    1.18
  -1   3  12   20.36    0.88
  -1   3  12   19.88    0.96
   0  -3 -12   30.66    1.38
   0   3  12   30.25    1.19
   0   3  12   31.88    1.16
  -1  -3 -12    5.13    0.84
   1   3  12    3.84    0.53
   1   3  12    3.68    0.59
  -2  -3 -12   22.04    1.17
  -3  -3 -12   68.73    2.26
  -3  -3 -12   72.36    2.21
  -4  -3 -12    3.73    0.60
  -4  -3 -12    3.43    0.53
   4   3  12    3.67    0.52
  -5  -3 -12   43.96    1.68
   5   3  12   45.77    1.67
  -6  -3 -12   30.43    1.42
   6   3  12   32.30    1.38
  -7  -3 -12    2.54    0.57
   7   3  12    2.89    0.55
  -8  -3 -12   28.24    1.54
   8   3  12   28.01    1.41
   5  -4 -12   45.13    1.98
  -5   4  12   46.63    1.70
   4  -4 -12    0.61    0.57
  -4   4  12    0.84    0.43
   3  -4 -12   14.64    1.14
  -3   4  12   15.30    0.91
   2  -4 -12   23.60    1.31
  -2   4  12   22.98    1.10
   1  -4 -12    1.18    0.51
  -1   4  12    0.69    0.30
  -1   4  12    1.09    0.34
   0  -4 -12   35.34    1.53
   0   4  12   37.88    1.29
   0   4  12   38.29    1.39
  -1  -4 -12   17.76    1.05
   1   4  12   17.87    0.90
   1   4  12   18.54    0.87
   2   4  12    0.79    0.33
   2   4  12    0.57    0.33
  -3  -4 -12   19.23    1.00
  -3  -4 -12   20.16    1.09
  -4  -4 -12   25.61    1.19
  -4  -4 -12   25.89    1.22
  -5  -4 -12   -0.29    0.37
   5   4  12    0.35    0.44
  -6  -4 -12   29.40    1.38
   6   4  12   29.56    1.34
  -7  -4 -12   12.87    1.06
   7   4  12   12.26    0.96
  -8  -4 -12    2.09    0.63
   8   4  12    1.34    0.54
   5  -5 -12   25.65    2.31
  -5   5  12   24.68    1.33
   4  -5 -12   56.57    2.19
  -4   5  12   57.25    1.96
   3  -5 -12   -0.60    0.53
  -3   5  12    0.51    0.39
   2  -5 -12   20.17    1.23
  -2   5  12   20.87    1.05
   1  -5 -12   38.68    1.63
  -1   5  12   38.58    1.46
   0  -5 -12    4.10    0.67
   0   5  12    3.61    0.59
  -1  -5 -12   60.36    2.04
   1   5  12   59.95    1.93
   1   5  12   59.10    1.82
  -2  -5 -12   25.11    1.21
   2   5  12   24.14    1.10
   2   5  12   23.86    1.06
  -3  -5 -12    0.37    0.48
  -4  -5 -12   31.29    1.61
  -4  -5 -12   30.74    1.32
  -5  -5 -12   24.53    1.20
  -6  -5 -12    0.34    0.44
   6   5  12    0.05    0.43
  -7  -5 -12   21.33    1.30
   7   5  12   22.65    1.22
  -8  -5 -12    6.18    0.96
   8   5  12    6.41    0.93
   4  -6 -12   32.52    2.16
  -4   6  12   32.85    1.65
   3  -6 -12   25.16    1.43
  -3   6  12   25.12    1.23
   2  -6 -12   -0.08    0.53
  -2   6  12    0.73    0.43
   1  -6 -12   23.95    1.30
  -1   6  12   25.83    1.16
   0  -6 -12   28.77    1.36
   0   6  12   28.15    1.22
  -1  -6 -12    7.30    0.86
   1   6  12    9.12    0.72
  -2  -6 -12   52.66    1.87
   2   6  12   51.44    1.67
   2   6  12   51.93    1.78
  -3  -6 -12    7.93    0.84
   3   6  12    7.83    0.72
   3   6  12    8.41    1.16
  -4  -6 -12   25.70    1.25
  -4  -6 -12   26.51    1.23
   4   6  12   26.30    1.19
  -5  -6 -12   57.53    2.00
  -6  -6 -12    6.27    0.84
  -7  -6 -12   22.46    1.29
   7   6  12   26.42    1.33
  -8  -6 -12   24.30    2.00
   8   6  12   27.10    1.91
   2  -7 -12    2.59    0.66
  -2   7  12    2.57    0.50
   1  -7 -12    7.33    0.98
  -1   7  12    6.04    0.73
   0  -7 -12   25.46    1.30
   0   7  12   22.72    1.14
  -1  -7 -12    5.77    0.81
   1   7  12    3.78    0.68
  -2  -7 -12   16.81    1.06
   2   7  12   17.34    0.98
  -3  -7 -12   28.64    1.32
   3   7  12   27.74    1.24
  -4  -7 -12   -0.06    0.48
  -4  -7 -12    0.83    0.51
   4   7  12   -0.35    0.37
  -5  -7 -12   25.43    1.30
   5   7  12   31.46    1.34
  -6  -7 -12   20.95    1.22
  -7  -7 -12    1.36    0.55
  -1   8  12   -0.61    0.47
   0  -8 -12   13.50    1.13
   0   8  12   16.32    0.98
  -1  -8 -12   14.60    1.07
   1   8  12   12.10    0.88
  -2  -8 -12    1.45    0.54
   2   8  12    1.42    0.43
  -3  -8 -12   21.19    1.20
   3   8  12   22.24    1.14
  -4  -8 -12   10.03    0.98
  -5  -8 -12    1.49    0.47
  -6  -8 -12   14.92    1.13
  -2  -9 -12    7.58    0.96
   2   9  12    8.75    0.95
  -3  -9 -12    1.23    0.60
   3   9  12    1.19    0.48
  -4  -9 -12   15.48    1.11
   2   5 -13    4.09    0.91
  -2  -5  13    6.00    1.02
   1   5 -13   32.09    1.70
  -1  -5  13   30.98    1.30
   0   5 -13   21.44    1.45
   0  -5  13   19.59    1.08
  -1   5 -13    1.70    0.71
   1  -5  13    1.73    0.49
  -2   5 -13   21.68    1.47
   2  -5  13   19.48    1.60
   3   4 -13   28.41    1.60
  -3  -4  13   26.13    1.17
   2   4 -13   50.94    2.19
  -2  -4  13   50.96    1.71
   1   4 -13    3.15    0.75
  -1  -4  13    2.07    0.42
   0   4 -13   35.02    1.77
   0  -4  13   37.40    1.41
  -1   4 -13   25.65    1.49
   1  -4  13   21.59    1.09
  -2   4 -13    2.39    0.73
   2  -4  13    1.46    0.47
   3  -4  13   33.46    1.44
   4   3 -13   21.73    1.51
  -4  -3  13   24.85    1.09
   3   3 -13    0.38    0.63
  -3  -3  13    0.66    0.38
   2   3 -13   26.30    1.57
  -2  -3  13   25.18    1.11
   1   3 -13   42.51    1.96
  -1  -3  13   43.92    1.53
   0   3 -13    8.32    1.10
   0  -3  13   10.87    0.78
  -1   3 -13   41.02    1.86
   1  -3  13   38.79    1.46
  -2   3 -13   28.91    1.40
  -2   3 -13   32.55    1.62
   2  -3  13   30.87    1.31
  -3   3 -13    3.39    0.74
   3  -3  13    3.37    0.58
   4  -3  13   44.22    1.71
   5  -3  13    6.29    1.35
   5   2 -13    1.00    0.69
  -5  -2  13   -0.02    0.37
   4   2 -13   41.83    1.94
  -4  -2  13   41.78    1.50
   3   2 -13   17.70    1.32
  -3  -2  13   17.68    0.93
   2   2 -13    0.71    0.59
  -2  -2  13    0.98    0.34
   1   2 -13   57.57    2.24
  -1  -2  13   57.22    1.83
   0   2 -13   23.25    1.41
   0   2 -13   22.78    1.27
   0  -2  13   24.39    1.08
  -1   2 -13   27.20    1.28
  -1   2 -13   28.94    1.53
   1  -2  13   29.39    1.20
  -2   2 -13   39.17    1.75
  -2   2 -13   37.08    1.54
   2  -2  13   38.52    1.46
  -3   2 -13    7.79    0.97
   3  -2  13    7.42    0.76
   4  -2  13   24.64    1.23
  -5   2 -13   27.89    1.55
   5  -2  13   29.48    1.39
  -6   2 -13   -0.01    0.70
  -6  -1  13   18.77    1.21
   5   1 -13   10.23    1.19
  -5  -1  13   10.44    0.77
   4   1 -13   19.39    1.40
  -4  -1  13   20.54    0.98
   3   1 -13   24.59    1.48
  -3  -1  13   25.72    1.08
   2   1 -13    3.08    0.70
  -2  -1  13    2.97    0.44
   1   1 -13   13.79    1.15
  -1  -1  13   14.74    0.83
   0   1 -13   35.84    1.69
   0   1 -13   36.06    1.40
   0  -1  13   37.87    1.37
  -1   1 -13    2.97    0.64
  -1   1 -13    2.98    0.53
   1  -1  13    3.29    0.58
  -2   1 -13   36.57    1.62
   2  -1  13   32.98    1.33
  -3   1 -13   17.17    1.16
   3  -1  13   14.19    0.90
  -4   1 -13    0.73    0.49
   4  -1  13    0.01    0.40
  -5   1 -13   31.50    1.56
   5  -1  13   30.74    1.40
  -6   1 -13   20.11    1.35
   6  -1  13   19.79    1.18
   5   0 -13   37.50    1.84
   4   0 -13   -0.03    0.66
   3   0 -13   67.15    2.52
  -3   0  13   69.62    2.07
   2   0 -13    7.16    1.01
  -2   0  13    6.43    0.62
   1   0 -13   12.90    1.13
   1   0 -13   12.75    0.82
  -1   0  13   11.89    0.77
   0   0 -13   17.96    1.25
   0   0  13   19.89    0.96
  -1   0 -13    4.91    0.87
   1   0  13    6.23    0.63
  -2   0 -13   23.89    1.33
   2   0  13   25.91    1.12
  -3   0 -13   24.43    1.24
  -3   0 -13   25.50    1.34
   3   0  13   23.99    1.15
  -4   0 -13    4.84    0.81
   4   0  13    4.00    0.71
  -5   0 -13    3.16    0.62
   5   0  13    3.54    0.58
  -6   0 -13   27.02    1.51
   6   0  13   28.32    1.35
   5  -1 -13   30.12    1.67
  -5   1  13   32.15    1.60
   4  -1 -13   42.62    1.97
  -4   1  13   44.89    1.58
   3  -1 -13    0.97    0.57
  -3   1  13    1.24    0.41
   2  -1 -13   92.63    3.04
  -2   1  13   96.32    2.70
   1  -1 -13   30.64    1.50
  -1   1  13   27.83    1.19
   0  -1 -13    1.81    0.53
   0   1  13    1.69    0.36
  -1  -1 -13   56.68    2.07
   1   1  13   54.89    1.80
  -2  -1 -13   24.78    1.17
  -2  -1 -13   28.86    1.39
  -3  -1 -13   27.96    1.30
  -3  -1 -13   25.62    1.58
   3   1  13   28.68    1.22
  -4  -1 -13   34.68    1.48
   4   1  13   32.10    1.37
  -5  -1 -13    1.74    0.51
   5   1  13    1.14    0.47
  -6  -1 -13   16.16    1.17
   6   1  13   16.71    1.07
  -7  -1 -13   21.65    1.49
   7   1  13   23.26    1.67
   5  -2 -13    6.90    1.14
  -5   2  13    6.90    0.87
   4  -2 -13   22.99    1.52
  -4   2  13   26.44    1.19
  -4   2  13   26.16    1.07
   3  -2 -13   39.71    1.84
  -3   2  13   39.48    1.39
  -3   2  13   39.87    1.48
   2  -2 -13   10.21    1.09
  -2   2  13   12.07    0.83
  -2   2  13   11.14    0.83
   1  -2 -13   84.79    2.80
  -1   2  13   82.12    2.45
   0  -2 -13   11.45    1.11
   0   2  13   10.91    0.76
  -1  -2 -13   17.36    1.14
  -1  -2 -13   19.18    1.01
  -2  -2 -13   78.79    2.60
  -2  -2 -13   81.36    2.47
   2   2  13   82.01    2.41
  -3  -2 -13    2.90    0.52
  -3  -2 -13    2.96    0.65
   3   2  13    2.81    0.49
  -4  -2 -13   39.34    1.88
  -4  -2 -13   41.88    1.65
   4   2  13   42.85    1.60
  -5  -2 -13   29.18    1.42
   5   2  13   30.05    1.35
  -6  -2 -13    1.35    0.54
   6   2  13    0.76    0.45
  -7  -2 -13   27.51    1.50
   7   2  13   27.56    1.38
  -5   3  13    1.58    0.52
   4  -3 -13   21.85    1.44
  -4   3  13   20.81    1.11
   3  -3 -13   32.82    1.70
  -3   3  13   34.14    1.38
   2  -3 -13    7.88    1.01
  -2   3  13    6.65    0.64
  -2   3  13    6.49    0.72
   1  -3 -13   47.87    1.98
  -1   3  13   50.18    1.72
  -1   3  13   51.92    1.64
   0  -3 -13   32.24    1.55
   0   3  13   31.41    1.23
   0   3  13   31.73    1.28
  -1  -3 -13    2.45    0.58
   1   3  13    1.91    0.40
  -2  -3 -13   31.34    1.49
  -2  -3 -13   31.78    1.34
  -3  -3 -13   18.93    1.05
  -3  -3 -13   19.53    1.20
   3   3  13   19.19    1.03
  -4  -3 -13    6.64    0.97
  -4  -3 -13    7.04    0.82
   4   3  13    7.84    0.80
  -5  -3 -13   41.03    1.68
   5   3  13   40.30    1.60
  -6  -3 -13    8.30    0.95
   6   3  13    7.60    0.90
  -7  -3 -13    5.28    0.93
   7   3  13    7.13    0.89
   4  -4 -13    3.14    0.79
  -4   4  13    4.23    0.76
   3  -4 -13   24.98    1.47
  -3   4  13   26.05    1.24
   2  -4 -13   16.40    1.22
  -2   4  13   16.14    0.96
   1  -4 -13    5.00    0.76
  -1   4  13    4.10    0.56
  -1   4  13    5.04    0.69
   0  -4 -13   58.99    2.14
   0   4  13   57.66    1.82
   0   4  13   58.27    1.93
  -1  -4 -13   14.00    1.08
   1   4  13   15.13    0.87
   1   4  13   15.51    0.89
  -2  -4 -13    5.18    0.91
  -3  -4 -13   29.46    1.40
  -3  -4 -13   28.66    1.29
  -4  -4 -13    5.10    0.74
   4   4  13    5.44    0.75
  -5  -4 -13   12.59    1.00
   5   4  13   13.88    0.97
  -6  -4 -13   19.45    1.22
   6   4  13   19.54    1.15
  -7  -4 -13    0.42    0.56
   7   4  13    0.37    0.49
   3  -5 -13   10.12    1.17
  -3   5  13   11.86    0.90
   2  -5 -13   21.48    1.36
  -2   5  13   20.40    1.13
   1  -5 -13    5.90    0.96
  -1   5  13    5.52    0.68
   0  -5 -13   11.09    1.05
   0   5  13   10.44    0.83
  -1  -5 -13   40.52    1.72
   1   5  13   40.61    1.53
   1   5  13   43.04    1.45
  -2  -5 -13    6.32    0.93
   2   5  13    6.68    0.68
   2   5  13    6.32    0.74
  -3  -5 -13   18.14    1.07
  -3  -5 -13   17.83    1.16
  -4  -5 -13   36.83    1.51
  -4  -5 -13   36.31    1.56
  -5  -5 -13    3.76    0.65
  -6  -5 -13   11.06    1.03
   6   5  13   13.86    1.01
   7   5  13   14.60    1.12
   2  -6 -13   11.64    1.19
  -2   6  13   11.82    0.94
   1  -6 -13   24.52    1.42
  -1   6  13   23.59    1.16
   0  -6 -13    1.06    0.60
   0   6  13    0.94    0.42
  -1  -6 -13   22.83    1.31
   1   6  13   22.55    1.14
  -2  -6 -13   24.09    1.34
   2   6  13   24.63    1.16
  -3  -6 -13    0.75    0.56
   3   6  13    0.99    0.48
  -4  -6 -13   28.94    1.39
  -4  -6 -13   27.33    1.33
  -5  -6 -13   16.03    1.05
  -6  -6 -13    1.40    0.50
   0  -7 -13   15.95    1.21
   0   7  13   17.36    1.03
  -1  -7 -13    5.21    0.77
   1   7  13    5.57    0.74
  -2  -7 -13   34.17    1.58
   2   7  13   34.58    1.41
  -3  -7 -13   15.18    1.14
   3   7  13   13.35    0.96
  -4  -7 -13    8.30    1.02
  -4  -7 -13    9.32    0.91
  -5  -7 -13   25.28    1.35
  -2  -8 -13   12.00    1.16
  -3  -8 -13   30.73    1.52
  -4  -8 -13    3.66    0.75
   0   4 -14   34.37    2.22
  -1   4 -14    0.22    0.73
  -2   4 -14    7.44    1.32
   2   3 -14   33.33    2.17
  -2  -3  14   35.00    2.02
   1   3 -14   16.99    1.40
  -1  -3  14   17.23    1.00
   0   3 -14   26.96    1.59
   0  -3  14   22.96    1.15
  -1   3 -14   28.82    1.71
   1  -3  14   26.42    1.21
  -2   3 -14    5.65    0.94
   2  -3  14    5.00    0.94
   3   2 -14    0.47    0.97
  -3  -2  14    1.07    0.41
   2   2 -14    9.14    1.24
  -2  -2  14   11.92    0.80
   1   2 -14   52.70    2.26
  -1  -2  14   56.03    1.83
   0   2 -14    9.35    1.20
   0  -2  14    7.85    0.77
  -1   2 -14   35.75    1.77
  -1   2 -14   31.68    1.42
   1  -2  14   31.98    1.33
  -2   2 -14   35.12    1.79
   2  -2  14   35.38    1.43
   3  -2  14    2.64    0.52
  -4  -1  14   15.13    0.96
   3   1 -14   12.98    1.26
  -3  -1  14   13.99    0.85
   2   1 -14    2.78    0.68
  -2  -1  14    2.17    0.44
   1   1 -14   20.65    1.43
  -1  -1  14   21.46    1.06
   0   1 -14   28.46    1.29
   0   1 -14   30.08    1.61
   0  -1  14   28.37    1.22
  -1   1 -14    9.06    1.16
   1  -1  14    8.31    0.75
  -2   1 -14   52.65    2.09
   2  -1  14   49.33    1.79
  -3   1 -14   14.46    1.39
   3  -1  14   13.26    0.94
  -4   1 -14    4.83    0.71
   4  -1  14    5.58    0.83
  -5   1 -14   28.28    1.60
   3   0 -14   30.16    1.67
  -3   0  14   32.26    1.26
   2   0 -14    3.01    0.74
   2   0 -14    2.53    0.50
  -2   0  14    2.39    0.45
   1   0 -14    7.33    1.07
   1   0 -14    7.05    0.78
  -1   0  14    7.58    0.70
   0   0 -14   16.83    1.30
   0   0  14   15.76    0.91
  -1   0 -14    2.86    0.71
   1   0  14    2.28    0.47
  -2   0 -14   20.02    1.34
   2   0  14   19.62    1.04
  -3   0 -14   26.74    1.47
  -3   0 -14   26.36    1.34
   3   0  14   26.11    1.26
  -4   0 -14    0.69    0.56
   4   0  14    0.33    0.45
  -5   0 -14   14.75    1.16
   5   0  14   14.13    1.23
   3  -1 -14   14.61    1.32
  -3   1  14   16.07    0.97
   2  -1 -14   29.39    1.60
  -2   1  14   29.93    1.28
   1  -1 -14    0.25    0.57
  -1   1  14    0.55    0.36
   0  -1 -14   15.12    1.24
   0   1  14   14.72    0.87
  -1  -1 -14   18.29    1.31
   1   1  14   18.19    0.98
  -2  -1 -14   -0.39    0.42
  -2  -1 -14    1.24    0.61
   2   1  14    0.64    0.40
  -3  -1 -14   15.46    1.06
  -3  -1 -14   15.25    1.21
   3   1  14   16.69    1.00
  -4  -1 -14   20.47    1.25
   4   1  14   23.07    1.18
  -5  -1 -14    0.14    0.51
   5   1  14    0.05    0.49
  -4   2  14   23.33    1.22
   3  -2 -14    1.90    0.69
  -3   2  14    3.38    0.67
  -3   2  14    2.87    0.54
   2  -2 -14   17.47    1.33
  -2   2  14   17.25    1.02
   1  -2 -14   20.68    1.43
  -1   2  14   20.04    1.07
   0  -2 -14    0.56    0.60
  -1  -2 -14   28.23    1.28
  -1  -2 -14   27.91    1.52
   1   2  14   29.28    1.24
  -2  -2 -14   13.84    1.14
  -2  -2 -14   12.45    0.94
   2   2  14   12.51    0.88
  -3  -2 -14    4.42    0.63
  -3  -2 -14    4.49    0.75
   3   2  14    4.54    0.75
  -4  -2 -14   35.65    1.56
   4   2  14   34.57    1.47
  -5  -2 -14   10.44    1.04
   5   2  14   12.37    0.96
  -4   3  14   20.49    1.56
   3  -3 -14   16.68    1.88
  -3   3  14   16.29    1.03
   2  -3 -14    1.21    0.65
  -2   3  14    1.05    0.48
   1  -3 -14   30.79    1.68
  -1   3  14   28.28    1.28
  -1   3  14   29.35    1.22
   0  -3 -14   15.63    1.29
   0   3  14   13.93    0.94
  -1  -3 -14    5.34    0.81
  -2  -3 -14   25.64    1.45
  -2  -3 -14   27.03    1.27
  -3  -3 -14   -0.10    0.43
  -3  -3 -14    0.26    0.60
   3   3  14    0.61    0.44
  -4  -3 -14   13.74    1.03
   4   3  14   12.98    1.00
  -5  -3 -14   26.08    1.35
   5   3  14   24.17    1.26
  -3   4  14   38.84    2.03
   2  -4 -14    4.15    0.79
  -2   4  14    4.70    0.77
   1  -4 -14   21.90    1.45
  -1   4  14   22.57    1.14
   0  -4 -14   35.63    1.72
   0   4  14   34.42    1.42
   0   4  14   33.99    1.32
  -1  -4 -14    3.93    0.75
   1   4  14    5.09    0.73
  -2  -4 -14   23.28    1.21
  -2  -4 -14   20.88    1.39
  -3  -4 -14   22.49    1.21
  -3  -4 -14   24.22    1.45
  -4  -4 -14   -0.46    0.43
   4   4  14    0.18    0.49
  -5  -4 -14   12.09    1.04
   5   4  14   10.83    0.96
   1  -5 -14    0.81    0.66
  -1   5  14   -0.41    0.42
   0  -5 -14   21.99    1.39
   0   5  14   20.85    1.13
  -1  -5 -14   24.98    1.44
   1   5  14   25.73    1.22
  -2  -5 -14    0.05    0.61
   2   5  14    2.12    0.47
  -3  -5 -14   35.67    1.53
  -3  -5 -14   36.17    1.71
  -4  -5 -14   16.03    1.07
   5   5  14    0.78    0.54
   0  -6 -14    2.04    1.14
  -1  -6 -14    9.91    1.13
   1   6  14    9.87    1.08
  -2  -6 -14   15.48    1.24
   2   6  14   15.15    1.14
  -3  -6 -14    2.03    0.84
  -3  -6 -14    0.89    0.67
  -3  -7 -14    1.65    0.76
  -1   2 -15   35.66    2.55
  -2   2 -15    7.85    1.40
   0   1 -15    2.55    0.82
  -1   1 -15   15.15    1.41
  -2   1 -15   25.83    1.71
   1   0 -15   27.85    2.36
  -1   0  15   24.28    1.17
   0   0 -15   34.68    1.79
   0   0  15   36.58    1.43
  -1   0 -15    1.59    0.71
   1   0  15    1.52    0.48
  -2   0 -15   28.33    1.68
   2   0  15   28.64    1.73
  -3   0 -15   21.61    1.30
   1  -1 -15    0.82    0.93
  -1   1  15    1.57    0.44
   0  -1 -15   45.19    2.05
   0   1  15   49.86    1.71
  -1  -1 -15   25.50    1.59
  -1  -1 -15   25.10    1.47
   1   1  15   25.94    1.22
  -2  -1 -15    6.63    0.95
  -2  -1 -15    5.37    0.72
   2   1  15    6.92    0.80
  -3  -1 -15   40.29    1.70
  -2   2  15   18.30    1.13
   1  -2 -15    4.35    1.48
   0  -2 -15    3.13    0.74
   0  -2 -15    3.79    0.59
  -1  -2 -15   26.32    1.27
  -1  -2 -15   22.08    1.47
   1   2  15   24.48    1.17
  -2  -2 -15    1.36    0.71
  -2  -2 -15   -0.28    0.46
   2   2  15    0.92    0.47
  -3  -2 -15    9.57    1.38
  -3  -2 -15    8.97    0.96
   3   2  15    9.48    0.90
  -1   3  15   12.10    1.12
   0  -3 -15    1.11    0.72
  -1  -3 -15   12.32    1.30
  -1  -3 -15   12.01    0.96
  -2  -3 -15   11.48    1.22
  -2  -3 -15   10.65    0.96
   2   3  15   11.29    0.94
  -3  -3 -15    5.86    1.07
  -3  -3 -15    8.04    1.13
   3   3  15    4.87    0.85
  -1  -4 -15    1.52    0.77
  -2  -4 -15   38.59    1.89
  -3  -4 -15    7.71    1.20
  -2  -5 -15    3.21    1.47
  -3  -5 -15   43.26    2.05
   0   0   0    0.00    0.00
;
_shelx_hkl_checksum              16670
loop_
_space_group_symop_operation_xyz
'x, y, z'
'-x, -y, -z'
loop_
_atom_site_label
_atom_site_type_symbol
_atom_site_fract_x
_atom_site_fract_y
_atom_site_fract_z
_atom_site_U_iso_or_equiv
_atom_site_adp_type
_atom_site_occupancy
_atom_site_site_symmetry_order
_atom_site_calc_flag
_atom_site_refinement_flags_posn
_atom_site_refinement_flags_adp
_atom_site_refinement_flags_occupancy
_atom_site_disorder_assembly
_atom_site_disorder_group
C1 C 0.1426(2) 0.8104(2) 0.53254(18) 0.0177(3) Uani 1 1 d . . . . .
C2 C 0.0553(2) 0.7453(2) 0.43916(18) 0.0176(3) Uani 1 1 d . . . . .
H2 H -0.0324 0.6803 0.4762 0.021 Uiso 1 1 calc R U . . .
C3 C 0.1169(2) 0.7396(2) 0.29852(18) 0.0160(3) Uani 1 1 d . . . . .
H3 H 0.0709 0.6695 0.2407 0.019 Uiso 1 1 calc R U . . .
C4 C 0.2635(2) 0.7989(2) 0.24693(17) 0.0140(3) Uani 1 1 d . . . . .
C5 C 0.3485(2) 0.8666(2) 0.34274(18) 0.0152(3) Uani 1 1 d . . . . .
H5 H 0.4650 0.8862 0.3151 0.018 Uiso 1 1 calc R U . . .
C6 C 0.2884(2) 0.8751(2) 0.48205(18) 0.0172(3) Uani 1 1 d . . . . .
H6 H 0.3636 0.8997 0.5495 0.021 Uiso 1 1 calc R U . . .
C7 C 0.0873(3) 0.8029(3) 0.68325(19) 0.0260(4) Uani 1 1 d . . . . .
H7A H 0.1870 0.7852 0.7378 0.039 Uiso 1 1 calc R U . . .
H7B H 0.0287 0.7105 0.7075 0.039 Uiso 1 1 calc R U . . .
H7C H 0.0099 0.9081 0.7028 0.039 Uiso 1 1 calc R U . . .
C8 C 0.3324(2) 0.7924(2) 0.09796(17) 0.0169(3) Uani 1 1 d . . . . .
H8 H 0.4591 0.7719 0.0970 0.020 Uiso 1 1 calc R U . . .
C9 C 0.2874(3) 0.6525(3) 0.0289(2) 0.0269(4) Uani 1 1 d . . . . .
H9A H 0.3201 0.5465 0.0864 0.040 Uiso 1 1 calc R U . . .
H9B H 0.3485 0.6444 -0.0618 0.040 Uiso 1 1 calc R U . . .
H9C H 0.1647 0.6766 0.0180 0.040 Uiso 1 1 calc R U . . .
C10 C 0.2699(2) 0.9640(2) 0.01895(19) 0.0215(4) Uani 1 1 d . . . . .
H10A H 0.1457 0.9875 0.0181 0.032 Uiso 1 1 calc R U . . .
H10B H 0.3196 0.9640 -0.0760 0.032 Uiso 1 1 calc R U . . .
H10C H 0.3044 1.0500 0.0643 0.032 Uiso 1 1 calc R U . . .
N1 N 0.2763(2) 0.38396(19) 0.39933(17) 0.0195(3) Uani 1 1 d . . . . .
N2 N 0.36431(19) 0.29808(18) 0.31986(15) 0.0164(3) Uani 1 1 d . . . . .
N3 N 0.4453(2) 0.2094(2) 0.24401(19) 0.0283(4) Uani 1 1 d . . . . .
N4 N 0.58206(17) 0.50699(17) 0.37913(15) 0.0129(3) Uani 1 1 d . . . . .
N5 N 0.67373(18) 0.57957(18) 0.30033(15) 0.0149(3) Uani 1 1 d . . . . .
N6 N 0.7595(2) 0.6426(2) 0.22325(18) 0.0286(4) Uani 1 1 d . . . . .
Ru1 Ru 0.32293(2) 0.61847(2) 0.42793(2) 0.00960(5) Uani 1 1 d . . . . .
loop_
_atom_site_aniso_label
_atom_site_aniso_U_11
_atom_site_aniso_U_22
_atom_site_aniso_U_33
_atom_site_aniso_U_23
_atom_site_aniso_U_13
_atom_site_aniso_U_12
C1 0.0178(8) 0.0142(8) 0.0155(8) 0.0006(6) 0.0007(6) 0.0067(6)
C2 0.0095(7) 0.0204(8) 0.0187(8) 0.0030(7) 0.0013(6) 0.0025(6)
C3 0.0106(7) 0.0191(8) 0.0165(8) 0.0019(6) -0.0025(6) -0.0004(6)
C4 0.0127(7) 0.0137(7) 0.0133(7) 0.0029(6) -0.0013(6) 0.0000(6)
C5 0.0157(8) 0.0099(7) 0.0185(8) 0.0024(6) -0.0017(6) -0.0014(6)
C6 0.0222(8) 0.0093(7) 0.0184(8) -0.0015(6) -0.0047(7) 0.0018(6)
C7 0.0314(10) 0.0228(9) 0.0157(8) -0.0004(7) 0.0044(7) 0.0088(8)
C8 0.0157(8) 0.0193(8) 0.0131(8) 0.0031(6) 0.0004(6) -0.0012(6)
C9 0.0417(12) 0.0246(10) 0.0147(8) -0.0017(7) 0.0025(8) -0.0092(9)
C10 0.0238(9) 0.0207(9) 0.0169(8) 0.0051(7) -0.0009(7) -0.0019(7)
N1 0.0177(7) 0.0187(7) 0.0241(8) -0.0039(6) 0.0041(6) -0.0095(6)
N2 0.0214(7) 0.0120(6) 0.0179(7) 0.0017(5) -0.0030(6) -0.0090(6)
N3 0.0391(10) 0.0197(8) 0.0282(9) -0.0101(7) 0.0102(8) -0.0113(7)
N4 0.0104(6) 0.0130(6) 0.0136(6) 0.0020(5) 0.0013(5) -0.0013(5)
N5 0.0107(6) 0.0176(7) 0.0143(7) 0.0031(5) -0.0013(5) -0.0010(5)
N6 0.0160(7) 0.0398(10) 0.0270(9) 0.0151(7) -0.0003(6) -0.0095(7)
Ru1 0.00806(7) 0.00960(7) 0.01034(7) 0.00045(4) 0.00059(4) -0.00136(4)
loop_
_atom_type_symbol
_atom_type_description
_atom_type_scat_dispersion_real
_atom_type_scat_dispersion_imag
_atom_type_scat_source
C C 0.0033 0.0016 'International Tables Vol C Tables 4.2.6.8 and 6.1.1.4'
H H 0.0000 0.0000 'International Tables Vol C Tables 4.2.6.8 and 6.1.1.4'
N N 0.0061 0.0033 'International Tables Vol C Tables 4.2.6.8 and 6.1.1.4'
Ru Ru -1.2594 0.8363 'International Tables Vol C Tables 4.2.6.8 and 6.1.1.4'
loop_
_geom_angle_atom_site_label_1
_geom_angle_atom_site_label_2
_geom_angle_atom_site_label_3
_geom_angle
_geom_angle_site_symmetry_1
_geom_angle_site_symmetry_3
_geom_angle_publ_flag
C2 C1 C6 118.95(16) . . ?
C2 C1 C7 120.23(17) . . ?
C6 C1 C7 120.75(17) . . ?
C2 C1 Ru1 70.99(10) . . ?
C6 C1 Ru1 71.34(10) . . ?
C7 C1 Ru1 126.75(12) . . ?
C1 C2 C3 120.05(16) . . ?
C1 C2 Ru1 71.13(9) . . ?
C3 C2 Ru1 70.32(9) . . ?
C1 C2 H2 119.2 . . ?
C3 C2 H2 119.2 . . ?
Ru1 C2 H2 119.2 . . ?
C4 C3 C2 122.01(16) . . ?
C4 C3 Ru1 71.93(9) . . ?
C2 C3 Ru1 71.49(9) . . ?
C4 C3 H3 118.3 . . ?
C2 C3 H3 118.3 . . ?
Ru1 C3 H3 118.3 . . ?
C3 C4 C5 117.01(15) . . ?
C3 C4 C8 122.90(15) . . ?
C5 C4 C8 120.10(15) . . ?
C3 C4 Ru1 70.28(9) . . ?
C5 C4 Ru1 69.85(9) . . ?
C8 C4 Ru1 130.46(12) . . ?
C6 C5 C4 121.86(16) . . ?
C6 C5 Ru1 72.23(10) . . ?
C4 C5 Ru1 71.66(9) . . ?
C6 C5 H5 118.5 . . ?
C4 C5 H5 118.5 . . ?
Ru1 C5 H5 118.5 . . ?
C5 C6 C1 120.06(16) . . ?
C5 C6 Ru1 70.04(9) . . ?
C1 C6 Ru1 70.67(10) . . ?
C5 C6 H6 119.1 . . ?
C1 C6 H6 119.1 . . ?
Ru1 C6 H6 119.1 . . ?
C1 C7 H7A 109.5 . . ?
C1 C7 H7B 109.5 . . ?
H7A C7 H7B 109.5 . . ?
C1 C7 H7C 109.5 . . ?
H7A C7 H7C 109.5 . . ?
H7B C7 H7C 109.5 . . ?
C4 C8 C9 113.31(15) . . ?
C4 C8 C10 108.57(14) . . ?
C9 C8 C10 111.78(15) . . ?
C4 C8 H8 107.6 . . ?
C9 C8 H8 107.6 . . ?
C10 C8 H8 107.6 . . ?
C8 C9 H9A 109.5 . . ?
C8 C9 H9B 109.5 . . ?
H9A C9 H9B 109.5 . . ?
C8 C9 H9C 109.5 . . ?
H9A C9 H9C 109.5 . . ?
H9B C9 H9C 109.5 . . ?
C8 C10 H10A 109.5 . . ?
C8 C10 H10B 109.5 . . ?
H10A C10 H10B 109.5 . . ?
C8 C10 H10C 109.5 . . ?
H10A C10 H10C 109.5 . . ?
H10B C10 H10C 109.5 . . ?
N2 N1 Ru1 120.67(12) . . ?
N3 N2 N1 176.90(18) . . ?
N5 N4 Ru1 121.88(11) . . ?
N5 N4 Ru1 119.03(11) . 2_666 ?
Ru1 N4 Ru1 104.97(6) . 2_666 ?
N6 N5 N4 177.27(19) . . ?
N1 Ru1 N4 84.78(6) . . ?
N1 Ru1 N4 83.98(6) . 2_666 ?
N4 Ru1 N4 75.03(6) . 2_666 ?
N1 Ru1 C5 149.39(7) . . ?
N4 Ru1 C5 94.12(6) . . ?
N4 Ru1 C5 125.35(6) 2_666 . ?
N1 Ru1 C3 89.91(7) . . ?
N4 Ru1 C3 131.81(6) . . ?
N4 Ru1 C3 151.89(6) 2_666 . ?
C5 Ru1 C3 68.14(7) . . ?
N1 Ru1 C2 95.15(7) . . ?
N4 Ru1 C2 169.96(6) . . ?
N4 Ru1 C2 114.97(6) 2_666 . ?
C5 Ru1 C2 80.81(7) . . ?
C3 Ru1 C2 38.19(6) . . ?
N1 Ru1 C1 124.26(7) . . ?
N4 Ru1 C1 147.35(6) . . ?
N4 Ru1 C1 92.10(6) 2_666 . ?
C5 Ru1 C1 68.74(7) . . ?
C3 Ru1 C1 68.87(7) . . ?
C2 Ru1 C1 37.89(7) . . ?
N1 Ru1 C4 111.73(6) . . ?
N4 Ru1 C4 101.57(6) . . ?
N4 Ru1 C4 163.78(6) 2_666 . ?
C5 Ru1 C4 38.49(6) . . ?
C3 Ru1 C4 37.79(6) . . ?
C2 Ru1 C4 69.09(6) . . ?
C1 Ru1 C4 82.42(6) . . ?
N1 Ru1 C6 162.10(7) . . ?
N4 Ru1 C6 112.85(6) . . ?
N4 Ru1 C6 97.24(6) 2_666 . ?
C5 Ru1 C6 37.73(7) . . ?
C3 Ru1 C6 80.61(7) . . ?
C2 Ru1 C6 68.05(7) . . ?
C1 Ru1 C6 37.99(7) . . ?
C4 Ru1 C6 69.14(6) . . ?
loop_
_geom_bond_atom_site_label_1
_geom_bond_atom_site_label_2
_geom_bond_distance
_geom_bond_site_symmetry_2
_geom_bond_publ_flag
C1 C2 1.420(3) . ?
C1 C6 1.427(3) . ?
C1 C7 1.502(2) . ?
C1 Ru1 2.1872(17) . ?
C2 C3 1.425(2) . ?
C2 Ru1 2.1854(16) . ?
C2 H2 1.0000 . ?
C3 C4 1.413(2) . ?
C3 Ru1 2.1700(16) . ?
C3 H3 1.0000 . ?
C4 C5 1.437(2) . ?
C4 C8 1.517(2) . ?
C4 Ru1 2.1916(16) . ?
C5 C6 1.411(2) . ?
C5 Ru1 2.1675(16) . ?
C5 H5 1.0000 . ?
C6 Ru1 2.1959(17) . ?
C6 H6 1.0000 . ?
C7 H7A 0.9800 . ?
C7 H7B 0.9800 . ?
C7 H7C 0.9800 . ?
C8 C9 1.527(3) . ?
C8 C10 1.535(2) . ?
C8 H8 1.0000 . ?
C9 H9A 0.9800 . ?
C9 H9B 0.9800 . ?
C9 H9C 0.9800 . ?
C10 H10A 0.9800 . ?
C10 H10B 0.9800 . ?
C10 H10C 0.9800 . ?
N1 N2 1.193(2) . ?
N1 Ru1 2.1063(15) . ?
N2 N3 1.160(2) . ?
N4 N5 1.222(2) . ?
N4 Ru1 2.1314(14) . ?
N4 Ru1 2.1610(14) 2_666 ?
N5 N6 1.140(2) . ?
Ru1 N4 2.1610(14) 2_666 ?
loop_
_geom_torsion_atom_site_label_1
_geom_torsion_atom_site_label_2
_geom_torsion_atom_site_label_3
_geom_torsion_atom_site_label_4
_geom_torsion
_geom_torsion_site_symmetry_1
_geom_torsion_site_symmetry_2
_geom_torsion_site_symmetry_3
_geom_torsion_site_symmetry_4
_geom_torsion_publ_flag
C6 C1 C2 C3 2.2(2) . . . . ?
C7 C1 C2 C3 -174.60(16) . . . . ?
Ru1 C1 C2 C3 -52.48(14) . . . . ?
C6 C1 C2 Ru1 54.73(14) . . . . ?
C7 C1 C2 Ru1 -122.12(16) . . . . ?
C1 C2 C3 C4 -0.6(3) . . . . ?
Ru1 C2 C3 C4 -53.48(15) . . . . ?
C1 C2 C3 Ru1 52.85(14) . . . . ?
C2 C3 C4 C5 -0.3(2) . . . . ?
Ru1 C3 C4 C5 -53.59(13) . . . . ?
C2 C3 C4 C8 179.38(16) . . . . ?
Ru1 C3 C4 C8 126.09(16) . . . . ?
C2 C3 C4 Ru1 53.29(15) . . . . ?
C3 C4 C5 C6 -0.4(2) . . . . ?
C8 C4 C5 C6 179.89(15) . . . . ?
Ru1 C4 C5 C6 -54.22(14) . . . . ?
C3 C4 C5 Ru1 53.80(13) . . . . ?
C8 C4 C5 Ru1 -125.89(15) . . . . ?
C4 C5 C6 C1 2.1(2) . . . . ?
Ru1 C5 C6 C1 -51.90(14) . . . . ?
C4 C5 C6 Ru1 53.97(14) . . . . ?
C2 C1 C6 C5 -2.9(2) . . . . ?
C7 C1 C6 C5 173.88(16) . . . . ?
Ru1 C1 C6 C5 51.61(14) . . . . ?
C2 C1 C6 Ru1 -54.56(14) . . . . ?
C7 C1 C6 Ru1 122.27(16) . . . . ?
C3 C4 C8 C9 -26.8(2) . . . . ?
C5 C4 C8 C9 152.90(16) . . . . ?
Ru1 C4 C8 C9 64.6(2) . . . . ?
C3 C4 C8 C10 98.06(19) . . . . ?
C5 C4 C8 C10 -82.27(19) . . . . ?
Ru1 C4 C8 C10 -170.60(13) . . . . ?
