#------------------------------------------------------------------------------
#$Date: 2021-11-16 02:10:43 +0200 (Tue, 16 Nov 2021) $
#$Revision: 270671 $
#$URL: file:///home/coder/svn-repositories/cod/cif/7/70/88/7708824.cif $
#------------------------------------------------------------------------------
#
# This file is available in the Crystallography Open Database (COD),
# http://www.crystallography.net/
#
# All data on this site have been placed in the public domain by the
# contributors.
#
data_7708824
loop_
_publ_author_name
'Wen, Ge-Hua'
'Chen, Xiu-Mei'
'Xu, Kui'
'Xie, Xiaoji'
'Bao, Song-Song'
'Zheng, Li-Min'
_publ_section_title
;
 Uranyl phosphonates: crystalline materials and nanosheets for temperature
 sensing
;
_journal_name_full               'Dalton Transactions'
_journal_paper_doi               10.1039/D1DT02977K
_journal_year                    2021
_chemical_formula_moiety         'C16 H16 O12 P2 U'
_chemical_formula_sum            'C16 H16 O12 P2 U'
_chemical_formula_weight         700.26
_space_group_crystal_system      triclinic
_space_group_IT_number           2
_space_group_name_Hall           '-P 1'
_space_group_name_H-M_alt        'P -1'
_atom_sites_solution_hydrogens   mixed
_audit_creation_method           SHELXL-2018/3
_audit_update_record
;
2021-08-23 deposited with the CCDC.	2021-10-28 downloaded from the CCDC.
;
_cell_angle_alpha                101.0580(10)
_cell_angle_beta                 95.0380(10)
_cell_angle_gamma                104.9500(10)
_cell_formula_units_Z            1
_cell_length_a                   5.0269(2)
_cell_length_b                   9.5081(4)
_cell_length_c                   10.7340(5)
_cell_measurement_reflns_used    6643
_cell_measurement_temperature    193(2)
_cell_measurement_theta_max      61.667
_cell_measurement_theta_min      7.393
_cell_volume                     481.35(4)
_computing_cell_refinement       'APEX 3'
_computing_data_collection       'APEX 3'
_computing_data_reduction        "'APEX 3"
_computing_molecular_graphics    SHELXTL
_computing_publication_material  SHELXTL
_computing_structure_refinement  'SHELXL-2018/3 (Sheldrick, 2018)'
_computing_structure_solution    'SHELXT 2014/4 (Sheldrick, 2014)'
_diffrn_ambient_temperature      193(2)
_diffrn_detector_area_resol_mean 4K
_diffrn_measured_fraction_theta_full 0.979
_diffrn_measured_fraction_theta_max 0.968
_diffrn_measurement_device_type  'Bruker D8 with Metal-jet'
_diffrn_measurement_method       CCD
_diffrn_radiation_type           GaK\a
_diffrn_radiation_wavelength     1.34139
_diffrn_reflns_av_R_equivalents  0.0344
_diffrn_reflns_av_unetI/netI     0.0359
_diffrn_reflns_Laue_measured_fraction_full 0.979
_diffrn_reflns_Laue_measured_fraction_max 0.968
_diffrn_reflns_limit_h_max       6
_diffrn_reflns_limit_h_min       -6
_diffrn_reflns_limit_k_max       12
_diffrn_reflns_limit_k_min       -12
_diffrn_reflns_limit_l_max       13
_diffrn_reflns_limit_l_min       -13
_diffrn_reflns_number            6518
_diffrn_reflns_point_group_measured_fraction_full 0.979
_diffrn_reflns_point_group_measured_fraction_max 0.968
_diffrn_reflns_theta_full        53.594
_diffrn_reflns_theta_max         61.669
_diffrn_reflns_theta_min         7.394
_exptl_absorpt_coefficient_mu    19.272
_exptl_absorpt_correction_T_max  0.7521
_exptl_absorpt_correction_T_min  0.3746
_exptl_absorpt_correction_type   multi-scan
_exptl_absorpt_process_details
;
 SADABS 2016/2: Krause, L., Herbst-Irmer, R., Sheldrick G.M. & Stalke D.,
 J. Appl. Cryst. 48 (2015) 3-10
;
_exptl_crystal_colour            'light yellow'
_exptl_crystal_density_diffrn    2.416
_exptl_crystal_description       needle-like
_exptl_crystal_F_000             330
_exptl_crystal_size_max          0.200
_exptl_crystal_size_mid          0.050
_exptl_crystal_size_min          0.050
_refine_diff_density_max         1.216
_refine_diff_density_min         -2.000
_refine_diff_density_rms         0.195
_refine_ls_extinction_method     none
_refine_ls_goodness_of_fit_ref   1.092
_refine_ls_hydrogen_treatment    constr
_refine_ls_matrix_type           full
_refine_ls_number_parameters     142
_refine_ls_number_reflns         2213
_refine_ls_number_restraints     0
_refine_ls_restrained_S_all      1.092
_refine_ls_R_factor_all          0.0221
_refine_ls_R_factor_gt           0.0221
_refine_ls_shift/su_max          0.000
_refine_ls_shift/su_mean         0.000
_refine_ls_structure_factor_coef Fsqd
_refine_ls_weighting_details
'w=1/[\s^2^(Fo^2^)+(0.0161P)^2^+2.6130P] where P=(Fo^2^+2Fc^2^)/3'
_refine_ls_weighting_scheme      calc
_refine_ls_wR_factor_gt          0.0556
_refine_ls_wR_factor_ref         0.0556
_reflns_Friedel_coverage         0.000
_reflns_number_gt                2213
_reflns_number_total             2213
_reflns_threshold_expression     'I > 2\s(I)'
_cod_data_source_file            d1dt02977k2.cif
_cod_data_source_block           1
_cod_database_code               7708824
_shelx_shelxl_version_number     2018/3
_shelx_space_group_comment
;
The symmetry employed for this shelxl refinement is uniquely defined
by the following loop, which should always be used as a source of
symmetry information in preference to the above space-group names.
They are only intended as comments.
;
_shelx_estimated_absorpt_t_min   0.113
_shelx_estimated_absorpt_t_max   0.446
_shelx_res_file
;
TITL compound 1 in P-1
    1.res
    created by SHELXL-2018/3 at 14:51:44 on 20-Aug-2021
CELL  1.34139   5.0269   9.5081  10.7340  101.058   95.038  104.950
ZERR    1.000   0.0002   0.0004   0.0005    0.001    0.001    0.001
LATT 1
SFAC C  H  O  P  U
UNIT 16  16  12  2  1
OMIT     1  -5  10
OMIT    -5  -1   7
OMIT    -5  -1   8
OMIT    -4   4   7
OMIT    -4  -3   6
L.S. 10
ACTA
BOND $H
FMAP 2
PLAN 5
HTAB O5 O2_$1
HTAB O3 O4_$1
EQIV $1 -x+1, -y+1, -z+1
SIZE 0.2 0.05 0.05
CONF
TEMP -80.160
WGHT    0.016100    2.613000
FVAR       0.86384
U1    5    1.000000    0.500000    0.000000    10.50000    0.00885    0.00872 =
         0.00707    0.00100    0.00150    0.00395
P1    4    0.487501    0.406894    0.199249    11.00000    0.01030    0.01083 =
         0.00809    0.00169    0.00128    0.00275
O1    3    0.636748    0.369500    0.085713    11.00000    0.01092    0.01666 =
         0.01074    0.00216    0.00680    0.00343
O2    3    0.303379    0.509709    0.181487    11.00000    0.01454    0.01318 =
         0.01330    0.00107    0.00052    0.00536
O3    3    0.717438    0.482819    0.317030    11.00000    0.01368    0.01667 =
         0.01211   -0.00153    0.00062    0.00445
AFIX   3
H3    2    0.643211    0.505459    0.382278    11.00000   -1.50000
AFIX   0
O4    3    0.384882    0.325248    0.501200    11.00000    0.03024    0.02564 =
         0.01528   -0.00220    0.00308    0.01539
O5    3    0.764610    0.283743    0.592515    11.00000    0.02390    0.02613 =
         0.01662   -0.00799   -0.00457    0.00952
AFIX   3
H5    2    0.738255    0.343099    0.655862    11.00000   -1.50000
AFIX   0
O6    3    0.950106    0.670121    0.077977    11.00000    0.01439    0.01601 =
         0.01725    0.00233    0.00387    0.00273
C1    1    0.268978    0.238538    0.227594    11.00000    0.01110    0.01400 =
         0.01475    0.00188    0.00148   -0.00014
AFIX  23
H1A   2    0.165904    0.264066    0.299119    11.00000   -1.20000
H1B   2    0.130929    0.187094    0.150104    11.00000   -1.20000
AFIX   0
C2    1    0.431865    0.132930    0.260305    11.00000    0.01211    0.00964 =
         0.01401    0.00559    0.00425    0.00036
C3    1    0.443098    0.015435    0.162495    11.00000    0.02326    0.01846 =
         0.01203    0.00110    0.00178    0.00480
AFIX  43
H3A   2    0.337372    0.000258    0.080789    11.00000   -1.20000
AFIX   0
C4    1    0.601898   -0.079236    0.180193    11.00000    0.02752    0.01206 =
         0.02062    0.00080    0.00751    0.00533
AFIX  43
H4    2    0.604843   -0.157914    0.111271    11.00000   -1.20000
AFIX   0
C5    1    0.757534   -0.059865    0.298510    11.00000    0.02091    0.01744 =
         0.02209    0.00532    0.00484    0.00817
AFIX  43
H5A   2    0.871137   -0.123307    0.310818    11.00000   -1.20000
AFIX   0
C6    1    0.745127    0.053141    0.398421    11.00000    0.01931    0.01527 =
         0.01740    0.00601    0.00183    0.00607
AFIX  43
H6    2    0.848871    0.065676    0.480106    11.00000   -1.20000
AFIX   0
C7    1    0.583433    0.149040    0.381678    11.00000    0.01545    0.01284 =
         0.01223    0.00268    0.00507    0.00251
C8    1    0.567193    0.261804    0.495578    11.00000    0.01679    0.01130 =
         0.01429    0.00282    0.00410    0.00272
HKLF 4




REM  compound 1 in P-1
REM wR2 = 0.0556, GooF = S = 1.092, Restrained GooF = 1.092 for all data
REM R1 = 0.0221 for 2213 Fo > 4sig(Fo) and 0.0221 for all 2213 data
REM 142 parameters refined using 0 restraints

END

WGHT      0.0159      2.6371

REM Highest difference peak  1.216,  deepest hole -2.000,  1-sigma level  0.195
Q1    1   1.1479  0.6223  0.0873  11.00000  0.05    1.22
Q2    1   0.7807  0.3907  0.0289  11.00000  0.05    0.99
Q3    1   1.0710  0.5377 -0.0628  11.00000  0.05    0.93
Q4    1   1.0078  0.6019  0.1024  11.00000  0.05    0.86
Q5    1   1.0644  0.5669  0.1413  11.00000  0.05    0.85
;
_shelx_res_checksum              36712
_shelx_hkl_file
;
  -1   0   0   99.99   14.70
  -1   0   0  111.99    5.60
   1   0   0  110.39    5.60
   1   0   0  101.99    7.80
  -2   0   0 3695.43  192.88
  -2   0   0 3640.64  158.08
   2   0   0 3594.04  163.08
   2   0   0 3449.65  157.78
   2   0   0 3231.38  164.08
  -3   0   0 3258.57  195.98
  -3   0   0 3024.40  145.79
   3   0   0 3088.69  148.99
   3   0   0 3178.68  150.28
   3   0   0 3137.59  141.89
   3   0   0 3289.17  146.79
   3   0   0 3134.79  153.48
  -4   0   0 3531.95  172.88
   4   0   0 3782.42  178.48
   4   0   0 3559.84  182.88
   4   0   0 3992.30  178.88
   5   0   0 1015.40   63.69
   5   0   0 1381.46   82.09
   6   0   0  708.53   42.90
   6  -1   0 1979.90  100.79
   5  -1   0  439.16   32.10
   5  -1   0  446.96   27.30
   5  -1   0  414.46   33.40
  -5   1   0  422.06   27.70
   4  -1   0 2625.44  127.49
   4  -1   0 2787.02  133.69
   4  -1   0 2652.53  135.09
  -4   1   0 2615.74  127.99
   3  -1   0 2544.35  123.09
   3  -1   0 2728.43  125.79
   3  -1   0 2502.15  116.99
   3  -1   0 2555.24  125.89
  -3   1   0 2625.24  117.59
  -3   1   0 2526.25  163.68
  -3   1   0 2514.75  120.69
   2  -1   0 3316.67  158.48
   2  -1   0 3284.37  185.88
   2  -1   0 3824.02  159.98
   2  -1   0 3542.15  153.78
   2  -1   0 2943.31  156.68
  -2   1   0 3230.18  155.08
  -2   1   0 3546.75  185.78
  -2   1   0 3580.54  153.88
  -2  -1   0 3913.41  212.58
   2   1   0 4167.48  184.58
   2   1   0 3881.91  178.68
   2   1   0 3797.92  184.08
  -3  -1   0 3963.50  180.48
  -3  -1   0 3911.11  234.98
   3   1   0 3906.61  186.08
   3   1   0 3943.61  181.28
   3   1   0 4029.50  184.98
   3   1   0 3964.70  190.38
  -4  -1   0 2816.82  133.49
   4   1   0 2858.41  134.59
   4   1   0 2977.70  147.39
   4   1   0 2665.83  140.39
   4   1   0 3004.50  139.69
   5   1   0  611.64   35.20
   5   1   0  705.43   46.50
   6   1   0 1492.25   76.69
   6  -2   0 1859.61   87.99
   6  -2   0 1686.13   91.09
  -6   2   0 1440.16   79.19
   5  -2   0  568.04   39.70
   5  -2   0  563.54   39.10
   5  -2   0  589.04   35.00
  -5   2   0  585.24   36.30
   4  -2   0 2951.10  139.59
   4  -2   0 3043.30  146.59
   4  -2   0 2706.83  159.18
  -4   2   0 2969.40  140.59
   3  -2   0 2227.08  105.99
   3  -2   0 2107.09  101.69
   3  -2   0 2164.28  107.89
   3  -2   0 2299.27  110.89
  -3   2   0 2172.38  144.39
  -3   2   0 2199.18  105.09
  -3   2   0 2237.68  102.09
   2  -2   0 1724.73  115.89
   2  -2   0 1859.41   85.49
   2  -2   0 1815.72   88.49
  -2   2   0 1953.40  114.39
  -2   2   0 1950.60   85.59
  -2   2   0 1829.02   87.19
   1  -2   0 4092.09  188.88
   1   2   0 1278.37   64.19
   1   2   0 1387.86   62.99
  -2  -2   0 3361.26  188.58
   2   2   0 3535.15  154.48
   2   2   0 3172.78  158.08
   2   2   0 3286.17  151.78
   2   2   0 3311.97  156.88
  -3  -2   0 2894.81  192.08
   3   2   0 2902.21  138.39
   3   2   0 2977.00  146.69
   3   2   0 3098.59  149.19
   3   2   0 3093.09  142.09
   4   2   0 2292.97  112.79
   4   2   0 2238.58  119.29
   4   2   0 2297.27  108.29
   4   2   0 2311.87  121.19
   5   2   0  897.41   54.29
   5   2   0  829.32   43.60
   6  -3   0 1368.76   70.29
   6  -3   0 1193.48   63.09
  -6   3   0 1218.48   64.29
   5  -3   0  664.73   41.50
   5  -3   0  675.63   39.50
   5  -3   0  623.34   44.40
  -5   3   0  651.53   40.80
   4  -3   0 4114.59  186.48
   4  -3   0 3825.32  192.78
   4  -3   0 3882.11  187.18
   3  -3   0 2064.19  104.69
   3  -3   0 2116.89   95.79
   3  -3   0 1995.40  100.29
   3  -3   0 1876.91  102.29
  -3   3   0 2022.20  136.49
  -3   3   0 2079.79   98.79
  -3   3   0 2113.79   96.09
   2  -3   0 2453.15  121.79
   2  -3   0 2416.86  114.99
   2  -3   0 2379.16  170.78
   2  -3   0 2523.85  114.29
  -2   3   0 2422.96  115.89
  -2   3   0 2488.35  113.99
  -2   3   0 2707.73  144.69
   1  -3   0 3815.62  182.88
   1  -3   0 4075.59  200.88
   1  -3   0 3520.75  183.68
  -1   3   0 4315.47  180.28
   0  -3   0 2147.09  107.39
   0  -3   0 1940.71   96.59
   0  -3   0 2337.07   94.99
   0   3   0 2206.98   94.59
   0   3   0 1951.10   97.09
   0   3   0 1975.60   94.79
   1   3   0 2944.21  137.89
   1   3   0 3030.10  142.29
   1   3   0 3017.10  142.59
   1   3   0 3191.78  139.89
  -2  -3   0 1592.84  109.19
   2   3   0 1538.55   80.49
   2   3   0 1563.04   81.29
   2   3   0 1573.54   76.09
  -3  -3   0 3156.68  204.78
   3   3   0 3095.59  150.28
   3   3   0 3241.18  160.38
   3   3   0 3160.48  157.58
   3   3   0 3256.77  147.09
   4   3   0  759.02   49.70
   4   3   0  740.03   54.29
   4   3   0  700.13   41.70
   4   3   0  735.53   38.70
   5   3   0 1153.68   64.19
   6  -4   0  956.00   50.89
   6  -4   0  952.70   50.19
  -6   4   0  975.40   60.29
   5  -4   0 1139.89   63.49
   5  -4   0 1134.69   70.29
   5  -4   0 1172.98   62.39
  -5   4   0 1208.78   65.19
   4  -4   0 3544.45  169.88
   4  -4   0 3466.85  176.78
   4  -4   0 3599.24  167.28
  -4   4   0 3522.65  168.78
   3  -4   0 4957.80  243.18
   3  -4   0 5510.35  244.28
   3  -4   0 5256.27  251.67
  -3   4   0 5437.66  243.68
  -3   4   0 5406.06  246.38
  -3   4   0 5477.85  290.37
   2  -4   0  179.38   31.10
   2  -4   0  216.88   21.10
   2  -4   0  230.78   14.20
  -2   4   0  215.08   13.40
  -2   4   0  210.98   13.40
  -2   4   0  251.77   15.90
  -2   4   0  242.68   30.60
   1  -4   0 5732.63  280.27
   1  -4   0 5551.64  257.57
   1  -4   0 6024.80  261.77
  -1   4   0 5567.84  252.87
  -1   4   0 5065.69  253.57
   0  -4   0 3829.82  159.98
   0  -4   0 3418.06  165.08
   0  -4   0 3490.45  178.08
   0   4   0 3595.84  159.58
   0   4   0 3397.56  159.68
   0   4   0 3512.25  163.48
  -1  -4   0 3334.97  160.48
  -1  -4   0 3336.97  179.18
   1   4   0 3488.25  157.88
   1   4   0 3424.06  162.38
   1   4   0 3583.64  166.48
   1   4   0 3748.62  160.18
  -2  -4   0  867.81   74.29
   2   4   0  797.62   43.30
   2   4   0  843.42   41.10
   2   4   0  821.02   47.80
   2   4   0  803.22   50.49
   3   4   0 1676.33  100.09
   3   4   0 1872.51   95.59
   3   4   0 1769.82   88.19
   3   4   0 1797.82   84.79
   4   4   0 1388.56   71.39
   4   4   0 1418.36   79.19
   5   4   0  830.22   46.30
   6  -5   0  488.75   31.00
  -6   5   0  506.25   31.30
   5  -5   0 2935.81  136.49
   5  -5   0 2420.46  141.19
   5  -5   0 2763.72  142.29
   4  -5   0 1842.82   85.59
   4  -5   0 1727.63  100.09
   4  -5   0 1620.84   90.79
  -4   5   0 1821.02   90.69
   3  -5   0 4875.01  222.88
   3  -5   0 5028.20  237.88
  -3   5   0 5184.48  228.68
  -3   5   0 4492.25  223.58
  -3   5   0 5031.70  270.17
   2  -5   0 1266.77   72.59
   2  -5   0 1264.67   60.79
  -2   5   0 1187.58   59.89
  -2   5   0 1278.47   62.39
  -2   5   0 1234.98   84.29
  -2   5   0 1229.48   60.89
   1  -5   0 5059.59  234.38
   1  -5   0 5102.39  228.68
   1  -5   0 4442.06  257.17
   1  -5   0 5248.67  240.48
  -1   5   0 5409.96  230.98
  -1   5   0 5107.69  227.98
  -1   5   0 4931.11  228.58
  -1   5   0 5072.99  255.57
   0  -5   0 4254.77  219.58
   0  -5   0 4768.12  199.18
   0  -5   0 4220.78  207.98
   0   5   0 4333.27  198.48
   0   5   0 4450.65  203.88
  -1  -5   0 3228.08  159.68
  -1  -5   0 3174.88  169.78
   1   5   0 3349.86  157.98
   1   5   0 3673.13  162.88
   1   5   0 3468.95  153.58
  -2  -5   0  553.64   56.89
   2   5   0  563.54   29.70
   2   5   0  595.44   41.80
   2   5   0  573.54   36.20
   3   5   0 2906.71  141.49
   3   5   0 2691.93  151.58
   3   5   0 2919.01  131.89
   4   5   0  689.13   41.60
   4   5   0  669.83   34.40
   6  -6   0  579.74   36.30
  -6   6   0  546.55   33.30
   5  -6   0 2581.84  145.09
   5  -6   0 2710.93  134.89
  -5   6   0 2667.63  130.89
   4  -6   0  730.13   51.19
   4  -6   0  772.12   57.99
  -4   6   0  848.12   47.30
   3  -6   0 3471.35  178.08
  -3   6   0 3270.97  161.98
  -3   6   0 3706.83  166.28
  -3   6   0 3562.84  209.98
   2  -6   0 2299.07  120.09
  -2   6   0 2285.67  140.09
  -2   6   0 2218.18  105.49
  -2   6   0 2035.80  104.79
   1  -6   0 4683.53  219.78
   1  -6   0 4302.57  242.18
  -1   6   0 4712.83  209.08
  -1   6   0 4329.97  203.98
   0  -6   0 2411.56  142.49
   0  -6   0 2480.75  120.89
   0  -6   0 2664.63  131.59
   0   6   0 2676.63  119.49
   0   6   0 2792.72  127.09
  -1  -6   0 2502.05  143.39
  -1  -6   0 2385.56  123.69
   1   6   0 2658.03  127.49
   1   6   0 2402.86  119.09
   1   6   0 2645.94  116.19
   2   6   0 1243.58   59.59
   2   6   0 1281.57   74.99
   2   6   0 1183.28   64.89
   3   6   0 2762.62  148.79
   3   6   0 3106.09  187.68
   3   6   0 3284.77  143.29
   4   6   0  483.75   30.50
   4   6   0  570.24   42.80
   6  -7   0  325.97   31.20
  -6   7   0  407.66   24.30
   5  -7   0 1617.84   88.99
  -5   7   0 1527.55   80.29
   4  -7   0 1310.47   81.79
   4  -7   0 1406.06   92.99
  -4   7   0 1397.56   72.59
   3  -7   0 2711.73  144.89
  -3   7   0 2789.22  129.69
  -3   7   0 2563.24  127.39
   2  -7   0  901.41   59.79
  -2   7   0  828.42   45.50
  -2   7   0  813.82   42.90
  -2   7   0  762.42   74.59
   1  -7   0 3735.53  188.68
  -1   7   0 3765.72  177.48
   0  -7   0 2235.18  121.69
   0   7   0 2468.15  122.09
   0   7   0 2326.27  108.69
  -1  -7   0 2260.77  118.69
   1   7   0 2449.05  110.49
   1   7   0 2413.86  122.79
   2   7   0  590.14   30.90
   2   7   0  574.84   44.20
   3   7   0 2879.91  147.39
   3   7   0 2700.53  127.99
   5  -8   0  833.22   57.99
  -5   8   0  930.81   48.90
   4  -8   0 1230.48   89.09
  -4   8   0 1194.48   74.39
   3  -8   0 1911.91  108.79
  -3   8   0 1829.82   89.89
  -3   8   0 1747.43   90.59
   2  -8   0 1825.92  104.39
  -2   8   0 1699.43   83.59
  -2   8   0 1745.23   89.19
   1  -8   0  971.60   65.49
  -1   8   0 1023.40   57.39
   0  -8   0 2378.06  126.29
   0   8   0 2392.66  122.09
  -1  -8   0  995.10   60.29
   1   8   0 1130.29   66.89
   1   8   0 1085.09   52.89
   2   8   0 1287.07   62.99
   2   8   0 1328.27   78.49
   3   8   0 1020.30   62.19
   5  -9   0  601.34   47.30
  -5   9   0  751.62   38.30
   4  -9   0 2231.88  119.99
  -4   9   0 2123.09  104.79
   3  -9   0 1573.44   94.49
  -3   9   0 1511.65   74.49
  -3   9   0 1463.65   77.69
   2  -9   0  604.14   50.09
  -2   9   0  635.14   39.50
   1  -9   0 1602.94   95.19
  -1   9   0 1589.94   86.29
   0  -9   0 2519.15  133.69
   0   9   0 2580.84  131.79
   1   9   0  477.65   37.70
   2   9   0 1110.19   66.99
   5 -10   0  538.75   49.40
   4 -10   0 1800.22  113.79
  -4  10   0 1700.23   89.49
   3 -10   0 1237.08   76.59
  -3  10   0 1105.39   62.39
   2 -10   0 1426.76   86.09
  -2  10   0 1279.07   72.99
   1 -10   0 1817.72  102.69
  -1  10   0 1733.63   94.99
   0 -10   0 1426.06   81.19
   0  10   0 1470.55   83.09
   1  10   0  322.07   28.20
   2  10   0 1423.16   77.79
   4 -11   0 2194.08  113.19
   2 -11   0 1570.44   90.59
  -2  11   0 1521.65   88.09
   1 -11   0 1082.09   66.59
  -1  11   0 1058.19   62.69
   0 -11   0 1858.41   96.19
   0  11   0 1905.61   99.69
   1  11   0  250.07   23.50
   3 -12   0  368.46   37.10
   2 -12   0 1446.96   79.79
   1 -12   0  561.94   36.30
  -1  12   0  531.05   34.70
  -1  12  -1 1160.08   69.09
   1 -12   1 1291.67   75.29
   2 -12   1  791.42   49.60
   3 -12   1 1275.97   71.49
   1  11  -1 1064.59   61.49
   0  11  -1  888.81   55.19
   0 -11   1  810.92   49.30
  -1  11  -1 1324.27   73.89
   1 -11   1 1343.87   77.39
  -2  11  -1  954.00   61.39
   3 -11   1  884.51   61.29
   4 -11   1 1450.95   79.09
   2  10  -1  888.61   53.89
   1  10  -1  576.94   41.50
   0  10  -1 2625.94  130.99
   0 -10   1 2392.66  128.09
  -1  10  -1  290.07   26.00
   1 -10   1  278.97   29.10
  -2  10  -1 2230.88  117.19
   2 -10   1 2458.35  130.19
   3 -10   1  835.92   58.49
  -4  10  -1 2081.69   97.69
   4 -10   1 1976.60  111.99
   5 -10   1  736.23   47.80
   3   9  -1  520.15   36.40
   2   9  -1 1706.63   94.99
   1   9  -1  779.72   52.09
  -1  -9   1  722.33   44.30
   0   9  -1  990.60   58.89
   0  -9   1  875.21   58.19
  -1   9  -1 1547.45   84.29
   1  -9   1 1548.84   91.49
  -2   9  -1 2327.07  118.79
   2  -9   1 2460.05  132.79
  -3   9  -1  768.22   42.30
   3  -9   1  832.62   59.19
  -4   9  -1 1408.46   70.39
   4  -9   1 1374.76   81.99
  -5   9  -1  508.15   28.70
   5  -9   1  451.45   37.20
   3   8  -1  548.25   48.20
   2   8  -1 2279.57  123.29
   1   8  -1  693.13   47.30
  -1  -8   1  617.44   40.40
   0   8  -1 3776.42  177.68
   0  -8   1 3448.16  179.08
  -1   8  -1  604.64   38.80
   1  -8   1  602.04   45.80
  -2   8  -1 2488.75  119.69
  -2   8  -1 2609.24  125.49
   2  -8   1 2590.84  138.79
  -3   8  -1 1317.37   73.69
  -3   8  -1 1490.45   72.79
   3  -8   1 1542.05   89.69
  -4   8  -1 1170.38   68.09
   4  -8   1 1248.58   89.09
   4  -8   1 1121.09   83.19
  -5   8  -1  704.73   39.70
   5  -8   1  692.73   49.10
   4   7  -1 1379.86   81.69
   3   7  -1  792.12   41.30
   3   7  -1  878.91   59.69
   3   7  -1  883.71   56.59
   2   7  -1 2774.12  128.49
   2   7  -1 2807.12  146.09
   1   7  -1  911.71   55.39
   1   7  -1  872.11   42.40
  -1  -7   1  794.32   49.60
   0   7  -1 4345.27  201.08
   0  -7   1 4083.69  204.38
  -1   7  -1 2321.67  113.69
   1  -7   1 2313.57  122.79
  -2   7  -1 1718.93  135.09
  -2   7  -1 1912.51   95.69
  -2   7  -1 2013.80   93.69
   2  -7   1 2201.38  110.99
  -3   7  -1 2309.77  108.49
  -3   7  -1 2110.39  107.59
   3  -7   1 2285.67  122.79
  -4   7  -1 1143.99   59.19
   4  -7   1 1064.99   75.89
   4  -7   1 1037.30   65.99
  -5   7  -1 1519.25   76.79
   5  -7   1 1445.26   83.59
  -6   7  -1 1111.49   59.59
   6  -7   1 1273.67   72.89
   4   6  -1 1076.79   57.79
   4   6  -1 1068.89   78.59
   3   6  -1 1544.35   92.19
   3   6  -1 1439.46   79.69
   3   6  -1 1485.35   70.39
   2   6  -1 1345.27   78.99
   2   6  -1 1291.57   71.39
   2   6  -1 1361.86   63.49
   1   6  -1 3215.08  156.78
   1   6  -1 3466.85  149.99
   1   6  -1 3361.46  161.08
  -1  -6   1 3098.59  156.98
   0   6  -1 3714.93  159.98
   0   6  -1 3744.43  167.48
   0  -6   1 3421.66  170.38
   0  -6   1 3424.16  161.68
   0  -6   1 3256.07  190.68
  -1   6  -1 2833.42  133.39
  -1   6  -1 2959.60  137.79
   1  -6   1 2950.20  146.79
  -2   6  -1 3148.59  151.18
  -2   6  -1 3187.78  150.58
  -2   6  -1 3501.25  186.78
   2  -6   1 3238.68  151.88
   2  -6   1 3197.58  164.08
  -3   6  -1 2349.26  160.18
  -3   6  -1 2517.35  117.49
   3  -6   1 2384.16  126.99
  -4   6  -1 2491.75  119.09
   4  -6   1 2392.56  134.89
   4  -6   1 2327.07  122.29
  -5   6  -1 1463.15   74.59
   5  -6   1 1422.86   78.69
   5  -6   1 1357.46   86.69
  -6   6  -1  828.02   44.70
   6  -6   1  811.02   47.60
   5   5  -1  818.12   47.40
   4   5  -1  673.33   43.70
   3   5  -1 1793.32   92.79
   3   5  -1 1649.04  100.09
   3   5  -1 1655.83   79.79
   2   5  -1 1453.15   78.29
   2   5  -1 1490.05   82.89
   2   5  -1 1486.15   69.19
  -2  -5   1 1455.05  115.79
   1   5  -1 4310.57  191.38
   1   5  -1 4418.66  198.18
   1   5  -1 4408.96  200.88
  -1  -5   1 4139.89  217.28
  -1  -5   1 3927.11  197.08
   0   5  -1 1512.45   73.79
   0   5  -1 1475.25   68.29
   0  -5   1 1482.35   69.99
   0  -5   1 1365.46   90.49
   0  -5   1 1432.66   76.79
   0  -5   1 1558.74   68.79
  -1   5  -1 2718.33  131.59
  -1   5  -1 2930.81  131.69
  -1   5  -1 2795.02  133.79
  -1   5  -1 2676.33  161.18
   1  -5   1 2919.01  142.29
   1  -5   1 3067.79  214.28
   1  -5   1 3039.60  132.39
  -2   5  -1 4369.36  211.88
  -2   5  -1 4330.47  212.08
  -2   5  -1 4971.00  244.28
  -2   5  -1 4695.23  213.98
   2  -5   1 4725.33  223.88
   2  -5   1 4893.21  213.08
  -3   5  -1 3851.71  177.58
  -3   5  -1 3710.73  216.78
   3  -5   1 3692.73  184.08
   3  -5   1 3862.91  172.98
  -4   5  -1 1285.57   65.99
   4  -5   1 1155.28   74.39
   4  -5   1 1139.79   64.89
   4  -5   1 1241.48   63.29
   4  -5   1 1245.38   68.39
   5  -5   1 2435.06  123.29
   5  -5   1 2014.10  113.39
  -6   5  -1  733.63   41.30
   6  -5   1  741.03   42.20
   5   4  -1  762.22   44.80
   4   4  -1  739.23   38.10
   4   4  -1  676.73   61.39
   4   4  -1  847.42   58.29
   3   4  -1 2801.82  136.29
   3   4  -1 2661.53  125.89
   3   4  -1 2544.75  122.49
   3   4  -1 2625.34  140.49
  -3  -4   1 2654.23  190.58
   2   4  -1  952.00   56.59
   2   4  -1  925.21   46.30
   2   4  -1  991.70   55.29
   2   4  -1  982.70   48.90
  -2  -4   1  979.50   87.39
   1   4  -1 5502.75  246.58
   1   4  -1 5665.43  253.07
   1   4  -1 5626.24  254.07
  -1  -4   1 4910.21  250.47
  -1  -4   1 5770.02  245.18
   0   4  -1  282.87   18.70
   0   4  -1  302.47   15.40
   0  -4   1  295.47   29.70
   0  -4   1  272.17   21.80
   0  -4   1  307.07   15.70
   0  -4   1  298.57   16.60
  -1   4  -1 3837.42  181.48
  -1   4  -1 4237.68  183.98
  -1   4  -1 3742.73  182.28
  -1   4  -1 4316.47  202.78
   1  -4   1 4248.77  181.88
   1  -4   1 3756.82  212.68
   1  -4   1 3925.41  189.68
  -2   4  -1 4682.33  215.68
  -2   4  -1 4532.45  217.48
  -2   4  -1 4870.01  246.18
   2  -4   1 4723.73  224.28
   2  -4   1 4580.34  215.98
   2  -4   1 5147.19  216.28
  -3   4  -1 3022.30  141.59
  -3   4  -1 3035.70  181.48
  -3   4  -1 2948.00  138.69
   3  -4   1 3037.60  149.69
   3  -4   1 3151.18  139.49
   3  -4   1 2698.43  138.59
  -4   4  -1 1003.90   53.69
   4  -4   1  958.20   58.19
   4  -4   1  957.60   54.59
   4  -4   1  884.21   59.29
  -5   4  -1 2678.83  128.69
   5  -4   1 2520.25  135.89
   5  -4   1 2675.23  126.59
   5  -4   1 2531.75  128.09
  -6   4  -1  816.92   43.90
   6  -4   1  782.02   43.80
   6  -4   1  798.42   43.00
   5   3  -1 1460.45   80.49
   4   3  -1 1237.98   63.79
   4   3  -1 1438.36   79.69
   4   3  -1 1320.87   72.19
   4   3  -1 1323.17   82.79
   3   3  -1 3313.57  161.38
   3   3  -1 3126.09  147.49
   3   3  -1 3194.38  150.58
   3   3  -1 3265.97  160.58
  -3  -3   1 3185.78  213.38
   2   3  -1  673.83   33.90
   2   3  -1  712.23   41.90
   2   3  -1  687.93   35.90
   2   3  -1  713.83   41.70
  -2  -3   1  673.53   67.79
   1   3  -1 5218.38  231.78
   1   3  -1 4956.20  234.38
   1   3  -1 4932.81  226.18
  -1  -3   1 5082.39  225.38
   0   3  -1 2042.30   98.59
   0  -3   1 2044.90   95.29
   0  -3   1 2228.28  137.29
   1  -3   1 6643.44  326.07
  -2   3  -1  528.05   29.30
  -2   3  -1  548.95   27.70
  -2   3  -1  587.94   50.79
   2  -3   1  529.15   55.39
   2  -3   1  538.95   32.80
   2  -3   1  528.85   28.40
   2  -3   1  528.85   27.90
  -3   3  -1 3813.72  174.78
  -3   3  -1 3774.62  216.58
  -3   3  -1 3582.94  171.58
   3  -3   1 3583.44  171.88
   3  -3   1 3872.31  175.08
   3  -3   1 3654.23  174.38
   3  -3   1 3964.10  182.68
  -4   3  -1  978.70   54.49
   4  -3   1 1011.30   54.99
   4  -3   1  967.20   57.89
   4  -3   1  998.70   60.89
  -5   3  -1 2356.36  114.89
   5  -3   1 2328.37  114.89
   5  -3   1 2359.86  115.99
   5  -3   1 2217.08  120.99
  -6   3  -1  609.54   34.00
   6  -3   1  623.04   35.80
   6  -3   1  589.34   34.00
   5   2  -1 2345.47  123.69
   4   2  -1 1098.59   68.19
   4   2  -1 1128.79   59.79
   4   2  -1 1164.28   56.59
   4   2  -1 1181.88   70.79
   3   2  -1 3483.55  168.38
   3   2  -1 3755.92  171.58
   3   2  -1 3856.91  178.48
   3   2  -1 3837.42  181.18
  -3  -2   1 3796.52  234.18
  -3  -2   1 3428.76  167.68
   2   2  -1 4797.82  229.28
   2   2  -1 4917.71  225.28
   2   2  -1 4812.82  221.38
   2   2  -1 4929.41  227.38
  -2  -2   1 5117.89  267.77
   1   2  -1  742.23   40.50
   1   2  -1  799.62   38.00
  -1  -2   1  795.82   36.00
  -1  -2   1  840.72   36.00
  -2   2  -1 1501.65   75.19
  -2   2  -1 1627.74  101.09
  -2   2  -1 1588.84   73.69
   2  -2   1 1610.14   73.89
   2  -2   1 1527.75   76.29
   2  -2   1 1568.24  105.69
   2  -2   1 1710.73   80.89
  -3   2  -1 2413.56  117.79
  -3   2  -1 2389.46  156.78
   3  -2   1 2368.46  119.99
   3  -2   1 2609.34  119.29
   3  -2   1 2662.13  124.69
  -4   2  -1 1269.47   67.59
   4  -2   1 1362.36   74.49
   4  -2   1 1281.57   70.69
  -5   2  -1 2172.18  106.99
   5  -2   1 2273.47  108.19
   5  -2   1 2160.38  114.19
   5  -2   1 2146.79  111.79
  -6   2  -1  613.84   33.80
   6  -2   1  647.84   38.00
   6  -2   1  643.74   34.80
   6   1  -1  679.73   41.90
   4   1  -1 1397.46   78.59
   4   1  -1 1472.75   70.19
   4   1  -1 1461.95   83.89
   4   1  -1 1419.46   73.89
  -4  -1   1 1448.06   71.29
   3   1  -1 2750.52  129.39
   3   1  -1 2899.21  128.39
   3   1  -1 2667.23  132.59
   3   1  -1 2753.52  136.89
  -3  -1   1 2761.02  182.18
  -3  -1   1 2583.84  126.09
   2   1  -1 3552.54  170.58
   2   1  -1 3938.71  164.58
   2   1  -1 3419.46  166.38
   2   1  -1 3509.25  173.08
   2   1  -1 3770.92  168.48
  -2  -1   1 3675.53  204.28
  -2  -1   1 3885.11  164.68
  -2   1  -1 1919.91  117.19
  -2   1  -1 1811.52   90.89
   2  -1   1 2012.20   92.49
   2  -1   1 1952.10   89.59
   2  -1   1 1863.71   93.79
   2  -1   1 2020.40  122.29
   2  -1   1 2149.88   95.89
  -3   1  -1 3940.01  196.48
  -3   1  -1 4222.48  241.98
   3  -1   1 4478.85  197.98
   3  -1   1 4131.29  193.18
   3  -1   1 4217.88  201.68
   3  -1   1 4736.23  203.98
  -4   1  -1 2509.45  121.09
   4  -1   1 2513.65  127.89
   4  -1   1 2555.24  122.59
   4  -1   1 2545.45  128.09
  -5   1  -1  744.63   42.70
   5  -1   1  766.42   48.60
   5  -1   1  827.22   44.40
   5  -1   1  736.43   57.89
   6  -1   1 1095.79   63.79
   6  -1   1 1356.76   67.59
   6   0  -1  872.81   52.29
   5   0  -1 1177.98   86.59
   5   0  -1 1264.17   63.49
  -5   0   1 1383.66   67.99
   4   0  -1 1447.86   70.59
   4   0  -1 1397.66   74.39
   4   0  -1 1453.35   82.29
  -4   0   1 1425.76   72.39
   3   0  -1 3173.18  156.68
   3   0  -1 3443.86  152.38
   3   0  -1 3256.47  145.09
   3   0  -1 3247.68  153.18
   3   0  -1 3043.20  148.19
  -3   0   1 3132.79  198.58
  -3   0   1 3099.59  148.49
  -3   0   1 3348.96  145.69
   2   0  -1 5938.51  287.37
   2   0  -1 6398.56  286.07
   2   0  -1 6216.18  283.27
  -2   0   1 6574.14  318.17
   2   0   1 6083.39  280.57
   2   0   1 6185.68  276.97
  -3   0  -1 3043.50  187.88
  -3   0  -1 2970.10  141.29
   3   0   1 2897.31  143.19
   3   0   1 3030.30  148.49
   3   0   1 3276.97  147.59
   3   0   1 3229.28  142.99
   3   0   1 2964.30  137.19
  -4   0  -1 2466.65  117.09
   4   0   1 2447.76  126.99
   4   0   1 2508.75  124.49
   4   0   1 2485.85  118.89
   5   0   1  686.83   56.89
   5   0   1  715.53   47.00
   5   0   1  724.63   39.80
   6   0   1 1951.50   97.09
   6  -1  -1 1221.68   70.39
   5  -1  -1  480.75   29.00
   5  -1  -1  487.65   38.00
   5  -1  -1  502.35   34.10
  -5   1   1  502.75   32.10
   4  -1  -1 2990.00  146.49
   4  -1  -1 3011.70  141.69
   4  -1  -1 3009.40  154.68
  -4   1   1 3009.40  143.69
   3  -1  -1 1942.41   92.69
   3  -1  -1 1916.41   88.79
   3  -1  -1 1797.12   93.89
   3  -1  -1 1884.61   85.29
  -3   1   1 1823.12  130.69
  -3   1   1 1759.22   89.29
  -3   1   1 1843.52   85.89
   2  -1  -1 3855.01  183.68
   2  -1  -1 3993.00  178.18
   2  -1  -1 3929.11  173.28
   2  -1  -1 3575.24  180.18
  -2   1   1 3732.63  173.68
  -2   1   1 4021.80  207.08
   1  -1  -1 2142.29  104.49
   1  -1  -1 2175.38  115.19
  -1   1   1 2266.87  114.89
  -1  -1  -1 2126.39  108.39
   1   1   1 1951.70   92.99
   1   1   1 2177.18   96.79
  -2  -1  -1 6208.18  295.07
   2   1   1 5657.53  260.97
   2   1   1 5617.04  262.77
   2   1   1 5630.74  265.57
  -3  -1  -1 2303.57  151.88
  -3  -1  -1 2244.78  104.69
   3   1   1 2229.08  106.69
   3   1   1 2254.97  114.09
   3   1   1 2400.96  111.39
   3   1   1 2133.39  109.69
  -4  -1  -1 2116.69  113.79
   4   1   1 2356.66  117.79
   4   1   1 2471.55  123.39
   4   1   1 2487.75  113.29
   5   1   1 1275.87   63.69
   5   1   1 1262.67   71.99
   6   1   1 1034.60   55.59
   6  -2  -1 1317.77   84.09
  -6   2   1 1635.74   74.89
   5  -2  -1  602.44   40.90
   5  -2  -1  597.74   35.50
   5  -2  -1  623.64   42.50
  -5   2   1  641.54   39.20
   4  -2  -1 2074.19  107.39
   4  -2  -1 2126.19  101.69
   4  -2  -1 2018.60  106.69
  -4   2   1 2108.99  103.39
   3  -2  -1 4321.57  199.68
   3  -2  -1 4314.77  202.78
   3  -2  -1 4503.75  204.78
   3  -2  -1 4386.36  195.98
  -3   2   1 4239.88  199.18
  -3   2   1 4094.99  196.38
  -3   2   1 4393.96  245.28
   2  -2  -1 1902.81   97.99
   2  -2  -1 1793.42   93.99
   2  -2  -1 2085.39  102.59
   2  -2  -1 2133.89   91.49
   2  -2  -1 1943.01  123.09
  -2   2   1 1997.50   93.09
  -2   2   1 1957.90  119.49
  -2   2   1 2078.49   91.59
   1  -2  -1  356.16   17.70
   1  -2  -1  325.47   29.70
   1  -2  -1  344.47   22.90
  -1   2   1  376.16   17.90
  -1   2   1  357.06   29.10
  -1  -2  -1 1119.49   62.49
   1   2   1  944.21   50.99
   1   2   1 1039.50   50.39
  -2  -2  -1 7436.36  366.76
   2   2   1 7572.94  338.37
   2   2   1 7187.98  338.57
  -3  -2  -1  364.66   48.50
   3   2   1  331.57   26.30
   3   2   1  343.57   20.90
   3   2   1  335.27   23.60
   3   2   1  332.37   26.80
   4   2   1 2474.85  125.89
   4   2   1 2375.76  115.19
   5   2   1 1314.87   65.49
   5   2   1 1360.66   73.59
   6  -3  -1 1651.93   87.89
  -6   3   1 1790.72   97.39
   5  -3  -1  936.81   52.09
   5  -3  -1  912.91   57.59
   5  -3  -1  968.80   55.49
  -5   3   1  996.40   55.89
   4  -3  -1 3638.04  186.28
   4  -3  -1 3908.51  180.98
   4  -3  -1 3890.01  183.38
  -4   3   1 3884.71  195.38
   3  -3  -1 1354.06   73.39
   3  -3  -1 1246.88   71.49
   3  -3  -1 1376.66   69.19
  -3   3   1 1365.16   68.39
  -3   3   1 1381.56   65.89
  -3   3   1 1398.16  104.39
   2  -3  -1 3960.50  183.68
   2  -3  -1 3514.95  206.58
   2  -3  -1 3609.84  180.28
   2  -3  -1 3759.82  170.98
  -2   3   1 3777.42  171.18
  -2   3   1 3814.22  172.98
  -2   3   1 3896.61  201.58
   1  -3  -1 2371.66  132.99
   1  -3  -1 2608.74  114.79
   1  -3  -1 2522.05  121.79
  -1   3   1 2340.77  114.29
  -1   3   1 2538.65  116.09
  -1   3   1 2747.72  129.99
  -1   3   1 2503.45  114.59
   0  -3  -1 5158.88  236.08
  -1  -3  -1  908.71   55.19
   1   3   1  831.12   41.10
   1   3   1  885.91   45.80
   1   3   1  795.62   43.80
   1   3   1  864.51   43.30
  -2  -3  -1 3494.55  189.28
   2   3   1 3285.57  165.18
   2   3   1 3306.67  162.88
   2   3   1 3634.74  160.68
   2   3   1 3452.65  157.38
  -3  -3  -1  963.30   86.29
   3   3   1  988.40   53.89
   3   3   1 1031.10   56.99
   3   3   1  990.70   61.69
   4   3   1 1806.12   86.79
   4   3   1 1658.43  100.29
   4   3   1 1765.92   91.29
   4   3   1 1927.21   96.69
   5   3   1  704.33   35.90
   6  -4  -1 1307.87   65.89
   5  -4  -1 1464.55   77.29
   5  -4  -1 1488.05   77.09
   5  -4  -1 1389.46   83.99
  -5   4   1 1610.54   81.29
   4  -4  -1 3584.74  169.08
   4  -4  -1 3496.35  177.88
  -4   4   1 3656.43  171.58
   3  -4  -1 1505.65   75.49
   3  -4  -1 1485.55   74.79
   3  -4  -1 1576.94   85.89
  -3   4   1 1596.94   78.19
  -3   4   1 1606.94  114.19
  -3   4   1 1556.14   75.19
   2  -4  -1 4959.60  218.88
   2  -4  -1 4886.91  230.98
   2  -4  -1 4552.14  258.77
   2  -4  -1 4506.95  229.18
  -2   4   1 4818.72  221.08
  -2   4   1 4688.43  219.88
  -2   4   1 5182.88  249.58
   1  -4  -1 4566.04  216.48
   1  -4  -1 4523.95  218.08
   1  -4  -1 4257.57  229.58
   1  -4  -1 4913.41  207.78
  -1   4   1 4586.24  209.18
  -1   4   1 4773.52  207.58
  -1   4   1 4737.93  220.98
  -1   4   1 4371.06  207.18
   0  -4  -1 5318.07  222.18
   0  -4  -1 4685.73  231.78
   0  -4  -1 4988.00  227.98
   0  -4  -1 4906.41  230.38
   0   4   1 4874.61  221.88
   0   4   1 4880.51  225.58
  -1  -4  -1 1038.90   57.79
  -1  -4  -1 1118.49   64.69
  -1  -4  -1 1011.10   54.99
  -1  -4  -1  995.00   62.39
   1   4   1 1173.68   57.49
   1   4   1 1064.59   53.99
   1   4   1 1043.20   50.89
   1   4   1 1096.79   53.49
  -2  -4  -1 2558.44  145.09
   2   4   1 2590.04  118.09
   2   4   1 2455.45  128.59
   2   4   1 2540.45  123.49
   3   4   1 1581.44   79.89
   3   4   1 1570.24   83.59
   3   4   1 1552.94   76.09
   4   4   1 1250.97   66.29
   4   4   1 1254.47   61.89
   4   4   1 1262.07   68.79
   5   4   1  624.64   35.40
   6  -5  -1 1511.85   77.09
  -6   5   1 1531.25   79.59
   5  -5  -1  716.43   42.60
   5  -5  -1  603.14   46.70
   5  -5  -1  626.64   48.30
   4  -5  -1 3443.66  153.38
   4  -5  -1 3164.98  163.08
   4  -5  -1 3272.77  168.78
  -4   5   1 3458.75  159.58
  -4   5   1 3098.09  152.88
   3  -5  -1 2120.69  119.09
  -3   5   1 2299.07  109.19
  -3   5   1 2324.27  146.79
  -3   5   1 2163.08  105.09
   2  -5  -1 4569.34  233.78
   2  -5  -1 5035.60  222.28
   2  -5  -1 4825.12  236.38
  -2   5   1 4837.42  227.68
  -2   5   1 4786.02  223.78
  -2   5   1 5327.47  252.27
  -2   5   1 4688.23  221.38
   1  -5  -1 3888.41  208.08
   1  -5  -1 3951.20  194.48
   1  -5  -1 4220.18  182.08
   1  -5  -1 3934.21  190.48
  -1   5   1 4536.35  196.08
  -1   5   1 3868.31  181.38
  -1   5   1 4028.30  181.68
  -1   5   1 3711.13  204.18
  -1   5   1 3833.22  182.08
   0  -5  -1 1251.07   71.09
   0  -5  -1 1280.57   66.79
   0  -5  -1 1287.67   71.29
   0   5   1 1309.37   61.09
   0   5   1 1374.26   66.29
  -1  -5  -1 5721.43  276.57
  -1  -5  -1 5690.63  273.77
   1   5   1 5621.74  268.67
   1   5   1 6220.28  266.77
   1   5   1 6298.27  275.37
   2   5   1 1208.28   63.79
   3   5   1 1798.52   92.29
   3   5   1 1939.91   86.79
   3   5   1 1673.23  104.59
   4   5   1  974.30   77.89
   4   5   1  947.61   52.19
   4   5   1  966.40   47.60
   6  -6  -1  548.25   42.90
  -6   6   1  674.53   37.20
   5  -6  -1 1409.86   88.19
   5  -6  -1 1464.65   79.49
  -5   6   1 1397.66   75.89
   4  -6  -1 1717.83  103.29
   4  -6  -1 1584.64   96.09
  -4   6   1 1787.72   88.89
   3  -6  -1 2694.03  143.89
  -3   6   1 2637.84  163.98
  -3   6   1 2636.54  126.29
  -3   6   1 2693.73  128.99
   2  -6  -1 2369.66  124.49
   2  -6  -1 2269.17  119.69
  -2   6   1 2341.97  109.09
  -2   6   1 2228.78  109.09
  -2   6   1 2167.18  130.49
   1  -6  -1 3381.56  159.28
   1  -6  -1 3182.28  178.28
   1  -6  -1 3367.96  165.78
  -1   6   1 2973.00  148.89
  -1   6   1 3448.05  154.38
   0  -6  -1 1921.11   99.99
   0  -6  -1 1974.00  107.49
   0   6   1 2149.78  102.19
   0   6   1 2163.88   95.49
  -1  -6  -1 3456.65  182.98
   1   6   1 4398.86  200.28
   1   6   1 3701.73  174.68
   2   6   1 1566.54   88.59
   2   6   1 1510.95   73.59
   3   6   1 1510.35   78.99
   3   6   1 1611.54   94.59
   3   6   1 1656.13   76.39
   4   6   1  791.22   39.30
  -6   7   1  498.65   29.60
   5  -7  -1 1549.05   88.19
  -5   7   1 1566.24   80.89
   4  -7  -1  757.72   66.09
   4  -7  -1  825.82   59.69
  -4   7   1  887.81   49.10
   3  -7  -1 3117.39  164.78
  -3   7   1 3062.99  218.88
  -3   7   1 3232.58  147.49
  -3   7   1 2878.21  146.29
   2  -7  -1 1330.77   81.89
  -2   7   1 1242.08   65.99
  -2   7   1 1259.17   63.59
   1  -7  -1 1966.50  105.49
   1  -7  -1 2076.59  114.49
  -1   7   1 2132.99  103.39
   0  -7  -1 1630.24   91.79
   0   7   1 1654.03   85.89
   0   7   1 1600.64   76.99
   1   7   1 3069.69  143.99
   1   7   1 3177.58  156.68
   2   7   1  944.91   48.50
   2   7   1 1003.30   63.19
   3   7   1 1751.02   99.69
   3   7   1 1826.92   84.49
   5  -8  -1 1628.94  105.69
  -5   8   1 2236.58   97.69
   4  -8  -1  673.33   55.19
  -4   8   1  666.83   40.00
   3  -8  -1 3218.08  164.18
  -3   8   1 2909.41  141.19
  -3   8   1 2847.71  142.89
   2  -8  -1  121.89   22.20
  -2   8   1  135.09   15.10
   1  -8  -1 4654.13  232.68
  -1   8   1 4584.64  219.68
   0  -8  -1 1095.79   68.89
   0   8   1 1117.39   64.39
   0   8   1 1061.09   54.19
  -1  -8  -1 1266.97   74.79
   1   8   1 1488.35   80.79
   1   8   1 1387.96   66.89
   2   8   1  480.65   37.90
   2   8   1  488.25   26.50
   3   8   1 1376.46   65.89
   3   8   1 1294.77   74.69
  -5   9   1 1238.68   62.19
   4  -9  -1  890.11   61.19
  -4   9   1  873.01   47.10
   3  -9  -1 2592.74  158.68
  -3   9   1 2475.55  124.29
   2  -9  -1 1603.74   98.29
  -2   9   1 1537.15   83.39
   1  -9  -1 1072.99   73.89
  -1   9   1 1171.48   65.69
   0  -9  -1 1368.26   97.19
   0   9   1 1737.23  107.39
   1   9   1 1346.87   78.49
   2   9   1  479.25   36.50
   5 -10  -1 1073.29   63.39
   4 -10  -1 1050.99   68.69
   3 -10  -1 1669.73   96.79
  -3  10   1 1511.15   81.59
   2 -10  -1 1457.65   89.49
  -2  10   1 1369.36   76.39
   1 -10  -1 1784.52  102.69
  -1  10   1 1745.53   95.19
   0 -10  -1 1019.70   62.59
   0  10   1 1048.60   62.99
   1  10   1 1120.99   69.89
   4 -11  -1 1017.20   68.49
   3 -11  -1 1298.27   77.89
   2 -11  -1 1050.09   76.69
  -2  11   1 1020.60   58.19
   1 -11  -1 1201.98   73.29
  -1  11   1 1313.97   75.59
   0 -11  -1 1222.98   67.69
   0  11   1 1200.08   68.49
   2 -12  -1 1189.78   76.69
   0  12  -2 1188.08   73.29
  -1  12  -2  855.51   52.19
   1 -12   2  940.91   52.99
   2 -12   2 1180.28   67.49
   3 -12   2 1334.97   73.19
   1  11  -2 2322.97  119.09
   0  11  -2  268.97   31.50
   0 -11   2  283.77   22.70
  -1  11  -2 1127.99   65.09
   1 -11   2 1157.78   68.09
  -2  11  -2  871.71   55.79
   2 -11   2 1108.59   64.69
   3 -11   2 2352.66  124.19
   4 -11   2  564.14   37.60
   2  10  -2  471.55   35.30
   1  10  -2 1089.29   66.49
   0  10  -2  816.92   52.69
   0 -10   2  792.62   50.59
  -1  10  -2 1748.23   94.39
   1 -10   2 1789.42   99.69
  -2  10  -2  944.21   55.39
   2 -10   2  987.20   64.69
   3 -10   2 1611.34   93.39
  -4  10  -2  881.11   46.60
   4 -10   2  856.51   69.89
   5 -10   2  968.90   57.39
   3   9  -2  403.76   31.10
   2   9  -2 1108.09   68.69
   1   9  -2 1366.26   78.39
  -1  -9   2 1246.58   69.29
   0   9  -2 1495.25   82.99
   0  -9   2 1418.86   81.89
  -1   9  -2 1216.18   69.49
   1  -9   2 1262.57   76.29
  -2   9  -2 1193.68   66.99
   2  -9   2 1285.17   78.49
  -3   9  -2 1448.36   74.19
   3  -9   2 1551.74   90.29
  -4   9  -2 1285.27   65.39
   4  -9   2 1284.47   75.69
  -5   9  -2  693.23   37.50
   5  -9   2  643.84   45.30
   3   8  -2  862.81   58.09
   2   8  -2 1452.65   86.29
   1   8  -2 1733.93   92.69
  -1  -8   2 1530.35   84.49
   0   8  -2 2385.06  123.49
   0  -8   2 2438.26  125.29
  -1   8  -2 1056.29   60.29
   1  -8   2 1086.09   67.29
  -2   8  -2 2831.12  139.69
  -2   8  -2 3033.20  144.79
   2  -8   2 3156.58  158.18
  -3   8  -2  809.92   43.80
   3  -8   2  802.62   56.29
   4  -8   2 2052.29  124.09
  -5   8  -2  536.05   32.10
   5  -8   2  529.55   39.10
   4   7  -2 1317.97   77.19
   3   7  -2  405.06   38.20
   3   7  -2  420.66   29.60
   2   7  -2 2569.34  118.59
   2   7  -2 2496.85  127.29
   2   7  -2 2664.13  137.59
   1   7  -2 2503.05  121.89
   1   7  -2 2210.58  113.09
   1   7  -2 2338.27  107.39
  -1  -7   2 2225.58  114.99
   0   7  -2 3796.02  181.48
   0  -7   2 3749.02  183.98
  -1   7  -2  449.95   26.60
  -1   7  -2  535.65   32.00
   1  -7   2  496.75   37.40
  -2   7  -2 4481.85  213.78
  -2   7  -2 4666.73  211.48
   2  -7   2 4694.63  226.78
  -3   7  -2 2410.96  114.79
   3  -7   2 2351.66  126.59
  -4   7  -2 1803.02   88.69
   4  -7   2 1730.23   94.59
   4  -7   2 1721.53  106.59
  -5   7  -2  511.15   32.20
   5  -7   2  535.85   38.70
  -6   7  -2 1696.63   77.59
   6  -7   2 1383.26   89.19
   4   6  -2 1396.06   87.79
   4   6  -2 1422.96   85.49
   3   6  -2  892.81   54.89
   3   6  -2  871.41   63.19
   2   6  -2 2248.28  120.09
   2   6  -2 2220.18  102.99
   1   6  -2 2002.80  100.39
   1   6  -2 1894.11   95.69
   1   6  -2 1888.11   88.09
  -1  -6   2 1849.11   95.39
   0   6  -2 5396.46  250.47
   0   6  -2 5737.83  254.77
   0  -6   2 5321.47  256.37
   0  -6   2 5391.96  248.78
  -1   6  -2  396.86   22.80
  -1   6  -2  411.16   26.30
   1  -6   2  459.95   26.60
   1  -6   2  450.25   32.80
  -2   6  -2 6679.33  345.87
  -2   6  -2 6864.31  301.97
  -2   6  -2 6495.45  301.87
   2  -6   2 6451.15  312.97
   2  -6   2 6697.43  305.07
   2  -6   2 6670.33  302.17
  -3   6  -2 2550.44  160.38
  -3   6  -2 2321.57  120.19
   3  -6   2 2550.24  127.99
  -4   6  -2 1697.83   83.69
   4  -6   2 1675.63   89.69
   4  -6   2 1646.64  105.09
   4  -6   2 1530.75   85.29
  -5   6  -2 1285.47   66.29
   5  -6   2 1244.48   70.09
   5  -6   2 1188.98   78.89
  -6   6  -2 1593.84   79.19
   6  -6   2 1598.24   82.09
   5   5  -2  161.08   15.10
   4   5  -2 1620.44  109.49
   4   5  -2 2105.49  102.39
   3   5  -2  851.01   52.69
   3   5  -2  762.72   38.80
   3   5  -2  787.32   57.49
   2   5  -2 2307.37  118.99
   2   5  -2 2358.66  115.89
   2   5  -2 2334.37  104.09
  -2  -5   2 2463.25  170.18
  -2  -5   2 1916.01  107.29
   1   5  -2 1361.46   70.79
   1   5  -2 1301.87   68.39
   1   5  -2 1336.77   60.99
  -1  -5   2 1238.88   66.59
   0   5  -2 3673.53  167.78
   0   5  -2 3431.76  164.78
   0  -5   2 3836.02  162.28
   0  -5   2 3465.05  192.78
   0  -5   2 3527.75  164.58
   0  -5   2 3471.55  169.58
  -1   5  -2 2910.31  136.49
  -1   5  -2 2860.31  134.09
   1  -5   2 3083.89  134.79
   1  -5   2 2897.41  136.39
   1  -5   2 2785.82  177.88
   1  -5   2 3039.20  148.49
  -2   5  -2 4241.78  193.48
  -2   5  -2 4227.48  224.98
  -2   5  -2 3733.23  191.48
   2  -5   2 4387.56  202.58
   2  -5   2 4480.65  193.38
  -3   5  -2 2550.14  159.98
  -3   5  -2 2533.85  120.79
   3  -5   2 2547.15  126.19
   3  -5   2 2422.26  131.19
  -4   5  -2 1391.76   72.29
   4  -5   2 1391.96   76.09
   4  -5   2 1402.66   68.99
   4  -5   2 1335.67   82.29
  -5   5  -2 2154.48  104.09
   5  -5   2 1985.90  105.59
  -6   5  -2 1631.94   80.19
   6  -5   2 1591.94   81.49
   5   4  -2 1085.39   61.49
   4   4  -2 1823.32   99.49
   4   4  -2 1739.33  107.09
   3   4  -2  607.64   31.40
   3   4  -2  645.44   47.40
   3   4  -2  638.34   44.20
  -3  -4   2  647.44   86.49
   2   4  -2 2326.87  112.89
   2   4  -2 2312.47  113.79
   2   4  -2 2141.49  101.19
  -2  -4   2 2097.69  103.79
   1   4  -2 3811.82  180.08
   1   4  -2 3983.60  187.38
   1   4  -2 4120.29  188.48
  -1  -4   2 3787.02  184.68
  -1  -4   2 4338.67  180.18
   0   4  -2 2715.53  125.69
   0   4  -2 2491.65  123.49
   0  -4   2 2841.02  121.59
   0  -4   2 2650.83  122.79
   0  -4   2 2627.74  127.39
   0  -4   2 2701.93  147.59
  -1   4  -2  513.75   27.00
  -1   4  -2  557.94   47.70
  -1   4  -2  490.85   27.80
   1  -4   2  493.35   32.50
   1  -4   2  541.85   28.50
   1  -4   2  531.05   54.99
   1  -4   2  554.54   27.20
  -2   4  -2 5141.19  251.47
  -2   4  -2 5694.93  280.97
   2  -4   2 5768.62  256.37
   2  -4   2 5392.06  249.18
  -3   4  -2 2216.58  144.89
  -3   4  -2 2296.27  107.89
   3  -4   2 1964.70  107.29
   3  -4   2 2340.77  117.69
   3  -4   2 2331.77  105.79
  -4   4  -2 1401.56   73.29
   4  -4   2 1386.66   82.39
   4  -4   2 1414.66   75.39
   4  -4   2 1435.86   71.99
   5  -4   2 1450.05   92.59
   5  -4   2 1859.81   95.89
  -6   4  -2  959.20   50.49
   6  -4   2  969.20   51.49
   5   3  -2 1321.87   76.29
   4   3  -2 2585.04  139.99
   4   3  -2 2594.84  137.19
   3   3  -2 1305.17   73.29
   3   3  -2 1232.28   61.49
   3   3  -2 1233.98   59.49
   3   3  -2 1286.97   73.29
  -3  -3   2 1235.08  119.19
   2   3  -2 1826.32   91.79
   2   3  -2 1900.31   91.29
   2   3  -2 1669.03   81.19
   2   3  -2 1785.82   82.99
  -2  -3   2 1706.23   82.49
   1   3  -2 8494.35  385.26
   0   3  -2 1072.09   48.30
   0  -3   2  929.41   64.09
   0  -3   2  847.72   47.00
   0  -3   2  924.01   44.40
   0  -3   2  873.61   43.20
  -1   3  -2 3164.18  159.58
  -1   3  -2 2874.71  140.59
   1  -3   2 3277.27  140.29
   1  -3   2 2828.12  171.38
   1  -3   2 3300.77  141.69
  -2   3  -2 2329.37  112.19
  -2   3  -2 2470.15  139.59
   2  -3   2 2324.57  110.69
   2  -3   2 2340.77  153.48
   2  -3   2 2364.86  111.19
   2  -3   2 2377.66  114.79
   2  -3   2 2655.33  119.79
   2  -3   2 2366.56  112.19
  -3   3  -2 3035.70  184.58
  -3   3  -2 3044.60  144.59
   3  -3   2 3200.58  147.19
   3  -3   2 3105.49  144.69
   3  -3   2 3267.27  153.28
   3  -3   2 2814.32  142.89
  -4   3  -2 1116.99   59.89
   4  -3   2 1133.49   67.79
   4  -3   2 1128.49   61.49
   4  -3   2 1125.89   60.79
   5  -3   2 1688.73   96.79
   5  -3   2 1768.32   96.19
  -6   3  -2  619.84   35.10
   6  -3   2  660.13   35.90
   6  -3   2  633.64   36.30
   6   2  -2  549.25   37.40
   5   2  -2 2008.00  110.59
   4   2  -2 1807.22   97.89
   4   2  -2 1825.92  100.39
  -4  -2   2 1637.24   84.49
   3   2  -2 2224.08  109.59
   3   2  -2 2002.60   98.39
   3   2  -2 2188.78  100.99
   3   2  -2 2222.68  112.69
  -3  -2   2 2226.38  165.38
  -3  -2   2 1990.50   99.49
   2   2  -2 1643.74   71.59
   2   2  -2 1480.45   71.99
   2   2  -2 1557.04   81.29
   2   2  -2 1604.04   73.49
   2   2  -2 1613.44   79.59
  -2  -2   2 1641.04   71.19
  -2  -2   2 1456.15   72.39
   0   2  -2  137.79    8.20
   0  -2   2  130.29   21.20
   0  -2   2  136.99    8.30
   1  -2   2 5192.48  260.17
  -2   2  -2 3999.70  201.38
  -2   2  -2 3555.34  171.18
   2  -2   2 3415.66  169.78
   2  -2   2 3626.84  209.68
   2  -2   2 3886.51  170.98
   2  -2   2 3972.50  177.58
   2  -2   2 3747.02  172.18
   2  -2   2 3788.92  173.08
  -3   2  -2 3893.71  221.78
  -3   2  -2 3713.13  177.68
   3  -2   2 3625.54  175.08
   3  -2   2 3998.50  185.68
   3  -2   2 3831.12  179.88
   3  -2   2 3995.50  179.88
  -4   2  -2 1314.97   67.89
   4  -2   2 1348.57   69.69
   4  -2   2 1343.57   76.09
   4  -2   2 1297.37   70.99
   5  -2   2  817.32   63.89
   5  -2   2  858.71   53.69
   6  -2   2  823.32   46.50
   6  -2   2  888.81   44.90
   6   1  -2  342.87   26.90
   5   1  -2 1987.80  111.29
   4   1  -2 1313.37   66.19
   4   1  -2 1359.16   79.19
   4   1  -2 1385.46   69.39
   4   1  -2 1504.65   83.79
  -4  -1   2 1362.16   69.69
   3   1  -2 3530.15  169.38
   3   1  -2 3499.45  165.68
   3   1  -2 3456.95  154.48
   3   1  -2 3273.97  156.38
   3   1  -2 3506.05  159.08
  -3  -1   2 3452.25  154.48
  -3  -1   2 3286.97  157.58
  -3  -1   2 3479.25  220.08
   2   1  -2 5563.74  251.27
   2   1  -2 5484.95  253.47
  -2  -1   2 5800.42  291.57
  -2  -1   2 5042.40  245.08
  -2  -1   2 5420.46  244.58
   1   1  -2 2922.11  139.99
  -1  -1   2 3110.29  135.79
  -2   1  -2 4611.84  226.48
  -2   1  -2 5241.88  257.07
   2  -1   2 4969.80  229.28
   2  -1   2 5333.37  226.08
   2  -1   2 5047.19  261.57
   2  -1   2 5038.60  228.08
   2  -1   2 4837.42  225.38
  -3   1  -2 4002.30  237.78
  -3   1  -2 4073.09  195.48
   3  -1   2 4123.39  192.78
   3  -1   2 4279.87  200.28
   3  -1   2 4698.83  203.98
   3  -1   2 4426.06  197.78
   4  -1   2  270.27   23.50
   4  -1   2  285.97   21.50
   4  -1   2  297.97   25.80
  -5   1  -2 3741.83  177.68
   5  -1   2 3858.91  181.08
   5  -1   2 3936.61  186.28
   6  -1   2  339.97   24.70
   6  -1   2  415.26   25.50
   6   0  -2  273.57   24.00
   5   0  -2 3175.08  184.38
  -5   0   2 3328.47  158.08
   4   0  -2  667.43   46.30
   4   0  -2  635.04   36.80
   4   0  -2  632.54   33.70
  -4   0   2  607.74   36.70
   3   0  -2 3065.39  140.39
   3   0  -2 3142.09  147.89
   3   0  -2 3094.19  138.39
   3   0  -2 3013.30  150.18
   3   0  -2 3188.38  143.39
  -3   0   2 3014.00  194.48
  -3   0   2 2898.31  142.49
  -3   0   2 3037.80  139.29
   2   0  -2 3096.69  144.49
   2   0  -2 3105.69  139.99
   2   0  -2 2902.21  133.49
   2   0  -2 2830.62  140.69
   2   0  -2 2999.60  136.09
  -2   0   2 2875.91  134.09
  -2   0   2 2931.91  169.78
   0   0  -2 1406.76   77.69
   0   0   2 1779.42   88.39
  -2   0  -2 4754.52  246.28
  -2   0  -2 4396.46  217.38
   2   0   2 4795.22  216.28
   2   0   2 4715.33  221.98
   2   0   2 5068.09  252.77
   2   0   2 4954.50  216.28
   2   0   2 5090.89  219.68
  -3   0  -2 4350.86  209.98
  -3   0  -2 4452.95  255.07
   3   0   2 4853.71  217.68
   3   0   2 4693.23  212.38
   3   0   2 4703.53  217.28
   4   0   2  919.71   54.59
   4   0   2  883.91   48.90
   4   0   2  886.81   53.69
   5   0   2 1785.32   91.09
   5   0   2 1903.41  103.39
   5   0   2 1876.41   97.39
   6   0   2 1265.27   64.39
   6  -1  -2  323.17   27.10
  -6   1   2  310.17   20.60
   5  -1  -2 2893.21  146.09
  -5   1   2 2688.23  136.39
   4  -1  -2 1235.38   61.39
   4  -1  -2 1219.38   64.99
   4  -1  -2 1184.78   72.89
  -4   1   2 1242.58   64.59
   3  -1  -2 2023.80  106.09
   3  -1  -2 2140.99   99.79
   3  -1  -2 2051.29   97.19
   3  -1  -2 2267.07  103.59
  -3   1   2 2147.19   98.69
  -3   1   2 2090.99  100.49
  -3   1   2 2104.19  145.49
   2  -1  -2 1480.55   80.39
   2  -1  -2 1669.63   75.79
   2  -1  -2 1751.02   87.59
   2  -1  -2 1736.83   79.89
  -2   1   2 1684.23  106.59
  -2   1   2 1678.43   76.49
  -2   1   2 1555.44   76.99
   1  -1  -2 5036.30  232.98
  -1  -1  -2 2069.09  103.49
  -1  -1  -2 2334.37  113.09
   1   1   2 2249.57  104.39
   1   1   2 2156.48  102.39
   1   1   2 2241.78  100.29
   1   1   2 2211.58  105.39
   1   1   2 2394.66  114.79
  -2  -1  -2 2980.60  153.28
  -2  -1  -2 3577.34  183.78
   2   1   2 3463.65  152.08
   2   1   2 3664.53  159.98
   2   1   2 3388.16  157.98
   2   1   2 3381.96  159.88
   2   1   2 3401.26  151.88
   2   1   2 3404.86  156.28
  -3  -1  -2 2752.82  128.99
  -3  -1  -2 2904.31  175.08
   3   1   2 2905.01  138.99
   3   1   2 2853.71  132.79
   3   1   2 2859.21  137.39
   3   1   2 2699.53  134.49
   4   1   2 1528.15   83.89
   4   1   2 1588.44   77.69
   4   1   2 1524.55   83.59
   5   1   2 1546.55   82.19
   5   1   2 1539.55   76.39
   6  -2  -2  899.31   53.39
  -6   2   2  794.32   46.60
   5  -2  -2 2211.68  113.09
   5  -2  -2 2058.69  102.09
  -5   2   2 2118.69  108.69
   4  -2  -2 2171.68  110.39
   4  -2  -2 2092.39  102.49
   3  -2  -2  954.40   54.49
   3  -2  -2  998.20   53.89
   3  -2  -2  891.31   52.49
   3  -2  -2  985.30   47.10
  -3   2   2  974.30   50.19
  -3   2   2  965.00   84.99
  -3   2   2  999.30   48.50
   2  -2  -2 3607.34  161.58
   2  -2  -2 3609.84  174.58
   2  -2  -2 3302.97  164.68
   2  -2  -2 3428.36  171.18
  -2   2   2 3747.73  162.28
  -2   2   2 3455.25  163.28
  -2   2   2 3819.02  195.58
   1  -2  -2 4482.55  208.58
   1  -2  -2 4250.67  207.28
  -1   2   2 4563.04  200.48
   0  -2  -2 2797.92  128.89
   0   2   2 2583.44  121.69
  -1  -2  -2 1099.99   53.29
  -1  -2  -2 1187.38   61.09
   1   2   2 1133.09   56.29
   1   2   2 1230.68   52.09
   1   2   2 1134.09   56.19
   1   2   2 1101.19   54.29
  -2  -2  -2 2788.52  153.38
   2   2   2 2841.82  129.99
   2   2   2 2956.10  133.59
   2   2   2 2761.62  145.79
   2   2   2 2705.13  134.79
  -3  -2  -2 2680.53  168.38
   3   2   2 2722.43  136.89
   3   2   2 2877.81  134.99
   3   2   2 2807.62  130.39
   3   2   2 2788.22  136.99
   4   2   2 1215.28   67.49
   4   2   2 1229.08   69.09
   4   2   2 1238.08   62.69
   5   2   2  861.71   44.90
   5   2   2  854.61   49.00
   6  -3  -2 1984.30   96.09
  -6   3   2 1848.52  104.49
   5  -3  -2 1175.78   65.39
   5  -3  -2 1123.49   60.09
   5  -3  -2 1095.29   65.49
  -5   3   2 1228.38   66.19
   4  -3  -2 2937.11  148.99
   4  -3  -2 3053.59  147.39
   4  -3  -2 2959.60  143.59
  -4   3   2 3096.99  146.19
   3  -3  -2 1566.74   84.79
   3  -3  -2 1569.34   78.59
   3  -3  -2 1497.75   74.09
   3  -3  -2 1646.34   93.39
  -3   3   2 1585.64   77.69
  -3   3   2 1549.54   75.49
  -3   3   2 1524.05  113.99
   2  -3  -2 5015.50  248.08
   2  -3  -2 5285.77  251.17
   2  -3  -2 5377.26  236.28
  -2   3   2 5056.99  236.38
  -2   3   2 5255.37  238.28
  -2   3   2 5362.66  267.67
   1  -3  -2 6727.43  303.87
   1  -3  -2 6402.66  302.87
  -1   3   2 6469.65  294.77
   0  -3  -2  723.53   41.70
   0  -3  -2  737.03   42.00
   0  -3  -2  777.92   35.50
   0   3   2  755.42   37.60
   0   3   2  786.92   38.30
   0   3   2  776.62   35.40
   0   3   2  674.63   35.70
  -1  -3  -2 1204.78   62.09
   1   3   2 1303.87   63.39
   1   3   2 1291.47   56.49
   1   3   2 1190.98   58.99
   1   3   2 1249.68   61.49
  -2  -3  -2 6242.98  308.57
   2   3   2 6356.56  272.67
   2   3   2 6167.08  268.77
   2   3   2 5757.32  272.77
   2   3   2 5086.09  275.37
   3   3   2  480.55   27.60
   3   3   2  492.05   32.70
   3   3   2  471.15   30.90
   3   3   2  422.66   36.60
   4   3   2 1533.55   88.99
   4   3   2 1393.06   80.69
   4   3   2 1770.62   85.09
   5   3   2  622.34   36.30
   5   3   2  654.43   33.30
   6  -4  -2 1340.27   71.39
  -6   4   2 1595.64   88.99
   5  -4  -2 1158.28   62.19
   5  -4  -2 1108.79   61.19
   5  -4  -2 1131.69   68.79
  -5   4   2 1226.68   66.39
   4  -4  -2 3587.64  179.48
   4  -4  -2 3322.37  174.88
   4  -4  -2 3749.43  171.28
  -4   4   2 3799.02  173.78
   3  -4  -2 1636.64   81.99
   3  -4  -2 1671.53   94.99
   3  -4  -2 1781.22  102.09
  -3   4   2 1599.64   84.79
  -3   4   2 1683.53  120.79
  -3   4   2 1810.12   85.39
   2  -4  -2 5603.94  271.87
   2  -4  -2 5661.03  257.47
   2  -4  -2 5796.92  273.57
  -2   4   2 5959.60  287.87
  -2   4   2 5404.06  257.07
   1  -4  -2 3463.65  175.68
   1  -4  -2 3545.85  164.48
   1  -4  -2 3840.02  176.88
  -1   4   2 3649.53  164.58
  -1   4   2 3852.21  166.98
  -1   4   2 3419.76  164.28
  -1   4   2 3512.85  165.88
  -1   4   2 3684.33  174.48
   0  -4  -2 3360.16  162.98
   0  -4  -2 3447.66  153.28
   0  -4  -2 3277.07  161.18
   0   4   2 3242.08  156.78
   0   4   2 3304.47  153.48
   0   4   2 3687.43  157.08
  -1  -4  -2 1306.47   69.79
  -1  -4  -2 1284.07   68.09
   1   4   2 1258.07   62.49
   1   4   2 1362.36   65.49
   1   4   2 1414.06   68.79
   1   4   2 1289.27   63.69
  -2  -4  -2 6370.86  309.87
   2   4   2 6748.02  296.87
   2   4   2 6357.56  307.67
   2   4   2 6882.41  300.97
   2   4   2 6361.36  299.87
   3   4   2  369.96   26.90
   3   4   2  424.46   32.90
   3   4   2  381.46   23.80
   4   4   2 1196.88   58.49
   4   4   2 1140.49   62.29
  -6   5   2 1247.68   66.99
   5  -5  -2 1141.89   73.79
  -5   5   2 1283.37   69.69
   4  -5  -2 3162.18  201.08
   4  -5  -2 3658.23  182.78
  -4   5   2 3860.71  172.98
   3  -5  -2  593.94   48.50
   3  -5  -2  546.55   45.00
  -3   5   2  547.65   58.69
  -3   5   2  597.24   35.10
   2  -5  -2 5299.17  257.27
   2  -5  -2 5308.37  241.38
   2  -5  -2 5116.49  257.47
  -2   5   2 5464.85  243.08
  -2   5   2 5511.45  243.88
  -2   5   2 5472.75  267.77
  -2   5   2 4931.71  240.98
   1  -5  -2 3653.23  183.38
   1  -5  -2 4294.87  174.18
   1  -5  -2 3382.46  178.48
  -1   5   2 3692.23  168.78
  -1   5   2 3846.42  172.48
  -1   5   2 3629.04  168.88
  -1   5   2 3420.56  169.28
   0  -5  -2 4227.48  198.38
   0  -5  -2 3834.02  192.98
   0   5   2 4234.78  191.08
   0   5   2 4076.39  185.48
  -1  -5  -2 1060.19   61.89
   1   5   2 1131.49   55.29
   1   5   2 1251.07   63.59
  -2  -5  -2 4007.50  199.68
   2   5   2 4520.05  205.88
   2   5   2 4225.58  191.08
   2   5   2 4206.18  194.88
   2   5   2 3884.01  192.48
   3   5   2  766.72   58.09
   3   5   2  840.02   42.50
   3   5   2  823.52   45.40
   4   5   2 1303.27   66.89
   4   5   2 1202.88   62.29
  -6   6   2  960.10   52.39
   5  -6  -2 1285.17   71.79
  -5   6   2 1247.08   69.09
   4  -6  -2 1782.92  105.89
  -4   6   2 1738.73   88.89
  -4   6   2 1949.41   94.59
   3  -6  -2 1803.02  103.59
  -3   6   2 1702.43   84.49
  -3   6   2 1760.92   89.59
  -3   6   2 1571.44  114.79
   2  -6  -2 2314.57  127.59
   2  -6  -2 2422.26  131.49
  -2   6   2 2373.06  114.69
  -2   6   2 2510.15  116.29
  -2   6   2 2385.16  134.09
   1  -6  -2 2592.44  137.89
   1  -6  -2 2740.23  143.89
  -1   6   2 2821.12  126.99
  -1   6   2 2786.52  131.49
   0  -6  -2 2584.84  132.49
   0  -6  -2 2708.33  138.59
   0   6   2 2757.42  130.39
   0   6   2 2634.64  123.09
  -1  -6  -2 2203.58  120.79
   1   6   2 2393.26  110.89
   1   6   2 2548.84  121.49
   2   6   2 2343.87  122.49
   2   6   2 2230.38  107.29
   3   6   2  682.43   35.40
   3   6   2  652.03   48.80
   4   6   2 1343.37   65.99
  -6   7   2 1125.99   57.89
   5  -7  -2 1548.74   88.59
  -5   7   2 1617.24   82.29
   4  -7  -2 1585.24   93.79
  -4   7   2 1546.75   77.99
  -4   7   2 1290.67   73.09
   3  -7  -2  154.38   25.30
  -3   7   2  174.48   15.30
  -3   7   2  175.68   16.00
   2  -7  -2 5750.82  272.47
   2  -7  -2 5051.49  262.97
  -2   7   2 5373.86  249.08
  -2   7   2 5581.04  253.07
   1  -7  -2 1565.34   88.89
   1  -7  -2 1676.93   97.79
  -1   7   2 1663.93   84.59
   0  -7  -2  967.00   63.09
   0   7   2  929.91   47.90
   0   7   2 1017.40   57.19
  -1  -7  -2 1719.53   99.29
   1   7   2 1964.90   89.49
   1   7   2 1957.10  100.99
   2   7   2 1203.78   73.19
   2   7   2 1078.39   56.99
   3   7   2 1529.85   80.09
   3   7   2 1592.24   90.19
   5  -8  -2 1328.07   99.69
  -5   8   2 1536.45   74.39
   4  -8  -2 1090.29   72.19
  -4   8   2  933.61   54.19
  -4   8   2 1080.09   56.59
   3  -8  -2 1826.42  106.59
  -3   8   2 1672.73   86.29
  -3   8   2 1589.74   83.49
   2  -8  -2 1971.00  117.29
  -2   8   2 1957.90  100.09
   1  -8  -2 1904.41  110.99
  -1   8   2 1843.52   97.39
   0  -8  -2  538.25   43.90
   0   8   2  544.15   30.30
   0   8   2  578.44   39.60
  -1  -8  -2 1962.40  119.19
   1   8   2 2007.50  122.09
   2   8   2  843.82   42.10
   2   8   2  813.82   53.09
   3   8   2  876.71   42.80
   5  -9  -2 1483.15   92.99
  -5   9   2 1930.01   84.29
   4  -9  -2  749.03   55.39
  -4   9   2  721.43   39.80
   3  -9  -2 2252.37  128.69
  -3   9   2 2196.08  110.89
   2  -9  -2 1205.68   82.09
  -2   9   2 1197.38   67.19
   1  -9  -2 2635.24  144.69
  -1   9   2 2551.84  131.59
   0  -9  -2  733.23   52.79
   0   9   2  788.72   50.79
   1   9   2 1245.08   72.99
   2   9   2  793.32   49.00
   4 -10  -2  920.71   59.79
   3 -10  -2 2366.96  130.89
  -3  10   2 2321.27  115.79
   2 -10  -2  689.53   53.69
  -2  10   2  627.14   41.60
   1 -10  -2 2544.45  137.39
  -1  10   2 2503.05  128.39
   0  10   2  623.24   43.00
   1  10   2 1743.03   92.89
   4 -11  -2  429.96   37.10
   3 -11  -2 1530.05   86.49
  -3  11   2 1423.56   77.69
   2 -11  -2  978.60   62.69
  -2  11   2  927.41   54.19
   1 -11  -2 1816.22   96.99
  -1  11   2 1707.43   91.89
   0  11   2  638.74   41.30
   1 -12   3 1356.76   73.09
   2 -12   3 1015.00   59.19
   3 -12   3 1046.50   59.79
   1  11  -3  648.14   42.70
   0  11  -3  984.80   63.59
   0 -11   3  873.11   52.49
  -1  11  -3 1450.05   82.59
   1 -11   3 1639.74   86.59
   2 -11   3  882.81   56.89
   3 -11   3 1159.28   76.19
   4 -11   3  632.44   40.30
   4 -11   3  572.74   42.90
   2  10  -3  287.37   25.80
   1  10  -3 2289.87  116.29
  -1 -10   3 2040.60  112.99
   0  10  -3  201.68   23.30
   0 -10   3  223.18   21.30
  -1  10  -3 1616.54   89.39
   1 -10   3 1728.23   94.59
  -2  10  -3 1075.09   66.89
   2 -10   3 1093.59   68.79
   3 -10   3 1405.06   82.49
  -4  10  -3  862.51   44.90
   4 -10   3  758.92   50.49
   4 -10   3  798.22   52.69
   5 -10   3 1173.28   69.09
   3   9  -3 1114.29   65.29
   2   9  -3  506.65   40.30
   1   9  -3 2075.39  110.59
  -1  -9   3 1949.30  101.69
   0   9  -3 1083.59   63.59
   0  -9   3  979.20   61.39
  -1   9  -3 1965.10  105.59
   1  -9   3 2132.09  112.59
  -2   9  -3  670.43   42.60
   2  -9   3  754.42   52.19
  -3   9  -3 1623.04   82.69
   3  -9   3 1709.73   95.99
  -4   9  -3 1099.19   55.99
   4  -9   3 1052.49   65.79
   4  -9   3 1009.10   62.99
  -5   9  -3 1297.27   65.59
   5  -9   3 1277.67   72.39
   3   8  -3 1437.36   84.59
   2   8  -3 1652.33   95.89
   1   8  -3 1707.73   93.59
  -1  -8   3 1587.44   85.79
   0   8  -3 1277.77   72.59
   0  -8   3 1259.77   72.39
  -1   8  -3 3535.55  177.88
   1  -8   3 3767.32  183.38
  -2   8  -3  992.90   58.19
   2  -8   3 1209.38   70.29
  -3   8  -3 2492.25  118.39
   3  -8   3 2443.06  130.79
  -4   8  -3  852.41   45.60
   4  -8   3  750.62   50.89
   4  -8   3  840.72   54.89
  -5   8  -3 1290.67   65.19
   5  -8   3 1227.88   71.79
   4   7  -3  621.94   44.30
   4   7  -3  586.44   38.40
   3   7  -3 1346.87   83.19
   3   7  -3 1291.07   72.79
   2   7  -3 2072.39  110.89
   2   7  -3 1963.00  102.49
  -2  -7   3 1880.81   99.49
   1   7  -3 1655.73   88.99
   1   7  -3 1587.74   83.19
  -1  -7   3 1530.85   82.79
   0   7  -3 1935.71   99.69
   0   7  -3 1886.41   95.19
   0  -7   3 1947.11  100.79
  -1   7  -3 3733.33  181.08
  -1   7  -3 3951.90  185.48
   1  -7   3 4073.39  192.88
  -2   7  -3 2229.18  111.39
  -2   7  -3 2386.76  109.49
  -3   7  -3 1805.52   87.99
   3  -7   3 1745.33  105.49
   3  -7   3 1809.32   98.19
  -4   7  -3 2103.19   96.89
   4  -7   3 2003.90  105.39
   4  -7   3 1815.62  100.29
   4  -7   3 1818.32  113.09
  -5   7  -3 1093.99   58.49
   5  -7   3 1108.19   64.39
  -6   7  -3 1309.67   67.99
   6  -7   3 1168.68   67.69
   4   6  -3 1138.09   73.29
   4   6  -3 1039.40   61.69
   3   6  -3  936.01   65.29
   3   6  -3  910.71   57.49
   2   6  -3 2012.70  104.19
   2   6  -3 2158.48  110.29
   2   6  -3 2034.20   91.39
  -2  -6   3 1742.43   96.79
   1   6  -3 1044.60   61.49
   1   6  -3 1068.59   59.09
  -1  -6   3 1050.29   57.49
   0   6  -3 5371.76  245.08
   0   6  -3 5254.97  248.18
   0  -6   3 5404.56  244.18
   0  -6   3 5221.98  249.48
  -1   6  -3 2046.00   99.29
  -1   6  -3 1952.40   93.29
   1  -6   3 1920.31  102.19
   1  -6   3 1980.80   95.99
  -2   6  -3 2845.32  183.38
  -2   6  -3 2948.61  134.19
   2  -6   3 2958.00  138.59
   2  -6   3 2947.10  144.49
   2  -6   3 2665.93  134.99
  -3   6  -3 1873.51   89.29
   3  -6   3 1855.41   96.69
   3  -6   3 1706.23  102.49
  -4   6  -3 3118.89  146.49
   4  -6   3 3045.80  152.88
   4  -6   3 2994.60  161.68
  -5   6  -3 1216.58   62.29
   5  -6   3 1088.99   64.99
  -6   6  -3 1358.16   68.89
   6  -6   3 1354.26   70.19
   5   5  -3  426.26   29.90
   4   5  -3 1505.95   83.59
   4   5  -3 1408.66   92.19
   3   5  -3  797.42   52.49
   3   5  -3  783.92   56.99
   2   5  -3 2031.20   91.09
   2   5  -3 2085.09  107.19
   2   5  -3 2057.19  104.49
  -2  -5   3 1795.62   96.19
   1   5  -3 2007.00   91.89
   1   5  -3 1973.50  100.19
   1   5  -3 2048.20  102.29
   0   5  -3 4195.78  192.28
   0   5  -3 4053.49  189.48
   0  -5   3 4028.70  194.68
   0  -5   3 4110.79  188.38
   0  -5   3 4141.49  186.28
  -1   5  -3  878.21   45.20
  -1   5  -3  869.91   43.20
   1  -5   3  871.81   43.40
   1  -5   3  851.61   49.99
   1  -5   3  874.51   45.30
  -2   5  -3 4261.57  229.98
  -2   5  -3 4337.27  193.48
   2  -5   3 4036.90  195.18
   2  -5   3 4155.68  193.08
   2  -5   3 4266.67  200.78
  -3   5  -3 1286.67   63.49
  -3   5  -3 1162.08   98.89
   3  -5   3 1211.98   66.89
   3  -5   3 1289.47   74.79
  -4   5  -3 3735.43  176.88
   4  -5   3 3849.91  181.88
   4  -5   3 3638.54  192.28
  -5   5  -3  837.92   45.90
   5  -5   3  711.53   53.49
   5  -5   3  848.22   49.30
  -6   5  -3 1258.47   64.89
   6  -5   3 1280.07   65.69
   5   4  -3  447.26   33.90
   4   4  -3 1827.32  111.19
   4   4  -3 1922.41  105.79
   3   4  -3 2168.28  114.89
   3   4  -3 2123.39  116.79
   2   4  -3 1188.28   56.89
   2   4  -3 1286.07   69.39
   2   4  -3 1287.37   69.69
  -2  -4   3 1183.78   60.99
   1   4  -3 2585.44  117.39
   1   4  -3 2394.06  109.09
  -1  -4   3 2652.83  109.89
  -1  -4   3 2090.79  111.09
  -1  -4   3 2335.67  113.99
   0   4  -3 3793.02  178.88
   0  -4   3 3914.41  176.38
   0  -4   3 4028.60  174.78
   0  -4   3 3900.81  208.28
   0  -4   3 3670.53  179.68
  -1   4  -3  897.51   44.70
  -1   4  -3  923.51   74.69
   1  -4   3  967.80   46.60
   1  -4   3  968.70   50.49
   1  -4   3  764.82   78.99
   1  -4   3  970.20   44.80
  -2   4  -3 5082.29  270.67
  -2   4  -3 5233.78  237.58
   2  -4   3 5321.27  242.28
   2  -4   3 5024.60  238.48
   2  -4   3 5265.67  237.28
   2  -4   3 5367.96  246.88
  -3   4  -3  573.14   60.09
  -3   4  -3  549.54   32.30
   3  -4   3  531.75   33.30
   3  -4   3  580.34   36.00
   3  -4   3  601.24   31.60
   3  -4   3  567.94   41.00
  -4   4  -3 3514.65  162.88
   4  -4   3 3282.47  173.28
   4  -4   3 3452.35  166.08
   4  -4   3 3469.25  161.68
  -5   4  -3  947.71   50.39
   5  -4   3  927.51   49.90
   5  -4   3  824.82   58.49
   5  -4   3  923.21   52.79
  -6   4  -3 1053.69   54.59
   6  -4   3 1025.40   54.39
   5   3  -3  609.44   43.70
   4   3  -3 2797.12  148.89
   4   3  -3 2802.02  148.09
   3   3  -3  719.83   48.00
   3   3  -3  700.43   46.50
  -3  -3   3  642.64   35.80
  -3  -3   3  669.43   92.79
   2   3  -3 9999.00  426.66
   2   3  -3 9226.98  423.46
  -2  -3   3 9011.40  415.56
  -2  -3   3 8763.92  412.66
   1   3  -3 1075.09   54.09
   1   3  -3 1016.70   48.60
   1   3  -3 1018.00   53.99
  -1  -3   3  954.90   50.49
  -1  -3   3 1076.69   49.20
   0   3  -3 3665.83  175.88
   0   3  -3 3554.34  173.48
   0  -3   3 3738.63  176.58
   0  -3   3 4209.38  206.88
   0  -3   3 4025.30  174.38
  -1   3  -3 1367.96   85.49
  -1   3  -3 1295.47   60.99
   1  -3   3 1276.27   61.79
   1  -3   3 1299.47   64.39
   1  -3   3 1077.39   92.39
   1  -3   3 1399.66   60.69
  -2   3  -3 5857.71  300.37
   2  -3   3 5753.92  269.87
   2  -3   3 5716.33  270.97
   2  -3   3 6786.82  279.77
   2  -3   3 5765.12  272.57
  -3   3  -3 1870.21   93.49
  -3   3  -3 1969.20  132.09
   3  -3   3 1862.41   92.29
   3  -3   3 1999.70   94.29
   3  -3   3 2044.90   97.39
  -4   3  -3  810.82   44.50
   4  -3   3  804.62   47.30
   4  -3   3  785.42   45.30
   4  -3   3  818.82   53.49
  -5   3  -3 1691.33   85.49
   5  -3   3 1856.41  106.09
   5  -3   3 1659.03   87.99
   5  -3   3 1693.53   87.19
   6  -3   3  832.52   44.10
   5   2  -3 1120.79   71.89
   4   2  -3 3126.79  159.18
   4   2  -3 3250.17  163.58
  -4  -2   3 2934.61  146.09
   3   2  -3 2684.13  132.39
   3   2  -3 2769.72  136.19
  -3  -2   3 2688.03  198.38
  -3  -2   3 2350.66  121.59
   2   2  -3 2235.98  102.49
   2   2  -3 2311.97  112.89
   2   2  -3 2392.16  103.19
  -2  -2   3 2181.08  104.09
  -2  -2   3 2187.18  103.09
   1   2  -3 4795.42  209.78
   1   2  -3 4623.34  210.88
   1   2  -3 4768.22  210.78
  -1  -2   3 4110.99  204.58
  -1  -2   3 4578.24  206.98
   1  -2   3 6314.77  317.47
  -2   2  -3 2906.21  161.28
  -2   2  -3 2814.42  133.39
   2  -2   3 2798.92  132.89
   2  -2   3 2598.44  132.99
   2  -2   3 2838.82  173.38
   2  -2   3 3122.79  140.39
   2  -2   3 2953.00  134.39
   2  -2   3 3039.40  135.99
   2  -2   3 3032.80  133.69
  -3   2  -3 1582.74  112.89
  -3   2  -3 1528.55   75.39
   3  -2   3 1624.14   78.19
   3  -2   3 1527.15   87.89
   3  -2   3 1509.55   79.09
   3  -2   3 1560.54   78.19
  -4   2  -3 2609.74  126.49
   4  -2   3 2705.93  130.59
   4  -2   3 2568.24  136.59
   4  -2   3 2797.12  130.89
  -5   2  -3 1357.56   67.99
   5  -2   3 1410.26   71.39
   5  -2   3 1344.67   71.89
   5  -2   3 1296.67   76.69
   6  -2   3  526.35   29.70
   6   1  -3  503.75   36.60
   5   1  -3 1555.24   92.59
  -5  -1   3 1498.85   77.19
   4   1  -3 2018.00  107.99
  -4  -1   3 1737.33   98.99
   3   1  -3 1908.81   95.39
   3   1  -3 1882.21   84.59
   3   1  -3 1806.52   85.49
   3   1  -3 1873.91   99.09
  -3  -1   3 1764.52   86.99
  -3  -1   3 1848.42  146.99
  -3  -1   3 1762.32   84.59
   2   1  -3 4645.14  200.88
   2   1  -3 4549.34  210.78
   2   1  -3 4473.05  200.08
   2   1  -3 4466.25  210.68
   2   1  -3 4741.53  209.08
  -2  -1   3 4223.58  201.68
  -2  -1   3 4156.38  201.08
   1   1  -3 4327.07  210.08
   1   1  -3 4775.92  210.38
   1   1  -3 4633.34  211.48
   0   1  -3 4225.38  197.58
  -2   1  -3 1843.82   87.79
  -2   1  -3 1959.10  114.69
   2  -1   3 1683.93  120.89
   2  -1   3 1947.61   87.49
   2  -1   3 1893.71   89.89
   2  -1   3 2041.40   94.49
   2  -1   3 1941.41   90.49
   2  -1   3 1808.42   87.39
  -3   1  -3 3173.08  194.68
  -3   1  -3 3333.67  154.28
   3  -1   3 3398.06  157.48
   3  -1   3 3480.85  174.98
   3  -1   3 3411.66  158.88
   3  -1   3 3298.57  152.68
  -4   1  -3 2454.35  118.89
   4  -1   3 2537.85  129.59
   4  -1   3 2522.35  125.39
   4  -1   3 2591.74  123.39
  -5   1  -3 1335.37   65.59
   5  -1   3 1325.97   67.69
   5  -1   3 1338.67   70.49
   5  -1   3 1171.38   81.09
   6  -1   3  576.64   31.80
   6   0  -3  624.04   43.10
   5   0  -3 1406.46  103.29
   3   0  -3 1702.93   91.49
   3   0  -3 1715.43   81.49
   3   0  -3 1777.82   79.69
   3   0  -3 1773.32   89.59
  -3   0   3 1695.53  131.59
  -3   0   3 1685.03   80.69
  -3   0   3 1644.94   82.09
   2   0  -3 2345.57  115.99
   2   0  -3 2515.15  115.29
   2   0  -3 2325.97  107.79
   2   0  -3 2385.86  118.89
   2   0  -3 2449.95  108.39
  -2   0   3 2429.96  146.79
  -2   0   3 2101.29  108.69
  -2   0   3 2411.96  108.59
   0   0  -3 1074.29   49.60
   0   0  -3  944.61   57.19
   0   0   3 1193.28   66.99
   0   0   3 1047.40   49.99
   0   0   3 1074.89   49.20
  -2   0  -3  348.77   36.30
  -2   0  -3  347.47   19.10
   2   0   3  368.76   41.00
   2   0   3  371.06   22.60
   2   0   3  362.76   24.10
   2   0   3  369.76   18.20
   2   0   3  365.06   18.80
  -3   0  -3 4893.31  271.37
  -3   0  -3 4683.43  228.48
   3   0   3 5428.76  238.38
   3   0   3 5045.10  226.68
   3   0   3 5159.78  232.48
   3   0   3 5078.69  235.48
  -4   0  -3 1726.13   88.29
   4   0   3 1845.52   96.19
   4   0   3 2005.10  107.49
   4   0   3 1890.61   92.79
   5   0   3 1928.61   99.19
   5   0   3 1977.10   96.09
   6  -1  -3  669.83   43.90
  -6   1   3  637.04   37.40
   5  -1  -3 2720.53  140.59
  -5   1   3 2573.24  131.79
   4  -1  -3  437.56   27.20
   4  -1  -3  454.95   35.00
   4  -1  -3  415.96   24.40
  -4   1   3  406.26   30.80
   3  -1  -3 3591.44  161.78
   3  -1  -3 3645.34  179.08
   3  -1  -3 3543.55  170.78
   3  -1  -3 3532.55  164.58
   3  -1  -3 3533.85  160.68
  -3   1   3 3345.97  162.18
  -3   1   3 3482.35  163.58
  -3   1   3 3577.94  215.98
   2  -1  -3 1872.91   87.49
   2  -1  -3 1980.80  101.19
   2  -1  -3 1878.91   93.69
  -2   1   3 1924.11   88.39
  -2   1   3 2010.70  122.49
  -2   1   3 1785.52   88.79
   1  -1  -3 4821.02  230.38
   1  -1  -3 4977.10  229.28
   0  -1  -3  919.21   44.40
   0  -1  -3  904.41   52.99
   0   1   3  940.41   45.60
   0   1   3 1018.40   50.19
   0   1   3  962.30   43.90
  -1  -1  -3 2873.01  141.59
  -1  -1  -3 3297.37  141.69
  -1  -1  -3 2978.90  148.79
   1   1   3 2875.61  143.59
   1   1   3 3306.97  144.19
   1   1   3 3025.40  141.29
   1   1   3 3256.47  154.38
   1   1   3 3198.38  139.29
  -2  -1  -3 2917.81  152.68
  -2  -1  -3 2709.63  128.99
   2   1   3 2808.32  137.69
   2   1   3 2835.12  133.49
   2   1   3 2883.51  134.89
   2   1   3 2778.72  127.39
   2   1   3 2812.82  131.19
   2   1   3 2880.91  126.89
  -3  -1  -3 3552.84  204.78
  -3  -1  -3 3516.45  165.58
   3   1   3 3615.54  173.88
   3   1   3 3623.54  172.68
   3   1   3 3816.82  169.28
   4   1   3  731.73   45.30
   4   1   3  688.83   45.40
   4   1   3  765.32   41.60
   5   1   3 1592.64   80.19
   5   1   3 1673.03   83.99
   6  -2  -3  603.34   38.50
  -6   2   3  579.64   37.00
   5  -2  -3 2506.65  129.79
  -5   2   3 2496.65  126.39
   4  -2  -3 1048.00   58.79
   4  -2  -3 1068.29   54.79
  -4   2   3 1124.19   59.39
   3  -2  -3 4805.02  234.48
   3  -2  -3 4767.72  224.48
   3  -2  -3 4896.71  231.68
   3  -2  -3 5228.48  230.98
   3  -2  -3 5350.06  247.18
  -3   2   3 4752.12  275.67
  -3   2   3 4827.42  226.18
  -3   2   3 5015.30  227.98
   2  -2  -3 1459.85   65.49
   2  -2  -3 1498.15   81.49
   2  -2  -3 1356.76   77.29
   2  -2  -3 1199.78   68.29
  -2   2   3 1385.26   65.89
  -2   2   3 1414.66   67.49
  -2   2   3 1468.05   96.29
   1  -2  -3 3927.11  192.98
   1  -2  -3 3940.31  190.58
  -1   2   3 3970.40  180.78
  -1   2   3 4380.56  199.68
  -1   2   3 4133.39  182.18
  -1   2   3 3681.13  180.58
   0  -2  -3 1933.51   98.09
   0  -2  -3 1961.80   88.69
   0   2   3 1981.70   88.39
   0   2   3 1867.91   88.99
   0   2   3 1960.90   90.69
  -1  -2  -3 2509.55  129.19
   1   2   3 2912.31  129.59
   1   2   3 2738.03  130.09
   1   2   3 2995.50  132.29
   1   2   3 2883.91  132.09
   1   2   3 2918.51  127.19
  -2  -2  -3 1453.55   70.19
   2   2   3 1338.67   75.19
   2   2   3 1524.55   70.59
   2   2   3 1482.95   73.89
   2   2   3 1466.65   72.79
   3   2   3 2852.31  130.89
   3   2   3 2731.13  134.49
   3   2   3 2731.53  136.19
   3   2   3 2742.53  135.09
   4   2   3  690.43   41.80
   4   2   3  672.13   37.90
   4   2   3  639.64   41.80
   5   2   3 1304.17   68.29
   5   2   3 1267.97   63.59
   6  -3  -3  497.85   31.80
  -6   3   3  548.45   35.70
   5  -3  -3 2437.16  125.69
  -5   3   3 2590.34  127.49
   4  -3  -3 1605.24   83.39
   4  -3  -3 1747.73   89.09
   4  -3  -3 1684.43   88.09
  -4   3   3 1709.73   86.99
   3  -3  -3 5665.23  267.87
   3  -3  -3 5221.88  242.98
   3  -3  -3 5431.76  247.78
   3  -3  -3 5202.08  257.47
  -3   3   3 5436.06  246.88
  -3   3   3 5195.88  291.97
  -3   3   3 5304.87  246.68
   2  -3  -3 1502.75   86.79
   2  -3  -3 1550.94   89.99
   2  -3  -3 1507.25   72.89
  -2   3   3 1730.33   79.09
  -2   3   3 1421.46   72.99
  -2   3   3 1579.04  101.09
   1  -3  -3 2306.27  120.59
   1  -3  -3 2411.76  122.69
   1  -3  -3 2399.56  109.49
  -1   3   3 2358.76  111.09
  -1   3   3 2529.65  122.59
  -1   3   3 2329.27  109.49
   0  -3  -3 7206.78  331.67
  -1  -3  -3 2081.09  110.09
  -1  -3  -3 2211.18  106.09
   1   3   3 2229.88   98.19
   1   3   3 2095.09  100.79
   1   3   3 2087.39  100.49
   1   3   3 2239.98  103.79
   1   3   3 2236.18  104.79
  -2  -3  -3 1793.22   85.69
   2   3   3 1695.43   84.79
   2   3   3 1856.41   86.99
   2   3   3 1790.22   82.99
   2   3   3 1481.85   89.89
   3   3   3 1144.79   79.09
   3   3   3 1392.86   72.79
   3   3   3 1433.96   71.79
   3   3   3 1456.15   68.69
   4   3   3 1073.09   57.59
   4   3   3  985.70   58.69
   4   3   3 1104.69   54.99
   5   3   3 1132.39   54.79
   5   3   3 1084.49   55.69
  -6   4   3 1157.68   64.49
   5  -4  -3 2073.79  103.59
   4  -4  -3 1601.14   88.29
   4  -4  -3 1478.55   79.09
   4  -4  -3 1530.75   86.49
  -4   4   3 1646.04   82.69
   3  -4  -3 3146.99  166.98
   3  -4  -3 3032.90  142.59
   3  -4  -3 2967.60  159.28
  -3   4   3 3136.99  145.99
  -3   4   3 2977.60  185.18
   2  -4  -3 3315.37  165.48
   2  -4  -3 3356.06  167.88
   2  -4  -3 3129.09  147.69
  -2   4   3 3152.68  148.09
  -2   4   3 3154.88  150.18
  -2   4   3 3176.28  174.68
   1  -4  -3 6040.10  268.17
   1  -4  -3 5661.23  278.27
   1  -4  -3 6339.37  281.17
  -1   4   3 5795.22  266.77
  -1   4   3 5921.51  265.27
  -1   4   3 5792.92  270.07
  -1   4   3 5587.14  265.07
   0  -4  -3 2649.73  130.59
   0  -4  -3 2616.64  131.09
   0   4   3 2672.13  124.09
   0   4   3 2540.05  119.89
  -1  -4  -3 2744.63  140.99
  -1  -4  -3 2908.51  140.19
   1   4   3 2756.82  130.89
   1   4   3 2843.32  134.99
   1   4   3 2815.82  131.79
   1   4   3 3106.39  138.19
  -2  -4  -3 2397.56  129.49
   2   4   3 2597.44  128.49
   2   4   3 2404.26  117.59
   2   4   3 2523.15  120.99
   2   4   3 2498.95  116.99
  -3  -4  -3 1195.58   73.99
   3   4   3 1132.09   63.09
   3   4   3 1167.38   60.99
   3   4   3 1176.98   59.29
   4   4   3 1512.35   71.29
   4   4   3 1393.26   72.19
  -6   5   3  927.11   52.59
   5  -5  -3 1032.10   56.89
  -5   5   3 1050.19   60.09
   4  -5  -3 3350.66  182.38
   4  -5  -3 3649.53  181.28
  -4   5   3 3640.04  171.48
   3  -5  -3  548.95   47.60
   3  -5  -3  597.34   51.79
  -3   5   3  597.14   35.70
  -3   5   3  553.54   58.39
   2  -5  -3 3883.91  203.88
   2  -5  -3 4148.88  205.98
  -2   5   3 4128.19  208.58
  -2   5   3 4004.80  188.08
   1  -5  -3 3771.72  189.18
   1  -5  -3 3878.21  188.58
  -1   5   3 3767.72  172.68
  -1   5   3 3575.44  173.58
  -1   5   3 3916.71  176.78
   0  -5  -3 3371.66  167.98
   0  -5  -3 3397.96  170.38
   0   5   3 3400.86  155.88
   0   5   3 3491.95  161.48
  -1  -5  -3 1705.83   93.79
  -1  -5  -3 1785.22   94.79
   1   5   3 1755.92   83.99
   1   5   3 1862.61   92.29
  -2  -5  -3 2730.43  139.39
   2   5   3 2748.43  127.79
   2   5   3 2903.31  141.19
   2   5   3 2740.73  131.89
   2   5   3 2538.15  126.59
   3   5   3  898.01   55.79
   3   5   3  961.00   70.29
   3   5   3 1061.89   50.49
   4   5   3 1820.72   85.99
  -6   6   3 1253.77   65.59
   5  -6  -3  706.93   44.10
  -5   6   3  724.73   44.40
   4  -6  -3 2293.27  136.59
   4  -6  -3 2428.36  137.79
  -4   6   3 2550.14  122.69
  -4   6   3 2454.95  117.89
   3  -6  -3  483.35   45.70
   3  -6  -3  454.65   44.00
  -3   6   3  427.26   52.19
  -3   6   3  479.05   29.90
  -3   6   3  489.15   31.10
   2  -6  -3 4683.03  238.88
   2  -6  -3 4601.54  235.48
  -2   6   3 4931.41  220.38
  -2   6   3 4558.44  235.08
  -2   6   3 4838.72  218.98
   1  -6  -3 1577.74   93.99
   1  -6  -3 1734.73  100.49
  -1   6   3 1721.73   81.59
  -1   6   3 1819.72   87.19
   0  -6  -3 1939.41  106.79
   0  -6  -3 2109.59  112.69
  -1  -6  -3 1229.38   71.79
  -1  -6  -3 1270.47   73.79
   1   6   3 1266.67   61.29
   1   6   3 1250.77   69.99
   2   6   3 2989.30  149.19
   2   6   3 2803.42  134.69
   3   6   3  976.80   61.29
   3   6   3  978.90   49.10
  -6   7   3  931.71   53.49
   5  -7  -3  785.52   50.79
  -5   7   3  795.92   46.00
   4  -7  -3 2386.36  136.39
  -4   7   3 2347.27  116.09
  -4   7   3 2396.26  118.59
   3  -7  -3 1367.66   91.09
   3  -7  -3 1373.76   89.19
  -3   7   3 1374.16   72.29
  -3   7   3 1412.96   72.79
   2  -7  -3 1804.22  106.99
   2  -7  -3 1637.44  100.29
  -2   7   3 1896.81   89.89
  -2   7   3 1621.54   84.29
   1  -7  -3  954.20   67.29
   1  -7  -3  901.01   60.19
  -1   7   3  951.20   54.19
   0  -7  -3 2751.02  146.49
   0   7   3 2768.12  136.09
   0   7   3 2655.93  126.39
  -1  -7  -3  964.60   61.59
   1   7   3 1014.00   49.99
   1   7   3  984.20   59.59
   2   7   3 2010.30   92.39
   2   7   3 1862.61  103.89
   3   7   3  138.69   21.40
   3   7   3  197.78   12.30
   5  -8  -3  882.81   57.49
  -5   8   3 1016.60   51.79
   4  -8  -3 1803.42  105.29
  -4   8   3 1726.03   86.59
  -4   8   3 1617.64   85.79
   3  -8  -3  993.40   71.59
  -3   8   3  904.41   50.49
  -3   8   3  958.50   53.49
   2  -8  -3 2907.61  164.28
   2  -8  -3 2982.90  164.28
  -2   8   3 2937.81  144.69
   1  -8  -3  966.80   70.29
  -1   8   3  995.40   58.49
   0  -8  -3 1699.83  100.99
   0   8   3 1796.52   93.59
   0   8   3 1653.33   82.19
  -1  -8  -3 1038.70   62.99
   1   8   3 1046.50   52.39
   1   8   3 1065.19   63.59
   2   8   3  977.00   50.19
   2   8   3 1080.99   65.19
   5  -9  -3 1345.27   81.29
  -5   9   3 1351.96   66.39
   4  -9  -3 1550.34   90.99
  -4   9   3 1475.15   75.29
  -4   9   3 1424.46   72.99
   3  -9  -3  959.40   70.09
  -3   9   3  951.90   54.19
   2  -9  -3 2227.58  129.29
  -2   9   3 2127.39  111.09
   1  -9  -3 1519.15   95.69
  -1   9   3 1518.85   83.89
   0  -9  -3 1690.73   98.79
   0   9   3 1768.32   94.49
   1   9   3  868.41   54.59
   2   9   3  502.15   35.70
   4 -10  -3  878.81   57.59
   3 -10  -3 1475.75   90.99
  -3  10   3 1517.25   80.29
   2 -10  -3 1320.37   83.19
  -2  10   3 1206.08   69.09
   1 -10  -3 1828.92  104.79
  -1  10   3 1791.02   95.99
   0 -10  -3 1022.40   58.59
   0  10   3  813.52   59.89
   1  10   3  857.61   50.89
   3 -11  -3 1252.97   74.39
   2 -11  -3 1031.50   65.39
  -2  11   3 1049.59   58.19
   1 -11  -3  883.91   71.39
  -1  11   3 1059.29   56.69
   1 -12   4  459.45   31.30
   2 -12   4 1484.05   79.69
   3 -12   4  366.66   26.20
   3 -12   4  282.77   28.80
   1  11  -4  383.66   31.00
   0  11  -4  880.81   54.19
   0 -11   4  890.21   51.19
  -1  11  -4  788.62   51.89
   1 -11   4  896.31   53.69
   2 -11   4 1656.93   91.49
   3 -11   4  603.34   43.30
   4 -11   4  781.22   46.60
   2  10  -4 1112.69   65.79
   1  10  -4 1065.19   64.99
   0  10  -4  463.85   35.20
   0 -10   4  466.45   34.00
  -1  10  -4 1900.11  101.19
   1 -10   4 1952.30  104.99
   2 -10   4  973.30   62.19
   3 -10   4 1243.68   73.69
  -4  10  -4  645.54   37.40
   4 -10   4  613.04   40.80
   3   9  -4  987.30   59.79
   2   9  -4 1180.78   72.39
   1   9  -4 1838.32   99.69
  -1  -9   4 1693.83   90.39
   0   9  -4  555.84   41.10
   0  -9   4  558.44   39.50
  -1   9  -4 2447.16  128.99
   1  -9   4 2704.93  135.59
   3  -9   4  850.51   70.09
   3  -9   4  988.80   66.09
  -4   9  -4  760.92   43.20
   4  -9   4  729.83   47.00
   4  -9   4  769.32   50.49
  -5   9  -4 1343.27   69.89
   5  -9   4 1409.36   74.99
   3   8  -4 1315.27   73.09
   3   8  -4 1214.08   76.29
   2   8  -4 1113.99   64.39
   2   8  -4 1185.88   73.19
   1   8  -4 2419.76  122.89
   1   8  -4 2212.18  114.19
  -1  -8   4 2199.28  114.19
   0   8  -4  737.03   46.40
   0   8  -4  866.51   52.89
   0  -8   4  864.91   52.29
  -1   8  -4 4911.61  236.98
   1  -8   4 5030.00  240.58
  -2   8  -4  777.02   44.40
   2  -8   4  847.02   54.79
  -3   8  -4 1801.32   85.39
   3  -8   4 1768.22   95.29
   3  -8   4 1500.25  100.49
  -4   8  -4 1385.36   67.59
   4  -8   4 1325.17   75.59
   4  -8   4 1161.58   82.29
   4  -8   4 1225.18   70.69
  -5   8  -4 1593.04   91.29
   4   7  -4  242.88   27.00
   4   7  -4  210.08   22.40
   3   7  -4 1953.90  111.49
   3   7  -4 1950.90  103.19
   2   7  -4 1038.70   66.29
   2   7  -4  996.90   59.99
  -2  -7   4  947.61   53.89
   1   7  -4 2627.74  133.99
   1   7  -4 2612.64  131.19
  -1  -7   4 2501.35  127.69
   0   7  -4 1540.25   78.09
   0   7  -4 1472.95   80.79
   0  -7   4 1491.85   81.39
  -1   7  -4 4089.59  193.38
  -1   7  -4 4083.39  196.28
   1  -7   4 4300.77  202.48
  -2   7  -4 1565.74   77.99
   2  -7   4 1595.14   87.79
  -3   7  -4 2070.89   99.29
   3  -7   4 1970.70  107.09
   3  -7   4 2045.00  116.49
  -4   7  -4 1751.52   85.49
   4  -7   4 1641.24  100.99
   4  -7   4 1545.15   86.69
   4  -7   4 1821.52   93.99
  -5   7  -4 2163.58  105.49
   5  -7   4 2108.79  109.59
   4   6  -4  124.39   16.50
   4   6  -4  139.59   21.20
   3   6  -4 2064.19  117.09
   3   6  -4 2041.30  110.19
   2   6  -4 1787.42  102.89
   2   6  -4 1920.01  100.59
  -2  -6   4 1864.71  103.59
   1   6  -4 2263.47  111.19
   1   6  -4 2248.58  113.69
  -1  -6   4 2035.00  107.89
   0   6  -4  597.44   37.80
   0   6  -4  611.04   35.60
   0  -6   4  583.24   37.90
  -1   6  -4 4522.05  208.28
  -1   6  -4 4422.06  210.18
   1  -6   4 4623.04  215.78
  -2   6  -4 1962.10  151.38
  -2   6  -4 2178.78   99.69
   2  -6   4 2089.79  107.69
  -3   6  -4 2984.40  138.29
   3  -6   4 2829.32  152.68
  -4   6  -4 1314.57   66.99
   4  -6   4 1259.17   80.29
   4  -6   4 1228.88   71.49
  -5   6  -4 1782.52   88.99
   5  -6   4 1731.13   91.99
  -6   6  -4 1230.78   64.99
   6  -6   4 1044.20   63.89
   5   5  -4 1053.59   59.89
   4   5  -4  747.93   57.39
   4   5  -4  757.62   51.19
   3   5  -4 1246.38   74.09
   3   5  -4 1204.38   77.09
   2   5  -4 2955.30  143.29
  -2  -5   4 2695.13  134.49
   1   5  -4  841.32   49.00
   1   5  -4  901.41   51.69
  -1  -5   4  832.72   47.00
   0   5  -4 3691.73  167.28
   0   5  -4 2852.61  157.68
   0  -5   4 3154.78  152.48
   0  -5   4 3087.59  148.19
  -1   5  -4 2131.79  105.79
   1  -5   4 2314.47  106.89
   1  -5   4 2277.97  110.69
   1  -5   4 2166.98  103.89
  -2   5  -4 1977.60  139.29
  -2   5  -4 2073.09   96.89
   2  -5   4 2104.49  103.19
   2  -5   4 1994.30   97.09
   2  -5   4 2011.70  107.39
   3  -5   4 2674.23  141.59
   3  -5   4 2430.96  125.39
   3  -5   4 2647.34  136.39
  -4   5  -4 1509.55   76.79
   4  -5   4 1472.25   80.79
   4  -5   4 1515.85   88.99
  -5   5  -4 1566.44   78.69
   5  -5   4 1487.05   80.89
   6  -5   4  851.81   46.50
   5   4  -4  863.31   53.89
   4   4  -4  905.21   69.69
   3   4  -4 2811.12  144.29
   3   4  -4 2708.93  144.09
   2   4  -4 3763.92  188.28
   2   4  -4 4022.80  189.28
  -2  -4   4 3841.22  179.68
   1   4  -4  427.36   29.30
   1   4  -4  482.85   29.20
  -1  -4   4  441.66   26.30
  -1  -4   4  377.16   23.40
   0   4  -4 3468.15  160.08
   0   4  -4 3375.06  160.98
   0  -4   4 3438.26  156.88
   0  -4   4 3221.08  159.68
   0  -4   4 3557.44  155.68
  -1   4  -4 3797.72  185.18
   1  -4   4 4326.07  186.78
   1  -4   4 3989.00  184.28
   1  -4   4 4095.69  189.48
  -2   4  -4 3059.79  177.38
  -2   4  -4 3076.79  141.79
   2  -4   4 3006.80  141.49
   2  -4   4 3070.89  150.78
   2  -4   4 3052.69  145.39
  -3   4  -4  603.84   33.90
  -3   4  -4  560.14   65.79
   3  -4   4  636.64   43.70
   3  -4   4  657.83   38.60
   3  -4   4  565.14   34.10
  -4   4  -4 1905.61   91.79
   4  -4   4 1966.00   95.79
   4  -4   4 1617.84  112.59
  -5   4  -4 1448.56   73.39
   5  -4   4 1382.16   75.19
  -6   4  -4  982.80   53.39
   6  -4   4 1016.90   52.19
   5   3  -4  952.90   62.09
   4   3  -4 2233.68  119.99
   4   3  -4 2157.88  118.89
  -4  -3   4 1954.50  102.29
   3   3  -4 2172.38  116.19
   3   3  -4 2249.07  115.89
  -3  -3   4 1964.80  101.49
  -3  -3   4 2050.69  196.48
   2   3  -4 3111.89  152.78
   2   3  -4 3044.30  150.68
   2   3  -4 3308.87  143.09
  -2  -3   4 2861.21  149.88
   1   3  -4 2923.61  135.99
   1   3  -4 2815.82  129.69
   1   3  -4 2727.13  131.59
   1   3  -4 2964.40  135.69
  -1  -3   4 2749.92  131.59
  -1  -3   4 2815.72  129.99
   0   3  -4 4844.52  225.98
   0   3  -4 4795.02  228.08
   0   3  -4 4619.84  230.38
   0  -3   4 5167.58  226.08
   0  -3   4 5550.15  266.67
  -1   3  -4 3591.54  216.68
  -1   3  -4 3641.74  180.78
   1  -3   4 4094.39  181.38
   1  -3   4 3958.20  180.28
   1  -3   4 4090.59  183.78
   1  -3   4 4432.36  186.68
  -2   3  -4 3998.70  187.18
  -2   3  -4 4007.90  220.28
   2  -3   4 3984.80  188.68
   2  -3   4 4206.68  190.48
   2  -3   4 4112.49  195.08
   2  -3   4 4275.27  188.58
   2  -3   4 4062.19  187.18
  -3   3  -4  138.99   27.70
  -3   3  -4  127.19   11.10
   3  -3   4  121.79   11.10
   3  -3   4  115.89   13.10
   3  -3   4  122.39   16.20
  -4   3  -4 5396.96  239.08
   4  -3   4 5286.67  239.78
   4  -3   4 4434.26  258.17
   4  -3   4 5513.65  243.38
  -5   3  -4  561.64   33.30
   5  -3   4  544.15   34.90
   5  -3   4  537.15   33.70
   6  -3   4 1003.20   53.89
   5   2  -4  503.25   43.10
   4   2  -4 2677.53  137.89
   4   2  -4 2575.74  132.49
  -4  -2   4 2175.28  119.19
   3   2  -4 1279.47   70.49
   3   2  -4 1225.88   73.39
  -3  -2   4 1234.68   60.79
  -3  -2   4  998.70  177.08
   2   2  -4 7203.78  328.97
   2   2  -4 7398.46  332.17
   2   2  -4 7165.88  319.87
   2   2  -4 7496.65  329.47
  -2  -2   4 6343.17  319.97
   1   2  -4 3517.25  162.18
   1   2  -4 3604.64  162.38
   1   2  -4 3686.83  163.38
   1   2  -4 3011.70  157.68
  -1  -2   4 3575.54  156.68
  -1  -2   4 3331.97  157.68
   0   2  -4 2932.91  131.29
   0   2  -4 2703.93  137.39
   0   2  -4 3056.09  138.69
   0  -2   4 2690.43  130.49
   0  -2   4 2851.31  131.29
   0  -2   4 3233.08  166.98
   0  -2   4 2622.44  131.89
  -1   2  -4 4679.73  253.67
   1  -2   4 4806.92  222.48
   1  -2   4 4858.61  222.78
   1  -2   4 5257.77  263.97
  -2   2  -4 5530.85  291.57
   2  -2   4 5782.32  263.07
   2  -2   4 5795.62  263.07
   2  -2   4 5706.33  265.07
   2  -2   4 6235.78  270.87
  -3   2  -4  938.51   80.69
  -3   2  -4  968.20   50.29
   3  -2   4 1053.09   59.59
   3  -2   4  991.10   52.19
   3  -2   4 1019.30   53.69
  -4   2  -4 2598.14  128.39
   4  -2   4 2712.93  131.69
   4  -2   4 2839.72  133.29
  -5   2  -4 1272.27   65.09
   5  -2   4 1270.17   66.39
   5  -2   4 1213.58   65.99
   6  -2   4  802.62   41.50
   6   1  -4 1114.79   66.39
   5   1  -4  805.12   59.19
  -5  -1   4  779.12   46.20
   4   1  -4 2052.49  115.59
  -4  -1   4 1973.90  100.59
   3   1  -4 1216.78   67.19
   3   1  -4 1142.89   70.39
  -3  -1   4 1184.18  116.79
  -3  -1   4 1146.39   58.39
   2   1  -4 5392.06  263.87
   2   1  -4 5857.21  252.27
   2   1  -4 5571.44  262.67
  -2  -1   4 5561.74  252.57
   1   1  -4 2474.35  117.49
   1   1  -4 2550.14  115.29
   1   1  -4 2016.20  118.99
   1   1  -4 2443.16  109.89
  -1  -1   4 2535.85  109.59
  -1  -1   4 2386.76  110.49
   0   1  -4 5922.51  258.27
   0   1  -4 5225.58  259.77
   0  -1   4 5541.25  277.97
  -1   1  -4 3059.79  138.09
  -1   1  -4 2801.32  137.69
  -1   1  -4 2787.42  161.08
   1  -1   4 3240.48  136.69
   1  -1   4 2849.71  137.29
   1  -1   4 3214.88  143.69
   1  -1   4 3211.78  165.28
   1  -1   4 2844.02  136.59
  -2   1  -4 4897.71  254.57
  -2   1  -4 4945.81  227.88
   2  -1   4 5349.06  229.98
   2  -1   4 4867.31  228.18
   2  -1   4 5235.28  230.18
   2  -1   4 4746.73  267.27
   2  -1   4 5160.48  227.28
  -3   1  -4 1546.25  111.09
  -3   1  -4 1622.24   77.29
   3  -1   4 1644.84   80.69
   3  -1   4 1589.44   85.59
   3  -1   4 1629.74   80.69
  -4   1  -4 3491.05  168.58
   4  -1   4 3644.84  179.08
   4  -1   4 3705.13  172.28
   4  -1   4 3639.04  172.88
  -5   1  -4  831.92   46.10
   5  -1   4  809.52   45.90
   5  -1   4  837.82   47.10
   6   0  -4 1197.68   71.29
   5   0  -4  742.83   54.39
  -5   0   4  630.54   42.60
   4   0  -4 1458.35   86.39
  -4   0   4 1397.16   74.59
   3   0  -4 2515.45  128.19
   3   0  -4 2386.76  112.09
   3   0  -4 2572.44  131.69
  -3   0   4 2450.25  116.89
  -3   0   4 2454.05  174.48
   2   0  -4 5699.73  261.57
   2   0  -4 4975.00  253.57
   2   0  -4 5631.64  245.38
   2   0  -4 5636.74  259.17
  -2   0   4 5312.87  246.28
  -2   0   4 5389.66  290.37
  -2   0   4 5443.96  245.78
   1   0  -4  248.48   14.30
   1   0  -4  255.77   13.10
   1   0  -4  236.28   22.50
   1   0  -4  294.87   24.00
  -1   0   4  260.97   14.90
  -1   0   4  269.17   14.10
   0   0  -4 3154.88  156.68
   0   0  -4 3313.77  151.48
   0   0  -4 3505.55  163.78
   0   0   4 3393.76  151.58
  -1   0  -4 5134.39  285.37
  -1   0  -4 6319.17  267.37
   1   0   4 6245.97  287.77
  -2   0  -4 3124.99  165.38
  -2   0  -4 3058.99  142.99
   2   0   4 2827.52  142.09
   2   0   4 3220.88  148.69
   2   0   4 3224.58  144.69
   2   0   4 3201.78  145.09
  -3   0  -4 1373.56   66.79
  -3   0  -4 1308.77   96.89
   3   0   4 1383.66   70.49
   3   0   4 1428.56   72.69
   3   0   4 1336.07   73.79
  -4   0  -4 2119.09  105.99
   4   0   4 2189.38  114.09
   4   0   4 2162.38  109.19
   4   0   4 2290.87  108.09
   5   0   4 1521.95   78.29
   5   0   4 1548.45   76.99
   6  -1  -4  953.30   58.79
  -6   1   4 1006.90   54.79
   5  -1  -4 1850.61  122.59
   4  -1  -4 1090.69   67.59
  -4   1   4 1101.69   60.09
   3  -1  -4 2944.61  142.49
   3  -1  -4 2963.30  132.49
   3  -1  -4 3029.40  151.98
   3  -1  -4 2512.25  138.39
  -3   1   4 2864.81  186.98
  -3   1   4 2830.22  134.39
   2  -1  -4 5840.32  254.97
   2  -1  -4 6079.29  272.77
   2  -1  -4 5700.93  262.27
   2  -1  -4 5184.18  268.07
  -2   1   4 5573.94  256.27
  -2   1   4 5674.03  295.57
  -2   1   4 5544.45  255.37
   1  -1  -4  120.99    8.00
  -1   1   4  106.69    8.30
  -1   1   4  122.39    7.80
   0  -1  -4 3454.45  162.98
   0  -1  -4 3312.47  150.48
   0   1   4 3350.36  149.59
   0   1   4 3507.55  159.38
   0   1   4 3097.69  150.18
   0   1   4 3166.38  149.79
  -1  -1  -4 7044.00  320.77
   1   1   4 7514.35  334.37
   1   1   4 6747.32  320.67
  -2  -1  -4  492.75   28.30
  -2  -1  -4  517.85   40.60
   2   1   4  505.65   31.60
   2   1   4  502.45   25.30
   2   1   4  482.65   30.00
   2   1   4  511.75   28.40
   2   1   4  522.55   29.20
  -3  -1  -4 1908.41   96.39
   3   1   4 2073.19  102.89
   3   1   4 1951.40   97.09
   3   1   4 2085.19   99.49
   4   1   4 1296.57   65.89
   4   1   4 1216.78   70.39
   4   1   4 1271.47   67.59
   5   1   4 1755.82   90.69
   6  -2  -4 1075.39   58.99
  -6   2   4 1001.00   58.79
   4  -2  -4 1256.47   71.59
  -4   2   4 1233.48   66.99
   3  -2  -4 3479.55  169.88
   3  -2  -4 3425.66  173.08
   3  -2  -4 4022.30  192.58
  -3   2   4 3571.54  219.08
  -3   2   4 3672.03  169.68
   2  -2  -4 1776.42  104.69
   2  -2  -4 1816.62  102.09
   2  -2  -4 1854.51   91.09
   2  -2  -4 1890.41   86.79
  -2   2   4 1971.10  120.99
  -2   2   4 1820.92   88.59
  -2   2   4 1881.41   87.39
   1  -2  -4 4418.66  197.18
   1  -2  -4 4309.87  209.08
   1  -2  -4 4184.58  214.48
  -1   2   4 4325.17  197.08
  -1   2   4 4581.24  216.88
  -1   2   4 4327.27  198.38
   0  -2  -4 1846.62   94.19
   0  -2  -4 1733.53   90.09
   0  -2  -4 1785.42   82.69
   0   2   4 1641.14   81.99
   0   2   4 1793.32   81.79
   0   2   4 1875.71   84.49
  -1  -2  -4 5827.62  266.47
  -1  -2  -4 5060.79  263.77
   1   2   4 5935.21  261.37
   1   2   4 5923.51  264.27
   1   2   4 6169.18  259.47
  -2  -2  -4  321.37   22.20
   2   2   4  354.46   21.10
   2   2   4  327.57   21.20
   2   2   4  349.87   24.00
  -3  -2  -4 2152.98  111.19
   3   2   4 2300.67  110.09
   3   2   4 2398.06  112.29
   3   2   4 2310.07  115.19
   4   2   4 1131.19   63.39
   4   2   4 1157.68   61.99
   4   2   4 1358.06   72.99
   5   2   4 1048.80   52.59
   6  -3  -4 1178.68   67.59
  -6   3   4 1136.49   65.09
   5  -3  -4 1860.61  116.09
  -5   3   4 2116.09  108.69
   4  -3  -4  872.51   48.20
   4  -3  -4  942.51   57.19
  -4   3   4  951.20   53.19
   3  -3  -4 4908.61  253.37
   3  -3  -4 5311.67  264.67
  -3   3   4 5159.08  287.27
  -3   3   4 5249.57  239.08
   2  -3  -4 2910.61  133.69
   2  -3  -4 2800.12  154.98
   2  -3  -4 2840.62  150.68
  -2   3   4 3035.10  136.39
  -2   3   4 2766.02  133.69
  -2   3   4 3033.30  166.08
   1  -3  -4 3851.61  175.18
   1  -3  -4 4179.38  193.58
  -1   3   4 3430.16  174.88
  -1   3   4 3828.02  175.18
  -1   3   4 4024.40  186.78
  -1   3   4 3806.52  176.58
   0  -3  -4 2128.89  108.49
   0  -3  -4 2128.99   97.49
   0  -3  -4 2094.89  106.89
   0   3   4 2058.79   96.39
   0   3   4 2013.30  100.79
   0   3   4 2079.99   97.49
   0   3   4 2154.38   99.29
  -1  -3  -4 4487.65  217.28
   1   3   4 4457.75  204.68
   1   3   4 4632.44  208.28
   1   3   4 4641.14  208.88
   1   3   4 4266.57  203.58
  -2  -3  -4  955.40   59.69
  -2  -3  -4  913.31   50.59
   2   3   4  876.61   49.00
   2   3   4  738.23   51.59
   2   3   4  870.71   45.40
   3   3   4 2537.25  125.39
   3   3   4 2565.94  120.39
   3   3   4 2469.05  121.09
  -4  -3  -4  672.13   53.29
   4   3   4  731.13   39.50
   4   3   4  737.33   40.00
   5   3   4 1561.94   77.69
  -6   4   4 1068.79   60.79
  -5   4   4 1468.45   79.99
   4  -4  -4 1327.77   75.59
   4  -4  -4 1151.68   83.69
   4  -4  -4 1195.38   70.39
   4  -4  -4 1221.08   70.79
  -4   4   4 1290.17   68.59
   3  -4  -4 4533.15  236.28
   3  -4  -4 4757.72  245.68
  -3   4   4 4584.94  260.87
  -3   4   4 4778.62  218.38
   2  -4  -4 1879.71  106.59
   2  -4  -4 1871.81   88.39
   2  -4  -4 1899.01  110.09
  -2   4   4 1892.11   90.89
  -2   4   4 1813.02  111.59
  -2   4   4 1800.92   88.49
   1  -4  -4 4537.55  220.98
   1  -4  -4 4402.46  219.08
  -1   4   4 4310.47  204.68
  -1   4   4 4621.64  203.48
   0  -4  -4 2404.46  126.29
   0  -4  -4 2518.15  126.79
   0   4   4 2389.96  113.09
   0   4   4 2515.05  117.79
  -1  -4  -4 4076.19  212.68
  -1  -4  -4 4433.86  212.58
   1   4   4 4542.85  207.48
   1   4   4 4480.75  205.18
   1   4   4 4528.35  201.58
  -2  -4  -4  974.20   55.69
  -2  -4  -4  948.01   61.99
   2   4   4  950.00   49.10
   2   4   4  873.61   47.50
   2   4   4 1009.00   60.19
   2   4   4  965.00   52.99
  -3  -4  -4 2165.48  121.79
   3   4   4 2131.39  105.49
   3   4   4 2378.46  106.59
   3   4   4 2194.38  110.89
   4   4   4  797.52   41.50
  -6   5   4  904.21   51.39
  -5   5   4 1406.46   75.19
  -5   5   4 1622.04   82.19
   4  -5  -4  134.49   29.50
   4  -5  -4  128.79   19.70
  -4   5   4  142.49   15.70
   3  -5  -4 7405.56  349.17
   3  -5  -4 7132.19  342.07
  -3   5   4 5998.40  352.46
  -3   5   4 7198.38  320.17
   2  -5  -4 1308.07   82.09
   2  -5  -4 1194.08   78.59
  -2   5   4 1177.28   74.69
  -2   5   4 1151.38   61.89
   1  -5  -4 2170.58  118.59
   1  -5  -4 2142.19  118.99
  -1   5   4 2219.98  105.69
  -1   5   4 1992.20  101.69
  -1   5   4 2275.47  101.29
   0  -5  -4 2152.08  115.79
   0  -5  -4 2236.38  118.69
   0   5   4 2206.88  107.09
   0   5   4 2096.79  100.89
  -1  -5  -4 3074.29  155.58
  -1  -5  -4 3066.49  155.78
   1   5   4 3045.50  148.99
   1   5   4 3034.50  141.39
  -2  -5  -4 2936.91  166.38
   2   5   4 3320.77  159.08
   2   5   4 3168.78  146.49
   3   5   4  388.36   35.60
   3   5   4  392.16   23.50
   4   5   4 1252.17   60.29
  -6   6   4  850.91   47.10
  -5   6   4 1199.28   62.59
  -5   6   4 1018.40   60.89
   4  -6  -4 1861.71  110.69
   4  -6  -4 1846.82  115.09
  -4   6   4 1797.52   92.79
  -4   6   4 1945.31   96.79
   3  -6  -4 1280.27   90.49
   3  -6  -4 1367.46   90.39
  -3   6   4 1371.66   69.99
  -3   6   4 1297.77   70.39
   2  -6  -4 1744.03  105.69
   2  -6  -4 1767.82  105.19
  -2   6   4 1627.64   84.89
  -2   6   4 1746.73   87.39
   1  -6  -4 1548.84   96.39
   1  -6  -4 1568.74   93.39
  -1   6   4 1595.14   82.19
  -1   6   4 1610.84   76.19
   0  -6  -4 2272.07  125.89
   0  -6  -4 2410.96  130.89
   0   6   4 2454.95  118.69
   0   6   4 2341.97  110.49
  -1  -6  -4 2251.47  123.69
  -1  -6  -4 2402.96  124.49
   1   6   4 2304.17  108.39
   1   6   4 2256.67  117.29
   2   6   4  750.52   41.70
   3   6   4 1218.98   59.59
  -5   7   4  960.40   53.19
   4  -7  -4 1766.82  108.59
  -4   7   4 1652.03   86.69
  -4   7   4 1715.03   88.49
   3  -7  -4 1470.05   95.19
   3  -7  -4 1510.05   97.29
  -3   7   4 1334.67   74.09
  -3   7   4 1472.95   76.59
   2  -7  -4 2224.28  129.79
   2  -7  -4 2372.96  135.59
  -2   7   4 2342.57  115.99
   1  -7  -4  927.91   67.99
   1  -7  -4  844.52   61.09
  -1   7   4  941.01   53.79
   0  -7  -4 1979.10  115.29
   0  -7  -4 1930.71  109.99
   0   7   4 1980.60   93.89
   0   7   4 2051.89  103.79
  -1  -7  -4 1452.55   84.09
   1   7   4 1359.56   78.89
   1   7   4 1467.25   69.79
   2   7   4  891.21   54.89
   2   7   4  897.41   45.40
   3   7   4  487.05   25.80
  -5   8   4  828.82   45.00
   4  -8  -4 1979.80  112.19
  -4   8   4 1737.53   91.19
  -4   8   4 1788.52   90.79
   3  -8  -4 1039.00   73.19
  -3   8   4  922.81   53.19
  -3   8   4  842.92   57.29
   2  -8  -4 3204.18  177.58
   2  -8  -4 3549.45  187.68
  -2   8   4 3487.85  166.58
   1  -8  -4  441.76   43.50
  -1   8   4  445.36   33.20
   0  -8  -4 2772.02  150.28
   0   8   4 2678.33  129.49
   0   8   4 2878.51  141.19
   1   8   4  715.23   36.60
   1   8   4  667.23   45.50
   2   8   4  830.32   50.69
   2   8   4  895.61   43.20
   4  -9  -4 1659.63   96.19
  -4   9   4 1605.44   82.29
   3  -9  -4 1313.67   85.99
  -3   9   4 1275.47   69.79
   2  -9  -4 3000.30  164.08
  -2   9   4 2862.71  144.79
   1  -9  -4  689.33   55.59
  -1   9   4  681.53   45.10
   0  -9  -4 1645.44   94.09
   0   9   4 1595.24   87.99
   1   9   4 1097.69   63.29
   4 -10  -4  768.12   58.99
   3 -10  -4 1540.65   91.09
  -3  10   4 1472.95   77.79
   2 -10  -4 1418.96  112.79
   1 -10  -4  624.84   48.10
  -1  10   4  667.53   46.00
   0 -10  -4 1897.61  104.29
   0  10   4 1896.51   98.49
   2 -11  -4  552.54   55.29
  -2  11   4  558.74   35.50
   1 -12   5  684.23   40.80
   2 -12   5 1011.30   56.79
   1  11  -5  397.36   30.70
   0  11  -5 1504.15   84.59
   0 -11   5 1661.63   82.79
   1 -11   5  309.87   25.80
   2 -11   5 1558.94   85.49
   3 -11   5  498.15   33.90
   3 -11   5  518.65   35.50
   4 -11   5 1440.56   74.69
   2  10  -5  993.00   59.99
   1  10  -5  513.95   39.10
  -1 -10   5  506.05   37.20
   0  10  -5 1746.43   96.09
   0 -10   5 1805.92   94.39
  -1  10  -5  704.73   45.70
   1 -10   5  732.63   48.80
   2 -10   5 1991.50  107.99
   3 -10   5  346.77   29.00
   3 -10   5  335.17   27.60
  -4  10  -5 1371.16   68.89
   4 -10   5 1247.38   69.19
   4 -10   5 1262.67   70.99
   3   9  -5  551.44   39.00
   2   9  -5 1461.55   85.19
   1   9  -5 1152.48   71.09
  -1  -9   5 1139.29   63.19
   0   9  -5 1954.70  106.59
   0  -9   5 2034.80  105.79
  -1   9  -5 1017.70   59.89
   1  -9   5 1029.70   63.59
   2  -9   5 1317.27   83.39
  -3   9  -5 1226.58   63.89
   3  -9   5 1029.90   75.89
   3  -9   5 1220.98   70.09
  -4   9  -5 1164.48   60.49
   4  -9   5 1102.89   64.69
   4  -9   5 1026.00   69.89
  -5   9  -5  758.22   44.60
   5  -9   5  741.73   44.60
   3   8  -5  662.03   43.50
   3   8  -5  815.62   58.49
   2   8  -5 1266.97   77.39
   2   8  -5 1190.68   69.49
  -2  -8   5 1221.08   63.99
   1   8  -5 2523.55  131.99
   1   8  -5 2742.73  138.59
  -1  -8   5 2612.14  130.49
   0   8  -5 1313.37   76.89
   0   8  -5 1325.57   73.59
   0  -8   5 1450.15   77.79
  -1   8  -5 1864.21   98.39
   1  -8   5 1954.20  103.39
  -2   8  -5 1480.75   79.59
   2  -8   5 1631.94   88.49
  -3   8  -5 2592.24  122.39
   3  -8   5 2522.55  128.99
   3  -8   5 2414.36  137.99
   3  -8   5 2397.86  127.89
  -4   8  -5 1389.86   71.19
   4  -8   5 1199.38   70.69
   4  -8   5 1442.16   76.89
  -5   8  -5  783.22   44.20
   5  -8   5  739.93   45.80
   4   7  -5  761.72   51.39
   4   7  -5  746.33   49.50
   3   7  -5 1129.79   72.79
   3   7  -5 1062.59   64.79
   2   7  -5 1733.53   94.79
   2   7  -5 1718.93   99.69
  -2  -7   5 1723.73   88.39
   1   7  -5 1300.17   75.39
   1   7  -5 1262.77   71.69
  -1  -7   5 1225.68   68.79
   0   7  -5 1793.92   94.59
   0   7  -5 1750.22   91.59
   0  -7   5 1806.72   94.59
  -1   7  -5 3753.42  180.78
  -1   7  -5 3662.53  179.38
   1  -7   5 3975.80  186.28
  -2   7  -5 1105.19   58.09
   2  -7   5 1097.59   64.69
   2  -7   5 1058.89   68.89
  -3   7  -5 3386.26  156.58
   3  -7   5 3226.38  161.48
   3  -7   5 3054.79  170.58
   3  -7   5 3420.56  163.48
  -4   7  -5 1009.10   54.69
   4  -7   5  920.51   58.09
   4  -7   5  988.60   76.19
  -5   7  -5 1606.84   83.99
   5  -7   5 1639.54   85.99
   4   6  -5  501.35   41.50
   4   6  -5  443.56   42.70
   3   6  -5 1387.96  100.09
   2   6  -5 1233.58   70.59
   2   6  -5 1202.08   73.49
  -2  -6   5 1094.39   62.69
   1   6  -5 2264.57  118.39
   1   6  -5 2187.08  112.59
  -1  -6   5 2167.88  109.99
   0   6  -5  930.81   53.89
   0   6  -5  923.21   51.69
   0  -6   5  936.01   53.89
  -1   6  -5 4643.94  217.98
  -1   6  -5 4452.85  217.48
   1  -6   5 4955.90  223.38
  -2   6  -5  719.93   39.80
   2  -6   5  655.03   47.70
   2  -6   5  722.63   44.90
  -3   6  -5 3627.94  169.38
   3  -6   5 3302.97  172.08
   3  -6   5 3820.42  175.88
   3  -6   5 3605.54  183.78
  -4   6  -5 1040.10   55.99
   4  -6   5  997.40   66.99
   4  -6   5  993.10   59.39
  -5   6  -5 1651.63   84.89
   5  -6   5 1630.84   85.99
   5   5  -5 1564.54   87.79
   4   5  -5  242.28   31.20
   4   5  -5  295.47   28.30
   3   5  -5 3928.41  201.58
   3   5  -5 3969.70  198.28
   2   5  -5  410.46   32.50
   2   5  -5  369.36   33.00
  -2  -5   5  381.06   26.00
   1   5  -5 3387.66  160.98
   1   5  -5 3247.28  158.58
  -1  -5   5 3179.98  155.38
   0   5  -5 1268.37   68.69
   0   5  -5 1314.37   68.39
   0  -5   5 1267.97   64.39
   0  -5   5 1319.67   68.49
  -1   5  -5 3116.09  146.49
  -1   5  -5 3180.08  147.49
   1  -5   5 3184.38  152.68
   1  -5   5 2997.70  144.29
   1  -5   5 3321.07  151.28
   1  -5   5 2914.31  146.39
  -2   5  -5 1747.53   82.79
  -2   5  -5 1489.35  128.89
   2  -5   5 1781.62   87.09
  -3   5  -5 1469.35   75.39
   3  -5   5 1544.75   87.59
   3  -5   5 1573.64   80.39
   3  -5   5 1415.86   76.19
  -4   5  -5 1446.16   75.79
   4  -5   5 1503.55   79.49
   4  -5   5 1446.26   87.19
  -5   5  -5 1522.45   78.89
   5  -5   5 1487.85   79.39
   5   4  -5 1592.74   87.89
   4   4  -5 1247.18   82.19
   4   4  -5 1329.97   80.79
   3   4  -5 1721.23   97.79
   3   4  -5 1647.54   96.69
   2   4  -5 1598.54   87.99
   2   4  -5 1564.04   87.29
  -2  -4   5 1604.24   79.09
   1   4  -5 5382.56  245.28
   1   4  -5 5115.79  243.58
  -1  -4   5 5312.97  240.28
  -1  -4   5 5049.29  237.68
   0   4  -5 3015.10  136.99
   0   4  -5 2688.93  132.79
   0   4  -5 2934.71  139.39
   0  -4   5 2841.02  134.39
   0  -4   5 2771.92  134.49
   0  -4   5 2836.32  132.79
   0  -4   5 2922.41  136.09
  -1   4  -5 1798.72   87.89
   1  -4   5 1830.22   91.19
   1  -4   5 1805.72   89.19
   1  -4   5 1709.63   86.29
   1  -4   5 1848.42   85.29
  -2   4  -5  761.22   40.60
  -2   4  -5  699.43   73.79
   2  -4   5  779.52   43.10
   2  -4   5  731.13   42.20
   2  -4   5  796.32   48.10
   2  -4   5  778.82   40.50
  -3   4  -5 5116.19  238.68
   3  -4   5 5374.16  242.88
   3  -4   5 5588.34  251.37
   3  -4   5 4655.63  236.58
  -4   4  -5  615.44   37.30
   4  -4   5  596.64   45.70
   4  -4   5  654.03   40.40
  -5   4  -5 1201.48   63.89
   5  -4   5 1151.78   63.69
   5   3  -5 1299.77   79.79
   4   3  -5  935.11   63.59
   4   3  -5  874.61   60.89
  -4  -3   5  753.52   48.00
   3   3  -5 4695.63  229.68
   3   3  -5 4509.35  225.08
  -3  -3   5 4587.84  214.98
   2   3  -5 1923.11   99.49
   2   3  -5 1848.62   88.89
   2   3  -5 1954.30  101.59
  -2  -3   5 1838.72   90.79
   1   3  -5 3596.64  180.68
   1   3  -5 3384.26  173.58
   1   3  -5 4028.70  178.38
  -1  -3   5 3895.01  171.08
  -1  -3   5 3771.82  176.48
   0   3  -5 4531.65  209.78
   0   3  -5 4238.78  211.68
   0   3  -5 4665.03  209.18
   0   3  -5 4388.56  205.38
   0  -3   5 4567.94  205.68
   0  -3   5 4666.93  207.68
   0  -3   5 4500.85  204.98
  -1   3  -5 1954.90  112.39
   1  -3   5 2295.67  106.99
   1  -3   5 2350.56  102.29
   1  -3   5 2120.19  102.39
   1  -3   5 2206.38  103.29
   1  -3   5 2178.08  104.39
  -2   3  -5 3786.72  180.38
  -2   3  -5 3842.52  222.68
   2  -3   5 4060.09  180.48
   2  -3   5 4037.00  187.98
   2  -3   5 3717.13  180.08
   2  -3   5 4022.50  182.48
  -3   3  -5 1728.33  128.99
   3  -3   5 1910.21  101.69
   3  -3   5 2043.90  101.09
  -4   3  -5 1527.05   79.09
   4  -3   5 1514.75   88.19
   4  -3   5 1625.84   82.39
  -5   3  -5 1147.79   61.99
   5  -3   5 1132.99   61.39
   5   2  -5 1145.99   75.99
  -5  -2   5 1129.89   64.49
   4   2  -5 1305.77   81.19
  -4  -2   5 1053.89   63.69
   3   2  -5 2414.86  123.59
  -3  -2   5 2185.58  108.09
  -3  -2   5 2104.59  195.68
   2   2  -5 5036.20  239.88
   2   2  -5 5089.09  236.48
   2   2  -5 4847.51  235.78
   2   2  -5 5246.07  227.48
  -2  -2   5 4754.52  227.48
   1   2  -5 2223.28  110.69
   1   2  -5 2343.97  110.59
   1   2  -5 2265.57  104.49
  -1  -2   5 2250.47  103.69
  -1  -2   5 2140.09  104.59
   0   2  -5 5352.96  273.77
   0   2  -5 6231.28  277.77
   0   2  -5 5642.64  267.87
   0  -2   5 6003.20  267.47
   0  -2   5 6411.76  308.27
  -1   2  -5 1824.82   89.29
  -1   2  -5 1845.62   88.29
   1  -2   5 1956.10  127.79
   1  -2   5 1852.81   90.49
   1  -2   5 1870.91   87.39
   1  -2   5 1739.83   86.49
   1  -2   5 1869.91   87.49
  -2   2  -5 6152.78  355.76
   2  -2   5 5597.24  274.37
   2  -2   5 6150.58  276.97
   2  -2   5 6238.68  277.97
   2  -2   5 6274.47  283.17
  -3   2  -5 1884.11   87.59
  -3   2  -5 1535.65  140.69
   3  -2   5 1559.94   91.09
   3  -2   5 1941.31   90.19
   3  -2   5 1950.01   96.69
  -4   2  -5 1872.01   92.69
   4  -2   5 1826.72   92.59
   4  -2   5 1937.71   94.89
   4  -2   5 1772.62  100.29
  -5   2  -5  922.61   53.09
   5  -2   5  988.40   52.49
   6   1  -5  812.02   58.49
   5   1  -5  608.04   50.69
  -5  -1   5  564.34   38.50
   4   1  -5 2570.34  145.39
  -4  -1   5 2664.53  129.89
   3   1  -5  902.01   60.79
   3   1  -5  869.91   57.09
  -3  -1   5  894.11   47.20
   2   1  -5 3544.85  186.38
   2   1  -5 4149.38  184.68
   2   1  -5 3940.11  187.28
   2   1  -5 3419.96  179.28
  -2  -1   5 3935.81  175.88
  -2  -1   5 3994.10  176.08
   1   1  -5 2477.25  112.09
   1   1  -5 2542.35  122.79
  -1  -1   5 2344.47  111.29
  -1  -1   5 2360.86  112.39
   0   1  -5 2692.13  133.29
   0   1  -5 2675.63  126.59
   0   1  -5 2792.22  138.39
   0  -1   5 2986.50  155.88
   0  -1   5 2627.04  125.29
   0  -1   5 2699.93  125.89
   0  -1   5 2773.92  126.59
  -1   1  -5 5100.89  234.18
  -1   1  -5 4982.70  235.68
   1  -1   5 5298.37  232.18
   1  -1   5 5081.19  264.17
   1  -1   5 5408.36  236.28
   1  -1   5 4984.90  232.08
   1  -1   5 5101.09  232.98
  -2   1  -5 3821.92  176.18
  -2   1  -5 3665.83  206.68
   2  -1   5 3367.46  175.08
   2  -1   5 4015.50  175.68
   2  -1   5 3976.00  176.58
   2  -1   5 3975.80  181.18
  -3   1  -5  952.70   82.29
  -3   1  -5 1052.79   55.19
   3  -1   5 1085.09   61.79
   3  -1   5 1113.49   55.99
   3  -1   5 1096.39   56.69
  -4   1  -5 2840.92  138.99
   4  -1   5 2987.00  139.29
   4  -1   5 2943.11  139.69
   4  -1   5 2753.82  145.59
  -5   1  -5  651.43   40.40
   5  -1   5  683.03   38.30
   6   0  -5  843.62   55.19
   5   0  -5  799.92   59.09
  -5   0   5  747.33   49.00
   4   0  -5 3118.49  165.98
  -4   0   5 3158.58  152.58
   3   0  -5  772.32   51.49
   3   0  -5  746.83   52.99
  -3   0   5  686.33   82.69
  -3   0   5  739.13   40.20
   2   0  -5 2892.71  133.79
   2   0  -5 2849.01  148.49
   2   0  -5 3008.30  166.18
  -2   0   5 2854.51  134.89
  -2   0   5 2952.50  134.59
   1   0  -5 2153.18  112.39
   1   0  -5 2143.49   97.89
   1   0  -5 1950.90  112.99
  -1   0   5 2063.79   96.99
  -1   0   5 2225.28   98.59
   0   0  -5 4112.59  194.08
   0   0  -5 4037.50  180.08
   0   0  -5 3790.12  186.68
   0   0   5 3579.54  178.08
   0   0   5 3939.41  178.58
   0   0   5 4303.77  200.58
   0   0   5 3937.71  179.98
   0   0   5 3926.51  179.48
  -1   0  -5 1391.56   71.09
  -1   0  -5 1439.76   69.39
   1   0   5 1438.86   66.49
   1   0   5 1359.96   87.09
   1   0   5 1338.47   67.09
   1   0   5 1451.65   70.29
   1   0   5 1427.76   67.49
   1   0   5 1444.26   65.79
  -2   0  -5 3072.09  151.08
  -2   0  -5 3083.29  178.88
   2   0   5 3197.78  186.38
   2   0   5 3349.86  154.78
   2   0   5 3372.06  150.08
   2   0   5 3267.87  150.18
  -3   0  -5 1127.79   59.49
  -3   0  -5  995.00  103.89
   3   0   5 1128.19   62.59
   3   0   5 1078.89   57.19
   3   0   5 1094.99   57.29
  -4   0  -5 3126.39  155.78
   4   0   5 3347.47  154.38
   4   0   5 3203.88  154.08
   4   0   5 3241.28  160.38
   6  -1  -5 1589.04   83.09
  -6   1   5 1411.06   78.69
   5  -1  -5  953.30   61.59
  -5   1   5  868.61   55.79
   4  -1  -5 2937.91  155.58
  -4   1   5 3095.89  147.29
   3  -1  -5  792.62   57.29
   3  -1  -5  681.33   48.70
   3  -1  -5  751.52   48.00
  -3   1   5  764.82   41.00
  -3   1   5  682.33   76.79
   2  -1  -5 4680.53  227.58
   2  -1  -5 4274.37  212.88
   2  -1  -5 4810.02  205.88
   2  -1  -5 3990.00  222.48
  -2   1   5 4792.02  251.07
  -2   1   5 4541.65  206.88
  -2   1   5 4526.95  205.88
   1  -1  -5 2295.47  103.39
   1  -1  -5 2338.77  117.89
  -1   1   5 2199.68  103.69
  -1   1   5 2083.39  102.29
   0  -1  -5 3222.78  152.68
   0  -1  -5 3004.70  143.89
   0  -1  -5 3470.85  159.08
   0   1   5 2772.52  143.09
   0   1   5 3368.46  145.29
   0   1   5 3181.98  142.69
   0   1   5 2935.91  142.59
   0   1   5 3208.08  155.08
   1   1   5 1511.15   74.09
   1   1   5 1450.95   72.39
   1   1   5 1613.64   75.99
   1   1   5 1539.35   85.39
  -2  -1  -5 1892.01   94.99
   2   1   5 1907.81   91.69
   2   1   5 1942.51   95.79
   2   1   5 1908.41   91.69
  -3  -1  -5 1373.46   72.09
   3   1   5 1374.66   69.79
   3   1   5 1387.96   74.69
   3   1   5 1340.27   69.29
   4   1   5 1622.04  102.59
   4   1   5 2122.59   96.29
   4   1   5 2042.20   96.29
   5   1   5  433.06   25.40
   6  -2  -5 2095.69  102.29
  -6   2   5 1530.25   93.09
   5  -2  -5  884.01   58.19
  -5   2   5 1033.30   59.29
   4  -2  -5 2008.70  108.49
  -4   2   5 2124.69  105.09
   3  -2  -5 2479.35  116.49
   3  -2  -5 2344.57  133.39
   3  -2  -5 2618.64  144.39
   3  -2  -5 2347.27  121.49
  -3   2   5 2416.66  166.18
  -3   2   5 2454.05  117.79
   2  -2  -5 5989.00  283.27
   2  -2  -5 6094.29  299.57
   2  -2  -5 6303.67  278.77
  -2   2   5 6035.60  278.87
  -2   2   5 6253.57  280.77
  -2   2   5 6249.87  318.57
   1  -2  -5  902.11   47.70
   1  -2  -5  922.91   57.59
   1  -2  -5  955.40   45.60
   1  -2  -5  930.31   64.59
  -1   2   5  873.21   44.70
  -1   2   5  923.91   46.30
  -1   2   5  917.51   61.89
   0  -2  -5 3732.63  177.88
   0  -2  -5 3335.97  163.68
   0  -2  -5 3690.33  174.28
   0   2   5 3324.87  162.28
   0   2   5 3794.52  165.38
   0   2   5 3604.94  162.78
  -1  -2  -5 2130.89  112.69
   1   2   5 2099.99  101.39
   1   2   5 2049.49   98.19
   1   2   5 2122.59  101.19
  -2  -2  -5 2429.16  122.89
   2   2   5 2487.55  117.19
   2   2   5 2616.64  122.69
   2   2   5 2409.76  124.69
   3   2   5 1475.65   74.49
   3   2   5 1481.65   79.59
   3   2   5 1504.45   74.59
  -4  -2  -5  562.84   49.50
   4   2   5  687.43   36.70
  -6   3   5  988.20   57.79
   5  -3  -5 2455.75  131.09
  -5   3   5 2880.71  135.99
   4  -3  -5  711.03   45.30
   4  -3  -5  805.42   69.79
  -4   3   5  759.12   45.70
   3  -3  -5 3593.84  207.28
   3  -3  -5 3724.23  199.38
   3  -3  -5 3727.33  178.68
  -3   3   5 3835.82  227.38
  -3   3   5 3998.10  179.08
   2  -3  -5 3060.29  174.38
   2  -3  -5 3440.86  169.48
   2  -3  -5 3216.18  146.89
  -2   3   5 3220.58  149.29
  -2   3   5 3062.49  177.48
  -2   3   5 3045.70  146.69
   1  -3  -5 2847.62  144.29
   1  -3  -5 2843.22  128.89
  -1   3   5 2714.43  127.89
  -1   3   5 2522.95  127.79
  -1   3   5 2816.52  129.79
  -1   3   5 2909.11  135.99
   0  -3  -5 4079.99  197.48
   0  -3  -5 4037.80  195.28
   0   3   5 3886.61  181.48
   0   3   5 3919.21  184.08
   0   3   5 4061.29  185.28
  -1  -3  -5 1949.70   99.39
  -1  -3  -5 1694.43  100.39
   1   3   5 1819.82   91.29
   1   3   5 1910.91   91.99
   1   3   5 1909.41   88.19
  -2  -3  -5 2572.14  126.69
  -2  -3  -5 2467.25  134.99
   2   3   5 2268.87  125.29
   2   3   5 2555.64  117.79
   2   3   5 2535.15  122.39
  -3  -3  -5 2019.70  116.99
   3   3   5 2059.49   97.79
   3   3   5 1954.90  102.69
  -4  -3  -5  566.44   52.39
   4   3   5  575.24   32.10
  -6   4   5 1007.00   57.39
  -5   4   5 1018.30   59.29
   4  -4  -5 1632.84  106.39
   4  -4  -5 1720.83  122.89
  -4   4   5 1948.80   93.79
   3  -4  -5 3558.64  199.88
  -3   4   5 3645.74  167.48
  -3   4   5 3291.27  206.28
   2  -4  -5 1683.03  103.69
   2  -4  -5 1608.14   97.49
  -2   4   5 1591.64   79.59
  -2   4   5 1501.35   96.89
   1  -4  -5 2735.53  152.78
   1  -4  -5 2791.22  154.58
  -1   4   5 3064.39  135.89
  -1   4   5 3126.39  140.59
   0  -4  -5 2878.01  147.19
   0  -4  -5 2813.52  146.79
   0   4   5 2851.61  135.39
   0   4   5 2774.72  130.09
  -1  -4  -5 4521.85  217.98
  -1  -4  -5 4383.76  218.38
   1   4   5 4473.45  209.18
   1   4   5 4388.96  203.18
   1   4   5 4452.65  207.38
  -2  -4  -5  753.72   49.50
  -2  -4  -5  733.43   54.09
   2   4   5  803.92   41.50
   2   4   5  804.22   50.19
   2   4   5  756.02   45.10
   3   4   5 1969.40  104.09
   3   4   5 2183.18   99.99
   4   4   5  559.34   30.10
  -6   5   5  844.22   48.10
  -5   5   5 1709.03   89.69
   4  -5  -5  880.31   78.49
   4  -5  -5  773.12   67.19
  -4   5   5  932.01   52.59
   3  -5  -5 2495.75  147.79
   3  -5  -5 2261.57  137.69
  -3   5   5 2286.47  116.19
   2  -5  -5 1144.69   78.39
   2  -5  -5 1059.99   74.79
  -2   5   5 1023.70   56.59
   1  -5  -5 4345.06  228.08
   1  -5  -5 4446.35  225.18
  -1   5   5 4451.45  202.98
  -1   5   5 4531.25  212.68
   0  -5  -5 1306.37   78.29
   0   5   5 1221.28   60.29
   0   5   5 1226.58   66.49
  -1  -5  -5 3067.59  154.98
  -1  -5  -5 2901.51  153.88
   1   5   5 2959.30  137.09
   1   5   5 2860.11  144.29
  -2  -5  -5  596.94   45.80
   2   5   5  599.84   32.60
   2   5   5  549.95   40.40
   3   5   5 2502.85  117.49
  -5   6   5 1105.99   66.89
  -5   6   5 1429.06   69.49
  -4   6   5  916.01   66.49
  -4   6   5  882.01   60.79
   3  -6  -5 2503.45  149.79
   3  -6  -5 2600.94  148.09
  -3   6   5 2423.86  123.59
  -3   6   5 2551.74  123.89
   2  -6  -5 1293.97   86.99
   2  -6  -5 1246.38   86.49
  -2   6   5 1276.27   68.29
  -2   6   5 1274.57   68.39
   1  -6  -5 2824.72  158.28
   1  -6  -5 2889.21  156.48
  -1   6   5 2891.31  133.59
  -1   6   5 2866.11  140.79
   0  -6  -5  673.53   53.39
   0  -6  -5  632.74   49.90
   0   6   5  672.13   35.20
   0   6   5  695.53   42.70
  -1  -6  -5 2109.59  115.99
  -1  -6  -5 1969.50  113.69
   1   6   5 2098.09   97.69
   1   6   5 2049.79  106.49
   2   6   5 1213.38   70.09
   2   6   5 1254.67   61.09
   3   6   5  790.32   39.90
  -5   7   5 1524.55   77.99
   4  -7  -5  833.92   65.49
  -4   7   5  773.92   45.80
  -4   7   5  790.92   46.40
   3  -7  -5 2578.54  144.19
   3  -7  -5 2383.86  140.89
  -3   7   5 2491.85  120.69
  -3   7   5 2205.58  116.79
   2  -7  -5  914.01   69.59
   2  -7  -5 1022.40   74.59
  -2   7   5  991.50   56.69
   1  -7  -5 3080.69  168.38
   1  -7  -5 3266.67  175.48
  -1   7   5 3098.19  154.68
   0  -7  -5  538.25   44.20
   0  -7  -5  551.24   47.20
   0   7   5  493.25   35.80
   0   7   5  467.25   27.60
  -1  -7  -5 1383.26   82.79
   1   7   5 1303.07   75.19
   1   7   5 1409.46   66.99
   2   7   5  912.71   56.79
   2   7   5 1088.89   50.49
  -5   8   5 1157.68   60.19
   4  -8  -5 1363.06   86.69
  -4   8   5 1532.25   79.99
  -4   8   5 1144.59   69.29
   3  -8  -5 2040.00  120.89
   3  -8  -5 2070.29  124.39
  -3   8   5 2080.19  104.89
   2  -8  -5 1662.03  104.69
   2  -8  -5 1530.75   96.99
  -2   8   5 1581.64   84.89
   1  -8  -5 1208.78   83.49
  -1   8   5 1200.18   68.69
   0  -8  -5 1529.05   92.39
   0   8   5 1438.86   72.89
   0   8   5 1559.14   83.39
   1   8   5 1306.67   72.79
   1   8   5 1321.47   63.99
   2   8   5  654.43   33.20
   4  -9  -5 1061.59   66.49
  -4   9   5  959.30   53.69
   3  -9  -5 1709.43  101.79
  -3   9   5 1593.54   85.09
   2  -9  -5 1666.13  103.59
  -2   9   5 1623.34   86.79
   1  -9  -5  858.71   63.09
  -1   9   5  861.51   52.59
   0  -9  -5 1746.63  102.09
   0   9   5 1946.11  107.19
   1   9   5  971.70   57.39
   3 -10  -5  364.66   32.50
  -3  10   5  287.37   22.30
   2 -10  -5 2591.44  137.79
  -2  10   5 2472.75  124.49
   1 -10  -5  451.05   36.60
  -1  10   5  425.66   30.30
   0  10   5 1527.25   82.29
   1 -12   6  566.84   40.70
   2 -12   6  960.90   64.09
   1  11  -6  628.24   43.30
   0  11  -6 1085.19   66.89
   0 -11   6 1231.78   63.19
   2 -11   6  680.13   46.60
   2 -11   6  526.25   35.90
   3 -11   6 1063.69   61.89
   3 -11   6 1036.50   58.59
   2  10  -6  768.32   48.80
   1  10  -6  656.63   51.49
  -1 -10   6  641.04   37.30
   0  10  -6 2236.38  117.79
   0 -10   6 2310.37  115.89
   1 -10   6  509.95   37.30
   2 -10   6 1358.86   77.39
   3 -10   6  878.21   51.59
   3 -10   6  773.52   54.19
  -4  10  -6 1206.38   69.79
   4 -10   6 1358.96   68.99
   2   9  -6 1747.83   97.59
   1   9  -6  640.84   46.30
   1   9  -6  635.14   41.70
  -1  -9   6  652.73   40.00
   0   9  -6 1657.03   98.49
   0   9  -6 1660.13  109.09
   2  -9   6 2012.90  104.29
   2  -9   6 1521.95  104.69
  -3   9  -6  911.21   52.99
   3  -9   6  898.01   55.09
   3  -9   6  890.21   54.89
  -4   9  -6 1631.54   83.99
   4  -9   6 1439.86   94.79
   3   8  -6  640.24   46.30
   3   8  -6  641.14   41.50
   2   8  -6 1426.66   86.19
   2   8  -6 1401.06   80.59
  -2  -8   6 1502.95   75.09
   1   8  -6  817.82   56.19
   1   8  -6  870.71   53.79
  -1  -8   6  808.92   49.60
   0   8  -6 2901.71  147.29
   0   8  -6 2968.50  144.99
   0  -8   6 2847.81  145.69
  -1   8  -6 1124.59   64.99
  -1   8  -6 1124.59   65.99
   1  -8   6 1225.48   72.99
   1  -8   6 1333.17   71.79
  -2   8  -6 2733.43  130.39
   2  -8   6 2741.43  134.99
   2  -8   6 2335.57  137.49
   3  -8   6  707.43   53.39
  -4   8  -6 2247.88  113.49
   4  -8   6 2256.77  115.19
  -5   8  -6  695.23   41.00
   5  -8   6  624.24   39.20
   4   7  -6  888.01   51.59
   3   7  -6  802.52   52.59
   3   7  -6  837.82   58.99
   2   7  -6 1019.40   63.69
   2   7  -6 1037.90   67.39
  -2  -7   6 1005.90   56.79
   1   7  -6 1592.04   91.59
   1   7  -6 1709.53   90.39
  -1  -7   6 1563.94   85.19
   0   7  -6 2809.22  141.79
   0   7  -6 2821.32  139.89
   0  -7   6 2833.22  141.09
  -1   7  -6  948.71   54.69
  -1   7  -6  859.61   52.49
   1  -7   6  999.90   58.09
   1  -7   6  990.20   59.79
  -2   7  -6 2382.46  118.19
   2  -7   6 2505.85  122.69
   2  -7   6 2235.18  118.69
   2  -7   6 2354.46  126.89
  -3   7  -6 1453.95   76.79
   3  -7   6 1524.85   80.39
   3  -7   6 1384.76   86.79
   3  -7   6 1403.76   77.79
  -4   7  -6 2599.74  126.69
   4  -7   6 2468.45  127.49
  -5   7  -6  542.15   34.70
   5  -7   6  495.05   33.20
   4   6  -6 1861.41  103.09
   4   6  -6 2053.19  114.49
   3   6  -6  890.81   62.79
   3   6  -6  915.31   58.99
  -3  -6   6  827.92   49.90
   2   6  -6 1065.59   68.39
   2   6  -6 1099.09   66.89
  -2  -6   6 1015.00   58.49
   1   6  -6 1157.28   66.59
   1   6  -6 1125.79   68.49
  -1  -6   6 1158.28   63.29
   0   6  -6 3227.68  154.78
   0   6  -6 3053.29  152.78
   0  -6   6 3374.66  156.58
   0  -6   6 2954.80  150.48
  -1   6  -6 2472.95  121.39
  -1   6  -6 2423.46  120.39
   1  -6   6 2547.55  128.09
   1  -6   6 2318.87  122.99
  -2   6  -6  364.76   25.90
   2  -6   6  345.07   30.50
   2  -6   6  365.36   31.90
   2  -6   6  348.47   27.20
  -3   6  -6 2968.60  138.29
   3  -6   6 2872.41  140.09
   3  -6   6 2728.93  136.99
   3  -6   6 2688.33  167.48
  -4   6  -6 1711.23   92.29
   4  -6   6 1898.71  108.49
   4  -6   6 1764.62   93.79
   5  -6   6 1448.16   84.69
   4   5  -6  586.74   48.40
   4   5  -6  590.54   44.30
   3   5  -6 2121.09  115.49
   3   5  -6 2002.40  116.59
   2   5  -6 1890.21  105.99
   2   5  -6 1953.90  105.69
  -2  -5   6 1925.91   96.69
   1   5  -6 1881.41   97.29
   1   5  -6 1807.22   98.09
  -1  -5   6 1875.51   93.09
   0   5  -6 2490.65  123.39
   0   5  -6 2320.77  119.99
   0  -5   6 2405.26  116.89
   0  -5   6 2542.35  120.39
  -1   5  -6 1813.02   91.59
  -1   5  -6 1757.92   91.39
   1  -5   6 1623.84   91.79
   1  -5   6 1846.62   88.59
   1  -5   6 1945.11   92.49
  -2   5  -6  853.11   48.20
   2  -5   6  902.21   49.20
   2  -5   6  802.02   52.79
   2  -5   6  843.92   48.20
  -3   5  -6 4167.28  199.48
   3  -5   6 4306.27  201.38
   3  -5   6 4196.88  209.08
   4  -5   6  467.25   39.00
  -5   5  -6 1068.19   61.19
   5  -5   6 1058.59   58.19
   5   4  -6 1363.16   78.09
   4   4  -6 1019.80   66.39
  -4  -4   6  879.41   52.79
   3   4  -6 3203.18  162.18
   3   4  -6 3399.06  165.88
  -3  -4   6 2726.53  150.08
   2   4  -6 1809.32  109.69
  -2  -4   6 1572.44   83.29
   1   4  -6 2430.56  118.69
   1   4  -6 2322.07  119.19
   1   4  -6 2343.47  119.19
  -1  -4   6 2312.87  113.19
   0   4  -6 3583.74  164.78
   0   4  -6 3182.78  161.78
   0   4  -6 3428.76  168.58
   0  -4   6 3610.44  163.08
   0  -4   6 3453.75  159.88
   0  -4   6 3419.06  159.38
  -1   4  -6 3256.47  162.18
   1  -4   6 3450.75  161.18
   1  -4   6 3461.75  157.88
   1  -4   6 3324.97  158.78
   1  -4   6 3534.45  163.18
  -2   4  -6  931.71   51.69
   2  -4   6  976.80   57.09
   2  -4   6  968.50   51.69
   2  -4   6  925.71   50.49
  -3   4  -6 3293.97  159.28
   3  -4   6 3239.28  167.58
   3  -4   6 3456.35  160.78
  -4   4  -6  706.83   42.70
   4  -4   6  721.63   43.30
   4  -4   6  616.34   46.90
  -5   4  -6 1256.37   70.39
   5  -4   6 1273.77   66.69
   5   3  -6  995.20   78.59
  -4  -3   6  656.03   52.79
   3   3  -6 4330.77  217.18
   3   3  -6 4449.96  223.98
  -3  -3   6 4397.06  207.58
   2   3  -6  490.65   37.60
   2   3  -6  434.56   31.40
   2   3  -6  461.35   35.10
  -2  -3   6  458.55   27.60
   1   3  -6 6321.17  322.57
   1   3  -6 6823.42  309.77
   1   3  -6 7348.96  318.57
   1   3  -6 6953.70  316.77
   1   3  -6 6712.53  315.17
  -1  -3   6 6781.82  309.17
   0   3  -6 2152.08  110.39
   0   3  -6 2422.16  114.59
   0   3  -6 2354.56  116.59
   0   3  -6 2269.57  119.09
   0  -3   6 2515.95  110.69
   0  -3   6 2383.26  109.29
   0  -3   6 2356.96  111.89
  -1   3  -6 4464.65  214.18
   1  -3   6 4593.14  210.98
   1  -3   6 4735.83  213.68
   1  -3   6 4321.97  209.28
   1  -3   6 4843.12  209.68
   1  -3   6 4515.15  209.38
  -2   3  -6 1077.09   57.19
   2  -3   6 1073.59   73.29
   2  -3   6 1051.29   53.99
   2  -3   6 1087.99   56.19
  -3   3  -6 4389.76  208.28
   3  -3   6 4410.66  208.68
   3  -3   6 4502.85  216.28
  -4   3  -6  846.62   49.30
   4  -3   6  805.12   54.39
   4  -3   6  817.72   48.20
   5  -3   6  991.90   53.59
   5   2  -6 1005.20   69.19
  -5  -2   6  872.21   62.89
   4   2  -6 1276.47   84.39
  -4  -2   6 1117.99   67.19
   3   2  -6 3875.21  208.18
   3   2  -6 4098.49  200.48
  -3  -2   6 4127.99  190.18
   2   2  -6  283.57   25.00
   2   2  -6  287.27   28.10
   2   2  -6  290.07   25.50
  -2  -2   6  276.07   18.60
   1   2  -6 5253.57  237.28
   1   2  -6 5110.99  230.48
   1   2  -6 4728.83  238.18
  -1  -2   6 5102.19  229.38
   0   2  -6 5052.69  234.38
   0   2  -6 5504.75  245.68
   0   2  -6 4939.21  243.18
   0  -2   6 5097.79  232.98
   0  -2   6 5108.89  232.58
  -1   2  -6 3213.48  152.58
  -1   2  -6 3018.80  148.89
   1  -2   6 3110.39  147.09
   1  -2   6 3333.77  150.98
   1  -2   6 3165.58  146.99
   1  -2   6 3281.67  147.69
  -2   2  -6 1406.46   70.79
   2  -2   6 1410.26   68.89
   2  -2   6 1282.77   65.09
  -3   2  -6 2946.91  145.09
   3  -2   6 3046.30  151.38
   3  -2   6 3034.60  144.49
  -4   2  -6 1878.81   96.59
   4  -2   6 1815.92  100.99
   4  -2   6 1893.01   94.99
  -5   2  -6 1374.76   75.89
   5  -2   6 1444.96   73.69
   5   1  -6  698.03   56.39
  -5  -1   6  646.44   44.30
   4   1  -6 1215.98   87.49
  -4  -1   6 1435.76   74.99
   3   1  -6 2752.92  145.29
   2   1  -6  411.86   38.00
   2   1  -6  486.55   37.30
   2   1  -6  483.95   27.20
  -2  -1   6  457.65   26.80
  -2  -1   6  497.35   28.30
   1   1  -6 5638.54  253.87
   1   1  -6 5483.85  238.48
   1   1  -6 4663.63  254.37
  -1  -1   6 5151.38  236.98
   0   1  -6 2845.42  130.99
   0   1  -6 2777.22  139.09
   0   1  -6 2887.61  143.79
   0  -1   6 2982.90  161.88
   0  -1   6 2874.31  129.39
   0  -1   6 2811.72  129.89
   0  -1   6 2720.63  128.59
   0  -1   6 2577.74  127.49
  -1   1  -6 1506.75   73.99
  -1   1  -6 1390.86   75.69
   1  -1   6 1538.05   71.89
   1  -1   6 1438.66   69.79
   1  -1   6 1520.55   73.69
   1  -1   6 1434.46  100.19
   1  -1   6 1450.55   69.59
  -2   1  -6 2791.52  135.39
   2  -1   6 2801.72  132.29
   2  -1   6 2819.22  136.99
  -3   1  -6 2370.46  117.79
   3  -1   6 2301.87  120.79
   3  -1   6 2436.66  115.59
  -4   1  -6 1601.74   91.09
   4  -1   6 1867.91   96.99
   4  -1   6 1768.62   88.69
   5  -1   6  903.31   47.90
   6   0  -6  553.94   40.90
   5   0  -6 1117.29   74.89
  -5   0   6 1067.99   65.49
   4   0  -6 1947.21  115.59
  -4   0   6 2007.90  102.09
   3   0  -6 1096.79   70.39
   3   0  -6 1090.19   72.09
  -3   0   6 1008.40   57.89
  -3   0   6 1136.49  112.69
   2   0  -6 3028.30  137.99
   2   0  -6 3133.19  157.98
   2   0  -6 2633.84  148.89
  -2   0   6 2943.71  137.99
  -2   0   6 3101.49  139.09
   1   0  -6 2253.67  116.69
   1   0  -6 1865.91  116.79
   1   0  -6 2092.09   98.89
  -1   0   6 2212.78   99.49
  -1   0   6 2085.19   97.69
   0   0  -6 3912.01  179.28
   0   0  -6 3379.86  162.38
   0   0   6 3488.35  161.98
   0   0   6 3260.37  159.88
   0   0   6 3654.23  161.88
   0   0   6 3569.74  184.48
   0   0   6 3462.15  160.48
  -1   0  -6  628.24   38.40
  -1   0  -6  627.14   45.10
   1   0   6  596.44   31.90
   1   0   6  624.94   35.00
   1   0   6  625.24   32.40
   1   0   6  596.24   31.10
   1   0   6  586.54   50.79
  -2   0  -6 2910.51  144.19
   2   0   6 2924.51  143.99
   2   0   6 3066.19  139.69
  -3   0  -6 2110.09  109.59
   3   0   6 2132.79  111.89
   3   0   6 2233.68  105.69
  -4   0  -6 1117.99   65.09
   4   0   6 1225.18   61.39
   4   0   6 1096.99   65.69
   5   0   6  505.15   28.80
  -6   1   6  399.06   32.00
   5  -1  -6 1190.98   74.19
  -5   1   6 1209.38   70.79
   4  -1  -6 3211.88  166.48
  -4   1   6 3237.38  157.18
   3  -1  -6 2206.28  125.29
   3  -1  -6 2494.45  136.49
   3  -1  -6 2263.47  119.79
  -3   1   6 2137.09  163.68
   2  -1  -6 2023.60  101.79
   2  -1  -6 1930.61  118.79
   2  -1  -6 1808.22  113.99
   2  -1  -6 2077.09   93.59
  -2   1   6 2037.80  135.39
  -2   1   6 1805.42   92.49
  -2   1   6 1969.30   93.99
   1  -1  -6 1406.86   68.19
   1  -1  -6 1553.94   84.79
  -1   1   6 1372.76   66.99
  -1   1   6 1461.35   68.59
  -1   1   6 1279.67   65.29
   0  -1  -6 4482.85  215.68
   0  -1  -6 4343.47  205.48
   0   1   6 4407.86  203.08
   0   1   6 4602.04  203.48
   0   1   6 4335.67  203.98
   0   1   6 4751.82  205.98
   0   1   6 4483.25  218.78
  -1  -1  -6 1200.58   71.49
  -1  -1  -6 1084.39   63.19
   1   1   6 1143.39   58.89
   1   1   6 1111.09   66.29
   1   1   6 1203.98   57.79
   1   1   6 1080.09   55.49
  -2  -1  -6 2178.58  111.79
   2   1   6 2231.08  109.49
   2   1   6 2171.08  105.89
  -3  -1  -6  934.51   56.49
   3   1   6 1022.90   51.99
   3   1   6  909.41   55.49
  -4  -1  -6 2025.90  123.79
   4   1   6 2204.28  103.59
   5   1   6  179.38   13.90
  -6   2   6 1012.20   59.89
   5  -2  -6  772.92   51.19
  -5   2   6  873.91   52.99
   4  -2  -6 3941.61  210.68
   4  -2  -6 3541.85  182.48
  -4   2   6 3707.13  179.48
   3  -2  -6 1306.27   93.29
   3  -2  -6 1211.38   67.19
   3  -2  -6 1015.20   80.19
  -3   2   6 1208.68  121.99
  -3   2   6 1256.17   63.69
   2  -2  -6 4734.63  232.08
   2  -2  -6 3857.41  208.88
   2  -2  -6 4589.54  206.18
  -2   2   6 4623.24  247.18
  -2   2   6 4793.22  207.78
  -2   2   6 4276.57  205.28
   1  -2  -6 1609.44   96.19
   1  -2  -6 1481.45   85.89
   1  -2  -6 1445.86   73.39
   1  -2  -6 1457.15   70.79
  -1   2   6 1438.96   87.99
  -1   2   6 1445.06   71.19
  -1   2   6 1381.46   69.59
  -1   2   6 1429.06   88.39
   0  -2  -6 5563.24  257.97
   0  -2  -6 5568.44  260.97
   0   2   6 5244.78  242.28
   0   2   6 5077.99  243.18
   0   2   6 5371.06  245.18
  -1  -2  -6 1459.35   85.09
  -1  -2  -6 1437.86   79.89
   1   2   6 1410.26   72.49
   1   2   6 1416.66   69.09
   1   2   6 1429.66   71.89
  -2  -2  -6 2080.09  117.89
   2   2   6 2029.40   97.89
   2   2   6 1992.70  101.99
  -3  -2  -6 1063.79   62.99
  -3  -2  -6 1062.19   74.39
   3   2   6 1013.30   59.89
   3   2   6 1103.49   55.89
  -4  -2  -6 1588.64   98.39
   4   2   6 1637.54   79.59
  -6   3   6 1317.77   72.59
  -5   3   6  501.95   36.10
   4  -3  -6 4232.28  240.18
   4  -3  -6 4005.50  199.38
  -4   3   6 4364.06  201.28
   3  -3  -6  705.63   72.89
   3  -3  -6  857.01   49.00
  -3   3   6  960.20   95.29
  -3   3   6  931.41   50.09
   2  -3  -6 3180.88  163.88
   2  -3  -6 2862.81  172.48
  -2   3   6 2819.52  167.28
  -2   3   6 2937.11  140.09
   1  -3  -6 2564.54  141.99
   1  -3  -6 2791.52  148.49
  -1   3   6 2697.03  123.89
  -1   3   6 2648.14  126.09
   0  -3  -6 4972.10  238.08
   0  -3  -6 5017.60  240.68
   0   3   6 4782.52  220.28
   0   3   6 4673.73  224.38
  -1  -3  -6 2414.66  119.89
  -1  -3  -6 2029.80  118.49
   1   3   6 2145.79  107.29
   1   3   6 2222.08  107.89
  -2  -3  -6 1099.49   69.19
  -2  -3  -6 1157.48   76.09
   2   3   6 1159.58   59.39
   2   3   6 1313.57   71.29
   2   3   6 1107.99   66.29
  -3  -3  -6 1689.23  100.69
   3   3   6 1570.24   85.99
   3   3   6 1705.33   81.89
   4   3   6 1299.77   63.89
  -6   4   6 1173.48   64.39
  -5   4   6 1200.98   67.39
   4  -4  -6 1205.68  100.29
   4  -4  -6 1073.79   82.19
   3  -4  -6 1399.66   96.09
   3  -4  -6 1328.07  110.39
  -3   4   6 1268.87   70.29
   2  -4  -6 2518.35  141.99
   2  -4  -6 2574.24  150.68
  -2   4   6 2388.76  120.09
   1  -4  -6 2843.32  156.18
   1  -4  -6 2841.82  156.88
  -1   4   6 2652.43  134.39
  -1   4   6 2907.21  137.79
  -1   4   6 3071.69  133.09
   0  -4  -6 4456.95  217.18
   0   4   6 4164.28  195.78
   0   4   6 4253.27  201.48
  -1  -4  -6  186.38   23.30
  -1  -4  -6  174.18   22.10
   1   4   6  174.38   13.10
   1   4   6  189.68   17.70
   1   4   6  166.28   15.20
  -2  -4  -6 3701.23  185.38
  -2  -4  -6 3736.73  190.18
   2   4   6 3789.32  171.48
   2   4   6 3481.65  175.68
   2   4   6 3744.13  180.08
  -3  -4  -6 1404.76   85.99
   3   4   6 1483.55   71.29
   4   4   6  695.73   35.60
  -5   5   6  514.15   33.90
  -5   5   6  570.74   36.40
   4  -5  -6 1929.01  135.59
   3  -5  -6 2207.28  133.69
   3  -5  -6 2219.98  141.99
  -3   5   6 2060.99  107.99
   2  -5  -6  802.62   63.49
   2  -5  -6  816.52   66.19
  -2   5   6  717.63   43.60
   1  -5  -6 2368.86  139.29
   1  -5  -6 2421.56  140.09
  -1   5   6 2512.45  116.09
  -1   5   6 2607.74  122.89
   0  -5  -6 2164.68  127.59
   0  -5  -6 2492.25  133.89
   0   5   6 2268.37  108.29
   0   5   6 2363.26  115.49
  -1  -5  -6 1148.89   76.99
  -1  -5  -6 1289.97   79.09
   1   5   6 1194.68   67.09
   1   5   6 1220.18   60.09
  -2  -5  -6 1042.80   78.19
   2   5   6 1029.70   60.49
   2   5   6 1019.40   52.19
   3   5   6 1602.64   82.59
  -5   6   6  930.31   49.99
  -5   6   6  936.61   54.09
   4  -6  -6 1320.57   92.49
   4  -6  -6 1368.56  105.89
  -4   6   6 1246.18   69.49
  -4   6   6 1254.47   68.39
   3  -6  -6 2614.34  154.88
   3  -6  -6 2526.75  149.69
  -3   6   6 2425.06  124.29
  -3   6   6 2602.14  125.89
   2  -6  -6  669.93   57.99
   2  -6  -6  636.54   57.39
  -2   6   6  621.64   40.00
   1  -6  -6 2540.15  144.19
   1  -6  -6 2425.66  140.69
  -1   6   6 2421.66  122.99
  -1   6   6 2472.85  115.89
   0  -6  -6  988.00   70.79
   0  -6  -6 1112.69   75.49
   0   6   6 1068.99   60.19
   0   6   6 1018.80   51.99
  -1  -6  -6 1429.56   85.59
  -1  -6  -6 1298.67   83.59
   1   6   6 1330.17   74.39
   1   6   6 1398.76   66.89
   2   6   6  702.43   51.79
   2   6   6  896.31   42.00
   3   6   6 1060.09   51.29
  -5   7   6 1552.34   81.59
  -5   7   6 1752.92   90.79
   4  -7  -6 1508.85   94.99
  -4   7   6 1386.46   73.89
  -4   7   6 1413.86   74.99
   3  -7  -6 1950.40  117.39
   3  -7  -6 1833.42  119.89
  -3   7   6 1872.61   95.59
  -3   7   6 1737.73   91.09
   2  -7  -6  786.32   61.19
  -2   7   6  689.63   51.39
   1  -7  -6 2393.16  141.89
   1  -7  -6 2642.64  176.98
  -1   7   6 2582.14  132.09
   0  -7  -6 1082.59   85.79
   0  -7  -6 1069.09   74.29
   0   7   6  977.60   51.69
   0   7   6 1058.29   60.99
  -1  -7  -6 1418.36   84.59
   1   7   6 1442.26   78.09
   1   7   6 1442.76   69.49
   2   7   6  407.96   22.50
   4  -8  -6 1854.11  105.49
  -4   8   6 1694.13   88.09
   3  -8  -6 1121.39   76.69
   3  -8  -6 1042.40   73.19
  -3   8   6  997.20   58.09
   2  -8  -6  840.82   64.69
   2  -8  -6  934.31   70.09
  -2   8   6  936.21   53.99
   1  -8  -6 3443.06  186.08
  -1   8   6 3443.16  168.68
   0  -8  -6  654.33   49.60
   0   8   6  596.84   40.60
   1   8   6 1264.57   59.79
   1   8   6 1195.68   66.69
   4  -9  -6  676.43   50.49
  -4   9   6  857.51   52.69
   3  -9  -6 1471.45   87.79
  -3   9   6 1339.07   72.99
  -2   9   6  473.05   36.90
   1  -9  -6 2231.08  125.09
  -1   9   6 2253.87  114.29
   0  -9  -6  644.84   52.19
   0   9   6  756.02   44.20
   2 -10  -6  534.35   48.70
  -2  10   6  599.84   36.30
   0 -11   7  356.46   24.50
   1 -11   7 1254.27   67.89
   2 -11   7  750.02   45.00
   3 -11   7  972.70   56.59
   2  10  -7  570.64   38.90
   1  10  -7 1114.49   66.69
  -1 -10   7 1182.58   60.29
   0  10  -7  889.61   59.99
   0 -10   7 1091.69   57.49
   1 -10   7 1009.00   59.59
   2 -10   7 1387.16   74.29
   2 -10   7 1241.58   71.89
   3 -10   7 1164.58   61.99
   3 -10   7 1065.29   60.09
   4 -10   7  574.04   43.60
   2   9  -7  415.36   33.30
   2   9  -7  389.46   30.90
  -2  -9   7  391.66   24.60
   1   9  -7 1508.25   82.69
   1   9  -7 1447.76   85.69
  -1  -9   7 1593.54   79.79
   0   9  -7 1917.41  103.09
   0   9  -7 1840.22  100.49
   0  -9   7 2005.10  101.49
  -1   9  -7 1145.49   65.39
   1  -9   7 1211.68   69.09
  -2   9  -7 1607.84   85.99
  -2   9  -7 1596.94   89.29
   2  -9   7 1801.72   92.29
   2  -9   7 1704.83   87.69
  -3   9  -7  758.52   47.50
   3  -9   7  750.42   46.40
   3  -9   7  776.62   45.80
  -4   9  -7 1476.25   79.09
   4  -9   7 1473.45   76.59
   3   8  -7  574.74   37.80
   3   8  -7  548.65   41.10
   2   8  -7 1735.63   96.89
   2   8  -7 1606.24   90.79
  -2  -8   7 1630.54   83.49
   1   8  -7  883.51   64.09
  -1  -8   7  855.41   54.79
   0   8  -7 2048.10  102.19
   0   8  -7 1784.02  101.39
   0  -8   7 1843.02   99.89
  -1   8  -7 1261.57   67.39
   1  -8   7 1289.37   69.99
   1  -8   7  988.30   61.39
  -2   8  -7 2563.64  127.89
   2  -8   7 2637.14  128.79
   2  -8   7 2360.96  131.69
   2  -8   7 2420.06  123.69
  -3   8  -7 1036.00   60.39
   3  -8   7 1018.20   58.39
   3  -8   7  998.80   58.09
  -4   8  -7 1369.26   72.69
   4  -8   7 1215.18   73.99
   3   7  -7  252.77   24.40
   3   7  -7  193.88   24.80
  -3  -7   7  248.28   18.00
   2   7  -7 2055.99  115.89
   2   7  -7 2081.49  112.79
  -2  -7   7 2039.10  104.09
   1   7  -7 1074.49   65.49
   1   7  -7 1034.40   66.89
  -1  -7   7 1089.79   60.79
   0   7  -7 1981.90  104.29
   0   7  -7 1927.11  104.79
   0  -7   7 2058.99  104.39
  -1   7  -7 1146.29   65.59
   1  -7   7 1059.29   59.39
   1  -7   7 1229.28   66.59
   1  -7   7 1098.99   65.09
  -2   7  -7 2120.09  107.59
   2  -7   7 2063.49  106.79
   2  -7   7 1975.30  103.59
  -3   7  -7 1212.38   80.09
   3  -7   7 1195.68   66.69
   3  -7   7 1272.57   76.49
  -4   7  -7 1914.01  100.49
   4  -7   7 1904.51   97.99
  -5   7  -7  554.54   36.60
   5  -7   7  543.15   32.80
   4   6  -7 1120.49   65.89
   3   6  -7  596.44   45.20
   3   6  -7  598.54   47.60
  -3  -6   7  593.84   38.50
   2   6  -7 2789.82  149.59
   2   6  -7 2845.82  148.19
  -2  -6   7 2829.42  138.79
   1   6  -7  803.82   53.49
   1   6  -7  802.42   51.99
  -1  -6   7  787.82   47.20
   0   6  -7 2066.89  109.09
   0   6  -7 2100.49  108.79
   0  -6   7 2170.68  107.99
   1  -6   7  667.13   38.70
   1  -6   7  721.03   43.90
   1  -6   7  678.03   43.40
  -2   6  -7 4560.54  209.48
  -2   6  -7 4337.47  211.08
   2  -6   7 4163.18  204.48
   2  -6   7 4542.25  207.48
   2  -6   7 4108.19  211.48
  -3   6  -7  415.36   31.00
   3  -6   7  451.25   30.10
   3  -6   7  402.16   27.10
   3  -6   7  343.77   33.10
  -4   6  -7 1896.91   98.79
   4  -6   7 1816.02   95.59
  -5   6  -7  488.35   33.90
   5  -6   7  468.85   29.90
   4   5  -7 2220.38  120.39
   3   5  -7  880.41   68.19
  -3  -5   7  687.63   50.49
   2   5  -7 2108.59  115.09
   2   5  -7 2077.29  114.99
  -2  -5   7 2076.29  104.89
   1   5  -7 1456.85   81.49
  -1  -5   7 1479.85   76.29
   0   5  -7 2359.16  124.09
   0   5  -7 2273.77  119.69
   0  -5   7 2580.94  119.39
  -1   5  -7 2492.45  133.89
  -1   5  -7 2703.03  137.49
   1  -5   7 2619.44  129.29
   1  -5   7 2886.91  135.29
   1  -5   7 3004.20  134.99
  -2   5  -7 1051.19   60.99
   2  -5   7 1035.10   62.49
   2  -5   7 1068.49   57.29
   2  -5   7 1081.49   57.79
  -3   5  -7 1199.38   67.49
   3  -5   7 1149.69   72.09
   3  -5   7 1212.88   65.19
  -4   5  -7 1876.51   98.79
   4  -5   7 1835.42   95.59
  -5   5  -7  740.33   46.10
   5  -5   7  711.33   41.20
   5   4  -7  781.82   51.09
  -4  -4   7  931.41   55.19
   3   4  -7 2148.09  122.29
   3   4  -7 2016.20  117.69
  -3  -4   7 2192.58  109.69
   2   4  -7 2790.42  143.69
   2   4  -7 2671.43  140.59
  -2  -4   7 2659.73  130.59
   1   4  -7 1883.71  102.39
   1   4  -7 2260.77  117.69
   1   4  -7 2178.38  108.99
   1   4  -7 2025.90  107.79
  -1  -4   7 2051.59  101.69
   0   4  -7 2901.91  141.39
   0   4  -7 2835.82  141.19
   0   4  -7 2965.50  147.99
   0  -4   7 2732.83  133.29
   0  -4   7 3085.79  139.39
  -1   4  -7 2533.05  128.39
  -1   4  -7 2534.85  130.39
   1  -4   7 2689.83  123.29
   1  -4   7 2466.85  119.69
   1  -4   7 2502.55  124.19
  -2   4  -7 2539.15  127.39
   2  -4   7 2528.85  128.39
   2  -4   7 2568.14  122.69
   2  -4   7 2528.65  121.79
  -3   4  -7 1214.38   70.49
   3  -4   7 1298.47   78.89
   3  -4   7 1314.07   68.89
  -4   4  -7 1065.49   62.09
   4  -4   7 1118.99   58.99
   4  -4   7  938.91   63.49
  -5   4  -7 1351.56   74.79
   5  -4   7 1332.57   68.79
   5   3  -7 1298.17   80.59
   3   3  -7 2242.68  130.79
  -3  -3   7 2260.07  113.49
   2   3  -7 1906.41  108.19
   2   3  -7 2338.47  126.19
   2   3  -7 2157.18  118.29
   1   3  -7 3429.76  160.78
   1   3  -7 3135.69  166.88
   1   3  -7 3080.89  157.58
   1   3  -7 3171.48  157.78
  -1  -3   7 3244.98  151.18
   0   3  -7 4582.04  206.68
   0   3  -7 4185.38  208.18
   0   3  -7 4010.30  197.08
   0  -3   7 4306.07  196.08
   0  -3   7 4402.56  197.78
   0  -3   7 4094.79  193.48
  -1   3  -7 1889.91   99.59
  -1   3  -7 2178.68  107.19
   1  -3   7 1786.32   90.79
   1  -3   7 1937.31   92.69
   1  -3   7 1786.92   94.09
  -2   3  -7 1877.11   95.29
   2  -3   7 1754.32   94.59
   2  -3   7 1811.62   87.79
   2  -3   7 1845.32   90.09
  -3   3  -7 3438.26  174.08
   3  -3   7 3724.23  171.08
  -4   3  -7  581.84   40.60
   4  -3   7  596.74   37.10
   4  -3   7  593.44   42.20
  -5   3  -7 1763.52   94.49
   5  -3   7 1840.02   88.69
   5   2  -7  877.81   78.59
  -5  -2   7  966.00   55.89
   3   2  -7 1955.60  127.39
  -3  -2   7 2410.96  110.19
   2   2  -7 1373.56   82.19
   2   2  -7 1441.16   86.29
   2   2  -7 1331.37   79.79
  -2  -2   7 1420.86   70.39
   1   2  -7 3632.04  164.38
   1   2  -7 3125.59  186.58
   1   2  -7 3735.13  176.18
  -1  -2   7 3502.25  162.68
  -1  -2   7 3579.14  163.88
   0   2  -7 1754.22   94.49
   0   2  -7 1601.14   83.59
   0   2  -7 1901.91   96.29
   0  -2   7 1588.14   81.49
   0  -2   7 1794.62   83.59
   0  -2   7 1695.03   80.79
  -1   2  -7 3431.66  166.28
  -1   2  -7 3138.99  157.18
   1  -2   7 3186.78  151.68
   1  -2   7 3225.28  148.89
   1  -2   7 3063.69  147.89
  -2   2  -7 1632.74   92.29
   2  -2   7 1798.42   90.49
   2  -2   7 1740.13   84.99
  -3   2  -7 3937.11  186.58
   3  -2   7 3895.31  180.58
   3  -2   7 3631.84  187.48
  -4   2  -7  662.33   44.40
   4  -2   7  668.73   48.00
   4  -2   7  634.24   39.00
  -5   2  -7 1471.05   87.29
   5  -2   7 1355.26   69.99
  -5  -1   7  521.25   38.90
  -4  -1   7  594.84   41.00
   3   1  -7 3820.62  200.78
  -3  -1   7 4084.49  186.68
   2   1  -7  624.34   55.19
   2   1  -7  770.52   53.99
  -2  -1   7  822.52   41.90
   1   1  -7 3048.60  179.48
   1   1  -7 3268.37  169.08
   1   1  -7 3112.39  147.99
  -1  -1   7 3351.76  148.39
  -1  -1   7 3073.89  146.29
   0   1  -7 1055.69   63.99
   0   1  -7  911.11   50.09
   0  -1   7  969.00   49.20
   0  -1   7 1001.80   50.69
   0  -1   7  952.10   46.50
   0  -1   7  954.00   47.90
  -1   1  -7 3674.43  179.08
  -1   1  -7 3860.31  188.68
   1  -1   7 3536.75  168.98
   1  -1   7 3634.74  169.18
   1  -1   7 3710.53  172.78
  -2   1  -7 1696.93   88.99
   2  -1   7 1600.94   85.69
  -3   1  -7 1911.91  102.79
   3  -1   7 1996.80  102.89
   3  -1   7 1911.31   95.99
  -4   1  -7  777.72   50.49
   4  -1   7  829.12   45.60
   5  -1   7 1678.73   81.29
   5   0  -7 1259.67   80.69
  -5   0   7 1253.67   74.19
   4   0  -7 1556.84  101.09
  -4   0   7 1759.42   89.39
   3   0  -7 2613.14  144.99
   3   0  -7 2455.85  139.59
  -3   0   7 2562.54  123.79
   2   0  -7  643.54   49.99
   2   0  -7  830.52   61.49
  -2   0   7  729.63   78.79
  -2   0   7  770.92   40.80
   1   0  -7 4245.48  202.88
   1   0  -7 3764.52  205.08
   1   0  -7 3781.02  181.48
  -1   0   7 3697.83  179.68
  -1   0   7 4150.48  181.88
   0   0  -7  829.82   55.09
   0   0  -7  721.63   49.70
   0   0   7  787.52   39.90
   0   0   7  711.13   58.79
   0   0   7  755.52   37.50
   0   0   7  752.82   39.50
  -1   0  -7 4257.57  208.88
  -1   0  -7 4107.49  199.78
   1   0   7 4082.99  188.58
   1   0   7 4195.68  192.38
   1   0   7 4153.98  189.78
   1   0   7 3927.71  187.58
  -2   0  -7 1058.59   73.09
  -2   0  -7 1074.49   63.19
   2   0   7 1045.10   59.19
   2   0   7 1094.39   55.29
  -3   0  -7 1157.78   68.09
   3   0   7 1139.69   65.39
   3   0   7 1158.78   60.59
  -4   0  -7  963.60   61.19
  -4   0  -7 1042.40   75.49
   4   0   7 1143.09   56.19
   5  -1  -7 1141.29   72.59
  -5   1   7 1313.17   72.99
   4  -1  -7 2086.49  115.29
  -4   1   7 2078.09  106.99
   3  -1  -7 2168.08  119.49
   3  -1  -7 2253.87  134.69
   3  -1  -7 1898.51  123.69
  -3   1   7 2183.98  105.69
   2  -1  -7 1541.05  100.79
   2  -1  -7 1550.24   83.19
   2  -1  -7 1421.66  103.19
  -2   1   7 1314.47  110.59
  -2   1   7 1635.04   75.49
   1  -1  -7 4664.43  255.47
   1  -1  -7 5073.39  248.18
   1  -1  -7 5344.97  233.58
  -1   1   7 4873.31  228.18
  -1   1   7 4965.90  228.48
   0  -1  -7  896.01   59.39
   0  -1  -7  828.72   54.89
   0   1   7  900.01   44.20
   0   1   7  773.62   42.30
   0   1   7  843.92   41.30
   0   1   7  783.82   56.09
  -1  -1  -7 3035.80  161.18
   1   1   7 3059.89  145.69
   1   1   7 3122.09  142.39
   1   1   7 3064.49  144.29
  -2  -1  -7 1285.47   76.99
  -2  -1  -7 1254.07   92.19
   2   1   7 1388.76   68.09
   2   1   7 1480.05   73.99
  -3  -1  -7 1147.69   82.39
   3   1   7 1196.18   67.79
   3   1   7 1304.87   63.59
  -4  -1  -7  790.42   63.19
   4   1   7  978.40   48.10
   5  -2  -7 2370.66  134.79
  -5   2   7 2426.36  123.79
   4  -2  -7 1803.72  122.59
   4  -2  -7 1649.04   92.99
  -4   2   7 1741.53   91.09
   3  -2  -7 1853.21   99.99
   3  -2  -7 1908.11  132.59
  -3   2   7 2003.60   97.29
   2  -2  -7 2523.35  127.99
   2  -2  -7 2870.21  153.68
  -2   2   7 2670.53  125.19
  -2   2   7 2374.76  159.38
   1  -2  -7 2267.07  115.19
   1  -2  -7 2320.77  127.69
   1  -2  -7 2439.26  136.29
  -1   2   7 2258.07  109.39
  -1   2   7 2208.18  126.89
   0  -2  -7 5772.82  267.17
   0  -2  -7 5456.05  262.17
   0   2   7 5245.28  242.88
   0   2   7 5028.00  244.28
  -1  -2  -7  592.74   47.60
  -1  -2  -7  657.53   47.00
   1   2   7  612.24   35.10
   1   2   7  652.73   36.80
   1   2   7  648.94   37.60
  -2  -2  -7 2385.86  134.59
  -2  -2  -7 2377.56  126.19
   2   2   7 2434.16  113.39
   2   2   7 2282.07  117.79
  -3  -2  -7 1046.60   65.19
  -3  -2  -7 1071.89   78.59
   3   2   7 1063.09   60.59
   3   2   7 1068.79   55.49
   4   2   7 1566.24   76.29
  -5   3   7  750.02   47.40
   4  -3  -7 1143.19  103.89
  -4   3   7 1464.65   74.29
   3  -3  -7 2070.19  135.49
  -3   3   7 2145.09  106.39
   2  -3  -7 4085.09  214.68
   2  -3  -7 3887.51  227.08
  -2   3   7 4060.69  193.58
   1  -3  -7 1203.78   80.89
   1  -3  -7 1409.66   88.59
  -1   3   7 1267.37   60.59
  -1   3   7 1146.99   62.79
   0  -3  -7 2681.03  143.69
   0  -3  -7 2661.13  145.59
   0   3   7 2671.03  123.19
   0   3   7 2637.54  127.79
  -1  -3  -7 1979.90  118.49
  -1  -3  -7 2118.09  114.79
   1   3   7 1970.50  100.19
   1   3   7 2080.19  101.09
   1   3   7 2000.00   96.29
  -2  -3  -7 2493.95  134.69
  -2  -3  -7 2503.65  139.99
   2   3   7 2681.83  121.09
   2   3   7 2484.25  125.19
  -3  -3  -7  780.82   58.09
   3   3   7  850.31   43.70
   4   3   7 1045.40   51.39
  -5   4   7  857.61   50.79
   4  -4  -7 1016.40   93.99
   4  -4  -7  961.90   83.09
   3  -4  -7 1339.77   96.59
   3  -4  -7 1241.28  104.69
  -3   4   7 1259.37   69.19
   2  -4  -7 2886.11  170.58
   2  -4  -7 2808.42  157.88
  -2   4   7 2600.84  132.49
   1  -4  -7  688.13   57.59
   1  -4  -7  696.53   56.39
  -1   4   7  685.33   41.30
  -1   4   7  626.44   37.30
  -1   4   7  686.83   40.50
   0  -4  -7 3660.43  193.88
   0  -4  -7 3842.02  195.18
   0   4   7 3763.92  169.78
   0   4   7 3543.15  175.58
  -1  -4  -7 1207.78   79.09
  -1  -4  -7 1201.38   77.49
   1   4   7 1173.28   64.59
   1   4   7 1213.98   59.49
  -2  -4  -7 1954.20  107.59
  -2  -4  -7 1838.32  110.59
   2   4   7 1934.11   91.79
   3   4   7  731.43   40.20
  -5   5   7  470.15   29.70
  -5   5   7  497.25   32.30
   4  -5  -7 2611.24  169.18
   4  -5  -7 2290.67  148.49
  -4   5   7 2616.74  125.79
   3  -5  -7  555.14   54.99
   3  -5  -7  565.24   61.39
  -3   5   7  550.04   36.00
   2  -5  -7 2596.04  150.88
   2  -5  -7 2696.83  155.78
  -2   5   7 2753.22  128.49
  -2   5   7 2325.97  124.19
   1  -5  -7  649.83   55.59
   1  -5  -7  610.74   54.79
  -1   5   7  646.24   34.30
  -1   5   7  646.34   40.50
   0  -5  -7 2930.91  154.48
   0  -5  -7 2498.95  146.69
   0   5   7 2619.34  132.39
   0   5   7 2752.02  125.59
  -1  -5  -7  809.32   60.19
   1   5   7  796.22   57.19
  -2  -5  -7 1421.76   87.39
   2   5   7 1443.06   69.69
   3   5   7  733.03   37.00
  -5   6   7  636.04   37.30
  -5   6   7  525.25   33.80
   4  -6  -7 2521.45  144.29
   4  -6  -7 2410.76  150.58
  -4   6   7 2502.15  120.19
  -4   6   7 2294.87  119.29
   3  -6  -7 1178.08   87.79
   3  -6  -7 1181.68   83.89
  -3   6   7 1122.39   62.39
  -3   6   7 1026.20   59.79
   2  -6  -7 1081.69   80.49
   2  -6  -7 1039.90   79.69
  -2   6   7 1083.49   60.79
   1  -6  -7 1862.21  116.09
   1  -6  -7 1797.72  112.99
  -1   6   7 1813.82   95.09
   0  -6  -7 2012.80  116.99
   0  -6  -7 1891.11  114.09
   0   6   7 1853.51   99.09
   0   6   7 1900.01   90.59
  -1  -6  -7  566.74   45.50
  -1  -6  -7  570.64   46.90
   1   6   7  575.14   30.30
   1   6   7  502.35   35.20
   2   6   7  947.11   47.00
   4  -7  -7 1665.93   99.69
  -4   7   7 1521.95   78.79
  -4   7   7 1536.15   80.99
   3  -7  -7 1456.35   95.89
   3  -7  -7 1457.05   95.69
  -3   7   7 1398.36   76.29
   2  -7  -7 1546.25   99.19
   2  -7  -7 1348.57   93.89
  -2   7   7 1463.85   78.09
   1  -7  -7 1847.32  111.39
   1  -7  -7 1525.65  102.89
  -1   7   7 1740.33   90.19
   0  -7  -7 1183.78   80.19
   0  -7  -7 1335.27   91.39
   0   7   7 1129.09   58.89
   0   7   7 1216.98   67.89
  -1  -7  -7  895.31   57.39
   1   7   7  903.11   44.40
   1   7   7  795.02   48.90
   4  -8  -7  543.35   52.39
  -4   8   7  705.93   37.70
   3  -8  -7 2505.05  167.38
  -3   8   7 2636.34  133.39
   2  -8  -7  908.71   76.29
   2  -8  -7 1029.60   72.19
  -2   8   7  944.41   54.69
   1  -8  -7 2019.30  118.59
  -1   8   7 2018.90  103.49
   0  -8  -7  586.94   46.00
   0   8   7  626.44   38.90
   3  -9  -7  969.90   65.19
  -3   9   7 1072.89   56.89
   2  -9  -7  606.74   47.20
  -2   9   7  600.84   37.20
   1  -9  -7 1493.65   86.99
  -1   9   7 1441.06   76.49
   0 -11   8  667.93   42.10
   1 -11   8 1016.30   55.49
   2 -11   8  648.54   38.30
   1  10  -8 1299.87   87.79
  -1 -10   8 1761.22   78.49
   1 -10   8 1515.15   80.69
   3 -10   8 1877.91   93.99
   2   9  -8  511.35   36.40
   2   9  -8  496.65   40.10
  -2  -9   8  443.96   31.30
   1   9  -8 2278.17  122.19
  -1  -9   8 2240.98  111.79
   0   9  -8  568.24   39.50
   0   9  -8  568.94   39.20
   0  -9   8  590.74   38.40
  -1   9  -8 1778.52   93.79
   1  -9   8 1785.02   94.29
  -2   9  -8 1006.00   58.49
   2  -9   8 1109.69   61.19
  -3   9  -8 1767.22   97.69
   3  -9   8 1913.31   93.69
   3  -9   8 1918.01   94.29
  -4   9  -8  349.67   31.90
   4  -9   8  432.96   31.40
   3   8  -8  832.92   50.89
   2   8  -8  504.55   37.40
   2   8  -8  473.05   38.30
  -2  -8   8  487.35   31.10
   1   8  -8 2039.10  110.69
   1   8  -8 2011.10  110.39
  -1  -8   8 2076.59  104.09
   0  -8   8 1190.78   83.99
  -1   8  -8  683.83   46.70
  -2   8  -8 2251.97  117.99
   2  -8   8 2147.19  110.39
   2  -8   8 2360.36  115.59
  -3   8  -8 1258.57   70.59
   3  -8   8 1137.09   63.49
   3  -8   8 1164.88   63.49
  -4   8  -8  998.70   58.79
   4  -8   8  978.10   53.69
   3   7  -8  931.11   61.69
   3   7  -8  852.21   66.29
  -3  -7   8 1008.30   51.29
   2   7  -8  865.31   57.99
   2   7  -8  868.91   59.49
  -2  -7   8  872.41   50.19
   1   7  -8 1919.71  106.39
   1   7  -8 1986.20  107.09
  -1  -7   8 1925.01   99.99
   0   7  -8  412.36   33.30
   0   7  -8  432.26   33.60
   0  -7   8  436.46   31.80
  -1   7  -8 2176.88  117.79
   1  -7   8 2318.27  115.29
  -2   7  -8 2211.38  112.69
   2  -7   8 1815.72  108.79
   2  -7   8 2161.38  107.19
   2  -7   8 2164.08  104.19
  -3   7  -8  575.54   41.50
   3  -7   8  572.34   35.00
   3  -7   8  544.65   35.60
  -4   7  -8  945.91   57.89
   4  -7   8  868.51   50.79
   4   6  -8 1034.30   61.19
   3   6  -8  510.25   43.60
   3   6  -8  533.75   42.20
  -3  -6   8  537.55   35.10
   2   6  -8 1546.65   93.09
   2   6  -8 1659.83   94.49
  -2  -6   8 1583.44   83.89
   1   6  -8 1896.31  105.99
   1   6  -8 2013.20  107.19
  -1  -6   8 1951.50   99.89
   0   6  -8 1894.51  106.89
   0   6  -8 1811.12  101.79
   0   6  -8 2085.39  104.99
   0  -6   8 2052.79  101.39
  -1   6  -8  518.55   39.50
   1  -6   8  537.95   35.50
  -2   6  -8 2763.32  137.09
  -2   6  -8 2531.65  135.99
   2  -6   8 2562.64  126.79
   2  -6   8 2648.54  129.19
  -3   6  -8  901.71   55.19
  -3   6  -8  748.33   55.99
   3  -6   8  854.51   48.50
   3  -6   8  811.42   65.79
  -4   6  -8 1373.56   77.99
   4  -6   8 1344.27   71.19
   4   5  -8 2581.34  130.49
  -4  -5   8 1893.21  107.89
   3   5  -8  366.36   35.60
  -3  -5   8  299.87   26.10
   2   5  -8 4075.29  202.98
   2   5  -8 3838.32  200.28
  -2  -5   8 4051.99  190.48
   1   5  -8 1077.49   64.69
   1   5  -8 1015.80   63.89
  -1  -5   8 1041.20   57.89
   0  -5   8 3188.98  153.88
  -1   5  -8  814.32   52.89
  -1   5  -8  959.90   58.79
   1  -5   8  853.51   46.80
   1  -5   8 1013.90   52.49
  -2   5  -8 2613.74  132.39
  -2   5  -8 2478.45  134.69
   2  -5   8 2510.55  122.39
   2  -5   8 2534.45  129.29
   2  -5   8 2523.85  122.89
  -3   5  -8 1115.49   66.49
   3  -5   8 1032.50   65.19
   3  -5   8 1121.19   60.09
  -4   5  -8 1199.78   70.99
   4  -5   8 1177.08   63.69
  -5   5  -8  423.16   37.80
   5  -5   8  552.24   35.10
   4   4  -8 1803.92   98.99
  -4  -4   8 1356.56   82.89
   3   4  -8  746.83   58.29
  -3  -4   8  721.13   46.30
   2   4  -8 4007.10  198.88
   2   4  -8 3707.83  193.88
  -2  -4   8 3882.01  183.68
   1   4  -8 2280.47  113.89
   1   4  -8 1941.61  114.49
  -1  -4   8 2110.89  104.59
   0   4  -8 2588.64  134.39
   0  -4   8 2771.82  130.09
  -1   4  -8 1269.37   74.39
  -1   4  -8 1277.97   73.89
   1  -4   8 1213.48   62.19
   1  -4   8 1266.27   66.39
   1  -4   8 1285.57   68.49
  -2   4  -8 3110.39  158.48
  -2   4  -8 3395.16  167.68
   2  -4   8 3187.78  148.19
   2  -4   8 3050.59  148.69
   2  -4   8 2935.01  153.68
  -3   4  -8 1197.58   71.09
   3  -4   8 1198.98   63.79
   3  -4   8 1167.08   69.79
  -4   4  -8 1884.51  102.19
   4  -4   8 1845.12   93.59
  -5   4  -8  292.97   28.50
   5  -4   8  335.47   23.80
   5   3  -8  743.83   53.49
  -4  -3   8  857.11   54.59
   3   3  -8  834.12   66.99
  -3  -3   8  855.61   50.89
   2   3  -8 4909.01  229.28
   2   3  -8 3947.81  215.18
  -2  -3   8 4560.74  209.48
   1   3  -8 1220.48   74.79
   1   3  -8 1223.68   82.59
  -1  -3   8 1468.45   71.29
   0   3  -8 2458.65  132.49
   0  -3   8 2664.63  123.39
  -1   3  -8 2081.59  110.89
  -1   3  -8 2102.69  113.69
   1  -3   8 2031.40  101.29
   1  -3   8 2131.89  100.19
   1  -3   8 1955.40   97.19
  -2   3  -8 3971.00  190.28
  -2   3  -8 3801.52  198.78
   2  -3   8 3723.83  176.78
   2  -3   8 3741.53  183.88
   2  -3   8 3901.91  179.28
  -3   3  -8 1237.68   72.49
   3  -3   8 1237.18   63.89
   3  -3   8 1124.59   68.69
  -4   3  -8  938.51   60.39
   4  -3   8 1011.70   53.59
   5  -3   8 1324.57   72.19
   5   2  -8  410.96   39.70
  -5  -2   8  464.65   33.90
  -4  -2   8 1412.96   80.29
   3   2  -8 1090.79   73.29
  -3  -2   8 1295.87   66.19
   2   2  -8 1608.14  100.19
   2   2  -8 1726.83   97.89
   2   2  -8 1610.44  101.59
  -2  -2   8 1806.42   85.59
   1   2  -8 2550.34  150.78
   1   2  -8 2870.21  146.29
  -1  -2   8 2847.71  131.59
   0   2  -8 1502.95   87.59
   0  -2   8 1452.05   73.39
   0  -2   8 1489.65   70.39
  -1   2  -8 1897.91  108.49
  -1   2  -8 2192.68  113.59
   1  -2   8 1878.51   95.99
   1  -2   8 1940.71   93.89
   1  -2   8 1878.21   92.39
  -2   2  -8 3518.85  178.08
  -2   2  -8 3282.07  164.98
   2  -2   8 3048.99  158.18
   2  -2   8 3244.18  153.78
  -3   2  -8 1191.08   71.59
   3  -2   8 1191.78   62.59
   3  -2   8 1166.18   68.39
  -4   2  -8 1027.00   74.19
  -4   2  -8  940.91   60.39
   4  -2   8  979.50   52.79
  -5  -1   8  426.56   34.20
  -4  -1   8 1938.91  103.09
   3   1  -8 1051.19   81.99
  -3  -1   8 1099.89   59.49
   2   1  -8 1123.39   76.39
  -2  -1   8 1186.98   61.09
   1   1  -8 3646.74  193.28
   1   1  -8 3672.53  190.98
  -1  -1   8 3645.14  170.78
   0   1  -8 1634.34   95.79
   0   1  -8 1604.64   93.09
   0  -1   8 1579.64   78.29
   0  -1   8 1592.94   76.79
  -1   1  -8 1435.56   82.59
  -1   1  -8 1457.55   88.49
   1  -1   8 1423.76   69.89
   1  -1   8 1437.46   72.79
   1  -1   8 1408.66   69.29
  -2   1  -8 1503.95   85.79
  -2   1  -8 1461.15   95.79
   2  -1   8 1536.15   74.49
   2  -1   8 1452.05   78.59
  -3   1  -8 2149.19  117.19
  -3   1  -8 2315.57  131.79
   3  -1   8 2205.98  107.69
   3  -1   8 2018.90  110.99
  -4   1  -8  524.35   47.90
   4  -1   8  513.75   31.00
   5   0  -8 1633.14   95.19
   4   0  -8  747.33   60.69
  -4   0   8  855.81   50.79
   3   0  -8 2601.54  145.29
   3   0  -8 2633.84  162.18
  -3   0   8 2636.34  128.59
   2   0  -8 1592.24   97.69
   2   0  -8 1904.61  114.69
  -2   0   8 1596.64  135.49
  -2   0   8 1797.02   85.99
   1   0  -8 2822.62  162.98
   1   0  -8 3008.20  161.08
  -1   0   8 2994.80  139.09
   0   0  -8 1110.79   70.59
   0   0  -8 1158.18   75.29
   0   0   8 1073.19   56.09
   0   0   8 1084.39   53.49
   0   0   8 1155.78   56.39
  -1   0  -8 2001.20  110.99
   1   0   8 1864.51   89.29
   1   0   8 1786.42   92.29
  -2   0  -8 1726.83  105.99
  -2   0  -8 1651.73   95.39
   2   0   8 1669.13   90.89
   2   0   8 1735.73   83.59
  -3   0  -8 1183.18   73.19
  -3   0  -8 1290.57   86.39
   3   0   8 1299.67   63.49
   3   0   8 1099.79   80.09
  -4   0  -8  522.25   36.10
  -4   0  -8  461.15   43.70
   4   0   8  406.56   33.10
   5  -1  -8 2332.27  127.29
  -5   1   8 2669.03  129.79
   4  -1  -8  681.73   56.99
   4  -1  -8  832.52   67.79
  -4   1   8  829.82   49.40
   3  -1  -8 2001.80  111.69
   3  -1  -8 2100.79  135.29
  -3   1   8 2053.59  103.19
   2  -1  -8 2334.47  122.39
   2  -1  -8 2175.78  147.99
   2  -1  -8 2510.15  146.49
  -2   1   8 2298.77  161.28
  -2   1   8 2429.06  114.89
   1  -1  -8 4584.04  226.08
   1  -1  -8 4925.11  250.47
  -1   1   8 4789.02  256.27
  -1   1   8 4759.82  219.98
   0  -1  -8  427.36   38.60
   0  -1  -8  464.05   42.20
   0   1   8  430.06   23.40
   0   1   8  410.16   25.30
  -1  -1  -8 2681.93  145.19
  -1  -1  -8 2730.93  141.69
   1   1   8 2585.14  126.19
   1   1   8 2657.23  123.89
   1   1   8 2596.74  127.69
  -2  -1  -8 1669.23  103.19
  -2  -1  -8 1709.63   96.59
   2   1   8 1664.93   81.59
   2   1   8 1598.44   85.99
  -3  -1  -8 1732.43  106.59
  -3  -1  -8 1689.63   96.19
   3   1   8 1704.23   84.29
   4   1   8  310.57   19.80
  -5   2   8 1941.01  102.19
   4  -2  -8 1004.80   60.49
   4  -2  -8 1000.60   88.09
  -4   2   8 1097.69   60.79
   3  -2  -8 1821.62  141.59
   3  -2  -8 2082.59  108.79
  -3   2   8 2360.86  107.59
   2  -2  -8 2390.06  135.99
   2  -2  -8 1899.71  140.79
   2  -2  -8 1987.00  107.19
  -2   2   8 2230.18  105.59
   1  -2  -8 3266.77  180.28
   1  -2  -8 4044.30  202.78
   1  -2  -8 4352.96  212.78
  -1   2   8 3886.01  175.28
  -1   2   8 3723.03  179.08
   0  -2  -8  190.08   26.00
   0  -2  -8  248.28   30.40
   0   2   8  226.58   14.30
  -1  -2  -8 5556.94  267.17
  -1  -2  -8 5671.13  269.27
   1   2   8 5273.57  248.68
   1   2   8 5050.29  248.88
   1   2   8 5359.36  245.28
  -2  -2  -8 1230.98   76.09
  -2  -2  -8 1202.78   79.99
   2   2   8 1107.59   64.09
   2   2   8 1206.18   60.49
  -3  -2  -8 1120.29   76.89
  -3  -2  -8 1197.58   71.49
   3   2   8 1201.78   59.79
   4   2   8  610.14   33.70
  -5   3   8 1748.63   99.69
  -4   3   8 1353.46   73.99
   3  -3  -8 1097.39   88.89
  -3   3   8 1084.99   61.09
   2  -3  -8 2052.39  127.79
   2  -3  -8 2262.87  144.49
  -2   3   8 1915.41  101.79
   1  -3  -8 2827.52  163.48
   1  -3  -8 2493.95  143.99
  -1   3   8 2534.05  117.79
  -1   3   8 2354.16  121.09
   0  -3  -8 1700.53  103.89
   0  -3  -8 1700.83  102.29
   0   3   8 1606.14   84.29
   0   3   8 1665.73   78.99
  -1  -3  -8 2149.98  122.99
  -1  -3  -8 2123.49  120.69
   1   3   8 2124.39   99.69
   1   3   8 2032.10  104.39
  -2  -3  -8 1334.37   80.69
  -2  -3  -8 1341.57   88.59
   2   3   8 1319.17   65.19
   2   3   8 1247.88   69.39
  -3  -3  -8  999.10   70.49
   3   3   8 1044.00   59.29
  -5   4   8 1378.76   73.09
   4  -4  -8  436.76   58.29
   4  -4  -8  413.16   52.19
   3  -4  -8 1457.05  114.69
   3  -4  -8 1550.84  106.99
  -3   4   8 1416.16   77.59
   2  -4  -8 1999.40  127.19
   2  -4  -8 1851.21  116.69
  -2   4   8 1656.63   90.59
   1  -4  -8 1482.05   98.89
   1  -4  -8 1551.04  102.59
  -1   4   8 1512.15   73.19
  -1   4   8 1541.05   80.29
   0  -4  -8 1429.56   91.59
   0  -4  -8 1306.47   88.79
   0   4   8 1361.86   72.19
   0   4   8 1368.76   65.99
  -1  -4  -8 1574.64   99.09
   1   4   8 1620.64   83.09
  -2  -4  -8 1453.15   86.59
  -2  -4  -8 1453.55   90.59
   2   4   8 1469.25   70.89
   3   4   8  492.25   26.50
  -5   5   8 1281.97   66.49
  -5   5   8 1256.07   65.19
   4  -5  -8  835.22   81.59
   4  -5  -8  846.32   78.49
  -4   5   8  768.52   46.70
   3  -5  -8  935.41   81.09
   3  -5  -8  994.60   76.79
  -3   5   8  969.20   53.69
  -3   5   8  828.32   51.49
   2  -5  -8 2692.83  157.98
   2  -5  -8 2579.34  153.48
  -2   5   8 2604.34  130.19
   1  -5  -8 1155.68   83.29
   1  -5  -8 1156.08   84.29
  -1   5   8 1188.68   65.49
   0  -5  -8 1385.46   90.59
   0  -5  -8 1295.47   85.79
   0   5   8 1171.98   63.69
   0   5   8 1381.46   75.49
  -1  -5  -8  470.95   43.50
  -1  -5  -8  492.25   41.50
   1   5   8  451.45   25.50
   1   5   8  418.26   29.90
   2   5   8 1927.21   90.69
   4  -6  -8 1033.30   82.39
   4  -6  -8  947.31   72.39
  -4   6   8  986.90   54.59
  -4   6   8 1060.59   60.39
   3  -6  -8 1126.99   80.19
   3  -6  -8 1065.89   82.29
  -3   6   8  994.10   56.59
  -3   6   8 1105.09   59.79
   2  -6  -8 2828.72  157.68
   2  -6  -8 2452.05  158.58
  -2   6   8 2766.72  133.89
   1  -6  -8  621.04   56.89
   1  -6  -8  715.33   60.49
  -1   6   8  669.03   42.30
   0  -6  -8 1778.42  106.69
   0  -6  -8 1774.02  106.99
   0   6   8 1683.03   89.09
   0   6   8 1652.73   81.39
  -1  -6  -8  364.86   34.60
   1   6   8  354.76   26.20
   1   6   8  357.66   24.20
   2   6   8 1596.04   78.49
   4  -7  -8 2289.97  129.39
  -4   7   8 1978.70  103.39
   3  -7  -8  773.02   78.89
   3  -7  -8  743.03   59.19
  -3   7   8  729.53   44.60
   2  -7  -8 2487.25  137.49
   2  -7  -8 2165.58  132.49
  -2   7   8 2298.77  115.79
   1  -7  -8  716.63   58.19
  -1   7   8  680.63   43.20
   0  -7  -8 1314.07   82.69
   0   7   8 1303.87   70.09
   1   7   8  998.10   48.80
   3  -8  -8  619.94   46.70
  -3   8   8  554.64   34.90
   2  -8  -8 1841.22  106.49
  -2   8   8 1739.63   90.79
   1  -8  -8  957.90   66.19
  -1   8   8 1009.20   55.59
   0   8   8 1188.38   68.69
  -1 -10   9  546.55   31.60
   0 -10   9 1214.18   64.19
   1 -10   9 1203.38   64.69
   2 -10   9 1173.58   62.39
   1   9  -9 1608.84   86.89
  -1  -9   9 1587.24   81.39
   0   9  -9  606.44   46.30
   0  -9   9  627.74   39.10
  -1   9  -9 1520.05   81.79
   1  -9   9 1492.95   79.99
  -2   9  -9 1031.60   58.19
   2  -9   9 1052.49   58.09
  -3   9  -9 1864.71  116.19
   3  -9   9 1841.12   96.49
   2   8  -9  333.07   28.20
  -2  -8   9  323.97   22.90
   1   8  -9 1560.54   87.89
  -1  -8   9 1505.75   80.39
   0   8  -9  899.41   57.39
   0  -8   9  911.11   53.49
  -1   8  -9 2437.96  123.69
   1  -8   9 2348.86  120.49
  -2   8  -9  361.46   31.50
   2  -8   9  399.16   28.30
   3  -8   9 1501.85   79.29
   3  -8   9 1667.73   79.59
   3   7  -9  983.60   61.89
  -3  -7   9 1115.59   59.89
   2   7  -9  701.03   49.99
  -2  -7   9  693.03   42.10
   1   7  -9 1816.62  100.99
  -1  -7   9 1783.72   93.49
   0   7  -9  896.61   57.79
   0  -7   9  910.61   56.39
   1  -7   9 1140.19   68.19
  -2   7  -9  728.53   52.09
   2  -7   9  859.31   52.29
   2  -7   9  725.83   44.80
  -3   7  -9 1758.72   96.69
   3  -7   9 1698.33   86.49
  -4   7  -9  715.83   47.30
   4  -7   9  725.13   43.10
   3   6  -9 1672.63   95.59
   2   6  -9  854.81   58.89
  -2  -6   9  814.82   49.20
   1   6  -9 2444.86  129.79
  -1  -6   9 2418.96  121.69
   0   6  -9  515.45   42.90
   0   6  -9  605.54   42.10
   0  -6   9  588.04   37.70
  -1   6  -9 2417.56  138.49
   1  -6   9 2886.61  132.29
  -2   6  -9  892.61   62.19
   2  -6   9  861.71   48.30
   2  -6   9  926.31   50.79
  -3   6  -9  829.12   58.39
  -3   6  -9  931.71   59.39
   3  -6   9  875.51   48.30
  -4   6  -9 1155.08   68.69
   4  -6   9 1134.19   59.29
   4   5  -9  886.51   56.09
  -4  -5   9  790.82   54.29
   3   5  -9 1185.18   77.39
  -3  -5   9 1203.88   67.19
   2   5  -9 1987.30  113.19
  -2  -5   9 1955.60  100.59
   1   5  -9 2675.13  139.39
  -1  -5   9 2621.64  130.29
   0   5  -9 1068.39   70.59
   0  -5   9 1125.29   60.99
  -1   5  -9 1726.43   99.69
  -1   5  -9 1931.01  106.59
   1  -5   9 1978.60   95.59
  -2   5  -9 2190.88  116.39
  -2   5  -9 2013.50  113.99
   2  -5   9 2143.79  103.19
   2  -5   9 2099.19  102.19
   2  -5   9 2026.80  107.39
  -3   5  -9  940.51   61.89
  -3   5  -9  940.51   65.09
   3  -5   9  934.11   51.19
  -4   5  -9 1279.97   83.99
   4  -5   9 1210.28   63.69
  -4  -4   9 1090.29   62.79
   3   4  -9 1488.05   94.69
  -3  -4   9 1449.15   79.79
   2   4  -9 2025.50  114.69
  -2  -4   9 1895.91   99.39
   1   4  -9 1568.04   86.09
   1   4  -9 1260.87   93.59
  -1  -4   9 1489.85   75.79
   0   4  -9 3194.38  163.18
   0   4  -9 2808.62  153.38
   0  -4   9 3176.68  147.49
  -1   4  -9 1907.81  105.39
  -1   4  -9 1713.13  100.19
   1  -4   9 1890.91   91.99
  -2   4  -9 2076.69  114.79
  -2   4  -9 2093.69  118.29
   2  -4   9 2051.19  106.29
   2  -4   9 2038.40  100.39
   2  -4   9 2116.29  101.09
  -3   4  -9  869.01   70.29
  -3   4  -9  928.41   60.59
   3  -4   9  888.21   57.69
   3  -4   9  890.31   49.20
  -4   4  -9 2054.69  121.69
  -4   4  -9 1750.82  108.89
   4  -4   9 1746.63   89.99
   4   3  -9 1760.62  104.69
  -4  -3   9 1499.15   87.89
   3   3  -9  818.32   88.59
  -3  -3   9 1020.90   66.49
   2   3  -9 2958.80  158.68
  -2  -3   9 2815.82  139.79
   1   3  -9  666.43   50.19
   1   3  -9  725.33   57.39
   1   3  -9  783.32   52.19
  -1  -3   9  709.83   41.70
   0   3  -9 4093.09  207.08
   0   3  -9 4110.29  211.38
   0  -3   9 4209.08  193.98
  -1   3  -9 1558.04   89.79
  -1   3  -9 1502.95   88.99
   1  -3   9 1526.25   75.19
   1  -3   9 1412.46   71.59
   1  -3   9 1475.45   75.29
  -2   3  -9 1641.24  101.99
  -2   3  -9 1770.52   97.99
   2  -3   9 1643.54   88.19
   2  -3   9 1643.54   82.59
  -3   3  -9 1158.28   70.89
  -3   3  -9 1089.79   77.89
   3  -3   9 1100.19   58.19
   3  -3   9 1067.89   64.19
  -4   3  -9 2040.40  110.69
  -4   3  -9 2020.20  119.29
   4  -3   9 2057.69   99.19
   5   2  -9  675.23   56.09
  -5  -2   9  784.42   47.10
  -4  -2   9 1043.00   62.99
   3   2  -9  510.55   52.19
   3   2  -9  576.24   46.60
   2   2  -9 3138.89  185.58
   2   2  -9 3268.47  171.28
   2   2  -9 3153.18  175.28
  -2  -2   9 3453.75  157.08
   1   2  -9  644.94   51.09
   1   2  -9  722.73   49.20
   1   2  -9  577.34   53.29
  -1  -2   9  643.24   38.00
   0   2  -9 3689.43  200.38
   0   2  -9 4107.69  202.58
   0  -2   9 3960.30  183.58
  -1   2  -9  478.05   40.50
  -1   2  -9  508.05   42.80
   1  -2   9  500.35   30.50
   1  -2   9  469.65   27.10
   1  -2   9  506.05   31.20
  -2   2  -9 2704.03  143.39
  -2   2  -9 2809.72  152.18
   2  -2   9 2620.54  127.09
   2  -2   9 2600.44  132.29
  -3   2  -9 1069.59   71.79
  -3   2  -9 1250.77  100.99
   3  -2   9 1303.77   78.29
   3  -2   9 1070.09   59.79
  -4   2  -9 1385.26   77.49
  -4   2  -9 1221.28   84.39
   4  -2   9 1361.66   66.69
   5   1  -9  501.65   41.20
  -5  -1   9  493.45   36.70
   4   1  -9 1565.74  110.29
  -4  -1   9 2150.28  101.39
   3   1  -9  704.73   62.49
   3   1  -9  827.42   61.09
  -3  -1   9  863.31   48.40
   2   1  -9 2407.86  152.88
   2   1  -9 2414.06  143.59
   2   1  -9 2819.82  150.58
  -2  -1   9 2838.72  128.49
   1   1  -9  836.22   64.59
   1   1  -9  870.51   66.89
   1   1  -9  799.82   55.69
  -1  -1   9  883.41   47.30
   0   1  -9 2816.02  152.48
   0   1  -9 2692.53  148.79
   0  -1   9 2734.13  132.89
   1  -1   9  792.72   43.90
   1  -1   9  768.52   40.30
  -2   1  -9 1963.80  110.59
  -2   1  -9 2021.10  118.69
   2  -1   9 1907.21   99.89
   2  -1   9 1945.51   94.79
  -3   1  -9  995.80   65.69
  -3   1  -9 1047.20   74.59
   3  -1   9 1025.80   53.69
  -4   1  -9 1070.69   63.79
   4  -1   9 1012.10   52.89
   5   0  -9  609.84   51.79
  -5   0   9  594.74   41.40
   4   0  -9 2099.39  123.69
  -4   0   9 2343.87  115.19
   3   0  -9 1557.64  105.49
   3   0  -9 1587.94   97.29
  -3   0   9 1615.24   83.59
   2   0  -9 1354.66  103.99
   2   0  -9 1558.24   90.79
   2   0  -9 1655.73  132.89
  -2   0   9 1521.55   77.99
   1   0  -9 3263.67  183.68
   1   0  -9 3405.76  181.28
   1   0  -9 3312.27  165.98
  -1   0   9 3243.78  155.88
   0   0  -9  951.00   68.09
   0   0  -9  870.11   63.49
   0   0   9  854.11   48.10
  -1   0  -9 2002.50  112.49
  -1   0  -9 2010.40  115.19
   1   0   9 1901.01   96.39
   1   0   9 1868.01   91.99
  -2   0  -9 1527.65   94.59
  -2   0  -9 1523.55   89.89
   2   0   9 1480.55   72.29
   2   0   9 1295.57   75.59
  -3   0  -9 1043.30   67.59
  -3   0  -9 1025.80   73.89
   3   0   9 1085.59   54.89
   4   0   9  907.91   46.40
  -5   1   9  915.61   55.19
   4  -1  -9 2063.09  131.29
   4  -1  -9 2031.90  112.19
  -4   1   9 2250.37  109.79
   3  -1  -9 1835.12  104.99
   3  -1  -9 2013.80  133.79
  -3   1   9 1945.91   98.79
   2  -1  -9 1821.32  128.19
   2  -1  -9 1774.12   99.79
   2  -1  -9 1942.11  124.19
  -2   1   9 1873.31   93.69
   1  -1  -9 1504.95   82.79
   1  -1  -9 1495.45   97.99
   1  -1  -9 1672.23  112.99
  -1   1   9 1490.55   77.29
   0  -1  -9 2819.82  153.98
   0  -1  -9 3132.19  163.58
   0   1   9 2641.64  132.29
   0   1   9 2583.54  132.99
   0   1   9 2913.11  129.29
  -1  -1  -9 2257.07  126.99
  -1  -1  -9 2211.28  128.19
   1   1   9 2184.68  105.09
   1   1   9 2278.37  120.29
  -2  -1  -9 1131.09   75.89
  -2  -1  -9 1168.38   72.89
   2   1   9  895.41   62.09
   2   1   9 1100.19   54.99
  -3  -1  -9  858.51   62.59
  -3  -1  -9  740.33   71.99
   3   1   9  909.61   45.10
  -5   2   9 1541.85   81.99
   4  -2  -9  939.91   83.09
  -4   2   9  945.81   55.39
   3  -2  -9 1349.56  105.89
   3  -2  -9 1393.26  114.69
  -3   2   9 1697.13   81.29
   2  -2  -9 1238.98  101.29
   2  -2  -9 1335.57   94.09
  -2   2   9 1217.68   66.79
   1  -2  -9 4733.63  232.98
   1  -2  -9 3753.52  200.78
   1  -2  -9 4251.87  222.18
  -1   2   9 4181.68  196.78
   0  -2  -9  773.92   61.69
   0  -2  -9  767.62   59.39
   0   2   9  739.93   42.40
   0   2   9  722.33   37.60
  -1  -2  -9 2371.66  137.29
  -1  -2  -9 2452.65  135.99
   1   2   9 2373.96  112.39
  -2  -2  -9 1039.60   72.69
  -2  -2  -9 1010.40   68.79
   2   2   9 1068.89   53.09
  -3  -2  -9 1502.05   88.49
  -3  -2  -9 1751.22  125.69
   3   2   9 1579.74   76.89
  -5   3   9 2035.70  102.59
  -4   3   9  483.05   33.00
   3  -3  -9 1797.22  138.49
   3  -3  -9 2072.99  135.09
  -3   3   9 1917.41   98.89
   2  -3  -9 1026.10   86.79
   2  -3  -9 1025.50   79.19
  -2   3   9  962.30   55.19
   1  -3  -9 2948.41  167.28
   1  -3  -9 2762.32  160.08
  -1   3   9 2768.32  137.19
   0  -3  -9 1099.69   78.99
   0  -3  -9 1199.98   82.39
   0   3   9 1137.99   55.19
   0   3   9 1087.29   60.49
  -1  -3  -9 1793.82  109.69
  -1  -3  -9 1805.12  107.89
   1   3   9 1760.12   84.79
  -2  -3  -9  861.31   58.39
  -2  -3  -9  749.62   59.69
   2   3   9  873.41   42.90
   3   3   9 1284.67   61.69
  -5   4   9 1967.50  100.19
  -5   4   9 1877.81   96.69
   4  -4  -9  523.65   62.69
  -4   4   9  562.44   35.90
   3  -4  -9 1578.14  106.79
   3  -4  -9 1693.43  129.59
  -3   4   9 1398.86   79.49
   2  -4  -9 1516.95  109.89
  -2   4   9 1650.53   88.59
   1  -4  -9 1559.54  112.49
   1  -4  -9 1591.14  105.89
  -1   4   9 1610.04   83.49
   0  -4  -9  614.04   54.89
   0  -4  -9  585.44   52.09
   0   4   9  587.94   37.10
   0   4   9  621.04   31.80
  -1  -4  -9 2093.49  120.99
  -1  -4  -9 2124.09  123.59
   1   4   9 2028.70   97.49
  -2  -4  -9  371.26   33.90
   2   4   9  376.86   21.20
   4  -5  -9  784.82   91.19
   4  -5  -9  703.03   67.39
  -4   5   9  738.03   43.10
  -4   5   9  756.22   43.20
   3  -5  -9 1945.21  118.89
   3  -5  -9 1801.22  123.89
  -3   5   9 1824.42   93.09
  -3   5   9 1906.51   95.69
   2  -5  -9 1017.50   77.99
   2  -5  -9 1031.20   80.79
  -2   5   9 1061.59   58.89
   1  -5  -9 1299.47   93.59
   1  -5  -9 1399.26   92.99
  -1   5   9 1324.17   72.09
   0  -5  -9  738.83   58.09
   0  -5  -9  667.03   56.49
   0   5   9  679.13   41.80
   0   5   9  706.43   35.70
  -1  -5  -9 1692.73   93.49
  -1  -5  -9 1347.07   91.19
   1   5   9 1537.75   74.69
   2   5   9  558.64   30.90
  -4   6   9 1199.08   62.99
   3  -6  -9 1483.85  102.99
  -3   6   9 1294.67   73.69
   2  -6  -9 1383.06   92.79
   2  -6  -9 1329.77   92.09
  -2   6   9 1397.76   73.39
   1  -6  -9 1167.78   80.29
   1  -6  -9 1005.60   74.49
  -1   6   9 1115.39   60.89
   0  -6  -9 1223.38   94.19
   0  -6  -9 1262.97   94.39
   0   6   9 1307.07   68.19
  -1  -6  -9  809.72   71.59
   1   6   9  850.41   42.60
   3  -7  -9  778.02   55.79
  -3   7   9  755.82   43.60
   2  -7  -9 1375.16   87.99
  -2   7   9 1406.06   73.09
   1  -7  -9 1319.27   84.59
  -1   7   9 1331.57   70.29
   0  -7  -9 1721.93  108.79
   0   7   9 1691.73   90.39
   0 -10  10  927.21   50.09
   1 -10  10 1161.98   60.79
   2 -10  10 1384.96   80.19
   1   9 -10  183.38   25.30
  -1  -9  10  173.28   14.80
   0   9 -10 2062.79  107.89
   0  -9  10 2074.29  103.19
  -1   9 -10  822.32   51.29
   1  -9  10  894.31   50.09
  -2   9 -10  945.91   53.49
   2  -9  10  938.81   51.49
   2   8 -10  845.32   53.29
  -2  -8  10  869.41   47.00
   1   8 -10 1329.47   83.29
  -1  -8  10 1291.17   69.09
   0   8 -10  435.96   34.50
   0  -8  10  452.25   30.90
  -1   8 -10 1538.25   82.79
   1  -8  10 1453.05   78.39
   2  -8  10  903.11   53.69
  -3   8 -10  820.82   52.69
   3   7 -10 1338.47   81.39
   2   7 -10  535.35   44.70
   1   7 -10 1326.17   79.19
  -1  -7  10 1331.27   71.49
   0   7 -10 1116.89   68.29
   0  -7  10 1139.49   63.29
  -1   7 -10 1277.37   79.69
   1  -7  10 1402.06   72.59
  -2   7 -10  854.41   56.79
   2  -7  10  830.92   47.40
  -3   7 -10  834.12   54.99
   3   6 -10 1794.32   97.59
  -3  -6  10 1696.33   88.29
   2   6 -10 1010.80   66.59
  -2  -6  10 1008.50   57.29
   1   6 -10 1618.94   94.39
  -1  -6  10 1660.93   85.99
   0   6 -10  983.60   74.79
   0  -6  10  836.22   59.69
   1  -6  10 3126.29  151.58
  -2   6 -10  527.55   42.60
   2  -6  10  495.45   31.50
  -3   6 -10 1333.97   80.29
   3  -6  10 1328.57   66.59
  -4   6 -10  342.07   31.20
   4   5 -10  306.27   30.90
   3   5 -10 2105.69  115.79
  -3  -5  10 1949.01  102.99
   2   5 -10 1074.09   70.39
  -2  -5  10 1000.60   58.49
   1   5 -10 2235.48  122.99
  -1  -5  10 2287.57  113.59
   0   5 -10  952.60   67.19
   0  -5  10 1026.70   56.19
  -1   5 -10 1562.74   94.89
  -2   5 -10  562.64   48.70
  -2   5 -10  686.43   50.59
   2  -5  10  667.73   37.10
  -3   5 -10 1068.59   68.59
  -3   5 -10 1039.60   70.49
  -4   5 -10  981.50   60.99
   4   4 -10  516.75   41.90
  -4  -4  10  510.75   34.60
   3   4 -10 1404.16   89.69
  -3  -4  10 1381.76   75.59
   2   4 -10 1920.01  112.09
  -2  -4  10 1785.22   98.39
   1   4 -10 1809.22  101.49
   1   4 -10 1645.54  103.19
  -1  -4  10 1835.02   90.99
   0   4 -10 1382.66   88.89
   0   4 -10 1283.67   83.59
   0  -4  10 1501.55   73.89
  -1   4 -10 2786.92  147.59
   1  -4  10 2794.72  134.29
  -2   4 -10  763.52   54.79
  -2   4 -10  779.62   56.39
   2  -4  10  719.83   40.10
  -3   4 -10 1865.71  103.79
  -3   4 -10 1711.73  104.49
   3  -4  10 1796.02   87.69
  -4   4 -10  941.31   57.99
   4  -4  10  872.01   46.30
   4   3 -10  494.35   43.90
  -4  -3  10  513.65   36.00
   3   3 -10 1677.63  106.39
  -3  -3  10 1655.53   87.69
   2   3 -10 1740.83  105.39
  -2  -3  10 1678.43   88.49
   1   3 -10 1377.26   95.29
   1   3 -10 1385.86   93.39
   1   3 -10 1583.54   88.79
  -1  -3  10 1484.95   76.59
   0   3 -10 1204.68   82.89
   0   3 -10 1297.37   80.89
   0  -3  10 1292.97   67.09
  -1   3 -10 2213.48  126.89
   1  -3  10 2368.96  111.39
  -2   3 -10 1251.77   80.19
  -2   3 -10 1262.77   79.49
   2  -3  10 1182.38   62.69
  -3   3 -10 1079.09   68.99
  -3   3 -10 1036.50   72.69
   3  -3  10 1030.20   53.99
   4  -3  10 1381.76   68.09
  -4  -2  10 1031.10   67.29
   3   2 -10 1750.12  117.39
  -3  -2  10 2096.69  100.59
   2   2 -10 1136.59   79.59
   2   2 -10 1171.18   78.09
  -2  -2  10 1214.38   64.39
   1   2 -10  914.61   65.59
   1   2 -10  890.11   60.29
   1   2 -10  877.71   69.09
  -1  -2  10  891.41   50.39
   0   2 -10 1824.42  109.09
   0   2 -10 1819.02  110.79
   0  -2  10 1825.62   91.09
  -1   2 -10 2100.89  121.39
  -1   2 -10 2264.77  123.79
   1  -2  10 1974.80  101.19
  -2   2 -10 1035.70   72.89
   2  -2  10 1053.69   53.69
  -3   2 -10  651.33   51.59
   3  -2  10  602.24   34.40
  -4   2 -10 1696.33   98.49
   4  -2  10 1909.31   88.59
   4   1 -10 1183.78   92.99
  -4  -1  10 1187.08   67.39
   3   1 -10 1171.78   82.59
   3   1 -10 1292.27   85.59
  -3  -1  10 1337.77   70.19
   2   1 -10 3348.06  179.98
   2   1 -10 2994.50  180.98
   2   1 -10 3209.08  171.98
  -2  -1  10 3367.86  155.98
   1   1 -10  231.18   32.70
   1   1 -10  204.28   23.80
   1   1 -10  220.78   31.80
  -1  -1  10  222.48   18.00
   0   1 -10 3120.59  166.08
   0   1 -10 3118.19  167.18
   0  -1  10 2774.22  141.59
  -1   1 -10  940.31   67.79
  -1   1 -10  898.21   65.89
   1  -1  10  908.61   46.00
  -2   1 -10 1915.61  116.19
  -2   1 -10 2056.99  115.19
   2  -1  10 1934.61   99.69
   2  -1  10 1927.71   93.99
  -3   1 -10  438.96   39.30
  -3   1 -10  402.46   36.00
   3  -1  10  301.07   24.70
  -5   0  10  851.91   56.59
   4   0 -10 1957.80  113.19
  -4   0  10 1936.81  100.99
   3   0 -10 1475.55   89.69
   3   0 -10 1477.95  101.49
  -3   0  10 1536.95   79.99
   2   0 -10 1727.43  117.69
   2   0 -10 1741.03  100.39
   2   0 -10 1802.82  118.29
  -2   0  10 1766.12   90.09
   1   0 -10  913.31   56.69
   1   0 -10  864.01   71.69
   1   0 -10  921.51   70.19
  -1   0  10  841.92   48.70
   0   0 -10 4627.24  234.68
   0   0 -10 4387.96  229.68
   0   0  10 4309.07  205.78
  -1   0 -10  581.54   50.39
  -1   0 -10  559.04   48.40
   1   0  10  533.45   29.70
  -2   0 -10 1356.56   90.59
  -2   0 -10 1464.65   89.39
   2   0  10 1417.26   69.49
  -3   0 -10  604.84   48.30
  -3   0 -10  546.55   43.70
   3   0  10  564.74   31.30
  -5   1  10  580.54   42.40
  -4   1  10 1430.76   77.19
   3  -1 -10 1235.78   96.09
   3  -1 -10 1436.06  104.99
   3  -1 -10 1270.77   76.79
  -3   1  10 1455.55   73.89
   2  -1 -10 2749.62  160.78
   2  -1 -10 2485.35  134.79
   2  -1 -10 2621.74  163.78
  -2   1  10 2728.53  130.19
   1  -1 -10 1012.00   75.69
   1  -1 -10 1120.89   83.19
   1  -1 -10  939.11   58.59
  -1   1  10  993.20   54.69
   0  -1 -10 2878.91  157.48
   0  -1 -10 2665.43  151.18
   0   1  10 2538.15  128.09
  -1  -1 -10 1021.70   71.29
  -1  -1 -10  975.00   68.29
   1   1  10  775.82   45.90
  -2  -1 -10 1749.03  101.09
  -2  -1 -10 1543.95  101.39
   2   1  10 1727.33   80.69
  -3  -1 -10  750.02   61.49
   3   1  10  623.44   34.30
   4  -2 -10 1360.26  116.09
  -4   2  10 1816.42   86.09
   3  -2 -10  972.20   87.69
   3  -2 -10 1027.00   83.79
  -3   2  10 1070.09   58.69
   2  -2 -10 2233.28  139.29
  -2   2  10 1832.22  102.99
   1  -2 -10 1008.00   75.09
   1  -2 -10 1033.20   80.29
  -1   2  10  905.11   51.89
   0  -2 -10 1798.52  112.89
   0   2  10 1727.63   88.39
  -1  -2 -10 2630.54  148.49
  -1  -2 -10 2227.28  131.99
   1   2  10 2163.28  108.09
  -2  -2 -10  696.83   57.69
  -2  -2 -10  814.42   71.49
   2   2  10  889.31   45.20
   4  -3 -10  757.02   72.89
  -4   3  10  920.31   49.90
   3  -3 -10 1408.06  107.99
   3  -3 -10 1422.26  100.19
  -3   3  10 1340.57   73.19
   2  -3 -10 1517.55  105.49
   2  -3 -10 1384.76   96.19
  -2   3  10 1273.17   71.29
   1  -3 -10 1143.49   83.89
   1  -3 -10 1184.18   88.09
  -1   3  10 1184.78   63.99
   0  -3 -10  841.32   63.99
   0  -3 -10  667.13   70.89
   0   3  10  792.12   44.30
   0   3  10  748.43   38.30
  -1  -3 -10 2079.19  120.89
  -1  -3 -10 2056.79  123.49
   1   3  10 2073.59   96.89
  -2  -3 -10  822.32   56.49
   2   3  10  830.32   41.10
  -4   4  10 1059.89   57.49
   3  -4 -10 1497.95   98.59
   3  -4 -10 1458.85  107.79
  -3   4  10 1476.85   77.59
   2  -4 -10  634.04   58.19
   2  -4 -10  665.03   62.09
  -2   4  10  690.83   41.80
   1  -4 -10 1466.55   97.59
   1  -4 -10 1466.95   99.79
  -1   4  10 1429.86   76.49
   0  -4 -10  864.31   66.99
   0  -4 -10  921.71   67.99
   0   4  10  864.31   49.20
  -1  -4 -10 1598.64   96.49
  -1  -4 -10 1516.75   97.19
   1   4  10 1711.83   76.39
  -4   5  10  462.75   28.90
   3  -5 -10 2002.00  132.09
   3  -5 -10 2373.86  128.79
  -3   5  10 2183.58  108.89
   2  -5 -10  528.95   51.49
   2  -5 -10  539.45   50.39
  -2   5  10  530.95   34.80
   1  -5 -10 1043.60   77.99
   1  -5 -10 1190.98   80.89
  -1   5  10 1171.78   61.99
   0  -5 -10 1230.58   84.09
   0  -5 -10 1252.47   86.29
   0   5  10 1353.56   67.69
  -1  -5 -10 1173.88   81.09
   3  -6 -10 2220.68  123.69
  -3   6  10 2219.18  108.89
   2  -6 -10  763.42   57.59
  -2   6  10  765.32   44.10
   1  -6 -10 1451.55   90.39
  -1   6  10 1383.36   73.29
   0  -6 -10  681.33   58.29
   0   9 -11 1331.97   74.69
   0  -9  11 1378.06   69.49
  -1   9 -11  511.65   37.20
   1  -9  11  529.65   31.50
   1   8 -11  322.37   28.10
  -1  -8  11  350.36   23.80
   0   8 -11 1655.13   92.79
   0  -8  11 1777.82   88.29
  -1   8 -11  520.45   36.30
   1  -8  11  502.45   32.00
  -2   8 -11  909.61   52.99
   2   7 -11 1178.78   69.89
  -2  -7  11 1174.98   62.39
   1   7 -11  766.62   52.09
  -1  -7  11  788.32   45.50
   0   7 -11 1554.54   87.79
   0  -7  11 1565.44   81.09
  -1   7 -11  600.94   47.10
  -1   7 -11  625.14   42.90
   1  -7  11  647.64   38.20
  -2   7 -11 1248.78   77.19
   2  -7  11 1336.17   66.49
   3   6 -11  712.43   49.20
  -3  -6  11  805.12   47.90
   2   6 -11 1264.67   79.39
  -2  -6  11 1147.99   73.89
   1   6 -11 1582.74   92.29
  -1  -6  11 1625.54   83.89
   0   6 -11 1627.54   90.49
   0  -6  11 1560.44   82.69
  -1   6 -11 1092.69   70.59
   1  -6  11 1079.79   58.69
   3   5 -11 1381.46   82.79
  -3  -5  11 1419.26   73.89
   2   5 -11  869.71   60.69
  -2  -5  11  857.51   50.69
   1   5 -11 2300.37  127.49
  -1  -5  11 2411.46  118.09
   0   5 -11 1002.80   70.19
   0   5 -11 1060.69   65.69
   0  -5  11 1080.59   58.39
  -1   5 -11 1621.94   98.99
   1  -5  11 1652.93   83.49
   2   4 -11  889.31   63.89
  -2  -4  11  915.41   52.79
   1   4 -11 2653.33  141.99
  -1  -4  11 2647.34  130.49
   0   4 -11  321.87   38.80
   0   4 -11  378.66   39.90
   0  -4  11  379.76   26.30
  -1   4 -11 2871.11  161.38
  -1   4 -11 3024.30  162.78
   1  -4  11 3062.29  143.19
  -2   4 -11  847.72   59.19
   4   3 -11  630.84   48.80
  -4  -3  11  561.64   37.40
   3   3 -11 1229.58   81.19
  -3  -3  11 1233.78   67.89
   2   3 -11  858.01   62.89
  -2  -3  11  822.62   49.10
   1   3 -11 1704.83  103.09
   1   3 -11 1842.92  110.49
  -1  -3  11 1900.81  104.69
   0   3 -11 1028.50   70.99
   0  -3  11 1164.98   63.39
  -1   3 -11 1809.12  105.79
  -1   3 -11 1680.03  101.49
   1  -3  11 1621.54   83.89
  -2   3 -11  720.43   55.59
  -2   3 -11  669.03   52.49
  -3   3 -11 1777.52  102.19
   4   2 -11  438.76   39.60
  -4  -2  11  584.94   35.90
   3   2 -11 1573.04  100.89
  -3  -2  11 1769.12   88.49
   2   2 -11 1202.18   87.29
   2   2 -11 1095.79   75.99
  -2  -2  11 1157.48   62.89
   1   2 -11 1053.39   72.09
   1   2 -11  950.90   73.59
   1   2 -11  891.11   73.59
  -1  -2  11  957.30   55.89
   0   2 -11 1362.76   96.09
   0   2 -11 1378.06   88.29
   0  -2  11 1393.66   71.29
  -1   2 -11 1796.52  108.89
  -1   2 -11 1818.12  110.19
  -2   2 -11  486.45   43.30
  -2   2 -11  454.75   42.90
  -3   2 -11 1505.85   85.29
   3  -2  11 1301.17   69.99
   4   1 -11  512.85   42.80
  -4  -1  11  601.74   37.40
   3   1 -11 1943.21  110.49
   3   1 -11 1807.22  112.39
  -3  -1  11 2031.30   99.59
   2   1 -11  797.92   68.49
   2   1 -11  917.11   68.49
   2   1 -11  838.72   59.89
  -2  -1  11  857.41   49.70
   1   1 -11 2711.03  138.09
   1   1 -11 2337.17  139.19
   1   1 -11 2044.40  155.08
  -1  -1  11 2204.98  116.49
   0   1 -11 1219.18   82.89
   0  -1  11 1173.78   64.99
  -1   1 -11 1266.67   87.69
  -1   1 -11 1439.36   99.09
  -2   1 -11  814.52   63.49
  -2   1 -11  902.81   64.09
   2  -1  11  907.01   46.50
  -3   1 -11  925.51   60.89
  -4   0  11 1052.59   58.99
   3   0 -11 1321.47   91.19
   3   0 -11 1326.77   78.39
  -3   0  11 1365.66   72.19
   2   0 -11 2615.14  155.48
   2   0 -11 2603.34  137.89
   2   0 -11 2557.84  160.38
  -2   0  11 2722.53  129.69
   1   0 -11  941.61   73.39
   1   0 -11  829.12   59.09
   1   0 -11  917.01   73.49
   0   0 -11 1523.75  100.09
   0   0 -11 1488.65   97.79
  -1   0 -11 1317.17   86.89
  -1   0 -11 1289.17   87.39
  -2   0 -11 1719.33   97.69
  -2   0 -11 1500.35   97.39
   2   0  11 1527.85   74.69
  -3   0 -11  740.63   53.69
  -4   1  11 1403.36   74.29
   3  -1 -11 1129.19   86.69
  -3   1  11 1122.09   61.99
   2  -1 -11 1361.36  100.59
   2  -1 -11 1397.16   97.09
  -2   1  11 1335.87   71.89
   1  -1 -11 1626.84  104.59
   1  -1 -11 1713.73  110.29
   1  -1 -11 1466.65   83.39
  -1   1  11 1508.45   79.39
   0  -1 -11 1994.70  114.39
   0  -1 -11 1682.43   92.29
   0  -1 -11 1724.23  118.89
  -1  -1 -11  714.93   57.19
  -1  -1 -11  702.83   58.29
  -2  -1 -11 1863.61  106.69
  -2  -1 -11 1740.93  109.09
   2   1  11 1969.40   88.19
  -4   2  11 1375.56   71.89
   3  -2 -11  982.20   75.19
   3  -2 -11  910.21   77.59
  -3   2  11  987.10   54.49
   2  -2 -11 1381.76   95.19
   2  -2 -11 1392.66  101.29
  -2   2  11 1363.36   72.09
   1  -2 -11  596.44   58.29
   1  -2 -11  619.14   56.09
  -1   2  11  627.84   37.80
   0  -2 -11 2596.94  150.48
   0  -2 -11 2658.43  150.38
  -1  -2 -11  600.74   51.89
  -1  -2 -11  565.94   48.70
  -2  -2 -11 1922.51  109.09
  -4   3  11 1258.27   70.19
   3  -3 -11  494.55   49.70
   3  -3 -11  594.94   59.39
  -3   3  11  477.15   32.00
   2  -3 -11 1832.62  114.69
   2  -3 -11 1811.72  121.39
  -2   3  11 1890.31   93.99
   1  -3 -11  557.44   50.29
   1  -3 -11  526.55   52.29
  -1   3  11  535.85   34.00
   0  -3 -11 1711.83  110.49
   0  -3 -11 1850.71  110.89
  -1  -3 -11  571.24   47.30
   3  -4 -11  603.34   50.59
  -3   4  11  623.64   37.10
   2  -4 -11 1685.73  125.99
   2  -4 -11 1786.12  117.59
  -2   4  11 1562.24   86.09
   1  -4 -11 1038.80   79.19
  -1   4  11 1076.39   57.49
   0  -4 -11  712.03   54.99
  -1  -4 -11  649.54   48.30
  -3   5  11 1032.10   57.49
   2  -5 -11 1506.25   93.39
  -2   5  11 1534.85   77.59
   1  -5 -11  753.22   57.79
  -1   5  11  805.12   48.50
   0  -5 -11  506.85   49.30
   0   8 -12 1829.32   96.49
   0  -8  12 1656.83   86.09
  -1   8 -12  424.06   33.20
   1  -8  12  339.57   24.10
   1   7 -12  674.63   45.70
  -1  -7  12  666.93   39.30
   0   7 -12 1720.63   94.59
   0  -7  12 1767.62   87.99
  -1   7 -12  337.07   26.80
   1  -7  12  302.47   22.00
  -2   7 -12 1413.16   75.89
   2   6 -12  981.80   61.59
  -2  -6  12 1002.90   54.09
   1   6 -12 1221.08   75.19
  -1  -6  12 1194.48   69.79
   0   6 -12 1891.11  103.49
   0  -6  12 1938.21  101.59
  -1   6 -12  390.76   35.50
  -1   6 -12  355.86   37.90
   1  -6  12  366.76   24.90
  -2   6 -12 1732.93   98.59
   2   5 -12 1168.58   72.99
  -2  -5  12 1216.08   64.19
   1   5 -12  691.63   50.09
  -1  -5  12  725.73   42.90
   0   5 -12 2674.83  132.59
   0   5 -12 2081.89  158.18
   0  -5  12 2704.13  123.99
  -1   5 -12  726.33   63.89
   1  -5  12  736.23   41.50
  -2   5 -12 1111.99   71.39
   3   4 -12  468.75   38.10
  -3  -4  12  512.75   32.20
   2   4 -12 1097.89   72.49
  -2  -4  12 1124.69   60.89
   1   4 -12 1298.27   78.59
  -1  -4  12 1262.57   68.29
   0   4 -12 1589.04   89.09
   0   4 -12 1496.45   95.19
   0  -4  12 1593.14   80.39
  -1   4 -12  970.00   68.59
  -2   4 -12  897.11   62.59
   3   3 -12 1285.67   79.89
  -3  -3  12 1371.86   71.19
   2   3 -12  454.35   39.50
  -2  -3  12  435.76   30.00
   1   3 -12 2189.68  115.19
   1   3 -12 1934.71  118.29
  -1  -3  12 2046.90  102.79
   0   3 -12  593.84   43.10
   0   3 -12  581.54   50.89
   0   3 -12  601.94   49.10
   0  -3  12  586.94   35.30
  -1   3 -12 1302.97   85.59
  -1   3 -12 1470.05   90.99
  -2   3 -12  869.41   61.59
   3   2 -12  600.04   45.90
  -3  -2  12  654.23   39.40
   2   2 -12 1047.00   69.29
  -2  -2  12 1108.49   59.89
   1   2 -12 2158.98  130.29
   1   2 -12 2152.98  126.69
   1   2 -12 2187.18  120.39
  -1  -2  12 2413.56  111.09
   0   2 -12  517.85   46.40
   0   2 -12  538.25   48.60
   0   2 -12  575.94   40.70
   0  -2  12  503.45   31.90
  -1   2 -12 1248.68   83.49
  -1   2 -12 1281.77   84.49
  -2   2 -12  402.56   38.10
   3   1 -12 2342.87  126.09
  -3  -1  12 2491.95  119.69
   2   1 -12  349.17   31.10
   2   1 -12  355.76   39.40
   2   1 -12  271.37   58.79
  -2  -1  12  347.87   25.20
   1   1 -12 1888.71  104.49
   1   1 -12 1889.31  117.89
   1   1 -12 1986.20  120.19
  -1  -1  12 1955.60   96.79
   0   1 -12 1029.50   61.39
   0   1 -12 1052.59   75.49
   0   1 -12  995.90   72.99
  -1   1 -12 1673.03  103.59
  -1   1 -12 1607.64  100.99
  -2   1 -12  535.85   44.10
  -3   0  12 1947.51   98.19
   2   0 -12  772.92   79.29
   2   0 -12  758.72   49.50
   2   0 -12  752.62   63.79
  -2   0  12  785.52   44.80
   1   0 -12 1556.64   85.99
   1   0 -12 1615.24  105.59
   1   0 -12 1668.93  103.39
  -1   0  12 1520.95   79.79
   0   0 -12 1660.93  106.29
   0   0 -12 1687.13   91.89
   0   0 -12 1731.33  106.19
  -1   0 -12  942.51   69.39
  -1   0 -12  806.82   62.09
  -2   0 -12  846.32   58.19
  -3   1  12 1213.48   64.59
   2  -1 -12  671.73   61.39
  -2   1  12  638.64   40.40
   1  -1 -12 2043.80  123.59
   1  -1 -12 1908.51  117.19
  -1   1  12 1773.02   99.49
   0  -1 -12 1218.78   80.89
   0  -1 -12 1071.09   79.29
  -1  -1 -12  992.90   67.99
  -1  -1 -12  944.61   70.49
  -3   2  12  671.13   44.00
   2  -2 -12  723.73   63.99
   2  -2 -12  770.72   59.89
  -2   2  12  802.32   44.30
   1  -2 -12 1691.53  111.99
   1  -2 -12 1477.55  103.69
  -1   2  12 1594.74   80.19
   0  -2 -12 1178.78   82.09
   0  -2 -12 1216.68   85.09
  -1  -2 -12  301.17   31.10
  -3   3  12  476.45   30.80
   2  -3 -12  975.60   69.39
  -2   3  12 1022.90   54.29
   1  -3 -12 1031.00   77.59
  -1   3  12 1444.36   72.69
   0  -3 -12  805.82   59.29
   2  -4 -12  889.11   76.09
  -2   4  12 1223.38   57.39
   1  -4 -12  448.76   40.30
   1   6 -13  661.73   44.00
  -1  -6  13  628.74   38.50
   0   6 -13 1605.24   86.59
   0  -6  13 1554.74   82.39
  -1   6 -13  528.85   35.90
   2   5 -13  551.64   45.00
   1   5 -13 1231.98   71.39
  -1  -5  13 1167.68   62.49
   0   5 -13 1169.58   67.09
   0  -5  13 1092.69   58.69
  -1   5 -13  499.75   57.79
  -1   5 -13  448.66   33.20
   2   4 -13  994.10   63.39
  -2  -4  13 1053.79   55.69
   1   4 -13  676.33   46.60
  -1  -4  13  649.24   38.40
   0   4 -13 1528.55   84.09
   0   4 -13 1509.05   89.89
   0  -4  13 1453.55   74.99
  -1   4 -13  526.75   42.90
  -1   4 -13  521.65   36.50
   2   3 -13 1696.83   95.59
  -2  -3  13 1742.03   87.09
   1   3 -13  466.65   37.30
  -1  -3  13  514.35   31.30
   0   3 -13  938.41   57.59
   0   3 -13  950.00   65.99
   0  -3  13  918.41   51.09
  -1   3 -13  827.52   50.69
  -1   3 -13  804.52   58.49
   2   2 -13 1100.99   67.39
  -2  -2  13 1141.29   60.19
   1   2 -13  649.43   53.89
   1   2 -13  674.43   46.10
  -1  -2  13  691.33   39.50
   0   2 -13 1324.97   73.79
   0   2 -13 1288.37   84.29
  -1   2 -13  817.22   50.69
  -1   2 -13  906.01   62.19
  -3  -1  13  750.72   43.40
   2   1 -13 1368.56   76.79
  -2  -1  13 1192.68   66.09
   1   1 -13 1401.16   78.29
   1   1 -13 1445.26   90.79
  -1  -1  13 1398.46   72.19
   0   1 -13  704.53   45.40
   0   1 -13  767.52   57.99
  -1   1 -13 1416.46   85.19
  -1   1 -13 1279.87   77.19
   2   0 -13  777.72   82.89
  -2   0  13  918.01   58.59
   1   0 -13 1602.44   98.59
   0   0 -13  860.11   62.69
  -1   0 -13 1561.74   93.19
  -2   1  13  478.95   29.90
   1  -1 -13 1488.45   92.29
   0  -1 -13  501.65   43.90
   1  -2 -13 1021.00   71.99
   0   0   0    0.00    0.00

_computing_structure_solution     'SHELXT 2014/5 (Sheldrick, 2014)'
;
_shelx_hkl_checksum              48041
loop_
_space_group_symop_operation_xyz
'x, y, z'
'-x, -y, -z'
loop_
_atom_site_label
_atom_site_type_symbol
_atom_site_fract_x
_atom_site_fract_y
_atom_site_fract_z
_atom_site_U_iso_or_equiv
_atom_site_adp_type
_atom_site_occupancy
_atom_site_site_symmetry_order
_atom_site_calc_flag
_atom_site_refinement_flags_posn
_atom_site_refinement_flags_adp
_atom_site_refinement_flags_occupancy
_atom_site_disorder_assembly
_atom_site_disorder_group
U1 U 1.000000 0.500000 0.000000 0.00802(7) Uani 1 2 d S . P . .
P1 P 0.4875(2) 0.40689(12) 0.19925(10) 0.0098(2) Uani 1 1 d . . . . .
O1 O 0.6367(6) 0.3695(3) 0.0857(3) 0.0127(6) Uani 1 1 d . . . . .
O2 O 0.3034(6) 0.5097(3) 0.1815(3) 0.0137(6) Uani 1 1 d . . . . .
O3 O 0.7174(6) 0.4828(4) 0.3170(3) 0.0149(6) Uani 1 1 d . . . . .
H3 H 0.643211 0.505459 0.382278 0.022 Uiso 1 1 d R U . . .
O4 O 0.3849(8) 0.3252(4) 0.5012(3) 0.0232(7) Uani 1 1 d . . . . .
O5 O 0.7646(7) 0.2837(4) 0.5925(3) 0.0240(8) Uani 1 1 d . . . . .
H5 H 0.738255 0.343099 0.655862 0.036 Uiso 1 1 d R U . . .
O6 O 0.9501(7) 0.6701(4) 0.0780(3) 0.0163(6) Uani 1 1 d . . . . .
C1 C 0.2690(9) 0.2385(5) 0.2276(4) 0.0142(8) Uani 1 1 d . . . . .
H1A H 0.165904 0.264066 0.299119 0.017 Uiso 1 1 calc R U . . .
H1B H 0.130929 0.187094 0.150104 0.017 Uiso 1 1 calc R U . . .
C2 C 0.4319(9) 0.1329(5) 0.2603(4) 0.0119(8) Uani 1 1 d . . . . .
C3 C 0.4431(10) 0.0154(5) 0.1625(4) 0.0185(9) Uani 1 1 d . . . . .
H3A H 0.337372 0.000258 0.080789 0.022 Uiso 1 1 calc R U . . .
C4 C 0.6019(11) -0.0792(5) 0.1802(5) 0.0203(10) Uani 1 1 d . . . . .
H4 H 0.604843 -0.157914 0.111271 0.024 Uiso 1 1 calc R U . . .
C5 C 0.7575(10) -0.0599(5) 0.2985(5) 0.0194(9) Uani 1 1 d . . . . .
H5A H 0.871137 -0.123307 0.310818 0.023 Uiso 1 1 calc R U . . .
C6 C 0.7451(10) 0.0531(5) 0.3984(4) 0.0168(9) Uani 1 1 d . . . . .
H6 H 0.848871 0.065676 0.480106 0.020 Uiso 1 1 calc R U . . .
C7 C 0.5834(9) 0.1490(5) 0.3817(4) 0.0136(8) Uani 1 1 d . . . . .
C8 C 0.5672(9) 0.2618(5) 0.4956(4) 0.0142(8) Uani 1 1 d . . . . .
loop_
_atom_site_aniso_label
_atom_site_aniso_U_11
_atom_site_aniso_U_22
_atom_site_aniso_U_33
_atom_site_aniso_U_23
_atom_site_aniso_U_13
_atom_site_aniso_U_12
U1 0.00885(10) 0.00872(10) 0.00707(10) 0.00100(6) 0.00150(6) 0.00395(7)
P1 0.0103(5) 0.0108(5) 0.0081(5) 0.0017(4) 0.0013(4) 0.0028(4)
O1 0.0109(14) 0.0167(15) 0.0107(14) 0.0022(11) 0.0068(11) 0.0034(12)
O2 0.0145(15) 0.0132(15) 0.0133(15) 0.0011(12) 0.0005(12) 0.0054(12)
O3 0.0137(15) 0.0167(15) 0.0121(14) -0.0015(12) 0.0006(12) 0.0044(12)
O4 0.0302(19) 0.0256(18) 0.0153(16) -0.0022(14) 0.0031(14) 0.0154(15)
O5 0.0239(18) 0.0261(19) 0.0166(16) -0.0080(14) -0.0046(14) 0.0095(15)
O6 0.0144(15) 0.0160(16) 0.0173(16) 0.0023(12) 0.0039(12) 0.0027(12)
C1 0.0111(19) 0.014(2) 0.015(2) 0.0019(16) 0.0015(16) -0.0001(16)
C2 0.0121(19) 0.0096(19) 0.014(2) 0.0056(15) 0.0043(16) 0.0004(15)
C3 0.023(2) 0.018(2) 0.012(2) 0.0011(17) 0.0018(18) 0.0048(19)
C4 0.028(3) 0.012(2) 0.021(2) 0.0008(17) 0.008(2) 0.0053(19)
C5 0.021(2) 0.017(2) 0.022(2) 0.0053(18) 0.0048(19) 0.0082(18)
C6 0.019(2) 0.015(2) 0.017(2) 0.0060(18) 0.0018(18) 0.0061(18)
C7 0.015(2) 0.013(2) 0.012(2) 0.0027(16) 0.0051(16) 0.0025(16)
C8 0.017(2) 0.0113(19) 0.014(2) 0.0028(16) 0.0041(16) 0.0027(16)
loop_
_atom_type_symbol
_atom_type_description
_atom_type_scat_dispersion_real
_atom_type_scat_dispersion_imag
_atom_type_scat_source
C C 0.0137 0.0067 'International Tables Vol C Tables 4.2.6.8 and 6.1.1.4'
H H 0.0000 0.0000 'International Tables Vol C Tables 4.2.6.8 and 6.1.1.4'
O O 0.0389 0.0241 'International Tables Vol C Tables 4.2.6.8 and 6.1.1.4'
P P 0.2543 0.3332 'International Tables Vol C Tables 4.2.6.8 and 6.1.1.4'
U U -3.9641 10.8496 'International Tables Vol C Tables 4.2.6.8 and 6.1.1.4'
loop_
_geom_angle_atom_site_label_1
_geom_angle_atom_site_label_2
_geom_angle_atom_site_label_3
_geom_angle
_geom_angle_site_symmetry_1
_geom_angle_site_symmetry_3
_geom_angle_publ_flag
O6 U1 O6 180.0 . 2_765 ?
O6 U1 O1 90.41(13) . . ?
O6 U1 O1 89.59(13) 2_765 . ?
O6 U1 O1 89.59(13) . 2_765 ?
O6 U1 O1 90.41(13) 2_765 2_765 ?
O1 U1 O1 180.0 . 2_765 ?
O6 U1 O2 88.91(13) . 1_655 ?
O6 U1 O2 91.09(13) 2_765 1_655 ?
O1 U1 O2 89.35(11) . 1_655 ?
O1 U1 O2 90.65(11) 2_765 1_655 ?
O6 U1 O2 91.09(13) . 2_665 ?
O6 U1 O2 88.91(13) 2_765 2_665 ?
O1 U1 O2 90.65(11) . 2_665 ?
O1 U1 O2 89.35(11) 2_765 2_665 ?
O2 U1 O2 180.0 1_655 2_665 ?
O1 P1 O2 114.18(18) . . ?
O1 P1 O3 106.44(17) . . ?
O2 P1 O3 109.91(17) . . ?
O1 P1 C1 109.5(2) . . ?
O2 P1 C1 107.4(2) . . ?
O3 P1 C1 109.3(2) . . ?
P1 O1 U1 134.82(18) . . ?
P1 O2 U1 128.49(17) . 1_455 ?
P1 O3 H3 109.5 . . ?
C8 O5 H5 109.5 . . ?
C2 C1 P1 112.6(3) . . ?
C2 C1 H1A 109.1 . . ?
P1 C1 H1A 109.1 . . ?
C2 C1 H1B 109.1 . . ?
P1 C1 H1B 109.1 . . ?
H1A C1 H1B 107.8 . . ?
C3 C2 C7 117.4(4) . . ?
C3 C2 C1 118.0(4) . . ?
C7 C2 C1 124.5(4) . . ?
C4 C3 C2 122.3(4) . . ?
C4 C3 H3A 118.8 . . ?
C2 C3 H3A 118.8 . . ?
C3 C4 C5 120.0(4) . . ?
C3 C4 H4 120.0 . . ?
C5 C4 H4 120.0 . . ?
C6 C5 C4 119.1(4) . . ?
C6 C5 H5A 120.5 . . ?
C4 C5 H5A 120.5 . . ?
C5 C6 C7 121.3(4) . . ?
C5 C6 H6 119.3 . . ?
C7 C6 H6 119.3 . . ?
C6 C7 C2 119.8(4) . . ?
C6 C7 C8 118.1(4) . . ?
C2 C7 C8 122.0(4) . . ?
O4 C8 O5 122.7(4) . . ?
O4 C8 C7 123.7(4) . . ?
O5 C8 C7 113.5(4) . . ?
loop_
_geom_bond_atom_site_label_1
_geom_bond_atom_site_label_2
_geom_bond_distance
_geom_bond_site_symmetry_2
_geom_bond_publ_flag
U1 O6 1.763(3) . ?
U1 O6 1.763(3) 2_765 ?
U1 O1 2.299(3) . ?
U1 O1 2.299(3) 2_765 ?
U1 O2 2.338(3) 1_655 ?
U1 O2 2.338(3) 2_665 ?
P1 O1 1.519(3) . ?
P1 O2 1.535(3) . ?
P1 O3 1.555(3) . ?
P1 C1 1.789(5) . ?
O3 H3 0.8400 . ?
O4 C8 1.220(6) . ?
O5 C8 1.319(6) . ?
O5 H5 0.8400 . ?
C1 C2 1.520(6) . ?
C1 H1A 0.9900 . ?
C1 H1B 0.9900 . ?
C2 C3 1.395(6) . ?
C2 C7 1.411(6) . ?
C3 C4 1.376(7) . ?
C3 H3A 0.9500 . ?
C4 C5 1.386(7) . ?
C4 H4 0.9500 . ?
C5 C6 1.383(6) . ?
C5 H5A 0.9500 . ?
C6 C7 1.394(6) . ?
C6 H6 0.9500 . ?
C7 C8 1.487(6) . ?
loop_
_geom_hbond_atom_site_label_D
_geom_hbond_atom_site_label_H
_geom_hbond_atom_site_label_A
_geom_hbond_distance_DH
_geom_hbond_distance_HA
_geom_hbond_distance_DA
_geom_hbond_angle_DHA
_geom_hbond_site_symmetry_A
_geom_hbond_publ_flag
O5 H5 O2 0.84 2.08 2.919(5) 176.5 2_666 yes
O3 H3 O4 0.84 1.88 2.588(5) 140.4 2_666 yes
loop_
_geom_torsion_atom_site_label_1
_geom_torsion_atom_site_label_2
_geom_torsion_atom_site_label_3
_geom_torsion_atom_site_label_4
_geom_torsion
_geom_torsion_site_symmetry_1
_geom_torsion_site_symmetry_2
_geom_torsion_site_symmetry_3
_geom_torsion_site_symmetry_4
_geom_torsion_publ_flag
O2 P1 O1 U1 71.5(3) . . . . ?
O3 P1 O1 U1 -50.0(3) . . . . ?
C1 P1 O1 U1 -168.1(2) . . . . ?
O1 P1 O2 U1 42.9(3) . . . 1_455 ?
O3 P1 O2 U1 162.4(2) . . . 1_455 ?
C1 P1 O2 U1 -78.7(3) . . . 1_455 ?
O1 P1 C1 C2 61.3(3) . . . . ?
O2 P1 C1 C2 -174.2(3) . . . . ?
O3 P1 C1 C2 -55.0(4) . . . . ?
P1 C1 C2 C3 -98.5(4) . . . . ?
P1 C1 C2 C7 78.5(5) . . . . ?
C7 C2 C3 C4 -2.2(7) . . . . ?
C1 C2 C3 C4 175.1(4) . . . . ?
C2 C3 C4 C5 0.2(8) . . . . ?
C3 C4 C5 C6 1.5(7) . . . . ?
C4 C5 C6 C7 -1.1(7) . . . . ?
C5 C6 C7 C2 -1.0(7) . . . . ?
C5 C6 C7 C8 176.3(4) . . . . ?
C3 C2 C7 C6 2.6(6) . . . . ?
C1 C2 C7 C6 -174.5(4) . . . . ?
C3 C2 C7 C8 -174.6(4) . . . . ?
C1 C2 C7 C8 8.3(7) . . . . ?
C6 C7 C8 O4 -161.2(5) . . . . ?
C2 C7 C8 O4 16.1(7) . . . . ?
C6 C7 C8 O5 16.7(6) . . . . ?
C2 C7 C8 O5 -166.0(4) . . . . ?
