#------------------------------------------------------------------------------
#$Date: 2021-09-03 02:07:36 +0300 (Fri, 03 Sep 2021) $
#$Revision: 268377 $
#$URL: file:///home/coder/svn-repositories/cod/cif/7/70/81/7708177.cif $
#------------------------------------------------------------------------------
#
# This file is available in the Crystallography Open Database (COD),
# http://www.crystallography.net/
#
# All data on this site have been placed in the public domain by the
# contributors.
#
data_7708177
loop_
_publ_author_name
'Kumar, Brajesh'
'Das, Tushar'
'Das, Subhadeep'
'Maniukiewicz, Waldemar'
'Nesterov, Dmytro'
'Kirillov, Alexander'
'Das, Subrata'
_publ_section_title
;
 Coupling 6-chloro-3-methyluracil with copper: Structural features,
 theoretical analysis, and biofunctional properties
;
_journal_name_full               'Dalton Transactions'
_journal_paper_doi               10.1039/D1DT02018H
_journal_year                    2021
_chemical_formula_moiety         'C10 H12 Cl2 Cu N4 O6, 4(H2 O)'
_chemical_formula_sum            'C10 H20 Cl2 Cu N4 O10'
_chemical_formula_weight         490.742
_space_group_crystal_system      triclinic
_space_group_IT_number           2
_space_group_name_Hall           '-P 1'
_space_group_name_H-M_alt        'P -1'
_symmetry_Int_Tables_number      2
_audit_creation_date             2021-07-26
_audit_creation_method
;
Olex2 1.5-alpha
(compiled 2021.07.19 svn.r715e62df for OlexSys, GUI svn.r6380)
;
_audit_update_record
;
2021-08-18 deposited with the CCDC.	2021-09-02 downloaded from the CCDC.
;
_cell_angle_alpha                100.737(6)
_cell_angle_beta                 111.177(6)
_cell_angle_gamma                98.352(7)
_cell_formula_units_Z            1
_cell_length_a                   6.966(3)
_cell_length_b                   8.253(4)
_cell_length_c                   9.105(4)
_cell_measurement_reflns_used    93859
_cell_measurement_temperature    150(2)
_cell_measurement_theta_max      32.775
_cell_measurement_theta_min      2.715
_cell_volume                     466.5(4)
_computing_cell_refinement       'CrysAlisPro 1.171.40.84a (Rigaku OD, 2020)'
_computing_data_collection       'CrysAlisPro 1.171.40.84a (Rigaku OD, 2020)'
_computing_data_reduction        'CrysAlisPro 1.171.40.84a (Rigaku OD, 2020)'
_computing_molecular_graphics    'Olex2 1.5-alpha (Dolomanov et al., 2009)'
_computing_publication_material  'Olex2 1.5-alpha (Dolomanov et al., 2009)'
_computing_structure_refinement
'olex2.refine 1.5-alpha (Bourhis et al., 2015)'
_computing_structure_solution    'SHELXT 2014/4 (Sheldrick, 2014)'
_diffrn_ambient_temperature      150.00
_diffrn_detector_area_resol_mean 5.8140
_diffrn_detector_type            'Pilatus 300K'
_diffrn_measured_fraction_theta_full 0.9988
_diffrn_measured_fraction_theta_max 0.9851
_diffrn_measurement_device       'four-circle diffractometer'
_diffrn_measurement_device_type  'XtaLAB Synergy, Dualflex, Pilatus 300K'
_diffrn_measurement_method       '\w scans'
_diffrn_radiation_type           'Mo K\a'
_diffrn_radiation_wavelength     0.71073
_diffrn_reflns_av_R_equivalents  0.0333
_diffrn_reflns_av_unetI/netI     0.0190
_diffrn_reflns_Laue_measured_fraction_full 0.9988
_diffrn_reflns_Laue_measured_fraction_max 0.9851
_diffrn_reflns_limit_h_max       9
_diffrn_reflns_limit_h_min       -9
_diffrn_reflns_limit_k_max       11
_diffrn_reflns_limit_k_min       -11
_diffrn_reflns_limit_l_max       12
_diffrn_reflns_limit_l_min       -12
_diffrn_reflns_number            14589
_diffrn_reflns_point_group_measured_fraction_full 0.9988
_diffrn_reflns_point_group_measured_fraction_max 0.9851
_diffrn_reflns_theta_full        25.2417
_diffrn_reflns_theta_max         28.69
_diffrn_reflns_theta_min         3.09
_exptl_absorpt_coefficient_mu    1.515
_exptl_absorpt_correction_T_max  0.930
_exptl_absorpt_correction_T_min  0.914
_exptl_absorpt_correction_type   gaussian
_exptl_crystal_colour            Green
_exptl_crystal_density_diffrn    1.747
_exptl_crystal_description       Needle
_exptl_crystal_F_000             251.795
_exptl_crystal_size_max          0.1
_exptl_crystal_size_mid          0.05
_exptl_crystal_size_min          0.05
_refine_diff_density_max         0.4064
_refine_diff_density_min         -0.2845
_refine_diff_density_rms         0.0633
_refine_ls_d_res_high            0.7402
_refine_ls_d_res_low             6.6023
_refine_ls_extinction_coef       0.042(3)
_refine_ls_extinction_expression Fc^*^=kFc[1+0.001xFc^2^\l^3^/sin(2\q)]^-1/4^
_refine_ls_goodness_of_fit_ref   1.0465
_refine_ls_hydrogen_treatment    mixed
_refine_ls_matrix_type           full
_refine_ls_number_constraints    11
_refine_ls_number_parameters     147
_refine_ls_number_reflns         2376
_refine_ls_number_restraints     0
_refine_ls_restrained_S_all      1.0465
_refine_ls_R_factor_all          0.0232
_refine_ls_R_factor_gt           0.0213
_refine_ls_shift/su_max          -0.0008
_refine_ls_shift/su_mean         0.0001
_refine_ls_structure_factor_coef Fsqd
_refine_ls_weighting_details
'w=1/[\s^2^(Fo^2^)+(0.0302P)^2^+0.2378P] where P=(Fo^2^+2Fc^2^)/3'
_refine_ls_weighting_scheme      calc
_refine_ls_wR_factor_gt          0.0589
_refine_ls_wR_factor_ref         0.0623
_reflns_Friedel_coverage         0.0
_reflns_limit_h_max              8
_reflns_limit_h_min              -9
_reflns_limit_k_max              10
_reflns_limit_k_min              -11
_reflns_limit_l_max              12
_reflns_limit_l_min              0
_reflns_number_gt                2277
_reflns_number_total             2376
_reflns_threshold_expression     I>=2u(I)
_iucr_refine_instructions_details
;
TITL SDBR_17a_0m_a.res in P-1
CELL 0.71073 6.9655 8.2534 9.1048 100.737 111.177 98.352
ZERR 1 0.003 0.004 0.004 0.006 0.006 0.007
LATT 1
SFAC C H Cl Cu N O
UNIT 10 20 2 1 4 10
EQIV $1 +X,-1+Y,+Z
EQIV $2 1-X,-Y,-Z

L.S. 10
PLAN  5
SIZE 0.05 0.05 0.1
TEMP -123.15
HTAB O3 O2_$1
HTAB O3 O4
HTAB O4 O5
HTAB O5 O1_$2
LIST 6
ACTA 
BOND $H
FMAP 2
EXTI 0.042
OMIT 7 -1 4
WGHT 0.030193 0.237799
FVAR 0.827157
REM <olex2.extras>
REM <selected_cif_records
REM  <bonds
REM   <row "$M">
REM  >
REM  <angles
REM   <row "$* $M $*">
REM  >
REM >
REM <HklSrc "%.\\SDBR_17.hkl">
REM </olex2.extras>

Cu1   4     0.50000  0.00000  0.50000  10.50000  0.02205  0.01939  0.02345 =
 0.01201  0.01028  0.00551 
Cl1   3     0.89476  0.35271  0.69364  11.00000  0.02811  0.04845  0.02810 =
 0.01941  0.00407  0.00649 
O1    6     0.25565  0.06610  0.21599  11.00000  0.02940  0.02410  0.03254 =
 0.00730  0.01094  0.00008 
O2    6     0.55376  0.59967  0.22365  11.00000  0.03862  0.02564  0.03527 =
 0.01885  0.01549  0.00865 
O3    6     0.69614 -0.08020  0.41156  11.00000  0.04015  0.02447  0.04624 =
 0.01418  0.02896  0.00964 
H3a   2     0.74808 -0.01724  0.36556  11.00000 -1.50000 
H3b   2     0.66033 -0.16314  0.36297  11.00000 -1.50000 
N1    5     0.54956  0.21271  0.43602  11.00000  0.02352  0.02088  0.02526 =
 0.01247  0.01123  0.00624 
C1    1     0.39863  0.19823  0.28647  11.00000  0.02382  0.02041  0.02460 =
 0.00900  0.01313  0.00659 
N2    5     0.40699  0.33136  0.21513  11.00000  0.02479  0.02278  0.02058 =
 0.00962  0.00912  0.00616 
C3    1     0.56111  0.48232  0.29192  11.00000  0.02585  0.02071  0.02623 =
 0.01091  0.01493  0.00773 
C4    1     0.72000  0.49110  0.44724  11.00000  0.02278  0.02134  0.02652 =
 0.00804  0.01146  0.00309 
H4    2     0.82556  0.58614  0.49945  11.00000 -1.20000 
C5    1     0.70539  0.35475  0.50877  11.00000  0.01970  0.02579  0.02191 =
 0.01034  0.00967  0.00745 
C6    1     0.24337  0.31118  0.05178  11.00000  0.03458  0.03940  0.02359 =
 0.01387  0.00481  0.00570 
AFIX 137
H6a   2     0.19852  0.19140 -0.00848  11.00000 -1.50000 
H6b   2     0.12148  0.35026  0.06221  11.00000 -1.50000 
H6c   2     0.30119  0.37846 -0.00714  11.00000 -1.50000 
AFIX 0

O4    6     0.88903  0.12151  0.28492  11.00000  0.03866  0.04927  0.04954 =
 0.02509  0.02712  0.01487 
H4a   2     0.81340  0.14913  0.18905  11.00000 -1.50000 
H4b   2     0.97740  0.09509  0.27289  11.00000 -1.50000 

O5    6     0.69528  0.21327 -0.00302  11.00000  0.07894  0.06316  0.03859 =
 0.01589  0.01789  0.03899 
H5a   2     0.69176  0.13316 -0.07874  11.00000 -1.50000 
H5b   2     0.63807  0.27574 -0.05227  11.00000 -1.50000 
HKLF 4

END
Q1 1 0.75 0.407407 0.46875 11 0.05 0.41
Q2 1 0.541667 0.148148 0.46875 11 0.05 0.39
Q5 1 0.625 0.259259 0.46875 11 0.05 0.29
Q3 1 0.666667 0.481481 0.375 11 0.05 0.32
Q4 1 0.458333 0.407407 0.25 11 0.05 0.3

  REM The information below was added by Olex2.
  REM
  REM R1 = 0.0213 for 2277 Fo > 4sig(Fo) and 0.0232 for all 2376 data
  REM 147 parameters refined using 0 restraints
  REM Highest difference peak 0.4064, deepest hole -0.2845
  REM Mean Shift 0.0001, Max Shift -0.0008.

  REM +++ Tabular Listing of Refinement Information +++
  REM R1_all = 0.0232
  REM R1_gt = 0.0213
  REM wR_ref = 0.0623
  REM GOOF = 1.0465
  REM Shift_max = -0.0008
  REM Shift_mean = 0.0001
  REM Reflections_all = 2376
  REM Reflections_gt = 2277
  REM Parameters = 147
  REM Hole = -0.2845
  REM Peak = 0.4064
  REM Flack = n/a

  
;
_cod_data_source_file            d1dt02018h2.cif
_cod_data_source_block           SDBR_17
_cod_original_cell_volume        466.4(4)
_cod_database_code               7708177
_olex2_refinement_description
;
1. Fixed Uiso
 At 1.2 times of:
  All C(H) groups
 At 1.5 times of:
  All C(H,H,H) groups, All O(H,H) groups
2. Others
 Fixed Sof: H6a(0.5) H6b(0.5) H6c(0.5) H6d(0.5) H6e(0.5) H6f(0.5)
3.a Idealised Me refined as rotating group:
 C6(H6a,H6b,H6c)
;
_iucr_refine_fcf_details
;
data_SDBR_17_CCDC1
_computing_structure_refinement   'olex2.refine 1.5-alpha (Bourhis et al., 2015)'
_shelx_refln_list_code            4
loop_
  _space_group_symop_id
  _space_group_symop_operation_xyz
  1  x,y,z
  2  -x,-y,-z

_space_group_crystal_system       triclinic
_space_group_IT_number            2
_space_group_name_H-M_alt         'P -1'
_space_group_name_Hall            '-P 1'
_symmetry_space_group_name_H-M    'P -1'
_symmetry_space_group_name_Hall   '-P 1'
_symmetry_Int_Tables_number       2
_cell_length_a                    6.966(3)
_cell_length_b                    8.253(4)
_cell_length_c                    9.105(4)
_cell_angle_alpha                 100.737(6)
_cell_angle_beta                  111.177(6)
_cell_angle_gamma                 98.352(7)
_cell_volume                      466.4(4)
loop_
  _refln_index_h
  _refln_index_k
  _refln_index_l
  _refln_F_squared_calc
  _refln_F_squared_meas
  _refln_F_squared_sigma
  _refln_F_squared_weight
  _refln_observed_status
-9 -1 4 146.863 149.077 3.043 6.429 o
-9 -1 5 136.659 140.761 2.911 7.037 o
-9 -1 6 45.598 50.178 1.744 25.370 o
-9 0 3 173.918 172.038 3.423 5.141 o
-9 0 4 41.559 44.094 1.488 29.621 o
-9 0 5 4.278 3.233 1.124 186.622 o
-9 0 6 7.000 6.010 1.495 106.899 o
-9 0 7 62.567 57.462 2.154 18.358 o
-9 1 2 0.414 0.594 0.640 790.029 o
-9 1 3 9.428 7.841 1.282 107.770 o
-9 1 4 11.625 9.858 1.223 97.594 o
-9 1 5 16.651 14.007 1.174 77.108 o
-9 1 6 4.155 2.248 1.667 113.871 o
-9 1 7 9.844 11.820 0.954 117.699 o
-9 2 2 88.352 85.392 2.920 11.387 o
-9 2 3 43.483 44.163 1.475 28.851 o
-9 2 4 53.580 54.900 1.814 21.966 o
-9 2 5 55.922 53.111 1.987 20.874 o
-9 2 6 11.135 8.294 0.884 125.138 o
-9 2 7 0.404 0.041 0.737 675.663 o
-9 3 2 69.087 67.395 1.826 17.267 o
-9 3 3 96.070 96.981 2.507 10.960 o
-9 3 4 34.458 33.928 1.488 36.098 o
-9 3 5 8.193 6.662 1.460 102.913 o
-9 3 6 1.399 1.089 0.783 447.687 o
-9 4 2 11.552 11.919 1.688 71.818 o
-9 4 3 0.978 0.269 0.687 635.838 o
-9 4 4 11.610 10.817 1.345 89.305 o
-9 4 5 12.141 12.971 1.261 88.165 o
-8 -4 4 42.294 43.420 1.512 29.294 o
-8 -4 5 14.496 11.404 0.894 99.105 o
-8 -4 6 26.606 25.528 1.603 43.743 o
-8 -4 7 74.272 73.704 2.506 14.285 o
-8 -3 2 59.130 60.333 1.815 19.963 o
-8 -3 3 3.800 3.595 0.631 318.115 o
-8 -3 4 42.338 40.710 1.369 30.798 o
-8 -3 5 4.541 3.667 0.620 292.633 o
-8 -3 6 163.977 161.688 3.881 5.282 o
-8 -3 7 65.458 71.768 1.976 17.109 o
-8 -3 8 25.372 21.589 1.267 52.472 o
-8 -2 1 4.701 5.010 0.769 235.370 o
-8 -2 2 5.830 5.208 0.629 234.371 o
-8 -2 3 118.968 117.612 2.478 8.761 o
-8 -2 4 147.237 143.094 2.827 6.652 o
-8 -2 5 76.063 82.102 1.943 14.799 o
-8 -2 6 62.650 66.098 2.157 17.541 o
-8 -2 7 77.111 78.375 2.015 14.756 o
-8 -2 8 66.593 66.238 2.302 16.427 o
-8 -2 9 10.775 12.224 0.970 110.586 o
-8 -1 1 0.529 0.246 0.581 935.022 o
-8 -1 2 71.455 72.350 1.823 16.462 o
-8 -1 3 192.829 187.699 3.496 4.539 o
-8 -1 4 156.662 160.973 3.120 5.888 o
-8 -1 5 6.000 4.483 0.741 219.284 o
-8 -1 6 38.826 38.745 1.352 33.223 o
-8 -1 7 156.041 157.751 3.203 5.910 o
-8 -1 8 231.331 239.321 5.526 3.034 o
-8 -1 9 53.900 52.826 1.832 22.077 o
-8 0 1 10.593 10.206 1.384 91.700 o
-8 0 2 24.296 26.707 1.135 52.726 o
-8 0 3 38.149 37.583 1.291 34.384 o
-8 0 4 14.894 16.184 1.527 66.684 o
-8 0 5 72.067 68.669 1.819 16.671 o
-8 0 6 142.102 140.881 2.887 6.843 o
-8 0 7 112.146 115.743 2.906 8.764 o
-8 0 8 5.535 5.282 0.686 230.092 o
-8 0 9 24.209 22.886 1.384 51.090 o
-8 1 1 21.970 22.457 1.187 58.007 o
-8 1 2 95.394 95.750 2.390 11.236 o
-8 1 3 21.629 20.701 1.177 60.109 o
-8 1 4 283.399 280.506 4.799 2.534 o
-8 1 5 143.745 147.488 3.096 6.530 o
-8 1 6 8.441 7.405 1.467 99.831 o
-8 1 7 2.703 2.096 0.578 442.088 o
-8 1 8 13.250 14.384 1.251 82.986 o
-8 1 9 59.380 57.978 2.005 19.482 o
-8 2 1 190.796 198.972 4.048 4.276 o
-8 2 2 365.642 376.960 6.294 1.639 o
-8 2 3 174.287 177.181 3.292 5.128 o
-8 2 4 84.029 85.142 1.931 13.629 o
-8 2 5 30.485 27.236 1.688 38.846 o
-8 2 6 105.397 101.593 3.900 8.281 o
-8 2 7 66.163 59.850 1.755 18.721 o
-8 2 8 32.746 33.791 1.841 33.681 o
-8 2 9 0.323 0.083 0.956 424.577 o
-8 3 1 128.530 137.115 2.740 7.577 o
-8 3 2 61.496 63.837 1.638 19.633 o
-8 3 3 4.363 4.495 1.046 191.089 o
-8 3 4 9.213 8.770 0.766 146.560 o
-8 3 5 77.639 75.963 1.994 14.892 o
-8 3 6 88.982 90.056 2.285 12.236 o
-8 3 7 1.872 1.273 1.307 195.743 o
-8 3 8 12.413 10.851 1.429 82.599 o
-8 4 1 20.355 20.961 1.075 64.221 o
-8 4 2 24.936 22.119 1.053 56.242 o
-8 4 3 222.701 221.594 4.389 3.523 o
-8 4 4 166.774 164.414 3.447 5.399 o
-8 4 5 23.266 26.467 1.350 50.658 o
-8 4 6 6.655 4.964 0.709 208.031 o
-8 4 7 117.657 109.750 2.575 8.967 o
-8 4 8 72.459 66.230 3.928 11.254 o
-8 5 1 76.194 76.268 1.819 15.447 o
-8 5 2 72.383 78.561 2.201 14.959 o
-8 5 3 20.245 17.582 1.939 47.427 o
-8 5 4 3.017 1.744 0.628 406.067 o
-8 5 5 7.433 6.575 1.176 131.924 o
-8 5 6 0.702 1.853 1.004 325.902 o
-8 5 7 9.235 8.195 1.039 126.482 o
-8 6 1 66.947 69.236 2.009 16.979 o
-8 6 2 22.046 23.261 1.289 55.349 o
-8 6 3 0.397 0.269 1.084 327.836 o
-8 6 4 5.827 4.973 1.231 144.285 o
-8 6 5 16.869 16.932 1.533 62.311 o
-8 7 2 9.367 10.526 1.034 118.824 o
-8 7 3 39.449 30.986 3.654 17.731 o
-7 -6 5 28.308 23.244 1.382 46.466 o
-7 -6 6 6.828 7.850 0.888 162.552 o
-7 -5 2 73.244 72.803 1.724 16.366 o
-7 -5 3 142.051 147.440 2.682 6.851 o
-7 -5 4 28.302 28.993 1.351 44.147 o
-7 -5 5 3.485 3.397 0.976 231.335 o
-7 -5 6 0.785 0.341 0.621 767.815 o
-7 -5 7 87.313 85.262 2.175 12.832 o
-7 -5 8 122.683 127.132 3.164 7.704 o
-7 -4 1 147.071 150.967 2.991 6.422 o
-7 -4 2 20.335 21.465 1.045 64.431 o
-7 -4 3 4.040 2.088 0.539 373.114 o
-7 -4 4 21.147 20.269 1.066 63.602 o
-7 -4 5 77.878 81.646 2.106 14.256 o
-7 -4 6 13.891 13.363 0.957 94.932 o
-7 -4 7 12.954 13.952 1.209 86.324 o
-7 -4 8 183.075 182.733 3.645 4.729 o
-7 -4 9 75.525 75.027 2.753 13.458 o
-7 -3 1 10.506 8.510 0.786 135.526 o
-7 -3 2 18.790 18.909 0.912 73.289 o
-7 -3 3 5.431 5.253 0.523 261.809 o
-7 -3 4 81.248 81.857 1.952 14.126 o
-7 -3 5 104.061 103.798 2.773 9.768 o
-7 -3 6 21.498 22.247 1.257 57.472 o
-7 -3 7 77.427 77.107 1.961 14.915 o
-7 -3 8 7.331 6.979 0.665 187.211 o
-7 -3 9 142.718 145.058 3.529 6.318 o
-7 -3 10 114.697 122.175 2.909 8.452 o
-7 -2 1 41.520 40.553 1.224 32.148 o
-7 -2 2 256.100 260.849 4.485 2.909 o
-7 -2 3 177.495 175.981 3.356 5.040 o
-7 -2 4 18.009 19.000 1.136 69.281 o
-7 -2 5 49.842 50.209 1.377 25.718 o
-7 -2 6 113.854 117.164 2.882 8.657 o
-7 -2 7 262.924 258.934 4.680 2.818 o
-7 -2 8 214.440 228.431 4.705 3.499 o
-7 -2 9 141.661 142.622 2.702 6.946 o
-7 -2 10 28.697 30.502 1.518 41.062 o
-7 -1 1 321.739 330.046 5.509 2.029 o
-7 -1 2 28.937 31.279 1.079 45.694 o
-7 -1 3 3.054 2.014 1.582 130.904 o
-7 -1 4 4.218 2.761 0.509 356.185 o
-7 -1 5 294.483 308.458 7.288 2.006 o
-7 -1 6 340.316 346.923 5.940 1.846 o
-7 -1 7 88.457 90.120 2.135 12.531 o
-7 -1 8 13.321 13.670 0.891 99.388 o
-7 -1 9 8.973 8.494 0.800 147.068 o
-7 -1 10 70.003 71.874 2.206 15.753 o
-7 0 1 147.161 145.898 2.807 6.616 o
-7 0 2 13.582 11.563 0.761 108.627 o
-7 0 3 96.102 93.274 2.021 11.807 o
-7 0 4 27.414 23.829 0.930 53.440 o
-7 0 5 33.834 31.998 1.345 38.534 o
-7 0 6 125.991 123.793 2.866 7.894 o
-7 0 7 41.723 41.415 1.355 31.012 o
-7 0 8 84.966 80.819 2.082 13.502 o
-7 0 9 268.222 268.430 5.679 2.554 o
-7 0 10 73.557 71.663 2.618 14.216 o
-7 1 1 122.510 122.834 2.391 8.499 o
-7 1 2 230.551 231.504 5.674 3.043 o
-7 1 3 180.297 182.257 3.238 4.952 o
-7 1 4 47.259 46.914 1.304 27.639 o
-7 1 5 17.375 15.723 0.981 79.080 o
-7 1 6 94.364 91.891 2.212 11.758 o
-7 1 7 209.916 205.643 4.048 3.910 o
-7 1 8 48.742 48.698 1.972 23.405 o
-7 1 9 17.872 15.188 1.196 72.051 o
-7 1 10 19.808 18.541 1.873 48.799 o
-7 2 1 121.039 120.490 2.379 8.652 o
-7 2 2 47.218 48.756 1.355 27.051 o
-7 2 3 60.415 61.553 1.424 20.796 o
-7 2 4 67.734 64.531 1.542 18.529 o
-7 2 5 135.325 132.925 3.353 6.912 o
-7 2 6 263.002 258.547 7.231 2.335 o
-7 2 7 83.895 81.186 1.982 13.789 o
-7 2 8 6.386 5.709 0.660 213.431 o
-7 2 9 1.629 1.968 0.719 442.074 o
-7 2 10 31.920 32.202 1.761 35.443 o
-7 3 1 0.439 0.427 0.347 1842.710 o
-7 3 2 104.390 102.500 2.370 10.295 o
-7 3 3 240.475 244.182 5.055 3.029 o
-7 3 4 211.989 213.808 5.344 3.432 o
-7 3 5 86.524 80.950 1.752 13.883 o
-7 3 6 65.148 61.230 1.484 19.569 o
-7 3 7 2.662 3.251 1.080 222.606 o
-7 3 8 8.461 9.871 0.971 131.509 o
-7 3 9 29.149 30.067 2.817 26.249 o
-7 4 1 41.883 43.012 1.214 31.391 o
-7 4 2 156.330 158.028 2.914 6.050 o
-7 4 3 434.714 431.304 7.101 1.271 o
-7 4 4 102.903 98.391 2.481 10.415 o
-7 4 5 2.604 2.452 0.471 494.549 o
-7 4 6 78.542 73.343 1.671 15.617 o
-7 4 7 513.744 487.376 8.509 0.972 o
-7 4 8 102.044 91.978 2.908 10.119 o
-7 4 9 2.838 2.662 1.019 241.840 o
-7 5 1 90.211 92.345 1.490 13.157 o
-7 5 2 6.201 4.140 0.821 205.082 o
-7 5 3 11.409 11.426 1.241 94.432 o
-7 5 4 77.068 77.822 1.740 15.369 o
-7 5 5 89.284 88.651 1.903 12.888 o
-7 5 6 1.061 0.275 0.817 481.450 o
-7 5 7 3.831 2.802 1.581 123.611 o
-7 5 8 1.037 0.570 0.616 699.501 o
-7 6 1 14.525 14.634 0.956 90.338 o
-7 6 2 48.990 50.084 1.310 26.341 o
-7 6 3 80.590 79.730 1.836 14.565 o
-7 6 4 148.399 147.448 3.071 6.387 o
-7 6 5 9.931 9.170 0.950 125.534 o
-7 6 6 0.778 0.753 0.587 782.008 o
-7 6 7 0.486 -0.864 0.757 635.219 o
-7 7 1 207.863 212.443 3.522 4.041 o
-7 7 2 100.348 100.354 2.425 10.607 o
-7 7 3 33.957 34.470 1.579 35.378 o
-7 7 4 66.257 65.322 2.131 17.070 o
-7 7 5 21.698 19.090 2.078 42.703 o
-7 7 6 25.792 25.210 1.898 40.133 o
-7 8 1 117.858 120.558 2.571 8.654 o
-7 8 2 16.502 18.386 1.787 54.806 o
-7 8 3 0.363 -0.557 1.122 313.553 o
-7 8 4 5.191 6.401 1.316 133.550 o
-6 -7 3 53.572 50.130 1.900 22.219 o
-6 -7 4 166.186 167.244 3.558 5.324 o
-6 -7 5 225.394 216.874 5.728 3.155 o
-6 -7 6 51.280 51.820 1.878 22.714 o
-6 -7 7 11.099 7.773 1.112 111.471 o
-6 -6 1 4.302 3.604 0.637 297.293 o
-6 -6 2 40.245 39.331 1.253 32.971 o
-6 -6 3 115.619 114.759 2.232 9.271 o
-6 -6 4 87.906 84.495 2.148 12.858 o
-6 -6 5 0.717 0.659 0.473 1059.800 o
-6 -6 6 7.345 6.830 0.730 180.649 o
-6 -6 7 100.685 102.185 2.725 10.114 o
-6 -6 8 178.040 180.482 4.623 4.436 o
-6 -6 9 20.440 23.692 1.469 53.628 o
-6 -5 1 131.163 135.911 2.782 7.457 o
-6 -5 2 86.264 82.628 1.915 13.542 o
-6 -5 3 40.041 40.048 1.341 32.296 o
-6 -5 4 72.522 72.309 1.487 17.042 o
-6 -5 5 150.162 156.907 2.873 6.287 o
-6 -5 6 323.294 323.703 5.589 2.029 o
-6 -5 7 196.852 212.282 3.954 4.093 o
-6 -5 8 0.759 0.463 0.768 552.153 o
-6 -5 9 14.127 15.639 1.150 82.638 o
-6 -5 10 138.882 136.436 3.295 6.761 o
-6 -4 1 37.369 40.120 1.247 34.415 o
-6 -4 2 15.176 14.229 0.868 91.997 o
-6 -4 3 18.419 19.904 0.897 73.362 o
-6 -4 4 318.128 318.482 4.873 2.153 o
-6 -4 5 89.047 93.745 2.039 12.439 o
-6 -4 6 168.366 161.008 3.532 5.360 o
-6 -4 7 42.334 42.267 1.843 27.358 o
-6 -4 8 106.404 100.037 2.398 10.204 o
-6 -4 9 97.462 99.095 3.015 10.032 o
-6 -4 10 25.599 26.390 1.859 40.415 o
-6 -4 11 16.679 17.539 3.069 30.097 o
-6 -3 1 367.272 355.569 7.085 1.607 o
-6 -3 2 491.049 488.416 8.453 1.014 o
-6 -3 3 155.779 156.136 2.572 6.270 o
-6 -3 4 42.246 44.578 0.985 32.031 o
-6 -3 5 32.773 31.155 1.275 40.331 o
-6 -3 6 157.520 159.924 3.451 5.702 o
-6 -3 7 65.154 64.487 1.582 18.951 o
-6 -3 8 54.659 57.635 1.450 22.737 o
-6 -3 9 2.771 3.236 0.698 346.774 o
-6 -3 10 26.252 28.811 1.384 45.724 o
-6 -3 11 32.568 31.298 1.936 33.474 o
-6 -2 1 398.955 393.923 6.331 1.483 o
-6 -2 2 216.040 220.111 3.722 3.801 o
-6 -2 3 2.845 2.158 0.264 591.350 o
-6 -2 4 25.385 27.834 0.730 55.876 o
-6 -2 5 282.701 275.883 5.992 2.369 o
-6 -2 6 314.648 313.592 5.307 2.140 o
-6 -2 7 90.680 90.253 2.447 11.800 o
-6 -2 8 2.835 3.686 0.445 435.204 o
-6 -2 9 56.827 60.192 2.294 18.679 o
-6 -2 10 111.093 111.617 2.211 9.684 o
-6 -2 11 181.790 172.406 9.933 2.425 o
-6 -1 1 55.114 57.126 1.283 23.261 o
-6 -1 2 11.626 12.396 0.607 124.241 o
-6 -1 3 138.534 136.879 2.249 7.476 o
-6 -1 4 198.430 194.903 3.318 4.421 o
-6 -1 5 144.508 147.242 2.765 6.713 o
-6 -1 6 9.836 6.889 0.466 172.462 o
-6 -1 7 120.470 119.748 2.162 8.890 o
-6 -1 8 206.630 204.500 3.350 4.177 o
-6 -1 9 97.956 99.866 2.212 11.098 o
-6 -1 10 17.093 18.825 1.125 71.765 o
-6 -1 11 52.151 55.496 2.732 18.174 o
-6 0 1 22.394 21.855 0.904 63.032 o
-6 0 2 556.205 533.751 8.312 0.871 o
-6 0 3 160.995 164.429 2.610 5.954 o
-6 0 4 71.590 70.986 1.446 17.411 o
-6 0 5 40.497 43.205 1.094 32.756 o
-6 0 6 114.658 114.082 2.223 9.361 o
-6 0 7 235.045 242.332 3.587 3.419 o
-6 0 8 442.771 444.021 6.747 1.251 o
-6 0 9 118.985 111.902 3.716 7.653 o
-6 0 10 15.064 13.850 1.144 82.744 o
-6 0 11 27.614 28.006 1.378 44.885 o
-6 1 1 187.359 196.259 3.327 4.621 o
-6 1 2 44.741 41.319 0.990 31.560 o
-6 1 3 2.408 1.807 0.305 663.069 o
-6 1 4 362.385 377.038 6.548 1.631 o
-6 1 5 346.158 362.694 5.723 1.802 o
-6 1 6 203.941 200.235 3.277 4.283 o
-6 1 7 1.536 1.983 0.317 819.068 o
-6 1 8 43.406 40.449 1.194 31.385 o
-6 1 9 110.160 102.926 2.332 9.914 o
-6 1 10 91.791 91.044 2.691 11.265 o
-6 1 11 22.263 21.478 1.309 55.894 o
-6 2 1 47.450 45.228 0.870 29.802 o
-6 2 2 0.788 0.663 0.256 1695.450 o
-6 2 3 239.821 242.599 3.681 3.339 o
-6 2 4 294.260 290.581 4.678 2.431 o
-6 2 5 56.384 58.496 1.305 22.623 o
-6 2 6 16.079 17.010 0.762 87.418 o
-6 2 7 19.786 20.623 1.083 65.406 o
-6 2 8 129.395 125.969 2.711 7.813 o
-6 2 9 128.828 125.358 3.469 7.211 o
-6 2 10 6.073 5.821 0.680 215.102 o
-6 2 11 2.025 0.731 1.608 139.189 o
-6 3 1 610.588 623.872 8.311 0.737 o
-6 3 2 459.931 479.923 6.077 1.192 o
-6 3 3 81.046 77.174 1.427 15.405 o
-6 3 4 0.754 0.371 0.235 2017.700 o
-6 3 5 709.883 716.182 10.978 0.549 o
-6 3 6 681.752 675.372 10.412 0.597 o
-6 3 7 113.862 115.127 2.732 8.870 o
-6 3 8 22.038 21.509 1.013 61.992 o
-6 3 9 85.041 80.707 2.445 12.810 o
-6 3 10 36.458 36.496 1.538 33.705 o
-6 4 1 7.324 7.093 0.338 218.950 o
-6 4 2 0.694 0.430 0.263 1932.010 o
-6 4 3 31.508 31.011 0.741 46.401 o
-6 4 4 80.221 83.751 1.648 14.687 o
-6 4 5 105.336 102.513 1.976 10.678 o
-6 4 6 242.976 238.521 4.430 3.171 o
-6 4 7 121.836 111.058 2.414 8.842 o
-6 4 8 8.029 7.392 1.295 114.985 o
-6 4 9 24.006 21.513 1.222 55.101 o
-6 5 1 3.224 2.255 0.392 485.044 o
-6 5 2 155.720 159.589 2.119 6.421 o
-6 5 3 187.029 185.580 3.633 4.624 o
-6 5 4 91.593 88.029 1.973 12.572 o
-6 5 5 13.264 10.609 1.543 75.545 o
-6 5 6 28.502 30.462 1.354 43.271 o
-6 5 7 34.207 35.180 1.558 35.211 o
-6 5 8 16.875 19.645 1.828 52.504 o
-6 5 9 9.954 8.033 1.264 106.113 o
-6 6 1 196.821 197.930 2.609 4.631 o
-6 6 2 305.509 294.732 4.480 2.360 o
-6 6 3 107.660 104.406 3.328 8.827 o
-6 6 4 17.376 19.040 1.561 59.030 o
-6 6 5 24.097 25.401 1.249 51.990 o
-6 6 6 86.034 88.952 3.036 11.217 o
-6 6 7 43.166 40.528 1.477 29.773 o
-6 6 8 34.179 31.689 1.407 37.792 o
-6 7 1 45.926 28.062 2.631 23.087 o
-6 7 2 13.356 12.233 0.907 101.602 o
-6 7 3 186.079 196.226 3.477 4.594 o
-6 7 4 224.750 225.498 4.323 3.489 o
-6 7 5 66.836 65.058 2.141 16.963 o
-6 7 6 44.576 40.396 1.511 28.970 o
-6 7 7 3.403 4.918 0.742 276.333 o
-6 8 1 19.596 20.677 1.035 66.804 o
-6 8 2 52.666 58.209 1.721 22.157 o
-6 8 3 73.242 75.344 1.891 15.792 o
-6 8 4 19.404 20.921 1.418 58.095 o
-6 8 5 7.559 6.075 0.748 180.701 o
-6 9 1 142.499 145.228 3.134 6.588 o
-6 9 2 44.002 44.550 1.645 27.537 o
-6 9 3 31.217 31.278 1.752 36.261 o
-5 -8 2 6.081 9.793 1.900 76.466 o
-5 -8 3 96.172 101.106 2.866 10.270 o
-5 -8 4 168.572 173.538 4.890 4.547 o
-5 -8 5 52.319 49.126 1.829 23.027 o
-5 -8 6 27.697 27.667 1.744 39.995 o
-5 -8 7 0.512 -0.311 0.710 705.899 o
-5 -7 1 18.140 19.041 1.207 67.119 o
-5 -7 2 91.847 85.086 2.212 12.319 o
-5 -7 3 43.625 41.539 1.632 28.372 o
-5 -7 4 1.280 1.628 0.549 649.786 o
-5 -7 5 64.911 61.207 1.970 18.172 o
-5 -7 6 194.563 194.848 4.291 4.160 o
-5 -7 7 219.758 226.610 4.733 3.436 o
-5 -7 8 33.642 30.785 1.751 34.947 o
-5 -7 9 34.250 35.726 1.832 32.458 o
-5 -6 1 150.096 152.032 3.143 6.214 o
-5 -6 2 36.636 32.294 1.057 38.895 o
-5 -6 3 22.244 23.347 0.796 63.750 o
-5 -6 4 45.177 39.355 1.220 30.640 o
-5 -6 5 338.658 345.969 5.377 1.911 o
-5 -6 6 402.715 406.314 6.829 1.417 o
-5 -6 7 143.386 146.809 3.199 6.487 o
-5 -6 8 22.572 22.030 1.105 58.959 o
-5 -6 9 15.272 15.717 1.094 81.257 o
-5 -6 10 102.207 105.078 3.301 9.148 o
-5 -5 1 55.787 47.493 1.280 24.560 o
-5 -5 2 66.044 63.156 1.459 19.234 o
-5 -5 3 343.506 335.528 5.450 1.906 o
-5 -5 4 126.694 128.173 2.253 8.246 o
-5 -5 5 1.463 1.147 0.315 974.799 o
-5 -5 6 302.250 307.577 5.202 2.248 o
-5 -5 7 202.224 202.579 4.115 4.033 o
-5 -5 8 56.218 53.672 2.649 17.966 o
-5 -5 9 71.120 74.380 1.835 16.324 o
-5 -5 10 196.703 197.188 4.252 4.119 o
-5 -5 11 36.486 40.300 1.852 30.116 o
-5 -4 1 77.652 74.669 1.563 15.862 o
-5 -4 2 268.531 286.568 4.690 2.647 o
-5 -4 3 335.875 326.088 4.858 2.028 o
-5 -4 4 139.397 146.103 2.288 7.218 o
-5 -4 5 24.336 23.408 0.690 61.469 o
-5 -4 6 6.927 6.552 0.437 223.097 o
-5 -4 7 248.399 247.947 3.677 3.207 o
-5 -4 8 151.921 155.024 2.482 6.465 o
-5 -4 9 7.202 6.230 0.553 208.083 o
-5 -4 10 67.605 65.075 1.996 17.257 o
-5 -4 11 18.252 17.583 1.650 56.508 o
-5 -3 1 419.205 406.224 6.451 1.389 o
-5 -3 2 23.561 18.102 0.609 69.131 o
-5 -3 3 303.420 306.897 4.551 2.323 o
-5 -3 4 501.611 503.466 7.219 1.028 o
-5 -3 5 671.816 687.684 9.900 0.610 o
-5 -3 6 268.724 279.417 3.977 2.787 o
-5 -3 7 141.892 145.805 2.496 7.000 o
-5 -3 8 9.957 10.408 0.620 143.277 o
-5 -3 9 21.056 21.201 0.811 67.874 o
-5 -3 10 147.817 146.828 3.635 6.061 o
-5 -3 11 125.265 123.321 4.415 6.524 o
-5 -2 1 5.717 8.256 0.446 229.504 o
-5 -2 2 82.930 73.788 1.436 15.361 o
-5 -2 3 1050.350 1080.350 15.049 0.275 o
-5 -2 4 937.264 948.848 12.481 0.348 o
-5 -2 5 99.343 104.966 1.646 11.431 o
-5 -2 6 3.705 3.438 0.267 437.784 o
-5 -2 7 0.923 1.069 0.246 1411.960 o
-5 -2 8 103.996 101.682 1.707 11.106 o
-5 -2 9 185.186 191.518 3.589 4.618 o
-5 -2 10 28.828 28.404 1.000 48.168 o
-5 -2 11 18.555 18.024 1.871 50.475 o
-5 -2 12 4.003 1.023 1.754 108.645 o
-5 -1 1 691.602 690.293 10.560 0.580 o
-5 -1 2 165.612 162.353 2.738 5.791 o
-5 -1 3 1.225 1.079 0.309 1096.360 o
-5 -1 4 206.152 205.701 3.110 4.241 o
-5 -1 5 56.323 54.334 1.063 24.017 o
-5 -1 6 93.518 92.794 1.650 12.573 o
-5 -1 7 540.268 555.572 7.573 0.901 o
-5 -1 8 195.741 199.697 3.224 4.456 o
-5 -1 9 1.447 1.504 0.356 865.310 o
-5 -1 10 26.272 26.930 1.105 50.598 o
-5 -1 11 291.215 291.448 7.225 2.077 o
-5 -1 12 71.715 71.179 4.677 9.480 o
-5 0 1 493.662 477.925 8.143 1.032 o
-5 0 2 106.961 118.581 2.072 9.866 o
-5 0 3 4.539 4.914 0.277 342.420 o
-5 0 4 204.966 211.018 3.037 4.235 o
-5 0 5 365.806 360.666 5.822 1.711 o
-5 0 6 59.545 60.432 1.138 21.974 o
-5 0 7 2.823 2.182 0.352 549.913 o
-5 0 8 36.740 39.373 0.931 37.186 o
-5 0 9 118.343 120.732 2.512 8.677 o
-5 0 10 192.168 191.399 4.957 3.978 o
-5 0 11 87.439 82.127 2.867 11.703 o
-5 1 1 275.934 271.384 3.997 2.755 o
-5 1 2 224.730 236.839 3.300 3.654 o
-5 1 3 157.101 151.944 2.312 6.420 o
-5 1 4 201.781 198.597 3.141 4.377 o
-5 1 5 44.684 44.426 0.944 31.021 o
-5 1 6 0.892 1.078 0.297 1307.110 o
-5 1 7 1.264 1.934 0.316 906.267 o
-5 1 8 206.625 205.108 3.663 4.081 o
-5 1 9 115.510 119.025 2.476 8.919 o
-5 1 10 41.546 42.553 1.491 29.959 o
-5 1 11 2.756 1.666 1.065 241.565 o
-5 2 1 980.542 995.018 12.963 0.321 o
-5 2 2 297.684 293.016 4.002 2.482 o
-5 2 3 48.811 56.045 0.930 26.743 o
-5 2 4 31.403 32.468 0.749 45.708 o
-5 2 5 32.738 37.941 0.791 41.679 o
-5 2 6 39.757 37.529 1.038 35.160 o
-5 2 7 274.283 274.811 4.720 2.643 o
-5 2 8 57.587 55.462 1.629 21.583 o
-5 2 9 3.240 3.552 0.528 380.935 o
-5 2 10 0.387 0.451 0.595 916.026 o
-5 2 11 72.947 72.838 2.871 13.570 o
-5 3 1 468.651 473.840 7.810 1.102 o
-5 3 2 124.973 129.698 2.056 8.440 o
-5 3 3 4.605 3.285 0.197 395.137 o
-5 3 4 65.791 67.711 1.187 19.448 o
-5 3 5 1460.860 1481.330 22.187 0.147 o
-5 3 6 441.726 446.612 7.647 1.203 o
-5 3 7 39.373 39.896 1.563 31.102 o
-5 3 8 43.197 42.200 1.311 30.387 o
-5 3 9 300.853 304.189 5.679 2.206 o
-5 3 10 125.312 120.867 2.754 8.094 o
-5 4 1 15.149 15.482 0.435 102.441 o
-5 4 2 159.928 173.059 2.325 5.976 o
-5 4 3 185.584 184.482 2.605 5.028 o
-5 4 4 9.626 9.783 0.435 160.249 o
-5 4 5 33.188 33.151 0.878 42.721 o
-5 4 6 26.589 26.743 0.885 53.172 o
-5 4 7 84.173 83.134 1.900 13.785 o
-5 4 8 166.287 169.761 3.886 5.130 o
-5 4 9 18.146 16.669 1.569 59.464 o
-5 4 10 6.935 5.271 1.066 153.433 o
-5 5 1 74.906 79.814 1.309 16.347 o
-5 5 2 297.784 291.261 3.761 2.516 o
-5 5 3 4.488 4.772 0.460 312.638 o
-5 5 4 17.622 16.301 0.942 78.751 o
-5 5 5 27.238 28.054 0.871 51.672 o
-5 5 6 336.776 330.317 6.662 1.827 o
-5 5 7 150.013 147.796 3.395 6.131 o
-5 5 8 52.330 50.872 1.589 23.860 o
-5 5 9 6.870 6.680 0.869 170.934 o
-5 6 1 29.916 27.536 0.640 50.922 o
-5 6 2 81.663 84.079 1.486 14.735 o
-5 6 3 159.507 163.952 3.094 5.776 o
-5 6 4 174.325 174.587 4.304 4.706 o
-5 6 5 194.420 192.627 3.648 4.409 o
-5 6 6 1.917 1.166 0.549 589.706 o
-5 6 7 1.906 2.061 0.773 386.848 o
-5 6 8 38.728 38.419 1.690 30.805 o
-5 7 1 1.827 2.387 0.325 701.799 o
-5 7 2 15.481 14.585 1.229 77.437 o
-5 7 3 327.886 315.687 5.679 2.015 o
-5 7 4 80.477 82.367 1.755 14.555 o
-5 7 5 72.005 74.886 1.715 16.418 o
-5 7 6 47.959 50.445 2.137 22.515 o
-5 7 7 32.967 34.050 1.640 35.503 o
-5 8 1 104.194 105.377 2.369 10.206 o
-5 8 2 67.154 68.501 1.813 17.547 o
-5 8 3 17.666 19.731 1.242 66.428 o
-5 8 4 41.081 40.050 1.546 30.377 o
-5 8 5 68.876 70.900 1.976 16.611 o
-5 8 6 84.578 89.331 3.321 10.784 o
-5 9 1 30.414 33.595 2.633 26.948 o
-5 9 2 24.786 28.687 1.691 42.630 o
-5 9 3 8.230 9.560 0.946 136.459 o
-5 9 4 65.448 64.699 2.117 17.302 o
-5 10 1 4.823 4.745 0.956 198.994 o
-4 -9 4 12.364 9.820 0.996 107.219 o
-4 -9 5 49.246 46.196 1.856 24.237 o
-4 -9 6 2.204 0.411 0.746 438.697 o
-4 -8 1 57.309 57.610 1.993 20.015 o
-4 -8 2 109.528 112.119 2.918 9.000 o
-4 -8 3 141.097 139.349 2.833 6.946 o
-4 -8 4 26.999 23.176 1.489 46.190 o
-4 -8 5 5.687 3.843 0.699 240.347 o
-4 -8 6 30.996 30.204 1.223 42.718 o
-4 -8 7 76.310 70.437 1.699 16.124 o
-4 -8 8 98.081 89.094 2.509 11.114 o
-4 -8 9 13.683 11.304 1.883 61.050 o
-4 -7 1 51.415 51.411 1.576 24.114 o
-4 -7 2 44.856 39.350 1.585 28.615 o
-4 -7 3 4.083 3.786 0.477 347.075 o
-4 -7 4 11.393 11.008 0.736 123.769 o
-4 -7 5 158.287 160.734 3.119 5.845 o
-4 -7 6 302.414 303.239 4.784 2.314 o
-4 -7 7 67.794 72.977 1.767 17.160 o
-4 -7 8 15.100 15.237 0.992 86.095 o
-4 -7 9 79.902 82.943 2.456 13.214 o
-4 -7 10 125.314 125.482 3.130 7.654 o
-4 -6 1 9.735 8.277 0.504 163.108 o
-4 -6 2 52.723 56.639 1.177 24.438 o
-4 -6 3 132.594 132.730 2.026 7.988 o
-4 -6 4 416.256 410.638 5.698 1.436 o
-4 -6 5 413.777 427.141 6.009 1.399 o
-4 -6 6 20.980 19.725 0.733 71.040 o
-4 -6 7 68.895 70.623 1.498 17.823 o
-4 -6 8 513.560 512.182 7.707 0.980 o
-4 -6 9 519.930 513.759 8.427 0.941 o
-4 -6 10 43.512 44.730 1.636 27.749 o
-4 -6 11 1.128 0.117 1.109 290.938 o
-4 -5 1 3.183 4.227 0.311 435.514 o
-4 -5 2 269.463 272.439 4.085 2.796 o
-4 -5 3 102.092 99.689 1.527 11.542 o
-4 -5 4 217.996 227.892 3.452 3.781 o
-4 -5 5 43.862 45.475 0.847 31.582 o
-4 -5 6 507.308 515.738 7.037 1.012 o
-4 -5 7 363.188 367.453 5.552 1.730 o
-4 -5 8 67.232 76.132 1.569 17.458 o
-4 -5 9 5.581 6.231 0.590 234.920 o
-4 -5 10 68.062 69.019 2.122 16.498 o
-4 -5 11 31.083 26.963 1.554 40.145 o
-4 -4 1 134.345 129.622 2.092 7.937 o
-4 -4 2 14.728 16.797 0.475 100.481 o
-4 -4 3 86.808 86.377 1.374 14.070 o
-4 -4 4 640.987 661.420 9.095 0.667 o
-4 -4 5 729.900 721.059 9.606 0.553 o
-4 -4 6 282.933 303.310 4.278 2.522 o
-4 -4 7 9.923 10.533 0.429 153.747 o
-4 -4 8 27.325 30.599 0.765 51.109 o
-4 -4 9 159.451 161.296 2.867 5.929 o
-4 -4 10 101.811 101.533 2.414 10.466 o
-4 -4 11 34.421 37.679 1.718 32.911 o
-4 -3 1 14.264 12.447 0.409 115.160 o
-4 -3 2 111.286 129.820 2.028 9.252 o
-4 -3 3 1095.450 1062.250 12.979 0.276 o
-4 -3 4 743.856 752.196 9.922 0.526 o
-4 -3 5 426.623 420.186 5.712 1.386 o
-4 -3 6 18.939 19.708 0.561 79.160 o
-4 -3 7 251.604 250.594 3.594 3.170 o
-4 -3 8 177.273 179.382 2.712 5.256 o
-4 -3 9 267.656 279.060 5.158 2.608 o
-4 -3 10 9.546 8.822 0.813 139.813 o
-4 -3 11 3.665 5.369 1.603 114.892 o
-4 -3 12 4.772 4.580 1.164 165.444 o
-4 -2 1 258.349 239.477 3.867 3.109 o
-4 -2 2 810.559 760.380 11.525 0.461 o
-4 -2 3 504.773 550.134 7.322 0.975 o
-4 -2 4 4.217 4.559 0.394 343.465 o
-4 -2 5 477.970 522.431 7.226 1.057 o
-4 -2 6 1352.460 1316.630 16.184 0.186 o
-4 -2 7 236.064 226.452 3.064 3.615 o
-4 -2 8 1.953 2.475 0.291 694.420 o
-4 -2 9 7.412 7.677 0.429 204.513 o
-4 -2 10 48.929 48.251 1.400 26.289 o
-4 -2 11 6.468 6.305 0.697 201.509 o
-4 -2 12 5.237 4.817 2.152 70.382 o
-4 -1 1 353.896 355.373 5.528 1.800 o
-4 -1 2 6.580 3.117 0.326 290.017 o
-4 -1 3 8.563 10.227 0.366 173.649 o
-4 -1 4 1015.880 988.615 12.919 0.310 o
-4 -1 5 455.317 474.211 6.374 1.198 o
-4 -1 6 860.870 871.864 11.043 0.409 o
-4 -1 7 108.473 111.148 1.747 10.331 o
-4 -1 8 22.505 21.017 0.597 68.444 o
-4 -1 9 16.507 19.029 0.696 84.531 o
-4 -1 10 512.165 518.106 8.986 0.930 o
-4 -1 11 316.907 336.975 11.316 1.374 o
-4 -1 12 12.329 9.010 1.329 90.716 o
-4 0 1 33.582 31.152 0.893 43.141 o
-4 0 2 1827.120 1776.940 27.799 0.099 o
-4 0 3 2215.810 2159.170 29.803 0.071 o
-4 0 4 487.259 495.993 7.156 1.067 o
-4 0 5 55.903 54.953 0.962 24.341 o
-4 0 6 5.845 4.268 0.270 302.770 o
-4 0 7 292.956 291.119 4.435 2.471 o
-4 0 8 163.738 157.789 2.731 5.917 o
-4 0 9 33.414 34.899 1.743 33.985 o
-4 0 10 0.912 0.515 1.045 323.205 o
-4 0 11 15.530 14.986 1.703 61.022 o
-4 0 12 31.471 28.737 2.117 32.765 o
-4 1 1 1737.390 1604.220 23.628 0.116 o
-4 1 2 848.731 841.170 10.404 0.429 o
-4 1 3 455.024 448.053 6.063 1.246 o
-4 1 4 239.145 263.681 5.196 2.916 o
-4 1 5 15.581 11.429 0.484 108.815 o
-4 1 6 118.314 120.683 2.020 9.107 o
-4 1 7 277.129 274.188 4.020 2.728 o
-4 1 8 2.234 1.301 0.314 738.523 o
-4 1 9 9.703 8.488 0.567 158.130 o
-4 1 10 7.174 7.654 0.672 183.966 o
-4 1 11 90.268 90.780 2.669 11.441 o
-4 2 1 455.285 432.713 5.391 1.297 o
-4 2 2 38.566 34.806 0.670 38.983 o
-4 2 3 2092.770 2026.840 29.987 0.078 o
-4 2 4 2740.500 2701.800 46.854 0.043 o
-4 2 5 205.259 191.370 3.122 4.385 o
-4 2 6 15.984 11.332 0.822 96.073 o
-4 2 7 120.279 113.827 2.014 9.202 o
-4 2 8 169.841 176.315 3.346 5.222 o
-4 2 9 55.916 54.781 1.730 21.717 o
-4 2 10 48.235 49.978 1.745 24.539 o
-4 2 11 29.645 29.250 1.742 38.057 o
-4 3 1 63.369 67.294 1.197 20.016 o
-4 3 2 450.889 441.538 5.505 1.292 o
-4 3 3 26.312 25.825 0.624 57.093 o
-4 3 4 282.723 276.487 3.915 2.683 o
-4 3 5 34.103 40.495 0.921 38.724 o
-4 3 6 9.028 9.470 0.769 144.876 o
-4 3 7 49.156 52.137 1.162 26.517 o
-4 3 8 259.591 251.469 6.398 2.546 o
-4 3 9 146.491 151.536 2.830 6.527 o
-4 3 10 14.215 14.319 1.724 63.066 o
-4 4 1 704.433 718.661 9.411 0.577 o
-4 4 2 53.947 49.593 1.063 25.601 o
-4 4 3 63.641 59.942 1.189 20.846 o
-4 4 4 41.533 39.065 0.845 34.677 o
-4 4 5 124.517 124.910 2.100 8.563 o
-4 4 6 90.757 89.569 1.543 13.186 o
-4 4 7 31.491 30.256 0.948 45.024 o
-4 4 8 46.419 47.459 1.416 27.305 o
-4 4 9 14.863 17.779 1.851 55.641 o
-4 4 10 38.228 41.775 1.839 29.134 o
-4 5 1 222.574 236.264 3.080 3.735 o
-4 5 2 8.549 6.206 0.469 194.540 o
-4 5 3 20.237 19.764 0.583 75.315 o
-4 5 4 140.570 142.473 3.546 6.418 o
-4 5 5 101.826 99.526 1.926 11.143 o
-4 5 6 57.299 60.323 1.337 22.017 o
-4 5 7 28.602 28.922 1.190 45.899 o
-4 5 8 44.903 48.626 1.676 26.257 o
-4 5 9 45.431 47.481 1.838 25.355 o
-4 6 1 419.364 424.660 5.748 1.400 o
-4 6 2 494.107 532.497 7.567 1.002 o
-4 6 3 90.777 91.529 1.717 12.843 o
-4 6 4 30.538 29.035 0.826 47.741 o
-4 6 5 52.795 53.843 2.917 17.402 o
-4 6 6 0.462 -0.551 0.610 925.651 o
-4 6 7 36.998 43.592 2.006 27.999 o
-4 6 8 78.664 77.179 1.997 14.667 o
-4 7 1 115.119 111.602 1.867 9.733 o
-4 7 2 11.420 10.249 0.888 117.241 o
-4 7 3 2.132 1.488 1.313 189.145 o
-4 7 4 5.293 5.709 0.555 253.872 o
-4 7 5 183.280 178.265 3.501 4.828 o
-4 7 6 120.540 121.431 2.592 8.466 o
-4 7 7 47.247 49.416 1.721 25.074 o
-4 8 1 2.390 2.477 1.168 212.229 o
-4 8 2 57.544 56.817 1.675 21.252 o
-4 8 3 105.281 113.302 2.865 9.277 o
-4 8 4 144.113 144.999 3.392 6.366 o
-4 8 5 71.674 69.053 2.502 14.922 o
-4 8 6 54.908 59.084 2.082 20.030 o
-4 9 1 37.580 38.603 1.475 33.017 o
-4 9 2 50.675 54.704 1.808 22.802 o
-4 9 3 11.357 9.589 1.266 96.707 o
-4 9 4 3.791 3.902 1.046 204.649 o
-4 9 5 22.849 22.872 2.110 39.844 o
-4 10 1 18.811 20.305 2.730 33.341 o
-4 10 2 101.925 97.685 2.533 10.445 o
-3 -9 1 163.712 168.815 3.750 5.270 o
-3 -9 2 243.243 250.137 4.960 2.993 o
-3 -9 3 69.292 73.526 2.576 14.741 o
-3 -9 4 16.449 12.614 1.104 81.976 o
-3 -9 5 0.568 -0.470 0.666 773.306 o
-3 -9 6 0.753 -0.006 0.592 879.009 o
-3 -9 7 76.158 74.497 2.162 14.818 o
-3 -9 8 62.455 62.038 2.624 16.354 o
-3 -8 1 84.728 73.618 1.836 14.425 o
-3 -8 2 1.168 1.371 0.559 678.922 o
-3 -8 3 45.538 49.245 1.379 27.491 o
-3 -8 4 209.894 210.834 3.820 3.937 o
-3 -8 5 233.308 237.892 4.326 3.307 o
-3 -8 6 5.915 5.137 0.623 234.315 o
-3 -8 7 5.182 4.502 0.569 270.732 o
-3 -8 8 16.247 16.586 1.075 78.044 o
-3 -8 9 56.167 59.979 1.971 20.091 o
-3 -7 1 54.170 55.424 1.460 23.157 o
-3 -7 2 102.977 99.136 1.986 10.993 o
-3 -7 3 317.230 324.687 4.979 2.128 o
-3 -7 4 392.583 387.578 6.215 1.524 o
-3 -7 5 41.912 39.832 1.144 32.615 o
-3 -7 6 19.127 19.294 0.788 74.820 o
-3 -7 7 28.103 27.410 0.925 50.397 o
-3 -7 8 274.223 272.981 4.495 2.687 o
-3 -7 9 192.197 192.832 4.117 4.280 o
-3 -7 10 111.207 113.615 3.545 8.153 o
-3 -6 1 508.987 503.612 7.258 1.012 o
-3 -6 2 105.201 105.451 1.648 10.906 o
-3 -6 3 178.360 177.154 2.748 5.243 o
-3 -6 4 80.808 82.860 1.403 15.067 o
-3 -6 5 310.796 313.779 4.768 2.226 o
-3 -6 6 131.914 137.994 2.186 7.792 o
-3 -6 7 113.760 117.474 1.947 9.559 o
-3 -6 8 319.002 324.044 5.077 2.109 o
-3 -6 9 129.543 128.360 3.232 7.325 o
-3 -6 10 30.433 33.343 1.376 40.238 o
-3 -6 11 167.264 163.542 3.758 5.244 o
-3 -5 1 286.645 290.200 4.283 2.544 o
-3 -5 2 46.415 49.659 1.282 27.535 o
-3 -5 3 15.011 14.680 0.456 104.429 o
-3 -5 4 67.951 62.635 1.102 19.712 o
-3 -5 5 328.785 330.708 4.604 2.080 o
-3 -5 6 225.516 230.742 3.346 3.676 o
-3 -5 7 11.998 14.450 0.551 117.949 o
-3 -5 8 34.123 28.081 0.813 44.698 o
-3 -5 9 114.501 118.509 2.614 8.857 o
-3 -5 10 315.312 320.999 5.954 2.038 o
-3 -5 11 167.650 170.955 3.290 5.368 o
-3 -4 1 249.942 262.516 3.880 3.073 o
-3 -4 2 630.532 610.964 8.092 0.726 o
-3 -4 3 766.782 784.105 9.710 0.502 o
-3 -4 4 149.592 143.295 2.114 6.954 o
-3 -4 5 196.026 216.965 2.905 4.379 o
-3 -4 6 118.456 115.218 1.666 9.547 o
-3 -4 7 247.189 252.569 3.611 3.206 o
-3 -4 8 606.048 601.886 8.727 0.746 o
-3 -4 9 349.208 364.336 6.500 1.714 o
-3 -4 10 52.268 54.847 1.778 22.477 o
-3 -4 11 3.766 2.595 1.068 211.409 o
-3 -4 12 49.427 48.591 1.724 24.486 o
-3 -3 1 817.508 876.535 12.176 0.419 o
-3 -3 2 1250.730 1208.540 20.689 0.195 o
-3 -3 3 12.232 9.662 0.296 141.854 o
-3 -3 4 1.850 2.346 0.179 801.826 o
-3 -3 5 60.656 54.921 0.960 22.889 o
-3 -3 6 543.233 524.540 7.007 0.939 o
-3 -3 7 679.465 691.109 9.201 0.614 o
-3 -3 8 147.043 145.111 2.588 6.762 o
-3 -3 9 38.143 38.804 1.087 35.452 o
-3 -3 10 35.628 34.671 1.246 37.248 o
-3 -3 11 131.403 132.063 2.940 7.407 o
-3 -3 12 89.705 86.579 2.320 12.276 o
-3 -2 1 797.966 991.776 13.707 0.385 o
-3 -2 2 191.618 195.725 2.869 4.688 o
-3 -2 3 336.060 310.107 3.977 2.157 o
-3 -2 4 682.312 719.629 9.491 0.594 o
-3 -2 5 1719.950 1714.660 23.701 0.113 o
-3 -2 6 1072.690 1094.330 20.718 0.236 o
-3 -2 7 22.586 20.394 0.607 68.805 o
-3 -2 8 128.828 124.110 1.910 8.483 o
-3 -2 9 787.216 782.726 11.101 0.473 o
-3 -2 10 282.856 295.726 5.438 2.386 o
-3 -2 11 6.036 5.101 0.664 225.352 o
-3 -2 12 0.297 0.346 0.707 718.912 o
-3 -1 1 5.469 6.798 0.337 266.097 o
-3 -1 2 589.874 549.812 7.686 0.827 o
-3 -1 3 1520.900 1454.120 19.927 0.147 o
-3 -1 4 483.191 477.681 6.353 1.128 o
-3 -1 5 8.815 10.339 0.322 172.046 o
-3 -1 6 218.047 227.088 3.595 3.752 o
-3 -1 7 427.517 426.073 6.114 1.353 o
-3 -1 8 608.843 610.794 8.671 0.739 o
-3 -1 9 98.612 88.548 1.493 12.453 o
-3 -1 10 51.462 52.763 1.366 24.780 o
-3 -1 11 4.609 5.506 0.701 245.702 o
-3 -1 12 66.880 64.585 4.050 11.432 o
-3 0 1 498.327 484.422 11.473 0.876 o
-3 0 2 169.570 153.107 2.269 6.009 o
-3 0 3 435.454 441.747 6.315 1.296 o
-3 0 4 123.352 122.755 2.854 8.055 o
-3 0 5 329.393 325.815 4.475 2.104 o
-3 0 6 611.849 572.895 8.624 0.759 o
-3 0 7 287.517 291.951 4.275 2.531 o
-3 0 8 0.936 0.607 0.513 897.406 o
-3 0 9 3.690 3.744 0.595 330.660 o
-3 0 10 23.663 27.196 2.806 28.787 o
-3 0 11 92.284 92.478 2.319 11.758 o
-3 0 12 12.997 18.270 2.923 33.697 o
-3 1 1 202.888 217.220 2.749 4.289 o
-3 1 2 748.785 769.337 9.381 0.524 o
-3 1 3 1282.320 1285.250 19.074 0.190 o
-3 1 4 414.252 351.612 5.980 1.527 o
-3 1 5 1138.140 1134.010 15.664 0.244 o
-3 1 6 103.431 97.840 1.565 11.467 o
-3 1 7 4.307 2.350 0.264 434.257 o
-3 1 8 29.773 28.921 0.665 50.062 o
-3 1 9 208.171 215.025 3.987 3.883 o
-3 1 10 42.734 41.762 1.482 29.656 o
-3 1 11 9.116 8.433 0.850 141.941 o
-3 2 1 164.351 158.272 2.163 6.135 o
-3 2 2 758.582 743.861 10.298 0.514 o
-3 2 3 4238.730 4362.240 73.053 0.018 o
-3 2 4 1992.470 2003.340 29.685 0.083 o
-3 2 5 18.125 15.637 0.731 83.925 o
-3 2 6 122.837 124.118 2.135 8.651 o
-3 2 7 548.832 547.174 7.780 0.888 o
-3 2 8 319.518 331.820 4.930 2.099 o
-3 2 9 15.446 14.315 0.801 93.144 o
-3 2 10 16.943 16.669 1.433 65.323 o
-3 2 11 0.331 -0.351 0.797 600.231 o
-3 3 1 1047.040 978.592 13.519 0.299 o
-3 3 2 434.853 433.037 5.677 1.343 o
-3 3 3 125.342 157.330 2.770 7.259 o
-3 3 4 66.169 73.164 1.829 17.266 o
-3 3 5 114.552 103.272 1.756 10.164 o
-3 3 6 526.538 526.700 9.378 0.886 o
-3 3 7 2.740 1.449 0.358 605.323 o
-3 3 8 0.787 0.317 0.367 1450.220 o
-3 3 9 2.760 2.306 0.501 470.477 o
-3 3 10 73.558 77.413 2.237 14.794 o
-3 4 1 183.202 176.512 2.295 5.282 o
-3 4 2 97.531 93.226 1.414 12.410 o
-3 4 3 231.602 245.725 3.742 3.409 o
-3 4 4 572.293 569.018 7.694 0.838 o
-3 4 5 278.558 290.999 4.276 2.607 o
-3 4 6 13.002 9.381 0.458 131.436 o
-3 4 7 11.952 12.015 0.941 106.849 o
-3 4 8 62.380 64.215 1.774 18.989 o
-3 4 9 194.360 189.837 4.193 4.241 o
-3 4 10 72.773 72.311 2.361 14.931 o
-3 5 1 1056.140 1095.850 15.160 0.270 o
-3 5 2 441.111 458.962 6.477 1.249 o
-3 5 3 730.434 720.886 10.919 0.533 o
-3 5 4 46.675 46.075 1.193 28.585 o
-3 5 5 38.861 40.162 1.041 34.884 o
-3 5 6 16.686 15.558 1.002 80.558 o
-3 5 7 245.053 247.744 4.599 3.063 o
-3 5 8 0.486 0.199 0.565 1002.170 o
-3 5 9 4.174 3.006 0.708 291.942 o
-3 6 1 665.527 678.709 8.900 0.637 o
-3 6 2 131.689 135.565 2.330 7.764 o
-3 6 3 26.335 28.591 0.844 52.783 o
-3 6 4 97.076 100.238 2.036 11.386 o
-3 6 5 69.301 68.168 1.589 17.761 o
-3 6 6 18.926 17.527 1.139 68.841 o
-3 6 7 26.930 28.612 1.970 37.176 o
-3 6 8 35.668 37.586 1.477 34.356 o
-3 7 1 2.228 3.308 0.314 573.131 o
-3 7 2 70.671 68.785 1.467 17.734 o
-3 7 3 98.293 96.517 2.003 11.485 o
-3 7 4 246.367 244.189 4.491 3.091 o
-3 7 5 18.341 21.618 0.979 69.690 o
-3 7 6 7.180 6.155 0.904 166.056 o
-3 7 7 24.151 22.351 1.342 52.222 o
-3 8 1 7.874 10.143 0.994 132.859 o
-3 8 2 43.502 43.730 1.477 28.921 o
-3 8 3 82.827 83.982 2.451 12.858 o
-3 8 4 44.877 45.716 1.770 26.249 o
-3 8 5 9.408 10.166 1.212 107.228 o
-3 8 6 18.355 21.203 1.338 61.442 o
-3 9 1 207.591 211.698 4.234 3.843 o
-3 9 2 28.436 25.334 1.413 44.885 o
-3 9 3 80.038 76.667 2.099 14.310 o
-3 9 4 10.206 14.018 1.932 62.719 o
-3 9 5 64.170 66.652 2.673 15.608 o
-3 10 1 21.300 23.182 1.327 55.694 o
-3 10 2 83.484 81.796 2.295 13.210 o
-3 10 3 65.629 63.667 2.556 15.983 o
-2 -10 1 33.144 32.882 1.930 32.814 o
-2 -10 2 13.109 10.218 2.064 56.696 o
-2 -10 3 64.926 60.947 2.543 16.332 o
-2 -10 4 2.373 1.758 0.803 354.292 o
-2 -10 5 16.896 17.987 1.355 66.475 o
-2 -10 6 155.582 166.246 3.389 5.701 o
-2 -9 1 103.143 102.829 2.381 10.360 o
-2 -9 2 87.628 83.541 2.560 12.197 o
-2 -9 3 55.248 54.574 1.769 21.758 o
-2 -9 4 111.471 109.761 2.435 9.488 o
-2 -9 5 114.232 109.525 2.403 9.354 o
-2 -9 6 106.301 94.325 2.857 9.823 o
-2 -9 7 2.091 1.364 0.753 408.903 o
-2 -9 8 2.496 2.865 0.681 377.621 o
-2 -8 1 12.776 12.657 0.812 107.615 o
-2 -8 2 130.369 127.417 2.648 7.784 o
-2 -8 3 292.901 301.056 5.198 2.333 o
-2 -8 4 345.489 345.008 5.851 1.834 o
-2 -8 5 49.473 47.782 1.344 26.437 o
-2 -8 6 9.356 11.149 0.751 136.649 o
-2 -8 7 83.974 89.993 1.947 13.329 o
-2 -8 8 121.572 128.082 2.741 8.112 o
-2 -8 9 88.645 90.948 2.516 11.837 o
-2 -7 1 236.989 239.336 4.339 3.253 o
-2 -7 2 482.433 476.408 7.437 1.087 o
-2 -7 3 653.871 641.560 9.229 0.661 o
-2 -7 4 49.540 51.923 1.246 26.079 o
-2 -7 5 30.204 27.453 0.876 48.492 o
-2 -7 6 535.308 531.456 8.627 0.895 o
-2 -7 7 586.570 567.921 9.258 0.778 o
-2 -7 8 27.063 24.707 1.416 46.473 o
-2 -7 9 9.740 9.423 0.907 129.076 o
-2 -7 10 62.342 63.684 2.510 16.629 o
-2 -6 1 258.790 254.147 3.770 3.042 o
-2 -6 2 136.571 134.600 2.047 7.739 o
-2 -6 3 37.004 34.468 1.016 38.149 o
-2 -6 4 522.052 527.898 7.094 0.971 o
-2 -6 5 320.873 336.537 5.073 2.062 o
-2 -6 6 1.545 0.642 0.255 1139.110 o
-2 -6 7 16.752 12.161 0.525 100.530 o
-2 -6 8 94.823 89.917 2.100 11.971 o
-2 -6 9 134.189 129.778 2.850 7.407 o
-2 -6 10 239.615 248.668 4.835 3.064 o
-2 -6 11 154.421 163.364 3.232 5.859 o
-2 -5 1 264.701 280.425 4.095 2.801 o
-2 -5 2 919.173 923.063 11.387 0.368 o
-2 -5 3 1243.540 1238.220 16.103 0.211 o
-2 -5 4 154.038 156.779 2.513 6.347 o
-2 -5 5 26.051 25.166 0.635 57.883 o
-2 -5 6 12.106 11.782 0.503 127.545 o
-2 -5 7 475.802 490.288 7.170 1.097 o
-2 -5 8 269.199 278.242 5.027 2.620 o
-2 -5 9 126.123 126.899 2.815 7.858 o
-2 -5 10 0.751 0.755 0.699 618.390 o
-2 -5 11 83.590 87.980 2.100 13.220 o
-2 -4 1 1359.020 1326.920 24.194 0.161 o
-2 -4 2 551.970 565.733 7.460 0.878 o
-2 -4 3 118.851 114.473 1.695 9.523 o
-2 -4 4 5.037 6.965 0.443 261.929 o
-2 -4 5 216.502 206.904 3.157 4.041 o
-2 -4 6 245.916 259.916 3.670 3.169 o
-2 -4 7 276.497 283.079 4.549 2.617 o
-2 -4 8 22.333 20.970 0.772 66.210 o
-2 -4 9 14.996 15.217 0.840 91.840 o
-2 -4 10 89.067 91.143 2.223 12.277 o
-2 -4 11 152.262 156.484 3.105 6.098 o
-2 -3 1 276.265 329.638 4.419 2.453 o
-2 -3 2 34.950 47.340 0.763 36.640 o
-2 -3 3 62.489 72.363 1.731 18.281 o
-2 -3 4 3373.740 3298.680 39.895 0.033 o
-2 -3 5 236.645 239.855 4.298 3.263 o
-2 -3 6 15.857 22.941 0.540 83.797 o
-2 -3 7 0.688 1.440 0.229 1493.720 o
-2 -3 8 612.053 627.889 8.939 0.719 o
-2 -3 9 32.580 33.162 0.881 43.237 o
-2 -3 10 43.684 41.826 1.251 30.591 o
-2 -3 11 15.390 14.059 1.027 85.769 o
-2 -3 12 3.822 4.368 0.785 260.769 o
-2 -2 1 165.885 180.927 2.481 5.623 o
-2 -2 2 879.216 866.499 10.581 0.406 o
-2 -2 3 73.751 57.707 0.864 19.403 o
-2 -2 4 689.294 668.097 9.280 0.614 o
-2 -2 5 261.587 279.765 3.817 2.877 o
-2 -2 6 283.692 291.570 4.212 2.571 o
-2 -2 7 245.282 256.037 3.809 3.172 o
-2 -2 8 1117.670 1130.300 15.974 0.247 o
-2 -2 9 832.118 856.515 12.216 0.416 o
-2 -2 10 41.071 39.775 1.210 32.679 o
-2 -2 11 1.973 2.728 0.681 413.910 o
-2 -2 12 71.714 74.099 2.240 15.261 o
-2 -1 1 4635.100 4602.500 68.374 0.016 o
-2 -1 2 19.105 17.506 0.318 85.450 o
-2 -1 3 570.114 633.788 8.277 0.782 o
-2 -1 4 110.125 134.479 1.905 9.279 o
-2 -1 5 2247.270 2136.060 45.495 0.059 o
-2 -1 6 669.051 670.695 8.809 0.640 o
-2 -1 7 249.235 252.250 3.492 3.206 o
-2 -1 8 0.712 0.124 0.295 1968.490 o
-2 -1 9 74.234 71.046 1.531 16.766 o
-2 -1 10 79.608 79.737 1.790 14.784 o
-2 -1 11 116.187 112.996 2.417 9.113 o
-2 -1 12 28.078 28.062 3.362 22.084 o
-2 0 1 370.143 350.482 5.340 1.753 o
-2 0 2 2047.580 2020.910 32.811 0.077 o
-2 0 3 13.895 5.696 0.190 147.236 o
-2 0 4 426.326 424.061 9.223 1.175 o
-2 0 5 1209.490 1151.120 15.862 0.226 o
-2 0 6 10.392 9.158 0.395 157.589 o
-2 0 7 0.799 0.494 0.185 2059.450 o
-2 0 8 68.700 70.515 1.306 18.297 o
-2 0 9 252.598 251.593 4.220 3.040 o
-2 0 10 188.845 189.515 3.949 4.433 o
-2 0 11 27.802 26.982 1.622 41.835 o
-2 1 1 2114.960 2191.360 28.164 0.075 o
-2 1 2 12125.800 13506.900 296.715 0.002 o
-2 1 3 814.342 791.676 10.212 0.464 o
-2 1 4 1.705 1.861 0.175 914.592 o
-2 1 5 447.626 463.672 6.510 1.225 o
-2 1 6 1536.920 1535.770 25.086 0.131 o
-2 1 7 314.018 325.456 4.756 2.170 o
-2 1 8 157.977 148.742 2.408 6.400 o
-2 1 9 24.766 23.662 0.915 57.490 o
-2 1 10 11.234 8.829 0.777 129.710 o
-2 1 11 5.604 5.347 0.854 199.555 o
-2 2 1 157.079 179.346 2.336 5.962 o
-2 2 2 636.776 588.140 8.152 0.731 o
-2 2 3 197.557 225.211 4.341 3.859 o
-2 2 4 453.500 440.943 7.359 1.197 o
-2 2 5 357.391 367.496 5.153 1.787 o
-2 2 6 885.163 864.617 12.194 0.389 o
-2 2 7 228.374 242.178 3.423 3.541 o
-2 2 8 14.009 11.944 0.656 109.809 o
-2 2 9 5.852 6.425 0.886 183.033 o
-2 2 10 51.330 53.043 1.928 22.300 o
-2 2 11 19.165 19.520 1.370 60.704 o
-2 3 1 193.394 227.757 3.048 4.289 o
-2 3 2 378.606 375.057 5.658 1.641 o
-2 3 3 2172.550 2017.260 29.265 0.076 o
-2 3 4 616.697 633.163 9.889 0.690 o
-2 3 5 153.005 144.886 2.102 6.796 o
-2 3 6 84.113 81.797 1.684 14.243 o
-2 3 7 45.974 43.184 1.057 30.185 o
-2 3 8 106.426 108.496 2.379 9.927 o
-2 3 9 56.462 55.987 1.626 21.820 o
-2 3 10 30.856 30.275 1.583 38.748 o
-2 4 1 416.037 425.389 5.950 1.398 o
-2 4 2 813.031 789.277 10.930 0.458 o
-2 4 3 611.748 590.986 8.270 0.757 o
-2 4 4 81.421 88.596 1.552 14.364 o
-2 4 5 140.830 143.537 2.418 7.135 o
-2 4 6 80.850 78.997 1.725 14.786 o
-2 4 7 90.017 86.878 1.924 12.871 o
-2 4 8 119.667 119.250 2.610 8.555 o
-2 4 9 120.098 119.732 2.753 8.386 o
-2 4 10 6.691 6.510 1.141 141.449 o
-2 5 1 423.669 417.327 6.374 1.363 o
-2 5 2 117.958 127.990 2.126 8.826 o
-2 5 3 394.592 386.563 5.975 1.535 o
-2 5 4 45.619 42.752 0.905 31.139 o
-2 5 5 79.985 79.548 1.708 14.898 o
-2 5 6 107.043 102.617 2.187 10.310 o
-2 5 7 18.806 15.648 1.170 70.234 o
-2 5 8 114.759 113.296 2.611 8.996 o
-2 5 9 1.034 -0.827 0.643 714.178 o
-2 6 1 43.794 44.230 0.920 31.626 o
-2 6 2 168.266 169.549 2.790 5.591 o
-2 6 3 481.817 488.677 7.527 1.071 o
-2 6 4 370.592 364.514 6.326 1.642 o
-2 6 5 39.514 36.452 1.248 34.227 o
-2 6 6 3.852 4.324 0.537 328.474 o
-2 6 7 15.906 16.822 1.305 71.204 o
-2 6 8 56.306 54.233 1.872 21.120 o
-2 7 1 510.403 550.360 12.208 0.788 o
-2 7 2 499.004 519.493 11.488 0.850 o
-2 7 3 102.514 101.343 2.017 10.905 o
-2 7 4 71.078 70.196 1.618 17.190 o
-2 7 5 5.990 5.256 1.168 149.541 o
-2 7 6 96.555 99.999 2.328 11.053 o
-2 7 7 49.141 52.129 1.772 23.789 o
-2 8 1 4.815 5.810 0.599 256.995 o
-2 8 2 9.292 6.664 0.603 169.926 o
-2 8 3 28.629 27.275 1.639 40.839 o
-2 8 4 27.892 24.867 1.300 47.224 o
-2 8 5 5.222 7.093 0.869 189.644 o
-2 8 6 7.141 6.083 1.536 102.808 o
-2 9 1 248.829 249.223 4.371 3.062 o
-2 9 2 4.456 5.544 0.837 221.078 o
-2 9 3 20.485 21.381 1.237 60.122 o
-2 9 4 29.582 27.232 1.627 40.273 o
-2 9 5 16.982 25.578 3.508 23.750 o
-2 10 1 99.753 99.763 2.513 10.557 o
-2 10 2 43.029 40.194 1.637 28.866 o
-2 10 3 11.146 10.670 2.046 59.749 o
-1 -10 1 22.051 22.619 1.599 49.766 o
-1 -10 2 2.747 1.175 0.660 426.418 o
-1 -10 3 4.999 3.485 0.643 275.020 o
-1 -10 4 6.056 4.184 0.696 228.950 o
-1 -10 5 99.288 92.719 2.409 11.013 o
-1 -10 6 82.849 77.348 2.055 14.008 o
-1 -10 7 9.267 7.650 0.897 140.008 o
-1 -9 1 5.798 7.679 0.681 203.493 o
-1 -9 2 204.859 212.492 4.340 3.845 o
-1 -9 3 274.901 276.022 5.402 2.522 o
-1 -9 4 38.268 37.676 1.461 33.003 o
-1 -9 5 13.222 11.807 0.817 107.304 o
-1 -9 6 83.865 84.643 2.003 13.551 o
-1 -9 7 117.588 120.831 3.412 7.834 o
-1 -9 8 148.424 153.525 3.190 6.216 o
-1 -8 1 239.685 239.680 4.772 3.125 o
-1 -8 2 431.928 425.171 6.710 1.309 o
-1 -8 3 73.898 70.948 1.645 16.586 o
-1 -8 4 137.389 135.616 2.717 7.247 o
-1 -8 5 181.790 176.413 3.392 4.924 o
-1 -8 6 472.683 457.905 8.324 1.087 o
-1 -8 7 174.780 170.574 3.911 4.919 o
-1 -8 8 78.966 79.963 2.026 14.389 o
-1 -8 9 0.791 1.042 0.698 593.703 o
-1 -7 1 218.060 215.750 3.376 3.891 o
-1 -7 2 32.823 32.177 0.806 44.047 o
-1 -7 3 875.580 889.817 12.611 0.384 o
-1 -7 4 405.780 409.489 6.629 1.415 o
-1 -7 5 204.125 219.771 3.816 3.959 o
-1 -7 6 196.786 190.143 3.407 4.469 o
-1 -7 7 152.943 142.827 2.816 6.462 o
-1 -7 8 17.400 16.963 1.164 72.049 o
-1 -7 9 248.831 246.973 6.708 2.577 o
-1 -7 10 117.334 108.899 4.485 6.962 o
-1 -6 1 148.508 153.270 2.452 6.633 o
-1 -6 2 6.706 8.515 0.433 209.109 o
-1 -6 3 581.681 573.500 8.202 0.809 o
-1 -6 4 284.149 291.815 4.800 2.485 o
-1 -6 5 93.195 96.208 1.684 12.389 o
-1 -6 6 27.579 20.433 0.863 56.441 o
-1 -6 7 91.764 93.754 1.885 12.391 o
-1 -6 8 267.298 271.328 5.580 2.567 o
-1 -6 9 147.731 150.400 3.195 6.285 o
-1 -6 10 14.472 13.971 1.470 71.807 o
-1 -6 11 2.606 3.550 0.702 345.603 o
-1 -5 1 1366.970 1309.420 16.958 0.182 o
-1 -5 2 420.869 445.289 6.397 1.329 o
-1 -5 3 220.443 217.700 3.278 3.863 o
-1 -5 4 401.443 404.584 5.865 1.486 o
-1 -5 5 346.369 357.507 5.260 1.854 o
-1 -5 6 743.239 731.265 9.707 0.537 o
-1 -5 7 193.532 206.504 3.327 4.401 o
-1 -5 8 6.902 5.226 0.501 229.846 o
-1 -5 9 1.138 1.469 0.525 719.252 o
-1 -5 10 142.454 139.786 2.834 6.885 o
-1 -5 11 246.161 246.887 4.481 3.081 o
-1 -4 1 93.069 100.775 1.488 12.401 o
-1 -4 2 475.582 525.582 6.931 1.070 o
-1 -4 3 198.115 204.761 3.069 4.409 o
-1 -4 4 687.651 659.676 9.311 0.619 o
-1 -4 5 316.437 315.083 4.321 2.234 o
-1 -4 6 109.672 116.924 2.037 9.771 o
-1 -4 7 157.395 161.402 3.081 5.881 o
-1 -4 8 107.718 103.090 2.347 10.062 o
-1 -4 9 181.018 184.805 3.998 4.607 o
-1 -4 10 247.366 249.868 4.797 2.988 o
-1 -4 11 1.424 1.164 0.850 396.319 o
-1 -3 1 2320.110 2304.920 29.591 0.065 o
-1 -3 2 1701.650 1555.070 19.997 0.126 o
-1 -3 3 2116.660 2145.580 29.421 0.075 o
-1 -3 4 905.308 963.169 12.501 0.357 o
-1 -3 5 14.210 19.107 0.519 96.803 o
-1 -3 6 100.669 95.312 1.906 11.450 o
-1 -3 7 1485.870 1443.620 21.609 0.148 o
-1 -3 8 777.602 787.714 11.148 0.477 o
-1 -3 9 13.014 10.765 0.656 118.506 o
-1 -3 10 0.906 2.819 0.780 422.111 o
-1 -3 11 69.068 71.592 2.228 15.853 o
-1 -2 1 3682.460 3790.660 48.774 0.026 o
-1 -2 2 89.608 79.729 1.244 14.303 o
-1 -2 3 19.644 21.473 0.456 76.480 o
-1 -2 4 1.161 3.925 0.248 736.155 o
-1 -2 5 443.084 468.937 8.264 1.141 o
-1 -2 6 761.966 796.372 13.150 0.458 o
-1 -2 7 191.118 189.373 3.505 4.552 o
-1 -2 8 25.279 24.996 0.720 58.271 o
-1 -2 9 41.329 42.529 1.144 32.203 o
-1 -2 10 216.974 218.978 4.244 3.655 o
-1 -2 11 219.925 223.158 5.650 3.201 o
-1 -1 1 4.511 3.394 0.168 401.657 o
-1 -1 2 1.215 0.815 0.117 1518.540 o
-1 -1 3 367.541 320.115 4.934 1.870 o
-1 -1 4 317.248 318.797 4.528 2.195 o
-1 -1 5 151.807 143.450 2.199 6.822 o
-1 -1 6 88.161 87.165 1.487 13.703 o
-1 -1 7 90.048 88.111 1.541 13.352 o
-1 -1 8 205.871 207.134 4.286 3.887 o
-1 -1 9 459.882 452.928 11.861 0.938 o
-1 -1 10 30.863 31.803 1.270 41.650 o
-1 -1 11 17.419 22.572 1.528 57.180 o
-1 0 1 2055.350 2082.280 43.554 0.066 o
-1 0 2 74.645 70.358 0.945 17.802 o
-1 0 3 612.150 584.363 8.624 0.752 o
-1 0 4 112.050 117.855 2.335 9.299 o
-1 0 5 58.558 59.935 1.018 22.629 o
-1 0 6 7.820 12.110 0.732 146.753 o
-1 0 7 684.192 704.844 9.949 0.591 o
-1 0 8 321.010 321.082 7.461 1.827 o
-1 0 9 1.939 1.658 0.425 663.390 o
-1 0 10 13.634 13.175 0.843 101.136 o
-1 0 11 76.418 76.163 2.074 14.869 o
-1 1 1 2769.750 2848.270 39.067 0.044 o
-1 1 2 2569.820 2577.380 35.504 0.052 o
-1 1 3 172.433 195.434 3.043 5.056 o
-1 1 4 557.049 581.156 8.741 0.823 o
-1 1 5 1410.760 1421.170 25.353 0.147 o
-1 1 6 1269.950 1379.590 31.619 0.144 o
-1 1 7 14.162 15.883 0.897 91.610 o
-1 1 8 118.515 115.409 1.985 9.286 o
-1 1 9 9.699 10.025 0.620 147.197 o
-1 1 10 61.808 64.122 2.052 18.218 o
-1 1 11 30.875 28.448 1.650 38.593 o
-1 2 1 1863.400 1840.660 27.209 0.096 o
-1 2 2 73.704 85.497 1.213 16.238 o
-1 2 3 207.428 193.913 3.033 4.346 o
-1 2 4 1649.520 1584.330 22.366 0.125 o
-1 2 5 143.118 138.059 2.693 6.983 o
-1 2 6 1.704 2.355 0.220 812.041 o
-1 2 7 14.939 16.386 0.623 96.642 o
-1 2 8 257.490 260.842 3.789 3.018 o
-1 2 9 180.559 178.225 3.029 5.073 o
-1 2 10 4.839 4.124 0.845 226.028 o
-1 3 1 628.103 594.449 8.890 0.721 o
-1 3 2 338.799 358.794 5.449 1.871 o
-1 3 3 912.853 923.662 13.783 0.352 o
-1 3 4 14.189 14.875 0.479 107.301 o
-1 3 5 356.805 372.453 5.542 1.747 o
-1 3 6 272.044 286.123 4.261 2.685 o
-1 3 7 771.719 776.451 11.893 0.474 o
-1 3 8 157.189 150.589 2.805 6.197 o
-1 3 9 35.958 35.303 1.396 35.551 o
-1 3 10 1.757 1.327 0.844 375.966 o
-1 4 1 1285.670 1247.260 18.557 0.194 o
-1 4 2 45.471 63.927 1.151 25.756 o
-1 4 3 169.390 189.863 3.041 5.196 o
-1 4 4 174.608 172.485 2.831 5.366 o
-1 4 5 1103.680 1108.350 15.412 0.256 o
-1 4 6 41.382 39.576 0.977 33.932 o
-1 4 7 61.950 61.785 1.415 20.426 o
-1 4 8 14.856 14.265 1.006 87.949 o
-1 4 9 98.167 96.139 2.508 10.825 o
-1 5 1 1.204 1.858 0.233 1046.640 o
-1 5 2 844.799 838.269 13.791 0.398 o
-1 5 3 387.781 400.318 5.826 1.545 o
-1 5 4 253.935 241.693 3.695 3.176 o
-1 5 5 36.655 33.455 0.835 40.028 o
-1 5 6 138.552 143.327 3.173 6.736 o
-1 5 7 6.877 6.932 0.943 160.560 o
-1 5 8 5.216 4.798 0.702 239.580 o
-1 5 9 14.383 11.672 1.900 59.137 o
-1 6 1 513.297 489.022 7.004 1.027 o
-1 6 2 1022.320 1055.780 18.885 0.262 o
-1 6 3 140.339 145.922 2.377 7.131 o
-1 6 4 20.669 18.320 0.724 73.542 o
-1 6 5 102.545 96.268 2.150 10.948 o
-1 6 6 193.680 200.497 3.716 4.327 o
-1 6 7 64.114 66.805 1.817 18.258 o
-1 6 8 3.522 2.431 0.784 300.332 o
-1 7 1 257.341 257.613 4.270 2.952 o
-1 7 2 142.439 142.718 2.643 6.951 o
-1 7 3 119.810 126.184 2.170 8.736 o
-1 7 4 64.911 64.239 1.802 18.395 o
-1 7 5 151.251 143.346 3.309 6.216 o
-1 7 6 78.251 75.384 1.980 14.880 o
-1 7 7 15.366 15.819 1.049 82.411 o
-1 8 1 73.943 73.728 1.777 16.066 o
-1 8 2 73.347 71.427 1.769 16.358 o
-1 8 3 278.775 286.332 4.974 2.521 o
-1 8 4 7.877 7.734 0.761 165.371 o
-1 8 5 15.081 14.212 1.049 85.709 o
-1 8 6 2.024 1.900 1.754 116.256 o
-1 9 1 246.894 244.529 4.341 3.114 o
-1 9 2 109.182 111.468 2.399 9.619 o
-1 9 3 50.503 49.173 1.738 23.989 o
-1 9 4 27.820 30.714 1.549 41.292 o
-1 10 1 18.792 22.814 1.258 61.254 o
-1 10 2 0.347 0.486 0.795 569.297 o
0 -10 1 32.924 32.293 1.413 38.398 o
0 -10 2 51.123 52.617 1.746 23.256 o
0 -10 3 20.705 18.647 1.614 53.407 o
0 -10 4 44.702 40.567 1.609 28.271 o
0 -10 5 1.205 1.667 0.609 593.838 o
0 -10 6 2.582 3.005 0.735 345.542 o
0 -10 7 17.487 16.969 1.419 64.463 o
0 -9 1 127.859 125.402 2.537 8.039 o
0 -9 2 95.374 95.347 2.380 11.271 o
0 -9 3 7.666 6.843 0.731 176.251 o
0 -9 4 11.069 10.770 1.096 105.325 o
0 -9 5 150.244 153.921 3.058 6.229 o
0 -9 6 208.896 213.154 3.955 3.896 o
0 -9 7 113.458 110.224 2.763 9.001 o
0 -9 8 22.626 24.240 1.319 53.353 o
0 -8 1 332.007 328.922 5.440 1.983 o
0 -8 2 33.828 34.592 1.257 38.431 o
0 -8 3 19.385 20.682 0.790 72.510 o
0 -8 4 431.202 432.461 7.045 1.282 o
0 -8 5 803.959 736.773 17.552 0.393 o
0 -8 6 96.668 87.579 2.010 12.037 o
0 -8 7 0.640 0.954 0.549 860.960 o
0 -8 8 140.091 140.979 3.235 6.679 o
0 -8 9 118.241 103.514 3.258 8.379 o
0 -7 1 76.022 77.496 1.437 16.129 o
0 -7 2 292.245 316.690 4.754 2.342 o
0 -7 3 373.112 384.830 6.208 1.602 o
0 -7 4 2.371 0.781 0.302 776.249 o
0 -7 5 0.760 2.238 0.319 1029.410 o
0 -7 6 243.647 237.282 4.476 3.160 o
0 -7 7 437.381 442.693 7.321 1.237 o
0 -7 8 229.507 228.455 4.373 3.398 o
0 -7 9 152.112 167.630 4.663 5.054 o
0 -7 10 0.791 0.877 0.745 550.031 o
0 -6 1 754.238 802.361 11.752 0.479 o
0 -6 2 270.847 275.563 4.119 2.764 o
0 -6 3 1.293 1.565 0.266 1028.410 o
0 -6 4 29.056 27.635 0.685 51.537 o
0 -6 5 1073.910 1084.430 16.499 0.260 o
0 -6 6 688.613 690.353 9.240 0.605 o
0 -6 7 156.892 157.744 2.844 6.073 o
0 -6 8 3.508 2.028 0.567 394.310 o
0 -6 9 70.862 71.574 1.980 16.231 o
0 -6 10 124.593 121.142 3.872 7.089 o
0 -5 1 4.646 4.261 0.259 355.824 o
0 -5 2 151.320 155.326 2.395 6.524 o
0 -5 3 582.295 564.834 9.533 0.778 o
0 -5 4 985.976 1014.660 14.168 0.308 o
0 -5 5 204.653 207.217 2.995 4.286 o
0 -5 6 37.170 38.264 1.061 36.420 o
0 -5 7 0.737 0.612 0.281 1686.120 o
0 -5 8 222.354 220.821 4.484 3.507 o
0 -5 9 122.176 122.224 2.549 8.398 o
0 -5 10 115.778 118.149 2.718 8.693 o
0 -5 11 0.414 -0.237 0.641 865.831 o
0 -4 1 238.848 218.703 3.447 3.553 o
0 -4 2 5776.030 5927.880 96.390 0.010 o
0 -4 3 1414.300 1439.710 19.885 0.160 o
0 -4 4 2.076 0.663 0.242 933.239 o
0 -4 5 0.806 1.327 0.215 1473.750 o
0 -4 6 1311.450 1329.840 19.978 0.180 o
0 -4 7 129.227 128.223 2.580 7.871 o
0 -4 8 6.601 5.202 0.429 246.133 o
0 -4 9 1.090 1.421 0.589 651.813 o
0 -4 10 0.727 0.056 0.588 886.053 o
0 -4 11 3.261 2.331 0.697 345.235 o
0 -3 1 783.618 769.520 10.659 0.485 o
0 -3 2 544.150 480.241 6.727 0.986 o
0 -3 3 1673.690 1693.780 23.296 0.117 o
0 -3 4 787.376 843.923 11.781 0.447 o
0 -3 5 797.899 796.763 13.908 0.429 o
0 -3 6 612.900 614.975 13.193 0.623 o
0 -3 7 904.271 903.651 12.711 0.368 o
0 -3 8 11.355 12.287 0.572 128.005 o
0 -3 9 24.759 21.766 0.862 59.770 o
0 -3 10 108.336 107.774 2.953 9.154 o
0 -3 11 290.914 298.470 6.357 2.188 o
0 -2 1 1.389 2.073 0.271 896.315 o
0 -2 2 106.938 128.372 1.896 9.694 o
0 -2 3 5984.260 5957.690 166.752 0.007 o
0 -2 4 888.789 882.026 16.114 0.348 o
0 -2 5 153.440 155.280 2.865 6.211 o
0 -2 6 137.605 144.069 2.671 7.097 o
0 -2 7 65.859 67.388 1.368 19.052 o
0 -2 8 145.825 148.503 2.649 6.710 o
0 -2 9 232.747 235.249 4.424 3.307 o
0 -2 10 44.654 43.141 1.469 28.605 o
0 -2 11 1.592 1.389 0.678 500.548 o
0 -1 1 121.633 89.457 3.588 8.182 o
0 -1 2 1835.830 1794.400 32.199 0.092 o
0 -1 3 597.772 559.046 8.383 0.792 o
0 -1 4 7.328 13.512 0.383 167.820 o
0 -1 5 193.169 252.410 5.028 3.522 o
0 -1 6 163.482 161.993 2.569 5.934 o
0 -1 7 212.560 215.078 3.920 3.836 o
0 -1 8 271.054 257.950 4.690 2.748 o
0 -1 9 37.471 32.521 1.235 36.818 o
0 -1 10 7.147 6.353 0.662 194.887 o
0 -1 11 26.394 28.904 1.392 45.427 o
0 0 2 12.331 16.990 0.404 113.411 o
0 0 3 1.967 1.588 0.163 883.140 o
0 0 4 3652.730 3798.980 179.752 0.009 o
0 0 5 389.314 403.338 6.204 1.509 o
0 0 6 168.775 156.052 3.011 5.666 o
0 0 7 3.288 2.936 0.360 462.385 o
0 0 8 13.296 10.534 0.670 116.899 o
0 0 9 18.144 20.441 1.050 69.680 o
0 0 10 238.445 236.617 4.205 3.282 o
0 0 11 97.143 88.466 3.659 9.405 o
0 1 1 809.996 785.142 23.391 0.312 o
0 1 2 234.341 237.857 3.152 3.544 o
0 1 3 404.339 448.583 8.409 1.249 o
0 1 4 329.349 351.401 5.895 1.892 o
0 1 5 151.866 163.372 2.652 6.240 o
0 1 6 1.537 1.865 0.203 948.457 o
0 1 7 45.520 45.561 1.003 30.081 o
0 1 8 186.546 186.259 3.363 4.727 o
0 1 9 84.445 85.900 1.797 13.761 o
0 1 10 21.774 25.625 1.392 52.222 o
0 2 0 157.394 163.559 2.340 6.202 o
0 2 1 6112.490 6470.760 180.700 0.006 o
0 2 2 406.906 379.860 5.748 1.518 o
0 2 3 4.914 5.672 0.300 307.475 o
0 2 4 5.034 6.477 0.309 287.756 o
0 2 5 181.744 186.001 2.797 5.037 o
0 2 6 375.825 384.182 5.293 1.660 o
0 2 7 322.391 315.542 4.428 2.183 o
0 2 8 64.406 63.996 1.388 19.684 o
0 2 9 0.676 -0.038 0.466 1273.920 o
0 2 10 8.890 8.769 0.970 132.503 o
0 3 0 1070.570 1064.810 13.025 0.282 o
0 3 1 70.067 67.482 1.107 18.725 o
0 3 2 38.186 51.598 2.858 20.671 o
0 3 3 77.275 82.784 1.768 14.935 o
0 3 4 187.927 194.270 2.755 4.817 o
0 3 5 151.564 148.424 2.598 6.533 o
0 3 6 156.100 153.521 2.832 6.171 o
0 3 7 312.752 309.830 4.737 2.229 o
0 3 8 39.962 38.106 1.130 34.279 o
0 3 9 54.450 54.660 1.592 22.672 o
0 4 0 10.956 7.698 0.352 161.283 o
0 4 1 174.379 172.379 2.988 5.311 o
0 4 2 160.634 147.502 2.135 6.454 o
0 4 3 50.570 37.244 1.016 29.615 o
0 4 4 187.484 197.206 4.125 4.322 o
0 4 5 43.826 41.375 0.933 32.294 o
0 4 6 86.702 82.079 1.701 13.875 o
0 4 7 0.762 1.088 0.462 981.291 o
0 4 8 136.663 138.850 2.710 7.215 o
0 4 9 36.757 34.012 1.861 31.382 o
0 5 0 171.704 164.847 2.966 5.486 o
0 5 1 467.771 489.466 6.960 1.125 o
0 5 2 498.834 508.164 6.788 1.045 o
0 5 3 33.436 36.822 0.751 41.818 o
0 5 4 55.821 57.806 1.076 23.596 o
0 5 5 64.527 67.743 1.372 19.288 o
0 5 6 260.081 261.535 4.141 2.928 o
0 5 7 74.289 73.079 1.769 16.081 o
0 5 8 50.261 47.852 1.677 24.572 o
0 6 0 475.427 465.377 6.681 1.147 o
0 6 1 62.774 65.535 1.900 18.387 o
0 6 2 52.913 49.857 1.008 26.110 o
0 6 3 68.265 67.207 1.315 18.695 o
0 6 4 346.578 347.315 5.228 1.881 o
0 6 5 256.556 260.286 4.167 2.965 o
0 6 6 58.973 58.119 1.548 21.180 o
0 6 7 0.560 0.459 0.626 797.866 o
0 7 0 201.537 193.161 3.336 4.374 o
0 7 1 65.718 60.050 1.342 19.950 o
0 7 2 89.857 90.329 1.838 12.834 o
0 7 3 62.570 60.392 1.504 20.184 o
0 7 4 19.519 22.953 0.930 66.931 o
0 7 5 67.248 67.951 1.608 18.119 o
0 7 6 6.312 5.175 0.754 205.234 o
0 8 0 68.362 66.641 1.544 18.192 o
0 8 1 85.267 88.982 2.168 12.865 o
0 8 2 108.426 107.180 2.383 9.830 o
0 8 3 62.149 58.833 1.607 20.144 o
0 8 4 2.653 3.015 0.882 285.664 o
0 8 5 31.945 34.445 2.621 26.390 o
0 9 0 91.611 92.857 2.053 12.208 o
0 9 1 21.445 23.376 1.938 43.678 o
0 9 2 51.246 55.608 1.603 23.413 o
0 9 3 26.978 25.086 1.243 48.896 o
0 10 0 74.755 69.565 2.114 15.465 o
0 10 1 41.999 38.970 1.487 30.603 o
1 -11 1 26.319 21.047 2.923 27.643 o
1 -11 2 19.308 16.907 1.435 60.973 o
1 -11 3 40.721 35.351 1.605 31.239 o
1 -10 0 200.335 203.514 5.239 3.676 o
1 -10 1 202.473 206.692 4.318 3.931 o
1 -10 2 34.630 33.811 1.465 36.244 o
1 -10 3 0.530 0.027 0.607 908.457 o
1 -10 4 42.320 43.026 1.612 28.735 o
1 -10 5 53.802 53.448 1.742 22.405 o
1 -10 6 109.581 118.286 3.360 8.329 o
1 -9 0 320.639 326.588 5.539 2.041 o
1 -9 1 60.848 56.448 1.493 21.103 o
1 -9 2 62.708 62.452 1.801 19.016 o
1 -9 3 160.836 157.464 3.339 5.704 o
1 -9 4 228.361 213.393 4.253 3.538 o
1 -9 5 62.750 58.759 1.706 19.703 o
1 -9 6 19.594 20.601 1.319 60.355 o
1 -9 7 10.419 5.501 0.873 141.402 o
1 -9 8 11.213 7.976 0.851 127.897 o
1 -8 0 1.000 0.868 0.314 1262.460 o
1 -8 1 600.430 603.736 9.463 0.734 o
1 -8 2 184.945 175.558 3.813 4.696 o
1 -8 3 41.392 48.688 1.369 29.395 o
1 -8 4 10.157 10.112 0.787 132.147 o
1 -8 5 133.647 128.399 3.625 6.840 o
1 -8 6 37.372 36.538 1.471 33.733 o
1 -8 7 394.042 405.310 12.179 1.066 o
1 -8 8 197.301 190.760 4.093 4.219 o
1 -8 9 4.364 1.268 0.783 291.808 o
1 -7 0 32.883 31.883 1.166 41.020 o
1 -7 1 85.494 82.895 1.999 13.471 o
1 -7 2 30.991 30.516 0.821 46.531 o
1 -7 3 20.799 20.511 0.712 70.932 o
1 -7 4 1.636 3.573 0.358 611.474 o
1 -7 5 76.185 77.420 1.781 15.443 o
1 -7 6 296.047 282.423 5.430 2.342 o
1 -7 7 167.950 162.212 3.271 5.482 o
1 -7 8 63.229 58.917 1.700 19.599 o
1 -7 9 24.490 27.217 1.481 46.808 o
1 -6 0 141.386 152.164 2.625 6.821 o
1 -6 1 5.609 7.959 0.407 239.668 o
1 -6 2 221.695 228.813 3.731 3.655 o
1 -6 3 179.607 181.451 3.040 5.053 o
1 -6 4 824.660 848.011 11.979 0.424 o
1 -6 5 143.468 145.910 2.569 6.894 o
1 -6 6 42.946 39.848 1.036 32.656 o
1 -6 7 28.103 8.623 2.485 35.173 o
1 -6 8 376.579 372.293 7.471 1.511 o
1 -6 9 366.872 363.154 7.785 1.532 o
1 -6 10 70.204 69.287 2.075 16.267 o
1 -5 0 162.370 149.204 3.388 5.750 o
1 -5 1 160.799 183.661 4.816 4.634 o
1 -5 2 201.842 153.625 2.341 5.090 o
1 -5 3 69.115 74.767 1.396 17.623 o
1 -5 4 222.845 227.496 3.715 3.652 o
1 -5 5 0.804 1.253 0.328 1230.680 o
1 -5 6 20.869 20.383 1.102 63.239 o
1 -5 7 223.690 216.448 4.511 3.511 o
1 -5 8 340.706 345.855 7.014 1.738 o
1 -5 9 0.642 0.448 0.554 928.890 o
1 -5 10 51.438 49.651 1.705 23.790 o
1 -4 0 386.487 345.301 5.278 1.698 o
1 -4 1 1355.290 1367.670 18.805 0.175 o
1 -4 2 296.994 333.253 4.505 2.282 o
1 -4 3 100.363 99.481 1.840 11.370 o
1 -4 4 301.825 294.267 5.750 2.221 o
1 -4 5 3189.490 2941.960 43.699 0.036 o
1 -4 6 1445.420 1430.760 23.426 0.148 o
1 -4 7 2.036 0.701 0.545 609.518 o
1 -4 8 7.286 5.348 0.562 213.377 o
1 -4 9 152.481 157.235 3.778 5.691 o
1 -4 10 249.220 254.503 4.981 2.909 o
1 -3 0 119.197 125.884 1.838 9.036 o
1 -3 1 11.710 7.173 0.195 161.419 o
1 -3 2 143.385 139.606 2.205 7.234 o
1 -3 3 1279.180 1189.820 16.421 0.207 o
1 -3 4 1209.630 1235.480 17.069 0.213 o
1 -3 5 546.505 535.646 8.967 0.863 o
1 -3 6 24.621 24.147 0.781 59.208 o
1 -3 7 93.563 95.704 1.894 12.104 o
1 -3 8 265.245 266.023 5.478 2.623 o
1 -3 9 321.845 321.081 5.403 2.065 o
1 -3 10 9.441 8.132 0.802 144.437 o
1 -2 0 47.714 40.710 0.630 31.601 o
1 -2 1 948.146 884.410 13.107 0.351 o
1 -2 2 2003.410 1975.740 27.045 0.085 o
1 -2 3 194.604 162.724 2.420 5.131 o
1 -2 4 24.441 31.532 0.752 54.363 o
1 -2 5 241.210 245.608 3.937 3.254 o
1 -2 6 674.263 661.808 11.111 0.596 o
1 -2 7 632.711 627.946 9.725 0.679 o
1 -2 8 14.638 13.613 0.746 99.656 o
1 -2 9 0.519 0.703 0.520 1010.990 o
1 -2 10 0.778 0.556 0.564 848.770 o
1 -1 0 572.940 524.385 7.807 0.868 o
1 -1 1 712.817 720.416 10.681 0.550 o
1 -1 2 2159.830 2144.960 27.563 0.075 o
1 -1 3 106.407 97.232 1.670 11.128 o
1 -1 4 56.480 36.684 0.792 27.978 o
1 -1 5 765.754 776.970 11.774 0.479 o
1 -1 6 541.983 525.381 11.617 0.787 o
1 -1 7 66.712 60.259 1.449 19.428 o
1 -1 8 4.829 2.469 0.534 327.396 o
1 -1 9 107.615 100.999 2.198 10.315 o
1 -1 10 195.620 183.296 3.229 4.618 o
1 0 0 2946.430 3040.690 108.436 0.020 o
1 0 1 179.873 174.313 3.270 5.040 o
1 0 2 2677.990 2645.380 72.777 0.033 o
1 0 3 3330.790 3374.770 104.246 0.019 o
1 0 4 1833.450 1841.230 31.965 0.091 o
1 0 5 22.969 24.044 0.619 64.249 o
1 0 6 54.408 55.439 1.303 23.658 o
1 0 7 46.387 50.220 1.733 25.158 o
1 0 8 104.666 116.441 2.341 9.817 o
1 0 9 35.570 35.688 1.337 36.183 o
1 0 10 18.462 18.441 1.178 67.835 o
1 1 0 65.712 60.776 1.271 20.050 o
1 1 1 1801.090 1601.470 39.505 0.088 o
1 1 2 2764.310 2613.270 46.700 0.043 o
1 1 3 660.023 596.034 16.635 0.516 o
1 1 4 148.471 151.704 2.445 6.667 o
1 1 5 24.433 22.239 0.541 64.101 o
1 1 6 245.744 262.725 4.315 3.035 o
1 1 7 353.504 340.291 5.079 1.877 o
1 1 8 3.601 4.160 0.557 337.354 o
1 1 9 0.609 0.418 0.576 894.139 o
1 1 10 0.347 0.489 0.585 947.181 o
1 2 0 1236.120 1179.290 15.153 0.221 o
1 2 1 1633.310 1576.080 29.512 0.114 o
1 2 2 6.704 6.465 0.330 239.447 o
1 2 3 728.552 736.105 14.648 0.472 o
1 2 4 377.541 392.422 5.475 1.623 o
1 2 5 998.870 985.310 13.285 0.314 o
1 2 6 157.523 157.904 2.458 6.238 o
1 2 7 24.529 23.583 0.750 60.225 o
1 2 8 10.673 12.348 0.831 118.788 o
1 2 9 116.246 120.203 2.583 8.742 o
1 3 0 319.079 310.582 4.149 2.249 o
1 3 1 579.770 674.884 8.518 0.739 o
1 3 2 257.202 213.978 3.177 3.396 o
1 3 3 1256.790 1263.570 16.387 0.205 o
1 3 4 90.981 84.298 1.652 13.311 o
1 3 5 546.448 541.318 7.286 0.911 o
1 3 6 2.583 2.110 0.490 502.014 o
1 3 7 175.413 173.605 2.996 5.266 o
1 3 8 117.138 112.799 2.199 9.268 o
1 3 9 2.837 1.633 0.692 388.104 o
1 4 0 2388.330 2309.030 42.742 0.055 o
1 4 1 737.813 789.047 10.306 0.513 o
1 4 2 194.827 180.548 2.590 4.866 o
1 4 3 13.278 13.292 0.511 115.317 o
1 4 4 120.710 125.441 2.000 8.839 o
1 4 5 43.548 47.292 1.019 30.538 o
1 4 6 38.862 38.458 1.171 34.554 o
1 4 7 34.357 33.120 1.190 39.173 o
1 4 8 13.678 13.964 0.908 96.634 o
1 5 0 1356.670 1343.380 17.404 0.180 o
1 5 1 209.274 202.832 2.871 4.274 o
1 5 2 37.081 37.080 0.814 38.462 o
1 5 3 154.625 143.511 2.192 6.718 o
1 5 4 297.229 301.729 4.277 2.419 o
1 5 5 144.061 149.113 2.412 6.899 o
1 5 6 0.623 1.081 0.530 885.108 o
1 5 7 6.791 5.983 0.688 200.161 o
1 6 0 74.850 77.468 1.276 16.605 o
1 6 1 149.728 156.510 2.348 6.583 o
1 6 2 49.717 52.241 1.017 26.833 o
1 6 3 171.681 168.510 2.776 5.518 o
1 6 4 86.439 76.697 2.264 13.224 o
1 6 5 25.546 26.347 1.041 52.732 o
1 6 6 34.758 38.143 1.960 30.469 o
1 7 0 59.968 55.180 1.173 22.484 o
1 7 1 337.598 332.691 5.869 1.901 o
1 7 2 9.167 12.901 0.712 133.982 o
1 7 3 72.682 65.619 1.706 17.101 o
1 7 4 6.372 8.118 0.584 202.533 o
1 7 5 50.215 50.562 1.691 24.091 o
1 8 0 80.090 83.284 1.925 14.233 o
1 8 1 18.635 20.605 1.103 67.212 o
1 8 2 34.092 35.757 1.504 35.608 o
1 8 3 56.397 56.596 1.847 20.909 o
1 8 4 59.765 62.472 2.050 18.780 o
1 9 0 17.992 19.730 1.061 70.498 o
1 9 1 20.598 20.679 1.178 61.799 o
1 9 2 70.882 73.155 2.011 16.027 o
1 9 3 23.122 29.232 2.923 27.333 o
1 10 0 109.950 114.098 2.852 8.993 o
2 -11 1 18.299 17.689 1.599 57.678 o
2 -11 2 49.599 48.318 1.862 23.774 o
2 -11 3 20.025 20.846 1.591 53.386 o
2 -10 0 56.283 55.863 1.563 22.118 o
2 -10 1 43.253 42.487 1.604 28.506 o
2 -10 2 47.749 45.422 1.721 25.572 o
2 -10 3 191.589 196.502 4.143 4.250 o
2 -10 4 138.267 143.687 3.317 6.638 o
2 -10 5 50.234 49.760 2.009 22.648 o
2 -10 6 1.724 0.788 1.013 302.674 o
2 -9 0 148.250 143.642 2.787 6.629 o
2 -9 1 84.199 88.820 1.997 13.284 o
2 -9 2 244.792 247.174 4.809 3.024 o
2 -9 3 537.777 509.520 9.089 0.892 o
2 -9 4 69.282 63.063 1.849 17.556 o
2 -9 5 0.631 0.479 0.654 729.766 o
2 -9 6 71.235 71.600 2.160 15.712 o
2 -9 7 98.750 89.796 3.038 10.229 o
2 -8 0 285.156 289.458 4.806 2.485 o
2 -8 1 300.064 299.786 4.987 2.316 o
2 -8 2 1.042 0.714 0.333 1237.070 o
2 -8 3 10.541 8.233 0.577 150.478 o
2 -8 4 121.497 126.489 3.501 7.456 o
2 -8 5 310.638 309.767 5.782 2.117 o
2 -8 6 99.316 92.703 2.339 11.110 o
2 -8 7 63.372 67.972 2.020 17.679 o
2 -8 8 1.902 1.392 0.686 466.604 o
2 -7 0 370.692 369.558 5.925 1.664 o
2 -7 1 9.187 10.587 0.633 148.434 o
2 -7 2 63.831 58.500 1.247 20.828 o
2 -7 3 508.200 508.145 8.779 0.953 o
2 -7 4 462.630 463.014 7.343 1.149 o
2 -7 5 20.179 21.764 0.773 69.818 o
2 -7 6 1.868 0.579 0.457 746.518 o
2 -7 7 56.619 54.361 1.569 22.208 o
2 -7 8 265.978 259.914 5.550 2.628 o
2 -7 9 175.150 175.513 4.302 4.681 o
2 -6 0 191.711 177.225 2.737 4.929 o
2 -6 1 371.515 357.709 5.643 1.707 o
2 -6 2 446.743 459.859 6.654 1.225 o
2 -6 3 3.102 3.177 0.411 448.051 o
2 -6 4 18.642 18.180 0.696 79.507 o
2 -6 5 22.300 21.977 0.674 66.806 o
2 -6 6 332.478 335.526 5.998 1.906 o
2 -6 7 165.890 158.366 3.319 5.564 o
2 -6 8 95.633 94.262 2.553 11.037 o
2 -6 9 0.905 -0.444 0.593 833.109 o
2 -5 0 2413.600 2335.510 46.146 0.052 o
2 -5 1 1046.500 1047.880 12.996 0.291 o
2 -5 2 145.404 156.528 2.233 6.800 o
2 -5 3 3.954 4.195 0.310 385.805 o
2 -5 4 911.883 938.829 13.127 0.355 o
2 -5 5 428.611 431.035 6.275 1.334 o
2 -5 6 2.923 2.234 0.335 543.911 o
2 -5 7 4.305 4.250 0.861 232.232 o
2 -5 8 7.151 7.486 0.749 176.774 o
2 -5 9 25.232 24.139 1.265 51.118 o
2 -5 10 29.616 26.332 1.601 40.934 o
2 -4 0 12.467 22.390 0.445 98.862 o
2 -4 1 523.730 568.916 7.415 0.922 o
2 -4 2 319.364 338.116 4.789 2.096 o
2 -4 3 833.792 834.267 11.004 0.433 o
2 -4 4 167.943 159.876 2.959 5.660 o
2 -4 5 755.279 763.271 11.615 0.492 o
2 -4 6 64.141 62.550 1.643 19.190 o
2 -4 7 227.477 231.179 3.923 3.515 o
2 -4 8 214.069 219.063 4.859 3.519 o
2 -4 9 350.773 381.312 6.993 1.629 o
2 -4 10 27.960 38.322 1.780 35.786 o
2 -3 0 108.309 131.894 2.098 9.313 o
2 -3 1 1777.900 1731.420 25.638 0.106 o
2 -3 2 692.682 687.838 15.847 0.485 o
2 -3 3 2.491 3.108 0.224 591.434 o
2 -3 4 16.934 19.185 0.518 86.758 o
2 -3 5 152.636 167.439 5.623 4.501 o
2 -3 6 567.323 577.398 8.959 0.805 o
2 -3 7 326.937 336.440 5.507 1.983 o
2 -3 8 79.297 83.131 1.912 14.368 o
2 -3 9 14.271 11.304 1.218 85.958 o
2 -3 10 1.200 1.642 0.726 486.444 o
2 -2 0 692.356 667.296 9.965 0.600 o
2 -2 1 152.437 179.923 2.814 5.885 o
2 -2 2 1.268 2.921 0.200 868.089 o
2 -2 3 189.732 252.054 3.447 4.034 o
2 -2 4 1056.900 1002.010 21.029 0.247 o
2 -2 5 324.882 312.697 8.135 1.747 o
2 -2 6 356.050 341.241 5.478 1.828 o
2 -2 7 42.868 33.499 1.050 34.425 o
2 -2 8 59.501 56.545 1.646 20.909 o
2 -2 9 57.007 58.572 2.179 19.253 o
2 -2 10 162.432 169.029 3.387 5.481 o
2 -1 0 860.499 897.462 13.386 0.382 o
2 -1 1 32.012 27.717 0.575 48.832 o
2 -1 2 4447.660 4545.320 85.849 0.015 o
2 -1 3 1754.980 1714.280 25.459 0.108 o
2 -1 4 335.694 320.213 4.655 2.066 o
2 -1 5 56.653 52.374 1.247 23.634 o
2 -1 6 4.594 1.497 0.297 436.218 o
2 -1 7 57.887 60.841 1.538 21.145 o
2 -1 8 337.752 328.766 5.497 1.948 o
2 -1 9 129.808 124.354 2.575 7.940 o
2 0 0 28.877 29.169 0.527 52.046 o
2 0 1 1732.240 1685.080 34.678 0.096 o
2 0 2 87.072 87.161 1.675 13.565 o
2 0 3 446.869 495.181 9.246 1.056 o
2 0 4 39.569 36.434 0.753 37.261 o
2 0 5 372.564 363.969 5.309 1.715 o
2 0 6 283.206 276.319 4.187 2.642 o
2 0 7 105.145 115.400 2.543 9.595 o
2 0 8 2.536 3.186 0.585 411.276 o
2 0 9 3.266 1.513 0.676 374.723 o
2 1 0 1065.050 1051.680 16.927 0.264 o
2 1 1 85.238 83.629 1.431 14.371 o
2 1 2 51.401 50.587 0.914 26.848 o
2 1 3 803.335 797.130 11.159 0.459 o
2 1 4 1236.170 1231.510 16.019 0.213 o
2 1 5 663.557 669.849 8.919 0.643 o
2 1 6 50.048 50.123 1.036 27.042 o
2 1 7 4.890 3.861 0.421 323.202 o
2 1 8 8.629 10.296 1.284 105.582 o
2 1 9 101.239 106.802 2.234 10.533 o
2 2 0 4.688 0.623 0.147 500.811 o
2 2 1 490.622 462.698 7.041 1.100 o
2 2 2 1418.540 1389.820 20.725 0.160 o
2 2 3 193.474 198.917 3.568 4.395 o
2 2 4 99.928 99.048 1.709 11.576 o
2 2 5 306.825 307.933 4.653 2.284 o
2 2 6 99.482 102.819 1.895 11.238 o
2 2 7 66.550 67.146 1.561 18.454 o
2 2 8 92.501 91.596 2.185 11.985 o
2 3 0 1248.280 1187.710 16.383 0.213 o
2 3 1 403.495 349.209 4.696 1.657 o
2 3 2 405.956 419.938 6.236 1.423 o
2 3 3 67.615 65.477 1.220 19.223 o
2 3 4 62.902 64.525 1.259 20.296 o
2 3 5 1.601 1.221 0.298 934.869 o
2 3 6 215.297 221.053 3.682 3.815 o
2 3 7 26.753 26.878 1.061 50.653 o
2 3 8 13.659 11.633 1.024 96.242 o
2 4 0 699.492 756.804 11.416 0.535 o
2 4 1 172.962 189.563 2.872 5.178 o
2 4 2 201.043 201.015 2.879 4.442 o
2 4 3 177.705 187.897 2.764 5.122 o
2 4 4 305.474 292.670 4.465 2.369 o
2 4 5 73.605 73.042 1.537 16.692 o
2 4 6 34.870 36.652 1.237 37.158 o
2 4 7 0.401 0.004 0.581 1026.830 o
2 5 0 113.719 112.800 1.820 9.828 o
2 5 1 285.889 283.532 4.214 2.586 o
2 5 2 594.248 563.044 8.049 0.803 o
2 5 3 426.198 431.386 5.916 1.359 o
2 5 4 16.553 16.549 0.770 86.410 o
2 5 5 1.384 1.337 0.521 689.516 o
2 5 6 0.305 -0.013 0.581 1068.190 o
2 6 0 321.973 319.245 4.719 2.144 o
2 6 1 66.676 69.292 1.314 18.809 o
2 6 2 0.934 1.208 0.314 1201.990 o
2 6 3 43.882 43.908 1.149 30.549 o
2 6 4 2.461 2.673 0.542 458.023 o
2 6 5 59.406 59.885 1.685 20.400 o
2 6 6 85.646 82.323 4.146 9.425 o
2 7 0 152.579 156.853 2.759 6.269 o
2 7 1 32.021 28.282 1.045 44.525 o
2 7 2 4.523 3.636 0.534 316.092 o
2 7 3 33.301 40.030 1.460 35.183 o
2 7 4 91.010 101.225 2.483 11.237 o
2 8 0 59.380 57.254 1.616 20.955 o
2 8 1 19.832 20.679 1.292 60.529 o
2 8 2 42.981 42.250 1.713 27.966 o
2 8 3 10.660 10.211 0.928 119.266 o
2 9 0 63.943 61.101 1.776 18.981 o
2 9 1 30.473 33.007 1.430 39.752 o
3 -10 0 16.120 17.924 1.039 77.736 o
3 -10 1 155.085 154.293 3.384 5.888 o
3 -10 2 168.268 166.859 3.655 5.231 o
3 -10 3 76.803 77.440 2.202 14.450 o
3 -10 4 16.219 15.867 1.148 76.701 o
3 -10 5 56.312 53.482 2.160 20.016 o
3 -9 0 125.615 127.393 2.578 8.067 o
3 -9 1 24.437 26.816 1.232 50.989 o
3 -9 2 13.869 15.040 1.037 88.765 o
3 -9 3 164.816 163.629 3.925 5.216 o
3 -9 4 111.994 110.011 2.596 9.275 o
3 -9 5 279.696 288.958 6.381 2.283 o
3 -9 6 148.051 143.007 3.322 6.315 o
3 -8 0 45.505 47.577 1.224 28.615 o
3 -8 1 59.506 61.488 1.514 20.746 o
3 -8 2 176.656 177.831 4.236 4.659 o
3 -8 3 84.961 87.951 2.833 11.728 o
3 -8 4 207.405 203.170 5.196 3.601 o
3 -8 5 49.531 46.419 2.637 20.013 o
3 -8 6 64.077 66.446 2.082 17.498 o
3 -8 7 19.720 16.401 2.911 31.235 o
3 -7 0 290.438 297.266 4.448 2.465 o
3 -7 1 307.892 310.688 4.630 2.271 o
3 -7 2 609.120 612.801 8.185 0.748 o
3 -7 3 95.295 93.677 1.844 12.101 o
3 -7 4 17.801 18.193 0.753 80.575 o
3 -7 5 26.485 27.069 1.117 50.099 o
3 -7 6 269.398 274.435 4.824 2.668 o
3 -7 7 248.714 248.478 4.781 2.984 o
3 -7 8 31.526 30.918 1.483 39.163 o
3 -6 0 183.043 175.037 2.658 5.186 o
3 -6 1 115.387 117.979 1.674 9.654 o
3 -6 2 110.698 105.033 1.656 10.476 o
3 -6 3 110.769 116.072 2.338 9.432 o
3 -6 4 36.879 36.625 0.860 38.504 o
3 -6 5 49.725 50.718 1.275 26.110 o
3 -6 6 101.887 97.361 2.142 10.968 o
3 -6 7 1.429 1.106 0.504 724.381 o
3 -6 8 51.766 53.035 1.736 23.054 o
3 -5 0 368.817 408.809 5.425 1.629 o
3 -5 1 280.189 272.503 3.945 2.719 o
3 -5 2 225.237 234.270 3.816 3.549 o
3 -5 3 1989.790 1920.040 28.649 0.086 o
3 -5 4 888.804 889.961 11.013 0.392 o
3 -5 5 7.444 6.785 0.448 210.021 o
3 -5 6 40.774 38.789 1.311 32.446 o
3 -5 7 226.761 225.641 4.517 3.413 o
3 -5 8 368.819 374.586 6.901 1.581 o
3 -5 9 44.998 40.998 1.667 27.710 o
3 -4 0 879.004 868.619 13.812 0.376 o
3 -4 1 558.707 549.712 8.344 0.854 o
3 -4 2 459.398 475.306 9.918 1.018 o
3 -4 3 58.461 54.346 1.091 23.276 o
3 -4 4 2.753 2.960 0.240 560.923 o
3 -4 5 54.809 58.247 1.294 23.151 o
3 -4 6 282.865 289.618 5.055 2.465 o
3 -4 7 287.737 282.049 5.856 2.336 o
3 -4 8 4.466 2.307 0.519 352.124 o
3 -4 9 0.828 0.561 1.181 262.626 o
3 -3 0 1373.970 1341.100 19.890 0.171 o
3 -3 1 12.639 19.809 0.618 99.207 o
3 -3 2 161.640 182.053 3.229 5.408 o
3 -3 3 20.181 19.626 0.482 77.142 o
3 -3 4 748.808 719.324 10.889 0.521 o
3 -3 5 501.470 485.402 7.597 1.032 o
3 -3 6 30.904 25.576 0.860 48.924 o
3 -3 7 6.126 3.789 0.546 258.836 o
3 -3 8 36.639 36.257 1.357 35.174 o
3 -3 9 151.839 157.637 3.487 5.874 o
3 -2 0 897.876 925.643 13.823 0.357 o
3 -2 1 163.195 173.146 2.802 5.677 o
3 -2 2 4.328 2.344 0.164 453.115 o
3 -2 3 227.468 221.666 3.086 3.770 o
3 -2 4 344.858 332.993 4.876 1.959 o
3 -2 5 72.050 67.960 1.558 17.354 o
3 -2 6 19.612 15.617 0.758 79.002 o
3 -2 7 268.065 241.138 5.144 2.766 o
3 -2 8 344.974 324.205 5.427 1.929 o
3 -2 9 9.423 10.484 0.790 135.996 o
3 -1 0 563.465 561.787 7.325 0.867 o
3 -1 1 1885.250 1883.010 40.155 0.078 o
3 -1 2 531.297 584.165 8.223 0.873 o
3 -1 3 49.252 52.813 1.696 24.015 o
3 -1 4 12.689 12.703 0.686 113.532 o
3 -1 5 331.539 348.343 10.436 1.411 o
3 -1 6 215.221 247.853 4.880 3.325 o
3 -1 7 75.250 81.253 1.914 15.027 o
3 -1 8 1.556 0.337 0.488 805.171 o
3 -1 9 0.337 -0.266 0.553 1150.210 o
3 0 0 362.134 373.724 6.364 1.654 o
3 0 1 291.448 293.149 4.267 2.496 o
3 0 2 191.639 211.411 3.542 4.323 o
3 0 3 124.824 133.086 2.136 8.300 o
3 0 4 404.455 400.434 5.839 1.485 o
3 0 5 556.899 544.898 7.859 0.875 o
3 0 6 1.981 2.406 0.396 620.344 o
3 0 7 0.788 1.166 0.529 829.402 o
3 0 8 7.056 6.962 0.650 193.117 o
3 1 0 16.592 16.375 0.513 92.986 o
3 1 1 350.282 375.836 7.291 1.614 o
3 1 2 799.683 797.523 12.063 0.450 o
3 1 3 1062.560 1048.800 17.904 0.259 o
3 1 4 389.093 384.715 7.223 1.468 o
3 1 5 32.322 33.347 0.877 43.420 o
3 1 6 97.049 96.912 2.115 11.431 o
3 1 7 218.716 240.747 4.715 3.368 o
3 1 8 219.082 239.281 4.372 3.461 o
3 2 0 67.523 57.087 1.021 20.632 o
3 2 1 914.479 867.874 12.106 0.376 o
3 2 2 272.662 277.163 4.435 2.692 o
3 2 3 604.865 604.325 9.308 0.732 o
3 2 4 12.569 10.206 0.545 128.036 o
3 2 5 356.274 350.229 5.734 1.783 o
3 2 6 236.751 238.490 3.929 3.351 o
3 2 7 0.365 0.694 0.541 1017.890 o
3 2 8 1.940 1.437 0.796 390.370 o
3 3 0 59.761 58.896 1.043 22.371 o
3 3 1 6.803 6.011 0.394 236.081 o
3 3 2 191.737 195.127 2.840 4.700 o
3 3 3 418.518 424.864 6.702 1.348 o
3 3 4 156.768 159.273 3.236 5.849 o
3 3 5 70.937 72.993 1.767 16.627 o
3 3 6 2.441 3.098 0.617 405.036 o
3 3 7 4.265 5.142 0.710 257.065 o
3 4 0 18.497 21.076 0.606 77.732 o
3 4 1 446.246 429.601 6.551 1.271 o
3 4 2 634.724 641.384 8.999 0.685 o
3 4 3 306.055 307.644 4.371 2.323 o
3 4 4 0.471 -0.185 0.466 1414.700 o
3 4 5 4.744 4.691 0.746 242.698 o
3 4 6 37.444 36.822 1.595 32.603 o
3 5 0 236.186 259.261 3.905 3.239 o
3 5 1 257.748 256.152 4.205 2.967 o
3 5 2 157.074 147.474 2.453 6.432 o
3 5 3 32.422 30.322 0.939 44.190 o
3 5 4 97.761 105.241 1.961 11.204 o
3 5 5 79.008 79.760 1.841 14.764 o
3 6 0 102.641 103.988 1.801 11.025 o
3 6 1 52.611 43.651 1.155 26.843 o
3 6 2 28.795 32.645 1.069 45.274 o
3 6 3 113.439 107.926 2.081 9.778 o
3 6 4 43.496 46.632 1.500 28.181 o
3 7 0 91.236 88.598 1.901 12.686 o
3 7 1 176.925 179.340 3.310 5.034 o
3 7 2 107.245 107.046 2.813 9.411 o
3 7 3 52.010 50.944 2.171 21.249 o
3 8 0 156.792 149.350 3.502 5.842 o
3 8 1 45.113 49.047 1.605 26.496 o
3 8 2 0.314 -0.115 0.625 937.454 o
3 9 0 23.422 19.654 1.236 56.970 o
4 -10 0 30.805 29.939 1.655 38.067 o
4 -10 1 129.018 128.916 3.029 7.505 o
4 -10 2 48.840 47.600 1.757 24.663 o
4 -10 3 3.822 4.214 0.739 275.289 o
4 -10 4 70.702 73.036 2.553 14.655 o
4 -9 0 0.763 1.337 0.499 866.305 o
4 -9 1 24.903 20.728 1.015 57.940 o
4 -9 2 67.586 70.904 2.052 16.616 o
4 -9 3 202.367 204.034 4.178 3.999 o
4 -9 4 107.482 112.315 3.136 8.855 o
4 -9 5 42.186 46.276 1.788 27.020 o
4 -8 0 30.581 32.716 1.300 41.188 o
4 -8 1 240.208 253.380 4.598 3.085 o
4 -8 2 282.008 293.464 5.426 2.402 o
4 -8 3 35.944 36.969 1.417 34.881 o
4 -8 4 21.528 23.220 1.165 58.512 o
4 -8 5 90.075 86.392 2.334 12.226 o
4 -8 6 277.529 283.410 6.083 2.364 o
4 -7 0 114.161 120.419 1.858 9.510 o
4 -7 1 14.742 14.873 0.525 103.460 o
4 -7 2 8.408 7.957 0.401 188.781 o
4 -7 3 2.523 2.794 0.304 573.450 o
4 -7 4 290.029 303.860 5.604 2.286 o
4 -7 5 201.257 196.409 3.633 4.256 o
4 -7 6 14.629 15.463 1.038 85.576 o
4 -7 7 5.130 4.151 0.702 249.287 o
4 -6 0 11.256 9.007 0.370 150.917 o
4 -6 1 69.113 75.178 1.331 17.719 o
4 -6 2 850.631 877.925 12.430 0.400 o
4 -6 3 685.547 696.776 9.295 0.604 o
4 -6 4 6.701 5.803 0.354 244.987 o
4 -6 5 3.564 5.697 0.509 319.553 o
4 -6 6 6.908 7.369 0.696 186.874 o
4 -6 7 61.086 61.972 1.894 19.097 o
4 -5 0 602.506 628.020 8.839 0.732 o
4 -5 1 796.227 806.884 12.192 0.448 o
4 -5 2 212.099 216.107 3.539 3.939 o
4 -5 3 285.769 298.048 4.218 2.528 o
4 -5 4 125.555 128.133 2.024 8.473 o
4 -5 5 215.411 218.246 3.645 3.844 o
4 -5 6 199.271 197.987 3.939 4.177 o
4 -5 7 136.889 148.693 3.254 6.642 o
4 -5 8 14.308 15.060 1.242 79.436 o
4 -4 0 950.896 940.798 14.132 0.332 o
4 -4 1 9.191 9.161 0.395 170.907 o
4 -4 2 78.885 75.611 1.431 15.841 o
4 -4 3 97.303 102.476 1.734 11.631 o
4 -4 4 559.883 572.365 7.685 0.854 o
4 -4 5 99.582 102.759 2.043 11.057 o
4 -4 6 33.891 35.603 1.268 37.931 o
4 -4 7 35.183 37.185 1.351 35.834 o
4 -4 8 8.020 7.119 1.274 117.489 o
4 -3 0 66.138 59.316 1.162 20.382 o
4 -3 1 12.302 10.893 0.418 132.509 o
4 -3 2 836.566 799.491 11.857 0.432 o
4 -3 3 222.810 224.036 3.042 3.832 o
4 -3 4 33.820 32.853 0.825 42.695 o
4 -3 5 11.587 6.440 0.459 156.000 o
4 -3 6 80.242 75.384 1.938 14.700 o
4 -3 7 115.401 112.586 2.612 8.979 o
4 -3 8 141.687 141.953 4.224 5.908 o
4 -2 0 2342.560 2344.380 30.089 0.064 o
4 -2 1 2055.740 2000.860 24.251 0.085 o
4 -2 2 27.127 27.358 0.599 55.028 o
4 -2 3 24.268 22.045 0.612 63.767 o
4 -2 4 34.276 27.151 0.936 43.972 o
4 -2 5 69.024 77.615 1.624 16.892 o
4 -2 6 243.393 233.470 4.085 3.268 o
4 -2 7 135.637 125.423 2.595 7.629 o
4 -2 8 27.673 31.832 1.348 43.476 o
4 -1 0 53.232 51.174 0.812 26.346 o
4 -1 1 26.689 30.114 0.705 52.783 o
4 -1 2 6.582 7.006 0.395 229.904 o
4 -1 3 294.430 290.121 4.332 2.477 o
4 -1 4 211.872 207.041 3.242 4.095 o
4 -1 5 31.394 31.078 0.887 45.272 o
4 -1 6 0.948 0.604 0.803 489.196 o
4 -1 7 0.778 0.127 0.487 1114.660 o
4 -1 8 31.119 31.850 1.319 40.895 o
4 0 0 107.055 105.596 1.699 10.701 o
4 0 1 333.668 327.819 5.427 1.979 o
4 0 2 1096.940 1114.750 16.807 0.250 o
4 0 3 399.597 392.641 5.861 1.514 o
4 0 4 22.970 21.788 0.675 65.647 o
4 0 5 10.051 10.629 0.634 140.746 o
4 0 6 45.510 48.376 1.450 27.305 o
4 0 7 209.194 212.760 3.908 3.908 o
4 1 0 1217.690 1173.780 16.272 0.221 o
4 1 1 6.374 7.208 0.378 233.928 o
4 1 2 27.150 25.934 0.714 54.894 o
4 1 3 122.203 118.049 2.155 8.844 o
4 1 4 231.441 217.898 3.698 3.603 o
4 1 5 127.663 122.521 2.405 8.225 o
4 1 6 118.869 116.582 2.587 8.693 o
4 1 7 106.002 108.066 2.600 9.713 o
4 2 0 42.990 36.918 0.765 34.821 o
4 2 1 7.274 7.932 0.413 206.031 o
4 2 2 49.964 50.577 1.052 26.930 o
4 2 3 1.540 1.032 0.338 934.588 o
4 2 4 258.404 258.700 5.025 2.796 o
4 2 5 44.812 48.341 1.343 28.149 o
4 2 6 11.090 9.669 0.842 123.736 o
4 3 0 95.301 94.105 1.595 12.390 o
4 3 1 244.707 244.844 3.747 3.255 o
4 3 2 230.877 234.692 3.643 3.510 o
4 3 3 74.617 73.177 1.593 16.399 o
4 3 4 33.138 32.736 1.098 41.091 o
4 3 5 16.146 17.923 0.999 78.895 o
4 3 6 45.114 44.722 1.526 27.766 o
4 4 0 498.048 462.154 7.259 1.076 o
4 4 1 404.810 402.720 5.932 1.474 o
4 4 2 13.049 14.976 0.877 98.400 o
4 4 3 1.262 0.779 0.447 892.723 o
4 4 4 11.592 10.263 0.686 127.612 o
4 4 5 107.884 109.948 2.155 10.019 o
4 5 0 20.855 14.601 0.580 80.617 o
4 5 1 34.552 34.276 1.111 39.276 o
4 5 2 41.769 42.606 1.160 31.864 o
4 5 3 101.306 103.995 1.965 10.955 o
4 5 4 164.815 172.074 2.915 5.597 o
4 6 0 28.144 26.436 0.918 51.011 o
4 6 1 98.798 103.440 2.084 11.044 o
4 6 2 203.340 216.987 3.597 4.057 o
4 6 3 10.832 10.826 0.778 125.569 o
4 7 0 56.124 51.760 1.741 22.011 o
4 7 1 21.057 20.428 1.248 59.735 o
4 7 2 4.913 3.906 1.139 171.640 o
4 8 0 15.172 14.043 1.184 80.641 o
5 -10 0 2.526 2.904 0.962 264.240 o
5 -10 1 38.825 39.962 2.046 27.688 o
5 -9 0 103.226 105.829 2.575 10.005 o
5 -9 1 15.443 18.107 1.523 64.060 o
5 -9 2 34.673 36.744 1.584 34.236 o
5 -9 3 6.271 4.668 0.727 214.711 o
5 -9 4 54.571 55.881 3.017 16.554 o
5 -8 0 83.654 83.791 1.767 14.037 o
5 -8 1 12.904 12.768 1.540 73.995 o
5 -8 2 0.724 0.326 0.417 1311.590 o
5 -8 3 46.930 49.284 1.699 25.314 o
5 -8 4 150.500 157.108 3.519 5.902 o
5 -8 5 184.822 188.235 4.384 4.348 o
5 -7 0 2.676 3.631 0.279 517.501 o
5 -7 1 114.307 114.124 1.719 9.825 o
5 -7 2 10.566 10.360 0.808 127.076 o
5 -7 3 7.984 8.738 0.618 171.920 o
5 -7 4 36.804 36.873 1.191 36.176 o
5 -7 5 8.526 7.430 0.789 157.353 o
5 -7 6 8.760 8.277 0.827 147.676 o
5 -6 0 102.394 105.724 1.574 11.201 o
5 -6 1 620.411 636.979 9.815 0.685 o
5 -6 2 613.932 631.365 9.161 0.710 o
5 -6 3 4.505 4.685 0.437 318.761 o
5 -6 4 0.520 1.106 0.498 986.327 o
5 -6 5 223.647 231.766 3.800 3.591 o
5 -6 6 374.960 398.740 7.319 1.484 o
5 -5 0 109.633 111.549 1.869 10.119 o
5 -5 1 8.345 8.022 0.460 184.952 o
5 -5 2 58.925 56.218 1.241 22.429 o
5 -5 3 122.706 128.861 2.076 8.571 o
5 -5 4 299.224 304.000 4.436 2.377 o
5 -5 5 150.388 153.547 3.707 5.843 o
5 -5 6 1.179 1.022 0.597 660.570 o
5 -5 7 0.569 -0.106 0.654 797.575 o
5 -4 0 69.187 71.374 1.725 17.161 o
5 -4 1 120.415 116.697 2.088 9.045 o
5 -4 2 680.378 678.591 9.016 0.622 o
5 -4 3 462.055 460.531 5.952 1.217 o
5 -4 4 43.012 43.471 1.093 31.378 o
5 -4 5 3.325 2.219 0.539 412.465 o
5 -4 6 52.861 56.657 1.751 22.187 o
5 -4 7 161.527 171.312 3.698 5.319 o
5 -3 0 128.704 124.045 2.482 8.074 o
5 -3 1 245.008 241.362 3.235 3.367 o
5 -3 2 203.670 197.165 2.750 4.464 o
5 -3 3 3.336 1.966 0.303 526.782 o
5 -3 4 23.932 22.997 0.790 61.165 o
5 -3 5 302.071 289.276 4.964 2.342 o
5 -3 6 224.367 216.760 3.937 3.650 o
5 -3 7 0.745 0.426 0.587 831.527 o
5 -2 0 387.942 391.239 4.726 1.633 o
5 -2 1 10.504 12.953 0.479 135.875 o
5 -2 2 33.644 34.344 0.882 41.785 o
5 -2 3 437.752 437.511 6.416 1.291 o
5 -2 4 160.853 174.015 4.694 4.788 o
5 -2 5 28.928 34.483 1.346 41.307 o
5 -2 6 13.099 11.515 1.096 95.265 o
5 -2 7 1.423 1.405 0.590 601.431 o
5 -1 0 43.310 41.806 0.869 32.750 o
5 -1 1 294.292 290.949 4.324 2.476 o
5 -1 2 422.779 424.694 6.187 1.365 o
5 -1 3 239.271 237.060 3.684 3.380 o
5 -1 4 6.962 5.196 0.635 211.029 o
5 -1 5 2.203 1.910 0.529 526.241 o
5 -1 6 24.941 22.989 1.099 54.880 o
5 -1 7 66.300 66.260 3.141 13.933 o
5 0 0 1000.650 989.330 13.825 0.309 o
5 0 1 603.374 593.125 8.998 0.748 o
5 0 2 334.352 348.860 5.577 1.906 o
5 0 3 6.311 5.871 0.430 244.941 o
5 0 4 111.426 114.884 2.286 9.480 o
5 0 5 207.580 213.376 5.314 3.497 o
5 0 6 231.517 244.803 4.796 3.179 o
5 1 0 199.220 192.799 2.988 4.527 o
5 1 1 352.530 356.726 5.737 1.785 o
5 1 2 3.135 3.036 0.305 491.655 o
5 1 3 303.224 314.162 5.736 2.153 o
5 1 4 141.292 139.745 2.669 7.037 o
5 1 5 5.783 6.829 0.594 223.801 o
5 1 6 3.558 4.154 0.680 301.756 o
5 2 0 105.561 102.711 2.397 10.170 o
5 2 1 509.228 517.925 8.667 0.947 o
5 2 2 119.828 113.491 2.295 8.997 o
5 2 3 28.657 31.778 1.048 46.052 o
5 2 4 4.840 3.993 0.621 277.292 o
5 2 5 11.861 11.297 1.009 105.388 o
5 3 0 498.181 497.167 7.825 1.018 o
5 3 1 123.293 122.311 2.412 8.453 o
5 3 2 12.304 9.889 0.709 122.965 o
5 3 3 0.701 1.341 0.552 789.247 o
5 3 4 55.319 57.531 1.646 21.838 o
5 3 5 58.882 54.344 1.903 20.374 o
5 4 0 51.141 53.394 1.443 24.465 o
5 4 1 2.515 1.172 0.496 556.769 o
5 4 2 111.900 117.262 2.336 9.325 o
5 4 3 123.480 123.376 2.618 8.241 o
5 4 4 27.858 24.589 1.232 48.358 o
5 5 0 7.799 10.211 0.696 158.896 o
5 5 1 114.059 116.150 2.452 9.112 o
5 5 2 30.795 31.679 1.310 41.328 o
5 5 3 17.936 20.744 1.394 61.102 o
5 6 0 68.562 66.457 1.719 17.727 o
5 6 1 23.488 23.883 1.212 54.363 o
5 6 2 1.337 0.712 0.737 507.612 o
5 7 0 1.107 0.363 0.681 617.377 o
6 -9 0 97.502 100.688 2.372 10.887 o
6 -9 1 25.762 25.854 1.294 49.073 o
6 -9 2 12.212 13.062 1.282 86.805 o
6 -8 0 5.924 5.842 0.586 232.293 o
6 -8 1 1.203 1.070 0.521 752.811 o
6 -8 2 58.996 59.247 1.407 21.490 o
6 -8 3 77.709 77.457 2.229 14.276 o
6 -7 0 359.367 358.620 4.761 1.830 o
6 -7 1 244.781 251.986 3.680 3.225 o
6 -7 2 15.315 15.197 1.360 72.484 o
6 -7 3 2.526 1.708 0.703 398.816 o
6 -7 4 20.481 21.529 1.086 63.234 o
6 -6 0 33.727 34.492 0.872 41.732 o
6 -6 1 13.779 16.165 0.776 96.889 o
6 -6 2 80.434 78.259 1.621 15.082 o
6 -6 3 119.373 117.277 1.999 9.164 o
6 -6 4 162.011 155.910 2.867 5.933 o
6 -6 5 40.264 40.538 1.514 30.870 o
6 -5 0 14.067 14.433 0.552 106.880 o
6 -5 1 39.457 39.241 0.880 35.736 o
6 -5 2 240.060 226.621 3.353 3.503 o
6 -5 3 42.398 42.117 1.084 32.087 o
6 -5 4 17.634 18.896 1.133 70.283 o
6 -5 5 2.312 2.463 0.677 402.868 o
6 -4 0 161.038 160.875 2.288 6.149 o
6 -4 1 117.370 112.398 1.708 9.682 o
6 -4 2 1.895 1.394 0.302 817.772 o
6 -4 3 39.049 35.111 1.054 36.267 o
6 -4 4 126.382 121.509 2.133 8.529 o
6 -4 5 198.193 202.138 4.400 4.005 o
6 -3 0 0.896 1.168 0.287 1299.680 o
6 -3 1 15.016 11.759 0.482 110.919 o
6 -3 2 1.277 1.001 0.336 1042.010 o
6 -3 3 105.299 112.494 2.265 9.993 o
6 -3 4 177.507 180.048 3.058 5.112 o
6 -3 5 88.935 87.881 2.105 12.645 o
6 -3 6 14.068 -1.023 2.777 41.195 o
6 -2 0 39.206 38.939 0.905 35.852 o
6 -2 1 238.066 239.217 3.754 3.367 o
6 -2 2 274.237 267.504 4.452 2.717 o
6 -2 3 8.766 9.197 0.647 158.184 o
6 -2 4 0.322 0.275 0.425 1629.000 o
6 -2 5 0.607 0.225 0.797 551.238 o
6 -1 0 851.129 846.867 12.967 0.401 o
6 -1 1 359.525 363.434 6.588 1.666 o
6 -1 2 45.319 42.655 1.388 28.889 o
6 -1 3 1.238 1.262 0.421 869.852 o
6 -1 4 90.941 98.391 2.100 11.939 o
6 -1 5 217.216 234.796 7.537 2.660 o
6 0 0 74.624 75.760 1.598 16.180 o
6 0 1 113.924 115.880 2.283 9.293 o
6 0 2 358.240 363.545 6.002 1.722 o
6 0 3 181.045 187.142 3.465 4.795 o
6 0 4 55.243 54.743 1.875 21.308 o
6 0 5 41.114 44.225 1.778 27.890 o
6 1 0 8.715 8.905 0.598 164.120 o
6 1 1 38.717 39.818 1.260 33.634 o
6 1 2 185.691 186.306 4.036 4.488 o
6 1 3 30.510 35.114 1.285 40.448 o
6 1 4 12.569 10.573 0.778 115.788 o
6 2 0 236.156 242.986 4.605 3.183 o
6 2 1 41.929 40.103 1.482 30.408 o
6 2 2 15.088 16.062 0.971 85.580 o
6 2 3 26.569 27.272 1.172 49.143 o
6 2 4 48.226 48.031 2.045 23.259 o
6 3 0 25.755 26.027 1.139 51.279 o
6 3 1 5.947 5.244 0.599 236.295 o
6 3 2 22.918 21.133 1.024 60.609 o
6 3 3 76.943 74.338 2.004 15.078 o
6 4 0 91.640 90.769 2.148 12.163 o
6 4 1 76.747 84.489 2.007 14.422 o
6 4 2 109.456 115.014 2.546 9.331 o
6 5 0 162.273 163.811 3.175 5.660 o
6 5 1 5.039 4.207 0.675 256.729 o
7 -8 0 7.757 9.120 0.816 154.010 o
7 -8 1 0.797 0.902 0.514 892.418 o
7 -7 0 330.065 344.089 4.431 2.050 o
7 -7 1 15.638 16.381 0.946 84.224 o
7 -7 2 4.407 4.228 0.517 313.133 o
7 -6 0 40.123 43.096 1.006 33.486 o
7 -6 1 76.112 80.606 1.601 15.573 o
7 -6 2 82.641 88.262 1.616 14.130 o
7 -6 3 24.816 25.074 1.047 54.440 o
7 -5 0 207.490 220.654 3.323 4.034 o
7 -5 1 151.296 159.274 2.338 6.483 o
7 -5 2 7.132 7.788 0.578 193.655 o
7 -5 3 0.623 1.086 0.526 893.945 o
7 -5 4 34.078 -0.146 2.923 28.635 o
7 -4 0 16.134 14.281 0.651 95.282 o
7 -4 1 4.381 2.795 0.494 351.797 o
7 -4 2 10.519 9.127 0.668 140.947 o
7 -4 3 177.777 173.537 3.858 4.847 o
7 -4 4 104.077 98.394 2.512 10.289 o
7 -3 0 7.469 7.774 0.663 180.090 o
7 -3 1 154.942 152.671 2.742 6.269 o
7 -3 2 68.500 69.737 1.970 16.786 o
7 -3 3 4.494 3.823 0.578 302.326 o
7 -3 4 8.252 6.407 0.757 169.069 o
7 -2 0 134.292 135.273 2.590 7.474 o
7 -2 1 31.006 26.455 1.111 45.671 o
7 -2 2 2.367 1.223 0.556 526.301 o
7 -2 3 0.869 0.956 0.526 840.421 o
7 -2 4 65.838 68.824 2.436 15.941 o
7 -1 0 121.811 124.865 3.036 7.912 o
7 -1 1 15.756 14.981 0.850 89.240 o
7 -1 2 107.335 106.358 2.310 10.015 o
7 -1 3 199.263 197.488 4.739 3.907 o
7 0 0 9.207 7.873 0.614 163.173 o
7 0 1 216.183 217.174 3.911 3.770 o
7 0 2 82.591 79.013 1.920 14.196 o
7 0 3 2.403 1.895 0.588 468.558 o
7 1 0 108.489 105.473 2.233 10.050 o
7 1 1 21.472 22.860 1.060 60.915 o
7 1 2 0.363 0.986 0.524 1004.630 o
7 1 3 30.254 30.676 1.560 39.307 o
7 2 0 0.851 1.233 0.502 849.845 o
7 2 1 1.800 0.941 0.530 642.166 o
7 2 2 86.196 88.141 2.324 12.539 o
7 3 0 146.911 149.961 2.975 6.454 o
7 3 1 174.537 175.127 3.955 4.856 o
7 4 0 32.045 30.689 1.438 39.355 o
8 -6 0 99.153 103.847 2.199 10.856 o
8 -6 1 30.065 -0.438 2.777 32.144 o
8 -5 0 0.339 0.283 0.919 448.091 o
8 -5 1 32.276 33.228 1.514 37.491 o
8 -4 0 24.282 24.881 1.757 43.659 o
8 -4 1 35.058 38.809 1.391 35.074 o
8 -3 0 112.697 119.243 3.127 8.404 o
8 -3 1 1.348 1.374 0.856 390.699 o
8 -3 2 2.606 0.792 0.563 518.566 o
8 -2 0 14.149 13.393 1.258 81.520 o
8 -2 1 3.794 3.744 0.601 324.398 o
8 -2 2 55.201 54.554 1.789 21.693 o
8 -1 0 190.555 191.596 3.567 4.520 o
8 -1 1 94.742 98.045 2.299 11.326 o
8 0 0 42.101 44.549 1.435 29.607 o
8 0 1 5.565 4.970 0.650 239.258 o
8 1 0 1.047 0.906 0.558 751.023 o
;
_olex2_submission_special_instructions 'No special instructions were received'
loop_
_space_group_symop_id
_space_group_symop_operation_xyz
1 x,y,z
2 -x,-y,-z
loop_
_atom_site_label
_atom_site_type_symbol
_atom_site_fract_x
_atom_site_fract_y
_atom_site_fract_z
_atom_site_U_iso_or_equiv
_atom_site_adp_type
_atom_site_occupancy
_atom_site_site_symmetry_order
_atom_site_refinement_flags_posn
_atom_site_refinement_flags_adp
_atom_site_refinement_flags_occupancy
Cu1 Cu 0.5 0.0 0.5 0.02027(9) Uani 1.000000 2 S T P
Cl1 Cl 0.89476(6) 0.35271(5) 0.69364(5) 0.03589(11) Uani 1.000000 1 . . .
O1 O 0.25565(17) 0.06610(13) 0.21599(13) 0.0298(2) Uani 1.000000 1 . . .
O2 O 0.55376(18) 0.59967(13) 0.22365(14) 0.0312(2) Uani 1.000000 1 . . .
O3 O 0.69614(19) -0.08020(15) 0.41156(16) 0.0325(2) Uani 1.000000 1 . . .
H3a H 0.748(4) -0.017(3) 0.366(3) 0.0488(4) Uiso 1.000000 1 . . .
H3b H 0.660(4) -0.163(3) 0.363(3) 0.0488(4) Uiso 1.000000 1 . . .
N1 N 0.54956(18) 0.21271(14) 0.43602(14) 0.0217(2) Uani 1.000000 1 . . .
C1 C 0.3986(2) 0.19823(16) 0.28647(16) 0.0213(2) Uani 1.000000 1 . . .
N2 N 0.40699(18) 0.33136(14) 0.21513(14) 0.0221(2) Uani 1.000000 1 . . .
C3 C 0.5611(2) 0.48232(16) 0.29192(17) 0.0220(3) Uani 1.000000 1 . . .
C4 C 0.7200(2) 0.49110(17) 0.44724(17) 0.0230(3) Uani 1.000000 1 . . .
H4 H 0.826(3) 0.586(2) 0.499(2) 0.0276(3) Uiso 1.000000 1 . . .
C5 C 0.7054(2) 0.35475(17) 0.50877(16) 0.0212(2) Uani 1.000000 1 . . .
C6 C 0.2434(3) 0.3112(2) 0.05178(18) 0.0340(3) Uani 1.000000 1 . . .
O4 O 0.8890(2) 0.12151(18) 0.28492(18) 0.0407(3) Uani 1.000000 1 . . .
H4a H 0.813(4) 0.149(3) 0.189(3) 0.0611(4) Uiso 1.000000 1 . . .
H4b H 0.977(5) 0.095(3) 0.273(3) 0.0611(4) Uiso 1.000000 1 . . .
O5 O 0.6953(3) 0.2133(2) -0.00302(19) 0.0590(4) Uani 1.000000 1 . . .
H5a H 0.692(5) 0.133(4) -0.079(4) 0.0885(6) Uiso 1.000000 1 . . .
H5b H 0.638(5) 0.276(4) -0.052(4) 0.0885(6) Uiso 1.000000 1 . . .
H6a H 0.1985(16) 0.1914(3) -0.0085(6) 0.0510(5) Uiso 1.000000 1 GR . .
H6b H 0.1215(9) 0.3503(17) 0.06221(18) 0.0510(5) Uiso 1.000000 1 GR . .
H6c H 0.3012(7) 0.3785(14) -0.0071(7) 0.0510(5) Uiso 1.000000 1 GR . .
loop_
_atom_site_aniso_label
_atom_site_aniso_U_11
_atom_site_aniso_U_22
_atom_site_aniso_U_33
_atom_site_aniso_U_12
_atom_site_aniso_U_13
_atom_site_aniso_U_23
Cu1 0.02205(13) 0.01939(13) 0.02345(13) 0.00551(8) 0.01028(9) 0.01201(9)
Cl1 0.02811(18) 0.0485(2) 0.02810(19) 0.00649(15) 0.00407(14) 0.01941(16)
O1 0.0294(5) 0.0241(5) 0.0325(5) 0.0001(4) 0.0109(4) 0.0073(4)
O2 0.0386(6) 0.0256(5) 0.0353(6) 0.0086(4) 0.0155(5) 0.0188(4)
O3 0.0402(6) 0.0245(5) 0.0462(7) 0.0096(5) 0.0290(5) 0.0142(5)
N1 0.0235(5) 0.0209(5) 0.0253(5) 0.0062(4) 0.0112(4) 0.0125(4)
C1 0.0238(6) 0.0204(6) 0.0246(6) 0.0066(5) 0.0131(5) 0.0090(5)
N2 0.0248(5) 0.0228(5) 0.0206(5) 0.0062(4) 0.0091(4) 0.0096(4)
C3 0.0259(6) 0.0207(6) 0.0262(6) 0.0077(5) 0.0149(5) 0.0109(5)
C4 0.0228(6) 0.0213(6) 0.0265(6) 0.0031(5) 0.0115(5) 0.0080(5)
C5 0.0197(6) 0.0258(6) 0.0219(6) 0.0075(5) 0.0097(5) 0.0103(5)
C6 0.0346(8) 0.0394(8) 0.0236(7) 0.0057(6) 0.0048(6) 0.0139(6)
O4 0.0387(7) 0.0493(7) 0.0495(7) 0.0149(6) 0.0271(6) 0.0251(6)
O5 0.0789(11) 0.0632(10) 0.0386(7) 0.0390(9) 0.0179(7) 0.0159(7)
loop_
_atom_type_symbol
_atom_type_scat_dispersion_real
_atom_type_scat_dispersion_imag
_atom_type_scat_Cromer_Mann_a1
_atom_type_scat_Cromer_Mann_a2
_atom_type_scat_Cromer_Mann_a3
_atom_type_scat_Cromer_Mann_a4
_atom_type_scat_Cromer_Mann_b1
_atom_type_scat_Cromer_Mann_b2
_atom_type_scat_Cromer_Mann_b3
_atom_type_scat_Cromer_Mann_b4
_atom_type_scat_Cromer_Mann_c
_atom_type_scat_source
_atom_type_scat_dispersion_source
C 0.00347 0.00161 2.31000 1.02000 1.58860 0.86500 20.84390 10.20750 0.56870
51.65120 0.21560 'International Tables Volume C Table 6.1.1.4 (pp. 500-502)'
'Henke, Gullikson and Davis, At. Data and Nucl. Data Tables, 1993, 54, 2'
Cl 0.14873 0.16029 11.46040 7.19640 6.25560 1.64550 0.01040 1.16620 18.51940
47.77840 -9.55740 'International Tables Volume C Table 6.1.1.4 (pp. 500-502)'
'Henke, Gullikson and Davis, At. Data and Nucl. Data Tables, 1993, 54, 2'
Cu 0.34125 1.28947 13.33800 7.16760 5.61580 1.67350 3.58280 0.24700 11.39660
64.81260 1.19100 'International Tables Volume C Table 6.1.1.4 (pp. 500-502)'
'Henke, Gullikson and Davis, At. Data and Nucl. Data Tables, 1993, 54, 2'
H 0.00000 0.00000 0.49300 0.32291 0.14019 0.04081 10.51090 26.12570 3.14236
57.79970 0.00304 'International Tables Volume C Table 6.1.1.4 (pp. 500-502)'
'Henke, Gullikson and Davis, At. Data and Nucl. Data Tables, 1993, 54, 2'
N 0.00653 0.00323 12.21260 3.13220 2.01250 1.16630 0.00570 9.89330 28.99750
0.58260 -11.52900 'International Tables Volume C Table 6.1.1.4 (pp. 500-502)'
'Henke, Gullikson and Davis, At. Data and Nucl. Data Tables, 1993, 54, 2'
O 0.01158 0.00611 3.04850 2.28680 1.54630 0.86700 13.27710 5.70110 0.32390
32.90890 0.25080 'International Tables Volume C Table 6.1.1.4 (pp. 500-502)'
'Henke, Gullikson and Davis, At. Data and Nucl. Data Tables, 1993, 54, 2'
loop_
_diffrn_refln_index_h
_diffrn_refln_index_k
_diffrn_refln_index_l
_diffrn_refln_intensity_net
_diffrn_refln_intensity_u
-1 0 0 1842.52 75.09
1 0 0 2191.58 75.29
1 0 0 2274.57 75.19
1 0 0 1915.31 75.19
1 0 0 2113.99 75.19
-2 0 0 20.1 0.9
-2 0 0 19.3 0.9
-2 0 0 19.4 1
2 0 0 20.3 1
2 0 0 19.5 0.9
2 0 0 19.4 1
2 0 0 21.7 1
-3 0 0 240.88 9.5
-3 0 0 231.58 9.6
-3 0 0 256.07 9.4
-3 0 0 254.77 9.8
3 0 0 281.27 9.7
3 0 0 262.47 9.6
3 0 0 257.77 9.6
-4 0 0 74.29 3.1
-4 0 0 70.59 2.8
-4 0 0 69.39 3.3
-4 0 0 73.39 3.1
4 0 0 69.79 3.1
4 0 0 72.49 3.1
4 0 0 75.39 3.1
-5 0 0 641.24 25.3
-5 0 0 657.03 24.6
-5 0 0 705.23 24.9
-5 0 0 685.23 25.1
5 0 0 684.43 25.1
5 0 0 678.93 25.1
5 0 0 682.03 25.1
-6 0 0 52.89 2.4
-6 0 0 57.29 2.7
-6 0 0 47.9 2.9
6 0 0 50.39 2.7
6 0 0 51.69 2.7
6 0 0 49.2 2.6
-7 0 0 4.2 1.3
-7 0 0 5.2 0.7
-7 0 0 6.3 1.1
7 0 0 4.7 1.1
7 0 0 6.4 1.2
7 0 0 4.9 1.2
-8 0 0 28.4 2.8
-8 0 0 32.3 2.3
-8 0 0 29.3 2.1
8 0 0 32.3 2.5
8 0 0 30.8 2.4
8 0 0 29 2.5
8 -1 0 135.59 6.1
8 -1 0 132.29 6
8 -1 0 119.89 6
-8 1 0 129.39 5.5
-8 1 0 132.29 6.5
-8 1 0 136.19 5.9
7 -1 0 84.19 4.2
7 -1 0 84.29 4.2
-7 1 0 85.49 3.7
-7 1 0 88.19 4.7
6 -1 0 574.64 21.7
6 -1 0 597.24 21.8
6 -1 0 574.54 21.7
-6 1 0 596.84 21.5
-6 1 0 577.34 21.7
-6 1 0 552.64 22
5 -1 0 27.5 1.6
5 -1 0 27.6 1.6
5 -1 0 29.2 1.6
-5 1 0 29.8 1.5
-5 1 0 29.6 1.4
-5 1 0 27.1 1.6
-5 1 0 28.7 1.8
4 -1 0 35.3 1.5
4 -1 0 34.8 1.7
4 -1 0 36.8 1.8
4 -1 0 36 1.8
4 -1 0 35 1.7
-4 1 0 33.3 1.6
-4 1 0 34.8 1.5
-4 1 0 36.2 1.7
-4 1 0 32.8 1.8
3 -1 0 388.56 14.2
3 -1 0 395.36 14.2
3 -1 0 392.26 14.2
3 -1 0 374.76 14
3 -1 0 383.46 14.2
3 -1 0 367.56 14.2
-3 1 0 366.76 14.2
-3 1 0 403.26 14.2
2 -1 0 611.74 22.4
2 -1 0 612.74 22.5
2 -1 0 601.34 22.4
2 -1 0 627.54 22.5
2 -1 0 609.84 22.4
2 -1 0 620.44 22.4
1 -1 0 365.06 13.1
1 -1 0 348.87 13.1
1 -1 0 360.46 13
1 -1 0 353.66 13.1
1 -1 0 359.06 13.1
1 -1 0 364.96 13.1
-1 -1 0 40.1 1.6
-1 -1 0 45.7 1.6
-1 -1 0 39.9 1.7
1 1 0 42.7 1.6
1 1 0 39 1.7
1 1 0 40.9 1.6
-2 -1 0 742.03 26.1
-2 -1 0 702.43 26.3
-2 -1 0 641.64 26.1
-2 -1 0 709.43 26
2 1 0 744.73 26.2
2 1 0 746.93 26.2
2 1 0 737.93 26.2
-3 -1 0 12.4 0.6
-3 -1 0 9.9 0.9
-3 -1 0 10.4 0.8
-3 -1 0 10.7 0.7
3 1 0 11.6 0.8
3 1 0 10.7 0.8
-4 -1 0 808.02 29.7
-4 -1 0 785.42 29.1
-4 -1 0 775.02 29.5
-4 -1 0 813.72 29.4
4 1 0 822.02 29.5
4 1 0 781.82 29.5
4 1 0 832.42 29.5
-5 -1 0 129.19 5.3
-5 -1 0 119.19 4.9
-5 -1 0 139.09 5.5
-5 -1 0 139.19 5.8
5 1 0 131.69 5.5
5 1 0 133.79 5.5
5 1 0 133.09 5.5
-6 -1 0 6.4 1.2
-6 -1 0 6.1 0.7
6 1 0 5.6 1
6 1 0 5.9 1
6 1 0 6.4 0.9
-7 -1 0 68.49 4.1
-7 -1 0 69.89 3.3
-7 -1 0 75.89 3.7
7 1 0 67.29 3.9
7 1 0 73.29 3.7
7 1 0 76.99 3.9
-8 -1 0 0 0.7
-8 -1 0 0 1.3
-8 -1 0 1 0.9
8 1 0 1.2 1
8 1 0 0.5 1
8 1 0 1.1 1
8 -2 0 9.4 1.6
8 -2 0 8.4 1.3
8 -2 0 11.8 1.6
8 -2 0 -0.1 5.9
-8 2 0 9.6 1.7
-8 2 0 7.9 1.4
-8 2 0 9 1.3
7 -2 0 93.09 4.4
7 -2 0 88.79 4.5
7 -2 0 91.69 4.4
-7 2 0 88.39 4.8
-7 2 0 96.69 3.9
-7 2 0 93.99 4.2
6 -2 0 26.2 1.6
6 -2 0 28.2 1.7
6 -2 0 25.6 2
-6 2 0 25.5 1.9
-6 2 0 27.3 1.5
-6 2 0 25.9 1.6
-6 2 0 26.9 1.4
5 -2 0 267.57 10.3
5 -2 0 274.27 10.2
5 -2 0 263.87 10
5 -2 0 264.07 10.3
5 -2 0 280.27 10.3
5 -2 0 263.07 10.3
-5 2 0 247.78 9.9
-5 2 0 266.97 10.6
-5 2 0 278.07 10.2
-5 2 0 269.37 10.2
4 -2 0 1629.74 58.29
4 -2 0 1637.14 58.19
4 -2 0 1601.84 58.19
4 -2 0 1614.14 58.09
4 -2 0 1643.94 58.29
4 -2 0 1600.84 58.29
-4 2 0 1544.15 58.29
-4 2 0 1554.24 58.19
3 -2 0 643.44 23.1
3 -2 0 631.34 23.2
3 -2 0 640.24 23.2
3 -2 0 634.34 23.1
3 -2 0 620.04 23.2
3 -2 0 629.84 23.2
2 -2 0 469.15 16.7
2 -2 0 449.56 16.7
2 -2 0 449.06 16.7
2 -2 0 463.75 16.7
2 -2 0 457.55 16.7
2 -2 0 449.46 16.7
1 -2 0 28.1 1.2
1 -2 0 27.6 1.1
1 -2 0 26.8 1.2
1 -2 0 28.2 1.1
1 -2 0 27.1 1.1
1 -2 0 28.2 1.2
-1 2 0 28.8 1.1
0 -2 0 111.79 4.2
0 -2 0 114.19 4.2
0 -2 0 103.09 4.1
0 -2 0 108.19 4.2
0 2 0 116.19 4.2
0 2 0 115.79 4.2
0 2 0 113.59 4.6
-1 -2 0 797.42 29.2
-1 -2 0 805.32 29.3
-1 -2 0 820.12 29.3
-1 -2 0 833.72 29.3
1 2 0 746.43 29.7
1 2 0 810.72 29.3
1 2 0 827.12 29.2
1 2 0 806.12 29.3
-2 -2 0 0.5 0.2
-2 -2 0 1.1 0.3
-2 -2 0 0.3 0.2
-2 -2 0 0.5 0.2
2 2 0 0.3 0.2
2 2 0 0.4 0.2
2 2 0 -0.2 0.3
-3 -2 0 37.9 1.6
-3 -2 0 41.5 1.8
-3 -2 0 42.4 1.9
-3 -2 0 36.9 2
3 2 0 37.3 1.8
3 2 0 38.7 1.8
3 2 0 38.3 1.8
-4 -2 0 24 1.4
-4 -2 0 26.4 1.6
-4 -2 0 26 1.2
-4 -2 0 25.3 1.3
4 2 0 26.2 1.5
4 2 0 24.1 1.4
4 2 0 24.7 1.4
-5 -2 0 75.39 3.6
-5 -2 0 73.49 3.1
-5 -2 0 63.69 3.2
5 2 0 68.79 3.3
5 2 0 72.89 3.5
5 2 0 67.29 3.2
-6 -2 0 169.38 7.2
-6 -2 0 166.58 6.7
6 2 0 167.58 7.5
6 2 0 164.28 7
6 2 0 163.68 6.9
-7 -2 0 0.7 0.8
-7 -2 0 1.8 1.2
-7 -2 0 0.5 0.7
7 2 0 1.1 0.8
7 2 0 0.8 0.9
7 2 0 1.1 0.9
7 2 0 -1 2.7
8 -3 0 74.29 4.2
8 -3 0 86.19 4.4
8 -3 0 78.39 4.2
-8 3 0 80.69 4.5
-8 3 0 86.99 4.1
7 -3 0 6.1 1.2
7 -3 0 5.5 1.2
7 -3 0 1.9 3.4
7 -3 0 5.1 1
-7 3 0 4.3 0.7
-7 3 0 6.9 1.5
-7 3 0 5.9 0.9
6 -3 0 0.9 0.4
6 -3 0 1.2 0.4
6 -3 0 0.3 0.5
6 -3 0 -1.4 2.5
6 -3 0 1.1 0.5
6 -3 0 0.9 0.5
6 -3 0 1.4 0.5
6 -3 0 -0.8 0.8
-6 3 0 1.5 0.4
-6 3 0 0 0.4
-6 3 0 0.7 0.4
-6 3 0 1.2 0.6
5 -3 0 88.29 3.6
5 -3 0 87.39 3.7
5 -3 0 89.89 3.8
5 -3 0 84.69 3.6
5 -3 0 89.19 3.8
5 -3 0 89.99 3.7
-5 3 0 71.19 3.5
-5 3 0 81.29 4.1
-5 3 0 79.49 3.6
4 -3 0 39.4 2
4 -3 0 41.5 1.9
4 -3 0 43.4 2
4 -3 0 38.6 2
4 -3 0 39.2 1.9
4 -3 0 41 1.9
3 -3 0 972.8 33.3
3 -3 0 928.61 33.3
3 -3 0 921.31 33.3
3 -3 0 914.81 33.3
3 -3 0 923.91 33.3
3 -3 0 831.42 33.5
2 -3 0 91.19 3.5
2 -3 0 88.39 3.5
2 -3 0 90.19 3.6
2 -3 0 88.89 3.5
2 -3 0 90.89 3.5
2 -3 0 91.79 3.5
1 -3 0 89.29 3.4
1 -3 0 86.69 3.3
1 -3 0 87.59 3.4
1 -3 0 87.39 3.3
-1 3 0 85.69 3.4
-1 3 0 83.59 3.2
-1 3 0 82.69 3.3
0 -3 0 689.13 26.4
0 -3 0 732.93 26.5
0 -3 0 718.43 26.5
0 -3 0 725.43 26.5
0 -3 0 743.53 28.4
0 3 0 787.42 27.2
0 3 0 704.33 26.3
0 3 0 731.73 26.5
0 3 0 721.43 26.5
-1 -3 0 211.78 8
-1 -3 0 213.78 7.9
-1 -3 0 217.28 8
-1 -3 0 208.38 8
1 3 0 214.48 8.6
1 3 0 211.48 7.9
1 3 0 214.68 7.9
1 3 0 207.98 8
-2 -3 0 790.02 29.6
-2 -3 0 821.32 29.7
-2 -3 0 828.72 29.8
-2 -3 0 808.62 29.5
2 3 0 847.02 29.7
2 3 0 773.62 29.7
2 3 0 814.92 29.6
-3 -3 0 38.5 1.8
-3 -3 0 39.6 2.1
-3 -3 0 40.5 1.7
-3 -3 0 39.7 2
3 3 0 43.3 1.9
3 3 0 40.4 1.9
3 3 0 39.7 1.9
-4 -3 0 65.79 3
-4 -3 0 63.19 3.1
-4 -3 0 63.09 2.8
-4 -3 0 64.19 2.6
4 3 0 63.69 2.9
4 3 0 62.49 3
4 3 0 67.89 2.9
-5 -3 0 337.37 12.9
-5 -3 0 338.57 13.4
-5 -3 0 348.87 13.2
5 3 0 347.67 13
5 3 0 333.87 13.1
5 3 0 333.97 13.1
-6 -3 0 18.3 2.3
-6 -3 0 16.7 1.3
-6 -3 0 17.9 1.8
6 3 0 19.7 2
6 3 0 17.7 1.8
-7 -3 0 98.09 5.4
-7 -3 0 104.69 4.7
-7 -3 0 103.39 5
7 3 0 106.49 5.1
7 3 0 103.39 5
7 3 0 98.59 4.8
8 -4 0 14.8 2
8 -4 0 19.1 1.9
8 -4 0 13.4 2.1
-8 4 0 19.4 1.8
-8 4 0 15.3 2.1
7 -4 0 9.4 1.5
7 -4 0 7.9 1.1
7 -4 0 13 1.9
7 -4 0 10.3 1.3
7 -4 0 9.9 1.2
7 -4 0 9.4 1.7
-7 4 0 8.7 1.1
-7 4 0 10.6 1.1
-7 4 0 9.6 2.2
6 -4 0 110.09 4.8
6 -4 0 108.59 4.7
6 -4 0 110.39 4.6
6 -4 0 111.89 4.8
6 -4 0 113.89 4.7
6 -4 0 107.79 4.5
-6 4 0 108.19 4.9
-6 4 0 111.09 4.7
-6 4 0 108.59 4.6
5 -4 0 49.6 2.4
5 -4 0 43.9 2.3
5 -4 0 44.9 2.3
5 -4 0 47.2 2.2
5 -4 0 50.99 2.4
5 -4 0 46 2.2
-5 4 0 56.79 2.3
-5 4 0 49.6 2.5
4 -4 0 644.84 23.7
4 -4 0 644.34 23.6
4 -4 0 634.34 23.7
4 -4 0 640.24 23.7
4 -4 0 651.03 23.7
4 -4 0 647.04 23.7
3 -4 0 598.04 21.8
3 -4 0 562.34 21.9
3 -4 0 559.64 21.8
3 -4 0 602.84 21.8
3 -4 0 626.14 21.8
3 -4 0 610.34 21.7
2 -4 0 15.1 0.9
2 -4 0 15.3 0.8
2 -4 0 14.4 0.9
2 -4 0 14.9 0.8
2 -4 0 13.8 1.1
2 -4 0 16.5 0.8
-2 4 0 16.5 0.8
-2 4 0 14.6 0.9
1 -4 0 243.08 8.9
1 -4 0 234.18 8.8
1 -4 0 226.38 9.1
-1 4 0 248.78 8.9
-1 4 0 226.38 8.6
-1 4 0 237.28 8.8
0 -4 0 6.1 0.5
0 -4 0 2.4 2.6
0 -4 0 5.8 0.5
0 -4 0 5.3 0.4
0 4 0 5.1 1.2
0 4 0 4.7 0.3
0 4 0 5.2 0.6
0 4 0 5.3 0.5
-1 -4 0 1647.24 57.09
-1 -4 0 1672.13 57.09
-1 -4 0 1459.45 57.19
-1 -4 0 1601.64 57.19
1 4 0 1599.54 56.89
1 4 0 1591.74 56.99
1 4 0 1648.14 57.09
1 4 0 1362.76 57.79
-2 -4 0 488.55 19.2
-2 -4 0 536.95 19.2
-2 -4 0 507.75 19.1
2 4 0 524.05 19
2 4 0 521.15 19.2
2 4 0 525.45 19.1
-3 -4 0 13.3 1.1
-3 -4 0 13.6 1
-3 -4 0 14.5 1
3 4 0 16.1 1
3 4 0 14.5 1
3 4 0 14 1
-4 -4 0 329.87 12.4
-4 -4 0 326.87 12.1
-4 -4 0 297.37 12.2
4 4 0 321.07 12.2
4 4 0 302.57 12.1
4 4 0 317.17 12
-5 -4 0 39.4 2.5
-5 -4 0 36 2.5
-5 -4 0 36.1 2
5 4 0 34.9 2.2
5 4 0 36.6 2
-6 -4 0 63.29 3.4
-6 -4 0 64.19 4
-6 -4 0 63.99 3.3
6 4 0 60.89 3.5
6 4 0 59.79 4.3
6 4 0 59.69 3.4
-7 -4 0 21.9 1.8
-7 -4 0 20.5 2.2
-7 -4 0 18.7 2.6
7 4 0 16.5 2
7 4 0 25 2.4
7 4 0 22 2.5
8 -5 0 -1.3 1
8 -5 0 6.3 8.3
8 -5 0 0.4 1
8 -5 0 1.2 1.1
8 -5 0 2.8 1.6
-8 5 0 -1.2 0.9
-8 5 0 0.2 0.9
-8 5 0 -0.3 1.1
7 -5 0 148.29 6.6
7 -5 0 148.29 6.3
7 -5 0 150.68 6.2
7 -5 0 152.08 6.7
7 -5 0 150.08 6.4
7 -5 0 153.08 6.6
-7 5 0 151.78 6.2
-7 5 0 153.48 6.5
6 -5 0 9.9 1.2
6 -5 0 9.2 1
6 -5 0 11.2 1.1
6 -5 0 9.1 1
6 -5 0 9.7 1.1
6 -5 0 11.1 1.1
-6 5 0 9.4 1.1
-6 5 0 9.3 1
5 -5 0 79.69 3.5
5 -5 0 74.49 3.3
5 -5 0 77.09 3.4
5 -5 0 75.59 3.3
5 -5 0 75.59 3.3
5 -5 0 74.49 3.4
-5 5 0 77.49 3.5
4 -5 0 435.26 16
4 -5 0 436.06 16
4 -5 0 445.16 16
4 -5 0 418.96 16
4 -5 0 416.46 16.1
4 -5 0 417.76 16
-4 5 0 436.06 15.9
3 -5 0 285.77 10.5
3 -5 0 274.27 10.6
3 -5 0 280.67 10.4
3 -5 0 281.87 10.5
3 -5 0 281.37 10.6
3 -5 0 284.87 10.5
-3 5 0 271.67 10.5
-3 5 0 276.47 10.4
2 -5 0 1632.14 57.79
2 -5 0 1663.83 57.69
2 -5 0 1627.44 57.79
2 -5 0 1635.54 57.89
-2 5 0 1682.13 57.49
-2 5 0 1446.26 57.69
-2 5 0 1650.03 57.79
-2 5 0 1384.86 58.89
1 -5 0 103.49 4.1
1 -5 0 105.49 4.1
1 -5 0 110.49 4.1
-1 5 0 95.49 4.1
-1 5 0 91.99 4.8
-1 5 0 100.89 4
0 -5 0 114.79 4.5
0 -5 0 111.59 4.5
0 -5 0 107.99 4.5
0 -5 0 109.49 4.3
0 5 0 120.29 4.6
0 5 0 105.39 4.6
0 5 0 121.39 5.5
-1 -5 0 890.21 33.6
-1 -5 0 896.21 33.5
-1 -5 0 922.81 33.6
-1 -5 0 930.61 33.6
1 5 0 935.01 33.3
1 5 0 904.81 34.7
1 5 0 932.91 33.5
1 5 0 936.71 33.7
-2 -5 0 79.99 3.2
-2 -5 0 79.29 3.3
-2 -5 0 76.89 3.4
-2 -5 0 74.49 3.4
2 5 0 76.59 3.1
2 5 0 78.39 3.3
2 5 0 73.69 3.4
-3 -5 0 180.18 7.1
-3 -5 0 176.68 6.9
-3 -5 0 168.18 7.2
-3 -5 0 175.88 7.2
3 5 0 182.08 7.2
3 5 0 181.28 7
3 5 0 176.48 6.9
-4 -5 0 11.3 1.3
-4 -5 0 9.3 0.9
-4 -5 0 10 0.9
-4 -5 0 9.2 1.2
4 5 0 10.3 1.3
4 5 0 11 1
4 5 0 9 1
-5 -5 0 7.3 1.5
-5 -5 0 8 1.4
-5 -5 0 7.2 1.1
5 5 0 6.6 1.2
5 5 0 5.8 1.2
5 5 0 7 0.9
-6 -5 0 111.49 5.4
-6 -5 0 109.39 5
-6 -5 0 111.19 5.7
6 5 0 112.29 5.4
6 5 0 114.19 5.3
6 5 0 113.89 5.2
8 -6 0 72.89 3.9
8 -6 0 66.79 4.1
8 -6 0 73.39 3.9
8 -6 0 68.99 4
-8 6 0 69.89 4.2
-8 6 0 68.29 4
-8 6 0 75.29 3.8
7 -6 0 30.8 2.4
7 -6 0 31.9 2.1
7 -6 0 29.7 2.5
7 -6 0 28.4 2.1
7 -6 0 26 1.9
7 -6 0 31.5 2.5
-7 6 0 28.8 1.9
-7 6 0 31.6 2.5
-7 6 0 30.8 2.4
-7 6 0 27.4 1.9
6 -6 0 22.1 1.9
6 -6 0 26.1 1.8
6 -6 0 24.8 1.5
6 -6 0 24 1.7
6 -6 0 22 1.6
6 -6 0 23.7 1.8
-6 6 0 23.4 1.7
-6 6 0 22.1 1.6
5 -6 0 70.59 3.2
5 -6 0 72.39 3.2
5 -6 0 75.89 3.3
5 -6 0 71.39 3.3
5 -6 0 73.99 3.2
5 -6 0 73.59 3.3
-5 6 0 70.19 3.1
-5 6 0 73.49 3.2
-5 6 0 69.19 3.3
4 -6 0 6.3 0.8
4 -6 0 5.8 0.7
4 -6 0 6.9 0.8
4 -6 0 5.8 0.7
4 -6 0 4.4 0.6
4 -6 0 6.2 0.7
-4 6 0 7.3 0.8
-4 6 0 6.7 0.7
3 -6 0 121.29 4.8
3 -6 0 115.59 4.9
3 -6 0 120.49 4.8
3 -6 0 113.19 4.9
-3 6 0 120.99 4.6
-3 6 0 124.09 4.8
-3 6 0 121.49 4.9
2 -6 0 119.69 5
2 -6 0 126.49 4.8
2 -6 0 116.69 4.9
-2 6 0 121.09 6
-2 6 0 124.49 4.6
-2 6 0 117.19 4.9
-2 6 0 121.69 4.8
1 -6 0 100.19 4.3
1 -6 0 100.59 4.3
1 -6 0 103.99 4.2
-1 6 0 101.29 4.3
-1 6 0 107.69 5.4
-1 6 0 110.99 4.2
0 -6 0 329.17 12
0 -6 0 323.07 11.7
0 -6 0 316.17 12
0 -6 0 311.17 12
0 6 0 316.47 12.1
0 6 0 327.97 11.9
0 6 0 299.47 13.1
-1 -6 0 51.89 2.5
-1 -6 0 51.49 2.3
-1 -6 0 54.19 2.5
-1 -6 0 52.89 2.5
1 6 0 53.89 2.5
1 6 0 54.79 2.4
1 6 0 51.79 3.5
1 6 0 52.59 2.1
-2 -6 0 221.08 8.5
-2 -6 0 217.08 8.6
-2 -6 0 223.88 8.6
-2 -6 0 226.98 8.5
2 6 0 220.18 8.5
2 6 0 218.38 8.6
2 6 0 199.28 8.5
-3 -6 0 69.39 3.4
-3 -6 0 72.79 3.4
-3 -6 0 68.09 3.3
-3 -6 0 71.99 3.1
3 6 0 70.69 3.4
3 6 0 72.39 3.3
3 6 0 72.09 3
-4 -6 0 17.8 1.3
-4 -6 0 20.3 1.9
-4 -6 0 18.8 1.7
-4 -6 0 19.3 1.8
4 6 0 16.9 1.4
4 6 0 16.2 2
4 6 0 17.3 2
-5 -6 0 48.9 3.8
-5 -6 0 46.1 2.9
-5 -6 0 44.4 2.7
5 6 0 47.1 2.9
5 6 0 44.2 2.9
5 6 0 43.9 2.5
7 -7 0 225.08 9.6
7 -7 0 228.28 9.5
7 -7 0 237.38 9.8
7 -7 0 241.68 9.8
7 -7 0 235.38 9.6
7 -7 0 233.48 9.6
-7 7 0 250.67 9.4
-7 7 0 234.18 9.4
-7 7 0 235.78 9.7
-7 7 0 230.28 9.5
6 -7 0 241.18 9.6
6 -7 0 248.78 9.6
6 -7 0 264.47 10
6 -7 0 245.68 9.7
6 -7 0 250.97 9.6
6 -7 0 220.58 10.7
-6 7 0 233.18 9.6
-6 7 0 247.88 9.5
-6 7 0 247.98 9.8
5 -7 0 1.7 0.6
5 -7 0 2.4 0.6
5 -7 0 2.4 0.6
5 -7 0 2.4 0.7
5 -7 0 1.7 0.5
5 -7 0 3.5 0.6
-5 7 0 2.3 0.7
-5 7 0 3.5 0.6
-5 7 0 1.1 0.6
-5 7 0 2.3 0.6
4 -7 0 80.79 3.6
4 -7 0 83.39 3.8
4 -7 0 83.69 3.7
4 -7 0 86.09 3.6
-4 7 0 86.09 3.4
-4 7 0 75.79 3.6
-4 7 0 81.19 3.5
-4 7 0 80.89 3.6
3 -7 0 208.08 7.8
3 -7 0 207.68 8
3 -7 0 204.18 8.1
-3 7 0 208.68 7.6
-3 7 0 188.98 9.4
-3 7 0 200.78 7.8
-3 7 0 199.48 8
2 -7 0 247.08 9.9
2 -7 0 257.07 9.8
2 -7 0 255.17 9.6
-2 7 0 248.18 11.1
-2 7 0 257.47 9.8
-2 7 0 250.57 9.6
1 -7 0 22.5 1.4
1 -7 0 20.6 1.2
1 -7 0 24.9 1.3
-1 7 0 19.1 2.4
-1 7 0 21.9 1.3
-1 7 0 18.9 1.4
0 -7 0 128.69 5.4
0 -7 0 131.59 5.5
0 -7 0 135.79 5.4
0 7 0 127.59 5.5
0 7 0 132.19 6.8
0 7 0 136.29 5.3
-1 -7 0 38.8 2.1
-1 -7 0 36.6 2
-1 -7 0 38 2.5
-1 -7 0 36.8 1.8
1 7 0 33.5 3.1
1 7 0 41.3 2.1
1 7 0 37 1.9
-2 -7 0 106.19 4.7
-2 -7 0 107.09 4.5
-2 -7 0 107.69 4.5
-2 -7 0 104.39 4.6
2 7 0 107.49 4.5
2 7 0 111.39 5
-3 -7 0 60.09 2.9
-3 -7 0 58.59 3.2
-3 -7 0 64.89 3.9
-3 -7 0 59.49 3
3 7 0 64.89 3.4
3 7 0 57.59 3
-4 -7 0 33.6 2.5
-4 -7 0 33.7 2.3
-4 -7 0 33 2.5
4 7 0 40.5 2.7
4 7 0 36.3 2.5
-5 -7 0 -1.1 1.6
-5 -7 0 0.9 1
-5 -7 0 0.4 0.8
5 7 0 -0.3 1.1
5 7 0 0.8 1.1
7 -8 0 7.8 1.4
7 -8 0 5.8 1.5
7 -8 0 7.5 1.4
7 -8 0 7 1.3
7 -8 0 5 1.3
7 -8 0 -1.2 7.5
-7 8 0 6 1.2
-7 8 0 5.1 1.1
-7 8 0 6.1 1.2
6 -8 0 3.3 1.6
6 -8 0 2.4 1
6 -8 0 4.4 1.1
6 -8 0 3.8 0.9
6 -8 0 3.5 6.6
-6 8 0 1.4 2.1
-6 8 0 5.6 1.2
-6 8 0 2.9 1.1
-6 8 0 5.2 1
5 -8 0 60.09 3.3
5 -8 0 57.99 2.8
5 -8 0 57.49 3.3
5 -8 0 52.89 2.9
-5 8 0 61.69 3.4
-5 8 0 49.6 5
-5 8 0 57.19 2.8
4 -8 0 25.6 2.1
4 -8 0 22.6 1.5
4 -8 0 24.2 1.5
-4 8 0 23.6 3.5
-4 8 0 21.6 1.7
-4 8 0 17.7 1.5
3 -8 0 32.9 2.4
3 -8 0 34.9 1.9
3 -8 0 31.3 1.8
-3 8 0 31.3 1.9
-3 8 0 29.5 3.5
-3 8 0 33.1 1.8
2 -8 0 201.48 7.7
2 -8 0 204.98 7.9
2 -8 0 191.08 8
-2 8 0 188.98 9.5
-2 8 0 200.88 7.7
-2 8 0 196.68 7.9
1 -8 0 0.6 0.4
1 -8 0 1.2 0.5
1 -8 0 0.5 0.5
-1 8 0 -0.6 0.5
-1 8 0 1.4 0.6
-1 8 0 0.6 1.3
0 -8 0 43.8 2.5
0 -8 0 45.9 2.4
0 -8 0 43.7 2.6
0 8 0 49.3 4.1
0 8 0 48.6 2.6
0 8 0 44.5 2.2
-1 -8 0 55.29 3.1
-1 -8 0 59.09 2.9
-1 -8 0 57.59 2.9
1 8 0 56.69 3.2
1 8 0 55.99 2.7
-2 -8 0 39.6 2.3
-2 -8 0 41.9 2.7
-2 -8 0 37 2.7
2 8 0 41.3 2.6
2 8 0 36.4 2.2
-3 -8 0 102.29 4.6
-3 -8 0 96.89 4.7
3 8 0 102.89 4.9
3 8 0 106.79 5
-4 -8 0 9.6 1.7
-4 -8 0 7.4 1.4
4 8 0 9.5 1.6
4 8 0 12.2 1.9
6 -9 0 64.19 3.7
6 -9 0 67.59 3.9
6 -9 0 69.09 3.9
-6 9 0 69.39 3.8
-6 9 0 81.19 5.9
-6 9 0 68.09 3.6
5 -9 0 70.99 3.7
5 -9 0 73.49 3.9
-5 9 0 71.89 3.6
-5 9 0 71.79 3.7
-5 9 0 75.69 5.5
4 -9 0 1.1 1
4 -9 0 0.7 5.4
4 -9 0 1.1 0.8
4 -9 0 1.8 0.7
-4 9 0 0.5 0.7
-4 9 0 -0.2 1.7
-4 9 0 0.6 0.8
3 -9 0 89.99 3.9
3 -9 0 85.99 4.2
3 -9 0 82.39 4.2
-3 9 0 83.99 6
-3 9 0 87.09 4.7
-3 9 0 90.19 3.8
2 -9 0 100.99 4.7
2 -9 0 98.99 4.6
2 -9 0 100.59 4.3
-2 9 0 97.79 6.4
-2 9 0 95.59 4.2
-2 9 0 95.49 4.6
1 -9 0 217.88 9.2
1 -9 0 225.78 8.9
1 -9 0 224.08 9.1
-1 9 0 222.38 8.7
-1 9 0 220.98 9.1
-1 9 0 232.08 11.3
0 -9 0 66.09 3.5
0 -9 0 65.99 3.2
0 -9 0 63.79 3.4
0 9 0 56.69 5.3
0 9 0 61.19 2.9
0 9 0 63.49 3.4
-1 -9 0 15.2 1.8
-1 -9 0 14.1 1.5
-1 -9 0 14.5 1.9
1 9 0 12.2 3.6
1 9 0 12.8 1.7
1 9 0 11.2 1.5
-2 -9 0 42.4 2.6
-2 -9 0 39.5 2.7
-2 -9 0 41.5 2.7
2 9 0 41 2.8
2 9 0 44.4 2.8
-3 -9 0 12.1 1.9
-3 -9 0 14.9 1.8
-3 -9 0 11.1 1.8
3 9 0 14.9 2.1
3 9 0 13.7 1.9
5 -10 0 0.5 1.8
5 -10 0 2.3 1
-5 10 0 2.5 1
4 -10 0 19.1 1.9
4 -10 0 21.8 2.2
-4 10 0 19.7 3.8
-4 10 0 21 2.1
3 -10 0 11.5 1.7
3 -10 0 10.8 1.5
3 -10 0 12 1.6
-3 10 0 14.8 1.8
-3 10 0 13 3.2
-3 10 0 12 1.6
2 -10 0 38.3 2.7
2 -10 0 36.7 2.4
2 -10 0 36.4 2.5
-2 10 0 36.3 2.2
-2 10 0 42.1 4.5
-2 10 0 42.4 2.6
1 -10 0 126.59 6.2
1 -10 0 140.79 6.3
1 -10 0 141.09 6.2
-1 10 0 155.78 6.3
-1 10 0 143.59 8.6
-1 10 0 128.09 5.7
0 -10 0 49.4 2.9
0 -10 0 47.7 3.1
0 10 0 42.6 3.2
0 10 0 48.3 2.9
0 10 0 50.49 5.1
-1 -10 0 75.89 4
-1 -10 0 78.49 4.1
-1 -10 0 76.79 4.1
1 10 0 82.69 4.2
1 10 0 73.89 6.4
1 -11 1 14.4 2
2 -11 1 11.8 2
2 -11 1 11.2 1.8
2 -11 1 13.2 1.9
-2 -10 1 19.4 2.1
-2 -10 1 23.2 2.1
-2 -10 1 24.3 2.1
1 10 -1 16.3 2
-1 -10 1 14.4 1.8
-1 -10 1 15.8 1.9
0 10 -1 21.3 3.9
0 10 -1 21 2
0 -10 1 23.6 2.1
0 -10 1 22.9 2
0 -10 1 21.1 1.9
-1 10 -1 153.48 8.8
-1 10 -1 144.09 6.2
1 -10 1 138.29 6.3
1 -10 1 135.59 6.2
1 -10 1 140.69 6.4
-2 10 -1 28.5 4
-2 10 -1 27.7 2.2
2 -10 1 30.5 2.2
2 -10 1 29.4 2.6
2 -10 1 28.8 2.2
-3 10 -1 106.99 4.9
-3 10 -1 106.99 7.1
3 -10 1 106.09 4.8
3 -10 1 103.29 4.9
3 -10 1 105.09 5
-4 10 -1 87.89 4.3
-4 10 -1 87.79 6.5
4 -10 1 86.69 4.5
4 -10 1 89.09 4.3
4 -10 1 89.19 4.4
-5 10 -1 21.8 4.7
-5 10 -1 25.6 2.2
5 -10 1 29.7 2.2
5 -10 1 27.4 2.8
3 9 -1 121.59 5.6
3 9 -1 121.49 6.5
-3 -9 1 109.79 6
-3 -9 1 115.29 5.4
-3 -9 1 109.49 5.4
2 9 -1 75.19 3.8
2 9 -1 67.19 3.3
-2 -9 1 70.79 3.8
-2 -9 1 67.69 3.6
-2 -9 1 71.59 3.8
1 9 -1 4.5 0.9
1 9 -1 5.5 2.5
1 9 -1 4.4 1
-1 -9 1 7.5 1.2
-1 -9 1 4.4 1.2
-1 -9 1 4.9 1.1
0 9 -1 87.29 4.2
0 9 -1 82.49 3.7
0 9 -1 85.89 6.2
0 -9 1 86.79 4
0 -9 1 89.89 4.3
0 -9 1 83.19 4.1
-1 9 -1 37.7 4.3
-1 9 -1 39.9 2.7
-1 9 -1 38.7 2
1 -9 1 39.6 2.7
1 -9 1 38.6 2.2
1 -9 1 36.9 2.4
-2 9 -1 61.09 3.5
-2 9 -1 61.29 2.8
-2 9 -1 63.39 5.2
2 -9 1 60.69 3.4
2 -9 1 59.19 3
2 -9 1 60.59 3.3
-3 9 -1 23.2 3.4
-3 9 -1 16.9 1.5
-3 9 -1 19.6 2.2
3 -9 1 18.9 1.5
3 -9 1 15.8 1.8
3 -9 1 19 1.8
-4 9 -1 14.9 1.3
-4 9 -1 16.6 3.7
-4 9 -1 16 1.8
4 -9 1 14.4 1.8
4 -9 1 12.3 1.7
4 -9 1 12.1 1.5
-5 9 -1 12.2 1.5
-5 9 -1 10.7 1.7
5 -9 1 13.3 1.8
5 -9 1 12.1 1.6
5 -9 1 3.3 6.8
5 -9 1 14.2 1.7
-6 9 -1 13.7 2.1
-6 9 -1 19.8 2.2
6 -9 1 17.6 2.1
6 -9 1 19.7 2
6 -9 1 18.2 2.5
6 -9 1 15.4 2.2
4 8 -1 38 2.6
4 8 -1 39.9 2.9
-4 -8 1 41.3 2.5
-4 -8 1 37.8 3
3 8 -1 51.29 2.7
-3 -8 1 52.69 2.9
-3 -8 1 50.89 2.6
-3 -8 1 50.09 3
-3 -8 1 46.1 2.9
2 8 -1 7.7 1
2 8 -1 8.9 1.3
-2 -8 1 8.9 1.4
-2 -8 1 8.7 1.8
-2 -8 1 9.3 1.1
1 8 -1 151.18 7.1
1 8 -1 160.18 6.5
1 8 -1 180.48 9.5
-1 -8 1 170.78 6.8
-1 -8 1 161.08 7.3
-1 -8 1 164.98 6.8
0 8 -1 232.38 9
0 8 -1 216.88 8.6
0 8 -1 225.48 10.7
0 -8 1 226.28 9
0 -8 1 228.58 8.9
0 -8 1 220.88 8.9
-1 8 -1 417.76 15.3
-1 8 -1 412.56 17.4
-1 8 -1 408.36 15.6
1 -8 1 405.36 15.7
1 -8 1 413.36 15.8
1 -8 1 420.26 15.6
-2 8 -1 218.68 10
-2 8 -1 207.68 7.9
-2 8 -1 204.78 8.1
2 -8 1 202.68 8.2
2 -8 1 196.18 8.3
2 -8 1 203.68 8.1
-3 8 -1 41.5 2.2
-3 8 -1 39.6 2
-3 8 -1 37 3.4
3 -8 1 42.3 2.3
3 -8 1 45.1 2.2
3 -8 1 44.6 2.7
-4 8 -1 168.08 6.8
-4 8 -1 169.88 7
4 -8 1 177.68 7
4 -8 1 176.48 7.1
4 -8 1 174.78 7.3
-5 8 -1 9.9 1.3
-5 8 -1 11.4 3
5 -8 1 9.9 1.3
5 -8 1 9 2.2
5 -8 1 0.1 6.3
5 -8 1 5.5 1.4
5 -8 1 7.8 1.3
-6 8 -1 0.7 1
-6 8 -1 1.3 1.1
-6 8 -1 -0.9 2.1
6 -8 1 1.1 1
6 -8 1 0 0.9
6 -8 1 1.6 1.4
6 -8 1 0.5 1
6 -8 1 1 0.9
6 -8 1 -4.5 7.3
6 -8 1 1.5 1
-7 8 -1 0.1 1
-7 8 -1 0.4 1
-7 8 -1 2.5 1
-7 8 -1 -0.6 1.2
7 -8 1 0.7 2
7 -8 1 -1.3 1.3
7 -8 1 -0.5 1.1
7 -8 1 1.9 1.2
7 -8 1 0 1.2
7 -8 1 0.6 1.1
7 -8 1 3.1 1.4
5 7 -1 15.8 1.9
5 7 -1 11.6 1.9
-5 -7 1 13.4 2.5
-5 -7 1 10.9 1.5
-5 -7 1 13.5 1.8
4 7 -1 36.4 2.6
-4 -7 1 30.6 2.3
-4 -7 1 36.4 2.4
-4 -7 1 37.6 2.5
-4 -7 1 34.8 2.3
3 7 -1 35.3 2.6
3 7 -1 39.1 2
-3 -7 1 35.4 2.2
-3 -7 1 38.9 2
-3 -7 1 39.8 2.6
2 7 -1 161.88 6.5
2 7 -1 173.08 6.8
-2 -7 1 161.08 6.6
-2 -7 1 160.28 6.7
-2 -7 1 162.28 6.6
1 7 -1 147.69 6.1
1 7 -1 149.79 5.8
1 7 -1 150.68 7.5
-1 -7 1 145.19 6
-1 -7 1 148.09 6
-1 -7 1 146.79 6
-1 -7 1 145.99 5.8
0 7 -1 54.79 2.4
0 7 -1 56.29 3.8
0 7 -1 55.09 2.6
0 -7 1 52.99 2.4
0 -7 1 52.89 2.6
0 -7 1 46 2.4
0 -7 1 54.39 2.6
-1 7 -1 60.29 2.5
-1 7 -1 59.09 2.7
1 -7 1 52.39 2.7
1 -7 1 53.59 2.6
1 -7 1 56.99 2.7
-2 7 -1 6.8 1.6
-2 7 -1 5.9 0.8
2 -7 1 6.3 0.9
2 -7 1 7.2 0.8
2 -7 1 8.8 0.8
-3 7 -1 217.88 8
-3 7 -1 208.18 8.3
-3 7 -1 206.38 8.1
-3 7 -1 212.28 9.5
3 -7 1 213.18 8.3
3 -7 1 209.68 8.4
3 -7 1 219.48 8.3
-4 7 -1 7.4 1.1
-4 7 -1 11 0.9
-4 7 -1 8.6 1.2
-4 7 -1 8.6 2
4 -7 1 10.8 1
4 -7 1 10.3 1
4 -7 1 9.8 1.1
4 -7 1 10.7 1.2
4 -7 1 10.9 0.9
-5 7 -1 71.99 3.4
-5 7 -1 75.79 3.4
-5 7 -1 81.99 3.5
5 -7 1 78.79 3.7
5 -7 1 84.49 3.7
5 -7 1 76.99 3.5
5 -7 1 77.59 3.6
5 -7 1 79.29 3.6
5 -7 1 75.89 3.4
-6 7 -1 183.28 7
-6 7 -1 180.38 6.9
-6 7 -1 170.78 7.2
6 -7 1 164.58 7.1
6 -7 1 164.38 7.3
6 -7 1 163.08 7.3
6 -7 1 173.98 7.1
6 -7 1 174.68 7.1
-7 7 -1 12.6 2.2
-7 7 -1 9.2 1.4
-7 7 -1 10.7 1.5
-7 7 -1 10.4 1.6
7 -7 1 10.4 1.7
7 -7 1 12.9 2.2
7 -7 1 13.8 2.2
7 -7 1 2.1 7.7
7 -7 1 10.5 1.5
7 -7 1 11.4 1.6
7 -7 1 13.9 2.1
6 6 -1 -0.9 4
6 6 -1 2.6 1.1
6 6 -1 3 1.2
6 6 -1 2.8 1
-6 -6 1 1.7 1
-6 -6 1 2.6 0.9
-6 -6 1 3.3 1.5
5 6 -1 102.19 4.5
5 6 -1 105.19 5
5 6 -1 105.49 4.9
-5 -6 1 102.49 4.7
-5 -6 1 105.19 5
4 6 -1 4.4 1.1
4 6 -1 7.3 0.9
4 6 -1 4.8 0.7
-4 -6 1 5.6 1.2
-4 -6 1 5.2 0.8
-4 -6 1 6.2 1.1
-4 -6 1 5.6 0.9
3 6 -1 343.97 12.8
3 6 -1 339.47 13.3
3 6 -1 347.87 13.1
-3 -6 1 350.36 13.3
-3 -6 1 338.77 13.3
-3 -6 1 348.57 13
-3 -6 1 342.37 13.2
2 6 -1 174.68 6.5
2 6 -1 173.68 6.8
2 6 -1 180.68 7
-2 -6 1 173.88 6.9
-2 -6 1 166.38 6.8
-2 -6 1 175.98 6.9
-2 -6 1 171.58 6.9
1 6 -1 101.79 5.5
1 6 -1 98.69 4.3
1 6 -1 110.09 4.2
-1 -6 1 103.39 4.3
-1 -6 1 108.69 4.4
-1 -6 1 104.59 4.3
-1 -6 1 104.69 4.4
0 6 -1 521.95 21.5
0 6 -1 544.25 20.3
0 6 -1 611.84 20.3
0 -6 1 537.65 20.3
0 -6 1 537.15 20.3
0 -6 1 542.15 20.1
0 -6 1 535.65 20.3
-1 6 -1 5.4 0.7
-1 6 -1 7 1.4
-1 6 -1 5.8 0.7
1 -6 1 5.2 0.6
1 -6 1 5.3 0.6
1 -6 1 5.2 0.6
-2 6 -1 248.18 10.4
-2 6 -1 249.48 9.1
-2 6 -1 237.48 9.3
2 -6 1 247.88 9.3
2 -6 1 246.58 9.4
2 -6 1 238.68 9.4
-3 6 -1 78.89 3.4
-3 6 -1 82.89 3.3
-3 6 -1 76.29 4.6
-3 6 -1 81.39 3.2
3 -6 1 80.19 3.4
3 -6 1 79.59 3.4
3 -6 1 82.59 3.4
3 -6 1 80.99 3.5
3 -6 1 81.09 3.2
-4 6 -1 50.19 2.3
4 -6 1 50.29 2.4
4 -6 1 53.69 2.5
4 -6 1 50.99 2.3
4 -6 1 51.59 2.4
4 -6 1 52.79 2.5
4 -6 1 50.69 2.5
5 -6 1 435.16 16.5
5 -6 1 440.96 16.4
5 -6 1 424.06 16.4
5 -6 1 434.66 16.5
5 -6 1 440.96 16.5
5 -6 1 438.66 16.4
6 -6 1 10.9 1.3
6 -6 1 10.8 1.3
6 -6 1 10.5 1.3
6 -6 1 10.6 1.3
6 -6 1 11.3 1.3
6 -6 1 12.1 1.3
-7 6 -1 54.59 3.6
-7 6 -1 56.69 3.1
-7 6 -1 51.29 3.1
7 -6 1 55.09 3.4
7 -6 1 55.59 3.5
7 -6 1 54.79 3.1
7 -6 1 54.09 3.3
7 -6 1 58.09 3.3
7 -6 1 55.89 3.3
8 -6 1 -0.3 1.9
6 5 -1 93.29 4.5
6 5 -1 91.39 4.9
6 5 -1 84.99 4.6
-6 -5 1 93.59 4.3
-6 -5 1 98.69 5.1
-6 -5 1 95.79 4.7
5 5 -1 33.7 2.5
5 5 -1 32.7 2.1
5 5 -1 35 1.9
-5 -5 1 30.2 1.9
-5 -5 1 30.5 2.3
-5 -5 1 32.2 2.4
4 5 -1 2.8 0.5
4 5 -1 3.1 0.7
4 5 -1 3.3 0.5
-4 -5 1 2.2 0.5
-4 -5 1 3.8 0.9
-4 -5 1 2.4 0.5
-4 -5 1 3 0.6
3 5 -1 196.48 7.6
3 5 -1 193.28 7.7
3 5 -1 205.28 7.9
-3 -5 1 201.78 7.9
-3 -5 1 198.28 7.9
-3 -5 1 198.18 7.6
-3 -5 1 196.68 7.7
2 5 -1 195.38 7.4
2 5 -1 189.18 7.5
2 5 -1 199.08 7.2
-2 -5 1 191.88 7.4
-2 -5 1 186.98 7.5
-2 -5 1 193.38 7.4
-2 -5 1 185.68 7.5
1 5 -1 903.91 32.8
1 5 -1 901.71 32.6
1 5 -1 934.71 33.9
-1 -5 1 925.61 32.8
-1 -5 1 804.92 32.3
-1 -5 1 883.21 32.7
-1 -5 1 906.61 32.8
-1 -5 1 899.21 32.7
0 5 -1 3.2 0.5
0 5 -1 3.8 1
0 5 -1 2.7 0.4
0 -5 1 3 0.4
0 -5 1 3.2 0.5
0 -5 1 2.7 0.4
0 -5 1 2.4 0.5
-1 5 -1 108.79 5.7
-1 5 -1 129.79 4.7
-1 5 -1 126.89 4.9
1 -5 1 133.29 4.9
1 -5 1 133.99 4.9
1 -5 1 109.79 4.8
1 -5 1 128.09 5
-2 5 -1 674.43 26.2
-2 5 -1 711.43 26.1
-2 5 -1 805.32 27.5
-2 5 -1 725.23 26
2 -5 1 701.93 26.2
2 -5 1 713.33 26.3
2 -5 1 730.43 26.7
2 -5 1 687.03 26.2
2 -5 1 697.33 26
-3 5 -1 195.58 7
3 -5 1 187.08 7.1
3 -5 1 184.08 7.2
3 -5 1 179.48 7.2
3 -5 1 188.78 7.1
3 -5 1 176.08 7.2
3 -5 1 191.88 7.2
4 -5 1 563.14 20.4
4 -5 1 535.15 20.4
4 -5 1 546.25 20.4
4 -5 1 555.24 20.4
4 -5 1 546.65 20.5
4 -5 1 564.84 20.5
5 -5 1 4.8 0.7
5 -5 1 7 0.9
5 -5 1 5.5 0.8
5 -5 1 5.3 0.7
5 -5 1 3.1 3.2
5 -5 1 5.1 0.8
5 -5 1 5.6 0.8
-6 5 -1 26.7 1.6
-6 5 -1 22.6 1.5
6 -5 1 27.2 1.8
6 -5 1 29.2 1.7
6 -5 1 28.4 1.8
6 -5 1 26.7 1.7
6 -5 1 28.8 1.8
6 -5 1 25.3 1.8
-7 5 -1 105.39 5.1
-7 5 -1 107.19 4.7
-7 5 -1 109.59 5.5
-7 5 -1 115.79 4.8
7 -5 1 106.49 5.3
7 -5 1 108.39 5
7 -5 1 113.59 5.1
7 -5 1 101.39 4.7
7 -5 1 113.69 5.2
7 -5 1 107.19 5.4
-8 5 -1 21.7 1.9
-8 5 -1 23.9 2.5
-8 5 -1 23.5 1.9
8 -5 1 19.5 2.3
8 -5 1 26.6 2.4
8 -5 1 16.9 2.4
8 -5 1 24.6 2.4
7 4 -1 103.19 4.9
7 4 -1 103.59 5
7 4 -1 101.39 5.1
-7 -4 1 105.69 5.1
-7 -4 1 105.79 5.5
-7 -4 1 100.79 4.6
6 4 -1 27.8 1.9
6 4 -1 31.1 2.3
6 4 -1 27.3 2.2
-6 -4 1 25.2 1.7
-6 -4 1 29.6 2.8
-6 -4 1 25.4 2.1
5 4 -1 52.89 2.5
5 4 -1 52.59 2.6
5 4 -1 50.39 2.7
-5 -4 1 47.5 2.7
-5 -4 1 51.09 2.4
-5 -4 1 51.29 2.9
4 4 -1 84.79 3.8
4 4 -1 89.99 3.7
4 4 -1 90.19 3.9
-4 -4 1 86.09 3.7
-4 -4 1 88.39 3.5
-4 -4 1 88.69 3.9
-4 -4 1 92.99 4.1
3 4 -1 189.18 7.3
3 4 -1 178.58 7
3 4 -1 177.38 6.9
-3 -4 1 179.58 7.2
-3 -4 1 175.58 6.9
-3 -4 1 177.08 6.8
-3 -4 1 180.38 7.1
2 4 -1 763.12 33.8
2 4 -1 928.51 32.8
2 4 -1 922.01 33.1
-2 -4 1 946.01 33.2
-2 -4 1 925.41 33
-2 -4 1 894.51 32.9
-2 -4 1 943.11 33.1
1 4 -1 69.69 3.6
1 4 -1 67.99 2.7
1 4 -1 67.69 2.6
1 4 -1 68.79 2.9
-1 -4 1 70.59 2.9
-1 -4 1 72.99 2.9
-1 -4 1 67.09 2.8
-1 -4 1 67.19 2.9
0 4 -1 153.18 5.6
0 4 -1 145.59 5.7
0 -4 1 154.98 5.8
0 -4 1 147.99 5.7
0 -4 1 139.19 6.1
0 -4 1 154.58 5.8
-1 4 -1 929.51 33.8
-1 4 -1 960.8 34
-1 4 -1 951.7 33.9
1 -4 1 947.31 33.8
1 -4 1 927.21 34.4
1 -4 1 862.11 34.4
1 -4 1 961.9 34
-2 4 -1 380.36 14.3
-2 4 -1 418.16 14.3
2 -4 1 385.16 14.4
2 -4 1 377.16 14.3
2 -4 1 384.56 14.4
2 -4 1 388.26 14.3
2 -4 1 386.66 14.4
2 -4 1 390.66 14.4
3 -4 1 379.86 14
3 -4 1 381.36 14
3 -4 1 342.87 14
3 -4 1 378.26 13.9
3 -4 1 383.46 14
3 -4 1 387.26 14
4 -4 1 6 0.7
4 -4 1 6.7 0.6
4 -4 1 5.5 0.6
4 -4 1 6.3 0.7
4 -4 1 6.2 0.7
4 -4 1 6.8 0.7
5 -4 1 81.69 3.6
5 -4 1 78.29 3.5
5 -4 1 81.29 3.5
5 -4 1 78.79 3.5
5 -4 1 80.79 3.4
5 -4 1 78.09 3.5
-6 4 -1 76.19 3.5
-6 4 -1 70.19 3.3
-6 4 -1 82.19 3.5
6 -4 1 77.19 3.6
6 -4 1 78.49 3.6
6 -4 1 77.69 3.4
6 -4 1 76.89 3.6
6 -4 1 76.49 3.6
6 -4 1 76.59 3.5
-7 4 -1 1.6 1.3
-7 4 -1 3 0.9
-7 4 -1 2.3 0.6
7 -4 1 1.7 1
7 -4 1 2.5 1
7 -4 1 0.9 1.1
7 -4 1 1.4 1.1
7 -4 1 2.3 4.2
7 -4 1 0.4 1.5
-8 4 -1 27.7 2.2
-8 4 -1 26.7 3.2
-8 4 -1 24.7 1.9
8 -4 1 28.3 2.3
8 -4 1 25.5 2.5
8 -4 1 26.7 2.4
7 3 -1 4.2 1.1
7 3 -1 7.4 1.2
7 3 -1 5.4 1.1
7 3 -1 2.2 2.8
-7 -3 1 7.1 1.6
-7 -3 1 5.5 0.9
-7 -3 1 6.2 1.1
6 3 -1 246.48 9.7
6 3 -1 253.77 9.9
-6 -3 1 239.28 9.4
-6 -3 1 233.08 9.8
5 3 -1 270.67 10.8
5 3 -1 268.27 10.7
5 3 -1 270.97 10.7
-5 -3 1 281.97 10.9
-5 -3 1 287.97 10.6
-5 -3 1 286.97 11.2
4 3 -1 8.4 0.7
4 3 -1 7.2 0.8
4 3 -1 9.8 0.8
-4 -3 1 8.4 0.6
-4 -3 1 9.2 0.7
-4 -3 1 8.1 0.8
-4 -3 1 7.7 0.9
3 3 -1 595.34 22
3 3 -1 602.14 22
3 3 -1 600.94 22.1
-3 -3 1 590.14 22
-3 -3 1 609.04 21.8
-3 -3 1 612.74 22.3
-3 -3 1 586.84 22.1
2 3 -1 218.98 9.2
2 3 -1 225.88 8.4
2 3 -1 234.08 8.4
2 3 -1 215.88 8.5
-2 -3 1 228.58 8.5
-2 -3 1 224.08 8.5
-2 -3 1 232.88 8.4
-2 -3 1 221.18 8.6
1 3 -1 1644.04 57.09
1 3 -1 1509.55 57.09
1 3 -1 1494.85 57.69
1 3 -1 1589.94 57.29
-1 -3 1 1602.44 57.09
-1 -3 1 1570.94 57.59
-1 -3 1 1612.14 57.19
-1 -3 1 1579.24 57.09
0 3 -1 545.75 19.9
0 3 -1 511.35 19.1
0 3 -1 526.45 19.2
0 -3 1 532.95 19.3
0 -3 1 515.25 19.2
0 -3 1 536.55 19.2
0 -3 1 516.95 19.2
-1 3 -1 4.8 0.8
-1 3 -1 3.9 0.4
-1 3 -1 4.6 0.4
1 -3 1 4.1 0.4
1 -3 1 4.9 0.4
1 -3 1 5.6 0.3
1 -3 1 4.9 0.4
1 -3 1 5.2 0.4
1 -3 1 5 0.4
2 -3 1 1209.18 42.9
2 -3 1 1170.48 42.9
2 -3 1 1201.08 43
2 -3 1 1183.68 42.9
2 -3 1 1219.68 43
2 -3 1 1117.49 43.1
3 -3 1 13.9 0.8
3 -3 1 14.1 0.8
3 -3 1 13.6 0.9
3 -3 1 12.2 0.9
4 -3 1 7.2 0.7
4 -3 1 7.7 0.7
4 -3 1 7.1 0.7
4 -3 1 6.9 0.7
4 -3 1 6.6 0.7
4 -3 1 8.8 0.7
-5 3 -1 154.28 6.3
-5 3 -1 160.58 6.5
-5 3 -1 154.08 6.6
5 -3 1 169.08 6.6
5 -3 1 175.68 6.7
5 -3 1 168.88 6.6
5 -3 1 162.88 6.7
5 -3 1 167.48 6.7
5 -3 1 172.18 6.7
-6 3 -1 8.6 1
-6 3 -1 8.7 0.9
-6 3 -1 7.5 0.9
-6 3 -1 8.3 1.1
6 -3 1 7.1 1.1
6 -3 1 8.5 0.9
6 -3 1 7.9 1
6 -3 1 8.6 1.1
6 -3 1 6.4 1
-7 3 -1 108.49 5.4
-7 3 -1 106.89 5.3
-7 3 -1 106.39 4.5
7 -3 1 103.29 4.9
7 -3 1 100.79 4.9
7 -3 1 101.09 4.9
7 -3 1 104.49 5
-8 3 -1 3.1 0.8
-8 3 -1 1.3 0.8
-8 3 -1 0.8 1.2
8 -3 1 -1.2 1
8 -3 1 2 1
8 -3 1 -2.1 1.5
8 -3 1 -0.2 1.6
8 2 -1 2.3 1.1
8 2 -1 3.3 1.1
8 2 -1 1 1.1
-8 -2 1 5.3 1.6
-8 -2 1 4.8 1
-8 -2 1 3.3 1
7 2 -1 24.9 2.2
7 2 -1 26.8 2.1
7 2 -1 28.2 2.1
-7 -2 1 27.5 2.6
-7 -2 1 26.2 2.1
-7 -2 1 30.1 1.6
6 2 -1 259.37 10.6
6 2 -1 259.17 10.5
6 2 -1 263.87 10.6
-6 -2 1 271.77 11
-6 -2 1 271.77 10.3
-6 -2 1 289.37 10.7
5 2 -1 5 0.8
5 2 -1 5.6 0.8
5 2 -1 6.7 0.8
-5 -2 1 5.8 0.6
-5 -2 1 4.5 0.7
-5 -2 1 6 0.9
4 2 -1 162.78 6.4
4 2 -1 161.88 6.5
4 2 -1 161.78 6.4
-4 -2 1 159.98 6.7
-4 -2 1 168.78 6.5
-4 -2 1 167.28 6.4
3 2 -1 681.43 24.9
3 2 -1 666.83 24.8
3 2 -1 669.43 24.8
-3 -2 1 661.43 24.9
-3 -2 1 644.14 24.5
-3 -2 1 688.83 24.7
-3 -2 1 732.83 25.1
2 2 -1 124.29 4.8
2 2 -1 116.69 5.3
2 2 -1 124.29 4.7
2 2 -1 122.79 4.7
-2 -2 1 121.59 4.9
-2 -2 1 127.19 4.7
-2 -2 1 122.29 4.6
-2 -2 1 129.09 4.8
1 2 -1 2482.45 94.29
1 2 -1 2496.35 93.89
1 2 -1 2596.14 93.89
1 2 -1 2577.94 95.39
-1 -2 1 2707.73 94.59
-1 -2 1 2560.04 94.19
-1 -2 1 2579.44 94.69
-1 -2 1 2727.93 94.19
0 2 -1 1.1 0.4
0 -2 1 1 0.5
0 -2 1 1.7 0.4
0 -2 1 1.1 0.4
0 -2 1 1.8 0.4
1 -2 1 621.04 22
1 -2 1 595.54 22
1 -2 1 578.74 21.9
1 -2 1 611.24 21.9
1 -2 1 614.94 22
1 -2 1 607.34 22
2 -2 1 125.29 4.8
2 -2 1 124.39 4.7
2 -2 1 122.49 4.7
2 -2 1 124.19 4.7
2 -2 1 118.29 4.7
2 -2 1 123.79 4.7
3 -2 1 115.49 4.8
3 -2 1 123.09 4.7
3 -2 1 121.79 4.6
3 -2 1 113.09 4.9
3 -2 1 117.29 4.6
3 -2 1 118.79 4.6
-4 2 -1 1424.86 49.9
-4 2 -1 1306.77 49.8
-4 2 -1 1292.57 49.6
4 -2 1 1318.87 49.8
4 -2 1 1379.56 49.9
4 -2 1 1400.46 49.8
4 -2 1 1388.16 49.8
4 -2 1 1418.36 49.8
4 -2 1 1377.76 49.6
-5 2 -1 10 0.9
-5 2 -1 9.5 0.8
-5 2 -1 7.9 0.8
5 -2 1 8.4 0.9
5 -2 1 9.1 0.9
5 -2 1 9.2 0.9
5 -2 1 7.4 0.9
-6 2 -1 166.08 6.6
-6 2 -1 172.28 6.8
-6 2 -1 162.78 7.1
6 -2 1 163.48 6.7
6 -2 1 158.48 6.8
6 -2 1 158.78 6.8
6 -2 1 162.78 6.8
-7 2 -1 17.1 1.8
-7 2 -1 17.9 2.1
-7 2 -1 15.2 1.3
7 -2 1 20.6 2
7 -2 1 19.4 2
7 -2 1 20.4 1.9
-8 2 -1 2.1 1.2
-8 2 -1 2 0.8
-8 2 -1 3.5 1
8 -2 1 3.1 1
8 -2 1 2.7 1.1
8 -2 1 1.8 1.1
8 1 -1 0.5 0.8
8 1 -1 -0.4 0.9
8 1 -1 2.6 5.8
8 1 -1 0 0.9
-8 -1 1 0.1 1.2
-8 -1 1 0.2 0.8
7 1 -1 216.48 9.3
7 1 -1 228.08 9.3
7 1 -1 219.68 9.2
-7 -1 1 246.88 9.8
-7 -1 1 219.48 8.7
-7 -1 1 224.88 9.2
6 1 -1 40.1 2.2
6 1 -1 40.6 2.2
6 1 -1 39.6 2.2
-6 -1 1 37.8 2.1
-6 -1 1 38.5 2.4
-6 -1 1 38.1 1.9
5 1 -1 467.15 17.7
5 1 -1 463.85 17.7
5 1 -1 461.55 17.7
-5 -1 1 458.35 18
-5 -1 1 475.55 17.4
-5 -1 1 503.75 17.7
4 1 -1 248.48 9.3
4 1 -1 236.18 9.2
4 1 -1 241.38 9.2
-4 -1 1 242.88 9.3
-4 -1 1 250.97 9.1
-4 -1 1 237.88 9.5
3 1 -1 4.7 0.5
3 1 -1 4.6 0.5
3 1 -1 4.6 0.5
-3 -1 1 4.5 0.6
-3 -1 1 4.8 0.5
2 1 -1 3235.58 114.49
2 1 -1 3028.9 114.39
2 1 -1 3223.18 114.59
-2 -1 1 3081.49 114.19
-2 -1 1 3202.88 115.29
-2 -1 1 3111.69 114.59
1 1 -1 3.1 0.5
1 1 -1 2.2 0.2
1 1 -1 2.2 0.3
1 1 -1 2.4 0.2
-1 -1 1 2.6 0.2
-1 -1 1 2 0.2
-1 -1 1 2.9 0.3
-1 -1 1 1.9 0.2
-1 -1 1 2.1 0.3
0 -1 1 55.79 2.3
0 -1 1 66.19 2.4
0 -1 1 61.19 2.3
1 -1 1 490.75 17.9
1 -1 1 492.85 17.9
1 -1 1 496.35 17.9
1 -1 1 508.85 17.9
1 -1 1 466.25 17.9
1 -1 1 500.25 17.9
-2 1 -1 19.2 1
-2 1 -1 17.7 0.9
2 -1 1 19.1 1
2 -1 1 19.7 1
2 -1 1 19.8 1
2 -1 1 18.5 0.9
-3 1 -1 1128.69 46.6
-3 1 -1 1413.56 46.7
-3 1 -1 1306.67 46.5
3 -1 1 1191.88 46.7
3 -1 1 1337.17 46.7
3 -1 1 1302.47 46.6
3 -1 1 1296.77 46.7
-4 1 -1 20.2 1.2
-4 1 -1 21.9 1.1
-4 1 -1 22.7 1.3
4 -1 1 20.5 1.2
4 -1 1 16.8 2.5
4 -1 1 20.2 1.2
4 -1 1 19.7 1.2
4 -1 1 19.4 1.2
-5 1 -1 182.28 7.8
-5 1 -1 198.78 7.8
-5 1 -1 211.38 7.6
5 -1 1 192.98 7.9
5 -1 1 198.88 7.9
5 -1 1 201.58 7.9
5 -1 1 204.38 7.9
-6 1 -1 229.68 9.6
-6 1 -1 260.87 9.9
-6 1 -1 242.58 10.2
6 -1 1 261.37 9.9
6 -1 1 252.77 9.8
6 -1 1 242.28 9.9
-7 1 -1 9.8 1.7
-7 1 -1 7.5 1
-7 1 -1 13.5 1.6
7 -1 1 11.4 1.7
7 -1 1 10.2 1.5
7 -1 1 10.4 1.5
-8 1 -1 64.29 4.2
-8 1 -1 70.79 3.7
-8 1 -1 66.39 3.4
8 -1 1 63.19 4.5
8 -1 1 69.59 3.8
8 -1 1 65.99 3.8
8 0 -1 5.5 1.1
8 0 -1 9.7 1.6
8 0 -1 6.8 1.2
8 0 -1 -0.9 5.5
-8 0 1 7.1 1.2
-8 0 1 7.3 1.5
7 0 -1 96.69 5.1
7 0 -1 100.29 4.8
7 0 -1 103.49 4.8
-7 0 1 99.29 4.1
-7 0 1 97.59 4.5
-7 0 1 101.69 5.2
6 0 -1 15.8 1.2
6 0 -1 15.8 1.2
6 0 -1 17.4 1.3
-6 0 1 14 1
-6 0 1 14 1.4
-6 0 1 12.7 1.1
5 0 -1 343.97 12.5
5 0 -1 319.97 12.4
5 0 -1 329.17 12.4
-5 0 1 306.97 12.3
-5 0 1 333.37 12.7
4 0 -1 24.5 1.2
4 0 -1 21 1.2
4 0 -1 19.9 1.2
-4 0 1 18.7 1.1
-4 0 1 21.8 1.3
-4 0 1 21.5 1
3 0 -1 328.17 12.3
3 0 -1 356.36 12.6
3 0 -1 322.17 12.3
-3 0 1 301.07 12.2
-3 0 1 355.76 12.1
-3 0 1 318.27 12.5
2 0 -1 245.18 9
2 0 -1 246.98 9
2 0 -1 239.48 9
-2 0 1 243.78 8.8
-2 0 1 229.28 9
-2 0 1 232.98 8.9
1 0 -1 1398.66 51.89
1 0 -1 1532.85 51.89
1 0 -1 1500.75 51.79
1 0 -1 1310.77 53.49
-1 0 1 1414.76 51.49
-1 0 1 1358.96 51.89
-1 0 -1 119.29 4.5
-1 0 -1 111.29 4.5
1 0 1 123.19 4.5
1 0 1 122.39 4.4
-2 0 -1 1098.39 41.7
-2 0 -1 1000.9 41.7
-2 0 -1 1139.69 41.7
2 0 1 1195.38 41.7
2 0 1 1219.08 41.7
2 0 1 1228.48 41.8
2 0 1 1155.78 41.8
-3 0 -1 191.98 7.7
-3 0 -1 202.58 7.7
-3 0 -1 196.68 7.5
3 0 1 198.98 8
3 0 1 213.28 7.7
3 0 1 199.58 7.7
3 0 1 199.68 7.8
-4 0 -1 218.98 8.4
-4 0 -1 210.28 8.6
-4 0 -1 238.98 8.6
4 0 1 221.58 8.6
4 0 1 220.38 8.7
4 0 1 233.48 8.7
-5 0 -1 419.86 15.3
-5 0 -1 414.56 15
-5 0 -1 365.36 15.3
-5 0 -1 412.26 15.7
5 0 1 410.06 15.4
5 0 1 390.56 15.3
5 0 1 422.16 15.4
-6 0 -1 78.29 3.5
-6 0 -1 82.29 4.6
-6 0 -1 76.99 3.8
6 0 1 81.59 3.8
6 0 1 79.79 3.7
6 0 1 77.59 3.8
-7 0 -1 147.39 6.2
-7 0 -1 153.18 7
-7 0 -1 149.29 6.5
7 0 1 151.18 6.6
7 0 1 142.49 6.5
7 0 1 148.39 6.6
-8 0 -1 2.7 1.5
-8 0 -1 4.1 1.1
-8 0 -1 3.7 0.8
8 0 1 2.5 1.1
8 0 1 3.2 1.2
8 0 1 3.5 1.2
8 -1 -1 15.6 1.9
8 -1 -1 14.4 1.7
8 -1 -1 13.8 1.9
-8 1 1 18 2.1
-8 1 1 15.2 1.6
7 -1 -1 80.19 4.1
7 -1 -1 83.79 4.1
7 -1 -1 85.09 4.2
-7 1 1 88.79 4.6
-7 1 1 84.79 3.5
-7 1 1 82.19 3.8
6 -1 -1 134.29 5.6
6 -1 -1 137.39 5.7
6 -1 -1 131.99 5.6
-6 1 1 138.19 5.5
-6 1 1 140.49 5.3
-6 1 1 119.49 5.8
5 -1 -1 181.28 7.3
5 -1 -1 183.58 7.3
5 -1 -1 187.08 7.4
-5 1 1 189.98 6.9
-5 1 1 180.08 7
-5 1 1 193.98 7.3
-5 1 1 182.78 7.5
4 -1 -1 1128.19 40
4 -1 -1 1114.29 39.9
4 -1 -1 1156.58 40
4 -1 -1 1113.09 39.6
-4 1 1 979.4 39.9
-4 1 1 1068.09 40.1
-4 1 1 1105.29 39.8
3 -1 -1 156.88 5.7
3 -1 -1 152.28 5.6
3 -1 -1 147.89 5.6
3 -1 -1 143.99 5.5
3 -1 -1 143.09 5.7
3 -1 -1 153.68 5.7
-3 1 1 148.19 5.8
-3 1 1 149.19 5.6
-3 1 1 141.39 5.6
2 -1 -1 1535.35 54.59
2 -1 -1 1492.95 54.69
2 -1 -1 1475.95 54.29
2 -1 -1 1528.35 54.69
2 -1 -1 1508.25 54.49
2 -1 -1 1485.45 54.19
-2 1 1 1480.45 54.59
-2 1 1 1485.85 54.49
1 -1 -1 2101.49 70.89
1 -1 -1 1936.91 70.79
1 -1 -1 1984.7 70.89
1 -1 -1 1887.61 70.39
-1 1 1 1967.9 70.79
-1 1 1 1918.61 70.59
-1 1 1 1822.32 70.69
0 -1 -1 499.75 19.4
0 -1 -1 489.35 19.4
0 1 1 555.74 19.4
0 1 1 569.04 19.4
0 1 1 561.54 19.4
-1 -1 -1 948.41 39.5
-1 -1 -1 1100.19 39.6
-1 -1 -1 1056.69 39.8
1 1 1 1143.69 39.5
1 1 1 1029.5 39.7
1 1 1 1144.89 39.5
1 1 1 1204.98 39.5
-2 -1 -1 57.69 2.4
-2 -1 -1 54.69 2.3
-2 -1 -1 61.19 2.5
2 1 1 54.79 2.4
2 1 1 56.79 2.4
2 1 1 58.19 2.4
-3 -1 -1 252.17 9.5
-3 -1 -1 241.18 9.7
-3 -1 -1 277.57 9.7
3 1 1 251.67 9.7
3 1 1 248.38 9.7
3 1 1 268.47 9.7
-4 -1 -1 5.2 0.6
-4 -1 -1 4.3 0.7
-4 -1 -1 4.6 0.5
-4 -1 -1 3.8 0.6
4 1 1 4.7 0.7
4 1 1 5.9 0.7
4 1 1 5.8 0.7
-5 -1 -1 223.78 9.6
-5 -1 -1 256.07 9.9
-5 -1 -1 253.27 9.5
5 1 1 243.78 9.6
5 1 1 247.38 9.6
5 1 1 237.98 9.5
-6 -1 -1 26.4 2.5
-6 -1 -1 28.7 2.2
-6 -1 -1 27.1 1.6
6 1 1 27.4 2.2
6 1 1 25.7 3.1
6 1 1 27.2 1.9
-7 -1 -1 14.9 2.1
-7 -1 -1 12.7 1.6
-7 -1 -1 15.1 1.6
7 1 1 16.3 1.8
7 1 1 17.1 1.9
7 1 1 17.5 1.8
8 -2 -1 136.79 6.1
8 -2 -1 134.59 6.2
8 -2 -1 138.29 6.2
-8 2 1 136.79 6.5
-8 2 1 134.29 6
7 -2 -1 81.49 4.3
7 -2 -1 84.59 4.2
7 -2 -1 81.09 4
-7 2 1 84.59 3.5
-7 2 1 83.69 4.5
-7 2 1 79.09 3.7
6 -2 -1 32 1.8
6 -2 -1 28.9 1.7
6 -2 -1 29.9 1.5
6 -2 -1 30.5 1.8
-6 2 1 31.9 1.5
-6 2 1 30.8 1.9
-6 2 1 32.3 1.7
-6 2 1 31 1.7
5 -2 -1 668.13 24.8
5 -2 -1 671.83 25.1
5 -2 -1 687.33 25.2
5 -2 -1 670.03 24.9
5 -2 -1 659.33 25.1
-5 2 1 669.33 25.1
-5 2 1 724.83 25.1
-5 2 1 691.73 25.4
4 -2 -1 294.97 11.1
4 -2 -1 294.47 10.9
4 -2 -1 296.77 11.1
4 -2 -1 307.87 11.2
4 -2 -1 300.57 11
4 -2 -1 304.07 11.1
-4 2 1 301.57 11
-4 2 1 259.67 10.9
-4 2 1 300.57 11.3
3 -2 -1 108.99 4.1
3 -2 -1 108.19 4.1
3 -2 -1 103.79 4.2
3 -2 -1 114.09 4.2
3 -2 -1 113.19 4.3
3 -2 -1 106.79 4.2
-3 2 1 107.69 4.3
-3 2 1 102.99 4.1
2 -2 -1 135.69 6.3
2 -2 -1 123.79 4.7
2 -2 -1 119.19 4.7
2 -2 -1 123.39 4.7
2 -2 -1 121.29 4.7
2 -2 -1 120.99 4.6
2 -2 -1 120.99 4.6
-2 2 1 122.39 4.7
-2 2 1 121.59 4.7
1 -2 -1 1215.88 45.6
1 -2 -1 1268.77 45.5
1 -2 -1 1297.77 45.6
1 -2 -1 1266.07 45.6
-1 2 1 1203.48 45.5
-1 2 1 1298.27 45.8
0 -2 -1 4009.9 159.68
0 -2 -1 4205.58 159.88
0 2 1 4401.36 159.68
0 2 1 4852.21 160.18
0 2 1 4573.74 159.98
-1 -2 -1 1044.9 39
-1 -2 -1 1098.79 39
1 2 1 1057.09 39
1 2 1 1101.79 39
1 2 1 1110.99 39
1 2 1 1161.28 39.1
1 2 1 946.31 39.3
-2 -2 -1 317.97 11.8
-2 -2 -1 315.07 11.8
-2 -2 -1 299.57 11.9
-2 -2 -1 315.77 11.7
2 2 1 325.97 11.8
2 2 1 323.47 11.8
-3 -2 -1 604.24 21.9
-3 -2 -1 580.94 21.7
-3 -2 -1 556.84 22.1
-3 -2 -1 591.04 22
3 2 1 605.54 21.9
3 2 1 610.34 21.9
3 2 1 603.54 21.9
-4 -2 -1 5.4 0.7
-4 -2 -1 5.5 0.6
-4 -2 -1 4.5 0.8
-4 -2 -1 6 0.7
4 2 1 6.2 0.7
4 2 1 4.1 0.7
-5 -2 -1 331.87 13.8
-5 -2 -1 354.26 13.5
-5 -2 -1 326.57 13.1
-5 -2 -1 396.16 13.8
5 2 1 350.96 13.5
5 2 1 355.36 13.6
5 2 1 359.46 13.6
-6 -2 -1 25.8 1.8
-6 -2 -1 28 2.1
-6 -2 -1 23.2 2.5
6 2 1 31.3 2.5
6 2 1 29.4 2.2
6 2 1 26.1 2.4
-7 -2 -1 1.6 0.8
-7 -2 -1 1.7 0.9
-7 -2 -1 -0.6 1.1
7 2 1 1 0.9
7 2 1 0.5 0.9
7 2 1 -0.8 1.4
7 2 1 0.2 1
8 -3 -1 91.59 4.6
8 -3 -1 90.49 4.7
8 -3 -1 89.49 4.5
-8 3 1 101.59 4.5
-8 3 1 92.79 4.9
-8 3 1 95.29 4.4
7 -3 -1 0.3 0.9
7 -3 -1 0.1 0.6
7 -3 -1 0.8 3.5
7 -3 -1 1.6 1
7 -3 -1 0.5 1.1
-7 3 1 0.3 0.5
-7 3 1 0.4 0.8
-7 3 1 -0.3 0.4
6 -3 -1 426.66 16.4
6 -3 -1 437.06 16.2
6 -3 -1 435.96 15.8
6 -3 -1 418.96 15.9
6 -3 -1 415.06 16.1
-6 3 1 419.06 16
-6 3 1 420.76 16.4
-6 3 1 439.26 15.9
5 -3 -1 348.17 12.2
5 -3 -1 335.47 12.4
5 -3 -1 326.27 12.3
5 -3 -1 340.07 12.1
5 -3 -1 314.67 12.2
-5 3 1 316.97 12.4
-5 3 1 318.47 12.1
-5 3 1 286.77 12
4 -3 -1 44.9 1.9
4 -3 -1 46.5 2
4 -3 -1 50.19 2.2
4 -3 -1 49.2 2.1
4 -3 -1 44 2.1
4 -3 -1 47.8 2.1
-4 3 1 43.6 2.2
-4 3 1 46.6 2
-4 3 1 40.9 2
3 -3 -1 664.13 24.5
3 -3 -1 678.43 24.4
3 -3 -1 661.93 24.4
3 -3 -1 669.23 24.5
3 -3 -1 653.03 24.5
-3 3 1 692.53 24.5
-3 3 1 666.03 24.5
2 -3 -1 156.58 6
2 -3 -1 150.68 5.9
2 -3 -1 154.68 6
2 -3 -1 152.08 5.9
2 -3 -1 152.88 5.8
-2 3 1 161.68 5.9
-2 3 1 160.68 5.8
-2 3 1 156.58 5.9
1 -3 -1 404.36 14.9
1 -3 -1 409.76 14.8
1 -3 -1 408.36 15
-1 3 1 398.56 14.8
-1 3 1 417.56 15
-1 3 1 401.36 14.9
0 -3 -1 44.9 1.9
0 -3 -1 52.09 3.6
0 -3 -1 45.3 2
0 -3 -1 45.8 2
0 -3 -1 42.8 1.8
0 3 1 48.5 1.9
0 3 1 46 2.4
0 3 1 47.9 2
-1 -3 -1 474.05 17
-1 -3 -1 468.15 17
-1 -3 -1 443.86 16.9
-1 -3 -1 449.86 17
1 3 1 473.15 17
1 3 1 484.15 16.9
1 3 1 435.56 17.3
1 3 1 479.35 17
1 3 1 439.46 17.5
-2 -3 -1 240.18 9.1
-2 -3 -1 235.48 9
-2 -3 -1 228.58 9.1
-2 -3 -1 235.68 9.1
2 3 1 250.47 9.2
2 3 1 234.88 9
2 3 1 241.98 9.1
2 3 1 243.28 9.1
-3 -3 -1 3.7 0.5
-3 -3 -1 4.5 0.7
-3 -3 -1 4.7 0.6
-3 -3 -1 5.1 0.7
3 3 1 5.2 0.6
3 3 1 3.5 0.6
3 3 1 2.7 0.4
3 3 1 3.9 0.8
-4 -3 -1 167.68 6.9
-4 -3 -1 161.68 6.6
-4 -3 -1 165.48 6.7
-4 -3 -1 171.08 7
4 3 1 168.28 6.8
4 3 1 171.48 6.8
4 3 1 167.18 6.7
-5 -3 -1 85.39 4.2
-5 -3 -1 79.79 3.7
-5 -3 -1 81.49 5
5 3 1 85.49 4
5 3 1 85.59 3.9
5 3 1 83.89 3.8
-6 -3 -1 4.8 1
-6 -3 -1 2.5 0.9
-6 -3 -1 4.9 1.5
6 3 1 3.2 1
6 3 1 3.9 1
6 3 1 1.2 1.5
6 3 1 3.5 1.1
-7 -3 -1 130.59 6.2
-7 -3 -1 108.99 5.7
-7 -3 -1 112.79 5.3
7 3 1 122.29 5.6
7 3 1 124.79 5.7
7 3 1 119.59 6
8 -4 -1 14.3 1.9
8 -4 -1 14.6 1.8
8 -4 -1 14.2 2
-8 4 1 13.1 1.6
-8 4 1 14.1 1.9
-8 4 1 15.6 1.7
7 -4 -1 24.2 1.7
7 -4 -1 30 2.6
7 -4 -1 29.6 1.8
7 -4 -1 30.7 2.3
-7 4 1 25.1 2.1
-7 4 1 30.5 1.7
-7 4 1 31.3 2.3
-7 4 1 32.5 1.7
6 -4 -1 4.2 0.7
6 -4 -1 5.1 0.8
6 -4 -1 6.1 0.8
6 -4 -1 5.3 0.9
6 -4 -1 5.6 0.8
6 -4 -1 4.2 0.6
-6 4 1 4.7 0.8
-6 4 1 4.5 0.7
-6 4 1 3.9 0.6
-6 4 1 5.4 0.8
5 -4 -1 10.4 1
5 -4 -1 10.1 0.9
5 -4 -1 10 0.8
5 -4 -1 12.2 0.9
5 -4 -1 10.3 0.8
5 -4 -1 8.9 0.9
-5 4 1 10.7 1
-5 4 1 11.2 0.9
-5 4 1 11.1 0.9
4 -4 -1 495.55 18.1
4 -4 -1 496.05 18.3
4 -4 -1 459.05 18.2
4 -4 -1 480.45 18.2
4 -4 -1 502.55 18.2
4 -4 -1 499.55 18.2
-4 4 1 499.85 18.2
-4 4 1 497.55 18.3
3 -4 -1 120.89 4.8
3 -4 -1 120.69 4.8
3 -4 -1 118.59 4.7
3 -4 -1 123.39 4.7
3 -4 -1 125.59 4.6
3 -4 -1 127.99 4.7
-3 4 1 116.89 4.7
-3 4 1 116.19 4.7
-3 4 1 115.19 4.7
2 -4 -1 281.17 10.7
2 -4 -1 285.67 10.8
2 -4 -1 286.87 10.9
2 -4 -1 288.87 10.9
-2 4 1 293.87 10.8
-2 4 1 292.57 10.7
-2 4 1 306.37 10.6
1 -4 -1 877.11 31.2
1 -4 -1 882.31 31
1 -4 -1 811.32 31.3
-1 4 1 862.31 31.1
-1 4 1 831.62 31.1
-1 4 1 850.61 30.9
0 -4 -1 121.19 4.6
0 -4 -1 118.89 4.6
0 -4 -1 122.99 4.7
0 -4 -1 114.69 4.4
0 4 1 119.09 4.7
0 4 1 100.59 5.2
0 4 1 121.99 4.4
-1 -4 -1 527.65 19.8
-1 -4 -1 567.04 19.9
-1 -4 -1 521.45 19.9
-1 -4 -1 514.35 19.8
1 4 1 522.75 20.7
1 4 1 551.34 19.7
1 4 1 550.24 19.9
1 4 1 557.84 19.9
-2 -4 -1 124.89 5.3
-2 -4 -1 124.69 5.1
-2 -4 -1 129.09 5.2
-2 -4 -1 139.49 5.3
2 4 1 134.09 5.1
2 4 1 122.59 5.2
2 4 1 131.59 5.2
-3 -4 -1 312.87 11.3
-3 -4 -1 304.67 11.4
-3 -4 -1 284.27 11.2
-3 -4 -1 294.37 11
3 4 1 252.17 11.3
3 4 1 295.47 11.1
3 4 1 303.57 11.3
3 4 1 296.07 11.2
-4 -4 -1 278.77 11
-4 -4 -1 281.67 10.9
-4 -4 -1 274.37 10.7
-4 -4 -1 272.27 10.4
4 4 1 278.87 10.8
4 4 1 272.57 10.6
4 4 1 270.47 10.8
-5 -4 -1 -0.4 1
-5 -4 -1 1.9 1
-5 -4 -1 0.9 0.8
5 4 1 0.6 0.6
5 4 1 0.5 1.7
5 4 1 1.6 1
5 4 1 0.5 1
-6 -4 -1 54.09 3.1
-6 -4 -1 57.09 3.8
-6 -4 -1 59.39 3.4
6 4 1 58.59 3.2
6 4 1 58.19 3.4
6 4 1 59.59 3.4
8 -5 -1 52.29 3.1
8 -5 -1 47.7 3.2
8 -5 -1 55.99 3.1
-8 5 1 54.99 3
-8 5 1 48.5 2.7
-8 5 1 53.29 3.3
7 -5 -1 62.89 2.9
7 -5 -1 61.19 3.5
7 -5 -1 64.59 3.6
7 -5 -1 64.89 3.7
7 -5 -1 59.99 3
7 -5 -1 64.99 3.1
-7 5 1 62.79 3
-7 5 1 61.19 3.3
-7 5 1 67.49 3
-7 5 1 60.69 3.5
6 -5 -1 1 0.5
6 -5 -1 1.8 0.5
6 -5 -1 1 0.5
6 -5 -1 2.8 0.6
6 -5 -1 1.2 0.6
6 -5 -1 0.3 0.4
6 -5 -1 0 4.2
-6 5 1 2.4 0.5
-6 5 1 1.3 0.6
5 -5 -1 54.99 2.4
5 -5 -1 53.49 2.5
5 -5 -1 52.89 2.5
5 -5 -1 56.39 2.5
5 -5 -1 56.39 2.6
5 -5 -1 54.29 2.7
-5 5 1 54.99 2.6
-5 5 1 53.29 2.5
4 -5 -1 162.28 6.4
4 -5 -1 164.68 6.3
4 -5 -1 169.68 6.3
4 -5 -1 155.58 6.4
4 -5 -1 160.98 6.3
4 -5 -1 155.58 6.3
-4 5 1 157.68 6.3
-4 5 1 163.88 6.3
-4 5 1 163.28 6.3
3 -5 -1 755.32 27.4
3 -5 -1 748.63 27.3
3 -5 -1 748.33 27.6
3 -5 -1 737.23 27.6
-3 5 1 761.42 27.3
-3 5 1 754.82 27.4
-3 5 1 741.73 27.5
2 -5 -1 283.57 10.8
2 -5 -1 288.27 10.7
2 -5 -1 296.37 10.6
-2 5 1 272.37 10.8
-2 5 1 281.87 10.7
-2 5 1 288.97 10.5
1 -5 -1 1.2 2.1
1 -5 -1 1 0.3
1 -5 -1 1.6 0.3
1 -5 -1 1.7 0.3
-1 5 1 1.1 0.3
-1 5 1 0.4 0.3
0 -5 -1 320.87 12.2
0 -5 -1 327.77 12.6
0 -5 -1 345.37 12.5
0 -5 -1 338.97 12.6
0 5 1 313.07 13.4
0 5 1 357.16 12.7
0 5 1 335.67 12.3
-1 -5 -1 140.99 5.5
-1 -5 -1 140.39 5.5
-1 -5 -1 140.09 5.4
-1 -5 -1 138.29 5.5
1 5 1 137.89 5.5
1 5 1 141.69 5.3
1 5 1 121.19 6.3
1 5 1 143.39 5.6
-2 -5 -1 186.88 7.6
-2 -5 -1 192.08 7.6
-2 -5 -1 206.78 7.7
-2 -5 -1 183.88 7.5
2 5 1 190.88 7.6
2 5 1 199.38 7.7
2 5 1 196.98 7.7
-3 -5 -1 185.98 7.2
-3 -5 -1 174.58 6.9
-3 -5 -1 171.48 7.2
-3 -5 -1 171.58 7
3 5 1 172.78 6.9
3 5 1 174.78 7.1
-4 -5 -1 25.6 1.9
-4 -5 -1 23.4 1.4
-4 -5 -1 26 2.3
4 5 1 23.7 2.5
4 5 1 22.8 1.5
4 5 1 18.9 2
-5 -5 -1 84.79 4.7
-5 -5 -1 75.49 3.9
-5 -5 -1 74.49 4.1
5 5 1 79.99 4.1
5 5 1 81.89 3.9
5 5 1 80.69 4.1
-6 -5 -1 1.8 1
-6 -5 -1 5.2 1.7
-6 -5 -1 2.2 0.9
6 5 1 2.7 1.2
6 5 1 3 1.1
6 5 1 3.5 1.3
8 -6 -1 45 3.2
8 -6 -1 48.8 3
8 -6 -1 45.1 3.1
-8 6 1 50.49 3.2
-8 6 1 47 2.9
7 -6 -1 8.9 1.4
7 -6 -1 10.4 1.3
7 -6 -1 11.7 1.3
7 -6 -1 8.2 1.5
7 -6 -1 8.5 1.4
7 -6 -1 9.6 1.5
7 -6 -1 0.6 6.9
-7 6 1 9.6 1.2
-7 6 1 11.7 1.7
-7 6 1 11.2 1.5
6 -6 -1 132.89 5.7
6 -6 -1 130.49 5.7
6 -6 -1 134.49 5.5
6 -6 -1 129.49 5.8
6 -6 -1 140.29 5.5
6 -6 -1 138.99 5.9
-6 6 1 143.19 5.6
-6 6 1 133.69 5.6
-6 6 1 133.69 5.5
-6 6 1 135.39 5.7
5 -6 -1 18.6 1.3
5 -6 -1 20.1 1.5
5 -6 -1 20.1 1.4
5 -6 -1 19.4 1.4
5 -6 -1 17.6 1.3
5 -6 -1 20.2 1.2
-5 6 1 18.4 1.2
-5 6 1 17.2 1.3
-5 6 1 17.8 1.3
4 -6 -1 285.87 11.2
4 -6 -1 291.67 11.1
4 -6 -1 287.47 11
4 -6 -1 252.17 11.3
-4 6 1 297.17 11
-4 6 1 294.57 11
-4 6 1 298.57 10.9
-4 6 1 307.87 10.9
3 -6 -1 482.05 17.1
3 -6 -1 469.25 17.3
3 -6 -1 463.05 17.4
3 -6 -1 463.35 17.4
-3 6 1 474.95 17.1
-3 6 1 451.25 17
-3 6 1 451.35 17.2
-3 6 1 457.75 17.3
2 -6 -1 29.3 1.5
2 -6 -1 32.6 1.5
2 -6 -1 30.5 1.7
-2 6 1 28.9 1.6
-2 6 1 28.6 1.6
-2 6 1 30.9 1.4
1 -6 -1 347.07 12.5
1 -6 -1 333.97 12.7
1 -6 -1 329.47 12.6
-1 6 1 340.97 12.5
-1 6 1 328.97 12.2
-1 6 1 331.07 12.7
-1 6 1 328.77 13.7
0 -6 -1 46.3 2.1
0 -6 -1 45.3 2.2
0 -6 -1 48 2.2
0 6 1 38.4 3
0 6 1 45.4 1.8
0 6 1 47.7 2.1
0 6 1 37.5 2.1
-1 -6 -1 108.29 4.5
-1 -6 -1 108.79 4.5
-1 -6 -1 102.89 4.3
-1 -6 -1 108.39 4.6
1 6 1 101.59 4.5
1 6 1 117.69 5.8
1 6 1 108.39 4.2
1 6 1 103.99 4.4
-2 -6 -1 43.6 2.3
-2 -6 -1 44.9 2.4
-2 -6 -1 49.5 2.4
-2 -6 -1 46.5 2.4
2 6 1 46.9 2.5
2 6 1 50.59 2.2
2 6 1 48.8 2.5
-3 -6 -1 30 1.7
-3 -6 -1 31.1 2
-3 -6 -1 30.4 1.9
-3 -6 -1 27.6 3.1
3 6 1 31.2 1.7
3 6 1 26.7 1.9
-4 -6 -1 75.79 3.9
-4 -6 -1 75.39 3.8
-4 -6 -1 67.39 3.6
-4 -6 -1 71.29 3.8
4 6 1 68.79 3.3
4 6 1 63.39 4.5
4 6 1 71.09 3.8
-5 -6 -1 16.3 2.8
-5 -6 -1 16.2 2
-5 -6 -1 14.3 1.7
5 6 1 16.3 1.9
5 6 1 17.5 2.1
5 6 1 17.9 2.1
7 -7 -1 144.49 6.5
7 -7 -1 145.19 6.5
7 -7 -1 143.39 6.4
7 -7 -1 145.09 6.3
7 -7 -1 140.79 6
-7 7 1 148.29 6.7
-7 7 1 150.48 6.3
6 -7 -1 19.2 1.8
5 -7 -1 1.2 0.6
5 -7 -1 0.2 1
5 -7 -1 1.1 0.6
5 -7 -1 2 0.5
5 -7 -1 1.6 0.7
5 -7 -1 2.2 7.9
-5 7 1 1.7 0.6
-5 7 1 2 0.6
-5 7 1 2.4 0.7
4 -7 -1 77.49 3.3
4 -7 -1 74.89 3.5
4 -7 -1 77.79 3.5
4 -7 -1 75.69 3.4
-4 7 1 76.69 3.3
-4 7 1 75.19 3.5
-4 7 1 76.49 3.2
3 -7 -1 2.1 0.5
3 -7 -1 1.3 3.6
3 -7 -1 2.4 0.6
3 -7 -1 2.1 0.5
-3 7 1 1.8 1.4
-3 7 1 1.3 0.5
-3 7 1 2.8 0.4
2 -7 -1 372.06 14.3
2 -7 -1 366.16 14.1
2 -7 -1 366.26 14.4
-2 7 1 361.16 14.1
-2 7 1 434.26 16
-2 7 1 362.76 14.3
1 -7 -1 172.68 7.1
1 -7 -1 183.98 6.9
1 -7 -1 178.18 7
-1 7 1 169.68 8.3
-1 7 1 182.88 6.9
-1 7 1 166.28 7
0 -7 -1 41.2 2.1
0 -7 -1 39.7 2.1
0 -7 -1 40.8 2.2
0 7 1 42 2.2
0 7 1 41.6 3.3
0 7 1 41.5 2.1
-1 -7 -1 225.88 9
-1 -7 -1 225.38 8.9
-1 -7 -1 230.08 9
1 7 1 229.98 8.9
1 7 1 226.68 9.1
-2 -7 -1 20.7 1.4
-2 -7 -1 19.8 1.8
-2 -7 -1 19.4 1.5
2 7 1 19.8 2
2 7 1 16.7 1.5
-3 -7 -1 121.09 5.5
-3 -7 -1 133.59 5.7
-3 -7 -1 118.59 5.4
-3 -7 -1 118.09 5.5
3 7 1 122.69 5.6
3 7 1 121.79 5.6
-4 -7 -1 13.1 2.1
-4 -7 -1 15.6 2
-4 -7 -1 12 1.6
4 7 1 14.9 1.9
4 7 1 14.5 2.1
7 -8 -1 86.09 4.2
7 -8 -1 83.39 4.2
7 -8 -1 87.29 5.5
7 -8 -1 84.19 4.4
-7 8 1 72.09 4
-7 8 1 83.19 4
6 -8 -1 15.3 1.9
6 -8 -1 10.4 1.7
6 -8 -1 14.1 1.5
-6 8 1 13.4 1.8
-6 8 1 16.9 2.1
-6 8 1 14.4 1.6
5 -8 -1 72.59 3.4
5 -8 -1 72.59 3.8
5 -8 -1 73.49 3.8
-5 8 1 73.59 3.8
-5 8 1 68.69 3.4
4 -8 -1 0.8 0.6
4 -8 -1 2.9 1
4 -8 -1 -6.8 6.3
4 -8 -1 1.7 0.6
-4 8 1 0.4 2.1
-4 8 1 2.1 0.6
-4 8 1 3.1 1
3 -8 -1 7.2 1
3 -8 -1 6.2 1
3 -8 -1 0 6.8
-3 8 1 7.1 1.2
-3 8 1 7.3 0.8
-3 8 1 7.6 2.4
2 -8 -1 3.4 0.7
2 -8 -1 3.6 1.1
2 -8 -1 3.5 0.6
2 -8 -1 1.1 4.6
-2 8 1 4.5 1
-2 8 1 3.3 1.8
-2 8 1 5.5 0.9
1 -8 -1 49.2 2.9
1 -8 -1 49.99 2.6
1 -8 -1 51.79 2.4
-1 8 1 47.4 4
-1 8 1 51.29 2.4
0 -8 -1 60.09 3.2
0 -8 -1 61.19 2.9
0 -8 -1 57.09 3.4
0 8 1 69.29 5.2
0 8 1 64.49 3.4
0 8 1 57.89 2.9
-1 -8 -1 14.4 1.6
-1 -8 -1 14.9 1.4
1 8 1 14.7 1.4
1 8 1 10.8 1.7
-2 -8 -1 12.4 1.5
-2 -8 -1 16.6 1.9
2 8 1 13.6 2
2 8 1 14.2 1.8
-3 -8 -1 33.5 2.4
-3 -8 -1 34.8 2.4
-3 -8 -1 31.8 2.5
3 8 1 31.8 2.6
3 8 1 35.2 2.4
6 -9 -1 100.49 4.9
6 -9 -1 96.59 4.9
6 -9 -1 96.09 4.7
-6 9 1 98.99 4.9
-6 9 1 103.89 4.6
5 -9 -1 24.6 2.1
5 -9 -1 23.4 2.2
-5 9 1 16.7 1.9
-5 9 1 28.4 2.5
-5 9 1 18.7 3.5
4 -9 -1 26.4 2.2
4 -9 -1 25.9 2.2
-4 9 1 25.6 2.1
-4 9 1 25.5 3.3
-4 9 1 27.8 2
3 -9 -1 148.09 6.3
3 -9 -1 144.29 6.4
-3 9 1 148.09 6.3
-3 9 1 135.59 8
-3 9 1 144.19 5.9
2 -9 -1 170.38 7.2
2 -9 -1 171.98 6.8
2 -9 -1 167.38 7.3
-2 9 1 169.08 7.2
-2 9 1 168.38 9.2
-2 9 1 174.28 6.9
1 -9 -1 164.18 7.2
1 -9 -1 177.78 7.1
1 -9 -1 163.18 7
-1 9 1 165.58 9
-1 9 1 165.88 6.8
-1 9 1 165.88 7.1
0 -9 -1 15.8 1.6
0 -9 -1 18 1.6
0 -9 -1 19.9 1.8
0 9 1 12.8 1.8
0 9 1 12.3 3.7
0 9 1 11.2 1.6
-1 -9 -1 14.5 1.8
-1 -9 -1 14.3 1.6
-1 -9 -1 11.8 2
1 9 1 14.2 1.9
1 9 1 17 4
1 9 1 14.5 2
-2 -9 -1 23.1 2.1
-2 -9 -1 22.4 2.1
-2 -9 -1 20.3 2.1
2 9 1 26.2 2.1
2 9 1 19.4 2.2
5 -10 -1 3.1 1.1
5 -10 -1 3.4 1.4
-5 10 1 1.4 1.8
-5 10 1 4.3 1.2
4 -10 -1 3.3 7.4
4 -10 -1 13.8 2
4 -10 -1 12.9 1.7
-4 10 1 10.8 2
-4 10 1 17.8 2
3 -10 -1 14.8 1.8
3 -10 -1 14.8 1.8
-3 10 1 16.5 1.9
-3 10 1 14.5 3.8
-3 10 1 17.7 2
2 -10 -1 70.49 3.8
2 -10 -1 66.39 3.6
-2 10 1 67.19 3.5
-2 10 1 68.99 5.5
-2 10 1 68.79 3.6
1 -10 -1 19 1.8
1 -10 -1 13.5 1.9
1 -10 -1 14.3 1.8
-1 10 1 13.9 1.9
-1 10 1 15.7 2
0 -10 -1 25.3 2.4
0 -10 -1 29.2 2.5
0 -10 -1 26.1 2.2
0 10 1 26.9 2.4
0 10 1 24.8 2.2
0 10 1 30.7 4.7
-1 11 -2 12.3 1.8
1 -11 2 10.8 1.9
1 -11 2 9.2 1.4
1 -11 2 14.5 2
-2 11 -2 36.4 2.5
2 -11 2 30.2 2.6
2 -11 2 31.8 2.5
2 -11 2 33 2.6
2 10 -2 10.5 2
-2 -10 2 5.5 1.2
-2 -10 2 6 1.3
1 10 -2 1.5 2.2
1 10 -2 -0.5 0.9
-1 -10 2 1.8 0.9
-1 -10 2 0.2 0.9
-1 -10 2 1.5 1
0 10 -2 41.4 4.6
0 10 -2 35.5 2.5
0 -10 2 34.5 2.4
0 -10 2 37.5 2.5
0 -10 2 34.6 2.5
-1 10 -2 24.5 4
-1 10 -2 24.7 2.1
1 -10 2 20.9 2
1 -10 2 25.5 2.2
1 -10 2 20.9 2
-2 10 -2 30.2 2.3
-2 10 -2 33.9 4.3
2 -10 2 32.8 3
2 -10 2 31.5 2.2
2 -10 2 29.1 2.5
-3 10 -2 110.49 7.1
-3 10 -2 112.69 5.1
3 -10 2 113.89 5.4
3 -10 2 118.49 5.5
3 -10 2 113.79 5.4
-4 10 -2 30.9 2.3
-4 10 -2 31.4 4.3
4 -10 2 33.7 2.8
4 -10 2 32.1 2.6
4 -10 2 34.1 2.4
3 9 -2 154.68 7.3
3 9 -2 179.18 7.5
-3 -9 2 172.28 7.1
-3 -9 2 169.88 7.3
-3 -9 2 178.18 7.5
2 9 -2 59.09 3.2
2 9 -2 55.69 5.5
-2 -9 2 56.59 3.2
-2 -9 2 56.19 3.2
1 9 -2 137.49 8.4
1 9 -2 146.79 6.3
-1 -9 2 141.59 6.3
-1 -9 2 147.29 6.4
-1 -9 2 149.99 6.4
0 9 -2 66.39 3.5
0 9 -2 66.19 5.3
0 -9 2 65.09 3.4
0 -9 2 64.39 3.5
0 -9 2 64.69 3.3
-1 9 -2 43.2 4.5
-1 9 -2 39.8 2.5
1 -9 2 43.7 2.4
1 -9 2 42.6 2.8
1 -9 2 44.4 2.6
-2 9 -2 177.58 9.2
-2 9 -2 165.88 6.9
2 -9 2 167.38 7.1
2 -9 2 167.68 7
2 -9 2 170.38 7.2
-3 9 -2 9.6 1.3
-3 9 -2 11.6 3.1
3 -9 2 9.3 1.4
3 -9 2 11.2 1.6
3 -9 2 11 1.6
-4 9 -2 48.2 3.3
-4 9 -2 45.4 4.5
4 -9 2 47.9 2.8
4 -9 2 48 2.8
4 -9 2 51.19 3
-5 9 -2 21.6 3.6
-5 9 -2 23.2 2.1
5 -9 2 25.6 2.1
5 -9 2 23.5 2.6
5 -9 2 28.4 2.2
6 -9 2 8.8 1.4
6 -9 2 9.9 1.7
6 -9 2 8.2 1.5
-5 -8 2 6.7 1.3
4 8 -2 75.39 4
-4 -8 2 76.59 3.8
-4 -8 2 77.69 4
-4 -8 2 77.19 4.2
3 8 -2 1.5 0.6
3 8 -2 3.5 2.5
3 8 -2 0.6 0.8
-3 -8 2 1.5 0.6
-3 -8 2 1.4 0.9
-3 -8 2 -0.2 0.8
-3 -8 2 0 0.6
2 8 -2 85.09 3.7
2 8 -2 94.09 4.8
-2 -8 2 85.79 3.9
-2 -8 2 89.29 4.2
-2 -8 2 83.89 3.9
1 8 -2 295.07 11.3
1 8 -2 285.77 10.9
-1 -8 2 292.07 11.1
-1 -8 2 280.07 11.5
-1 -8 2 298.17 11.4
-1 -8 2 293.57 11.3
0 8 -2 22.3 1.5
0 8 -2 21.9 1.7
0 8 -2 19.6 2.9
0 -8 2 25.4 1.6
0 -8 2 25.9 1.6
0 -8 2 23.3 1.6
-1 8 -2 124.99 5
-1 8 -2 111.29 4.9
-1 8 -2 128.39 6.9
1 -8 2 116.89 5.1
1 -8 2 125.79 5.2
1 -8 2 115.99 5.2
-2 8 -2 1.2 0.5
-2 8 -2 0.5 0.5
-2 8 -2 0.7 1.2
2 -8 2 0.1 0.5
2 -8 2 -0.8 1
2 -8 2 1.2 0.5
2 -8 2 -0.1 0.6
-3 8 -2 111.89 6.6
-3 8 -2 121.09 5
-3 8 -2 115.39 4.8
3 -8 2 124.09 5.2
3 -8 2 131.59 5.2
-4 8 -2 196.78 7.8
-4 8 -2 204.48 8
4 -8 2 196.18 8.1
4 -8 2 202.58 8.4
4 -8 2 205.08 9.5
-5 8 -2 0.1 0.9
-5 8 -2 1.1 0.8
-5 8 -2 -1.3 2.2
5 -8 2 -1.7 1.3
5 -8 2 0.4 0.7
5 -8 2 0.5 0.8
5 -8 2 0.9 0.6
5 -8 2 0.2 0.8
5 -8 2 3.7 7.6
5 -8 2 -0.5 0.9
5 -8 2 0.1 0.9
-6 8 -2 40 2.8
-6 8 -2 35.5 4.1
-6 8 -2 36 2.7
6 -8 2 40.8 3.1
6 -8 2 38.3 2.9
6 -8 2 40.3 2.7
6 -8 2 45.2 2.9
6 -8 2 42.8 2.6
6 -8 2 41.8 2.8
5 7 -2 57.89 3.3
5 7 -2 55.79 3.4
-5 -7 2 60.19 3.1
-5 -7 2 55.89 3.3
-5 -7 2 61.59 4
4 7 -2 19.8 4.4
4 7 -2 26.2 2.2
4 7 -2 28.6 1.7
-4 -7 2 29.3 2.1
-4 -7 2 26.1 2
-4 -7 2 25.1 1.7
3 7 -2 70.09 3
3 7 -2 58.19 4.8
-3 -7 2 67.79 3.3
-3 -7 2 68.89 3
-3 -7 2 64.99 3.4
-3 -7 2 69.99 3.2
2 7 -2 330.07 12.6
2 7 -2 317.67 12.2
-2 -7 2 327.27 12.5
-2 -7 2 335.87 12.6
-2 -7 2 318.37 12.4
-2 -7 2 326.47 12.5
1 7 -2 21.3 2.4
1 7 -2 23.5 1.4
1 7 -2 22.2 1.4
-1 -7 2 19.5 1.2
-1 -7 2 23.4 1.5
-1 -7 2 22.6 1.5
-1 -7 2 21.7 1.4
0 7 -2 216.98 8.4
0 7 -2 210.98 8.1
0 7 -2 205.38 10.3
0 -7 2 217.58 8.5
0 -7 2 235.18 8.4
0 -7 2 214.28 8.5
0 -7 2 210.48 8.5
-1 7 -2 20.7 1.2
-1 7 -2 21 1.3
-1 7 -2 22.7 2.3
1 -7 2 22.4 1.3
1 -7 2 19.9 1.4
1 -7 2 19.4 1.3
-2 7 -2 38.9 1.8
-2 7 -2 37.4 3
-2 7 -2 39.3 2
2 -7 2 40.4 2.1
2 -7 2 41.5 2.1
2 -7 2 41.4 2
-3 7 -2 424.36 15.5
-3 7 -2 431.26 15.4
-3 7 -2 415.76 15.7
-3 7 -2 428.26 17.5
3 -7 2 414.96 15.8
3 -7 2 411.36 15.4
3 -7 2 420.56 15.8
3 -7 2 407.66 15.9
-4 7 -2 5.5 0.7
-4 7 -2 6.7 1.6
-4 7 -2 6.9 0.9
4 -7 2 5.4 0.7
4 -7 2 6.1 1.1
4 -7 2 5 0.7
4 -7 2 4.9 0.8
4 -7 2 4.3 0.8
4 -7 2 5.1 0.8
-5 7 -2 7.7 1
-5 7 -2 6.8 1.1
-5 7 -2 9.4 2.2
5 -7 2 6.2 0.9
5 -7 2 6.3 1
5 -7 2 5 1.6
5 -7 2 8.8 1.1
5 -7 2 6.9 1.1
5 -7 2 1.9 5
-6 7 -2 14.2 3.4
6 -7 2 9.6 1.6
6 -7 2 11.2 1.7
6 -7 2 9.8 1.7
6 -7 2 8.2 1.4
6 -7 2 10.4 1.6
6 -7 2 13.1 1.9
6 -7 2 1.6 7.8
-7 7 -2 4.1 1.4
-7 7 -2 3.2 1.1
-7 7 -2 3 0.9
-7 7 -2 2.3 3.5
-7 7 -2 1.4 0.9
7 -7 2 3.7 1.2
7 -7 2 2.5 1.3
7 -7 2 3.9 1.2
7 -7 2 0.4 8.2
7 -7 2 2.3 1.3
7 -7 2 3.8 1.3
7 -7 2 2.7 1.2
7 -7 2 1.8 2.1
6 6 -2 28.4 2.1
6 6 -2 30 2.4
6 6 -2 26.7 2.2
-6 -6 2 26.4 2
-6 -6 2 26.4 2.5
-6 -6 2 27.4 2.7
-6 -6 2 22.4 2.2
5 6 -2 23.7 1.5
5 6 -2 23.8 1.7
5 6 -2 19.1 2
-5 -6 2 23.3 2.5
-5 -6 2 20.3 2.2
-5 -6 2 19.2 1.9
-5 -6 2 22.3 1.6
4 6 -2 36 3
4 6 -2 40.6 2
4 6 -2 39.1 1.9
-4 -6 2 40.4 2.4
-4 -6 2 36.4 2.1
-4 -6 2 36.5 2.1
-4 -6 2 40.1 1.9
3 6 -2 70.09 3
3 6 -2 70.79 3.3
3 6 -2 69.49 3.1
-3 -6 2 70.09 3.4
-3 -6 2 73.19 3.1
-3 -6 2 68.89 3.3
-3 -6 2 76.49 3.4
-3 -6 2 76.89 3
2 6 -2 93.69 4
2 6 -2 96.39 3.7
2 6 -2 81.99 5.1
-2 -6 2 91.59 4.2
-2 -6 2 92.09 3.9
-2 -6 2 94.89 4
-2 -6 2 91.99 3.8
-2 -6 2 89.19 3.5
1 6 -2 4.7 0.6
1 6 -2 5.7 1.5
1 6 -2 5.9 0.7
-1 -6 2 6.2 0.7
-1 -6 2 6.7 0.7
-1 -6 2 5.6 0.7
0 6 -2 193.38 8.7
0 6 -2 186.28 7
0 6 -2 189.28 7.3
0 -6 2 191.48 7.4
0 -6 2 185.68 7.4
0 -6 2 189.28 7.4
0 -6 2 185.78 7.3
-1 6 -2 157.18 6.1
-1 6 -2 163.28 5.9
-1 6 -2 141.99 7.1
1 -6 2 157.08 6.2
1 -6 2 162.38 6.2
1 -6 2 151.48 6.2
-2 6 -2 302.37 11.8
-2 6 -2 349.57 13.2
-2 6 -2 303.47 11.6
2 -6 2 317.17 11.6
2 -6 2 309.97 11.9
2 -6 2 317.47 11.9
2 -6 2 304.97 12
-3 6 -2 70.79 4
-3 6 -2 66.39 3
3 -6 2 70.59 3.2
3 -6 2 71.09 3.1
3 -6 2 70.69 3.2
3 -6 2 78.09 3.2
3 -6 2 73.29 3.2
3 -6 2 73.09 3
-4 6 -2 587.34 23.6
4 -6 2 607.64 22.5
4 -6 2 613.84 22.2
4 -6 2 592.84 22.2
4 -6 2 617.64 22.4
4 -6 2 582.34 22.5
4 -6 2 599.74 22.2
-5 6 -2 451.55 18.1
5 -6 2 436.46 16.3
5 -6 2 414.36 16.4
5 -6 2 428.86 16.5
5 -6 2 434.36 16.4
5 -6 2 431.56 16.3
5 -6 2 428.56 16.3
-6 6 -2 50.09 2.8
6 -6 2 51.89 2.9
6 -6 2 54.59 2.8
6 -6 2 52.19 3
6 -6 2 54.19 2.9
6 -6 2 56.09 3
6 -6 2 55.89 3.2
-7 6 -2 58.79 3.3
-7 6 -2 64.59 3.4
-7 6 -2 60.19 3.7
-7 6 -2 56.49 3.3
-7 6 -2 70.79 8
7 -6 2 59.69 3.6
7 -6 2 58.49 3.7
7 -6 2 61.09 3.5
7 -6 2 61.29 3.7
7 -6 2 59.59 3.7
7 -6 2 60.79 3.5
7 5 -2 46.4 3.2
7 5 -2 52.19 3
7 5 -2 49.7 3.1
-7 -5 2 47.5 3.2
-7 -5 2 47 2.7
-7 -5 2 54.19 3.7
-7 -5 2 52.49 3.2
6 5 -2 56.39 3.3
6 5 -2 57.29 3.2
6 5 -2 57.39 3
-6 -5 2 55.69 3
-6 -5 2 55.09 3.2
-6 -5 2 57.49 3.7
5 5 -2 40.9 2.2
5 5 -2 42.8 2.8
5 5 -2 43.9 2.3
-5 -5 2 43.2 2.2
-5 -5 2 43.3 2.7
-5 -5 2 45.7 2.7
4 5 -2 183.98 7.3
4 5 -2 187.88 7.5
4 5 -2 190.08 7.2
-4 -5 2 175.08 7.5
-4 -5 2 187.48 7.3
-4 -5 2 189.98 7.7
-4 -5 2 189.18 7.3
3 5 -2 30.6 1.7
3 5 -2 36 1.7
3 5 -2 34.7 1.6
3 5 -2 29.7 2.7
-3 -5 2 37.3 1.7
-3 -5 2 31.2 1.6
-3 -5 2 36.7 1.7
-3 -5 2 34.2 1.9
-3 -5 2 31.1 1.8
2 5 -2 612.04 23.1
2 5 -2 638.64 23
2 5 -2 638.94 23.3
2 5 -2 690.93 24.8
-2 -5 2 629.94 23.4
-2 -5 2 620.04 23.3
-2 -5 2 609.44 23
-2 -5 2 621.34 23.2
-2 -5 2 623.34 23.4
1 5 -2 308.27 11.5
1 5 -2 296.97 11.2
1 5 -2 313.17 12.6
-1 -5 2 307.67 11.5
-1 -5 2 304.77 11.5
-1 -5 2 303.87 11.5
-1 -5 2 299.27 11.4
0 5 -2 106.19 5.2
0 5 -2 105.29 4
0 5 -2 107.69 4.2
0 -5 2 106.39 4.3
0 -5 2 105.19 4.3
0 -5 2 103.29 4.3
0 -5 2 109.69 4.3
-1 5 -2 98.49 4.3
-1 5 -2 97.09 5
-1 5 -2 109.39 4
1 -5 2 106.79 3.9
1 -5 2 107.69 4.2
1 -5 2 106.89 4.2
1 -5 2 104.89 4.3
-2 5 -2 112.39 5.1
-2 5 -2 105.99 4.1
-2 5 -2 108.49 4.3
2 -5 2 102.89 4.3
2 -5 2 104.19 4.4
2 -5 2 106.09 4.1
2 -5 2 108.29 4.1
2 -5 2 109.49 4.4
-3 5 -2 152.38 7.1
3 -5 2 156.48 6.3
3 -5 2 160.08 6.2
3 -5 2 167.58 6.2
3 -5 2 158.88 6.3
3 -5 2 163.68 6.4
4 -5 2 149.49 6
4 -5 2 149.09 6.1
4 -5 2 150.98 5.8
4 -5 2 146.09 6
4 -5 2 144.49 5.8
4 -5 2 146.89 5.9
5 -5 2 36.7 2
5 -5 2 39.3 2.1
5 -5 2 39.4 2.2
5 -5 2 37 2.1
5 -5 2 37.8 2
5 -5 2 40.6 2.1
-6 5 -2 149.19 6.2
-6 5 -2 138.89 6.5
-6 5 -2 147.09 6.4
6 -5 2 154.68 6.4
6 -5 2 158.58 6.6
6 -5 2 159.48 6.5
6 -5 2 162.58 6.4
6 -5 2 166.48 6.7
6 -5 2 156.18 6.6
-7 5 -2 4 1
-7 5 -2 4.7 1.1
-7 5 -2 3.6 0.9
-7 5 -2 5.4 1.3
7 -5 2 4.3 2.4
7 -5 2 4.7 1.1
7 -5 2 7.1 1.3
7 -5 2 7.3 1.2
7 -5 2 5.9 1.5
7 4 -2 14.3 1.8
7 4 -2 16 1.8
7 4 -2 16.9 1.9
-7 -4 2 13.9 1.4
-7 -4 2 13 1.7
-7 -4 2 14 2.2
6 4 -2 9.4 1.6
6 4 -2 10.4 1.2
-6 -4 2 9.3 1
-6 -4 2 9.5 1.8
-6 -4 2 10 1.5
5 4 -2 190.88 7.8
5 4 -2 196.08 7.7
5 4 -2 200.48 8
-5 -4 2 205.38 8.2
-5 -4 2 191.58 7.9
-5 -4 2 192.38 7.6
4 4 -2 11.1 0.9
4 4 -2 10.6 1
4 4 -2 12.4 0.8
-4 -4 2 11.4 1.1
-4 -4 2 11.4 0.7
-4 -4 2 12 0.8
-4 -4 2 10.8 0.9
3 4 -2 410.66 15.6
3 4 -2 437.46 15.5
3 4 -2 419.26 15.4
3 4 -2 407.76 16.7
-3 -4 2 416.06 15.8
-3 -4 2 417.46 15.3
-3 -4 2 425.36 15.5
-3 -4 2 406.66 15.6
2 4 -2 381.46 14.2
2 4 -2 384.86 14.4
2 4 -2 392.36 14.2
2 4 -2 397.16 15.4
-2 -4 2 379.26 14.3
-2 -4 2 386.16 14.2
-2 -4 2 389.06 14.4
-2 -4 2 387.06 14.5
1 4 -2 359.26 14.3
1 4 -2 352.96 13.2
1 4 -2 360.06 13.3
-1 -4 2 353.96 13.3
-1 -4 2 346.57 13.1
-1 -4 2 368.96 13.4
-1 -4 2 370.16 13.4
-1 -4 2 364.36 13.4
0 4 -2 3912.81 146.59
0 4 -2 4047.8 147.19
0 -4 2 4156.18 147.39
0 -4 2 4176.08 148.09
0 -4 2 3975.3 148.09
-1 4 -2 225.58 8.5
-1 4 -2 236.58 9.9
-1 4 -2 233.48 8.4
1 -4 2 205.58 8.7
1 -4 2 226.88 8.7
1 -4 2 227.48 8.8
1 -4 2 234.58 8.4
1 -4 2 232.08 8.6
-2 4 -2 215.38 8.5
2 -4 2 231.78 8.6
2 -4 2 231.28 8.6
2 -4 2 235.28 8.8
2 -4 2 233.88 8.6
2 -4 2 233.08 8.8
2 -4 2 238.18 8.8
3 -4 2 339.17 12.3
3 -4 2 330.37 12.2
3 -4 2 345.07 12.2
3 -4 2 301.47 12.2
3 -4 2 300.77 12.2
3 -4 2 329.07 12.2
4 -4 2 52.39 2.4
4 -4 2 50.99 2.4
4 -4 2 51.79 2.5
4 -4 2 50.79 2.4
4 -4 2 51.79 2.3
4 -4 2 52.59 2.4
-5 4 -2 491.95 17.5
-5 4 -2 421.76 17.2
5 -4 2 452.75 17.7
5 -4 2 466.65 17.4
5 -4 2 469.65 17.5
5 -4 2 471.65 17.5
5 -4 2 466.55 17.4
5 -4 2 468.25 17.4
-6 4 -2 0.3 0.5
-6 4 -2 1.1 0.6
-6 4 -2 -0.2 0.6
6 -4 2 1.7 0.8
6 -4 2 0.4 1.3
6 -4 2 0.3 0.6
6 -4 2 2.3 0.6
6 -4 2 1.1 0.6
6 -4 2 1.5 0.7
6 -4 2 0.7 0.8
-7 4 -2 8.9 1.6
-7 4 -2 5.9 1
-7 4 -2 5.5 1.1
7 -4 2 7 1.3
7 -4 2 5.2 1.2
7 -4 2 4.4 1.3
7 -4 2 6.6 1.2
8 3 -2 38.8 2.8
8 3 -2 42.1 3
8 3 -2 36.1 3.5
-8 -3 2 42.5 2.9
-8 -3 2 41 2.8
-8 -3 2 46.3 3.5
7 3 -2 12.5 1.7
7 3 -2 12.6 1.8
7 3 -2 14.1 1.6
-7 -3 2 12.3 1.5
-7 -3 2 10.7 2
-7 -3 2 13.5 1.1
6 3 -2 341.17 12.9
6 3 -2 338.67 12.9
-6 -3 2 338.07 12.6
-6 -3 2 340.07 13.4
-6 -3 2 311.17 12.9
5 3 -2 12.9 1
5 3 -2 11.3 1
5 3 -2 11.6 1.1
-5 -3 2 11.6 1
-5 -3 2 13.5 0.9
-5 -3 2 12.8 1.2
4 3 -2 90.59 3.7
4 3 -2 88.79 3.8
4 3 -2 88.59 3.7
-4 -3 2 91.99 3.6
-4 -3 2 83.79 3.9
-4 -3 2 92.09 3.3
-4 -3 2 83.19 3.8
3 3 -2 855.71 30
3 3 -2 815.42 30.2
3 3 -2 869.31 30.2
3 3 -2 702.53 31
-3 -3 2 828.52 30.2
-3 -3 2 829.92 29.8
-3 -3 2 857.81 30.3
2 3 -2 30 1.5
2 3 -2 32.8 1.4
2 3 -2 31.8 1.4
-2 -3 2 33.2 1.4
-2 -3 2 34.1 1.7
-2 -3 2 32.7 1.6
-2 -3 2 32.6 1.5
-2 -3 2 32 1.4
1 3 -2 1063.39 38.5
1 3 -2 1038.1 38.6
1 3 -2 1085.29 39.4
-1 -3 2 1022.8 38.5
-1 -3 2 1055.49 38.7
-1 -3 2 1096.39 38.6
-1 -3 2 1088.69 38.7
-1 -3 2 1058.39 38.6
0 3 -2 324.67 12
0 3 -2 332.77 12.8
0 -3 2 331.37 12.1
0 -3 2 329.97 12.1
0 -3 2 323.57 11.9
0 -3 2 326.97 12.2
0 -3 2 331.17 12.2
-1 3 -2 86.99 3.6
1 -3 2 95.89 3.6
1 -3 2 96.29 3.8
1 -3 2 94.49 3.8
1 -3 2 101.69 3.8
1 -3 2 97.19 3.6
-2 3 -2 505.55 17.8
2 -3 2 492.25 17.2
2 -3 2 396.06 17.5
2 -3 2 471.05 17.1
2 -3 2 478.55 17.1
2 -3 2 464.65 17.5
3 -3 2 122.89 5
3 -3 2 125.39 5
3 -3 2 129.19 4.9
3 -3 2 125.39 4.9
3 -3 2 119.49 4.9
-4 3 -2 487.15 20.1
4 -3 2 576.04 20.2
4 -3 2 553.24 20.4
4 -3 2 533.15 20.2
4 -3 2 558.74 20.3
4 -3 2 549.45 20.2
4 -3 2 562.94 20.3
-5 3 -2 140.69 5.4
-5 3 -2 119.29 5.5
-5 3 -2 142.79 5.6
5 -3 2 138.29 5.5
5 -3 2 137.79 5.6
5 -3 2 130.69 5.7
5 -3 2 130.19 5.4
5 -3 2 134.09 5.5
5 -3 2 137.49 5.7
-6 3 -2 1 0.5
-6 3 -2 1 0.6
-6 3 -2 -0.8 0.9
6 -3 2 0.2 0.6
6 -3 2 0.9 0.6
6 -3 2 1.3 0.8
6 -3 2 1.1 2.7
6 -3 2 0.5 1.1
6 -3 2 0.8 0.6
-7 3 -2 46.1 3.3
-7 3 -2 49 2.8
7 -3 2 50.29 2.9
7 -3 2 51.99 3.1
7 -3 2 45.1 3
7 -3 2 42 3
-8 3 -2 1 1.4
-8 3 -2 0.8 0.7
-8 3 -2 0.9 0.9
8 -3 2 0.5 1.8
8 -3 2 0.4 1.1
8 -3 2 -1 1.1
8 -3 2 1 1
8 2 -2 2.7 1
8 2 -2 2.4 1
8 2 -2 4.9 1.1
-8 -2 2 3.5 1.1
-8 -2 2 3.2 1.4
-8 -2 2 3.9 0.9
7 2 -2 179.08 7.6
7 2 -2 176.08 7.6
7 2 -2 181.08 7.5
-7 -2 2 178.98 7
-7 -2 2 177.18 7.5
-7 -2 2 178.18 8
6 2 -2 147.59 6.3
6 2 -2 149.19 6.2
6 2 -2 152.38 6.2
-6 -2 2 138.99 6.2
-6 -2 2 161.98 6.7
-6 -2 2 152.98 5.9
5 2 -2 51.19 2.5
5 2 -2 50.09 2.4
5 2 -2 50.59 2.4
-5 -2 2 50.19 2.4
-5 -2 2 47.1 2.6
-5 -2 2 52.59 2.2
4 2 -2 509.35 19.3
4 2 -2 525.15 19.2
4 2 -2 516.05 19.2
-4 -2 2 525.25 19.6
-4 -2 2 531.15 19.5
-4 -2 2 514.35 19.1
3 2 -2 133.69 5.2
3 2 -2 138.39 5.3
3 2 -2 131.19 5.2
-3 -2 2 127.49 4.9
-3 -2 2 134.29 5.4
-3 -2 2 136.59 5.1
-3 -2 2 136.09 5.3
2 2 -2 604.84 21.6
2 2 -2 574.84 21.6
2 2 -2 593.94 22.4
2 2 -2 577.54 21.7
-2 -2 2 603.94 21.8
-2 -2 2 615.24 21.6
-2 -2 2 596.84 21.5
-2 -2 2 589.54 21.7
-2 -2 2 576.24 21.6
1 2 -2 53.59 2.2
1 2 -2 56.29 2.7
1 2 -2 52.69 2.1
-1 -2 2 54.19 2.3
-1 -2 2 55.09 2.2
-1 -2 2 55.49 2.2
-1 -2 2 55.09 2.2
0 2 -2 83.59 3.3
0 2 -2 88.59 3.8
0 -2 2 89.19 3.4
0 -2 2 90.89 3.5
0 -2 2 90.99 3.3
0 -2 2 86.09 3.4
0 -2 2 85.29 3.4
-1 2 -2 1282.47 49.1
1 -2 2 1319.47 48.9
1 -2 2 1348.07 48.9
1 -2 2 1453.25 49.1
1 -2 2 1369.86 48.9
1 -2 2 1357.76 48.9
1 -2 2 1318.87 48.9
-2 2 -2 1.2 0.3
2 -2 2 2.1 0.3
2 -2 2 2.4 0.4
2 -2 2 2.1 0.4
2 -2 2 2.1 0.4
2 -2 2 1.7 0.4
2 -2 2 2.2 0.4
-3 2 -2 1.8 0.4
-3 2 -2 1.6 0.3
3 -2 2 1.4 0.3
3 -2 2 1.4 0.3
3 -2 2 1.4 0.3
3 -2 2 1.9 0.4
3 -2 2 1.6 0.3
3 -2 2 1.8 0.3
-4 2 -2 17.6 1.1
-4 2 -2 18.3 1.2
-4 2 -2 18.5 1.1
4 -2 2 19 1.1
4 -2 2 18.2 1.2
4 -2 2 18.7 1.2
4 -2 2 18.5 1.2
4 -2 2 20.8 1.2
-5 2 -2 23.9 1.4
-5 2 -2 24.6 1.5
5 -2 2 21.5 1.5
5 -2 2 24.9 1.6
5 -2 2 23.8 1.5
5 -2 2 22.2 1.4
-6 2 -2 175.08 7.3
-6 2 -2 181.08 7.6
-6 2 -2 191.38 7.2
6 -2 2 185.48 7.7
6 -2 2 180.58 7.5
6 -2 2 183.48 7.5
-7 2 -2 0.1 1.1
-7 2 -2 1.5 0.9
-7 2 -2 0.8 0.7
7 -2 2 1.9 0.9
7 -2 2 1.2 0.9
7 -2 2 -1.4 1.4
-8 2 -2 34.2 2.4
-8 2 -2 37.2 2.7
8 -2 2 39.6 2.9
8 -2 2 37.7 2.9
8 -2 2 38.8 2.9
8 1 -2 51.29 3.1
8 1 -2 50.49 3
8 1 -2 47.2 3
-8 -1 2 50.49 3
-8 -1 2 48.7 3.4
-8 -1 2 48.6 2.9
7 1 -2 20.8 2.1
7 1 -2 21.6 2.1
7 1 -2 23.1 2.1
-7 -1 2 21.7 1.3
-7 -1 2 20.3 1.6
-7 -1 2 20.8 2.4
6 1 -2 7.1 0.9
6 1 -2 9.3 1.1
6 1 -2 8.7 1
-6 -1 2 7.8 1.2
-6 -1 2 8.9 0.7
5 1 -2 102.29 4.5
5 1 -2 110.19 4.7
5 1 -2 111.29 4.6
-5 -1 2 110.99 4.3
-5 -1 2 110.99 4.9
-5 -1 2 119.69 4.6
4 1 -2 1.8 0.4
4 1 -2 2.7 0.4
-4 -1 2 1.8 0.3
-4 -1 2 2.8 0.5
-4 -1 2 1.8 0.3
3 1 -2 383.96 13.9
3 1 -2 379.96 14
3 1 -2 378.16 13.9
-3 -1 2 359.16 13.9
-3 -1 2 383.96 14.1
-3 -1 2 375.56 13.7
-3 -1 2 371.56 13.9
2 1 -2 11.6 0.7
2 1 -2 12.2 0.6
2 1 -2 12.6 0.6
2 1 -2 12.3 1.2
2 1 -2 12.3 0.7
-2 -1 2 11.9 0.6
-2 -1 2 12.2 0.7
-2 -1 2 10.8 0.7
-2 -1 2 11.8 0.5
1 1 -2 0.5 0.2
1 1 -2 0.8 0.4
1 1 -2 0.5 0.2
-1 -1 2 0.6 0.2
-1 -1 2 0.7 0.2
-1 -1 2 0.5 0.2
-1 -1 2 0.4 0.2
0 1 -2 1078.39 44.4
0 -1 2 1243.58 44.7
0 -1 2 1248.28 44.7
0 -1 2 1227.08 44.4
0 -1 2 1239.48 44.3
0 -1 2 1172.48 44.3
0 -1 2 1352.06 44.5
-1 1 -2 1434.56 53.49
-1 1 -2 1478.35 53.39
1 -1 2 1436.86 53.19
1 -1 2 1501.35 53.39
1 -1 2 1481.95 53.49
1 -1 2 1502.35 53.59
1 -1 2 1377.86 53.09
1 -1 2 1517.55 53.09
-2 1 -2 3158.58 112.59
-2 1 -2 2982.9 113.49
2 -1 2 2942.11 113.19
2 -1 2 3165.38 113.49
2 -1 2 2871.21 112.99
2 -1 2 3362.86 113.19
2 -1 2 3226.38 113.09
-3 1 -2 396.76 14.9
-3 1 -2 360.86 14.7
3 -1 2 403.26 15
3 -1 2 399.36 14.8
3 -1 2 399.76 14.9
3 -1 2 425.46 14.9
3 -1 2 407.76 15
-4 1 -2 6.1 0.7
-4 1 -2 4.8 0.7
-4 1 -2 4.6 0.6
4 -1 2 4 0.6
4 -1 2 4.8 0.7
4 -1 2 4.2 0.7
-5 1 -2 307.17 11
-5 1 -2 273.07 11.2
-5 1 -2 291.87 11.2
5 -1 2 298.47 11.2
5 -1 2 282.17 11.3
5 -1 2 288.67 11.3
5 -1 2 289.27 11.2
-6 1 -2 32.1 2.7
-6 1 -2 28.4 1.7
-6 1 -2 28.3 2.5
6 -1 2 29.1 2.3
6 -1 2 29.1 1.9
-7 1 -2 68.39 3.7
-7 1 -2 70.69 4.2
-7 1 -2 76.09 3.7
7 -1 2 73.19 3.8
7 -1 2 75.39 4
7 -1 2 72.19 3.9
8 0 -2 17.9 1.9
8 0 -2 18.4 2
8 0 -2 16.7 1.8
-8 0 2 18.9 1.8
-8 0 2 18.8 2.2
-8 0 2 18.9 1.8
7 0 -2 8.2 1.6
7 0 -2 8.3 1.6
-7 0 2 8.1 1
-7 0 2 8.3 1.7
-7 0 2 7.5 0.8
6 0 -2 367.06 13.9
6 0 -2 365.86 14
6 0 -2 365.46 13.9
-6 0 2 337.77 13.7
-6 0 2 386.26 14.3
-6 0 2 367.36 13.8
5 0 -2 78.29 3.5
5 0 -2 83.69 3.5
5 0 -2 87.29 3.6
-5 0 2 76.69 3.4
-5 0 2 80.39 3.2
-5 0 2 80.19 3.7
4 0 -2 1216.58 44.2
4 0 -2 1211.78 44.2
4 0 -2 1227.78 44.2
-4 0 2 1126.39 44.1
-4 0 2 1173.98 43.9
-4 0 2 1322.97 44.5
3 0 -2 107.69 4.1
3 0 -2 109.99 4.4
3 0 -2 99.49 4.1
-3 0 2 101.89 3.9
-3 0 2 106.79 4
-3 0 2 106.89 4.1
-3 0 2 100.29 4.2
2 0 -2 1397.16 50.19
2 0 -2 1323.67 50.89
2 0 -2 1362.06 50.09
2 0 -2 1433.46 50.09
2 0 -2 1331.27 49.99
-2 0 2 1263.17 49.9
-2 0 2 1465.25 50.09
-2 0 2 1459.45 50.39
1 0 -2 45 1.9
1 0 -2 49.4 1.9
1 0 -2 50.49 1.9
1 0 -2 49 1.9
-1 0 2 50.49 1.9
-1 0 2 48.7 1.9
-1 0 2 45.4 1.9
-1 0 2 45.4 1.9
-1 0 2 48.6 2
0 0 -2 13.3 0.8
0 0 -2 10.1 0.8
0 0 2 11.6 0.8
0 0 2 11.3 0.7
0 0 2 12.2 0.8
0 0 2 11.2 0.6
0 0 2 11.6 0.7
-1 0 -2 1628.24 65.89
1 0 2 1724.63 65.79
1 0 2 1843.02 65.79
1 0 2 1924.11 65.49
1 0 2 1893.61 65.59
-2 0 -2 55.29 2.5
-2 0 -2 54.29 2.5
-2 0 -2 63.29 2.6
2 0 2 60.89 2.4
2 0 2 63.29 2.6
2 0 2 59.09 2.5
2 0 2 60.49 2.5
-3 0 -2 144.59 5.6
-3 0 -2 161.68 5.8
-3 0 -2 133.69 5.7
3 0 2 144.39 5.7
3 0 2 146.99 5.7
3 0 2 140.59 5.8
3 0 2 137.79 5.7
-4 0 -2 749.23 28.2
-4 0 -2 745.03 28.1
4 0 2 777.42 28.1
4 0 2 770.32 28.1
4 0 2 779.82 28.3
4 0 2 752.92 28.2
-5 0 -2 248.98 9.5
-5 0 -2 236.88 9.3
-5 0 -2 238.18 9.1
5 0 2 236.68 9.5
5 0 2 229.68 9.4
5 0 2 241.08 9.3
-6 0 -2 251.27 10.1
-6 0 -2 242.98 10.5
-6 0 -2 263.37 9.8
6 0 2 240.78 10.1
6 0 2 243.98 9.9
6 0 2 247.48 10
-7 0 -2 50.49 3.6
-7 0 -2 54.09 3.1
-7 0 -2 53.09 3
7 0 2 55.89 3.3
7 0 2 51.39 3.2
7 0 2 58.19 3.2
9 -1 -2 1.8 1.2
9 -1 -2 1 1
9 -1 -2 -0.3 1
-9 1 2 0 1.3
-9 1 2 0.2 0.9
-9 1 2 -0.2 1.2
8 -1 -2 61.09 3.6
8 -1 -2 62.99 3.4
8 -1 -2 65.19 3.6
-8 1 2 70.99 4
-8 1 2 61.69 3.5
-8 1 2 70.89 3.5
7 -1 -2 157.18 6.7
-7 1 2 164.88 6.5
-7 1 2 151.58 7
6 -1 -2 27.5 1.7
6 -1 -2 28.1 1.7
6 -1 -2 27.8 1.9
-6 1 2 29.5 1.4
-6 1 2 28.1 1.6
-6 1 2 27.8 1.8
5 -1 -2 155.28 6.4
5 -1 -2 161.98 6.6
5 -1 -2 155.38 6.5
5 -1 -2 157.08 6
-5 1 2 164.78 6.6
-5 1 2 175.08 6.7
-5 1 2 162.38 6.3
-5 1 2 164.18 6.1
4 -1 -2 581.74 21.2
4 -1 -2 596.44 23.4
4 -1 -2 566.74 20.9
4 -1 -2 595.14 21.3
4 -1 -2 561.74 21.2
-4 1 2 582.44 20.9
-4 1 2 549.45 21.3
-4 1 2 553.14 21.1
-4 1 2 592.34 21.2
3 -1 -2 512.85 19.4
3 -1 -2 536.35 19.4
3 -1 -2 526.95 19.1
3 -1 -2 498.25 19.1
3 -1 -2 517.55 19.3
-3 1 2 551.54 19.1
-3 1 2 526.05 19.3
-3 1 2 539.25 19.4
-3 1 2 524.95 19.2
2 -1 -2 8484.65 332.87
2 -1 -2 9932.71 333.57
2 -1 -2 9805.32 340.77
2 -1 -2 9085.99 333.37
-2 1 2 8439.86 333.27
-2 1 2 9999 333.17
-2 1 2 8936.21 333.57
-2 1 2 8976 332.27
1 -1 -2 1728.73 63.89
1 -1 -2 1673.23 65.59
1 -1 -2 1725.43 64.29
1 -1 -2 1713.53 63.79
-1 1 2 1808.12 64.09
-1 1 2 1829.12 64.19
-1 1 2 1847.42 64.09
0 -1 -2 161.08 6.1
0 -1 -2 157.38 6.1
0 -1 -2 156.38 6.1
0 1 2 180.78 6.2
0 1 2 161.78 6.1
0 1 2 165.88 6
0 1 2 159.98 6.1
0 1 2 156.38 6.1
-1 -1 -2 1737.13 64.79
-1 -1 -2 1606.94 64.79
-1 -1 -2 1705.33 64.99
1 1 2 1889.11 64.49
1 1 2 1791.02 64.59
1 1 2 1718.03 64.89
1 1 2 1936.91 64.89
1 1 2 1737.03 64.99
1 1 2 1912.81 64.49
-2 -1 -2 35.1 1.7
-2 -1 -2 33.2 1.6
-2 -1 -2 34.8 1.7
2 1 2 34.1 1.7
2 1 2 33.5 1.6
2 1 2 36.4 1.7
2 1 2 35.2 1.6
-3 -1 -2 511.75 20.1
-3 -1 -2 549.54 20.3
-3 -1 -2 544.55 20.3
3 1 2 546.75 20.2
3 1 2 546.45 20.2
3 1 2 571.84 20.2
-4 -1 -2 16.8 1.2
-4 -1 -2 17.3 1.2
-4 -1 -2 18.1 1.1
4 1 2 17.9 1.2
4 1 2 17.9 1.2
4 1 2 18.4 1.3
-5 -1 -2 2.9 0.6
-5 -1 -2 1.1 0.5
-5 -1 -2 2.1 0.5
-5 -1 -2 2.1 0.8
5 1 2 0.9 1
5 1 2 2.7 0.6
5 1 2 1.6 0.6
5 1 2 2.1 0.5
-6 -1 -2 118.09 6.1
-6 -1 -2 136.79 5.8
-6 -1 -2 116.69 5.7
6 1 2 129.29 5.6
6 1 2 130.79 5.7
6 1 2 129.89 5.7
-7 -1 -2 0.1 0.8
-7 -1 -2 1 0.7
-7 -1 -2 1.6 1.2
7 1 2 0.8 0.9
7 1 2 -0.3 0.9
7 1 2 1.1 1
9 -2 -2 60.99 3.7
9 -2 -2 54.49 3.4
9 -2 -2 63.29 3.6
-9 2 2 62.59 3.2
-9 2 2 54.89 3.6
-9 2 2 50.69 3.8
8 -2 -2 239.68 10.3
8 -2 -2 250.97 10.5
8 -2 -2 253.47 10.5
-8 2 2 284.47 10.5
-8 2 2 256.77 10.9
-8 2 2 258.37 10.2
7 -2 -2 32.9 2.3
7 -2 -2 32.2 2.2
7 -2 -2 31 3
-7 2 2 32.2 2.2
-7 2 2 36.5 1.9
-7 2 2 32.4 2.4
6 -2 -2 0.4 0.4
6 -2 -2 0.2 0.3
6 -2 -2 0.5 0.5
6 -2 -2 -1.4 2.9
6 -2 -2 1.7 0.5
-6 2 2 0.1 0.5
-6 2 2 0.6 0.3
-6 2 2 0.4 0.3
-6 2 2 0 0.5
5 -2 -2 196.88 7.5
5 -2 -2 193.28 7.8
5 -2 -2 201.58 7.8
5 -2 -2 202.58 7.9
-5 2 2 196.18 8
-5 2 2 197.48 7.8
-5 2 2 208.58 7.7
-5 2 2 205.78 7.5
4 -2 -2 22.9 1.1
4 -2 -2 21.6 1.2
4 -2 -2 22.7 1.1
4 -2 -2 23.1 1.2
4 -2 -2 23.9 1.3
-4 2 2 25.2 1.4
-4 2 2 24.8 1.3
-4 2 2 26.1 1.1
3 -2 -2 504.45 18.6
3 -2 -2 482.55 18.8
3 -2 -2 514.15 18.7
3 -2 -2 498.35 18.5
-3 2 2 516.65 18.7
-3 2 2 516.05 18.5
-3 2 2 527.65 18.7
2 -2 -2 394.16 14.8
2 -2 -2 410.06 14.8
2 -2 -2 407.56 14.8
2 -2 -2 397.76 14.6
-2 2 2 404.86 14.8
-2 2 2 410.86 14.7
-2 2 2 390.56 14.8
1 -2 -2 55.19 2.2
1 -2 -2 59.59 2.4
1 -2 -2 55.99 2.3
1 -2 -2 58.69 2.4
-1 2 2 56.99 2.4
-1 2 2 57.39 2.3
-1 2 2 61.09 2.4
-1 2 2 63.09 2.4
0 -2 -2 245.18 9.6
0 -2 -2 261.67 9.6
0 -2 -2 264.07 9.7
0 2 2 261.67 9.6
0 2 2 265.37 9.6
0 2 2 260.47 9.7
-1 -2 -2 4.3 0.6
-1 -2 -2 4 0.5
-1 -2 -2 4.1 0.5
1 2 2 3.6 0.6
1 2 2 4.2 0.7
1 2 2 5.5 0.5
-2 -2 -2 935.51 34.8
-2 -2 -2 939.81 34.8
-2 -2 -2 919.21 34.7
2 2 2 978.9 34.7
2 2 2 959.9 34.7
2 2 2 969.2 34.7
-3 -2 -2 187.68 7.5
-3 -2 -2 182.38 7.3
-3 -2 -2 196.18 7.5
3 2 2 192.98 7.5
3 2 2 193.78 7.4
3 2 2 184.38 7.4
-4 -2 -2 32.5 2
-4 -2 -2 37.9 1.9
-4 -2 -2 35.2 1.7
-4 -2 -2 34.9 2.1
4 2 2 33.5 1.9
4 2 2 33.6 1.9
4 2 2 33.8 1.9
-5 -2 -2 79.39 4
-5 -2 -2 78.49 3.2
-5 -2 -2 79.49 3.6
5 2 2 79.29 3.7
5 2 2 65.19 4
5 2 2 80.19 3.7
-6 -2 -2 10.7 1.6
-6 -2 -2 9.6 1.5
-6 -2 -2 11.6 2
6 2 2 10.2 1.5
6 2 2 13.2 1.6
6 2 2 10.3 1.7
-7 -2 -2 55.79 3.5
-7 -2 -2 55.79 4
-7 -2 -2 58.79 3.2
7 2 2 64.39 3.6
7 2 2 66.19 3.7
7 2 2 59.49 3.6
9 -3 -2 43 3.1
9 -3 -2 43.3 3.2
9 -3 -2 43.6 3.1
-9 3 2 47.4 3
-9 3 2 48.5 2.7
-9 3 2 49.5 3.4
8 -3 -2 43.9 2.8
8 -3 -2 43.1 2.7
8 -3 -2 42.3 2.9
-8 3 2 45.3 2.8
-8 3 2 44.3 2.4
-8 3 2 42.6 3
7 -3 -2 73.79 3.7
7 -3 -2 67.99 3.7
-7 3 2 69.29 3.6
-7 3 2 70.99 3.2
-7 3 2 67.49 4.1
6 -3 -2 325.97 12.6
6 -3 -2 321.27 12.6
6 -3 -2 331.27 12.7
6 -3 -2 330.87 12.2
6 -3 -2 322.67 12.3
-6 3 2 350.46 12.3
-6 3 2 316.37 12.5
-6 3 2 328.17 12.3
-6 3 2 324.97 12.8
5 -3 -2 88.59 3.8
5 -3 -2 87.09 3.8
5 -3 -2 89.79 3.5
5 -3 -2 91.09 3.8
-5 3 2 88.09 3.9
-5 3 2 89.99 3.6
-5 3 2 86.09 3.7
4 -3 -2 296.37 11.4
4 -3 -2 293.47 11.3
4 -3 -2 301.27 11.4
4 -3 -2 306.87 11.2
4 -3 -2 303.97 11.1
4 -3 -2 299.97 11.4
-4 3 2 296.07 11.3
-4 3 2 320.17 11.2
-4 3 2 298.27 11.4
3 -3 -2 294.97 11.1
3 -3 -2 297.37 11.1
3 -3 -2 301.07 10.9
3 -3 -2 307.47 10.8
3 -3 -2 292.87 11
-3 3 2 293.67 11
-3 3 2 297.77 11
-3 3 2 283.37 11
2 -3 -2 261.37 9.6
2 -3 -2 249.88 9.3
2 -3 -2 258.67 9.5
-2 3 2 257.47 9.5
-2 3 2 255.57 9.6
-2 3 2 256.77 9.4
1 -3 -2 242.28 9.2
1 -3 -2 243.88 9.1
1 -3 -2 244.48 9
-1 3 2 241.48 9.2
-1 3 2 250.07 9.2
-1 3 2 250.37 9.1
0 -3 -2 36.6 1.5
0 3 2 36.6 1.5
0 3 2 29.6 2
-1 -3 -2 144.69 5.7
-1 -3 -2 144.89 5.7
1 3 2 147.39 5.6
1 3 2 145.39 6.1
1 3 2 155.78 5.8
1 3 2 140.99 5.7
1 3 2 144.99 5.7
-2 -3 -2 295.07 11
-2 -3 -2 295.67 10.9
-2 -3 -2 273.87 10.9
-2 -3 -2 288.07 10.8
2 3 2 313.97 11.1
2 3 2 277.47 10.9
2 3 2 274.67 10.8
2 3 2 276.47 10.8
-3 -3 -2 131.09 5.5
-3 -3 -2 133.79 5.6
-3 -3 -2 139.69 5.6
-3 -3 -2 136.69 5.3
3 3 2 126.69 5.5
3 3 2 133.09 5.4
3 3 2 131.89 5.7
3 3 2 134.19 5.4
-4 -3 -2 161.88 6.8
-4 -3 -2 162.18 6.3
-4 -3 -2 158.78 6.7
-4 -3 -2 157.38 6.6
4 3 2 160.48 6.6
4 3 2 161.58 6.6
4 3 2 161.48 6.6
-5 -3 -2 8 1.5
-5 -3 -2 7.2 1.3
-5 -3 -2 6.7 1.3
5 3 2 3.8 1.4
5 3 2 6.3 1.2
5 3 2 6.7 1.1
5 3 2 7.4 1.3
-6 -3 -2 15.1 1.7
-6 -3 -2 14.6 2.1
-6 -3 -2 16 1.6
6 3 2 13.9 2
6 3 2 13 2
6 3 2 10 2.1
6 3 2 15.1 1.7
9 -4 -2 5.2 1.3
9 -4 -2 6.7 1.4
9 -4 -2 10 1.7
-9 4 2 9.9 1.5
8 -4 -2 17.2 1.9
8 -4 -2 12.9 1.9
8 -4 -2 16.2 1.8
-8 4 2 14.1 1.7
-8 4 2 14.3 1.4
-8 4 2 16.3 2.2
7 -4 -2 109.39 5.2
7 -4 -2 104.29 5.6
7 -4 -2 104.69 4.4
7 -4 -2 112.09 5
-7 4 2 110.89 4.5
-7 4 2 106.59 4.9
6 -4 -2 0 0.5
6 -4 -2 0 0.4
6 -4 -2 0.3 0.5
6 -4 -2 -1.8 3.7
6 -4 -2 -0.5 0.4
6 -4 -2 0.9 0.5
-6 4 2 0.7 0.5
-6 4 2 1.1 0.4
-6 4 2 0.2 0.5
-6 4 2 0.3 0.5
5 -4 -2 120.69 4.7
5 -4 -2 114.89 4.9
5 -4 -2 113.79 4.8
5 -4 -2 118.09 5
5 -4 -2 121.89 4.6
5 -4 -2 118.89 4.7
-5 4 2 117.29 4.8
-5 4 2 116.29 4.9
-5 4 2 122.19 4.6
4 -4 -2 37.6 1.5
4 -4 -2 35.6 1.6
4 -4 -2 34 1.7
4 -4 -2 32.4 1.7
4 -4 -2 35.6 1.7
-4 4 2 31.9 1.6
-4 4 2 30.9 1.5
-4 4 2 32.2 1.6
3 -4 -2 65.69 2.5
3 -4 -2 63.79 2.7
3 -4 -2 64.69 2.6
3 -4 -2 52.29 4.9
3 -4 -2 63.39 2.7
-3 4 2 63.79 2.7
-3 4 2 62.89 2.5
-3 4 2 64.69 2.6
2 -4 -2 544.45 19.6
2 -4 -2 558.54 19.9
2 -4 -2 553.34 19.9
2 -4 -2 559.04 19.8
-2 4 2 526.65 19.8
-2 4 2 499.05 19.8
-2 4 2 534.15 19.7
1 -4 -2 42.5 1.8
1 -4 -2 44 1.9
1 -4 -2 41.5 2
-1 4 2 46.4 2
-1 4 2 45 2
-1 4 2 43 1.9
0 -4 -2 94.09 3.9
0 -4 -2 100.89 4.1
0 -4 -2 100.29 4.1
0 -4 -2 100.19 4
0 4 2 107.89 5
0 4 2 103.09 4.1
0 4 2 99.69 4.1
0 4 2 103.19 4
-1 -4 -2 125.09 4.9
-1 -4 -2 123.09 4.9
-1 -4 -2 127.69 5
-1 -4 -2 127.29 4.9
1 4 2 116.69 5
1 4 2 125.49 4.9
1 4 2 123.89 5
1 4 2 116.19 5.6
-2 -4 -2 135.39 5.6
-2 -4 -2 134.59 5.5
-2 -4 -2 150.68 5.6
-2 -4 -2 134.49 5.6
2 4 2 134.39 5.4
2 4 2 136.39 5.6
2 4 2 131.59 5.5
2 4 2 141.69 5.8
-3 -4 -2 433.26 16.7
-3 -4 -2 449.56 16.7
-3 -4 -2 430.66 16.4
-3 -4 -2 421.66 16.6
3 4 2 420.56 16.4
3 4 2 486.05 17.1
3 4 2 420.96 16.5
3 4 2 444.16 16.8
-4 -4 -2 11.1 1.2
-4 -4 -2 8.1 1.2
-4 -4 -2 11.7 1
-4 -4 -2 10.4 1.3
4 4 2 10.1 1.1
4 4 2 8.3 1.3
4 4 2 12.1 1.3
4 4 2 6.1 1.3
-5 -4 -2 77.89 3.9
-5 -4 -2 81.59 4.7
-5 -4 -2 79.59 4.1
5 4 2 85.29 4.1
5 4 2 79.89 4.1
5 4 2 78.69 4.2
5 4 2 78.19 4.7
-6 -4 -2 76.19 4
-6 -4 -2 80.59 4.7
-6 -4 -2 78.59 4.3
6 4 2 81.39 4.3
6 4 2 75.09 4.1
6 4 2 80.89 4.3
8 -5 -2 50.59 3.9
8 -5 -2 53.99 3.3
8 -5 -2 55.69 3.2
-8 5 2 53.89 3.1
-8 5 2 53.29 3.5
7 -5 -2 2.6 1.1
7 -5 -2 3 1.1
7 -5 -2 -1.3 7.7
7 -5 -2 3.4 0.6
-7 5 2 1.1 0.9
-7 5 2 2.5 0.7
-7 5 2 5.3 1.9
6 -5 -2 110.39 4.5
6 -5 -2 108.99 4.7
6 -5 -2 105.29 4.4
6 -5 -2 106.09 4.8
6 -5 -2 103.79 4.5
6 -5 -2 106.79 4.7
-6 5 2 112.19 4.7
-6 5 2 109.99 4.6
-6 5 2 116.59 4.4
-6 5 2 110.19 4.6
5 -5 -2 206.78 7.6
5 -5 -2 205.88 7.8
5 -5 -2 192.48 7.8
5 -5 -2 203.08 7.6
5 -5 -2 199.58 7.9
-5 5 2 188.88 7.8
-5 5 2 195.48 7.7
-5 5 2 207.58 7.8
-5 5 2 191.78 7.5
4 -5 -2 3.5 0.6
4 -5 -2 4.1 0.5
4 -5 -2 3.3 0.5
4 -5 -2 3.6 0.6
4 -5 -2 2.4 2.6
-4 5 2 4.7 0.6
-4 5 2 5.1 0.6
-4 5 2 5.4 0.7
3 -5 -2 317.57 11.5
3 -5 -2 316.07 11.9
3 -5 -2 316.57 11.7
3 -5 -2 313.87 11.9
-3 5 2 321.17 11.8
-3 5 2 302.37 11.5
-3 5 2 310.17 11.8
2 -5 -2 90.49 3.6
2 -5 -2 89.39 3.4
2 -5 -2 86.99 3.7
-2 5 2 86.69 3.5
-2 5 2 82.39 3.6
-2 5 2 88.79 3.6
1 -5 -2 591.84 21.2
1 -5 -2 553.04 21.2
1 -5 -2 580.74 21
-1 5 2 556.34 21.1
-1 5 2 583.44 21
0 -5 -2 325.97 12.7
0 -5 -2 344.37 13.2
0 -5 -2 361.26 13.1
0 -5 -2 339.07 13.1
0 5 2 359.56 13.1
0 5 2 342.27 13.1
0 5 2 349.77 14
0 5 2 357.46 12.9
-1 -5 -2 23.6 1.4
-1 -5 -2 25.8 1.4
-1 -5 -2 25 1.4
-1 -5 -2 24.1 1.4
1 5 2 25.6 2.1
1 5 2 27.2 1.5
1 5 2 26.3 1.4
-2 -5 -2 397.86 14.7
-2 -5 -2 373.76 14.6
-2 -5 -2 387.46 14.6
-2 -5 -2 379.76 14.5
2 5 2 386.26 14.6
2 5 2 386.76 14.6
2 5 2 384.16 14.4
-3 -5 -2 98.49 4.5
-3 -5 -2 95.49 4.5
-3 -5 -2 102.69 4.3
-3 -5 -2 98.19 4.5
3 5 2 102.99 4.5
3 5 2 103.99 4.5
3 5 2 103.39 4.3
-4 -5 -2 32.1 2.4
-4 -5 -2 30.5 2.3
-4 -5 -2 28 1.7
-4 -5 -2 30.5 2.2
4 5 2 30 2.4
4 5 2 26.6 1.8
4 5 2 28.2 2.3
-5 -5 -2 21.9 2.9
-5 -5 -2 20.5 1.9
-5 -5 -2 20.6 2.1
5 5 2 23.2 2.2
5 5 2 21.7 2.3
5 5 2 22.4 2.1
8 -6 -2 12.9 2
8 -6 -2 18 1.9
8 -6 -2 15.7 2
-8 6 2 12.3 2.1
-8 6 2 18.5 2
-8 6 2 15.6 1.7
7 -6 -2 35.5 2.6
7 -6 -2 33.4 2.4
7 -6 -2 32.6 2.1
7 -6 -2 34.9 2.5
-7 6 2 33.9 2.4
-7 6 2 34.7 2.4
-7 6 2 35.3 2.3
6 -6 -2 198.28 7.8
6 -6 -2 193.78 8.9
6 -6 -2 203.48 8.1
6 -6 -2 200.88 8
-6 6 2 215.18 8.1
-6 6 2 189.28 8
-6 6 2 207.58 8
5 -6 -2 55.69 2.8
5 -6 -2 58.29 2.8
5 -6 -2 56.09 2.6
5 -6 -2 59.89 2.9
5 -6 -2 60.29 2.5
-5 6 2 57.09 2.6
-5 6 2 54.79 2.7
4 -6 -2 354.66 13.9
4 -6 -2 357.76 13.9
4 -6 -2 352.66 13.6
4 -6 -2 364.76 13.4
-4 6 2 353.96 13.7
-4 6 2 398.26 13.8
-4 6 2 364.26 13.6
3 -6 -2 96.49 3.6
3 -6 -2 95.19 4
3 -6 -2 90.79 4
3 -6 -2 97.99 3.9
-3 6 2 93.89 3.8
-3 6 2 88.19 3.9
-3 6 2 84.49 3.9
2 -6 -2 114.59 4.7
2 -6 -2 117.99 4.9
2 -6 -2 115.19 4.5
-2 6 2 114.99 4.8
-2 6 2 115.89 4.5
-2 6 2 117.49 4.7
1 -6 -2 711.13 27.1
1 -6 -2 740.03 26.4
1 -6 -2 690.03 26.6
-1 6 2 716.33 26.4
-1 6 2 811.42 27.9
-1 6 2 703.63 26.6
-1 6 2 675.83 26.6
0 -6 -2 36.1 1.9
0 -6 -2 34.1 1.6
0 -6 -2 34 1.8
0 6 2 30.9 2.6
0 6 2 35 1.6
0 6 2 32.7 1.9
0 6 2 33.8 1.8
-1 -6 -2 35.2 2
-1 -6 -2 36.1 1.8
-1 -6 -2 35.8 1.9
-1 -6 -2 34.6 1.9
1 6 2 37.3 2
1 6 2 36.3 1.8
1 6 2 34.7 2.9
1 6 2 35.2 1.9
-2 -6 -2 0.5 0.7
-2 -6 -2 1.2 0.6
-2 -6 -2 1.3 0.6
-2 -6 -2 1.5 0.5
2 6 2 0.5 0.6
2 6 2 0.7 0.5
2 6 2 0.2 1.4
2 6 2 0.2 0.6
-3 -6 -2 21.9 2.2
-3 -6 -2 26.4 1.9
-3 -6 -2 20.3 1.5
-3 -6 -2 24 1.8
3 6 2 20.1 1.5
3 6 2 21.1 2.1
3 6 2 23.2 2.2
-4 -6 -2 145.29 6.7
-4 -6 -2 161.08 6.9
-4 -6 -2 140.29 6.1
-4 -6 -2 147.49 6.5
4 6 2 140.39 6.2
4 6 2 154.38 6.7
4 6 2 151.58 6.6
-5 -6 -2 0.2 0.9
-5 -6 -2 1 1
5 6 2 1.8 1.2
5 6 2 -0.8 1
8 -7 -2 8 1.4
8 -7 -2 5.6 1.4
8 -7 -2 5.7 1.4
-8 7 2 8.2 1.2
7 -7 -2 71.79 3.9
7 -7 -2 66.89 3.7
7 -7 -2 69.39 3.6
-7 7 2 66.19 3.5
-7 7 2 69.39 3.9
6 -7 -2 9.3 1
6 -7 -2 7.5 1.5
-6 7 2 9.8 1.9
-6 7 2 7.3 0.9
5 -7 -2 7.5 1.4
5 -7 -2 10.4 1
5 -7 -2 4 7.5
5 -7 -2 7.5 1.3
-5 7 2 11.3 1.9
-5 7 2 10.7 1
-5 7 2 11 1.3
4 -7 -2 6.3 0.8
4 -7 -2 1.1 3.9
4 -7 -2 6.1 1
4 -7 -2 7.3 1.1
-4 7 2 7.3 1
-4 7 2 8.7 0.9
-4 7 2 6.4 0.9
3 -7 -2 48.1 2.1
3 -7 -2 45.4 2.4
3 -7 -2 47.1 2.3
-3 7 2 49.6 2.4
-3 7 2 41.9 2.2
-3 7 2 50.09 2.5
2 -7 -2 347.87 13.5
2 -7 -2 354.96 13.2
2 -7 -2 336.37 13.8
-2 7 2 367.76 13.5
-2 7 2 325.97 13.2
-2 7 2 411.26 15.3
-2 7 2 345.37 13.6
1 -7 -2 91.19 4.9
1 -7 -2 101.49 4
1 -7 -2 97.99 4.2
-1 7 2 94.49 4.3
-1 7 2 100.49 4.2
-1 7 2 97.09 5.4
0 -7 -2 61.49 2.8
0 -7 -2 62.69 3
0 -7 -2 60.89 3
0 7 2 59.79 4.1
0 7 2 61.59 2.9
0 7 2 63.49 3.1
-1 -7 -2 9.7 1.1
-1 -7 -2 7.9 1.2
-1 -7 -2 9.6 1
1 7 2 7.7 1.1
1 7 2 8.8 1.3
1 7 2 7.9 1.9
-2 -7 -2 2.5 0.8
-2 -7 -2 3.1 0.7
-2 -7 -2 2.2 0.8
2 7 2 2.5 0.9
2 7 2 2 1.1
2 7 2 1.5 1.9
-3 -7 -2 70.69 3.8
-3 -7 -2 74.89 3.9
3 7 2 72.69 3.9
3 7 2 74.59 3.8
-4 -7 -2 4.4 1.2
-4 -7 -2 0.9 0.9
4 7 2 1.8 1.3
4 7 2 3.7 1.2
7 -8 -2 14.5 2.1
7 -8 -2 4.4 8.6
7 -8 -2 14 2
-7 8 2 10.4 1.7
-7 8 2 13.8 1.7
-7 8 2 11.1 1.6
6 -8 -2 36.6 2.3
6 -8 -2 43.1 2.7
6 -8 -2 42 2.7
-6 8 2 40.4 2.3
-6 8 2 37.3 2.6
5 -8 -2 49.3 2.9
5 -8 -2 48.5 3
5 -8 -2 46.6 2.4
-5 8 2 45.6 2.8
-5 8 2 44.3 2.9
4 -8 -2 38.1 2.6
4 -8 -2 39.4 2.1
-4 8 2 39.8 2.6
-4 8 2 32.3 4.5
-4 8 2 39.5 2.3
3 -8 -2 31.4 2.4
3 -8 -2 29.6 1.9
-3 8 2 29.8 2.3
-3 8 2 32.7 4
-3 8 2 28.6 1.9
2 -8 -2 4.9 1.1
2 -8 -2 4.4 0.7
-2 8 2 4.5 1.1
-2 8 2 4.5 0.7
-2 8 2 5.3 2.7
1 -8 -2 51.29 3
1 -8 -2 48.1 2.4
1 -8 -2 46 2.9
-1 8 2 49.6 2.5
-1 8 2 49.3 2.9
0 -8 -2 71.79 3.4
0 -8 -2 74.79 3.7
0 -8 -2 74.59 3.9
0 8 2 72.59 3.8
0 8 2 73.19 3.5
-1 -8 -2 22.4 2.2
-1 -8 -2 27.3 1.9
1 8 2 23.2 2.1
1 8 2 24 2.3
1 8 2 21.2 4.7
-2 -8 -2 25.5 2.3
-2 -8 -2 33.9 2.2
-2 -8 -2 27.5 2.1
2 8 2 28.9 2.3
2 8 2 27 2.3
-3 -8 -2 0.1 0.9
-3 -8 -2 0.7 0.9
-3 -8 -2 -0.9 1
3 8 2 0.4 1
3 8 2 -0.8 1
6 -9 -2 30.5 2.4
6 -9 -2 32.3 2.5
6 -9 -2 29.6 2.6
-6 9 2 28 2.6
-6 9 2 31.4 2.5
5 -9 -2 22 2.5
5 -9 -2 21.9 2.2
-5 9 2 17.7 1.9
-5 9 2 16.5 2.1
-5 9 2 21.5 4
4 -9 -2 35.7 2.5
4 -9 -2 37.5 2.5
-4 9 2 45.1 4.3
-4 9 2 35.2 2.5
-4 9 2 38.1 2.8
3 -9 -2 17.3 1.9
3 -9 -2 15.2 1.9
-3 9 2 20.3 2
-3 9 2 17.7 3.3
-3 9 2 14.8 2.4
2 -9 -2 3.6 0.9
2 -9 -2 6.4 5.4
-2 9 2 3.3 1.3
-2 9 2 5 2.3
-2 9 2 3.5 1
1 -9 -2 76.59 3.9
1 -9 -2 73.49 3.5
1 -9 -2 79.59 4
-1 9 2 79.69 5.8
-1 9 2 77.19 3.9
-1 9 2 73.29 3.9
0 -9 -2 37.2 2.6
0 -9 -2 38.3 2.5
0 -9 -2 39.5 2.4
0 9 2 37.3 2.6
0 9 2 37.3 2.5
0 9 2 39.1 4.9
-1 -9 -2 52.29 3.1
-1 -9 -2 47.8 3.1
-1 -9 -2 47 3
1 9 2 50.69 3.2
1 9 2 52.09 3
4 -10 -2 66.39 3.6
4 -10 -2 69.19 3.8
-4 10 2 66.59 3.7
-4 10 2 67.09 3.5
-4 10 2 62.19 5.6
3 -10 -2 56.29 3.4
3 -10 -2 56.09 3.2
-3 10 2 52.19 3.1
-3 10 2 56.09 3.4
-3 10 2 64.79 5.7
2 -10 -2 27.4 2.4
2 -10 -2 28.3 2.3
-2 10 2 28 4.3
-2 10 2 28.7 2.4
-2 10 2 25.5 2.2
1 -10 -2 0.8 1
1 -10 -2 1.4 0.9
-1 10 2 -1 1
-1 10 2 -0.5 2.6
-1 11 -3 23.2 2.1
1 -11 3 21.7 2.2
1 -11 3 26.2 2.3
1 -11 3 25.4 2.2
2 -11 3 15.1 2.1
2 -11 3 15.3 1.8
2 -11 3 12.2 1.8
2 10 -3 46.9 5.3
2 10 -3 46.2 2.9
-2 -10 3 38.1 2.7
-2 -10 3 38.1 2.8
-2 -10 3 42.2 2.7
1 10 -3 1.8 2.8
1 10 -3 2.1 0.9
-1 -10 3 1.9 0.8
-1 -10 3 2.6 1
-1 -10 3 3.1 0.9
0 10 -3 16 3.4
0 10 -3 10.4 1.6
0 -10 3 10.4 1.6
0 -10 3 13.1 1.7
0 -10 3 15.5 1.8
-1 10 -3 -0.5 0.9
-1 10 -3 -0.8 2.2
1 -10 3 0.3 0.8
1 -10 3 -0.2 0.8
1 -10 3 0.8 0.9
-2 10 -3 141.09 8.4
-2 10 -3 134.89 5.9
2 -10 3 127.49 6
2 -10 3 139.09 6.2
2 -10 3 132.49 6
-3 10 -3 57.29 3.1
-3 10 -3 55.79 5.2
3 -10 3 50.09 3.2
3 -10 3 50.79 3.2
3 -10 3 51.79 3.1
-4 10 -3 3.2 0.9
-4 10 -3 1.9 2.5
4 -10 3 1.2 1
4 -10 3 3.3 1.1
4 -10 3 4.2 1.2
3 9 -3 52.79 3
-3 -9 3 49.7 2.9
-3 -9 3 47.8 3.3
2 9 -3 33.4 4.4
2 9 -3 38.6 2.5
-2 -9 3 35.4 2.5
-2 -9 3 39.8 2.7
-2 -9 3 36.8 2.4
1 9 -3 185.38 7.8
1 9 -3 185.58 10.1
-1 -9 3 183.68 7.8
-1 -9 3 197.88 8.3
-1 -9 3 190.88 7.9
0 9 -3 3.9 2.1
0 9 -3 5 0.8
0 -9 3 3.9 1
0 -9 3 4.6 1.4
0 -9 3 5.2 1.2
-1 9 -3 107.89 6.9
-1 9 -3 97.69 4.6
1 -9 3 111.59 4.9
1 -9 3 109.29 5
1 -9 3 112.29 4.9
-2 9 -3 337.97 16
-2 9 -3 356.96 13.3
2 -9 3 346.97 13.5
2 -9 3 356.86 13.7
2 -9 3 340.37 13.5
-3 9 -3 113.89 7.1
-3 9 -3 107.89 4.8
3 -9 3 116.69 5.2
3 -9 3 110.59 5.1
-4 9 -3 146.19 8
-4 9 -3 142.29 5.9
4 -9 3 133.19 6.2
4 -9 3 142.19 6.2
4 -9 3 135.79 6.2
-5 9 -3 3.8 1
-5 9 -3 3.9 2.4
5 -9 3 2.8 1.1
5 -9 3 3.7 1
5 -9 3 3.5 1.2
5 -9 3 0.5 1.7
5 8 -3 74.29 4.1
-5 -8 3 69.09 3.6
-5 -8 3 69.29 4.3
-5 -8 3 64.09 3.8
4 8 -3 93.59 4.1
4 8 -3 86.29 6.9
4 8 -3 98.39 4.7
-4 -8 3 96.39 4.4
-4 -8 3 95.69 4.8
-4 -8 3 96.69 4.7
3 8 -3 37.2 4.6
3 8 -3 32.7 1.9
3 8 -3 36.7 2.5
-3 -8 3 33.2 2.4
-3 -8 3 33.9 2.3
-3 -8 3 32.2 1.9
2 8 -3 212.88 8.4
2 8 -3 209.18 10.9
-2 -8 3 208.08 8.2
-2 -8 3 202.48 8.3
-2 -8 3 202.78 8.4
-2 -8 3 200.78 8.8
1 8 -3 48.9 2.4
-1 -8 3 47.7 2.6
-1 -8 3 46.9 2.5
-1 -8 3 47.7 2.5
-1 -8 3 51.39 2.6
0 8 -3 13.3 2.5
0 8 -3 13.2 1.2
0 -8 3 14.4 1.2
0 -8 3 14.6 1.2
0 -8 3 14.6 1.3
0 -8 3 14.1 1.3
-1 8 -3 33.8 1.9
-1 8 -3 36.8 3.4
1 -8 3 30.8 1.9
1 -8 3 34 2
1 -8 3 33.3 2
-2 8 -3 7.2 2
-2 8 -3 6.1 0.7
2 -8 3 4 0.8
2 -8 3 5.7 0.8
2 -8 3 5.8 1
-3 8 -3 56.09 3
-3 8 -3 56.89 4.3
3 -8 3 63.69 3.4
3 -8 3 58.49 3
3 -8 3 66.99 4.1
-4 8 -3 18.9 3.9
-4 8 -3 25 1.6
4 -8 3 26.6 2.2
4 -8 3 24.7 2
4 -8 3 26.4 2
-5 8 -3 38.4 4.4
-5 8 -3 31.2 2.2
5 -8 3 35.7 2.4
5 -8 3 33.2 2.5
5 -8 3 33.2 2.6
-6 8 -3 42.4 4.5
-6 8 -3 51.99 3.3
-6 8 -3 60.19 3.7
6 -8 3 54.89 3.2
6 -8 3 51.49 3.4
6 -8 3 47.2 3.2
6 -8 3 53.79 3.2
6 -8 3 56.49 3.7
6 7 -3 30.3 2.5
6 7 -3 35.9 2.8
-6 -7 3 35.7 2.2
-6 -7 3 34.8 3.2
5 7 -3 25 2.2
5 7 -3 31.4 2.1
-5 -7 3 28.3 2
-5 -7 3 27.6 2.9
4 7 -3 1.7 0.6
4 7 -3 3.2 2.6
4 7 -3 3.1 1
-4 -7 3 2.6 0.6
-4 -7 3 3.1 1
-4 -7 3 4 1.5
-4 -7 3 1.9 0.9
3 7 -3 219.98 8.5
3 7 -3 224.78 8.9
3 7 -3 219.18 10.8
-3 -7 3 220.18 8.6
-3 -7 3 228.28 9
-3 -7 3 226.18 8.8
-3 -7 3 215.18 9
2 7 -3 403.06 18.3
2 7 -3 457.65 16.6
2 7 -3 431.26 16.1
-2 -7 3 444.66 16.5
-2 -7 3 445.56 16.7
-2 -7 3 441.26 16.6
-2 -7 3 439.76 16.4
1 7 -3 609.94 22.2
1 7 -3 581.14 22.6
1 7 -3 624.74 24.5
-1 -7 3 615.14 22.7
-1 -7 3 623.54 22.7
-1 -7 3 612.64 22.7
-1 -7 3 594.64 22.6
0 7 -3 277.97 11.8
0 7 -3 269.17 10.1
0 -7 3 258.17 10.2
0 -7 3 260.27 10.2
0 -7 3 261.57 10.2
0 -7 3 255.07 10.2
-1 7 -3 14.3 1.9
-1 7 -3 14.2 1
1 -7 3 14.6 1.1
1 -7 3 15.1 1.1
1 -7 3 12.8 1.2
1 -7 3 12.3 1.3
-2 7 -3 323.57 14.5
-2 7 -3 340.97 13
2 -7 3 355.66 13.3
2 -7 3 360.26 13.3
2 -7 3 352.06 13.2
-3 7 -3 61.19 2.9
-3 7 -3 60.09 4
3 -7 3 65.79 3.1
3 -7 3 65.39 2.8
3 -7 3 64.19 3
3 -7 3 65.99 3.1
-4 7 -3 2 0.7
-4 7 -3 2.9 0.6
-4 7 -3 1.2 1.2
4 -7 3 2.4 0.6
4 -7 3 1.9 0.6
4 -7 3 1.5 0.5
4 -7 3 1.7 0.7
4 -7 3 1.5 0.5
4 -7 3 1 0.7
-5 7 -3 6.2 1
-5 7 -3 6.7 1.7
5 -7 3 5.8 0.8
5 -7 3 4.7 0.8
5 -7 3 1.6 4.7
5 -7 3 6.6 1
5 -7 3 7.3 1.3
5 -7 3 6.2 1.2
-6 7 -3 3.2 1
-6 7 -3 2 2
6 -7 3 -0.5 1.8
6 -7 3 2.2 1
6 -7 3 1.5 0.8
6 -7 3 -0.4 1
6 -7 3 -4.9 8.8
6 -7 3 0.9 1.3
6 -7 3 0.8 1
6 -7 3 0.9 1
6 6 -3 74.59 4.5
6 6 -3 78.29 4.2
6 6 -3 76.79 3.7
-6 -6 3 80.89 3.8
-6 -6 3 78.59 4.1
-6 -6 3 80.79 4.4
-6 -6 3 78.89 3.8
5 6 -3 16.1 1.3
5 6 -3 17.3 1.3
5 6 -3 15 1.8
-5 -6 3 15.4 1.3
-5 -6 3 14 1.2
-5 -6 3 17.3 1.7
-5 -6 3 17.4 2
4 6 -3 94.59 3.7
4 6 -3 93.29 4.2
4 6 -3 88.49 3.8
-4 -6 3 87.39 4.1
-4 -6 3 89.59 3.9
-4 -6 3 91.69 4.3
-4 -6 3 91.39 3.8
-4 -6 3 89.59 3.7
3 6 -3 121.29 4.8
3 6 -3 118.29 5.1
-3 -6 3 117.69 5.1
-3 -6 3 122.19 5.3
-3 -6 3 122.19 4.7
-3 -6 3 123.49 4.9
-3 -6 3 122.69 5
2 6 -3 27.4 2.6
2 6 -3 25.7 1.4
2 6 -3 22.5 1.2
-2 -6 3 20.6 1.2
-2 -6 3 24.6 1.5
-2 -6 3 23.4 1.3
-2 -6 3 24.3 1.5
1 6 -3 382.16 14.6
1 6 -3 394.56 16.1
1 6 -3 391.56 14.4
-1 -6 3 387.56 14.7
-1 -6 3 382.66 14.7
-1 -6 3 407.16 14.8
-1 -6 3 400.56 14.8
0 6 -3 0.2 0.9
0 6 -3 1.6 0.3
0 -6 3 1.1 0.4
0 -6 3 1 0.4
0 -6 3 0.7 0.4
0 -6 3 0.5 0.5
-1 6 -3 122.09 6.1
-1 6 -3 125.79 4.9
1 -6 3 121.59 4.6
1 -6 3 124.19 5.1
1 -6 3 124.09 5.1
1 -6 3 126.79 5.1
-2 6 -3 3.1 0.4
-2 6 -3 1.3 0.9
2 -6 3 1.7 0.5
2 -6 3 1.8 0.4
2 -6 3 2.4 0.5
2 -6 3 0.4 0.7
2 -6 3 2 0.4
-3 6 -3 73.89 3.3
-3 6 -3 74.19 4.3
3 -6 3 82.99 3.6
3 -6 3 78.79 3.5
3 -6 3 82.39 3.5
3 -6 3 75.89 3.3
3 -6 3 85.39 3.4
-4 6 -3 486.95 18.9
-4 6 -3 512.15 17.6
4 -6 3 451.85 18.2
4 -6 3 474.75 17.7
4 -6 3 466.75 17.7
4 -6 3 475.25 17.8
4 -6 3 474.55 18.1
4 -6 3 466.05 18
-5 6 -3 1.8 0.8
-5 6 -3 2.6 1.3
5 -6 3 3.8 0.7
5 -6 3 3.7 0.8
5 -6 3 3.2 0.6
5 -6 3 3.4 0.8
5 -6 3 -0.3 3.6
5 -6 3 2.8 0.8
5 -6 3 3.6 0.7
-6 6 -3 78.49 4.6
-6 6 -3 83.59 4.1
-6 6 -3 79.49 4
6 -6 3 77.79 3.7
6 -6 3 77.09 4.2
6 -6 3 77.19 4.2
6 -6 3 85.29 4.2
6 -6 3 81.49 3.9
6 -6 3 80.99 4.2
-7 6 -3 20.2 2
-7 6 -3 15.5 1.9
-7 6 -3 16.6 1.8
7 -6 3 16.5 2.3
7 -6 3 13.6 2.1
7 -6 3 15.7 2.4
7 -6 3 18.4 2.5
7 -6 3 17.8 2.3
7 -6 3 18.9 2.4
7 5 -3 95.19 5
7 5 -3 97.69 4.7
7 5 -3 105.79 4.8
-7 -5 3 100.19 5.3
-7 -5 3 99.59 4.5
-7 -5 3 108.19 4.9
-7 -5 3 98.19 4.9
6 5 -3 28.7 2.1
6 5 -3 28.2 2.2
-6 -5 3 28.5 2.1
-6 -5 3 27 1.9
-6 -5 3 24.6 2
5 5 -3 230.78 8.9
5 5 -3 218.98 9.7
5 5 -3 235.88 9
-5 -5 3 228.28 8.9
-5 -5 3 231.48 8.9
-5 -5 3 229.88 9.5
4 5 -3 68.19 3.2
4 5 -3 64.89 4.6
4 5 -3 69.59 2.9
4 5 -3 67.49 3
-4 -5 3 68.09 3.2
-4 -5 3 65.69 2.8
-4 -5 3 70.59 2.9
-4 -5 3 67.49 3
-4 -5 3 70.09 3.4
3 5 -3 11.4 1.9
3 5 -3 8.7 0.8
3 5 -3 9.3 0.9
-3 -5 3 9.9 0.7
-3 -5 3 10.5 0.8
-3 -5 3 10.8 0.8
-3 -5 3 11 0.9
-3 -5 3 9.2 1
2 5 -3 841.32 30.8
2 5 -3 833.92 31
2 5 -3 845.82 32.5
-2 -5 3 853.01 31
-2 -5 3 861.31 31.2
-2 -5 3 841.62 31
-2 -5 3 868.81 31.2
-2 -5 3 830.92 30.7
1 5 -3 148.39 5.8
1 5 -3 149.88 6.9
-1 -5 3 147.69 5.8
-1 -5 3 148.59 5.9
-1 -5 3 148.19 5.5
-1 -5 3 151.18 5.9
-1 -5 3 149.09 6
0 5 -3 380.06 14.3
0 5 -3 385.06 15.4
0 -5 3 390.46 14.4
0 -5 3 389.76 14.4
0 -5 3 386.66 14.5
-1 5 -3 51.89 2.2
-1 5 -3 52.59 3
1 -5 3 49.7 2.3
1 -5 3 51.29 2.1
1 -5 3 52.59 2.4
1 -5 3 49.3 2.3
2 -5 3 3.1 0.5
2 -5 3 2.9 0.5
2 -5 3 2.4 0.4
2 -5 3 3.3 0.5
2 -5 3 2.7 0.5
-3 5 -3 1247.18 48.7
3 -5 3 1339.87 48
3 -5 3 1333.97 48
3 -5 3 1317.67 47.9
3 -5 3 1314.47 47.7
3 -5 3 1322.67 47.8
-4 5 -3 208.28 8.7
-4 5 -3 219.08 8.1
4 -5 3 198.98 8.1
4 -5 3 197.88 8.1
4 -5 3 214.18 8.2
4 -5 3 196.58 8.4
4 -5 3 199.18 7.9
4 -5 3 195.68 7.8
-5 5 -3 83.99 3.8
-5 5 -3 87.09 4.6
5 -5 3 84.89 3.8
5 -5 3 90.79 4
5 -5 3 90.19 4.1
5 -5 3 91.39 4.1
5 -5 3 87.59 3.9
5 -5 3 89.59 4
-6 5 -3 26.1 1.9
-6 5 -3 32 2.4
-6 5 -3 30.5 2.3
6 -5 3 30.1 2.1
6 -5 3 29 2.5
6 -5 3 27.8 2.1
6 -5 3 26.1 2.3
6 -5 3 30.5 2.6
6 -5 3 28 2.1
-7 5 -3 3 0.9
-7 5 -3 0.5 0.9
-7 5 -3 -0.5 1.1
7 -5 3 0.9 0.9
7 -5 3 1.1 1.1
7 -5 3 -1 1.8
7 -5 3 0.2 0.9
7 -5 3 0.4 1.1
7 4 -3 1.9 0.9
7 4 -3 1 0.9
7 4 -3 1.8 0.8
7 4 -3 -1 3
-7 -4 3 -0.1 1.1
-7 -4 3 1.9 0.6
-7 -4 3 1 0.8
-7 -4 3 3.1 1.2
6 4 -3 17.3 1.9
6 4 -3 14.8 1.3
6 4 -3 13 1.2
-6 -4 3 14.7 2.2
-6 -4 3 12.8 1.1
-6 -4 3 13 1.7
-6 -4 3 11.1 1.4
5 4 -3 216.68 8.7
5 4 -3 219.58 8.9
5 4 -3 219.68 8.6
-5 -4 3 226.18 9.2
-5 -4 3 235.98 8.7
-5 -4 3 214.68 8.9
-5 -4 3 227.28 8.6
4 4 -3 59.89 2.6
4 4 -3 60.59 2.8
4 4 -3 60.09 2.6
-4 -4 3 57.89 2.6
-4 -4 3 60.69 2.4
-4 -4 3 58.29 3
-4 -4 3 57.29 2.6
-4 -4 3 57.29 2.8
3 4 -3 546.05 19.7
3 4 -3 529.95 19.9
3 4 -3 546.15 21.2
3 4 -3 507.95 19.8
-3 -4 3 549.65 19.6
-3 -4 3 515.55 20
-3 -4 3 539.55 19.9
-3 -4 3 539.15 19.7
-3 -4 3 551.04 19.7
2 4 -3 78.99 4.2
2 4 -3 74.89 3.2
2 4 -3 77.49 3
-2 -4 3 83.89 3.1
-2 -4 3 79.89 3.3
-2 -4 3 77.39 3.2
-2 -4 3 75.99 3.4
-2 -4 3 77.19 3.2
1 4 -3 139.39 5.4
1 4 -3 137.29 6.4
-1 -4 3 140.19 5.2
-1 -4 3 140.59 5.5
-1 -4 3 135.59 5.6
-1 -4 3 140.89 5.6
-1 -4 3 145.29 5.4
0 4 -3 965.8 35.7
0 4 -3 1002.3 36.8
0 -4 3 1003.8 35.9
0 -4 3 982.1 35.7
0 -4 3 971.5 36
0 -4 3 980.4 35.9
0 -4 3 989.1 36
-1 4 -3 65.89 2.7
1 -4 3 69.09 2.9
1 -4 3 67.09 2.9
1 -4 3 69.09 2.7
1 -4 3 69.19 2.9
-2 4 -3 536.65 20.7
-2 4 -3 519.25 22
2 -4 3 574.44 20.8
2 -4 3 580.94 21.1
2 -4 3 581.44 21
2 -4 3 588.54 21.1
2 -4 3 586.94 20.8
2 -4 3 586.14 20.9
3 -4 3 38.6 1.9
3 -4 3 35 1.9
3 -4 3 37 1.9
3 -4 3 37.4 1.7
3 -4 3 37.1 1.8
3 -4 3 37.7 1.8
-4 4 -3 67.39 3.1
4 -4 3 68.39 3.1
4 -4 3 70.49 3
4 -4 3 71.39 3.2
4 -4 3 70.09 3.3
4 -4 3 68.59 3.2
4 -4 3 73.99 3.1
-5 4 -3 326.47 12.2
-5 4 -3 318.47 12.8
-5 4 -3 319.27 12
5 -4 3 298.87 12.3
5 -4 3 317.97 12.1
5 -4 3 310.97 12
5 -4 3 316.87 12.3
5 -4 3 313.17 12.2
5 -4 3 312.37 12.1
-6 4 -3 25.1 1.6
-6 4 -3 23 2.1
-6 4 -3 27.9 2.7
6 -4 3 21.7 2.2
6 -4 3 19.2 2.6
6 -4 3 24.1 1.9
6 -4 3 23.1 2.3
6 -4 3 24.9 1.7
-7 4 -3 122.39 5.5
-7 4 -3 124.69 5.4
7 -4 3 122.59 5.5
7 -4 3 110.79 5.5
7 -4 3 107.89 5.5
7 -4 3 121.89 5.7
8 3 -3 3.7 1.1
8 3 -3 1.3 4.8
8 3 -3 1 0.9
8 3 -3 3.4 1.1
-8 -3 3 2.5 1.4
-8 -3 3 2.7 1.2
-8 -3 3 2 0.9
7 3 -3 5.2 1.2
7 3 -3 3.8 1.1
7 3 -3 3.3 0.9
-7 -3 3 3.4 1.3
-7 -3 3 2.4 1.2
-7 -3 3 3.4 0.6
-7 -3 3 3.6 1
6 3 -3 105.59 4.6
6 3 -3 104.79 4.6
6 3 -3 107.09 4.8
-6 -3 3 107.89 4.3
-6 -3 3 103.49 4.7
-6 -3 3 107.79 4.6
-6 -3 3 111.39 5.1
5 3 -3 208.38 8.3
5 3 -3 205.68 8.1
5 3 -3 209.38 8.2
-5 -3 3 204.38 8.2
-5 -3 3 220.48 8
-5 -3 3 208.68 8.3
-5 -3 3 211.68 8.6
4 3 -3 728.53 26.3
4 3 -3 725.13 26.6
4 3 -3 702.03 26.8
4 3 -3 730.83 26.7
-4 -3 3 763.52 26.6
-4 -3 3 703.73 26.8
-4 -3 3 734.43 27.1
-4 -3 3 727.63 26.6
-4 -3 3 721.33 26.3
3 3 -3 7.2 0.6
3 3 -3 6.7 0.6
3 3 -3 8.3 1.4
3 3 -3 6.4 0.6
-3 -3 3 5.7 0.5
-3 -3 3 7.1 0.7
-3 -3 3 6.7 0.5
-3 -3 3 6.6 0.6
-3 -3 3 6.3 0.6
2 3 -3 47 2
2 3 -3 46.7 3
2 3 -3 47.4 2.1
-2 -3 3 49.2 2.2
-2 -3 3 55.89 2.1
-2 -3 3 45.9 2
-2 -3 3 52.09 2.1
1 3 -3 1383.66 53.09
1 3 -3 1528.65 54.09
-1 -3 3 1447.66 53.29
-1 -3 3 1483.85 53.09
-1 -3 3 1515.25 52.99
-1 -3 3 1489.35 53.19
-1 -3 3 1418.16 53.09
0 3 -3 1141.29 42.7
0 3 -3 1098.69 41.9
0 -3 3 1168.98 42.1
0 -3 3 1171.78 42.3
0 -3 3 1158.28 42.1
0 -3 3 1178.98 42
0 -3 3 1189.38 42.1
-1 3 -3 814.22 30.2
-1 3 -3 795.72 29.4
1 -3 3 835.62 29.6
1 -3 3 779.42 29.8
1 -3 3 838.02 29.7
1 -3 3 780.52 29.9
1 -3 3 848.02 29.5
-2 3 -3 1.9 0.3
-2 3 -3 2.5 0.6
2 -3 3 1.9 0.3
2 -3 3 1.9 0.4
2 -3 3 3.1 0.5
2 -3 3 1.8 0.3
2 -3 3 2.4 0.4
-3 3 -3 13.5 1.2
-3 3 -3 11.9 0.9
3 -3 3 13.5 0.9
3 -3 3 13.7 0.9
3 -3 3 13 0.8
3 -3 3 13.1 0.9
3 -3 3 14.9 1
3 -3 3 14 1
-4 3 -3 147.19 6.9
-4 3 -3 143.89 6.2
-4 3 -3 153.88 6.1
4 -3 3 150.18 6.1
4 -3 3 158.28 6.3
4 -3 3 153.18 6.1
4 -3 3 154.88 6.3
4 -3 3 153.28 6.2
4 -3 3 162.08 6.1
-5 3 -3 1.4 0.5
-5 3 -3 0.8 0.5
-5 3 -3 1.7 0.5
5 -3 3 1.7 0.5
5 -3 3 -0.2 0.8
5 -3 3 2.2 0.5
5 -3 3 0.6 0.5
5 -3 3 1.6 0.5
5 -3 3 0 2.6
5 -3 3 1.5 0.6
-6 3 -3 75.09 3.5
-6 3 -3 74.29 3.7
-6 3 -3 81.09 4
6 -3 3 73.49 3.6
6 -3 3 80.79 4.1
6 -3 3 78.29 4
-7 3 -3 3.6 0.8
-7 3 -3 2.9 0.9
7 -3 3 2.6 1.5
7 -3 3 0.9 1.4
7 -3 3 2.9 1.1
7 -3 3 3.2 1
7 -3 3 0.6 1.1
8 2 -3 85.29 4.1
8 2 -3 75.69 4
8 2 -3 78.79 4.2
-8 -2 3 82.29 4.6
-8 -2 3 81.99 4
-8 -2 3 78.49 4.1
7 2 -3 114.09 5.5
7 2 -3 119.89 5.5
7 2 -3 123.09 5.4
-7 -2 3 120.49 5.9
-7 -2 3 118.89 5.7
-7 -2 3 125.69 5.8
6 2 -3 1.8 0.5
6 2 -3 2 0.5
6 2 -3 1.6 0.5
-6 -2 3 1.2 0.5
-6 -2 3 1.4 0.7
-6 -2 3 0.6 0.4
-6 -2 3 1.6 0.4
5 2 -3 732.63 27.4
5 2 -3 750.12 27.2
5 2 -3 740.33 27.2
-5 -2 3 751.32 27.2
-5 -2 3 690.83 27.2
-5 -2 3 769.02 26.9
-5 -2 3 734.13 27.6
4 2 -3 385.46 14
4 2 -3 382.66 14
4 2 -3 343.77 15.3
4 2 -3 385.76 14.1
-4 -2 3 372.26 14
-4 -2 3 385.96 14
-4 -2 3 386.96 13.8
-4 -2 3 357.66 14.3
3 2 -3 209.98 8
3 2 -3 214.48 8
3 2 -3 207.08 8.1
3 2 -3 233.78 9.5
3 2 -3 200.28 7.8
-3 -2 3 206.58 8.4
-3 -2 3 214.28 8
-3 -2 3 213.78 8.1
-3 -2 3 212.98 7.9
2 2 -3 40.9 1.7
2 2 -3 42.5 3
2 2 -3 38.7 1.7
2 2 -3 37.6 1.6
-2 -2 3 40.1 1.8
-2 -2 3 39.7 1.7
-2 -2 3 38.1 1.6
-2 -2 3 38.5 1.7
-2 -2 3 41.8 1.9
1 2 -3 14.8 0.7
1 2 -3 15.7 1.3
1 2 -3 16.3 0.9
-1 -2 3 14.7 0.8
-1 -2 3 14.6 0.8
-1 -2 3 13.5 0.7
-1 -2 3 14.1 0.9
0 2 -3 3420.36 147.19
0 2 -3 3888.01 149.29
0 -2 3 4334.77 147.19
0 -2 3 4144.49 147.49
0 -2 3 4378.06 147.69
0 -2 3 4134.09 147.39
-1 2 -3 106.09 4.4
-1 2 -3 114.29 4.6
1 -2 3 110.99 4.3
1 -2 3 111.49 4.2
1 -2 3 109.09 4.4
1 -2 3 113.59 4.4
1 -2 3 113.59 4.4
-2 2 -3 171.18 6.7
-2 2 -3 164.58 6.6
2 -2 3 168.38 6.7
2 -2 3 174.48 6.7
2 -2 3 167.38 6.7
2 -2 3 180.98 6.9
2 -2 3 174.38 6.4
2 -2 3 177.58 6.7
-3 2 -3 136.89 5.9
-3 2 -3 150.98 6.1
-3 2 -3 150.78 5.9
3 -2 3 149.79 6.1
3 -2 3 156.98 6.1
3 -2 3 154.88 5.8
3 -2 3 153.68 6
3 -2 3 157.48 5.9
-4 2 -3 14.4 1
-4 2 -3 15.4 1.1
4 -2 3 16.1 1.2
4 -2 3 15.9 1.2
4 -2 3 14 1.1
4 -2 3 15.1 1.1
4 -2 3 14.9 1.1
-5 2 -3 299.57 11.5
-5 2 -3 300.77 11.7
-5 2 -3 302.47 11.6
5 -2 3 288.57 11.7
5 -2 3 299.97 11.5
5 -2 3 304.17 11.7
5 -2 3 299.27 11.6
-6 2 -3 8.4 1.1
-6 2 -3 5.6 1.1
-6 2 -3 5.2 0.8
6 -2 3 7.7 1.2
6 -2 3 5 0.9
6 -2 3 5.5 1.2
6 -2 3 6.5 1.2
-7 2 -3 1.5 0.8
-7 2 -3 -0.4 0.6
-7 2 -3 1.2 1.6
7 -2 3 2 1
7 -2 3 0.1 1.3
7 -2 3 0.5 1
7 -2 3 0 1.6
8 1 -3 127.69 5.9
8 1 -3 128.59 5.8
8 1 -3 135.79 5.9
-8 -1 3 122.29 6.2
-8 -1 3 129.09 5.8
-8 -1 3 125.99 5.6
7 1 -3 1.8 0.9
7 1 -3 -2.7 3.1
-7 -1 3 0.9 0.5
-7 -1 3 3.9 1.4
6 1 -3 92.79 4.1
6 1 -3 92.69 4.1
6 1 -3 92.89 4.2
-6 -1 3 95.39 3.7
-6 -1 3 90.09 4.4
-6 -1 3 93.79 4.1
-6 -1 3 96.59 4
5 1 -3 -0.2 1.2
5 1 -3 -0.1 0.3
5 1 -3 1.3 0.4
5 1 -3 0.1 0.3
-5 -1 3 1.4 0.5
-5 -1 3 0.6 0.4
-5 -1 3 1.4 0.3
-5 -1 3 0.7 0.2
4 1 -3 6.2 1.6
4 1 -3 6.1 0.6
4 1 -3 6.9 0.6
4 1 -3 6.5 0.6
-4 -1 3 7.7 0.6
-4 -1 3 7.7 0.7
-4 -1 3 5.9 0.7
-4 -1 3 7.5 0.5
3 1 -3 938.01 35.9
3 1 -3 998.3 36.1
3 1 -3 976.4 36.2
3 1 -3 1014.8 36.2
-3 -1 3 1068.59 36.1
-3 -1 3 949.4 36.1
-3 -1 3 1007.5 35.9
2 1 -3 430.96 15.9
2 1 -3 422.56 15.9
2 1 -3 421.26 16.8
2 1 -3 436.36 15.9
-2 -1 3 426.06 15.9
-2 -1 3 437.36 16.1
-2 -1 3 441.36 15.8
-2 -1 3 450.25 15.9
1 1 -3 199.28 8.1
1 1 -3 225.78 8
-1 -1 3 229.28 8.1
-1 -1 3 208.38 8
-1 -1 3 224.38 8.3
-1 -1 3 223.58 8.1
-1 -1 3 219.58 8.1
0 1 -3 349.07 14.1
0 -1 3 400.26 14.1
0 -1 3 382.96 14
0 -1 3 392.76 14.2
0 -1 3 387.56 13.9
0 -1 3 378.26 14
-1 1 -3 66.69 2.8
-1 1 -3 64.39 2.8
1 -1 3 65.69 2.9
1 -1 3 66.69 2.7
1 -1 3 70.89 2.8
1 -1 3 64.29 2.8
-2 1 -3 1113.49 42.7
2 -1 3 1183.38 42.8
2 -1 3 1178.98 42.5
2 -1 3 1226.28 42.6
2 -1 3 1130.79 42.7
2 -1 3 1196.58 42.7
-3 1 -3 41.6 1.9
-3 1 -3 40.4 1.9
-3 1 -3 33.9 1.8
3 -1 3 34.7 1.9
3 -1 3 34 1.8
3 -1 3 33.5 1.7
3 -1 3 34.4 1.7
-4 1 -3 197.08 7.9
-4 1 -3 204.28 7.8
-4 1 -3 177.28 7.8
4 -1 3 199.88 7.9
4 -1 3 202.68 7.8
4 -1 3 202.68 7.7
4 -1 3 202.98 8
-5 1 -3 163.38 6.8
-5 1 -3 156.68 6.6
-5 1 -3 171.18 6.5
5 -1 3 163.28 6.6
5 -1 3 157.88 6.7
5 -1 3 159.08 6.8
5 -1 3 162.48 6.7
-6 1 -3 0.8 0.6
-6 1 -3 2.1 0.9
-6 1 -3 0.7 0.7
6 -1 3 0.6 0.8
6 -1 3 0 0.6
6 -1 3 1.4 1.5
6 -1 3 1.2 0.9
-7 1 -3 140.49 6.8
-7 1 -3 131.79 6.1
-7 1 -3 142.69 5.9
7 -1 3 127.79 6.2
7 -1 3 142.89 6.2
7 -1 3 122.99 6.1
9 0 -3 117.99 5.9
9 0 -3 116.49 5.7
9 0 -3 117.19 5.8
-9 0 3 112.49 6.1
-9 0 3 121.39 5.4
-9 0 3 119.19 5.6
8 0 -3 24.7 2.1
8 0 -3 28.8 2.1
8 0 -3 25.7 2.1
-8 0 3 24.7 2.6
-8 0 3 25.3 2.1
-8 0 3 24.2 2.1
7 0 -3 62.79 3.4
7 0 -3 62.19 3.2
7 0 -3 58.89 3.7
-7 0 3 69.19 3.7
-7 0 3 64.29 3.5
-7 0 3 64.79 3
6 0 -3 112.69 4.8
6 0 -3 110.39 4.7
6 0 -3 113.89 4.9
-6 0 3 115.59 4.3
-6 0 3 116.39 5.1
-6 0 3 106.39 4.6
-6 0 3 111.89 4.8
5 0 -3 4.1 0.6
5 0 -3 3.7 0.5
5 0 -3 3 0.5
-5 0 3 3.2 0.5
-5 0 3 2.9 0.6
-5 0 3 3.5 0.4
-5 0 3 2.8 0.5
4 0 -3 1459.25 53.69
4 0 -3 1499.85 53.69
4 0 -3 1490.45 53.59
4 0 -3 1447.76 55.59
-4 0 3 1512.75 53.59
-4 0 3 1446.36 53.69
-4 0 3 1479.65 53.89
3 0 -3 286.57 11.1
3 0 -3 296.87 11.2
3 0 -3 300.47 11.3
3 0 -3 323.67 12.9
-3 0 3 308.07 11.3
-3 0 3 304.27 11.4
-3 0 3 299.27 11.1
2 0 -3 3.8 0.4
2 0 -3 4.2 0.4
2 0 -3 4 0.3
2 0 -3 4.3 1.1
2 0 -3 3.6 0.3
-2 0 3 3.9 0.4
-2 0 3 3.9 0.4
-2 0 3 3.9 0.3
1 0 -3 411.36 14.5
1 0 -3 412.16 14.7
1 0 -3 366.96 14.6
-1 0 3 404.46 14.9
-1 0 3 382.26 14.6
-1 0 3 420.26 14.7
-1 0 3 384.96 14.6
-1 0 3 410.46 14.6
0 0 -3 0.7 0.2
0 0 3 1.2 0.2
0 0 3 1 0.2
0 0 3 1.1 0.2
0 0 3 1.4 0.2
0 0 3 0.5 0.3
-1 0 -3 2088.59 83.19
-1 0 -3 2177.58 83.89
1 0 3 2432.26 83.69
1 0 3 2413.86 83.39
1 0 3 2525.15 83.99
1 0 3 2148.19 83.59
-2 0 -3 292.47 12.6
-2 0 -3 340.47 12.7
2 0 3 355.16 12.6
2 0 3 344.27 12.7
2 0 3 351.56 12.5
2 0 3 341.07 12.7
-3 0 -3 99.99 3.9
-3 0 -3 85.09 3.9
-3 0 -3 89.19 3.8
3 0 3 89.39 4
3 0 3 90.39 4
3 0 3 92.29 3.7
3 0 3 89.59 3.8
-4 0 -3 266.17 10.5
-4 0 -3 244.58 10.3
-4 0 -3 280.47 10.3
4 0 3 266.97 10.5
4 0 3 281.07 10.4
4 0 3 276.77 10.3
4 0 3 260.47 10.5
-5 0 -3 3.8 0.7
-5 0 -3 4.2 0.6
-5 0 -3 4 0.8
5 0 3 4.5 0.8
5 0 3 3.5 0.8
5 0 3 3.9 0.7
-6 0 -3 141.29 5.9
-6 0 -3 123.59 6.2
-6 0 -3 129.29 5.7
6 0 3 123.69 5.7
6 0 3 122.99 5.8
6 0 3 125.69 5.6
-7 0 -3 1.8 1.3
-7 0 -3 1.3 0.8
-7 0 -3 1.5 1
7 0 3 1 1
7 0 3 0.7 1.1
7 0 3 2.7 1.2
7 0 3 0 1.4
9 -1 -3 4.8 1.2
9 -1 -3 -5.6 7
9 -1 -3 5.5 1.2
9 -1 -3 6.1 1.3
-9 1 3 6.4 1.3
-9 1 3 4.7 1
-9 1 3 6.3 1.5
8 -1 -3 16.8 1.8
8 -1 -3 16.7 1.8
8 -1 -3 13.9 1.6
-8 1 3 11.1 1.3
-8 1 3 12.1 2
-8 1 3 14.4 1.8
7 -1 -3 126.89 5.5
7 -1 -3 123.29 5.4
7 -1 -3 120.39 5.4
-7 1 3 131.49 5.2
-7 1 3 127.39 5.7
-7 1 3 117.49 5.4
6 -1 -3 1.7 2.4
6 -1 -3 0.4 0.4
6 -1 -3 1.1 0.4
-6 1 3 1.3 0.5
-6 1 3 1.8 0.4
5 -1 -3 104.79 4.3
5 -1 -3 105.29 4.3
5 -1 -3 102.99 3.9
5 -1 -3 106.79 4.4
5 -1 -3 109.59 6.9
-5 1 3 103.69 4.6
-5 1 3 106.99 4.3
-5 1 3 93.49 4.4
4 -1 -3 336.47 14.1
4 -1 -3 298.57 11.5
4 -1 -3 302.27 11.5
4 -1 -3 310.57 11.3
4 -1 -3 312.47 11.6
-4 1 3 305.57 11.3
-4 1 3 304.97 11.7
-4 1 3 287.97 11.5
3 -1 -3 880.71 32
3 -1 -3 877.21 31.9
3 -1 -3 883.81 32
-3 1 3 912.81 32.1
-3 1 3 902.51 31.8
-3 1 3 811.92 32
2 -1 -3 549.15 19.8
2 -1 -3 515.85 19.6
2 -1 -3 538.35 19.8
2 -1 -3 552.34 19.8
-2 1 3 562.84 19.9
-2 1 3 530.75 19.8
-2 1 3 552.94 19.8
-2 1 3 528.85 19.6
1 -1 -3 136.29 5.1
1 -1 -3 134.69 5.1
1 -1 -3 126.69 5.2
-1 1 3 135.79 5.1
-1 1 3 134.39 5
-1 1 3 133.69 5.1
0 -1 -3 288.67 11.4
0 -1 -3 279.17 11.3
0 1 3 343.07 11.5
0 1 3 300.07 11.3
0 1 3 312.97 11.3
0 1 3 308.97 11.4
0 1 3 308.47 11.3
-1 -1 -3 412.96 15.1
-1 -1 -3 381.56 15.1
-1 -1 -3 383.86 15
1 1 3 432.06 15.1
1 1 3 375.36 15.2
1 1 3 448.46 14.9
-2 -1 -3 510.45 20.1
-2 -1 -3 545.45 20.2
-2 -1 -3 574.14 20.3
2 1 3 524.95 20.2
2 1 3 549.45 20.2
2 1 3 569.74 20.3
2 1 3 538.75 20.1
-3 -1 -3 753.32 26.6
-3 -1 -3 680.53 26.3
-3 -1 -3 655.13 26.5
3 1 3 750.52 26.3
3 1 3 721.43 26.6
3 1 3 706.33 26.4
3 1 3 744.33 26.5
-4 -1 -3 80.09 3.7
-4 -1 -3 77.39 3.6
-4 -1 -3 77.39 3.4
4 1 3 84.89 3.7
4 1 3 84.19 3.7
4 1 3 80.79 3.6
-5 -1 -3 214.18 8.4
-5 -1 -3 209.98 8.7
-5 -1 -3 218.88 8.9
5 1 3 205.88 8.5
5 1 3 227.28 9.5
-6 -1 -3 23.5 2.4
-6 -1 -3 22.6 1.9
-6 -1 -3 23.5 2
6 1 3 26.4 2.2
6 1 3 23.1 2.1
6 1 3 25.5 2.5
-7 -1 -3 21.6 1.8
-7 -1 -3 21.8 2.2
7 1 3 20.2 2.3
7 1 3 19.6 2.4
9 -2 -3 31.4 2.6
9 -2 -3 32 2.5
9 -2 -3 26.8 2.5
-9 2 3 29.1 2.6
-9 2 3 30.7 2.5
-9 2 3 30.6 2.2
8 -2 -3 123.19 5.6
8 -2 -3 124.39 5.6
8 -2 -3 121.49 5.5
-8 2 3 119.79 5.9
-8 2 3 116.89 5.1
-8 2 3 121.99 5.5
7 -2 -3 41.4 2.4
7 -2 -3 43.9 2.5
7 -2 -3 42.4 2.5
-7 2 3 42.9 2.5
-7 2 3 40.6 2.1
-7 2 3 42 2.4
6 -2 -3 162.78 6.7
6 -2 -3 168.08 6.8
6 -2 -3 169.58 6.7
6 -2 -3 162.88 6.3
-6 2 3 166.68 6.9
-6 2 3 159.98 6.8
-6 2 3 171.28 6.5
5 -2 -3 38.5 1.9
5 -2 -3 38.5 1.7
5 -2 -3 38.4 1.9
5 -2 -3 39.3 2
-5 2 3 36.8 1.9
-5 2 3 38.8 1.5
-5 2 3 39.1 1.7
-5 2 3 36.6 2
4 -2 -3 1384.56 50.49
4 -2 -3 1327.87 49.99
4 -2 -3 1427.66 50.19
4 -2 -3 1424.36 50.39
-4 2 3 1330.97 50.39
-4 2 3 1417.56 50.09
3 -2 -3 2904.31 108.09
3 -2 -3 2939.61 108.69
3 -2 -3 2919.61 107.59
3 -2 -3 2863.41 108.19
-3 2 3 3299.57 108.49
-3 2 3 2940.41 108.09
2 -2 -3 168.28 5.9
2 -2 -3 150.88 5.9
2 -2 -3 149.69 5.7
-2 2 3 146.59 5.8
-2 2 3 153.68 5.9
1 -2 -3 125.79 5.1
1 -2 -3 133.29 5
1 -2 -3 136.99 5.1
-1 2 3 139.29 5.1
-1 2 3 130.99 5.1
-1 2 3 128.69 5.1
0 -2 -3 3.9 0.4
0 -2 -3 3.5 0.5
0 2 3 4.4 0.6
0 2 3 3.9 0.5
0 2 3 3.5 0.6
0 2 3 4 0.5
-1 -2 -3 503.35 18.6
-1 -2 -3 426.86 18.7
-1 -2 -3 514.35 18.6
1 2 3 517.45 18.5
1 2 3 530.95 18.5
1 2 3 523.35 18.5
1 2 3 464.55 18.6
1 2 3 528.05 18.6
-2 -2 -3 131.39 5.5
-2 -2 -3 128.19 5.4
2 2 3 139.29 5.5
2 2 3 142.19 5.5
2 2 3 138.59 5.4
-3 -2 -3 418.06 15.7
-3 -2 -3 414.96 15.5
-3 -2 -3 388.16 15.7
3 2 3 414.76 15.6
3 2 3 421.26 15.5
3 2 3 421.36 15.6
-4 -2 -3 1.6 0.5
-4 -2 -3 0.7 0.5
4 2 3 0.9 0.5
4 2 3 0.6 0.5
4 2 3 0.8 0.5
4 2 3 -1.1 0.8
-5 -2 -3 19 2.5
-5 -2 -3 23.6 1.4
-5 -2 -3 19.9 1.9
-5 -2 -3 20.1 2
5 2 3 22.3 2.4
5 2 3 21.3 1.7
5 2 3 22.8 2.1
-6 -2 -3 17.1 1.7
-6 -2 -3 21 2
-6 -2 -3 19 2.2
6 2 3 17.6 2
6 2 3 20.6 1.9
6 2 3 15.6 2.1
9 -3 -3 67.49 3.9
9 -3 -3 65.49 3.8
9 -3 -3 64.39 3.8
-9 3 3 66.49 3.7
-9 3 3 67.99 4
8 -3 -3 -3.7 7.4
8 -3 -3 1.6 0.9
8 -3 -3 2.7 1
8 -3 -3 2.2 0.9
-8 3 3 4.2 1.3
-8 3 3 4.1 1
-8 3 3 3.7 0.7
7 -3 -3 165.28 7
-7 3 3 167.78 7.1
-7 3 3 163.68 7
-7 3 3 170.88 6.6
6 -3 -3 52.99 2.6
6 -3 -3 52.29 2.6
6 -3 -3 55.89 2.5
6 -3 -3 52.89 2.7
-6 3 3 49.5 2.6
-6 3 3 52.39 2.6
-6 3 3 52.99 2.5
5 -3 -3 1.8 0.4
5 -3 -3 2.7 0.5
5 -3 -3 2.1 0.4
5 -3 -3 2.3 0.3
5 -3 -3 2.3 0.4
-5 3 3 2.6 0.3
-5 3 3 1.8 0.5
-5 3 3 1.5 0.4
4 -3 -3 19.2 1.1
4 -3 -3 17.6 1.1
4 -3 -3 18.6 0.8
4 -3 -3 12.6 3.5
4 -3 -3 18.2 1.1
-4 3 3 17.7 1.1
-4 3 3 16.6 0.8
-4 3 3 17.1 1.1
-4 3 3 16.6 1
3 -3 -3 109.09 4.1
3 -3 -3 103.99 4.3
-3 3 3 107.89 4.2
-3 3 3 110.09 4.3
-3 3 3 106.79 4.3
2 -3 -3 1426.96 49.8
2 -3 -3 1386.96 49.99
2 -3 -3 1428.16 49.99
2 -3 -3 1229.48 52.29
-2 3 3 1316.17 49.9
-2 3 3 1397.66 49.8
-2 3 3 1363.46 49.9
-2 3 3 1453.55 49.9
1 -3 -3 629.34 23.1
1 -3 -3 657.13 23.2
1 -3 -3 592.54 22.9
-1 3 3 643.54 23.2
-1 3 3 642.94 23.1
-1 3 3 623.24 23.1
0 -3 -3 54.79 2.5
0 -3 -3 58.39 2.4
0 -3 -3 60.29 2.5
0 3 3 57.29 2.5
0 3 3 54.59 2.4
0 3 3 59.19 2.5
0 3 3 48.4 2.9
-1 -3 -3 851.31 31.7
-1 -3 -3 849.72 31.7
-1 -3 -3 827.62 31.7
1 3 3 861.51 32
1 3 3 864.21 31.7
1 3 3 898.81 31.7
1 3 3 894.21 31.6
1 3 3 864.11 31.6
-2 -3 -3 47.2 2.2
-2 -3 -3 45.5 2.3
-2 -3 -3 40.8 2.2
2 3 3 43.9 2.2
2 3 3 47 2.4
2 3 3 43.5 2.1
2 3 3 45.5 2.1
-3 -3 -3 276.07 11.3
-3 -3 -3 285.67 11.1
-3 -3 -3 309.77 11.4
3 3 3 284.57 11.2
3 3 3 286.27 11.2
3 3 3 299.77 11.2
-4 -3 -3 51.99 2.4
-4 -3 -3 46.2 2.8
-4 -3 -3 48.8 2.9
-4 -3 -3 48.8 2.7
4 3 3 48.3 2.6
4 3 3 54.59 2.7
-5 -3 -3 1.6 1.4
-5 -3 -3 0.8 0.8
-5 -3 -3 1.2 0.8
5 3 3 0.6 1
5 3 3 0.9 1.8
5 3 3 0.9 1.1
5 3 3 0.6 0.9
-6 -3 -3 53.59 3.7
-6 -3 -3 49.6 3.2
-6 -3 -3 48.9 2.9
6 3 3 50.89 3.1
6 3 3 50.39 3.5
6 3 3 53.69 4.2
9 -4 -3 -0.8 1.1
9 -4 -3 1.8 1
9 -4 -3 0.1 1
-9 4 3 0 1.2
-9 4 3 -0.3 1
8 -4 -3 153.18 6.6
8 -4 -3 147.49 6.6
8 -4 -3 151.68 6.8
-8 4 3 157.68 7
-8 4 3 148.29 6.6
7 -4 -3 299.97 11.8
7 -4 -3 292.47 11.2
7 -4 -3 287.37 12.4
7 -4 -3 296.67 11.7
-7 4 3 300.17 11.7
-7 4 3 292.57 12.8
6 -4 -3 20.3 1.3
6 -4 -3 21.9 1.5
6 -4 -3 22.2 1.5
6 -4 -3 21.6 1.2
-6 4 3 20.4 1.4
-6 4 3 21 1.4
-6 4 3 21.2 1.2
5 -4 -3 121.79 5.2
5 -4 -3 127.89 5.3
5 -4 -3 126.69 4.8
5 -4 -3 125.59 5
-5 4 3 122.99 5.1
-5 4 3 134.49 4.8
-5 4 3 125.99 5.1
-5 4 3 122.19 5.1
4 -4 -3 38.2 1.9
4 -4 -3 33.5 4.6
4 -4 -3 40.3 2
4 -4 -3 41.5 1.8
4 -4 -3 39.9 2
-4 4 3 44.2 1.9
-4 4 3 42.4 2
-4 4 3 41 1.9
3 -4 -3 159.38 6.6
3 -4 -3 183.88 9.8
3 -4 -3 161.68 6.6
3 -4 -3 167.18 6.4
-3 4 3 169.48 6.3
-3 4 3 173.48 6.5
-3 4 3 168.58 6.6
2 -4 -3 419.46 14.9
2 -4 -3 395.46 15.1
2 -4 -3 420.06 15.1
2 -4 -3 402.56 14.7
-2 4 3 406.86 15
-2 4 3 375.56 15
-2 4 3 406.96 15
1 -4 -3 130.19 5.1
1 -4 -3 129.49 4.9
1 -4 -3 126.89 5.2
-1 4 3 133.59 5.1
-1 4 3 122.19 5.1
-1 4 3 136.29 5.2
0 -4 -3 23.1 1.4
0 -4 -3 23.8 1.3
0 -4 -3 25.5 1.4
0 4 3 29 2
0 4 3 27 1.4
0 4 3 27 1.4
0 4 3 24.2 1.4
-1 -4 -3 9.6 0.8
-1 -4 -3 9.3 0.9
-1 -4 -3 8.3 0.8
-1 -4 -3 10.7 0.9
1 4 3 10.4 0.8
1 4 3 8.1 0.9
1 4 3 8.2 1.4
1 4 3 8.8 0.8
1 4 3 6.8 0.8
-2 -4 -3 130.89 5.4
-2 -4 -3 127.29 5.3
-2 -4 -3 133.19 5.4
-2 -4 -3 126.89 5.4
2 4 3 136.89 5.5
2 4 3 124.19 5.3
2 4 3 127.09 5.2
2 4 3 121.59 5.3
-3 -4 -3 204.18 8.2
-3 -4 -3 220.58 8.6
-3 -4 -3 203.98 8.5
-3 -4 -3 211.28 8.6
3 4 3 205.68 8.6
3 4 3 218.48 8.4
3 4 3 212.18 8.3
3 4 3 206.48 8.5
-4 -4 -3 0.6 0.5
-4 -4 -3 0.9 1
-4 -4 -3 0 0.8
-4 -4 -3 1 1
4 4 3 -0.8 0.9
4 4 3 0.6 0.8
4 4 3 2.4 1.7
-5 -4 -3 78.89 4.2
-5 -4 -3 87.39 4.8
-5 -4 -3 83.39 4.4
5 4 3 85.29 4.4
5 4 3 86.29 4.2
5 4 3 85.49 4.4
8 -5 -3 0.7 7.3
8 -5 -3 11.5 1.6
8 -5 -3 9.7 1.6
-8 5 3 14.6 1.8
-8 5 3 12.5 2
-8 5 3 12.6 1.6
7 -5 -3 -2.7 6.9
7 -5 -3 7.7 1.3
7 -5 -3 8.4 1
7 -5 -3 7.5 1.2
-7 5 3 7.8 1.5
-7 5 3 9.7 1.6
-7 5 3 6.7 1.2
6 -5 -3 118.39 5.3
6 -5 -3 130.49 5.2
6 -5 -3 125.19 5
6 -5 -3 130.99 5.5
-6 5 3 114.89 5.3
-6 5 3 134.79 5.3
-6 5 3 131.79 5.3
5 -5 -3 -0.4 3.5
5 -5 -3 4.3 0.6
5 -5 -3 3 0.5
5 -5 -3 3 0.6
5 -5 -3 3.1 0.5
-5 5 3 2.8 0.5
-5 5 3 3.8 0.6
-5 5 3 3 0.6
4 -5 -3 13.5 0.9
4 -5 -3 14 1.1
4 -5 -3 13.3 1
-4 5 3 12.3 0.9
-4 5 3 13.9 1
-4 5 3 14.3 1
3 -5 -3 497.95 18.4
3 -5 -3 484.55 18.4
3 -5 -3 512.45 18.2
-3 5 3 492.15 18.2
-3 5 3 502.85 18.3
-3 5 3 466.55 18.3
2 -5 -3 263.17 10.2
2 -5 -3 267.67 9.8
2 -5 -3 265.47 10
-2 5 3 263.97 10.1
-2 5 3 268.17 9.9
-2 5 3 257.77 10.1
1 -5 -3 272.57 10.4
1 -5 -3 275.07 10.5
1 -5 -3 275.27 10.2
-1 5 3 279.67 10.3
-1 5 3 260.77 10.4
-1 5 3 275.27 11.6
-1 5 3 278.07 10.6
0 -5 -3 23.1 1.2
0 -5 -3 24.7 1.5
0 -5 -3 27 1.4
0 -5 -3 25.2 1.4
0 5 3 24.9 1.5
0 5 3 24.6 1.5
0 5 3 25.5 2.1
0 5 3 26.8 1.4
-1 -5 -3 93.79 4.2
-1 -5 -3 97.09 4.1
-1 -5 -3 98.09 4.3
-1 -5 -3 102.59 4.1
1 5 3 95.99 4.9
1 5 3 107.19 4.3
1 5 3 96.09 4
1 5 3 92.99 4.2
-2 -5 -3 290.87 11.4
-2 -5 -3 291.87 11.4
-2 -5 -3 300.17 11.5
-2 -5 -3 296.37 11.6
2 5 3 290.77 11.5
2 5 3 293.67 11.4
2 5 3 306.57 11.5
2 5 3 290.47 11.3
-3 -5 -3 21 1.8
-3 -5 -3 21.8 1.8
-3 -5 -3 18.7 1.4
-3 -5 -3 20.4 1.9
3 5 3 21.9 2.1
3 5 3 19.9 1.5
3 5 3 22.6 1.7
-4 -5 -3 63.89 3.7
-4 -5 -3 70.99 3.9
-4 -5 -3 70.49 3.4
-4 -5 -3 76.99 4.2
4 5 3 78.79 4.1
4 5 3 70.69 3.7
4 5 3 68.89 3.8
4 5 3 69.19 3.8
-5 -5 -3 12.3 2.1
-5 -5 -3 12.1 1.9
-5 -5 -3 15.1 2.6
5 5 3 14.9 1.9
5 5 3 11.5 1.9
5 5 3 18.7 2.3
8 -6 -3 -0.5 0.9
8 -6 -3 0.5 1
8 -6 -3 9.3 7.7
8 -6 -3 -1.2 0.9
-8 6 3 0.9 1.4
-8 6 3 0.1 0.9
-8 6 3 0.6 1.1
7 -6 -3 52.19 3.2
7 -6 -3 54.29 2.9
7 -6 -3 53.19 3
-7 6 3 54.99 3.2
-7 6 3 57.19 3.1
-7 6 3 55.19 3.1
6 -6 -3 75.99 3.4
6 -6 -3 72.59 3.1
6 -6 -3 73.59 3.7
-6 6 3 71.69 3.3
-6 6 3 56.79 4
5 -6 -3 110.39 4.9
5 -6 -3 109.79 4.5
5 -6 -3 113.39 4.8
-5 6 3 112.49 4.8
-5 6 3 114.79 4.7
4 -6 -3 63.99 2.7
4 -6 -3 63.79 3
4 -6 -3 61.49 3
-4 6 3 62.99 2.9
-4 6 3 64.19 2.8
-4 6 3 58.59 2.9
3 -6 -3 19.3 1.2
3 -6 -3 20.4 1.3
-3 6 3 19.3 1.2
-3 6 3 19.7 1.4
-3 6 3 19.1 1.4
2 -6 -3 343.37 12.4
2 -6 -3 335.87 12.6
2 -6 -3 322.27 12.8
-2 6 3 333.17 12.7
-2 6 3 338.47 12.5
-2 6 3 331.37 12.7
1 -6 -3 101.79 4.2
1 -6 -3 100.69 4
1 -6 -3 102.69 4.4
-1 6 3 96.19 4.2
-1 6 3 92.09 4.3
-1 6 3 101.49 4.1
-1 6 3 104.19 5.2
0 -6 -3 47.6 2.4
0 -6 -3 47.6 2.4
0 -6 -3 46.9 2.2
0 6 3 43.2 2.3
0 6 3 44.6 2.4
0 6 3 48.2 3.3
0 6 3 44.8 2.1
-1 -6 -3 114.39 4.9
-1 -6 -3 117.69 5
-1 -6 -3 116.69 4.9
1 6 3 108.99 5.9
1 6 3 113.89 5
1 6 3 113.89 4.7
1 6 3 119.39 5
-2 -6 -3 29.1 2
-2 -6 -3 31.8 2.2
-2 -6 -3 28.6 1.9
-2 -6 -3 31.7 1.9
2 6 3 28.4 1.7
2 6 3 29.7 2.4
2 6 3 33.5 3.4
-3 -6 -3 80.69 4.1
-3 -6 -3 71.89 3.8
-3 -6 -3 78.19 3.9
-3 -6 -3 73.19 3.6
3 6 3 74.99 3.9
3 6 3 67.99 3.4
3 6 3 71.19 3.8
-4 -6 -3 7.5 1.4
-4 -6 -3 10.5 2.9
-4 -6 -3 6.9 1.2
-4 -6 -3 6.8 1.3
4 6 3 5.4 1.4
4 6 3 8.1 1.3
4 6 3 8.1 1.4
8 -7 -3 21.2 2.5
7 -7 -3 24.8 2.1
7 -7 -3 22.7 2.4
-7 7 3 25.6 2.2
-7 7 3 20.9 2
6 -7 -3 138.29 6.3
6 -7 -3 129.59 5.4
6 -7 -3 134.99 6
-6 7 3 131.69 5.8
-6 7 3 141.29 6
-6 7 3 130.99 5.6
5 -7 -3 207.38 9
5 -7 -3 216.68 8.9
5 -7 -3 218.98 8.4
-5 7 3 217.88 8.4
-5 7 3 217.78 8.8
4 -7 -3 -6.3 9.3
4 -7 -3 1.5 0.7
4 -7 -3 1.4 0.5
-4 7 3 1.2 0.5
-4 7 3 0.4 0.6
3 -7 -3 64.99 3
3 -7 -3 64.99 3.3
-3 7 3 66.29 2.8
-3 7 3 64.49 3.1
-3 7 3 69.29 3.2
2 -7 -3 68.69 3.4
2 -7 -3 68.19 3.2
-2 7 3 72.69 3.2
-2 7 3 67.29 3.3
-2 7 3 73.19 4.6
-2 7 3 67.49 3.1
1 -7 -3 87.49 3.9
1 -7 -3 87.79 4
1 -7 -3 86.29 3.6
-1 7 3 86.49 4
-1 7 3 83.59 3.5
-1 7 3 86.09 5.1
-1 7 3 87.09 3.9
0 -7 -3 40.2 2.1
0 -7 -3 41.9 2.7
0 7 3 46.8 2.9
0 7 3 39.1 2.2
0 7 3 40.9 2.4
0 7 3 40.5 3.5
-1 -7 -3 42.9 2.4
-1 -7 -3 43.1 3
-1 -7 -3 47.2 2.7
1 7 3 47.6 3.9
1 7 3 46.7 2.8
1 7 3 42.8 2.9
-2 -7 -3 27.4 2.3
-2 -7 -3 24.4 2.4
-2 -7 -3 30.4 2.1
2 7 3 25.5 2.2
2 7 3 27.7 2.2
-3 -7 -3 32.7 2.5
-3 -7 -3 31.7 2.5
-3 -7 -3 32.3 2.6
3 7 3 41.5 2.7
3 7 3 35.2 2.7
7 -8 -3 7.1 7.9
7 -8 -3 -1 1
7 -8 -3 0.3 1
-7 8 3 -0.3 1
-7 8 3 -0.9 1.2
-7 8 3 -1.3 1.4
6 -8 -3 51.19 3.1
6 -8 -3 47.1 2.6
6 -8 -3 49.99 3.1
-6 8 3 54.79 2.7
-6 8 3 54.49 3.1
5 -8 -3 14.3 1.3
5 -8 -3 12.8 1.6
5 -8 -3 15.8 1.8
-5 8 3 12.3 2
-5 8 3 10 1.8
4 -8 -3 81.19 3.8
4 -8 -3 78.99 3.9
-4 8 3 74.49 3.9
-4 8 3 74.49 4.1
3 -8 -3 54.59 2.8
3 -8 -3 59.29 3.3
-3 8 3 59.99 3.2
-3 8 3 55.19 5.1
2 -8 -3 19.9 2.5
2 -8 -3 18.1 1.9
-2 8 3 19 1.9
-2 8 3 16.5 3.5
1 -8 -3 188.88 7.7
1 -8 -3 197.08 8.2
1 -8 -3 187.08 8.1
-1 8 3 191.68 8.1
-1 8 3 203.48 8.3
-1 8 3 212.58 10.2
0 -8 -3 40.1 2.5
0 -8 -3 41.9 2.7
0 -8 -3 41.3 2.2
0 8 3 38.9 2.7
0 8 3 37.5 2.6
0 8 3 43.3 5.1
-1 -8 -3 37.3 2.5
-1 -8 -3 40.7 2.6
1 8 3 40.9 5.5
1 8 3 37.5 2.6
1 8 3 38.8 2.7
-2 -8 -3 5.5 1.3
-2 -8 -3 5.9 1.2
-2 -8 -3 7.9 1.2
2 8 3 7.9 1.3
6 -9 -3 23.3 2.4
6 -9 -3 19.6 2.3
-6 9 3 21.4 2.4
-6 9 3 21.1 2.5
5 -9 -3 6.2 1.3
5 -9 -3 5.4 1.3
5 -9 -3 1.7 7.4
-5 9 3 8 1.3
-5 9 3 6.7 1.2
-5 9 3 5.8 2.8
4 -9 -3 6 1.2
4 -9 -3 1 6.7
4 -9 -3 4.7 1.1
-4 9 3 7.8 2.6
-4 9 3 6.2 1.2
-4 9 3 8.6 1.2
3 -9 -3 54.19 3.1
3 -9 -3 48.9 3
-3 9 3 58.49 4.6
-3 9 3 50.29 3
-3 9 3 53.29 3
2 -9 -3 8.7 6.4
2 -9 -3 13.1 1.8
2 -9 -3 13.7 1.6
-2 9 3 14.5 3.5
-2 9 3 16 1.8
-2 9 3 16.1 1.8
1 -9 -3 33 2.3
1 -9 -3 33.8 2.5
-1 9 3 35.5 2.8
-1 9 3 32.5 4.2
-1 9 3 33.1 2.4
0 -9 -3 17.1 2
0 -9 -3 14 1.7
0 -9 -3 18.2 2
0 9 3 19.2 2.1
0 9 3 13.9 4.1
0 9 3 18.2 2
-1 -9 -3 20 2
3 -10 -3 43.1 2.9
3 -10 -3 42.9 3.1
-3 10 3 44.7 3.1
2 -10 -3 7.3 1.4
2 10 -4 1.4 1
2 10 -4 3.5 2.6
-2 -10 4 0.6 0.9
-2 -10 4 2.3 0.9
-2 -10 4 -0.1 0.8
1 10 -4 3 1
1 10 -4 2.3 2.4
-1 -10 4 1.8 0.9
-1 -10 4 3.7 1
-1 -10 4 3.1 1
0 10 -4 28.2 4
0 10 -4 25.6 2.5
0 -10 4 27.5 2.3
0 -10 4 28.6 2.2
0 -10 4 28.5 2.2
-1 10 -4 28.2 4.1
-1 10 -4 27 2.4
1 -10 4 30.4 2.3
1 -10 4 31.2 2.4
1 -10 4 29.2 2.1
-2 10 -4 101.19 4.9
-2 10 -4 108.49 7
2 -10 4 91.49 4.7
2 -10 4 98.39 4.8
2 -10 4 96.69 4.8
-3 10 -4 12.4 3.2
-3 10 -4 11.2 1.6
3 -10 4 7.9 1.4
3 -10 4 12.3 1.7
3 -10 4 11.6 1.9
-4 10 -4 54.09 5.4
4 -10 4 49.6 3.1
4 -10 4 51.19 3.3
4 -10 4 47.5 3.2
4 9 -4 6.6 3.5
4 9 -4 6.6 1.4
-4 -9 4 5.3 1.1
-4 -9 4 9.4 2.1
-4 -9 4 7 1.4
3 9 -4 12.4 3.3
-3 -9 4 9.3 1.8
-3 -9 4 6.8 2
-3 -9 4 8.5 1.4
-3 -9 4 8.1 1.3
2 9 -4 77.99 3.9
2 9 -4 72.69 6
-2 -9 4 74.89 3.9
-2 -9 4 70.39 3.8
-2 -9 4 76.39 3.8
-2 -9 4 76.59 4
1 9 -4 26.8 2.9
-1 -9 4 24.3 2
-1 -9 4 27.4 2.6
-1 -9 4 25 1.9
-1 -9 4 26.6 2.2
0 9 -4 3.8 2
0 9 -4 5.8 0.8
0 -9 4 7.7 1.3
0 -9 4 8.1 1.4
0 -9 4 7.6 1.2
0 -9 4 11 1.7
-1 9 -4 138.09 8.3
-1 9 -4 145.79 5.9
1 -9 4 149.99 6.4
1 -9 4 141.49 6.2
1 -9 4 151.08 6.4
-2 9 -4 43.3 5.5
-2 9 -4 43.1 2.3
2 -9 4 44 2.8
2 -9 4 42.8 2.6
2 -9 4 42.7 2.8
-3 9 -4 75.79 5.8
-3 9 -4 70.39 3.4
3 -9 4 77.99 3.9
3 -9 4 75.69 3.9
3 -9 4 77.59 3.8
-4 9 -4 82.29 5.8
4 -9 4 76.19 4
4 -9 4 78.09 4
4 -9 4 73.29 4
-5 9 -4 44.8 4.6
5 -9 4 38 2.8
5 -9 4 40.5 2.9
5 -9 4 33 2.7
5 8 -4 122.09 5.7
-5 -8 4 118.19 6
-5 -8 4 115.69 5.7
4 8 -4 17.5 1.8
-4 -8 4 15.7 1.7
-4 -8 4 14 1.8
3 8 -4 150.38 6.3
3 8 -4 126.59 8.1
-3 -8 4 146.69 5.9
-3 -8 4 145.79 6.2
-3 -8 4 145.19 6.3
-3 -8 4 141.89 6.2
2 8 -4 242.08 11.8
2 8 -4 233.18 9.4
-2 -8 4 238.78 9.8
-2 -8 4 237.18 9.5
-2 -8 4 231.58 9.3
-2 -8 4 235.78 9.6
1 8 -4 90.59 4
-1 -8 4 93.99 4.3
-1 -8 4 94.69 4.1
-1 -8 4 93.89 4.2
-1 -8 4 90.79 4.2
0 8 -4 298.07 11.4
0 8 -4 307.47 13.5
0 -8 4 285.77 11.6
0 -8 4 292.87 11.6
0 -8 4 294.47 11.5
0 -8 4 298.87 11.6
-1 8 -4 5.7 0.9
-1 8 -4 7.2 1.8
1 -8 4 5.7 0.9
1 -8 4 8.9 1.2
1 -8 4 7.6 1.1
-2 8 -4 97.39 5.9
-2 8 -4 80.59 3.7
2 -8 4 90.59 4.3
2 -8 4 84.39 4.2
2 -8 4 85.59 4.1
-3 8 -4 146.59 7.5
-3 8 -4 142.89 5.6
3 -8 4 141.69 6
3 -8 4 118.19 7
3 -8 4 139.59 6.1
-4 8 -4 18.7 3.6
-4 8 -4 15.1 1.3
4 -8 4 17.4 1.8
4 -8 4 13.9 2
4 -8 4 16.2 1.7
-5 8 -4 110.39 5.1
-5 8 -4 111.69 6.8
5 -8 4 102.39 5.2
5 -8 4 106.49 5.2
5 -8 4 107.69 5.1
6 7 -4 117.49 5.6
6 7 -4 114.59 5.1
-6 -7 4 119.19 6.1
-6 -7 4 108.79 5.1
-6 -7 4 113.39 5.5
5 7 -4 -0.4 2.4
5 7 -4 1 0.7
5 7 -4 1.2 0.9
-5 -7 4 0.7 0.8
-5 -7 4 0 1.4
-5 -7 4 2.6 0.8
4 7 -4 10.6 3.2
4 7 -4 6.8 1.3
4 7 -4 7.6 1
-4 -7 4 9.1 1
-4 -7 4 6.2 1.2
-4 -7 4 6.6 1.4
-4 -7 4 6.6 1
3 7 -4 269.87 10.4
3 7 -4 254.57 10
-3 -7 4 266.57 10.3
-3 -7 4 277.97 10.6
-3 -7 4 251.27 11.1
-3 -7 4 268.47 10.2
2 7 -4 34.4 3.3
2 7 -4 34.5 1.9
-2 -7 4 35.1 2.1
-2 -7 4 35.5 1.9
-2 -7 4 34.8 2.1
-2 -7 4 37.7 1.9
1 7 -4 306.47 12.7
1 7 -4 266.47 10.7
-1 -7 4 282.07 10.9
-1 -7 4 280.37 11
-1 -7 4 274.37 10.9
-1 -7 4 276.07 10.8
0 7 -4 1.3 0.4
0 7 -4 -0.9 1.2
0 -7 4 0.5 0.5
0 -7 4 0.3 0.6
0 -7 4 0.6 0.4
0 -7 4 0.3 0.4
-1 7 -4 1 1.2
-1 7 -4 2.3 0.5
1 -7 4 2.8 0.5
1 -7 4 2.4 0.9
1 -7 4 2.8 0.5
1 -7 4 1.9 0.6
-2 7 -4 337.27 13.7
-2 7 -4 315.07 11.9
2 -7 4 320.47 11.8
2 -7 4 309.07 12.3
2 -7 4 312.77 12.2
2 -7 4 308.47 12.2
-3 7 -4 10.9 1
-3 7 -4 12.4 2
3 -7 4 13 1.3
3 -7 4 11.9 1.1
3 -7 4 14.8 1.4
3 -7 4 12.5 1.3
-4 7 -4 207.08 8
-4 7 -4 214.78 9.5
4 -7 4 206.78 8.2
4 -7 4 207.58 8.8
4 -7 4 204.48 8.6
-5 7 -4 26.7 2.2
-5 7 -4 23.1 3
5 -7 4 26.9 2.2
5 -7 4 23.4 2.3
5 -7 4 26.2 2.2
5 -7 4 24.7 1.9
5 -7 4 24.5 1.8
-6 7 -4 14.5 1.7
-6 7 -4 13.6 1.9
6 -7 4 14.6 2.2
6 -7 4 15 1.9
6 -7 4 13.9 2.1
6 -7 4 14.8 2
6 -7 4 16.6 2.1
6 6 -4 61.29 3.5
6 6 -4 55.99 3.3
-6 -6 4 56.19 2.9
-6 -6 4 58.09 3.2
-6 -6 4 58.09 3.7
5 6 -4 29 2.2
5 6 -4 29.1 1.7
-5 -6 4 23.7 1.6
-5 -6 4 27.8 1.6
-5 -6 4 26.4 3.8
-5 -6 4 24.6 2.1
4 6 -4 278.17 11
4 6 -4 277.47 10.6
4 6 -4 266.67 12.9
-4 -6 4 288.67 10.6
-4 -6 4 279.47 10.7
-4 -6 4 288.57 11.2
-4 -6 4 287.47 11.1
-4 -6 4 276.47 10.6
3 6 -4 54.29 2.7
3 6 -4 58.59 2.5
3 6 -4 58.59 4.1
-3 -6 4 54.29 2.8
-3 -6 4 52.99 2.5
-3 -6 4 58.09 2.4
-3 -6 4 58.09 2.6
-3 -6 4 58.89 2.9
2 6 -4 364.86 15.2
2 6 -4 358.76 13.2
2 6 -4 354.56 13.6
-2 -6 4 359.56 13.9
-2 -6 4 358.66 13.2
-2 -6 4 362.66 13.6
-2 -6 4 368.36 13.8
-2 -6 4 362.86 13.6
1 6 -4 195.08 7.7
1 6 -4 212.28 9.4
-1 -6 4 199.28 7.8
-1 -6 4 197.38 8
-1 -6 4 200.28 7.8
-1 -6 4 196.78 7.9
0 6 -4 17.6 1.1
0 -6 4 18.3 1.2
0 -6 4 20.1 1.4
0 -6 4 18.7 1.3
0 -6 4 19.8 1.2
0 -6 4 19.1 0.9
-1 6 -4 608.34 22.8
-1 6 -4 592.54 21.3
1 -6 4 565.14 21.6
1 -6 4 563.84 21.9
1 -6 4 598.94 21.2
1 -6 4 571.04 21.5
1 -6 4 559.14 21.6
-2 6 -4 12.8 0.9
-2 6 -4 9.7 1.7
2 -6 4 13 1
2 -6 4 12.7 1
2 -6 4 11.7 1.1
-3 6 -4 24.6 2.3
-3 6 -4 27.8 1.4
3 -6 4 22.9 1.6
3 -6 4 24.6 1.4
3 -6 4 24.6 1.4
3 -6 4 24.9 1.6
3 -6 4 24.6 1.6
-4 6 -4 3.8 0.7
-4 6 -4 5.1 1.5
-4 6 -4 5.1 0.7
4 -6 4 2.2 0.7
4 -6 4 3.8 0.8
4 -6 4 3.4 0.7
4 -6 4 3.3 0.6
4 -6 4 4.4 0.6
4 -6 4 4.1 0.8
-5 6 -4 1.4 1.4
-5 6 -4 0.7 1
5 -6 4 0.1 0.7
5 -6 4 3.3 2
5 -6 4 -0.2 1
5 -6 4 0.7 0.9
5 -6 4 2.3 1
5 -6 4 0 0.6
-6 6 -4 104.99 5
-6 6 -4 107.59 5
6 -6 4 95.69 5.6
6 -6 4 108.89 5.3
6 -6 4 110.09 5.2
6 -6 4 108.09 5.2
6 -6 4 108.69 5.1
7 5 -4 17.2 1.9
7 5 -4 18.1 1.8
7 5 -4 22.1 2.1
-7 -5 4 22.3 2.3
-7 -5 4 21.1 1.9
-7 -5 4 17.8 2.3
6 5 -4 47.4 2.5
6 5 -4 48.9 2.9
6 5 -4 47.7 2.5
-6 -5 4 50.89 2.9
-6 -5 4 50.69 3.4
-6 -5 4 49.3 2.4
-6 -5 4 52.09 2.6
5 5 -4 86.79 5.9
5 5 -4 85.09 3.7
5 5 -4 86.79 4.1
-5 -5 4 87.09 3.7
-5 -5 4 92.19 3.8
-5 -5 4 82.09 3.9
-5 -5 4 93.59 4.4
4 5 -4 155.18 6.4
4 5 -4 151.88 6.1
-4 -5 4 163.38 6.1
-4 -5 4 148.89 6.4
-4 -5 4 157.98 6.6
-4 -5 4 161.78 6.1
-4 -5 4 150.78 6.1
3 5 -4 43.2 1.9
3 5 -4 42.4 2.1
3 5 -4 47.3 3.5
-3 -5 4 43.1 1.9
-3 -5 4 42 2.2
-3 -5 4 42.3 2.3
-3 -5 4 43.5 2
-3 -5 4 41.4 2
2 5 -4 104.79 5.6
2 5 -4 107.89 4
2 5 -4 89.59 4.3
-2 -5 4 108.89 4.5
-2 -5 4 111.19 4.3
-2 -5 4 112.89 4.6
-2 -5 4 109.99 4.3
-2 -5 4 108.99 4.1
1 5 -4 284.57 10.4
1 5 -4 273.77 11.7
-1 -5 4 277.17 10.7
-1 -5 4 279.17 10.6
-1 -5 4 269.77 10.5
-1 -5 4 266.77 10.4
-1 -5 4 284.47 10.2
0 5 -4 693.33 26.6
0 5 -4 672.73 25.3
0 -5 4 738.53 25.8
0 -5 4 682.93 25.6
0 -5 4 691.43 25.6
0 -5 4 692.73 25.2
0 -5 4 685.33 25.5
-1 5 -4 154.88 5.9
-1 5 -4 148.29 7.2
1 -5 4 154.08 6.2
1 -5 4 160.58 6.2
1 -5 4 154.28 6.2
1 -5 4 159.08 5.9
-2 5 -4 588.24 23.4
-2 5 -4 644.64 24.6
2 -5 4 638.84 23.8
2 -5 4 652.83 23.8
2 -5 4 662.13 23.4
2 -5 4 636.44 23.8
2 -5 4 667.53 23.6
-3 5 -4 623.44 22.2
-3 5 -4 552.84 22.6
-3 5 -4 603.84 23.3
3 -5 4 611.94 22.7
3 -5 4 611.44 22.3
3 -5 4 612.64 22.5
3 -5 4 619.94 22.7
3 -5 4 615.34 22.4
3 -5 4 621.84 22.8
-4 5 -4 81.29 4.4
-4 5 -4 85.99 3.8
4 -5 4 84.99 3.6
4 -5 4 90.19 4.1
4 -5 4 92.29 3.7
4 -5 4 90.09 4
4 -5 4 85.69 4
4 -5 4 88.79 3.9
-5 5 -4 215.88 8.4
-5 5 -4 204.68 8.6
5 -5 4 202.38 8.4
5 -5 4 216.68 9
5 -5 4 211.48 8.8
5 -5 4 203.28 9
5 -5 4 208.78 8.5
5 -5 4 200.78 8.1
-6 5 -4 10.8 1.6
-6 5 -4 14 1.9
-6 5 -4 10.3 1.6
6 -5 4 15.1 2
6 -5 4 12.7 1.7
6 -5 4 15.1 2
7 -5 4 -0.1 2
8 4 -4 31.2 2.4
8 4 -4 27.2 2.5
8 4 -4 29.4 2.4
-8 -4 4 29.7 2.5
-8 -4 4 28.4 2.9
-8 -4 4 31.6 2.6
7 4 -4 12.6 1.8
7 4 -4 15.2 1.7
7 4 -4 15.1 1.8
-7 -4 4 13.4 1.9
-7 -4 4 14.7 2
-7 -4 4 11.9 1.6
6 4 -4 214.48 8.6
6 4 -4 219.48 9
6 4 -4 206.88 8.6
-6 -4 4 213.98 8.4
-6 -4 4 232.08 9.3
-6 -4 4 214.98 8.6
-6 -4 4 225.28 9.4
5 4 -4 102.99 4.2
5 4 -4 96.49 6.1
5 4 -4 99.69 4.2
5 4 -4 99.99 4.4
-5 -4 4 100.49 4
-5 -4 4 95.89 4.2
-5 -4 4 102.29 4.4
-5 -4 4 99.79 4.7
4 4 -4 440.96 18.5
4 4 -4 437.06 16.9
4 4 -4 437.46 16.7
4 4 -4 515.75 16.5
-4 -4 4 436.26 17.2
-4 -4 4 429.56 16.7
-4 -4 4 459.05 16.5
-4 -4 4 453.25 16.7
-4 -4 4 445.96 16.9
3 4 -4 96.29 3.8
3 4 -4 98.59 4
3 4 -4 98.89 5.3
-3 -4 4 99.49 4.3
-3 -4 4 98.99 3.9
-3 -4 4 100.19 3.9
-3 -4 4 96.99 3.9
-3 -4 4 95.19 4.1
2 4 -4 5.5 0.4
2 4 -4 3.5 1.1
2 4 -4 5.5 0.5
-2 -4 4 3.8 0.5
-2 -4 4 3.7 0.5
-2 -4 4 4.4 0.5
-2 -4 4 4.7 0.6
1 4 -4 431.76 16.6
1 4 -4 484.75 17.9
-1 -4 4 452.85 16.7
-1 -4 4 446.26 16.7
-1 -4 4 456.95 16.5
-1 -4 4 452.95 16.9
-1 -4 4 434.36 16.8
0 4 -4 1.4 0.8
0 4 -4 0.3 0.2
0 4 -4 0.8 0.2
0 -4 4 -0.1 0.3
0 -4 4 0.8 0.3
0 -4 4 -0.2 0.4
0 -4 4 0.6 0.3
0 -4 4 0.1 0.4
-1 4 -4 180.28 7.7
1 -4 4 204.48 7.8
1 -4 4 209.68 7.6
1 -4 4 207.28 7.8
1 -4 4 202.18 7.7
-2 4 -4 110.19 5
-2 4 -4 94.69 4.4
2 -4 4 114.89 4.2
2 -4 4 110.59 4.6
2 -4 4 105.19 4.5
2 -4 4 112.69 4.5
2 -4 4 114.39 4.4
-3 4 -4 1.8 0.4
3 -4 4 1.5 0.5
3 -4 4 2.4 0.4
3 -4 4 2 0.5
3 -4 4 1.7 0.5
3 -4 4 2.3 0.4
3 -4 4 1.9 0.4
-4 4 -4 398.76 15
-4 4 -4 396.06 14.9
4 -4 4 390.66 15.1
4 -4 4 389.06 14.9
4 -4 4 382.26 14.5
4 -4 4 390.76 15
4 -4 4 391.26 14.7
4 -4 4 394.16 14.9
-5 4 -4 28 1.8
-5 4 -4 30.1 2
5 -4 4 31.7 1.9
5 -4 4 29.1 2.2
5 -4 4 28.6 1.7
5 -4 4 30.7 2.4
5 -4 4 30.5 2.1
-6 4 -4 81.09 4.1
-6 4 -4 84.79 4.1
-6 4 -4 88.19 4
6 -4 4 80.99 3.8
6 -4 4 81.19 4.3
6 -4 4 81.29 4.3
6 -4 4 79.29 4.2
6 -4 4 87.29 4.3
-7 4 -4 73.39 4.1
-7 4 -4 67.79 3.5
7 -4 4 63.79 3.9
7 -4 4 66.19 4
7 -4 4 65.19 3.8
8 3 -4 28.2 2.2
8 3 -4 26.5 2.2
8 3 -4 27.3 2.3
-8 -3 4 26.5 2.1
-8 -3 4 30.4 2.4
-8 -3 4 28.6 2.7
7 3 -4 56.39 3.4
7 3 -4 55.39 3.1
7 3 -4 53.89 3.2
-7 -3 4 52.09 3.2
-7 -3 4 60.79 3.2
-7 -3 4 56.99 3.6
6 3 -4 29.2 1.8
6 3 -4 30.5 1.7
6 3 -4 28.8 1.9
-6 -3 4 33.2 1.5
-6 -3 4 26.9 1.8
-6 -3 4 30.9 2.2
-6 -3 4 31.8 1.8
5 3 -4 350.16 13
5 3 -4 336.77 13
5 3 -4 346.07 13.2
-5 -3 4 346.37 13.1
-5 -3 4 328.97 13.4
-5 -3 4 344.27 12.8
-5 -3 4 356.46 13
4 3 -4 494.25 20.6
4 3 -4 518.75 19.3
4 3 -4 513.35 18.7
4 3 -4 510.65 18.9
-4 -3 4 503.05 19.4
-4 -3 4 544.65 19
-4 -3 4 513.05 18.8
-4 -3 4 513.35 19.1
3 3 -4 0.9 0.3
3 3 -4 1.6 0.3
3 3 -4 0.6 0.9
3 3 -4 1.6 0.3
-3 -3 4 1.5 0.3
-3 -3 4 1.7 0.3
-3 -3 4 1.8 0.3
-3 -3 4 2.4 0.5
-3 -3 4 1.4 0.6
2 3 -4 2316.27 82.19
2 3 -4 2143.69 82.69
2 3 -4 2142.89 81.59
2 3 -4 2302.47 81.59
-2 -3 4 2222.58 81.49
-2 -3 4 2288.57 81.69
-2 -3 4 2219.38 81.89
-2 -3 4 2404.66 81.79
-2 -3 4 2245.08 82.09
1 3 -4 675.33 24.1
1 3 -4 644.94 23.9
1 3 -4 578.54 25.1
-1 -3 4 662.03 24.1
-1 -3 4 672.83 24.1
-1 -3 4 670.23 24
-1 -3 4 677.53 24.3
-1 -3 4 673.43 24
0 3 -4 581.04 21.8
0 3 -4 553.64 21.2
0 -3 4 587.44 21.1
0 -3 4 569.14 21.2
0 -3 4 579.84 21.2
0 -3 4 570.34 21.3
0 -3 4 598.84 21.5
-1 3 -4 814.22 31.3
-1 3 -4 784.12 30.9
1 -3 4 858.71 30.8
1 -3 4 862.31 30.9
1 -3 4 870.61 30.6
1 -3 4 861.91 30.9
1 -3 4 856.51 30.9
-2 3 -4 13.4 1.2
-2 3 -4 13.5 1
2 -3 4 13.1 0.9
2 -3 4 12.7 0.9
2 -3 4 12.9 0.9
2 -3 4 13.4 1
2 -3 4 13.1 0.8
-3 3 -4 429.66 18.3
-3 3 -4 470.45 18.4
-3 3 -4 513.45 18.5
3 -3 4 491.65 18.3
3 -3 4 515.45 18.2
3 -3 4 495.25 18.5
3 -3 4 505.15 18
3 -3 4 504.45 18.5
-4 3 -4 23.3 1.5
-4 3 -4 20.8 1.4
4 -3 4 21.5 1.6
4 -3 4 22.3 1.5
4 -3 4 23.7 1.4
4 -3 4 22.5 1.6
4 -3 4 22.9 1.5
-5 3 -4 15.3 1.4
-5 3 -4 15.4 1.8
-5 3 -4 14.9 1.3
5 -3 4 15.9 1.3
5 -3 4 18.8 2.8
5 -3 4 16.1 1.6
5 -3 4 14.3 1.6
5 -3 4 16.8 1.4
-6 3 -4 122.99 5.5
-6 3 -4 125.19 5.3
-6 3 -4 124.29 5.7
6 -3 4 120.99 5.7
6 -3 4 119.89 5.3
6 -3 4 127.19 5.6
6 -3 4 121.49 5.7
-7 3 -4 3.4 1
-7 3 -4 4 1
7 -3 4 3.5 1.2
7 -3 4 4.6 1.3
7 -3 4 6.6 1.5
8 2 -4 96.49 4.6
8 2 -4 103.09 4.7
8 2 -4 91.19 4.7
-8 -2 4 97.09 5.2
-8 -2 4 95.39 4.6
-8 -2 4 103.09 4.7
7 2 -4 12.4 2.1
7 2 -4 14.8 1.8
-7 -2 4 13.7 1.9
-7 -2 4 11.3 2
-7 -2 4 12.4 1.3
6 2 -4 18.8 1.4
6 2 -4 20.5 1.3
6 2 -4 18.1 1.3
-6 -2 4 16.4 1.3
-6 -2 4 18.4 1.6
-6 -2 4 18.7 1.4
-6 -2 4 20.7 1.1
5 2 -4 574.34 25.7
5 2 -4 659.53 24
5 2 -4 648.94 24
5 2 -4 653.93 23.9
-5 -2 4 645.64 23.9
-5 -2 4 674.83 23.6
-5 -2 4 678.03 24
-5 -2 4 637.24 24.3
4 2 -4 2 0.4
4 2 -4 4.1 0.5
4 2 -4 3 0.4
-4 -2 4 2.4 0.4
-4 -2 4 2.4 0.6
-4 -2 4 3.2 0.4
-4 -2 4 4 0.5
3 2 -4 470.85 18
3 2 -4 504.25 19.6
3 2 -4 522.15 18.7
3 2 -4 470.35 18
-3 -2 4 491.95 18
-3 -2 4 489.35 18.2
-3 -2 4 492.35 18.2
-3 -2 4 497.95 18.4
2 2 -4 451.75 16.7
2 2 -4 454.85 16.8
2 2 -4 465.35 16.7
-2 -2 4 459.25 16.7
-2 -2 4 432.06 16.8
-2 -2 4 464.95 17.1
-2 -2 4 469.65 16.8
1 2 -4 3.6 0.9
1 2 -4 2.8 0.3
1 2 -4 2.3 0.4
-1 -2 4 2.2 0.3
-1 -2 4 2.8 0.5
-1 -2 4 3.2 0.3
-1 -2 4 2.3 0.3
0 -2 4 600.84 21.9
0 -2 4 583.94 22.1
0 -2 4 618.34 22.1
0 -2 4 609.74 22.1
-1 2 -4 22.1 1.2
1 -2 4 20.2 1
1 -2 4 21.6 1.2
1 -2 4 23.2 1.2
1 -2 4 21.1 1.2
-2 2 -4 720.33 25.2
-2 2 -4 585.14 25
-2 2 -4 693.13 25.2
2 -2 4 698.13 25.2
2 -2 4 724.63 25.2
2 -2 4 705.13 25.3
2 -2 4 652.83 25.2
-3 2 -4 224.78 8.8
-3 2 -4 230.68 8.9
3 -2 4 229.18 8.9
3 -2 4 226.58 9
3 -2 4 236.38 8.7
3 -2 4 230.58 8.6
3 -2 4 214.88 8.9
-4 2 -4 18.4 1.3
-4 2 -4 17.8 1.3
-4 2 -4 14.7 1.3
4 -2 4 19.3 1.3
4 -2 4 22.1 1.4
4 -2 4 19.2 1.3
4 -2 4 17.3 1.4
-5 2 -4 129.09 5.3
-5 2 -4 129.89 5.5
-5 2 -4 111.39 5
5 -2 4 122.59 5.1
5 -2 4 118.99 5
5 -2 4 112.09 5.5
5 -2 4 103.09 5.8
-6 2 -4 -0.1 0.7
-6 2 -4 -0.3 0.8
-6 2 -4 -0.5 0.7
6 -2 4 0.9 1
6 -2 4 0 1.3
6 -2 4 1.1 0.8
6 -2 4 0.9 1
6 -2 4 -0.1 0.7
-7 2 -4 45.7 2.8
-7 2 -4 51.49 3.1
7 -2 4 43 3.8
7 -2 4 49.99 3.2
7 -2 4 43.2 3.1
9 1 -4 102.79 5.1
9 1 -4 109.59 5.1
9 1 -4 101.09 5.1
-9 -1 4 97.69 4.8
-9 -1 4 102.49 5.6
-9 -1 4 98.19 5
8 1 -4 110.29 5.2
8 1 -4 111.19 5.2
8 1 -4 106.79 5.2
-8 -1 4 103.09 5.5
-8 -1 4 116.19 5.2
-8 -1 4 111.59 5.1
7 1 -4 3 1
7 1 -4 1.8 0.7
7 1 -4 0.6 3
-7 -1 4 1.5 1.3
-7 -1 4 2.9 1.4
-7 -1 4 1.4 0.5
6 1 -4 134.69 5.5
6 1 -4 130.39 5.5
6 1 -4 133.69 5.6
-6 -1 4 131.59 5.4
-6 -1 4 137.89 5.5
-6 -1 4 131.39 5.9
5 1 -4 143.79 5.7
5 1 -4 138.79 5.7
5 1 -4 139.29 5.6
-5 -1 4 140.49 5.2
-5 -1 4 141.39 5.6
-5 -1 4 140.69 6
-5 -1 4 140.69 5.7
4 1 -4 698.33 26.7
4 1 -4 640.94 24.5
4 1 -4 653.13 24.9
4 1 -4 688.23 24.8
-4 -1 4 712.13 24.9
-4 -1 4 674.23 25.1
-4 -1 4 688.73 24.5
-4 -1 4 652.63 24.8
3 1 -4 307.87 12
3 1 -4 323.87 12.2
3 1 -4 320.37 12.1
3 1 -4 337.57 13.7
-3 -1 4 336.57 12.1
-3 -1 4 349.47 12.2
-3 -1 4 320.97 12.4
-3 -1 4 317.17 11.9
2 1 -4 88.99 3.6
2 1 -4 99.59 3.7
2 1 -4 89.09 4.6
2 1 -4 92.89 3.5
-2 -1 4 94.29 3.8
-2 -1 4 88.39 3.5
-2 -1 4 90.89 3.6
-2 -1 4 90.69 3.5
1 1 -4 202.38 8.3
1 1 -4 217.78 8
-1 -1 4 219.38 8.1
-1 -1 4 224.08 8.2
-1 -1 4 223.08 8.4
-1 -1 4 218.88 8.2
-1 -1 4 219.68 8.2
0 1 -4 9 0.7
0 1 -4 9.2 0.7
0 -1 4 9.9 0.7
0 -1 4 8.4 0.7
0 -1 4 9.6 0.8
0 -1 4 9.1 0.6
0 -1 4 9.5 0.7
-1 1 -4 25.5 1.4
-1 1 -4 24.8 1.4
1 -1 4 26.7 1.2
1 -1 4 25.4 1.3
1 -1 4 24 1.4
1 -1 4 23.5 1.3
-2 1 -4 222.88 8.5
-2 1 -4 230.48 8.5
2 -1 4 221.68 8.3
2 -1 4 214.08 8.5
2 -1 4 218.78 8.5
2 -1 4 219.38 8.2
2 -1 4 204.38 8.5
-3 1 -4 7.8 0.8
-3 1 -4 7.5 0.9
3 -1 4 9.9 0.8
3 -1 4 9.3 0.9
3 -1 4 7.3 0.8
3 -1 4 9.7 0.9
-4 1 -4 132.39 5.9
-4 1 -4 137.19 5.9
-4 1 -4 140.19 5.8
4 -1 4 141.69 6
4 -1 4 143.69 5.8
4 -1 4 149.79 5.7
4 -1 4 144.79 6
-5 1 -4 2.9 0.8
-5 1 -4 3.9 1
5 -1 4 0.1 1.4
5 -1 4 4.2 0.7
5 -1 4 5.4 1.3
5 -1 4 3.1 0.8
5 -1 4 3.5 1
-6 1 -4 64.09 3.6
-6 1 -4 67.79 3.2
-6 1 -4 74.49 3.6
6 -1 4 63.89 3.4
6 -1 4 66.79 3.7
6 -1 4 65.89 3.7
7 -1 4 0 1.7
9 0 -4 34.4 2.7
9 0 -4 30.3 2.5
9 0 -4 30.8 2.6
-9 0 4 27.6 2.1
-9 0 4 28.1 2.4
-9 0 4 30.9 2.9
8 0 -4 1.1 6.3
8 0 -4 13.8 1.6
8 0 -4 12.5 1.6
8 0 -4 9.2 1.6
-8 0 4 11 1.5
-8 0 4 10.9 1.9
-8 0 4 9.4 1.3
7 0 -4 17.2 1.6
7 0 -4 15.3 1.4
7 0 -4 18.6 2.3
-7 0 4 17.6 1.5
-7 0 4 14.3 1.7
-7 0 4 15.6 1.3
6 0 -4 47 2.5
6 0 -4 48.1 2.4
6 0 -4 51.29 2.4
-6 0 4 47.3 2.2
-6 0 4 51.89 2.5
-6 0 4 45 2.6
5 0 -4 140.39 5.3
5 0 -4 150.18 5.8
5 0 -4 147.19 5.7
5 0 -4 142.39 5.8
5 0 -4 132.59 7.8
-5 0 4 145.39 5.8
-5 0 4 140.69 6
-5 0 4 149.69 5.6
4 0 -4 340.67 12.7
4 0 -4 326.57 12.4
4 0 -4 339.97 12.8
4 0 -4 357.66 14.9
-4 0 4 323.77 12.7
-4 0 4 346.77 12.9
-4 0 4 343.77 12.7
3 0 -4 80.99 3.4
3 0 -4 97.89 5.1
3 0 -4 82.39 3.4
3 0 -4 83.09 3.3
-3 0 4 86.39 3.3
-3 0 4 79.59 3.3
2 0 -4 292.77 10.7
2 0 -4 258.37 11.9
2 0 -4 299.67 10.7
2 0 -4 277.27 10.6
-2 0 4 296.47 10.7
-2 0 4 310.37 10.9
-2 0 4 310.57 10.6
-2 0 4 260.37 10.7
1 0 -4 81.89 3.1
1 0 -4 76.59 3.2
1 0 -4 84.79 3.4
-1 0 4 86.59 3.2
-1 0 4 76.49 3.2
-1 0 4 71.69 3
-1 0 4 83.09 3.4
-1 0 4 83.49 3.2
0 0 4 2313.27 93.39
0 0 4 2822.22 93.49
0 0 4 2612.04 93.49
-1 0 -4 1303.97 45.9
-1 0 -4 1143.79 45.8
1 0 4 1276.57 45.5
1 0 4 1296.67 45.7
1 0 4 1220.88 45.8
1 0 4 1300.37 45.8
-2 0 -4 27 1.5
-2 0 -4 24.9 1.4
-2 0 -4 25.8 1.4
2 0 4 24.9 1.3
2 0 4 24.3 1.2
2 0 4 24.2 1.4
2 0 4 23.6 1.4
-3 0 -4 279.17 10.7
-3 0 -4 260.67 10.6
-3 0 -4 280.97 10.5
3 0 4 266.17 10.6
3 0 4 277.07 10.7
3 0 4 265.27 10.5
3 0 4 286.17 10.4
-4 0 -4 14.6 1.1
-4 0 -4 15.4 1.2
-4 0 -4 15.1 1.3
4 0 4 13.8 1.3
4 0 4 14.6 1.3
4 0 4 15.1 1.2
4 0 4 15.5 1.2
-5 0 -4 78.99 3.5
-5 0 -4 78.49 4
-5 0 -4 84.09 4
5 0 4 75.99 4
5 0 4 78.09 4
5 0 4 75.89 3.6
-6 0 -4 36.6 2.5
-6 0 -4 37.4 2.4
6 0 4 37.1 2.7
6 0 4 38.8 2.7
9 -1 -4 7.2 1.3
9 -1 -4 6.7 1.3
9 -1 -4 -3.2 7.2
9 -1 -4 8.4 1.4
-9 1 4 5.7 1.3
-9 1 4 5.8 1.5
-9 1 4 7 1.2
8 -1 -4 186.08 8.1
8 -1 -4 196.58 8.1
8 -1 -4 191.28 8
-8 1 4 190.58 8
-8 1 4 193.38 7.7
-8 1 4 193.28 8.4
7 -1 -4 31 2
7 -1 -4 31.7 2.1
7 -1 -4 33.2 2.1
-7 1 4 34.2 2.2
-7 1 4 31 1.7
6 -1 -4 256.27 10.1
6 -1 -4 251.27 10
6 -1 -4 254.57 10
-6 1 4 251.37 10.2
-6 1 4 273.97 9.8
5 -1 -4 135.39 5.5
5 -1 -4 144.19 8.4
5 -1 -4 135.19 5.5
5 -1 -4 138.19 5.2
-5 1 4 140.89 5.4
-5 1 4 129.39 5.5
-5 1 4 131.09 5.6
4 -1 -4 179.38 6.9
4 -1 -4 184.08 6.8
4 -1 -4 187.98 7
-4 1 4 158.78 6.7
-4 1 4 191.88 7
-4 1 4 178.08 7.1
3 -1 -4 229.58 9.2
3 -1 -4 248.38 9.1
3 -1 -4 249.28 9.1
-3 1 4 236.78 9
-3 1 4 226.78 9.1
-3 1 4 250.37 9.2
2 -1 -4 1.2 0.3
2 -1 -4 1.3 0.3
-2 1 4 1.5 0.3
-2 1 4 1.2 0.3
-2 1 4 1.2 0.2
1 -1 -4 410.96 14.6
1 -1 -4 381.66 14.6
-1 1 4 388.56 14.6
-1 1 4 405.16 14.7
-1 1 4 392.06 14.6
-1 1 4 405.96 14.8
0 -1 -4 246.48 9.2
0 -1 -4 213.78 9.1
0 1 4 243.48 9.1
0 1 4 230.68 8.9
0 1 4 258.27 9.3
0 1 4 243.68 9.1
0 1 4 242.98 9
-1 -1 -4 92.39 4.2
-1 -1 -4 100.09 4.3
-1 -1 -4 107.99 4.3
1 1 4 109.19 4.3
1 1 4 106.59 4.3
1 1 4 104.19 4
1 1 4 104.59 4.2
-2 -1 -4 828.22 31
-2 -1 -4 824.02 31
-2 -1 -4 830.02 31.1
2 1 4 840.42 31.2
2 1 4 816.72 31
2 1 4 884.21 31
2 1 4 862.51 30.8
2 1 4 849.91 30.9
-3 -1 -4 233.38 10.2
-3 -1 -4 292.37 10.4
-3 -1 -4 261.57 10.1
3 1 4 256.37 10.2
3 1 4 263.57 10.2
3 1 4 255.87 10.3
3 1 4 272.77 10
-4 -1 -4 142.99 6.3
-4 -1 -4 144.79 6.3
-4 -1 -4 151.38 6
4 1 4 150.98 6.3
4 1 4 154.98 6.1
4 1 4 148.09 6.2
-5 -1 -4 96.79 4.6
-5 -1 -4 99.69 4.2
-5 -1 -4 88.49 4.6
5 1 4 96.29 4.6
5 1 4 92.59 4.3
5 1 4 98.49 4.6
-6 -1 -4 8.4 1.2
-6 -1 -4 7.4 1.3
-6 -1 -4 4.8 1.5
6 1 4 6.2 1.2
6 1 4 7.9 1.4
6 1 4 7.1 1.3
9 -2 -4 37.2 2.8
9 -2 -4 35.6 2.8
9 -2 -4 39.8 2.8
-9 2 4 36.7 2.9
-9 2 4 38.1 2.6
8 -2 -4 59.09 3.3
8 -2 -4 57.79 3.3
8 -2 -4 56.79 3.3
-8 2 4 60.19 3.2
-8 2 4 59.49 2.7
-8 2 4 53.49 4
7 -2 -4 44.5 3
7 -2 -4 42.7 2.8
7 -2 -4 44.9 2.6
-7 2 4 43.6 2.7
-7 2 4 43.9 2.1
-7 2 4 45.2 2.6
6 -2 -4 201.78 8
6 -2 -4 198.28 7.5
6 -2 -4 204.48 7.9
-6 2 4 197.98 8
-6 2 4 198.98 8.1
-6 2 4 191.58 7.6
5 -2 -4 21.8 1.3
5 -2 -4 24.6 1.2
5 -2 -4 21.6 1.3
-5 2 4 21.9 1.1
-5 2 4 22.5 1.4
-5 2 4 20.1 1.3
4 -2 -4 1869.91 66.89
4 -2 -4 1773.02 66.89
4 -2 -4 1869.81 66.89
-4 2 4 1629.24 66.89
-4 2 4 1911.41 66.49
-4 2 4 1960.9 66.89
-4 2 4 1885.51 66.99
3 -2 -4 1382.16 49.5
3 -2 -4 1260.07 49.8
3 -2 -4 1376.86 49.8
-3 2 4 1407.06 49.8
-3 2 4 1361.46 49.8
-3 2 4 1424.06 49.8
2 -2 -4 309.27 11.4
2 -2 -4 299.77 11.1
-2 2 4 305.57 11.2
-2 2 4 292.67 11.3
-2 2 4 300.77 11.3
1 -2 -4 1009.5 39.2
1 -2 -4 1051.89 39.3
1 -2 -4 1077.49 39.5
-1 2 4 1143.79 39.4
-1 2 4 1086.29 39.3
-1 2 4 1059.69 39.3
-1 2 4 1146.89 39.5
0 -2 -4 4.5 0.6
0 -2 -4 4.4 0.5
0 -2 -4 4.3 0.5
0 2 4 3.5 0.6
0 2 4 5.1 0.6
0 2 4 4.8 0.5
0 2 4 3.7 0.7
-1 -2 -4 267.67 10.3
-1 -2 -4 267.67 10.3
-1 -2 -4 299.87 10.3
1 2 4 236.18 10.1
1 2 4 259.27 10.4
1 2 4 269.97 10.2
1 2 4 268.57 10.1
1 2 4 271.67 10.2
-2 -2 -4 66.79 3.1
-2 -2 -4 69.29 3.1
-2 -2 -4 64.59 3.1
2 2 4 69.19 3.3
2 2 4 69.59 2.9
2 2 4 68.69 3.1
2 2 4 65.79 3.1
-3 -2 -4 7.7 1
-3 -2 -4 7.5 0.9
3 2 4 7.5 1
3 2 4 5.1 0.7
3 2 4 6.9 1.2
3 2 4 7.6 0.9
-4 -2 -4 178.78 7.2
-4 -2 -4 190.28 8.1
4 2 4 163.58 7.4
4 2 4 179.08 7.2
4 2 4 173.18 7.5
-5 -2 -4 3.9 1.4
-5 -2 -4 3.1 1
-5 -2 -4 2 0.7
-5 -2 -4 2.6 0.8
5 2 4 5.3 1.3
5 2 4 3.1 0.9
5 2 4 0.4 1.4
5 2 4 1.4 0.9
-6 -2 -4 33.6 2.3
-6 -2 -4 27 2.5
-6 -2 -4 36.5 3.2
6 2 4 34 2.8
6 2 4 30.1 2.6
6 2 4 37.5 3.4
9 -3 -4 20.2 2.3
9 -3 -4 25.3 2.3
9 -3 -4 23 2.2
-9 3 4 23.9 2.2
-9 3 4 23 2.4
8 -3 -4 5 1.2
8 -3 -4 6.9 6.3
8 -3 -4 5.6 1.1
8 -3 -4 6.2 1.1
-8 3 4 6.4 1.1
-8 3 4 6.6 1.5
7 -3 -4 145.59 6.3
7 -3 -4 146.99 6.4
-7 3 4 146.29 6.3
6 -3 -4 0 0.4
6 -3 -4 -0.2 3.6
6 -3 -4 1 0.4
6 -3 -4 -0.3 0.4
-6 3 4 0.2 0.5
-6 3 4 -0.5 0.6
-6 3 4 0.5 0.5
-6 3 4 0.6 0.3
5 -3 -4 46.5 2.2
5 -3 -4 45 2.1
5 -3 -4 45.3 2.3
-5 3 4 47.5 2.3
-5 3 4 46.5 1.8
-5 3 4 47 2.3
-5 3 4 46.5 2.2
4 -3 -4 189.38 7.4
4 -3 -4 189.48 7
4 -3 -4 188.18 7.3
4 -3 -4 185.98 7.4
4 -3 -4 192.98 10.9
-4 3 4 189.58 7.4
-4 3 4 188.78 7.4
-4 3 4 190.88 7.3
3 -3 -4 46 2.3
3 -3 -4 43.2 4.6
3 -3 -4 49.6 2
3 -3 -4 49.8 2.2
-3 3 4 55.19 2.3
-3 3 4 47.9 2.1
-3 3 4 52.59 2.2
2 -3 -4 396.86 16.1
2 -3 -4 425.06 15.9
2 -3 -4 423.96 16
-2 3 4 464.35 16.1
-2 3 4 456.65 16
-2 3 4 428.16 15.9
-2 3 4 430.56 16
1 -3 -4 9.1 0.6
1 -3 -4 10.8 0.8
1 -3 -4 10.3 0.7
-1 3 4 9.1 0.8
-1 3 4 11.6 0.8
-1 3 4 9.6 0.8
-1 3 4 10.9 0.8
0 -3 -4 139.99 5.3
0 -3 -4 135.09 5.4
0 -3 -4 133.09 5.2
0 3 4 135.89 5.3
0 3 4 131.39 5.3
0 3 4 136.89 5.3
0 3 4 114.19 5.7
0 3 4 131.49 5.2
-1 -3 -4 55.99 2.7
-1 -3 -4 51.69 2.6
-1 -3 -4 57.89 2.7
1 3 4 58.99 2.6
1 3 4 65.49 2.8
1 3 4 58.49 2.6
1 3 4 58.59 2.6
1 3 4 52.49 2.8
-2 -3 -4 42.5 2.3
-2 -3 -4 42.6 2.2
-2 -3 -4 44.2 2.3
2 3 4 43 2.2
2 3 4 43.5 2.2
2 3 4 47.6 2.5
2 3 4 46 2.3
-3 -3 -4 102.59 4.6
-3 -3 -4 121.39 4.9
-3 -3 -4 109.19 4.9
3 3 4 101.89 4.8
3 3 4 106.99 4.7
3 3 4 110.59 4.7
-4 -3 -4 18.5 2.1
-4 -3 -4 26.4 2.2
-4 -3 -4 23.6 1.6
-4 -3 -4 23.3 1.9
4 3 4 22.5 2.1
4 3 4 22.5 2.2
4 3 4 17.6 2.2
4 3 4 21.5 1.8
-5 -3 -4 37.7 3.2
-5 -3 -4 40.6 2.7
-5 -3 -4 35.3 2.5
5 3 4 44.1 2.7
5 3 4 38 2.9
5 3 4 39.3 2.7
9 -4 -4 5.4 1.3
9 -4 -4 7.6 1.4
-9 4 4 7.6 1.5
-9 4 4 11.1 1.7
-9 4 4 4.3 1.2
8 -4 -4 117.99 5.4
8 -4 -4 110.49 5.2
-8 4 4 112.29 5.1
-8 4 4 107.09 5.5
-8 4 4 113.89 5.2
7 -4 -4 70.19 3.5
7 -4 -4 67.29 3
7 -4 -4 70.09 3.6
-7 4 4 57.79 3.6
-7 4 4 69.09 3.3
6 -4 -4 58.49 2.8
6 -4 -4 58.49 2.9
6 -4 -4 55.79 2.6
-6 4 4 55.59 2.8
-6 4 4 60.79 2.8
-6 4 4 54.69 2.7
5 -4 -4 5.9 0.8
5 -4 -4 7.2 0.8
5 -4 -4 7.1 0.6
5 -4 -4 5.8 0.8
-5 4 4 7.2 0.9
-5 4 4 7.5 0.9
-5 4 4 5.5 0.8
4 -4 -4 26.2 4.7
4 -4 -4 27.3 1.3
4 -4 -4 26.7 1.5
4 -4 -4 27.2 1.5
-4 4 4 26.6 1.4
-4 4 4 24.9 1.5
-4 4 4 27.3 1.4
3 -4 -4 370.96 14.6
3 -4 -4 393.76 14.6
3 -4 -4 405.06 18.3
3 -4 -4 392.96 14.6
-3 4 4 371.36 14.5
-3 4 4 393.36 14.5
-3 4 4 409.56 14.6
-3 4 4 380.16 14.4
2 -4 -4 60.79 2.8
2 -4 -4 62.69 2.6
2 -4 -4 60.39 2.3
-2 4 4 59.89 2.7
-2 4 4 62.69 2.6
-2 4 4 56.59 2.7
1 -4 -4 115.19 4.5
1 -4 -4 115.19 4.9
1 -4 -4 122.49 4.8
-1 4 4 113.39 4.8
-1 4 4 122.59 4.8
-1 4 4 118.79 4.7
0 -4 -4 139.29 5.6
0 -4 -4 132.39 5.3
0 -4 -4 129.39 5.5
0 4 4 155.18 6.1
0 4 4 130.59 5.4
0 4 4 126.99 5.5
0 4 4 131.49 5.4
-1 -4 -4 86.69 4.2
-1 -4 -4 82.99 3.7
-1 -4 -4 87.79 3.8
1 4 4 85.69 3.7
1 4 4 81.79 3.7
1 4 4 85.89 4.3
1 4 4 90.09 3.9
1 4 4 85.89 3.8
-2 -4 -4 200.38 8.1
-2 -4 -4 206.18 8
-2 -4 -4 193.48 8.1
2 4 4 206.08 8
2 4 4 203.68 7.9
2 4 4 205.08 8.1
2 4 4 182.98 8.4
-3 -4 -4 1.4 0.9
-3 -4 -4 0.8 0.7
-3 -4 -4 -0.4 0.5
-3 -4 -4 1.2 0.8
3 4 4 -0.6 0.9
3 4 4 -1.2 0.6
3 4 4 -0.3 0.9
3 4 4 -1.1 0.6
-4 -4 -4 6.2 1.1
-4 -4 -4 10.7 2.9
-4 -4 -4 6.9 1
-4 -4 -4 7.2 1.2
4 4 4 6.7 1.2
4 4 4 7.3 1.2
4 4 4 6.9 1.4
-5 -4 -4 16.4 2.7
-5 -4 -4 16.2 2.1
-5 -4 -4 15.3 1.8
5 4 4 14.1 2.4
5 4 4 13.8 2.5
5 4 4 20.1 2.4
5 4 4 19.6 2.1
8 -5 -4 -1.1 6.7
8 -5 -4 1.3 0.9
8 -5 -4 0.8 0.9
-8 5 4 2.3 0.9
-8 5 4 1.1 1.2
-8 5 4 0.7 1
7 -5 -4 53.99 3.1
7 -5 -4 55.29 2.6
7 -5 -4 53.79 3
-7 5 4 52.29 3
-7 5 4 51.69 3.1
-7 5 4 51.69 2.8
6 -5 -4 64.49 2.9
6 -5 -4 55.89 3.3
-6 5 4 61.49 3.3
-6 5 4 59.99 2.9
-6 5 4 58.09 2.8
5 -5 -4 10 1
5 -5 -4 12.6 1.1
5 -5 -4 4.9 3.9
5 -5 -4 10.3 0.9
-5 5 4 11 1
-5 5 4 12.1 1
-5 5 4 11.4 1.1
4 -5 -4 95.59 3.9
4 -5 -4 93.99 4.2
4 -5 -4 96.89 4.2
-4 5 4 112.19 4.1
-4 5 4 88.59 4.1
-4 5 4 94.49 4
3 -5 -4 30.7 1.7
3 -5 -4 29.2 1.7
3 -5 -4 30.3 1.6
-3 5 4 30.5 1.6
-3 5 4 33.8 1.8
-3 5 4 34.8 1.8
2 -5 -4 30.2 1.5
2 -5 -4 29.2 1.3
2 -5 -4 29.8 1.7
-2 5 4 28.6 1.6
-2 5 4 29.1 1.5
-2 5 4 28.5 1.6
1 -5 -4 154.28 6.7
1 -5 -4 166.28 6.3
1 -5 -4 165.28 6.6
-1 5 4 173.38 7.8
-1 5 4 165.68 6.5
-1 5 4 166.08 6.6
-1 5 4 167.38 6.6
0 -5 -4 38.7 1.9
0 -5 -4 42.3 2.1
0 -5 -4 37.8 2.1
0 -5 -4 39.6 1.9
0 5 4 40.5 2.2
0 5 4 42.3 2.8
0 5 4 38.4 1.9
0 5 4 38 2.1
-1 -5 -4 205.28 8.3
-1 -5 -4 213.98 8.1
-1 -5 -4 205.98 8.2
-1 -5 -4 214.48 8.3
1 5 4 198.28 8.9
1 5 4 205.98 8.2
1 5 4 207.28 8.2
1 5 4 197.98 8.1
-2 -5 -4 9.1 1.3
-2 -5 -4 11.7 1.3
-2 -5 -4 10.6 1.3
-2 -5 -4 15 1.7
2 5 4 10.8 1.1
2 5 4 10.3 1.4
2 5 4 13.4 1.9
2 5 4 10.8 1.4
-3 -5 -4 75.59 3.8
-3 -5 -4 77.89 4
-3 -5 -4 71.39 3.8
-3 -5 -4 68.79 3.5
3 5 4 74.39 3.9
3 5 4 74.39 3.7
3 5 4 68.49 3.8
3 5 4 65.19 3.6
-4 -5 -4 113.39 5.6
-4 -5 -4 123.19 6.2
-4 -5 -4 118.69 5.7
-4 -5 -4 113.09 5.2
4 5 4 122.99 5.9
4 5 4 118.69 5.6
4 5 4 112.59 5.4
4 5 4 120.89 5.7
8 -6 -4 11.6 8
8 -6 -4 3.9 1
8 -6 -4 2.6 1
8 -6 -4 3.8 1.2
-8 6 4 3.2 1
-8 6 4 2.2 1.2
7 -6 -4 100.59 4.8
7 -6 -4 100.39 4.6
7 -6 -4 99.09 4.7
-7 6 4 99.79 4.7
-7 6 4 104.39 4.7
6 -6 -4 10.2 1.5
6 -6 -4 14.9 1.4
-6 6 4 11 1.8
-6 6 4 13.7 1.3
5 -6 -4 122.89 5.1
5 -6 -4 114.99 4.8
-5 6 4 125.89 5
-5 6 4 113.39 5.1
4 -6 -4 19.4 1.4
4 -6 -4 20.1 1.2
4 -6 -4 20.1 1.5
-4 6 4 19.3 1.5
-4 6 4 19.8 1.3
-4 6 4 20.4 1.5
3 -6 -4 64.99 3.2
3 -6 -4 68.39 3
-3 6 4 68.29 3.2
-3 6 4 70.69 3
-3 6 4 69.99 3.2
2 -6 -4 245.08 9.8
2 -6 -4 245.28 9.6
-2 6 4 256.17 9.8
-2 6 4 250.67 9.7
-2 6 4 249.58 9.5
1 -6 -4 13.1 1.2
1 -6 -4 11.8 1.1
1 -6 -4 9.9 0.8
-1 6 4 12.8 1.2
-1 6 4 14.6 1
-1 6 4 12.8 1.2
-1 6 4 14.5 1.9
0 -6 -4 239.68 9.4
0 -6 -4 237.58 9.2
0 -6 -4 238.18 9.5
0 6 4 238.08 10.4
0 6 4 241.68 9.4
0 6 4 234.58 9.4
0 6 4 233.78 9.1
-1 -6 -4 52.49 3.1
-1 -6 -4 51.79 2.6
-1 -6 -4 57.69 3.4
1 6 4 50.49 2.5
1 6 4 58.59 3.1
1 6 4 42.5 3.6
1 6 4 49.9 3.7
-2 -6 -4 2.6 1
-2 -6 -4 2.2 1.2
-2 -6 -4 2 1
2 6 4 2.7 1
2 6 4 1.7 0.7
2 6 4 1 1.8
2 6 4 0.5 0.9
-3 -6 -4 29.9 2.5
-3 -6 -4 29.1 2.4
-3 -6 -4 33.8 2.5
3 6 4 30.8 2.6
3 6 4 32.5 2.5
3 6 4 34.9 2.6
7 -7 -4 47.5 3
7 -7 -4 47.1 3
-7 7 4 42.6 2.8
-7 7 4 41.9 2.7
6 -7 -4 152.88 6.8
6 -7 -4 162.08 6.8
-6 7 4 150.38 6.5
-6 7 4 154.08 6.4
-6 7 4 151.98 6.6
5 -7 -4 53.79 3.2
5 -7 -4 56.49 3.1
5 -7 -4 58.79 2.6
-5 7 4 55.29 3.1
-5 7 4 53.29 2.6
-5 7 4 60.29 3.3
4 -7 -4 4.1 0.7
4 -7 -4 3.6 1.1
4 -7 -4 1.6 7
-4 7 4 2.8 1
-4 7 4 3.2 1.9
-4 7 4 4.3 0.6
3 -7 -4 170.28 7.2
3 -7 -4 164.38 6.7
-3 7 4 168.58 6.9
-3 7 4 168.38 7
-3 7 4 164.28 6.6
2 -7 -4 48.3 2.5
2 -7 -4 49 2.9
-2 7 4 46.5 2.8
-2 7 4 43.9 3.9
-2 7 4 48 2.2
-2 7 4 49.99 2.7
1 -7 -4 42.4 2.1
1 -7 -4 45.2 2.9
1 -7 -4 39.9 3.4
-1 7 4 42.9 2.7
-1 7 4 42 2.2
-1 7 4 47 2.9
-1 7 4 52.19 3.9
0 -7 -4 13.6 1.8
0 -7 -4 17.1 1.7
0 -7 -4 16.1 1.2
0 7 4 13.2 2.6
0 7 4 15.7 1.9
0 7 4 15.8 1.2
-1 -7 -4 6 1
-1 -7 -4 4.3 1
-1 -7 -4 6.5 1.1
1 7 4 4.3 0.8
1 7 4 5.6 1.1
1 7 4 6.1 2.1
1 7 4 6.5 1.1
-2 -7 -4 68.59 3.8
-2 -7 -4 73.29 3.9
-2 -7 -4 70.09 3.7
2 7 4 66.39 3.8
2 7 4 67.69 3.8
7 -8 -4 4.8 1.3
7 -8 -4 5.6 1.2
-7 8 4 2.2 1.1
6 -8 -4 16 2.1
6 -8 -4 13.1 1.8
-6 8 4 13.4 1.9
-6 8 4 14.9 2
5 -8 -4 29.4 2.2
5 -8 -4 26.6 1.8
-5 8 4 28 2.3
-5 8 4 25.6 2.3
4 -8 -4 101.99 4.4
4 -8 -4 98.39 4.8
-4 8 4 95.49 4.6
-4 8 4 100.49 4.8
3 -8 -4 29 3.3
3 -8 -4 33.7 2.4
-3 8 4 29.9 2.4
-3 8 4 30.2 2.3
-3 8 4 34.1 4.3
2 -8 -4 17 1.8
2 -8 -4 16 1.7
-2 8 4 18.4 3.5
-2 8 4 17.3 2
-2 8 4 17.5 1.9
1 -8 -4 4.8 1
1 -8 -4 4.8 1.1
1 -8 -4 4.5 6.8
-1 8 4 5.2 2.6
-1 8 4 6.8 1.2
-1 8 4 4.8 1
0 -8 -4 0.7 0.8
0 -8 -4 0.5 0.9
0 -8 -4 1.4 0.8
0 8 4 3.6 2.8
0 8 4 4.1 1
0 8 4 3 1
-1 -8 -4 43.3 2.8
-1 -8 -4 40.3 2.9
1 8 4 43.2 3
1 8 4 41.4 5.6
1 8 4 44.3 2.9
5 -9 -4 42.3 2.8
5 -9 -4 43.9 3.1
-5 9 4 45.4 3
-5 9 4 46.1 3.1
-5 9 4 42.5 5.8
4 -9 -4 2.7 1.1
4 -9 -4 -4.1 6.5
4 -9 -4 4 1.1
-4 9 4 2.8 1.1
-4 9 4 1.4 2.5
-4 9 4 2.6 1.1
3 -9 -4 10.3 1.8
-3 9 4 7 1.3
-3 9 4 11.9 1.8
2 -9 -4 20.8 1.9
2 -9 -4 18.4 2.2
-2 9 4 19.3 2.1
-2 9 4 16.1 2.1
-2 9 4 13.1 3.7
1 -9 -4 23 2.2
1 -9 -4 21.4 2
-1 9 4 20.6 5.1
-1 9 4 20.8 2.2
-1 9 4 18 2.3
2 10 -5 12 3.5
-2 -10 5 11.5 1.7
-2 -10 5 10.3 1.6
-2 -10 5 14.6 1.7
1 10 -5 65.39 3.4
1 10 -5 68.39 6.1
-1 -10 5 62.99 3.4
-1 -10 5 63.09 3.5
-1 -10 5 60.39 3.4
0 10 -5 -1.4 2.4
0 10 -5 1.1 0.9
0 -10 5 0.9 0.8
0 -10 5 1.5 0.8
0 -10 5 2 0.9
-1 10 -5 35.6 4.6
-1 10 -5 38 2.3
1 -10 5 37.1 2.6
1 -10 5 35.3 2.5
1 -10 5 35.8 2.5
-2 10 -5 33.3 4.5
2 -10 5 34.3 2.5
2 -10 5 33 2.5
2 -10 5 35 2.5
-3 10 -5 39.2 4.7
3 -10 5 35.1 2.8
3 -10 5 37.4 2.7
3 -10 5 36.2 2.6
4 9 -5 32 2.5
-4 -9 5 31.3 3
-4 -9 5 28.8 2.5
-4 -9 5 33.5 2.3
3 9 -5 0.5 2.8
-3 -9 5 0.2 0.8
-3 -9 5 0 0.8
-3 -9 5 -1.4 0.8
2 9 -5 74.69 3.8
2 9 -5 80.89 6.1
-2 -9 5 77.69 3.8
-2 -9 5 73.39 3.7
-2 -9 5 73.09 3.9
-2 -9 5 72.99 3.9
1 9 -5 8.2 1.2
1 9 -5 11.4 2.9
-1 -9 5 8.3 1.3
-1 -9 5 6.5 1.3
-1 -9 5 7.3 1.2
-1 -9 5 8.9 1.4
0 9 -5 103.19 4.5
0 9 -5 109.39 6.9
0 -9 5 110.09 5
0 -9 5 92.49 5.5
0 -9 5 107.99 4.8
0 -9 5 106.89 4.9
-1 9 -5 37.8 2.1
-1 9 -5 42.1 4.4
1 -9 5 42.8 2.5
1 -9 5 38.1 2.6
1 -9 5 41.9 2.6
-2 9 -5 2.2 2.5
2 -9 5 -0.1 0.8
2 -9 5 0.2 0.7
2 -9 5 0.3 0.9
-3 9 -5 201.58 10.2
3 -9 5 197.18 8.4
3 -9 5 196.38 8.3
3 -9 5 196.88 8.4
-4 9 -5 31.9 4.1
-4 9 -5 33.3 2.8
4 -9 5 31.2 2.5
4 -9 5 29.9 2.4
4 -9 5 32.5 2.6
5 8 -5 38.5 2.6
5 8 -5 34.4 5.3
-5 -8 5 28.2 2.7
-5 -8 5 33.5 3
-5 -8 5 32.5 2.2
4 8 -5 3.1 1
4 8 -5 3.5 2.3
-4 -8 5 1.9 0.9
-4 -8 5 2.2 0.8
-4 -8 5 3.4 1.6
3 8 -5 163.18 7.5
3 8 -5 165.18 9.3
-3 -8 5 160.48 7
-3 -8 5 164.18 7.1
-3 -8 5 164.08 6.6
-3 -8 5 160.48 6.8
2 8 -5 34.6 4.3
2 8 -5 30.6 1.9
-2 -8 5 34 2.2
-2 -8 5 32.1 2.2
-2 -8 5 33.3 2.3
-2 -8 5 33.3 2
1 8 -5 115.29 5
1 8 -5 121.29 7.8
-1 -8 5 127.89 5.6
-1 -8 5 121.09 5.4
-1 -8 5 119.69 6.2
-1 -8 5 119.79 5.2
0 8 -5 509.15 18.7
0 8 -5 549.15 21.9
0 -8 5 454.35 19.9
0 -8 5 525.85 19.5
0 -8 5 511.05 19.2
0 -8 5 471.55 19.2
-1 8 -5 94.59 6.6
-1 8 -5 81.79 3.7
1 -8 5 88.59 4.3
1 -8 5 91.49 4.3
-2 8 -5 217.68 10.2
-2 8 -5 204.08 8.1
2 -8 5 220.38 8.8
2 -8 5 207.68 8.8
2 -8 5 211.88 8.7
-3 8 -5 37.1 3.6
3 -8 5 34 2.4
3 -8 5 29.3 2.2
3 -8 5 29.3 2.3
-4 8 -5 57.09 5.3
-4 8 -5 54.19 3.3
4 -8 5 60.89 3.4
4 -8 5 61.89 3.4
4 -8 5 59.89 3.3
-5 8 -5 131.79 5.9
5 -8 5 127.39 6
5 -8 5 128.99 6
5 -8 5 126.69 6.1
6 7 -5 150.78 6.7
6 7 -5 128.79 9.5
-6 -7 5 143.49 6.2
-6 -7 5 159.38 7.2
-6 -7 5 149.69 6.7
5 7 -5 43.6 5
5 7 -5 42.1 2.7
-5 -7 5 38 2.6
-5 -7 5 44 2.8
-5 -7 5 43.2 3.2
4 7 -5 102.09 5.4
4 7 -5 105.79 7.3
-4 -7 5 113.69 4.6
-4 -7 5 115.99 5.3
-4 -7 5 106.29 5.1
-4 -7 5 111.19 4.7
3 7 -5 24.7 4.5
3 7 -5 27.7 1.7
-3 -7 5 27.7 2.2
-3 -7 5 27.7 1.6
-3 -7 5 28.5 2
-3 -7 5 25.5 1.6
2 7 -5 17.9 1.3
2 7 -5 18.6 2.9
-2 -7 5 18.1 1.5
-2 -7 5 19.1 1.3
-2 -7 5 18.9 1.5
-2 -7 5 19.7 1.3
1 7 -5 160.18 7.8
1 7 -5 145.99 6
-1 -7 5 148.89 6.3
-1 -7 5 149.59 6.4
-1 -7 5 144.79 6.1
-1 -7 5 155.78 6.2
0 7 -5 1.7 0.4
0 7 -5 1.3 1.2
0 -7 5 1.5 0.5
0 -7 5 1.5 0.5
0 -7 5 1.8 0.7
0 -7 5 1.2 0.5
-1 7 -5 51.19 2.3
-1 7 -5 52.69 3.7
1 -7 5 53.49 2.7
1 -7 5 53.29 2.7
1 -7 5 54.59 2.7
-2 7 -5 17.8 2.1
-2 7 -5 15.5 1
2 -7 5 15.4 1.4
2 -7 5 13.6 1.4
2 -7 5 13.9 1.4
2 -7 5 14.1 1.1
-3 7 -5 18.9 2.5
-3 7 -5 19.1 2
3 -7 5 21 1.9
3 -7 5 16.5 1.3
3 -7 5 18.4 2.1
3 -7 5 19 2.2
-4 7 -5 135.19 6.9
-4 7 -5 136.09 5.9
4 -7 5 138.59 5.9
4 -7 5 130.69 6
4 -7 5 131.39 5.9
4 -7 5 134.09 6.1
-5 7 -5 4.4 1.1
5 -7 5 5.1 1.2
5 -7 5 5.3 1.6
5 -7 5 4.6 1.1
5 -7 5 6 1.2
7 6 -5 14.3 1.8
7 6 -5 15.6 2.1
-7 -6 5 15.8 2.5
-7 -6 5 17.3 2.4
-7 -6 5 16.9 2
6 6 -5 0.7 0.8
6 6 -5 1.4 0.7
6 6 -5 1.1 3.1
-6 -6 5 -1 0.8
-6 -6 5 0.8 0.7
-6 -6 5 0.5 0.8
-6 -6 5 -0.3 1.2
5 6 -5 231.98 9.1
5 6 -5 233.58 9.6
5 6 -5 238.98 12.1
-5 -6 5 250.57 10.2
-5 -6 5 239.38 9.7
-5 -6 5 240.38 9.2
-5 -6 5 224.48 9.1
4 6 -5 342.27 15.1
4 6 -5 288.87 11
4 6 -5 282.57 11.4
-4 -6 5 288.77 11.2
-4 -6 5 275.67 11.6
-4 -6 5 292.47 11.1
-4 -6 5 291.17 11.1
-4 -6 5 291.27 11.8
3 6 -5 210.78 8.4
3 6 -5 212.78 10.3
-3 -6 5 215.58 8.8
-3 -6 5 213.48 8.3
-3 -6 5 213.88 8.6
-3 -6 5 218.38 8.4
-3 -6 5 216.98 8.1
2 6 -5 260.77 11.2
2 6 -5 224.88 8.9
-2 -6 5 222.28 8.9
-2 -6 5 229.68 9.3
-2 -6 5 231.88 8.6
-2 -6 5 225.48 9.1
-2 -6 5 224.48 8.9
1 6 -5 69.09 4.2
1 6 -5 64.79 2.8
-1 -6 5 63.99 3.1
-1 -6 5 65.69 3
-1 -6 5 63.59 2.9
-1 -6 5 67.29 2.7
-1 -6 5 67.69 3.2
0 6 -5 752.02 28.8
0 -6 5 756.32 27.8
0 -6 5 729.03 27
0 -6 5 736.93 27.5
0 -6 5 738.13 27.4
0 -6 5 740.33 27.5
-1 6 -5 99.59 3.9
-1 6 -5 102.29 5.3
1 -6 5 98.89 4.4
1 -6 5 98.69 4.3
1 -6 5 100.29 4.3
1 -6 5 99.99 4
-2 6 -5 17.1 1.3
-2 6 -5 12.8 1.8
-2 6 -5 14.3 1
2 -6 5 15.9 1.3
2 -6 5 15 1.2
2 -6 5 14 1.2
2 -6 5 15.1 1.1
-3 6 -5 32.6 2
-3 6 -5 36.5 2.8
3 -6 5 37.9 2.2
3 -6 5 32.6 2.1
3 -6 5 35.4 1.9
3 -6 5 33.7 2.1
-4 6 -5 4.4 1.2
-4 6 -5 2.7 1
4 -6 5 2.8 1.1
4 -6 5 3.6 0.7
4 -6 5 3.5 1.1
4 -6 5 4.9 0.7
4 -6 5 3.3 1.1
-5 6 -5 163.88 6.8
-5 6 -5 153.28 6.9
5 -6 5 160.38 7
5 -6 5 159.88 7
5 -6 5 157.38 6.5
5 -6 5 159.08 7.1
5 -6 5 155.78 6.9
-6 6 -5 30.1 2.3
-6 6 -5 24 2.3
6 -6 5 25.5 2.5
6 -6 5 26.2 2.8
6 -6 5 29.5 2.6
6 -6 5 30 2.6
7 5 -5 1.9 1
7 5 -5 2.8 1
7 5 -5 -1.8 3.4
-7 -5 5 2.9 1.3
-7 -5 5 3.4 1.5
6 5 -5 110.59 5
6 5 -5 104.19 4.6
-6 -5 5 105.49 4.4
-6 -5 5 100.39 4.9
-6 -5 5 114.59 4.7
-6 -5 5 108.19 5.5
5 5 -5 0.5 0.5
5 5 -5 0.6 0.6
5 5 -5 1.5 2.2
-5 -5 5 1 0.4
-5 -5 5 0.3 0.6
-5 -5 5 1 0.5
-5 -5 5 1.1 0.8
4 5 -5 33.8 1.6
4 5 -5 29.5 3.1
4 5 -5 30.3 1.5
4 5 -5 30.8 1.8
-4 -5 5 28.5 1.6
-4 -5 5 29.9 1.6
-4 -5 5 31.9 1.8
-4 -5 5 33.8 2
-4 -5 5 30.8 1.6
3 5 -5 218.88 8.7
3 5 -5 250.57 10.7
3 5 -5 223.28 8.4
-3 -5 5 224.58 8.7
-3 -5 5 225.18 8.6
-3 -5 5 220.58 9.1
-3 -5 5 223.78 8.7
-3 -5 5 229.18 8.9
2 5 -5 17.1 2.1
2 5 -5 18.2 1
-2 -5 5 17.2 1
-2 -5 5 16.1 1.3
-2 -5 5 16.1 1.1
-2 -5 5 17.1 1.1
-2 -5 5 17.9 1.1
1 5 -5 248.18 9.2
1 5 -5 236.48 11
-1 -5 5 238.08 9.4
-1 -5 5 245.68 9.6
-1 -5 5 255.97 9.1
-1 -5 5 241.88 9.4
-1 -5 5 241.88 9.3
0 5 -5 138.59 5.4
0 5 -5 154.88 6.9
0 5 -5 142.09 5.8
0 -5 5 145.29 6
0 -5 5 135.39 5.7
0 -5 5 138.19 5.7
0 -5 5 140.29 5.7
0 -5 5 142.89 5.5
-1 5 -5 -0.3 0.8
1 -5 5 0.2 0.6
1 -5 5 0.8 0.4
1 -5 5 0.7 0.4
1 -5 5 1.1 0.4
1 -5 5 1.6 0.4
-2 5 -5 297.67 12
-2 5 -5 283.47 11.3
2 -5 5 293.87 11.2
2 -5 5 295.97 11.4
2 -5 5 288.87 11.4
2 -5 5 306.97 10.9
2 -5 5 295.77 11.4
-3 5 -5 5.7 1.4
-3 5 -5 5.1 0.9
3 -5 5 3.4 0.7
3 -5 5 4.4 0.7
3 -5 5 5.4 0.9
3 -5 5 5 0.8
3 -5 5 4.3 0.7
-4 5 -5 135.59 7
-4 5 -5 150.28 6.6
4 -5 5 150.88 6.2
4 -5 5 145.99 7
4 -5 5 153.38 6
4 -5 5 149.79 6.4
4 -5 5 155.98 7.3
-5 5 -5 112.39 5
-5 5 -5 113.69 5
5 -5 5 99.09 5.1
5 -5 5 96.99 5
5 -5 5 103.19 5
5 -5 5 102.89 4.6
-6 5 -5 3.2 1
-6 5 -5 0.7 1
-6 5 -5 1.2 0.9
6 -5 5 0.5 1
6 -5 5 2.2 1.2
6 -5 5 -0.9 1.7
6 -5 5 3.2 1.2
6 -5 5 2.7 1.1
8 4 -5 7.7 1.2
8 4 -5 7.7 1.3
-8 -4 5 6.7 1.2
-8 -4 5 7.9 1.5
-8 -4 5 10.1 2
7 4 -5 53.19 3.2
7 4 -5 56.59 3.1
-7 -4 5 57.49 3
-7 -4 5 56.79 3.6
-7 -4 5 54.89 3.3
6 4 -5 68.79 3.7
6 4 -5 64.79 2.9
6 4 -5 60.49 6.4
-6 -4 5 64.59 2.8
-6 -4 5 61.89 3.9
-6 -4 5 61.39 3.1
5 4 -5 16 1.1
5 4 -5 14.2 2.8
5 4 -5 16.4 1.2
-5 -4 5 15.4 1
-5 -4 5 14.1 1.2
-5 -4 5 16.9 1.5
-5 -4 5 17.7 1.2
4 4 -5 492.15 18.2
4 4 -5 507.95 20.4
4 4 -5 489.85 18.2
4 4 -5 480.55 18.4
-4 -4 5 505.15 18.8
-4 -4 5 497.05 18.5
-4 -4 5 498.05 18.2
-4 -4 5 477.85 18.3
3 4 -5 152.18 5.8
3 4 -5 146.69 5.8
3 4 -5 145.49 5.6
3 4 -5 150.18 7.3
-3 -4 5 146.39 5.8
-3 -4 5 147.79 5.8
-3 -4 5 143.89 6.2
-3 -4 5 150.88 5.8
-3 -4 5 152.58 6
2 4 -5 139.09 6.8
2 4 -5 145.89 5.6
2 4 -5 138.59 5.5
-2 -4 5 139.89 5.5
-2 -4 5 145.39 5.6
-2 -4 5 136.09 5.8
-2 -4 5 144.29 5.5
1 4 -5 215.38 8
1 4 -5 212.88 8.2
1 4 -5 226.38 9.4
-1 -4 5 212.38 8.2
-1 -4 5 213.08 8.3
-1 -4 5 211.88 8.5
-1 -4 5 225.28 8.2
-1 -4 5 208.18 8.3
0 4 -5 1.6 0.3
0 4 -5 0.2 0.7
0 -4 5 0.9 0.3
0 -4 5 0.4 0.3
0 -4 5 0.4 0.3
0 -4 5 0.9 0.5
0 -4 5 1 0.3
-1 4 -5 1929.21 73.09
-1 4 -5 1911.51 74.29
1 -4 5 2085.39 72.89
1 -4 5 2055.39 73.09
1 -4 5 2045.9 72.99
1 -4 5 2033.3 73.09
-2 4 -5 509.55 19.5
2 -4 5 536.75 19.2
2 -4 5 510.65 19.6
2 -4 5 532.75 19.4
2 -4 5 522.45 19.5
2 -4 5 519.25 19.6
-3 4 -5 38.7 2.1
-3 4 -5 39.2 2.5
3 -4 5 40 2.1
3 -4 5 39.6 2.2
3 -4 5 38.9 2.2
3 -4 5 42 2
-4 4 -5 67.59 3.3
-4 4 -5 68.59 3.5
4 -4 5 72.29 3.2
4 -4 5 72.99 3.4
4 -4 5 70.29 3.6
4 -4 5 69.49 3.6
-5 4 -5 2.1 0.9
-5 4 -5 3 0.8
5 -4 5 2.2 0.9
5 -4 5 1.4 1
5 -4 5 0.3 0.7
5 -4 5 0.9 1
5 -4 5 -0.1 1.3
-6 4 -5 130.19 6.2
-6 4 -5 152.38 6.3
-6 4 -5 141.89 6.2
6 -4 5 139.59 6.3
6 -4 5 133.99 6.2
6 -4 5 129.29 6.3
8 3 -5 1.6 4.1
8 3 -5 3.4 1
8 3 -5 1.8 0.9
8 3 -5 1.4 1
-8 -3 5 4.7 1.5
-8 -3 5 2.1 1
-8 -3 5 2.5 1.1
7 3 -5 70.39 3.7
-7 -3 5 65.79 4
-7 -3 5 71.59 3.7
-7 -3 5 75.19 3.8
6 3 -5 21.6 1.4
6 3 -5 15.1 3.2
6 3 -5 22.3 1.6
-6 -3 5 19.9 1.5
-6 -3 5 20 1.9
-6 -3 5 22.8 1.4
5 3 -5 475.05 17.7
5 3 -5 482.45 19.9
5 3 -5 465.85 17.5
-5 -3 5 464.05 17.7
-5 -3 5 468.35 17.3
-5 -3 5 472.15 17.6
-5 -3 5 467.75 18.1
4 3 -5 282.97 10.9
4 3 -5 291.27 10.7
4 3 -5 285.47 10.7
4 3 -5 293.17 12.7
-4 -3 5 286.97 10.7
-4 -3 5 300.47 10.9
-4 -3 5 263.97 11.2
-4 -3 5 293.17 11
3 3 -5 37.9 1.9
3 3 -5 35.3 2.8
3 3 -5 37.6 1.8
3 3 -5 36.9 1.6
-3 -3 5 37.6 1.8
-3 -3 5 36.5 2
-3 -3 5 38.6 1.7
-3 -3 5 38.6 1.8
2 3 -5 185.98 7.7
2 3 -5 153.08 6.4
2 3 -5 164.58 6.2
-2 -3 5 164.78 6.6
-2 -3 5 166.38 6.3
-2 -3 5 151.98 6.1
-2 -3 5 166.08 6.4
1 3 -5 13.7 1.5
1 3 -5 12.8 0.9
-1 -3 5 13.4 0.9
-1 -3 5 13.5 0.8
-1 -3 5 12.9 0.9
-1 -3 5 11.3 1
-1 -3 5 13.6 0.9
0 3 -5 499.45 20.1
0 -3 5 560.64 20.1
0 -3 5 532.05 20.2
0 -3 5 557.34 20.2
0 -3 5 578.44 20.5
0 -3 5 537.25 20.1
-1 3 -5 341.87 13.8
1 -3 5 369.46 13.8
1 -3 5 360.76 13.8
1 -3 5 378.66 13.5
1 -3 5 378.36 13.7
-2 3 -5 102.49 4.7
-2 3 -5 131.59 4.9
2 -3 5 115.29 4.7
2 -3 5 108.79 4.8
2 -3 5 111.69 4.8
-3 3 -5 313.97 12.7
-3 3 -5 343.27 12.8
3 -3 5 324.77 12.9
3 -3 5 329.27 12.8
3 -3 5 339.57 12.5
3 -3 5 339.57 12.7
-4 3 -5 4.5 0.7
-4 3 -5 5.6 0.9
4 -3 5 4.3 0.9
4 -3 5 4.5 0.7
4 -3 5 3.7 0.8
4 -3 5 3.7 0.7
-5 3 -5 209.48 8.7
-5 3 -5 191.48 8
-5 3 -5 193.08 8.2
5 -3 5 193.38 8.7
5 -3 5 199.18 8.1
5 -3 5 200.98 8.3
-6 3 -5 56.69 3.4
-6 3 -5 53.39 3.2
-6 3 -5 67.59 3.4
6 -3 5 60.39 3.6
6 -3 5 60.29 3.5
6 -3 5 61.39 3.5
8 2 -5 57.59 3.3
8 2 -5 55.99 3.2
8 2 -5 58.99 3.2
-8 -2 5 55.39 3.2
-8 -2 5 55.59 3.6
-8 -2 5 53.29 3.1
7 2 -5 34.1 6.5
7 2 -5 36.5 2.4
7 2 -5 35.1 2.4
7 2 -5 31.3 2.1
-7 -2 5 34 2
-7 -2 5 34.4 2.9
-7 -2 5 35.5 2.5
6 2 -5 181.28 7.4
6 2 -5 168.58 9.7
6 2 -5 183.78 7.6
-6 -2 5 197.28 7.5
-6 -2 5 191.18 8
-6 -2 5 200.18 7.6
5 2 -5 76.29 5.1
5 2 -5 69.79 3.1
5 2 -5 69.59 2.7
5 2 -5 71.49 3.2
-5 -2 5 73.79 2.8
-5 -2 5 73.59 3.1
-5 -2 5 73.39 3.5
-5 -2 5 69.39 3.2
4 2 -5 350.66 13.5
4 2 -5 334.27 13.2
4 2 -5 353.16 13.3
4 2 -5 405.96 16.6
-4 -2 5 362.06 13.6
-4 -2 5 353.86 13.1
-4 -2 5 361.96 13.5
-4 -2 5 348.27 14.1
3 2 -5 1141.49 42.6
3 2 -5 1187.08 42.6
3 2 -5 1139.39 44.3
-3 -2 5 1172.68 43
-3 -2 5 1181.88 42.5
-3 -2 5 1210.28 42.7
-3 -2 5 1173.68 42.7
2 2 -5 185.48 8.3
2 2 -5 195.08 7.1
2 2 -5 167.48 7.4
-2 -2 5 197.48 7.3
-2 -2 5 193.48 7.2
-2 -2 5 197.58 7.6
-2 -2 5 195.28 7.3
-2 -2 5 193.88 7.1
1 2 -5 290.17 12
-1 -2 5 328.67 12.2
-1 -2 5 325.97 12
-1 -2 5 311.37 11.9
-1 -2 5 324.87 11.7
-1 -2 5 339.57 12
0 2 -5 93.09 4.3
0 -2 5 108.39 4.1
0 -2 5 107.89 4.3
0 -2 5 110.49 4.3
0 -2 5 105.39 4.3
0 -2 5 110.49 4.6
-1 2 -5 177.18 6.7
-1 2 -5 172.98 6.7
1 -2 5 160.38 6.6
1 -2 5 165.28 6.6
1 -2 5 162.38 6.6
1 -2 5 169.18 6.4
-2 2 -5 186.78 8.3
-2 2 -5 201.08 8.4
2 -2 5 227.48 8.4
2 -2 5 221.08 8.2
2 -2 5 218.78 8.4
2 -2 5 223.08 8.5
-3 2 -5 42.4 2.4
-3 2 -5 48.5 2.4
3 -2 5 48 2.3
3 -2 5 43.7 2.4
3 -2 5 45.7 2.5
3 -2 5 49.6 2.4
-4 2 -5 52.29 2.7
-4 2 -5 54.19 2.8
4 -2 5 54.29 2.5
4 -2 5 50.09 2.9
4 -2 5 52.19 2.6
4 -2 5 55.09 2.9
-5 2 -5 23.4 1.8
-5 2 -5 21.6 1.9
-5 2 -5 23.1 2.5
5 -2 5 26 2.2
5 -2 5 24 2.1
-6 2 -5 -2.4 1.2
-6 2 -5 1 0.8
-6 2 -5 0.9 0.8
6 -2 5 -0.2 0.9
6 -2 5 1.1 1.7
6 -2 5 -1.5 0.8
6 -2 5 2.4 1.1
9 1 -5 93.79 4.9
9 1 -5 94.59 4.8
9 1 -5 101.69 4.9
-9 -1 5 95.09 5.4
-9 -1 5 98.99 4.9
-9 -1 5 93.49 4.5
8 1 -5 3.1 0.9
8 1 -5 4.3 1
8 1 -5 3.5 0.9
8 1 -5 -0.2 4.3
-8 -1 5 2.1 1.2
-8 -1 5 2.2 1
7 1 -5 197.68 8.4
7 1 -5 208.98 8.7
-7 -1 5 235.08 10.2
-7 -1 5 214.58 9.1
-7 -1 5 204.18 8.3
6 1 -5 96.79 6.7
6 1 -5 100.09 4.5
6 1 -5 100.89 4.3
-6 -1 5 103.29 4.4
-6 -1 5 100.79 4.2
-6 -1 5 100.09 4.7
5 1 -5 36.7 1.5
5 1 -5 37.1 1.9
5 1 -5 42.8 3.8
5 1 -5 38 1.9
-5 -1 5 37.7 2
-5 -1 5 36.2 1.7
-5 -1 5 36 2.1
4 1 -5 331.87 14.2
4 1 -5 327.17 12.2
4 1 -5 325.87 12
4 1 -5 326.27 12.1
-4 -1 5 329.57 12.5
-4 -1 5 295.27 12.2
-4 -1 5 322.37 11.8
-4 -1 5 335.97 12.1
3 1 -5 6.9 0.6
3 1 -5 7.1 0.6
3 1 -5 7.4 0.6
3 1 -5 8.5 1.6
-3 -1 5 6.4 0.8
-3 -1 5 7.3 0.6
-3 -1 5 7.2 0.6
-3 -1 5 6.8 0.6
-3 -1 5 6.8 0.7
2 1 -5 1472.75 52.69
2 1 -5 1260.57 52.99
2 1 -5 1592.74 52.69
-2 -1 5 1437.16 52.79
-2 -1 5 1416.16 52.69
-2 -1 5 1546.75 52.99
-2 -1 5 1375.06 52.69
-2 -1 5 1535.55 53.09
1 1 -5 93.59 4
1 1 -5 100.89 4
-1 -1 5 99.89 4
-1 -1 5 98.89 4
-1 -1 5 100.59 3.9
-1 -1 5 100.49 4.2
-1 -1 5 92.59 3.8
0 1 -5 155.28 6.8
0 1 -5 160.68 6.7
0 -1 5 175.18 6.7
0 -1 5 171.08 6.7
0 -1 5 193.78 7.1
0 -1 5 176.18 6.8
0 -1 5 173.58 6.5
-1 1 -5 555.64 19.8
-1 1 -5 521.05 19.8
1 -1 5 540.25 19.7
1 -1 5 548.55 19.6
1 -1 5 509.25 19.8
1 -1 5 510.85 19.7
-2 1 -5 33.5 1.9
-2 1 -5 34.3 2
2 -1 5 39 1.8
2 -1 5 34.9 1.9
2 -1 5 36.4 1.9
-3 1 -5 271.07 9.4
-3 1 -5 240.68 9.4
-3 1 -5 224.28 9.3
3 -1 5 225.48 9.3
3 -1 5 217.78 9.5
3 -1 5 258.57 9
3 -1 5 218.68 9.1
-4 1 -5 21.6 1.5
-4 1 -5 21.1 1.6
-4 1 -5 22 1.8
4 -1 5 20.4 1.4
4 -1 5 21.6 1.5
4 -1 5 21.9 1.8
4 -1 5 20.4 1.8
-5 1 -5 1.2 0.7
-5 1 -5 0.6 0.7
5 -1 5 2.3 1
5 -1 5 0.3 0.6
5 -1 5 2.7 0.9
5 -1 5 2.4 1.1
5 -1 5 0.4 1.3
-6 1 -5 179.18 7.9
-6 1 -5 156.28 7
6 -1 5 154.38 7.2
6 -1 5 154.08 7
9 0 -5 3 1.1
9 0 -5 3 1.1
9 0 -5 -2.2 5.7
9 0 -5 4.5 1.2
-9 0 5 -0.2 1.3
-9 0 5 3 1.1
-9 0 5 0.5 0.9
8 0 -5 49.2 2.8
8 0 -5 48.7 2.9
-8 0 5 48.4 3.2
-8 0 5 45 2.8
-8 0 5 44.5 2.4
7 0 -5 25.1 5.7
7 0 -5 22.1 1.6
-7 0 5 21.9 2
-7 0 5 21.5 1.4
6 0 -5 27.4 4
6 0 -5 29.3 1.7
6 0 -5 29.7 1.7
-6 0 5 30.8 1.5
-6 0 5 29.4 1.8
-6 0 5 28.2 1.9
5 0 -5 240.88 9.4
5 0 -5 239.88 9.5
5 0 -5 235.78 11.9
5 0 -5 246.58 9.1
-5 0 5 263.67 9.6
-5 0 5 248.58 9.7
4 0 -5 35.6 1.7
4 0 -5 35.8 1.7
4 0 -5 36.3 1.8
4 0 -5 38.4 3.4
-4 0 5 39.1 1.7
-4 0 5 38.1 1.9
-4 0 5 38.2 2
-4 0 5 39.6 1.7
3 0 -5 220.48 8.4
3 0 -5 220.98 8.4
3 0 -5 203.48 8.6
3 0 -5 249.28 10.5
-3 0 5 222.38 8.5
-3 0 5 226.88 8.3
-3 0 5 226.08 8.4
-3 0 5 218.08 8.7
2 0 -5 755.52 28.8
2 0 -5 785.42 28.6
2 0 -5 746.93 28.6
-2 0 5 789.82 28.9
-2 0 5 810.62 28.7
-2 0 5 805.02 28.6
-2 0 5 814.52 28.8
1 0 -5 43.4 1.7
1 0 -5 37.8 2
-1 0 5 38.4 1.8
-1 0 5 42.5 2.1
-1 0 5 41.4 1.8
-1 0 5 40.9 1.9
-1 0 5 41.5 1.7
0 0 -5 286.57 10.5
0 0 -5 254.97 10.5
0 0 5 276.87 10.1
0 0 5 272.87 10.5
0 0 5 286.37 10.3
0 0 5 275.17 10.5
-1 0 -5 14.7 1.1
-1 0 -5 17.5 1.2
1 0 5 17.1 0.9
1 0 5 16.3 1.1
1 0 5 16.1 1
1 0 5 16.6 1
-2 0 -5 257.17 9.7
-2 0 -5 249.18 9.7
-2 0 -5 228.98 9.7
2 0 5 246.08 9.7
2 0 5 247.28 9.5
2 0 5 260.97 9.3
2 0 5 249.97 9.7
-3 0 -5 391.26 14.2
-3 0 -5 350.96 14.3
-3 0 -5 369.26 14.3
3 0 5 376.96 13.9
3 0 5 372.06 14.2
3 0 5 374.76 14.4
3 0 5 371.66 14.3
-4 0 -5 6.9 1.2
-4 0 -5 6.3 1.2
-4 0 -5 7.9 1
4 0 5 8.6 1.4
4 0 5 7 1
4 0 5 6.3 1.3
4 0 5 7.4 1.1
-5 0 -5 143.19 6.4
-5 0 -5 148.39 6.1
-5 0 -5 128.09 6.3
5 0 5 160.88 6.1
5 0 5 139.39 6.5
5 0 5 150.18 6.4
-6 0 -5 30.2 2.4
-6 0 -5 28.8 2.2
6 0 5 30.2 2.6
6 0 5 32.2 2.6
9 -1 -5 8.8 1.4
9 -1 -5 9.9 1.5
-9 1 5 9.9 1.7
-9 1 5 10 2
8 -1 -5 101.89 4.9
8 -1 -5 100.39 4.7
-8 1 5 102.19 4.3
-8 1 5 101.39 4.8
-8 1 5 97.99 5.1
7 -1 -5 10.8 5.2
7 -1 -5 10.3 1.3
-7 1 5 10.4 1.3
-7 1 5 11.2 1
6 -1 -5 252.97 9.8
6 -1 -5 242.68 9.2
6 -1 -5 245.18 9.6
-6 1 5 245.88 9.9
-6 1 5 257.47 9.4
-6 1 5 244.08 9.7
5 -1 -5 29.9 1.6
5 -1 -5 29.7 4
5 -1 -5 28.2 1.6
-5 1 5 30.9 1.4
-5 1 5 31.9 1.7
-5 1 5 30.2 1.8
-5 1 5 31.1 1.6
4 -1 -5 7.7 0.7
4 -1 -5 10.6 2.8
4 -1 -5 8 0.7
-4 1 5 7.3 0.8
-4 1 5 8.8 0.8
-4 1 5 6.8 0.7
-4 1 5 7.9 0.6
3 -1 -5 808.22 28.6
3 -1 -5 744.63 28.1
3 -1 -5 757.92 28.4
-3 1 5 769.72 28.1
-3 1 5 813.62 28.5
-3 1 5 774.52 28.4
-3 1 5 758.72 28.4
2 -1 -5 336.57 11.7
2 -1 -5 317.67 11.7
2 -1 -5 333.07 11.9
-2 1 5 309.67 11.9
-2 1 5 295.67 11.8
-2 1 5 315.67 11.6
-2 1 5 308.17 11.9
1 -1 -5 950.2 35.5
1 -1 -5 868.21 35.6
-1 1 5 1011.5 35.5
-1 1 5 943.91 35.3
-1 1 5 1033.4 35.7
-1 1 5 1011.3 35.4
-1 1 5 968.8 35.2
0 -1 -5 108.99 4.6
0 -1 -5 106.39 4.6
0 1 5 103.29 4.7
0 1 5 116.29 4.6
0 1 5 112.09 4.3
0 1 5 113.29 4.5
0 1 5 119.89 4.6
-1 -1 -5 14.8 1.1
-1 -1 -5 15.9 1
-1 -1 -5 14.9 1.1
1 1 5 15 1.3
1 1 5 13.8 1
1 1 5 15.1 1.1
1 1 5 16.2 0.9
1 1 5 15.3 1
-2 -1 -5 477.65 17.3
-2 -1 -5 485.25 17.3
-2 -1 -5 446.66 17.3
2 1 5 424.06 17.5
2 1 5 452.95 17.2
2 1 5 467.75 16.9
2 1 5 455.25 17.3
2 1 5 450.05 17.3
-3 -1 -5 21.9 1.6
-3 -1 -5 20.1 1.6
-3 -1 -5 23.4 1.5
3 1 5 23.8 1.4
3 1 5 24.6 1.6
3 1 5 24 1.6
3 1 5 20.7 1.6
-4 -1 -5 83.99 3.8
-4 -1 -5 87.49 4.2
-4 -1 -5 72.79 4.1
4 1 5 83.99 3.7
4 1 5 89.99 4.2
4 1 5 82.99 4.3
-5 -1 -5 4.4 1
-5 -1 -5 4.9 1
-5 -1 -5 4.3 0.9
5 1 5 4.1 1.1
5 1 5 6.1 1
5 1 5 3.2 1
9 -2 -5 36.9 2.7
9 -2 -5 35.6 2.7
-9 2 5 36.1 2.6
-9 2 5 36.8 2.9
8 -2 -5 18.8 1.9
8 -2 -5 21.8 1.9
-8 2 5 16 2.1
-8 2 5 16.6 1.8
7 -2 -5 89.59 4.7
7 -2 -5 89.19 4.8
-7 2 5 90.79 4.3
-7 2 5 93.89 4.6
6 -2 -5 37.5 2.1
6 -2 -5 48.3 5.9
6 -2 -5 41.2 1.9
6 -2 -5 39.3 2.1
-6 2 5 37.9 2.2
-6 2 5 43.1 2.1
-6 2 5 39.1 1.8
-6 2 5 40.1 2.2
5 -2 -5 25.5 1.4
5 -2 -5 25.1 1.5
5 -2 -5 26.4 4.7
5 -2 -5 25.9 1.5
-5 2 5 26.6 1.5
-5 2 5 25.5 1.6
-5 2 5 24.8 1.5
-5 2 5 27.3 1.2
4 -2 -5 134.99 5.2
4 -2 -5 125.79 5.2
4 -2 -5 128.89 5.2
-4 2 5 127.39 5.3
-4 2 5 137.49 5.3
-4 2 5 130.39 5.2
3 -2 -5 9.5 0.7
3 -2 -5 10.3 0.8
3 -2 -5 11.3 0.8
-3 2 5 9.9 0.8
-3 2 5 12.7 0.9
2 -2 -5 254.57 9.4
2 -2 -5 264.77 9.5
2 -2 -5 254.47 9.6
2 -2 -5 222.48 9.3
-2 2 5 253.47 9.5
-2 2 5 252.47 9.2
-2 2 5 232.98 9.4
-2 2 5 266.47 9.5
-2 2 5 256.17 9.5
1 -2 -5 95.39 3.9
1 -2 -5 90.79 4
1 -2 -5 86.69 3.7
-1 2 5 95.19 3.8
-1 2 5 97.09 3.9
-1 2 5 90.49 3.8
-1 2 5 89.79 3.9
-1 2 5 109.09 4.1
0 -2 -5 121.09 5.1
0 -2 -5 127.69 5.3
0 -2 -5 132.89 5.2
0 2 5 135.09 5.3
0 2 5 126.79 5.1
0 2 5 120.09 5.1
0 2 5 132.89 5
0 2 5 120.09 5.1
-1 -2 -5 671.73 25
-1 -2 -5 660.53 25
-1 -2 -5 706.23 25
1 2 5 680.13 24.9
1 2 5 654.73 24.9
1 2 5 719.13 25.1
1 2 5 682.73 24.7
1 2 5 690.53 25
1 2 5 586.24 24.7
-2 -2 -5 195.38 8.4
-2 -2 -5 214.88 8.5
-2 -2 -5 205.28 8.5
2 2 5 214.28 8.4
2 2 5 208.18 8.4
2 2 5 222.98 8.7
2 2 5 212.38 8.1
-3 -2 -5 201.18 10.2
-3 -2 -5 240.48 9.6
-3 -2 -5 239.18 9.5
3 2 5 247.18 9.9
3 2 5 242.38 9.3
3 2 5 250.77 9.6
3 2 5 245.68 9.6
-4 -2 -5 30.2 2.3
-4 -2 -5 33.6 2.1
-4 -2 -5 31.8 2.5
4 2 5 38.7 3
4 2 5 32.6 2.1
4 2 5 30.2 3.2
4 2 5 34.2 2.4
-5 -2 -5 7.3 1.2
-5 -2 -5 9.3 1.5
-5 -2 -5 11.3 2.1
5 2 5 5.1 1.2
5 2 5 6.9 1.3
5 2 5 7.5 1.5
9 -3 -5 3.1 1.1
9 -3 -5 5.7 1.3
9 -3 -5 -1.5 7.5
-9 3 5 5.9 1.3
-9 3 5 5.9 1.4
-9 3 5 2.5 1
8 -3 -5 50.89 3
8 -3 -5 50.69 3.1
-8 3 5 54.19 3
-8 3 5 51.59 3.3
-8 3 5 52.19 2.9
7 -3 -5 60.79 3.1
7 -3 -5 54.09 2.5
7 -3 -5 57.99 3.2
-7 3 5 55.29 3.1
-7 3 5 54.49 2.9
-7 3 5 49.7 3
6 -3 -5 482.25 18.1
6 -3 -5 476.45 18.4
6 -3 -5 494.35 18.5
-6 3 5 478.95 18.4
-6 3 5 475.35 18.5
-6 3 5 528.95 18.5
5 -3 -5 1003.4 37
5 -3 -5 1004 37.2
5 -3 -5 1008.8 37.2
-5 3 5 1016.9 37.2
-5 3 5 1048.2 37.3
-5 3 5 998.4 37.2
4 -3 -5 29 1.5
4 -3 -5 26 4.7
4 -3 -5 28.1 1.2
4 -3 -5 28.2 1.5
-4 3 5 25.4 1.5
-4 3 5 27.5 1.5
3 -3 -5 65.39 5.7
3 -3 -5 72.79 2.8
3 -3 -5 73.29 3.1
3 -3 -5 69.39 3.1
-3 3 5 69.89 3.1
-3 3 5 71.09 3
-3 3 5 68.29 3
2 -3 -5 103.39 4
2 -3 -5 100.99 4.1
2 -3 -5 90.09 3.7
2 -3 -5 100.79 4.2
-2 3 5 103.69 4
-2 3 5 100.59 4
-2 3 5 92.79 4.1
-2 3 5 100.39 4.1
1 -3 -5 247.58 9.9
1 -3 -5 258.77 9.5
1 -3 -5 239.78 9.7
-1 3 5 261.77 9.7
-1 3 5 268.17 9.7
-1 3 5 261.57 9.8
-1 3 5 243.08 9.7
0 -3 -5 100.69 4.2
0 -3 -5 106.89 4.4
0 -3 -5 94.99 4.3
0 3 5 97.19 4.1
0 3 5 97.89 4.4
0 3 5 110.79 4.3
0 3 5 101.09 4.3
-1 -3 -5 351.46 14.1
-1 -3 -5 375.56 14.2
-1 -3 -5 385.46 14.2
1 3 5 355.96 14.1
1 3 5 368.26 14.1
1 3 5 357.56 14
1 3 5 377.56 13.9
1 3 5 387.96 14.2
-2 -3 -5 1.5 0.5
-2 -3 -5 0 0.5
-2 -3 -5 1 0.5
2 3 5 0.7 0.9
2 3 5 0.9 0.6
2 3 5 1.5 0.5
2 3 5 0.2 0.5
-3 -3 -5 47.7 3
-3 -3 -5 49.7 2.7
3 3 5 50.29 3
3 3 5 49.5 3
3 3 5 49.4 3.9
3 3 5 51.99 2.6
-4 -3 -5 12.8 2.3
-4 -3 -5 13.2 1.6
-4 -3 -5 12.4 2.1
-4 -3 -5 11.3 1.7
4 3 5 11.4 2.2
4 3 5 12 1.7
4 3 5 10.7 2.5
4 3 5 13.1 1.9
-5 -3 -5 37 2.7
-5 -3 -5 33.1 2.8
5 3 5 39.7 3.4
5 3 5 38.5 2.8
5 3 5 37.9 3
9 -4 -5 8.9 1.5
9 -4 -5 9 1.5
-9 4 5 12.4 1.8
-9 4 5 4.6 1.3
-9 4 5 8.2 1.5
8 -4 -5 18.2 1.9
8 -4 -5 19.4 1.8
-8 4 5 17.3 1.9
-8 4 5 17.3 1.8
7 -4 -5 0.9 0.8
7 -4 -5 3.1 6.8
7 -4 -5 1.9 0.6
7 -4 -5 1.7 0.9
-7 4 5 1.6 1
-7 4 5 2.1 0.7
-7 4 5 1.5 1
6 -4 -5 69.39 3.1
6 -4 -5 67.49 3.4
6 -4 -5 69.79 3.4
-6 4 5 74.99 3.3
-6 4 5 70.39 3.3
-6 4 5 68.09 3.4
5 -4 -5 20.4 1.1
5 -4 -5 22.6 1.4
5 -4 -5 22.1 1.5
-5 4 5 26 1.4
-5 4 5 23.6 1.5
-5 4 5 21.8 1.5
4 -4 -5 85.19 3.7
4 -4 -5 84.59 3.7
4 -4 -5 87.19 3.4
4 -4 -5 79.79 7.1
-4 4 5 82.79 3.6
-4 4 5 87.69 3.7
-4 4 5 86.29 3.5
3 -4 -5 205.48 7.6
3 -4 -5 200.98 7.9
3 -4 -5 201.88 7.8
-3 4 5 184.58 7.7
-3 4 5 189.18 7.8
-3 4 5 205.48 7.6
-3 4 5 203.68 7.8
2 -4 -5 95.39 4
2 -4 -5 93.69 3.7
2 -4 -5 100.69 4.3
-2 4 5 100.99 4.1
-2 4 5 100.39 4.1
-2 4 5 98.99 4.2
1 -4 -5 757.02 27.7
1 -4 -5 747.73 27.9
1 -4 -5 762.92 28.1
-1 4 5 723.73 27.9
-1 4 5 764.72 27.8
-1 4 5 744.43 27.9
-1 4 5 803.32 28
0 -4 -5 26.4 1.5
0 -4 -5 28.3 1.8
0 -4 -5 28.5 1.7
0 4 5 28.5 1.7
0 4 5 30.2 1.6
0 4 5 28.8 1.6
0 4 5 26.8 2.1
-1 -4 -5 31.2 1.9
-1 -4 -5 33.5 1.9
-1 -4 -5 32.3 2
1 4 5 32.4 2.5
1 4 5 32.6 1.8
1 4 5 33.7 2.1
1 4 5 33.3 2
1 4 5 30.1 1.8
-2 -4 -5 50.19 3
-2 -4 -5 46.4 2.7
-2 -4 -5 49.1 2.7
2 4 5 53.19 2.9
2 4 5 49.1 2.6
2 4 5 49.7 2.6
2 4 5 52.79 3.1
-3 -4 -5 4.2 1.3
-3 -4 -5 3.6 1.1
3 4 5 1.8 1.3
3 4 5 2.7 1
3 4 5 3.6 1.1
-4 -4 -5 76.09 4.1
-4 -4 -5 71.29 4.1
-4 -4 -5 74.59 3.9
-4 -4 -5 83.29 4.7
4 4 5 78.29 4.7
4 4 5 74.19 4.1
4 4 5 71.39 3.9
4 4 5 74.59 4.1
8 -5 -5 4.9 1
8 -5 -5 4.2 1.1
8 -5 -5 -0.8 7.4
-8 5 5 3.4 1.1
-8 5 5 6.9 1.4
-8 5 5 3.2 1
7 -5 -5 62.69 3.4
7 -5 -5 58.39 3.2
7 -5 -5 61.49 3
-7 5 5 60.89 3
-7 5 5 61.29 3.3
-7 5 5 58.99 3.3
6 -5 -5 3 7.6
6 -5 -5 6.3 1.1
6 -5 -5 8 1.2
-6 5 5 9 1.1
-6 5 5 4.4 1.1
5 -5 -5 18.5 1.4
5 -5 -5 20.3 1.5
5 -5 -5 18.7 1.1
-5 5 5 20.6 1.5
-5 5 5 18.4 1.3
4 -5 -5 70.89 3.2
4 -5 -5 69.19 2.9
4 -5 -5 69.19 3.2
-4 5 5 71.29 3.1
-4 5 5 68.29 3.2
-4 5 5 58.79 3
3 -5 -5 26.6 1.5
3 -5 -5 24.6 1.6
-3 5 5 29.3 1.5
-3 5 5 27.6 1.7
-3 5 5 28.8 1.7
2 -5 -5 52.19 2.5
2 -5 -5 56.69 2.8
-2 5 5 53.69 2.5
-2 5 5 54.49 2.6
-2 5 5 55.49 2.7
1 -5 -5 21.2 1.3
1 -5 -5 24.4 1.6
1 -5 -5 23 1.4
-1 5 5 22.3 1.5
-1 5 5 23.1 1.5
-1 5 5 19.2 2.4
-1 5 5 24.6 1.4
0 -5 -5 48.2 2.6
0 -5 -5 45.8 2.2
0 -5 -5 48.5 2.5
0 5 5 45.7 2.3
0 5 5 46 3.2
0 5 5 44.5 2.5
0 5 5 45.8 2.4
-1 -5 -5 103.89 4.5
-1 -5 -5 106.09 4.9
-1 -5 -5 98.09 4.7
-1 -5 -5 102.29 4.5
1 5 5 102.79 4.8
1 5 5 102.99 4.5
1 5 5 95.59 4.4
1 5 5 105.09 5.2
-2 -5 -5 0.2 1
-2 -5 -5 1.1 0.8
-2 -5 -5 2.2 1
-2 -5 -5 0.5 0.9
2 5 5 -0.6 0.9
2 5 5 0.4 1
2 5 5 2.4 0.8
-3 -5 -5 55.19 3.4
-3 -5 -5 53.09 3.3
-3 -5 -5 57.79 3.6
-3 -5 -5 53.09 3.2
3 5 5 53.29 3.4
3 5 5 56.69 3.1
3 5 5 52.59 3.4
8 -6 -5 9.5 1.6
8 -6 -5 10.8 1.8
8 -6 -5 13.7 1.8
8 -6 -5 4.3 8.1
-8 6 5 13.2 2.1
-8 6 5 11.4 1.7
7 -6 -5 3.9 7
7 -6 -5 6.3 1.2
-7 6 5 6.6 1.1
-7 6 5 6.1 1.1
6 -6 -5 15.4 1.8
6 -6 -5 19.1 1.8
-6 6 5 18.5 1.8
-6 6 5 16.4 1.5
5 -6 -5 130.29 5.2
5 -6 -5 130.19 5.8
5 -6 -5 131.29 5.7
-5 6 5 128.79 5.4
-5 6 5 138.99 5.9
4 -6 -5 34.2 2.2
4 -6 -5 38.3 1.9
-4 6 5 42.8 3.4
-4 6 5 27.8 3
-4 6 5 37.7 1.9
3 -6 -5 47.6 2.3
3 -6 -5 47.4 2.6
-3 6 5 45.8 2.5
-3 6 5 46.2 2.3
-3 6 5 46.1 2.5
2 -6 -5 26 1.5
2 -6 -5 20.6 2.3
-2 6 5 24 1.8
-2 6 5 24.2 1.8
-2 6 5 26.4 1.5
1 -6 -5 62.89 2.9
1 -6 -5 68.19 3.9
1 -6 -5 66.79 3.2
-1 6 5 74.59 4.2
-1 6 5 60.29 4
-1 6 5 62.89 3
-1 6 5 67.59 3.3
0 -6 -5 178.18 7.1
0 -6 -5 180.28 7.5
0 -6 -5 181.28 7.7
0 6 5 177.38 7.1
0 6 5 181.08 8.3
0 6 5 167.58 7.8
0 6 5 180.08 7.5
-1 -6 -5 18.1 1.6
-1 -6 -5 19.2 1.8
-1 -6 -5 16.7 1.9
1 6 5 17.9 1.6
1 6 5 17.3 2
1 6 5 19.2 2.1
1 6 5 16.9 2.8
-2 -6 -5 41.2 3.1
-2 -6 -5 39.4 2.7
-2 -6 -5 41.1 2.8
2 6 5 44.6 2.9
2 6 5 39.9 2.8
2 6 5 39.7 2.7
7 -7 -5 2.2 8.3
7 -7 -5 13.7 1.8
7 -7 -5 16.9 2.2
-7 7 5 13.3 1.6
-7 7 5 13.6 2
-7 7 5 10.1 1.4
6 -7 -5 45.5 2.8
6 -7 -5 44.3 2.9
-6 7 5 43.8 3.3
-6 7 5 44.2 2.8
5 -7 -5 50.09 3.1
5 -7 -5 49.4 3
5 -7 -5 52.59 2.5
-5 7 5 49.3 3
-5 7 5 54.79 3.3
-5 7 5 50.89 2.6
4 -7 -5 120.19 5
4 -7 -5 121.89 5.5
-4 7 5 116.19 5.8
-4 7 5 122.39 5.1
-4 7 5 128.29 5.5
3 -7 -5 16.4 1.3
3 -7 -5 15.1 1.7
-3 7 5 11.6 1.7
-3 7 5 14.1 1.2
-3 7 5 15.4 2
2 -7 -5 4.1 1
2 -7 -5 2.9 1
2 -7 -5 -2.9 4.7
-2 7 5 4.6 1.2
-2 7 5 3.8 0.7
-2 7 5 4.5 1.2
-2 7 5 -0.3 3.4
1 -7 -5 94.09 4.7
1 -7 -5 106.39 4.9
-1 7 5 96.89 4.6
-1 7 5 91.79 4.2
-1 7 5 96.39 4.7
-1 7 5 106.99 6.1
0 -7 -5 48.7 3
0 -7 -5 44.6 2.8
0 -7 -5 43.8 2.4
0 7 5 48.9 4.2
0 7 5 47.3 2.9
0 7 5 45.5 2.9
0 7 5 48.8 2.9
-1 -7 -5 31.2 4.2
-1 -7 -5 36.6 2.6
-1 -7 -5 35.7 2.5
1 7 5 35.5 3.4
1 7 5 31.6 2.6
1 7 5 34.6 2.6
6 -8 -5 3.2 1
6 -8 -5 2.7 1.2
6 -8 -5 3.5 9.2
-6 8 5 4.5 1.1
-6 8 5 4.3 1.2
-6 8 5 5.7 1.3
5 -8 -5 47 2.7
5 -8 -5 47.8 3.1
-5 8 5 51.89 3.1
-5 8 5 50.49 3.1
-5 8 5 45 3.2
4 -8 -5 46.9 3
-4 8 5 50.09 3
-4 8 5 44.6 2.9
3 -8 -5 2.4 6.1
3 -8 -5 5.8 1.2
3 -8 -5 10.6 1.7
-3 8 5 6.4 2.8
-3 8 5 6.8 1.2
-3 8 5 5.9 1.1
2 -8 -5 4.4 1
-2 8 5 5.7 1.1
-2 8 5 4.9 1.1
-2 8 5 3.1 2.4
1 -8 -5 12.7 1.8
1 -8 -5 10.5 1.6
-1 8 5 8 1.2
-1 8 5 10.1 3.1
-1 8 5 8.4 1.4
0 -8 -5 26.1 2.4
0 -8 -5 17.9 2.1
0 8 5 25.8 2.4
0 8 5 22.1 2.4
0 8 5 29.6 5
4 -9 -5 12.8 1.7
4 -9 -5 15.6 2.1
-4 9 5 20.4 4.5
-4 9 5 18 2.3
3 -9 -5 40.4 2.9
3 -9 -5 46.1 3.2
-3 9 5 48.2 3.2
-3 9 5 53.99 5.1
-3 9 5 44 3.2
2 -9 -5 17.5 2.4
2 10 -6 106.19 5.1
2 10 -6 123.19 8.3
-2 -10 6 112.19 5.3
-2 -10 6 113.59 5.5
-2 -10 6 114.69 5.3
-2 -10 6 118.69 5.9
1 10 -6 61.69 5.9
1 10 -6 50.89 3
-1 -10 6 55.49 3.2
-1 -10 6 52.19 3
-1 -10 6 52.09 3.2
-1 -10 6 49.7 4.1
0 10 -6 3.6 2.7
0 -10 6 3.9 3
0 -10 6 1.9 0.9
0 -10 6 1 0.9
0 -10 6 2.2 0.9
-1 10 -6 85.19 6.4
1 -10 6 78.59 4.2
1 -10 6 83.39 4.3
1 -10 6 78.69 4.3
-2 10 -6 1.9 1.2
-2 10 -6 -3 2.6
2 -10 6 1.4 1
2 -10 6 -2.1 2.1
2 -10 6 1.3 1
2 -10 6 0.4 1
4 9 -6 1.6 1
-4 -9 6 0.4 1.4
-4 -9 6 -1.4 0.9
-4 -9 6 0.7 0.9
3 9 -6 0.9 2.6
3 9 -6 -0.7 0.9
-3 -9 6 -0.3 1.5
-3 -9 6 0.8 1
-3 -9 6 -0.6 0.7
-3 -9 6 0.6 0.9
2 9 -6 56.39 4.3
2 9 -6 68.79 5.8
-2 -9 6 69.29 3.4
-2 -9 6 63.09 3.5
-2 -9 6 63.59 3.5
1 9 -6 60.59 5.3
1 9 -6 56.49 2.8
-1 -9 6 57.29 3.3
-1 -9 6 52.89 3.5
-1 -9 6 61.29 3.3
-1 -9 6 59.59 3.1
0 9 -6 149.69 8.5
0 9 -6 136.79 5.9
0 -9 6 142.49 6.7
0 -9 6 153.58 6.5
0 -9 6 144.99 6.5
0 -9 6 149.39 6.4
-1 9 -6 15.1 3.3
1 -9 6 12.6 1.5
1 -9 6 14.1 1.7
1 -9 6 15.4 1.7
-2 9 -6 52.69 4.7
-2 9 -6 48.1 3.2
2 -9 6 49.8 3.1
2 -9 6 48 3.3
2 -9 6 48.2 2.9
-3 9 -6 97.49 4.9
-3 9 -6 97.49 6.3
3 -9 6 98.39 4.8
3 -9 6 97.99 4.9
3 -9 6 97.69 4.9
5 8 -6 17.2 4.9
5 8 -6 20.5 2.1
-5 -8 6 20.9 1.8
-5 -8 6 16.5 2.6
-5 -8 6 14.7 2.2
4 8 -6 19.3 4.1
4 8 -6 22.8 1.8
4 8 -6 21.1 1.9
-4 -8 6 18.2 1.7
-4 -8 6 22.3 2.5
-4 -8 6 19.5 1.9
3 8 -6 3.3 2.6
3 8 -6 2.7 0.8
-3 -8 6 4.1 1
-3 -8 6 2.8 0.9
-3 -8 6 4.1 0.8
2 8 -6 9.2 1
2 8 -6 7.9 2.8
-2 -8 6 7.5 1.5
-2 -8 6 7.4 1.2
-2 -8 6 6.5 1.2
-2 -8 6 6 1.1
1 8 -6 318.27 14.8
1 8 -6 298.47 11.9
-1 -8 6 322.37 12.5
-1 -8 6 313.37 12.4
-1 -8 6 315.87 12.6
0 8 -6 49 6
0 8 -6 58.89 2.6
0 -8 6 60.19 3.4
0 -8 6 62.69 3.2
0 -8 6 60.09 3.3
0 -8 6 60.89 3.6
-1 8 -6 23.3 2.2
-1 8 -6 27.1 3.6
1 -8 6 24.6 2.1
1 -8 6 26.6 2.1
1 -8 6 24.4 2
-2 8 -6 62.09 3.4
-2 8 -6 58.59 4.5
2 -8 6 64.19 3.4
2 -8 6 64.09 3.4
2 -8 6 65.89 3.5
-3 8 -6 44.9 2.8
3 -8 6 46.6 2.9
3 -8 6 42.9 2.8
3 -8 6 47.4 2.9
-4 8 -6 198.38 8.2
4 -8 6 186.88 8.4
4 -8 6 196.18 8.4
4 -8 6 193.58 8.3
6 7 -6 40.4 6
6 7 -6 35.9 2.6
-6 -7 6 37.7 3.1
-6 -7 6 32.8 2.3
-6 -7 6 35.4 2.7
5 7 -6 143.99 8.8
5 7 -6 132.89 5.9
-5 -7 6 137.69 6.5
-5 -7 6 129.89 6.6
-5 -7 6 126.99 6
4 7 -6 201.18 8.4
4 7 -6 222.78 8.1
4 7 -6 211.58 11
-4 -7 6 193.68 8.7
-4 -7 6 212.78 9
-4 -7 6 206.68 8.1
-4 -7 6 201.68 8.2
3 7 -6 14.4 1.2
3 7 -6 15 3.6
3 7 -6 11.6 1.3
-3 -7 6 11.2 1.7
-3 -7 6 13.1 1.2
-3 -7 6 12.7 1.5
-3 -7 6 14.2 1.3
2 7 -6 350.96 13.7
2 7 -6 385.26 16.2
-2 -7 6 372.96 14.3
-2 -7 6 363.36 13.9
-2 -7 6 372.66 13.9
-2 -7 6 337.37 14.5
1 7 -6 140.59 7.2
1 7 -6 126.79 5.2
-1 -7 6 129.19 5.5
-1 -7 6 128.39 5.6
-1 -7 6 128.49 5.5
-1 -7 6 131.29 5.8
0 7 -6 155.48 6.3
0 7 -6 168.08 8.1
0 -7 6 161.18 6.7
0 -7 6 163.18 6.8
0 -7 6 165.98 6.7
-1 7 -6 187.98 9.1
1 -7 6 194.68 8.1
1 -7 6 186.68 9
1 -7 6 187.88 8.3
1 -7 6 203.28 7.4
-2 7 -6 1.6 1.3
-2 7 -6 0.6 0.9
2 -7 6 0.1 0.5
2 -7 6 -1.5 1.3
2 -7 6 0.5 0.9
2 -7 6 0.3 0.8
2 -7 6 1.3 1
-3 7 -6 185.38 7.8
-3 7 -6 200.48 9.2
3 -7 6 183.28 8
3 -7 6 188.68 8.3
3 -7 6 185.28 7.5
3 -7 6 186.28 8
-4 7 -6 10.9 1.6
4 -7 6 8.7 1.4
4 -7 6 9.7 1.6
4 -7 6 12.5 1.7
4 -7 6 11.1 1.7
-5 7 -6 6.9 1.2
-5 7 -6 5.9 1.3
5 -7 6 5.6 1.4
5 -7 6 5.3 1.3
5 -7 6 3.6 2.1
5 -7 6 4.6 1.4
7 6 -6 3.9 1.4
7 6 -6 5.1 1.1
-7 -6 6 5.8 1.6
-7 -6 6 5.3 1.6
-7 -6 6 6.3 1.3
6 6 -6 8.6 4.2
6 6 -6 5.5 1.1
6 6 -6 4.4 0.8
-6 -6 6 4.3 1.1
-6 -6 6 3.6 1
-6 -6 6 4.9 1.5
5 6 -6 275.67 11.2
5 6 -6 296.87 14.2
-5 -6 6 271.37 11.2
-5 -6 6 272.17 10.7
-5 -6 6 282.37 11.6
-5 -6 6 276.47 10.7
4 6 -6 10.5 1.1
4 6 -6 15 1.2
4 6 -6 14.3 3.7
-4 -6 6 13.9 1.6
-4 -6 6 15.6 1.1
-4 -6 6 11.8 1.1
-4 -6 6 13.1 1
-4 -6 6 14.2 2.3
3 6 -6 95.29 4
3 6 -6 90.19 4
3 6 -6 98.59 6
-3 -6 6 95.09 3.9
-3 -6 6 93.69 4.3
-3 -6 6 94.29 4
-3 -6 6 95.19 4
-3 -6 6 94.99 4.5
2 6 -6 0.3 0.4
2 6 -6 0.2 0.5
-2 -6 6 1.1 0.4
-2 -6 6 0 0.4
-2 -6 6 0.4 0.5
-2 -6 6 -0.1 0.7
-2 -6 6 1 0.5
1 6 -6 15.4 2.2
1 6 -6 15.7 1.2
-1 -6 6 11.4 1.1
-1 -6 6 14.8 1
-1 -6 6 15 1.1
-1 -6 6 12.4 1.1
-1 -6 6 13 1.3
0 6 -6 481.45 17.8
0 6 -6 475.05 19
0 6 -6 470.75 17.3
0 -6 6 457.75 17.8
0 -6 6 469.35 17.8
0 -6 6 475.85 17.5
0 -6 6 477.65 17.8
0 -6 6 470.25 18.2
-1 6 -6 24 2.5
-1 6 -6 28.5 1.7
1 -6 6 27.8 1.5
1 -6 6 27.1 1.7
1 -6 6 26.5 1.7
1 -6 6 27.5 1.7
-2 6 -6 225.68 9.2
2 -6 6 230.28 9.3
2 -6 6 232.78 9.2
2 -6 6 226.68 8.9
2 -6 6 232.48 9.3
-3 6 -6 66.29 3.6
-3 6 -6 69.69 4.1
3 -6 6 66.89 3.6
3 -6 6 62.99 3.6
3 -6 6 68.69 3.6
3 -6 6 65.69 3.2
-4 6 -6 6.1 1.1
-4 6 -6 2.9 0.9
4 -6 6 5.3 1.1
4 -6 6 5.3 1.2
4 -6 6 5.1 1.1
-5 6 -6 273.67 11.2
-5 6 -6 283.97 11.1
5 -6 6 268.67 11
5 -6 6 262.37 11.3
5 -6 6 274.27 11.4
7 5 -6 0.5 0.8
7 5 -6 0 0.9
7 5 -6 -1.3 3.4
-7 -5 6 1.4 1.3
-7 -5 6 -1.4 1.1
-7 -5 6 1.1 0.9
6 5 -6 225.08 9.1
6 5 -6 231.68 12.2
6 5 -6 219.98 8.6
-6 -5 6 215.68 8.8
-6 -5 6 214.38 9.5
-6 -5 6 225.78 9.1
5 5 -6 217.38 8.5
5 5 -6 204.78 8.1
5 5 -6 229.18 11.5
-5 -5 6 207.88 8.3
-5 -5 6 209.98 8.2
-5 -5 6 200.18 8.8
4 5 -6 357.76 13.2
4 5 -6 342.07 13.1
4 5 -6 363.36 15.6
4 5 -6 362.56 13.5
-4 -5 6 358.26 13.9
-4 -5 6 344.77 13.3
-4 -5 6 354.06 13.6
-4 -5 6 342.67 13.2
3 5 -6 158.88 8
3 5 -6 151.08 6.2
3 5 -6 157.38 6.2
-3 -5 6 157.68 6.2
-3 -5 6 159.98 6.3
-3 -5 6 158.98 6.7
-3 -5 6 157.48 6.2
-3 -5 6 162.08 6.5
2 5 -6 9.1 0.9
2 5 -6 9.3 1.8
2 5 -6 8.6 1
-2 -5 6 7.4 1.1
-2 -5 6 6.4 0.7
-2 -5 6 9.1 0.8
-2 -5 6 8.2 0.8
-2 -5 6 7.1 0.8
1 5 -6 504.25 19.9
1 5 -6 503.95 18.3
1 5 -6 466.25 18.6
-1 -5 6 504.75 19
-1 -5 6 500.65 18.7
-1 -5 6 520.45 18.5
-1 -5 6 500.75 18.8
-1 -5 6 498.65 18.6
0 5 -6 27.2 2.3
0 5 -6 27.1 1.6
0 -5 6 27.4 1.5
0 -5 6 27.6 1.5
0 -5 6 23 1.6
0 -5 6 24.2 1.6
-1 5 -6 12.4 1.1
1 -5 6 16.6 1
1 -5 6 13.6 1.1
1 -5 6 13.5 1.2
1 -5 6 11.4 1.2
-2 5 -6 0.8 1.4
-2 5 -6 1.3 0.5
2 -5 6 -0.1 1
2 -5 6 1.7 0.5
2 -5 6 1.8 0.5
2 -5 6 1.8 0.6
2 -5 6 2.1 0.6
-3 5 -6 27.3 1.9
3 -5 6 27.3 1.6
3 -5 6 27.9 3.3
3 -5 6 24.6 1.7
3 -5 6 26.3 2.7
-4 5 -6 139.09 6.1
-4 5 -6 130.29 6.1
4 -5 6 133.19 5.6
4 -5 6 136.89 6.2
4 -5 6 137.99 6.2
-5 5 -6 2 0.8
-5 5 -6 -0.3 1.1
5 -5 6 2.2 1.1
5 -5 6 1.2 1
5 -5 6 -0.2 1
5 -5 6 0.1 1.7
5 -5 6 -0.5 0.9
8 4 -6 15.4 2
8 4 -6 21 2
-8 -4 6 15.8 2.5
-8 -4 6 18 1.8
-8 -4 6 14.3 2.2
7 4 -6 5.8 3.4
7 4 -6 8.6 1.4
7 4 -6 10.3 1.5
-7 -4 6 7.8 1.2
-7 -4 6 11.5 1.9
-7 -4 6 9.1 1.4
6 4 -6 112.89 4.6
6 4 -6 109.89 8
-6 -4 6 100.09 5.5
-6 -4 6 112.89 5.6
-6 -4 6 112.09 4.8
5 4 -6 4.7 0.8
5 4 -6 6.5 2.2
5 4 -6 3.6 0.6
-5 -4 6 4.3 0.7
-5 -4 6 4.5 0.7
-5 -4 6 5.1 0.8
-5 -4 6 4.7 1
4 4 -6 210.58 8
4 4 -6 206.98 8.1
4 4 -6 210.78 10.1
4 4 -6 206.98 7.9
-4 -4 6 209.98 8.6
-4 -4 6 206.48 8.2
-4 -4 6 204.48 8
-4 -4 6 205.28 7.9
3 4 -6 79.79 3.3
3 4 -6 81.89 3.1
3 4 -6 79.09 3.4
3 4 -6 75.09 4.7
-3 -4 6 71.89 3.1
-3 -4 6 80.09 3.3
-3 -4 6 82.69 3.3
-3 -4 6 78.29 3.5
-3 -4 6 77.89 3.7
2 4 -6 171.58 7
2 4 -6 174.48 6.7
2 4 -6 174.08 8.2
-2 -4 6 177.18 7.1
-2 -4 6 181.18 7
-2 -4 6 179.38 7.3
-2 -4 6 178.78 6.9
-2 -4 6 184.48 6.9
1 4 -6 72.79 4.2
1 4 -6 74.89 3.4
-1 -4 6 80.09 3.5
-1 -4 6 82.09 3.6
-1 -4 6 80.69 3.7
-1 -4 6 78.59 3.3
-1 -4 6 87.29 3.4
0 4 -6 868.51 33.4
0 -4 6 895.71 33.4
0 -4 6 884.21 33.5
0 -4 6 929.01 33.3
0 -4 6 969.3 33.9
0 -4 6 906.91 33.4
-1 4 -6 920.81 36
1 -4 6 1005.1 36
1 -4 6 1011.5 35.5
1 -4 6 965.2 35.9
1 -4 6 985.5 35.8
-2 4 -6 39.2 2.2
2 -4 6 43.4 2.2
2 -4 6 45 2.3
2 -4 6 43.4 2.3
-3 4 -6 184.08 8
-3 4 -6 213.88 8.2
3 -4 6 195.58 8
3 -4 6 198.78 7.7
3 -4 6 203.98 8.2
3 -4 6 190.58 8.2
-4 4 -6 22.8 2
-4 4 -6 25.6 3
4 -4 6 25.4 1.7
4 -4 6 24.9 2.3
4 -4 6 24.3 2.1
4 -4 6 23.1 2.2
-5 4 -6 41 2.6
-5 4 -6 36.4 2.7
5 -4 6 39.3 2.7
5 -4 6 40.7 2.7
5 -4 6 35.6 2.7
8 3 -6 109.19 5.3
8 3 -6 117.69 5.1
-8 -3 6 103.59 5.2
-8 -3 6 110.79 5.7
7 3 -6 15.2 1.6
7 3 -6 14.4 1.7
7 3 -6 9.1 3.8
-7 -3 6 13.4 2
-7 -3 6 15.9 2
-7 -3 6 17.3 1.7
6 3 -6 109.79 4.6
6 3 -6 102.59 4.8
-6 -3 6 113.89 4.8
-6 -3 6 110.69 4.7
5 3 -6 189.08 7.2
5 3 -6 190.68 7.6
5 3 -6 191.98 7.4
5 3 -6 185.08 9.7
-5 -3 6 198.28 7.6
-5 -3 6 188.38 8
-5 -3 6 191.78 7.2
-5 -3 6 191.18 7.6
4 3 -6 13.6 2.1
4 3 -6 14 0.9
4 3 -6 12.1 0.9
-4 -3 6 11.8 1.2
-4 -3 6 13.9 0.8
-4 -3 6 14 1.1
-4 -3 6 14.2 1
3 3 -6 331.47 14.9
3 3 -6 357.56 13.4
3 3 -6 370.06 13.2
3 3 -6 362.36 13.3
-3 -3 6 359.16 13.5
-3 -3 6 355.16 13.2
-3 -3 6 360.16 13.8
-3 -3 6 367.36 13.4
2 3 -6 15.9 0.9
2 3 -6 16.2 1.1
-2 -3 6 14.5 0.8
-2 -3 6 16.5 1
-2 -3 6 16 1
-2 -3 6 14.7 1
-2 -3 6 16.8 1.2
1 3 -6 61.29 2.9
-1 -3 6 68.39 2.9
-1 -3 6 65.59 3.1
-1 -3 6 63.99 2.8
-1 -3 6 66.49 2.9
0 3 -6 440.56 15.8
0 -3 6 366.86 16
0 -3 6 432.56 15.3
0 -3 6 441.36 15.7
0 -3 6 423.26 15.7
0 -3 6 408.26 15.7
-1 3 -6 15.2 1.2
1 -3 6 17.2 1.1
1 -3 6 16.6 1.2
1 -3 6 15.6 1.3
1 -3 6 17.5 1.2
-2 3 -6 416.56 15.1
-2 3 -6 395.76 15.2
2 -3 6 394.56 15
2 -3 6 367.56 15
2 -3 6 404.56 14.7
2 -3 6 387.66 15.1
-3 3 -6 17.2 1.5
-3 3 -6 16.3 1.4
3 -3 6 17.9 1.3
3 -3 6 15.3 1.4
3 -3 6 18.5 1.5
3 -3 6 19.7 1.6
-4 3 -6 49.1 2.9
-4 3 -6 52.99 3
4 -3 6 51.79 3.2
4 -3 6 50.69 2.7
4 -3 6 53.59 3.1
-5 3 -6 145.79 6.6
-5 3 -6 139.99 6.5
-5 3 -6 156.98 6.7
5 -3 6 151.48 6.6
5 -3 6 150.58 6.5
5 -3 6 144.09 6.7
6 -3 6 -0.7 1.9
8 2 -6 41.3 7.7
8 2 -6 43.8 2.9
8 2 -6 43.5 2.7
-8 -2 6 50.39 2.9
-8 -2 6 42.7 3.2
7 2 -6 79.99 3.7
7 2 -6 75.69 7.4
7 2 -6 80.39 4
-7 -2 6 77.99 4.4
-7 -2 6 83.59 4.4
6 2 -6 205.48 11.1
6 2 -6 220.48 8.4
6 2 -6 210.98 8.5
-6 -2 6 213.48 9
-6 -2 6 216.28 8.7
-6 -2 6 216.18 8.4
5 2 -6 2.3 0.4
5 2 -6 2.4 0.4
5 2 -6 2 0.4
5 2 -6 1.9 1.5
-5 -2 6 3 0.5
-5 -2 6 2.3 0.5
-5 -2 6 2 0.6
4 2 -6 902.11 33
4 2 -6 902.71 32.9
4 2 -6 880.51 32.9
4 2 -6 952.2 35.4
-4 -2 6 830.82 32.8
-4 -2 6 908.01 32.7
-4 -2 6 912.51 33
-4 -2 6 901.91 33.4
-4 -2 6 915.31 33.1
3 2 -6 781.02 27.4
3 2 -6 632.64 28.9
-3 -2 6 763.62 27.1
-3 -2 6 785.82 27.3
-3 -2 6 768.12 27.7
-3 -2 6 750.42 27.4
-3 -2 6 727.13 27.1
2 2 -6 208.78 7.4
2 2 -6 186.78 7.7
-2 -2 6 209.48 7.7
-2 -2 6 191.68 7.6
-2 -2 6 197.68 7.4
-2 -2 6 203.48 7.7
-2 -2 6 195.68 7.9
1 2 -6 542.85 20.3
-1 -2 6 518.55 20.1
-1 -2 6 563.74 20.2
-1 -2 6 562.24 19.9
-1 -2 6 534.05 20.1
0 2 -6 95.79 4.2
0 2 -6 103.09 4.1
0 -2 6 97.79 4.1
0 -2 6 94.29 3.9
0 -2 6 92.59 4.1
0 -2 6 110.09 4.6
0 -2 6 97.09 4.1
-1 2 -6 447.86 17.1
1 -2 6 450.15 17.1
1 -2 6 470.95 17
1 -2 6 443.16 17.1
1 -2 6 450.75 16.7
-2 2 -6 218.38 9.2
-2 2 -6 232.18 9.2
2 -2 6 247.08 9.2
2 -2 6 228.58 9.3
2 -2 6 234.68 8.9
2 -2 6 237.88 9.3
-3 2 -6 12.2 1.2
-3 2 -6 10.2 1.1
3 -2 6 9.3 1.2
3 -2 6 9.8 1.1
3 -2 6 11.6 1.2
-4 2 -6 164.48 6.9
-4 2 -6 164.28 6.8
-4 2 -6 153.58 6.8
4 -2 6 155.68 7
4 -2 6 163.18 7
4 -2 6 156.78 6.6
-5 2 -6 6.4 1.1
-5 2 -6 6.1 1.2
-5 2 -6 9.9 1.4
5 -2 6 6.3 1.2
5 -2 6 7.7 1.3
5 -2 6 10.9 1.6
9 1 -6 33.5 2.7
9 1 -6 34.7 2.7
-9 -1 6 33.2 2.8
-9 -1 6 35.8 2.3
-9 -1 6 33.5 3
8 1 -6 26.1 2.1
8 1 -6 24.6 2.1
8 1 -6 23.1 6.2
-8 -1 6 25.9 1.8
-8 -1 6 27.3 2.4
-8 -1 6 29.2 2.2
7 1 -6 245.98 9.4
7 1 -6 234.38 13.5
7 1 -6 240.18 9.6
-7 -1 6 234.88 10
-7 -1 6 223.88 9.5
-7 -1 6 241.48 9.2
6 1 -6 5.5 0.8
6 1 -6 4.4 0.6
6 1 -6 3 2.3
-6 -1 6 4.2 0.7
-6 -1 6 5.3 0.9
-6 -1 6 4.7 0.7
5 1 -6 64.59 2.8
5 1 -6 66.79 5
5 1 -6 63.39 2.6
5 1 -6 62.79 2.9
-5 -1 6 59.79 2.7
-5 -1 6 67.29 2.8
-5 -1 6 56.89 2.9
-5 -1 6 68.09 3.2
4 1 -6 629.14 24.5
4 1 -6 552.64 21.6
4 1 -6 585.04 21.9
4 1 -6 584.14 22
-4 -1 6 586.74 21.7
-4 -1 6 591.94 22.4
-4 -1 6 633.64 21.9
-4 -1 6 581.54 22.1
-4 -1 6 622.04 21.9
3 1 -6 133.09 6.1
3 1 -6 149.99 6.1
3 1 -6 165.28 7.8
3 1 -6 159.68 5.9
-3 -1 6 150.78 6.3
-3 -1 6 162.78 5.9
-3 -1 6 158.18 6.1
-3 -1 6 157.88 6
-3 -1 6 158.78 6.1
2 1 -6 470.55 16.8
2 1 -6 473.15 17.1
2 1 -6 454.05 16.9
-2 -1 6 468.35 17
-2 -1 6 445.06 17.3
-2 -1 6 416.26 17.4
-2 -1 6 461.35 17
-2 -1 6 473.95 16.9
1 1 -6 57.09 2.7
1 1 -6 61.39 2.7
-1 -1 6 57.19 2.6
-1 -1 6 58.29 2.7
-1 -1 6 63.39 2.6
-1 -1 6 58.09 2.6
-1 -1 6 61.79 3
0 1 -6 103.29 4.6
0 1 -6 109.39 4.7
0 -1 6 116.09 5
0 -1 6 112.59 4.5
0 -1 6 106.99 4.6
0 -1 6 108.99 4.6
0 -1 6 117.79 4.6
-1 1 -6 385.36 13.7
-1 1 -6 333.67 13.7
1 -1 6 353.56 13.4
1 -1 6 371.26 13.7
1 -1 6 349.37 13.6
-2 1 -6 0.4 0.4
-2 1 -6 1 0.5
2 -1 6 1.3 1
2 -1 6 0.8 0.4
2 -1 6 1.9 0.6
2 -1 6 1.2 0.5
-3 1 -6 181.78 7.1
-3 1 -6 178.98 7.1
-3 1 -6 156.18 6.9
3 -1 6 166.58 7.1
3 -1 6 165.78 6.8
3 -1 6 166.58 7.1
-4 1 -6 0.6 0.7
-4 1 -6 -1.1 0.7
-4 1 -6 1.3 0.8
4 -1 6 1.6 1
4 -1 6 1.4 0.8
4 -1 6 -2.2 1.6
-5 1 -6 17.7 1.7
-5 1 -6 11.8 1.8
-5 1 -6 15.3 1.8
5 -1 6 14.8 2
5 -1 6 16 1.9
5 -1 6 17.1 1.9
9 0 -6 5.6 1.2
9 0 -6 4 1.2
9 0 -6 -5.1 5.7
-9 0 6 4.1 1.5
-9 0 6 2.3 1.2
-9 0 6 5.2 1.2
8 0 -6 96.59 4.6
8 0 -6 84.19 8.8
8 0 -6 97.49 4.5
-8 0 6 94.49 4.1
-8 0 6 99.79 5
-8 0 6 97.29 4.6
7 0 -6 86.69 8.8
7 0 -6 87.89 4.2
7 0 -6 83.79 4.2
-7 0 6 83.69 4.2
-7 0 6 83.29 3.6
6 0 -6 77.59 3.5
6 0 -6 73.99 6.2
6 0 -6 74.79 3.4
-6 0 6 79.29 3.3
-6 0 6 76.79 3.8
-6 0 6 82.69 3.6
5 0 -6 41.7 2
5 0 -6 42.8 2.1
5 0 -6 35.2 4
5 0 -6 41.2 1.9
-5 0 6 43.7 2.2
-5 0 6 36.7 2.3
-5 0 6 42.2 2.3
-5 0 6 41.5 2
4 0 -6 2.7 0.5
4 0 -6 2.4 0.4
4 0 -6 3 0.5
4 0 -6 3 1.8
-4 0 6 3.4 0.5
-4 0 6 2.5 0.5
-4 0 6 3.4 0.6
-4 0 6 3.1 0.5
3 0 -6 382.96 14.4
3 0 -6 416.66 16.8
3 0 -6 395.46 14.6
3 0 -6 409.16 14.5
-3 0 6 350.26 14.6
-3 0 6 395.06 14.8
-3 0 6 405.16 14.4
-3 0 6 379.46 14.5
2 0 -6 6.9 0.6
2 0 -6 6.2 0.7
-2 0 6 5.7 0.7
-2 0 6 6.3 0.7
-2 0 6 6.6 0.6
-2 0 6 5.2 0.7
1 0 -6 8.6 0.8
1 0 -6 10.5 0.8
-1 0 6 7.5 0.7
-1 0 6 9.9 1
-1 0 6 7.4 0.8
-1 0 6 6.1 0.7
-1 0 6 7.7 0.8
0 0 -6 112.99 4.5
0 0 -6 94.29 4.5
0 0 6 102.09 4.3
0 0 6 109.29 4.4
0 0 6 113.49 4.8
0 0 6 108.39 4.5
0 0 6 105.69 4.1
-1 0 -6 36.2 2
-1 0 -6 41.1 2.1
1 0 6 38.3 2.1
1 0 6 35.7 1.9
1 0 6 38.4 1.9
-2 0 -6 177.78 7.6
-2 0 -6 193.18 7.8
-2 0 -6 176.78 7.6
2 0 6 193.88 7.7
2 0 6 191.08 7.5
2 0 6 197.68 7.2
2 0 6 190.18 7.7
-3 0 -6 1.2 0.6
-3 0 -6 2.1 0.7
3 0 6 1.9 0.5
3 0 6 1.9 0.7
3 0 6 1.1 0.6
-4 0 -6 30.2 2.2
-4 0 -6 33.4 2.3
-4 0 -6 33.3 2.3
4 0 6 34.2 3.2
4 0 6 35 2.5
4 0 6 33.2 2.4
-5 0 -6 167.28 7.3
-5 0 -6 172.38 7.2
-5 0 -6 158.68 7.4
5 0 6 170.98 7.5
5 0 6 167.28 7.3
9 -1 -6 -3.2 6.1
9 -1 -6 2.5 1
9 -1 -6 0.5 0.9
-9 1 6 2.7 1.2
8 -1 -6 5.6 1.2
8 -1 -6 3.7 1
8 -1 -6 -1.1 5.3
-8 1 6 6.6 1.5
-8 1 6 5.5 1.1
7 -1 -6 66.39 4.5
7 -1 -6 63.49 3.4
-7 1 6 59.39 2.8
-7 1 6 65.89 3.4
-7 1 6 61.79 3.4
6 -1 -6 137.19 5.7
6 -1 -6 121.79 9.1
6 -1 -6 136.89 5.6
-6 1 6 135.09 5.4
-6 1 6 146.79 6.2
-6 1 6 139.19 5.7
-6 1 6 133.39 5.5
5 -1 -6 0.8 0.4
5 -1 -6 0.4 0.4
5 -1 -6 1 0.3
5 -1 -6 -1.7 2.2
-5 1 6 0.5 0.5
-5 1 6 1.2 0.5
-5 1 6 1 0.3
-5 1 6 0.5 0.4
4 -1 -6 80.09 6.1
4 -1 -6 83.59 3.5
4 -1 -6 82.69 3.5
-4 1 6 81.89 3.6
-4 1 6 84.19 3.2
-4 1 6 76.79 3.5
-4 1 6 86.29 3.6
3 -1 -6 65.69 2.7
3 -1 -6 68.09 2.9
3 -1 -6 68.69 2.8
-3 1 6 66.69 3
-3 1 6 64.99 3
-3 1 6 68.39 2.6
-3 1 6 65.39 2.9
2 -1 -6 1052.59 38.5
-2 1 6 1080.09 38.3
-2 1 6 1043.2 38.2
-2 1 6 1059.49 38.5
-2 1 6 1016.3 38.4
1 -1 -6 915.31 34.6
1 -1 -6 848.22 34.4
-1 1 6 962.7 34.3
-1 1 6 1084.79 34.8
-1 1 6 953.5 34.4
-1 1 6 889.21 34.3
-1 1 6 921.21 34.5
0 -1 -6 1.1 0.4
0 -1 -6 1.3 0.4
0 -1 -6 0.5 1.9
0 -1 -6 1.9 0.4
0 1 6 0.8 0.4
0 1 6 1.4 0.4
0 1 6 0.7 0.3
0 1 6 1.4 0.4
0 1 6 1.7 0.6
-1 -1 -6 188.98 7.4
-1 -1 -6 189.08 7.3
-1 -1 -6 177.58 7.2
1 1 6 171.68 7.2
1 1 6 179.68 7.1
1 1 6 170.48 7.2
-2 -1 -6 31.4 2
-2 -1 -6 35.9 2
-2 -1 -6 36.6 2.1
2 1 6 34.2 2.3
2 1 6 34.2 1.7
2 1 6 33.3 2
2 1 6 33.6 2.1
2 1 6 34.8 2
-3 -1 -6 69.49 3.6
-3 -1 -6 65.69 3.2
3 1 6 63.49 3.8
3 1 6 70.29 3.7
3 1 6 63.59 3
3 1 6 65.69 4.5
-4 -1 -6 74.99 4
-4 -1 -6 90.69 4.4
-4 -1 -6 81.09 4.1
4 1 6 76.89 4
4 1 6 78.79 4.2
4 1 6 76.89 3.6
-5 -1 -6 2.8 1
-5 -1 -6 3.4 1
-5 -1 -6 1.7 0.9
5 1 6 3.4 1.2
5 1 6 3.1 1.2
9 -2 -6 1 7.2
9 -2 -6 6.2 1.2
9 -2 -6 6.1 1.3
-9 2 6 5.2 1.6
-9 2 6 6 1.3
-9 2 6 4.7 1.5
8 -2 -6 72.39 3.6
8 -2 -6 53.09 8.6
8 -2 -6 70.69 3.7
-8 2 6 61.39 3.5
-8 2 6 68.19 3.9
-8 2 6 75.39 3.5
7 -2 -6 142.69 12.6
7 -2 -6 173.78 7.3
7 -2 -6 178.58 7.3
-7 2 6 180.48 7.3
-7 2 6 183.78 7.4
6 -2 -6 12.9 1.1
6 -2 -6 8.4 4.4
6 -2 -6 12.1 1.1
6 -2 -6 11 0.9
-6 2 6 10.6 1.2
-6 2 6 10.5 1.1
-6 2 6 12.8 1.2
5 -2 -6 24 1.5
5 -2 -6 28.9 1.4
5 -2 -6 25.3 1.7
5 -2 -6 27.7 4.9
-5 2 6 24.2 1.6
-5 2 6 23.1 1.6
-5 2 6 26.5 1.6
4 -2 -6 7.8 0.5
4 -2 -6 6.8 0.7
4 -2 -6 12.4 3.6
4 -2 -6 6.1 0.7
-4 2 6 9.3 0.9
-4 2 6 8 0.8
-4 2 6 8.3 0.8
3 -2 -6 85.29 3.7
3 -2 -6 86.49 3.4
3 -2 -6 84.09 3.5
-3 2 6 82.59 3.6
-3 2 6 82.09 3.6
-3 2 6 88.69 3.7
2 -2 -6 619.64 21.8
2 -2 -6 603.84 21.7
2 -2 -6 551.54 21.6
2 -2 -6 566.24 22
-2 2 6 547.25 21.6
-2 2 6 590.24 21.9
-2 2 6 616.84 21.9
-2 2 6 620.14 22
-2 2 6 598.74 21.8
1 -2 -6 1.8 0.4
1 -2 -6 2.1 0.4
1 -2 -6 1.8 0.5
-1 2 6 1.7 0.4
-1 2 6 1.6 0.4
-1 2 6 0.6 0.4
-1 2 6 1.6 0.6
-1 2 6 1.2 0.4
0 -2 -6 248.28 10.3
0 -2 -6 247.58 10.1
0 -2 -6 262.57 10.2
0 2 6 290.17 10.6
0 2 6 257.17 10.1
0 2 6 259.07 10.1
0 2 6 268.27 10.2
0 2 6 267.17 10.1
-1 -2 -6 109.49 4.8
-1 -2 -6 103.49 4.6
-1 -2 -6 98.59 4.7
1 2 6 104.39 4.6
1 2 6 116.09 4.9
1 2 6 107.39 4.4
1 2 6 109.49 4.7
1 2 6 114.39 4.7
-2 -2 -6 76.49 3.5
-2 -2 -6 68.89 3.4
-2 -2 -6 75.09 3.6
2 2 6 68.69 3.4
2 2 6 66.19 3.6
2 2 6 67.49 3.1
2 2 6 69.29 3.5
-3 -2 -6 153.88 7.2
-3 -2 -6 165.38 7.1
-3 -2 -6 169.28 7.1
3 2 6 163.88 6.6
3 2 6 157.48 7.3
3 2 6 167.18 7
3 2 6 163.28 7.6
-4 -2 -6 10.2 1.6
-4 -2 -6 5.5 1.2
-4 -2 -6 6.4 1.2
4 2 6 4.7 1.2
4 2 6 6.7 1.1
4 2 6 5.8 1.2
9 -3 -6 1.1 1
9 -3 -6 1.8 1.1
-9 3 6 2.1 1.1
-9 3 6 -0.9 1.1
-9 3 6 -0.2 0.9
8 -3 -6 62.79 3.5
8 -3 -6 57.49 3.4
-8 3 6 61.89 3.5
-8 3 6 64.39 3.4
-8 3 6 61.09 3.7
7 -3 -6 42.9 2.1
7 -3 -6 42.8 2.6
7 -3 -6 42.1 2.6
-7 3 6 38.9 2.4
-7 3 6 44 2.7
-7 3 6 40.2 2.7
6 -3 -6 453.05 17.5
6 -3 -6 474.35 17.2
6 -3 -6 451.05 17.5
-6 3 6 446.76 17.5
-6 3 6 461.45 17.5
-6 3 6 483.15 17.5
5 -3 -6 304.07 11.7
5 -3 -6 312.87 11.6
-5 3 6 306.47 11.8
-5 3 6 302.17 11.7
-5 3 6 301.87 11.7
4 -3 -6 6.4 0.6
4 -3 -6 5.7 0.8
4 -3 -6 6.3 0.7
4 -3 -6 1.9 3.3
-4 3 6 7.3 0.8
-4 3 6 7.1 0.9
3 -3 -6 370.86 13.3
3 -3 -6 355.76 13.7
3 -3 -6 364.16 13.6
-3 3 6 386.76 13.6
-3 3 6 346.47 13.6
-3 3 6 333.47 13.4
2 -3 -6 58.29 2.5
2 -3 -6 57.19 2.7
-2 3 6 56.39 2.6
-2 3 6 56.99 2.6
-2 3 6 50.59 2.5
1 -3 -6 200.48 7.7
1 -3 -6 186.78 7.6
1 -3 -6 198.48 7.9
-1 3 6 196.18 7.7
-1 3 6 187.78 7.7
-1 3 6 193.58 7.6
-1 3 6 206.28 7.8
0 -3 -6 107.09 4.7
0 -3 -6 102.69 4.4
0 -3 -6 99.29 4.6
0 3 6 110.89 4.6
0 3 6 109.79 4.6
0 3 6 99.79 4.5
-1 -3 -6 1.5 0.5
-1 -3 -6 1.2 0.6
-1 -3 -6 1.8 0.6
1 3 6 0.6 0.5
1 3 6 0.5 0.6
1 3 6 3.5 0.9
-2 -3 -6 149.49 6.5
-2 -3 -6 141.29 6.6
-2 -3 -6 147.79 6.6
2 3 6 155.28 6.6
2 3 6 157.28 7.7
2 3 6 153.28 6.6
2 3 6 154.48 6.3
-3 -3 -6 0.8 0.7
-3 -3 -6 0.5 1
-3 -3 -6 2.7 1.1
3 3 6 3.7 0.9
3 3 6 2.6 1
3 3 6 2.2 0.9
-4 -3 -6 35.3 2.5
-4 -3 -6 31.7 2.4
-4 -3 -6 29.3 2.4
4 3 6 23.9 2.8
4 3 6 29.6 2.4
4 3 6 28.8 2.9
4 3 6 31.9 2.7
8 -4 -6 5.4 7.3
8 -4 -6 2.8 1
8 -4 -6 4.1 1
-8 4 6 2.6 0.9
-8 4 6 3.6 1
7 -4 -6 49.5 2.9
7 -4 -6 49.99 2.5
7 -4 -6 52.19 2.9
-7 4 6 50.29 3
-7 4 6 48.3 2.7
-7 4 6 50.99 2.9
6 -4 -6 165.68 6.6
6 -4 -6 155.08 6.9
-6 4 6 167.98 6.8
-6 4 6 161.68 6.9
-6 4 6 164.48 6.7
5 -4 -6 18.4 1.4
5 -4 -6 17.8 1.3
-5 4 6 18.7 1.3
-5 4 6 17.4 1.5
-5 4 6 18.9 1.3
4 -4 -6 65.99 7.3
4 -4 -6 60.09 2.6
4 -4 -6 59.69 2.9
4 -4 -6 58.99 2.9
-4 4 6 68.89 2.8
-4 4 6 59.49 2.9
-4 4 6 59.69 2.8
-4 4 6 59.89 2.9
3 -4 -6 5.9 0.7
3 -4 -6 6.3 0.8
3 -4 -6 6.5 0.9
-3 4 6 7.2 0.8
-3 4 6 7.1 0.9
-3 4 6 6.7 1
-3 4 6 5.2 0.8
2 -4 -6 56.69 2.7
2 -4 -6 53.19 2.7
-2 4 6 53.79 2.6
-2 4 6 50.49 2.6
-2 4 6 55.79 2.6
1 -4 -6 30.6 1.9
1 -4 -6 27.1 1.6
1 -4 -6 24.6 1.5
-1 4 6 26.5 1.6
-1 4 6 28 1.7
-1 4 6 26.5 1.6
0 -4 -6 58.29 2.7
0 -4 -6 55.39 2.8
0 -4 -6 54.39 3
0 4 6 56.19 2.8
0 4 6 56.59 3.2
0 4 6 55.69 2.7
-1 -4 -6 28.5 2.2
-1 -4 -6 26.4 1.8
1 4 6 25.2 1.8
1 4 6 25.6 1.9
1 4 6 26 2
1 4 6 26.7 2.2
-2 -4 -6 23.7 2
-2 -4 -6 23.3 2.3
-2 -4 -6 22.1 3.4
2 4 6 27.1 2
2 4 6 25.7 2.2
2 4 6 26.2 2.2
2 4 6 24.8 2.2
-3 -4 -6 20.9 2.2
-3 -4 -6 25.1 2.3
-3 -4 -6 25.7 3.1
-3 -4 -6 21 2.1
3 4 6 29.2 2.2
3 4 6 22.2 2.3
3 4 6 31.3 2.9
3 4 6 26.1 2.7
8 -5 -6 0.4 0.9
8 -5 -6 1.1 0.9
8 -5 -6 5.7 8.2
-8 5 6 2.2 0.9
-8 5 6 0.8 1.1
7 -5 -6 -4 6.6
7 -5 -6 0.6 0.7
7 -5 -6 0 0.8
-7 5 6 -0.1 0.8
-7 5 6 0.7 0.8
6 -5 -6 19.5 1.8
6 -5 -6 20.2 1.6
-6 5 6 23.7 2.3
-6 5 6 20.9 1.9
5 -5 -6 227.58 9
5 -5 -6 209.38 9.5
-5 5 6 233.78 9.1
-5 5 6 230.18 8.9
4 -5 -6 38.8 1.9
4 -5 -6 41.1 2.3
4 -5 -6 45.4 2.4
-4 5 6 42.7 2.2
-4 5 6 41.4 2.3
-4 5 6 38.3 2.5
3 -5 -6 9 0.9
3 -5 -6 12.4 1.2
-3 5 6 11 1.3
-3 5 6 9.2 1
-3 5 6 12.3 1.2
2 -5 -6 72.29 3.7
2 -5 -6 69.89 3.2
-2 5 6 70.39 3.3
-2 5 6 66.99 3.2
-2 5 6 71.99 3.4
1 -5 -6 115.09 6
1 -5 -6 97.09 4.3
1 -5 -6 93.49 4
-1 5 6 95.39 4.2
-1 5 6 92.29 5.4
-1 5 6 102.99 5.5
-1 5 6 96.79 4.3
0 -5 -6 174.58 7.7
0 -5 -6 186.38 7.6
0 -5 -6 172.48 7.1
0 5 6 176.18 7.5
0 5 6 172.68 7.3
0 5 6 185.98 8.1
0 5 6 184.68 7.3
-1 -5 -6 0.3 0.7
-1 -5 -6 0.3 0.7
-1 -5 -6 0.7 0.9
1 5 6 1 0.9
1 5 6 2.8 1.7
1 5 6 0.5 1.2
-2 -5 -6 -0.2 1
-2 -5 -6 -0.7 0.8
-2 -5 -6 -0.6 1.2
2 5 6 0.4 1
2 5 6 0.6 0.9
2 5 6 0.5 1.1
7 -6 -6 0.5 0.8
7 -6 -6 1.1 1.1
7 -6 -6 0.5 7.8
-7 6 6 0.5 1
-7 6 6 -0.7 0.9
-7 6 6 1.2 0.8
6 -6 -6 62.59 3.5
6 -6 -6 55.29 3.2
-6 6 6 68.59 3.2
-6 6 6 58.29 3.3
-6 6 6 57.69 3.3
5 -6 -6 1.1 0.8
5 -6 -6 0 1
5 -6 -6 2.7 7.1
-5 6 6 0.2 0.7
-5 6 6 1 0.9
-5 6 6 1.5 0.9
4 -6 -6 -0.8 0.8
4 -6 -6 0.2 0.5
4 -6 -6 1.8 6.9
-4 6 6 -0.3 0.9
-4 6 6 -1.3 0.9
3 -6 -6 10.6 1.7
3 -6 -6 9.8 1.1
-3 6 6 11.6 1.8
-3 6 6 14.4 2
-3 6 6 13.4 1.1
2 -6 -6 2.3 4.2
2 -6 -6 3.2 1
2 -6 -6 2.5 0.7
-2 6 6 3 1.2
-2 6 6 4.1 1.1
-2 6 6 2.7 0.6
1 -6 -6 141.19 6.2
1 -6 -6 140.09 6
-1 6 6 133.79 6.8
-1 6 6 139.19 6.8
-1 6 6 144.89 6.1
-1 6 6 123.39 5.7
0 -6 -6 36.8 2.2
0 -6 -6 41.2 2.6
0 -6 -6 43.1 2.8
0 6 6 38.2 3.3
0 6 6 36.4 2.7
0 6 6 38.6 2.3
0 6 6 44.1 2.7
-1 -6 -6 23.7 2.4
-1 -6 -6 24 2.2
-1 -6 -6 29.4 2.4
1 6 6 31.3 2.4
1 6 6 22.5 2.1
1 6 6 24.7 2.3
-2 -6 -6 51.59 3.5
-2 -6 -6 61.99 3.5
2 6 6 54.69 3.2
7 -7 -6 15.9 2.2
7 -7 -6 16.1 2
-7 7 6 15 1.7
-7 7 6 21.5 2.1
6 -7 -6 27.6 2.5
6 -7 -6 26.6 2.2
-6 7 6 28 2.2
-6 7 6 25.9 2.3
-6 7 6 30 2.4
5 -7 -6 35.1 2.6
-5 7 6 35.3 2.5
-5 7 6 33.1 2.5
4 -7 -6 82.99 4.2
4 -7 -6 83.09 3.7
-4 7 6 76.09 3.8
-4 7 6 86.59 4.1
-4 7 6 86.79 4.1
3 -7 -6 -1.9 6.7
3 -7 -6 4.3 1.2
3 -7 -6 4.6 1
-3 7 6 5.3 1.2
-3 7 6 4.1 1.1
-3 7 6 3.7 0.8
2 -7 -6 68.49 3.6
2 -7 -6 68.19 3.8
-2 7 6 74.09 3.7
-2 7 6 64.59 3.2
-2 7 6 67.29 3.6
1 -7 -6 51.79 3
1 -7 -6 55.09 3.2
-1 7 6 53.79 3.2
-1 7 6 49.9 3
-1 7 6 47.9 2.8
0 -7 -6 2.3 1.2
0 -7 -6 4.5 1.1
0 7 6 3.9 1.1
0 7 6 4.4 1.1
0 7 6 1.8 1.1
5 -8 -6 62.79 3.8
-5 8 6 66.09 3.6
-5 8 6 62.09 3.6
-5 8 6 52.99 3.4
4 -8 -6 38.2 2.8
4 -8 -6 43.7 2.9
-4 8 6 39.6 2.8
-4 8 6 40 2.9
3 -8 -6 13.2 1.8
3 -8 -6 17.5 2
-3 8 6 16.4 4
-3 8 6 14.3 2.1
-3 8 6 12.4 1.7
2 -8 -6 5.4 1.5
2 -8 -6 3.9 1
2 -8 -6 -6.5 6.8
-2 8 6 5.3 1.3
-2 8 6 3.7 1.2
-2 8 6 4.5 2.7
1 -8 -6 1.3 1.2
1 10 -7 7.3 1.5
-1 -10 7 4.2 1
-1 -10 7 4.6 1.2
-1 -10 7 6.7 2
-1 -10 7 4.3 1.2
0 10 -7 10.7 3.3
0 -10 7 11.2 1.8
0 -10 7 12.1 1.7
0 -10 7 17.4 3.1
0 -10 7 9.5 1.4
3 9 -7 54.79 5.8
3 9 -7 60.29 3.4
3 9 -7 44.3 3.3
-3 -9 7 51.19 3.2
-3 -9 7 50.29 3.6
-3 -9 7 50.59 2.8
-3 -9 7 46.7 2.9
2 9 -7 -1.5 1.1
2 9 -7 2.1 2.5
2 9 -7 0.6 0.8
-2 -9 7 2.4 0.9
-2 -9 7 2.8 0.9
-2 -9 7 0 0.8
-2 -9 7 0.3 1.4
1 9 -7 76.69 6.2
1 9 -7 95.49 4.4
-1 -9 7 81.59 4
-1 -9 7 80.59 4.2
-1 -9 7 76.99 4.8
-1 -9 7 78.99 4.1
0 9 -7 79.29 4.5
0 9 -7 75.99 5.8
0 -9 7 72.39 3.9
0 -9 7 72.69 3.8
0 -9 7 77.69 3.9
-1 9 -7 2 2.9
-1 9 -7 3.8 1.1
1 -9 7 3.3 2.2
1 -9 7 4.3 1.1
1 -9 7 3.9 1.1
-2 9 -7 53.09 5.2
-2 9 -7 64.19 3.5
2 -9 7 59.99 3.5
2 -9 7 63.29 3.6
5 8 -7 -0.6 0.9
-5 -8 7 0.5 1.5
-5 -8 7 0.6 1
-5 -8 7 -0.9 0.8
4 8 -7 47.9 5.5
4 8 -7 53.69 3
4 8 -7 47.8 2.9
-4 -8 7 46.3 2.7
-4 -8 7 49.2 3
-4 -8 7 43.4 3.3
-4 -8 7 47.5 2.7
3 8 -7 2.7 0.7
3 8 -7 2.9 2.3
3 8 -7 3.8 1.5
-3 -8 7 3.3 0.9
-3 -8 7 3.4 1
-3 -8 7 3.2 0.9
-3 -8 7 2.3 1.5
2 8 -7 65.39 5.4
2 8 -7 60.79 2.9
2 8 -7 61.49 3.6
-2 -8 7 61.19 3.2
-2 -8 7 61.99 3.4
-2 -8 7 60.49 3.4
-2 -8 7 62.39 4
1 8 -7 125.99 7.8
1 8 -7 104.69 5.5
-1 -8 7 118.29 5.2
-1 -8 7 120.09 5.4
-1 -8 7 117.19 6.2
0 8 -7 0.8 0.8
0 8 -7 1.8 2.4
0 -8 7 0.6 0.8
0 -8 7 -0.9 0.7
0 -8 7 1.9 0.8
0 -8 7 0.8 2.4
-1 8 -7 232.88 14.7
-1 8 -7 304.47 11
1 -8 7 274.67 11
1 -8 7 269.57 10.9
1 -8 7 278.67 11.1
-2 8 -7 40.6 4.6
-2 8 -7 49.8 2.9
2 -8 7 46.6 3
2 -8 7 44.7 2.8
2 -8 7 46.8 2.9
-3 8 -7 3.4 4.6
-3 8 -7 9.2 1.3
3 -8 7 14.7 1.9
3 -8 7 11.7 1.7
6 7 -7 4.6 1.1
-6 -7 7 6 1.3
-6 -7 7 5.5 1.8
5 7 -7 159.38 6.7
5 7 -7 157.58 9.5
-5 -7 7 152.58 6.8
-5 -7 7 157.58 7.3
-5 -7 7 149.09 6.8
4 7 -7 53.89 5.1
4 7 -7 48.3 2.7
4 7 -7 53.69 2.7
-4 -7 7 47.2 3.4
-4 -7 7 50.09 2.7
-4 -7 7 47.8 2.6
3 7 -7 18.2 1.3
3 7 -7 15 1.5
3 7 -7 17.5 3.9
-3 -7 7 16.9 2.9
-3 -7 7 21.8 1.4
-3 -7 7 19.1 1.9
-3 -7 7 18.8 1.4
2 7 -7 370.96 14.6
2 7 -7 452.75 19.6
2 7 -7 388.16 14.9
-2 -7 7 380.76 14.9
-2 -7 7 380.26 15.2
-2 -7 7 385.26 15.4
-2 -7 7 381.56 15
1 7 -7 102.59 4.5
1 7 -7 98.69 6
-1 -7 7 93.29 4.8
-1 -7 7 95.89 4.5
-1 -7 7 96.99 4.7
-1 -7 7 98.19 4.3
0 7 -7 315.37 13.4
0 7 -7 300.37 11.9
0 -7 7 301.77 12
0 -7 7 298.97 12.1
0 -7 7 306.37 12.4
0 -7 7 296.47 12
-1 7 -7 110.69 5.1
1 -7 7 109.79 4.6
1 -7 7 112.79 5.2
1 -7 7 110.49 5
1 -7 7 111.49 5.2
-2 7 -7 34.2 2.4
2 -7 7 36.9 2.6
2 -7 7 38.1 2.1
2 -7 7 36.2 2.5
2 -7 7 39.9 2.5
-3 7 -7 176.28 7.4
3 -7 7 166.58 7.4
3 -7 7 169.18 7
3 -7 7 169.48 7.4
3 -7 7 168.28 7.4
-4 7 -7 3.6 1.1
-4 7 -7 3.3 1
4 -7 7 4.2 1.4
4 -7 7 3 1.1
4 -7 7 2 1.1
4 -7 7 0.1 1.7
6 6 -7 68.09 6.7
6 6 -7 70.79 4.3
-6 -6 7 70.29 3.5
-6 -6 7 71.59 4.2
-6 -6 7 67.99 3.7
5 6 -7 99.79 7.2
-5 -6 7 99.69 4.2
-5 -6 7 99.89 4.3
-5 -6 7 103.49 4.9
-5 -6 7 99.19 5.2
4 6 -7 45.7 2.4
4 6 -7 51.59 2.5
4 6 -7 44.9 5.4
-4 -6 7 49.5 3.4
-4 -6 7 46.1 2.9
-4 -6 7 48.2 2.3
-4 -6 7 49.1 2.3
3 6 -7 80.79 3.6
3 6 -7 83.39 5.7
3 6 -7 78.19 3.5
-3 -6 7 80.39 4.1
-3 -6 7 80.19 3.5
-3 -6 7 82.09 3.4
-3 -6 7 80.99 3.6
-3 -6 7 78.29 3.8
2 6 -7 9 0.8
2 6 -7 11.5 2.3
2 6 -7 8.3 1
-2 -6 7 6.8 1
-2 -6 7 8.4 0.9
-2 -6 7 8.8 1.2
-2 -6 7 7.9 0.9
-2 -6 7 7.4 1.1
1 6 -7 63.29 4.2
1 6 -7 66.19 3.1
-1 -6 7 63.59 3.1
-1 -6 7 64.09 2.8
-1 -6 7 65.29 3.2
-1 -6 7 62.09 3
0 6 -7 108.69 4.8
0 -6 7 109.09 4.8
0 -6 7 108.59 4.7
0 -6 7 105.49 4.4
0 -6 7 105.09 4.8
0 -6 7 111.29 5.2
-1 6 -7 5.9 1.7
-2 6 -7 112.69 5.1
2 -6 7 102.39 5
2 -6 7 106.79 5.1
2 -6 7 111.29 5
2 -6 7 108.09 5.2
-3 6 -7 0.9 0.7
-3 6 -7 2 0.8
3 -6 7 0.4 0.8
3 -6 7 0.7 0.9
3 -6 7 0.8 0.8
3 -6 7 -1.2 1.5
-4 6 -7 40 2.8
-4 6 -7 40.8 2.9
4 -6 7 42.9 2.9
4 -6 7 45.7 2.9
4 -6 7 42.3 3
7 5 -7 58.59 3.3
7 5 -7 60.59 3.3
7 5 -7 61.49 6.5
-7 -5 7 55.19 3.4
-7 -5 7 55.39 3.3
-7 -5 7 61.19 3.9
6 5 -7 148.39 9.4
6 5 -7 140.99 6.3
6 5 -7 144.59 5.9
-6 -5 7 150.08 6.2
-6 -5 7 141.09 6.4
-6 -5 7 147.79 6.9
5 5 -7 142.19 5.9
5 5 -7 146.89 9
-5 -5 7 140.79 6.6
-5 -5 7 126.69 6
-5 -5 7 145.89 6.5
-5 -5 7 134.09 5.5
4 5 -7 246.48 9.7
4 5 -7 243.78 9.7
4 5 -7 246.18 12
-4 -5 7 257.27 9.6
-4 -5 7 253.37 9.9
-4 -5 7 252.67 10.3
-4 -5 7 257.67 9.7
3 5 -7 8.9 0.8
3 5 -7 9.5 1
3 5 -7 9.9 2.1
-3 -5 7 10.5 0.8
-3 -5 7 10.7 1
-3 -5 7 10 1
-3 -5 7 9.5 1.2
2 5 -7 332.37 12.8
2 5 -7 332.57 12.5
2 5 -7 334.97 14.3
-2 -5 7 332.67 12.7
-2 -5 7 325.77 12.9
-2 -5 7 342.57 13.3
-2 -5 7 346.47 12.6
1 5 -7 151.18 6.1
1 5 -7 142.99 7.1
-1 -5 7 140.69 5.6
-1 -5 7 137.89 5.9
-1 -5 7 140.69 5.7
-1 -5 7 133.09 5.8
-1 -5 7 142.99 6.3
0 5 -7 0.7 0.4
0 -5 7 0.2 0.4
0 -5 7 0 0.4
0 -5 7 0.5 0.4
0 -5 7 0.9 0.7
-1 5 -7 145.09 6.2
1 -5 7 151.98 6.3
1 -5 7 149.69 6
1 -5 7 145.39 6.2
-2 5 -7 3 1.2
2 -5 7 -1.2 1.8
2 -5 7 3.1 0.7
2 -5 7 2.9 1
2 -5 7 4.4 1.1
-3 5 -7 156.28 7.7
-3 5 -7 151.58 6.8
3 -5 7 155.38 6.8
3 -5 7 155.08 6.6
3 -5 7 153.88 6.8
-4 5 -7 99.49 4.9
-4 5 -7 106.19 5
4 -5 7 104.29 5.1
4 -5 7 100.69 5
4 -5 7 97.89 4.9
-5 5 -7 -1.1 1.2
-5 5 -7 -0.4 0.8
5 -5 7 0.8 1
5 -5 7 0.8 1
5 -5 7 0.7 1.1
5 -5 7 -2.2 1.8
8 4 -7 54.89 3
-8 -4 7 47.2 3
-8 -4 7 50.99 3.2
-8 -4 7 46.8 3.6
7 4 -7 10.2 1.6
7 4 -7 8.4 1.4
7 4 -7 14.6 4
-7 -4 7 11.9 1.9
-7 -4 7 9.4 1.5
-7 -4 7 7.8 1.2
6 4 -7 27 1.7
6 4 -7 27.3 4.6
-6 -4 7 32.3 2
-6 -4 7 27.1 2.6
5 4 -7 162.08 12.1
5 4 -7 165.58 6.8
5 4 -7 170.68 6.6
5 4 -7 180.18 6.6
-5 -4 7 169.48 6.5
-5 -4 7 177.58 6.8
-5 -4 7 169.28 6.9
-5 -4 7 148.99 7.6
4 4 -7 8.9 0.9
4 4 -7 7 0.7
4 4 -7 6.9 2
4 4 -7 6.8 0.8
-4 -4 7 6.8 0.7
-4 -4 7 7.6 1
-4 -4 7 7.2 1.2
-4 -4 7 6.5 0.8
-4 -4 7 7.1 0.9
3 4 -7 175.18 6.7
3 4 -7 174.18 8.7
3 4 -7 174.18 6.9
-3 -4 7 173.98 6.9
-3 -4 7 174.78 6.7
-3 -4 7 171.18 7.3
-3 -4 7 161.68 6.5
-3 -4 7 177.58 6.8
2 4 -7 200.98 7.7
2 4 -7 187.68 7.3
-2 -4 7 189.08 7.5
-2 -4 7 193.18 8
-2 -4 7 197.58 7.6
-2 -4 7 193.68 7.7
1 4 -7 111.49 4.7
-1 -4 7 111.99 4.7
-1 -4 7 105.89 4.6
-1 -4 7 115.39 4.6
-1 -4 7 106.29 5
0 4 -7 84.49 3.9
0 -4 7 87.49 3.8
0 -4 7 87.89 3.8
0 -4 7 90.19 4.3
0 -4 7 88.89 4
-1 4 -7 -0.4 0.4
-1 4 -7 -1.4 1.3
1 -4 7 1.2 0.5
1 -4 7 1.2 0.5
1 -4 7 1 0.5
1 -4 7 0.2 1
-2 4 -7 156.78 6.7
-2 4 -7 164.08 6.7
2 -4 7 155.38 6.7
2 -4 7 149.09 6.7
2 -4 7 158.88 6.5
2 -4 7 162.98 6.2
-3 4 -7 185.68 8.1
3 -4 7 197.18 7.6
3 -4 7 196.58 8.2
3 -4 7 191.48 8.2
-4 4 -7 28.3 2.3
-4 4 -7 27.2 2.1
4 -4 7 27.1 2.3
4 -4 7 23.5 2.1
4 -4 7 22.8 1.9
4 -4 7 23.9 2.2
-5 4 -7 121.89 5.8
-5 4 -7 122.09 5.6
5 -4 7 108.09 5.7
5 -4 7 114.49 5.5
5 -4 7 118.49 5.7
8 3 -7 46.7 2.8
8 3 -7 51.79 7.1
8 3 -7 47 3
-8 -3 7 49.8 2.9
-8 -3 7 50.29 3.9
-8 -3 7 51.79 3.1
7 3 -7 54.09 3.1
7 3 -7 53.49 2.8
7 3 -7 47.5 5.9
-7 -3 7 54.29 3.2
-7 -3 7 51.99 3
-7 -3 7 50.69 3.4
6 3 -7 42.7 2.2
6 3 -7 43.1 2.4
6 3 -7 43.2 6.1
-6 -3 7 43.1 3.2
-6 -3 7 47.3 2.5
-6 -3 7 44.3 2.3
5 3 -7 102.39 6.6
5 3 -7 103.09 4.3
5 3 -7 96.89 4.4
5 3 -7 97.39 4
-5 -3 7 96.69 4.8
-5 -3 7 102.19 4.3
-5 -3 7 100.39 4.3
4 3 -7 173.98 6.6
4 3 -7 172.48 6.7
4 3 -7 172.88 6.7
4 3 -7 178.38 9
-4 -3 7 172.78 6.6
-4 -3 7 168.58 6.8
-4 -3 7 161.58 7.2
-4 -3 7 171.78 6.8
3 3 -7 465.55 19.4
3 3 -7 446.86 17.7
3 3 -7 477.45 17.4
-3 -3 7 483.05 17.5
-3 -3 7 483.35 17.7
-3 -3 7 478.25 18.1
-3 -3 7 469.15 17.3
-3 -3 7 475.75 17.6
2 3 -7 0.5 0.4
2 3 -7 0.4 1.2
-2 -3 7 1 0.4
-2 -3 7 1 0.4
-2 -3 7 1.3 0.5
-2 -3 7 1.2 0.3
-2 -3 7 1 0.4
1 3 -7 978.9 36.3
-1 -3 7 1029.5 36.2
-1 -3 7 998.4 36.2
-1 -3 7 965.2 36.2
-1 -3 7 951.5 36.6
-1 -3 7 997.8 35.8
0 3 -7 611.64 23
0 3 -7 662.83 23.1
0 -3 7 595.74 23
0 -3 7 624.64 22.9
0 -3 7 618.54 23
0 -3 7 583.44 23.5
0 -3 7 623.64 22.6
-1 3 -7 66.69 3.1
-1 3 -7 58.59 3.1
1 -3 7 66.29 3.2
1 -3 7 67.79 3.5
1 -3 7 65.69 3.1
1 -3 7 67.49 3.1
-2 3 -7 223.58 9.3
-2 3 -7 229.58 9.3
2 -3 7 228.28 9.4
2 -3 7 235.08 8.9
2 -3 7 226.18 9.3
2 -3 7 237.18 9.2
-3 3 -7 3 1.1
-3 3 -7 2.9 0.9
3 -3 7 2.4 1
3 -3 7 1.6 2
3 -3 7 3.1 0.7
3 -3 7 1.9 1.1
3 -3 7 2.1 1
-4 3 -7 74.59 4
-4 3 -7 80.09 4
4 -3 7 76.59 3.8
4 -3 7 77.89 4.1
4 -3 7 75.79 4.1
-5 3 -7 0.5 0.9
-5 3 -7 1.5 1.1
-5 3 -7 -0.4 0.9
5 -3 7 0.3 1
5 -3 7 -0.6 1.1
5 -3 7 2 1.2
5 -3 7 -1.6 1.6
8 2 -7 54.99 3
8 2 -7 56.39 6.9
8 2 -7 54.69 3.1
-8 -2 7 52.59 3.5
-8 -2 7 50.49 3.1
-8 -2 7 54.19 3.1
7 2 -7 161.38 12.1
7 2 -7 176.48 7.5
7 2 -7 176.18 7.2
-7 -2 7 180.38 7.9
-7 -2 7 178.98 7.1
-7 -2 7 179.38 7.5
6 2 -7 62.89 2.8
6 2 -7 62.29 3
-6 -2 7 50.59 3.9
-6 -2 7 61.59 2.8
-6 -2 7 65.49 3.1
5 2 -7 1.1 0.4
5 2 -7 0.8 0.4
5 2 -7 0.8 0.4
5 2 -7 0.2 1.9
-5 -2 7 0.5 0.7
-5 -2 7 0.3 0.5
-5 -2 7 1 0.4
-5 -2 7 0.5 0.5
4 2 -7 156.88 6
4 2 -7 155.38 6.1
4 2 -7 150.38 6.1
4 2 -7 159.38 8.3
-4 -2 7 160.68 6.1
-4 -2 7 155.18 6.1
-4 -2 7 156.08 5.9
-4 -2 7 149.59 6.2
-4 -2 7 151.38 6.6
3 2 -7 13.2 1.2
3 2 -7 14 1.1
-3 -2 7 13.4 1.2
-3 -2 7 15.7 1
-3 -2 7 15.3 1.3
-3 -2 7 12.5 1
-3 -2 7 13.2 1
2 2 -7 178.28 6.8
2 2 -7 171.78 7
-2 -2 7 178.78 6.7
-2 -2 7 170.08 6.8
-2 -2 7 174.48 7.2
-2 -2 7 176.68 6.9
-2 -2 7 175.48 6.9
1 2 -7 123.09 5.2
1 2 -7 121.39 5.4
-1 -2 7 130.29 5.3
-1 -2 7 131.89 5.3
-1 -2 7 138.39 5.1
-1 -2 7 122.79 5.2
-1 -2 7 137.39 5.7
0 2 -7 45.7 2.3
0 2 -7 45.1 2.4
0 -2 7 45.9 2.3
0 -2 7 46.4 2.1
0 -2 7 47.5 2.3
0 -2 7 45.8 2.4
-1 2 -7 411.16 16.4
-1 2 -7 458.65 16.4
1 -2 7 420.26 16
1 -2 7 442.16 16.3
1 -2 7 423.46 16.4
1 -2 7 418.86 16.3
-2 2 -7 21.1 1.7
-2 2 -7 21.8 1.6
2 -2 7 22.7 1.4
2 -2 7 25.7 1.7
2 -2 7 23 1.7
-3 2 -7 155.38 7
3 -2 7 171.88 7.2
3 -2 7 163.68 7.3
3 -2 7 168.08 6.7
-4 2 -7 85.19 4.4
-4 2 -7 85.79 4.3
-4 2 -7 85.89 4.3
4 -2 7 77.69 4.3
4 -2 7 88.29 4.4
4 -2 7 91.19 4.4
-5 2 -7 0.6 0.9
-5 2 -7 1.1 1
-5 2 -7 0.1 0.8
5 -2 7 1.8 1.1
5 -2 7 1.1 1.1
5 -2 7 1.5 1.2
8 1 -7 114.89 9.4
8 1 -7 108.29 4.9
8 1 -7 110.99 5.1
-8 -1 7 106.79 5.5
-8 -1 7 105.49 5.1
-8 -1 7 105.89 4.7
7 1 -7 59.09 3.4
7 1 -7 68.79 6.9
7 1 -7 60.89 3.4
-7 -1 7 64.79 3.8
-7 -1 7 61.89 3.4
-7 -1 7 60.49 2.9
6 1 -7 82.09 3.6
6 1 -7 72.49 6.3
6 1 -7 86.29 3.7
-6 -1 7 79.19 4.1
-6 -1 7 85.29 3.5
-6 -1 7 77.29 3.7
-6 -1 7 82.59 3.5
5 1 -7 403.06 17.3
5 1 -7 370.46 14.3
5 1 -7 381.06 14.2
5 1 -7 378.86 14.3
-5 -1 7 381.76 14.2
-5 -1 7 378.86 14.3
-5 -1 7 386.16 14.8
-5 -1 7 366.16 14.5
4 1 -7 75.79 3.2
4 1 -7 72.69 3
4 1 -7 73.09 3.2
4 1 -7 79.39 5.4
-4 -1 7 81.29 3.2
-4 -1 7 78.39 3.4
-4 -1 7 74.39 3.6
-4 -1 7 75.09 3.2
3 1 -7 308.27 11
3 1 -7 281.87 11.1
-3 -1 7 286.77 11.1
-3 -1 7 289.07 10.9
-3 -1 7 288.17 11.4
-3 -1 7 289.87 10.9
-3 -1 7 294.77 11.1
2 1 -7 174.38 6.5
2 1 -7 178.28 6.9
2 1 -7 160.78 6.7
-2 -1 7 176.88 6.8
-2 -1 7 164.68 7
-2 -1 7 171.68 6.7
-2 -1 7 171.28 6.6
-2 -1 7 181.08 6.9
1 1 -7 59.89 2.8
1 1 -7 55.69 2.8
-1 -1 7 59.99 2.7
-1 -1 7 61.39 2.6
-1 -1 7 62.89 3.1
-1 -1 7 61.09 2.8
-1 -1 7 60.89 2.8
0 1 -7 140.29 6
0 1 -7 146.29 6.1
0 -1 7 149.39 5.8
0 -1 7 147.99 6
0 -1 7 151.28 6.1
-1 1 -7 40.6 2.3
-1 1 -7 40.3 2.2
1 -1 7 41.7 2.2
1 -1 7 39.4 2.1
1 -1 7 44.2 2.3
-2 1 -7 43.2 2.4
-2 1 -7 40.8 2.4
2 -1 7 43.3 2.2
2 -1 7 41.7 2.5
2 -1 7 38.7 2.3
-3 1 -7 54.89 3.2
-3 1 -7 55.39 3.1
-3 1 -7 60.99 3.7
3 -1 7 51.29 3.2
3 -1 7 55.09 2.9
3 -1 7 56.69 3.3
-4 1 -7 -0.2 0.8
-4 1 -7 0.2 0.7
-4 1 -7 0.9 0.9
4 -1 7 -1.7 1.6
4 -1 7 0.4 0.8
4 -1 7 0.2 1
4 -1 7 0 0.9
-5 1 -7 46.3 2.9
5 -1 7 44.1 3.2
9 0 -7 37.1 2.8
9 0 -7 39.9 2.8
-9 0 7 38 3.4
-9 0 7 41.7 2.9
8 0 -7 77.09 4
8 0 -7 77.79 3.9
8 0 -7 80.19 8.6
-8 0 7 79.19 4.4
-8 0 7 82.49 4.1
7 0 -7 28.9 2.3
7 0 -7 26 6
7 0 -7 25.7 2.3
-7 0 7 26.8 2.5
-7 0 7 29.7 1.6
-7 0 7 28.7 2.2
6 0 -7 163.48 6.4
6 0 -7 167.88 6.7
6 0 -7 168.98 6.8
6 0 -7 160.68 10.2
-6 0 7 171.68 6.7
-6 0 7 165.48 6.9
-6 0 7 164.58 6.4
-6 0 7 160.08 7
5 0 -7 1.8 0.4
5 0 -7 0.6 0.4
5 0 -7 0.2 2.4
5 0 -7 1.6 0.4
-5 0 7 1.9 0.5
-5 0 7 1.2 0.5
-5 0 7 0.5 0.6
-5 0 7 2.3 0.5
4 0 -7 200.48 7.7
4 0 -7 200.78 7.7
4 0 -7 207.68 10.5
-4 0 7 207.78 7.6
-4 0 7 196.38 7.9
-4 0 7 193.68 8
-4 0 7 189.38 7.7
3 0 -7 196.08 7.8
3 0 -7 199.18 7.6
3 0 -7 207.18 7.6
-3 0 7 188.48 7.7
-3 0 7 202.88 8
-3 0 7 202.98 7.9
-3 0 7 200.48 7.6
2 0 -7 0.5 0.4
2 0 -7 0.8 0.3
2 0 -7 -0.2 0.3
-2 0 7 0.6 0.4
-2 0 7 0.4 0.3
-2 0 7 -0.1 0.4
-2 0 7 0.4 0.4
-2 0 7 0.3 0.5
1 0 -7 476.85 18
1 0 -7 487.95 18.2
-1 0 7 477.35 17.9
-1 0 7 468.05 17.6
-1 0 7 509.95 18.4
-1 0 7 461.85 17.9
-1 0 7 492.85 18.1
0 0 -7 1.7 0.5
0 0 -7 1.3 2.1
0 0 -7 3 0.6
0 0 7 2.4 0.5
0 0 7 1.4 0.5
0 0 7 0.8 0.7
0 0 7 2 0.5
-1 0 -7 37.4 2.1
-1 0 -7 37.2 2
1 0 7 31.8 1.9
1 0 7 31.4 1.9
1 0 7 33.9 2
-2 0 -7 79.69 3.8
-2 0 -7 80.49 3.8
-2 0 -7 86.19 4.9
2 0 7 75.09 3.7
2 0 7 75.99 3.6
-3 0 -7 1.3 0.7
-3 0 -7 0.9 1.1
-3 0 -7 1.1 0.8
3 0 7 1.7 1.2
3 0 7 -0.2 1
3 0 7 -1 1.9
3 0 7 0.8 0.9
-4 0 -7 149.39 6.6
-4 0 -7 144.59 6.6
-4 0 -7 141.29 6.4
4 0 7 150.48 6.5
4 0 7 146.69 6.6
4 0 7 140.49 6.6
9 -1 -7 11 1.8
9 -1 -7 7.7 1.3
-9 1 7 8.2 1.7
-9 1 7 7.7 1.4
-9 1 7 6.2 1.3
8 -1 -7 1.9 0.8
8 -1 -7 3.5 6.7
8 -1 -7 1.3 0.8
-8 1 7 1.7 1
-8 1 7 2.1 1.2
-8 1 7 0.2 0.8
7 -1 -7 140.79 6.2
7 -1 -7 137.49 6
-7 1 7 144.99 6.5
-7 1 7 141.49 6.1
-7 1 7 139.09 6.2
6 -1 -7 0.8 0.5
6 -1 -7 1.5 0.5
6 -1 -7 1.6 0.4
6 -1 -7 1.4 3.3
-6 1 7 1.2 0.6
-6 1 7 1.3 0.7
-6 1 7 1.6 0.7
5 -1 -7 0.8 0.4
5 -1 -7 0.8 0.4
5 -1 -7 0.8 2.9
-5 1 7 1.6 0.5
-5 1 7 1.4 0.6
-5 1 7 2.3 0.6
4 -1 -7 189.68 7.3
4 -1 -7 178.78 7.3
4 -1 -7 183.78 7
-4 1 7 199.48 7.4
-4 1 7 183.58 7
-4 1 7 194.68 7.5
-4 1 7 182.58 7.5
3 -1 -7 1.6 0.5
3 -1 -7 1.3 0.4
-3 1 7 2.1 0.5
-3 1 7 1.6 0.5
-3 1 7 1.7 0.4
-3 1 7 1.3 0.4
2 -1 -7 218.88 8.8
2 -1 -7 213.08 8.5
-2 1 7 222.88 8.4
-2 1 7 221.18 8.4
-2 1 7 226.88 8.7
-2 1 7 222.18 8.9
-2 1 7 232.78 8.6
1 -1 -7 9.4 0.9
1 -1 -7 10.1 1
-1 1 7 12.5 1.3
-1 1 7 10.1 1
-1 1 7 13 0.9
-1 1 7 9.4 1
0 -1 -7 33.4 1.8
0 -1 -7 31.5 1.9
0 -1 -7 31.9 1.8
0 1 7 29.2 1.7
0 1 7 33.1 2.1
0 1 7 29.6 1.8
0 1 7 29.9 1.7
-1 -1 -7 233.28 9.2
-1 -1 -7 220.68 9.3
-1 -1 -7 247.98 9.4
1 1 7 231.38 8.8
1 1 7 239.68 9.3
1 1 7 226.48 9.3
1 1 7 228.88 9.1
-2 -1 -7 1.5 0.9
-2 -1 -7 3.1 0.7
-2 -1 -7 2.5 1
2 1 7 2.3 0.8
2 1 7 4.1 1.2
2 1 7 1.9 0.7
2 1 7 2.1 1.2
2 1 7 3 0.6
-3 -1 -7 172.58 7.2
-3 -1 -7 164.68 7.1
-3 -1 -7 182.38 7.2
3 1 7 161.18 7.1
3 1 7 158.08 7.2
3 1 7 151.68 7.1
3 1 7 158.18 7.7
-4 -1 -7 73.59 4
-4 -1 -7 75.99 3.9
-4 -1 -7 70.69 3.9
4 1 7 73.29 4.1
4 1 7 75.89 4
9 -2 -7 0.2 1
9 -2 -7 -0.2 0.9
-9 2 7 0.4 1.2
-9 2 7 -0.2 1
8 -2 -7 40.1 2.6
8 -2 -7 49.4 8.4
8 -2 -7 43.3 2.6
-8 2 7 41.4 2.9
-8 2 7 37.9 2.7
-8 2 7 40.5 2.8
7 -2 -7 51.29 7.9
7 -2 -7 55.49 3
7 -2 -7 56.59 3.1
-7 2 7 55.09 3
-7 2 7 52.09 3.1
-7 2 7 58.89 3.2
6 -2 -7 17.2 6.7
6 -2 -7 11.6 1.1
6 -2 -7 13.4 1.3
6 -2 -7 16.6 1.4
-6 2 7 16.1 1.5
-6 2 7 12.4 2
-6 2 7 13.9 1.3
5 -2 -7 181.58 11.6
5 -2 -7 189.48 7.5
5 -2 -7 192.58 7.4
-5 2 7 184.18 7.6
-5 2 7 187.48 7.5
-5 2 7 188.58 7.6
4 -2 -7 79.39 3.4
4 -2 -7 76.49 3.4
4 -2 -7 78.49 3.1
-4 2 7 75.79 3.5
-4 2 7 80.69 3.5
-4 2 7 76.09 3.4
3 -2 -7 373.56 13.9
3 -2 -7 385.66 14.3
3 -2 -7 376.56 14
-3 2 7 375.46 13.9
-3 2 7 378.96 14.2
-3 2 7 367.76 14.1
-3 2 7 361.86 14.2
2 -2 -7 165.08 7.1
2 -2 -7 163.28 6.5
2 -2 -7 160.28 6.4
-2 2 7 157.18 6.4
-2 2 7 160.68 6.8
-2 2 7 163.18 6.4
-2 2 7 174.28 6.8
-2 2 7 180.68 6.7
1 -2 -7 12 1.2
1 -2 -7 10.9 1
1 -2 -7 13.3 1
-1 2 7 9.2 1.2
-1 2 7 9.7 1.1
-1 2 7 11.9 0.9
-1 2 7 11 1
-1 2 7 9.8 1
0 -2 -7 212.38 8.8
0 -2 -7 211.38 8.5
0 -2 -7 214.78 8.6
0 2 7 233.28 8.8
0 2 7 217.88 8.7
0 2 7 213.38 8.2
0 2 7 214.88 8.5
0 2 7 208.58 8.5
-1 -2 -7 17.5 1.7
-1 -2 -7 14.8 1.6
-1 -2 -7 14.9 1.3
1 2 7 17.6 1.3
1 2 7 15 1.2
1 2 7 15.2 1.6
1 2 7 17.4 1.5
1 2 7 16.6 1.7
-2 -2 -7 48.5 3
-2 -2 -7 48.4 3.3
-2 -2 -7 46.9 2.8
2 2 7 45.4 2.9
2 2 7 45.2 2.3
2 2 7 45.4 2.9
2 2 7 42.3 2.9
-3 -2 -7 -0.3 0.9
-3 -2 -7 1.6 0.9
-3 -2 -7 0.1 0.8
3 2 7 -0.1 1.1
3 2 7 0.7 1
3 2 7 0.7 1
3 2 7 0.7 1.5
8 -3 -7 2.5 0.9
8 -3 -7 -6.2 5.6
8 -3 -7 0.4 0.8
-8 3 7 1.6 1
-8 3 7 1.8 1.2
-8 3 7 -0.3 0.8
7 -3 -7 -6.9 5.9
7 -3 -7 2.6 0.9
7 -3 -7 1.9 0.6
7 -3 -7 2.7 0.9
-7 3 7 3 1
-7 3 7 3.3 1.1
-7 3 7 1.7 0.9
6 -3 -7 76.49 3.5
-6 3 7 81.39 3.9
-6 3 7 76.49 3.7
-6 3 7 81.19 3.9
5 -3 -7 27.2 1.6
5 -3 -7 19.4 5.3
5 -3 -7 27.5 1.6
-5 3 7 26.3 1.7
-5 3 7 28.8 1.8
4 -3 -7 35.9 2
4 -3 -7 36.1 1.9
-4 3 7 34.9 2
-4 3 7 35.2 2
-4 3 7 37.2 1.9
-4 3 7 34.5 1.9
3 -3 -7 1.7 0.5
3 -3 -7 0.8 0.4
3 -3 -7 0.5 0.4
-3 3 7 0.4 0.5
-3 3 7 2 0.6
-3 3 7 0.7 0.5
2 -3 -7 32 1.6
2 -3 -7 27.5 1.8
-2 3 7 30.6 2
-2 3 7 28.8 1.7
-2 3 7 30.5 1.8
-2 3 7 27.1 1.7
1 -3 -7 531.75 19.9
1 -3 -7 517.75 20.2
-1 3 7 536.25 19.7
-1 3 7 543.85 20
-1 3 7 508.15 19.9
-1 3 7 547.15 19.9
0 -3 -7 216.48 8.6
0 -3 -7 189.58 9.1
0 -3 -7 204.08 8.4
0 3 7 219.28 8.6
0 3 7 220.38 8.6
0 3 7 215.48 8.6
0 3 7 213.28 8.2
-1 -3 -7 127.69 6.2
-1 -3 -7 111.89 5.4
-1 -3 -7 120.69 5.3
1 3 7 113.19 4.9
1 3 7 117.49 5.4
1 3 7 121.59 5.5
1 3 7 120.99 5.5
-2 -3 -7 19.2 1.8
-2 -3 -7 19.2 2.1
-2 -3 -7 17.5 2.3
2 3 7 15.3 1.5
2 3 7 17.7 2.1
2 3 7 21.2 2.1
2 3 7 19.3 1.9
-3 -3 -7 2.8 1.1
-3 -3 -7 3.1 1.1
-3 -3 -7 4.1 1.1
3 3 7 3.4 1.1
3 3 7 3.7 1.7
3 3 7 4 1.3
8 -4 -7 71.19 3.9
8 -4 -7 75.49 3.9
-8 4 7 73.79 4
-8 4 7 75.59 3.9
-8 4 7 79.09 4
7 -4 -7 336.37 12.8
7 -4 -7 329.07 13.1
-7 4 7 343.77 13.1
-7 4 7 327.47 13.1
-7 4 7 329.97 13
6 -4 -7 74.29 3.6
6 -4 -7 74.19 3.8
-6 4 7 75.19 3.5
-6 4 7 76.29 3.8
-6 4 7 79.99 3.8
5 -4 -7 60.39 2.9
5 -4 -7 55.89 2.9
-5 4 7 57.29 2.9
-5 4 7 57.49 3.2
-5 4 7 53.49 2.7
4 -4 -7 23.8 1.5
4 -4 -7 21.1 1.6
4 -4 -7 20.6 1.2
-4 4 7 20 1.5
-4 4 7 17.7 1.8
-4 4 7 19.3 1.5
3 -4 -7 8.1 0.8
3 -4 -7 9.5 1.2
3 -4 -7 3.1 3.4
-3 4 7 7.1 1
-3 4 7 9 1
-3 4 7 8 1.1
2 -4 -7 60.99 3.3
2 -4 -7 59.79 2.8
-2 4 7 59.09 2.8
-2 4 7 58.99 2.9
-2 4 7 58.59 3
1 -4 -7 42.4 2.1
1 -4 -7 45.1 2.9
1 -4 -7 42.3 2.3
-1 4 7 40.8 2.7
-1 4 7 43.1 2.2
-1 4 7 40.2 2.3
0 -4 -7 1.8 0.6
0 -4 -7 1.5 1
0 -4 -7 -0.1 0.9
0 4 7 0.3 0.9
0 4 7 0.3 0.6
0 4 7 0.4 1
-1 -4 -7 23 2
-1 -4 -7 24.2 2.1
-1 -4 -7 22.2 1.9
1 4 7 24.1 1.9
1 4 7 20.3 2
1 4 7 21.6 2.1
-2 -4 -7 1.3 1.2
-2 -4 -7 -0.2 0.8
-2 -4 -7 0.2 1
2 4 7 -0.6 1.3
2 4 7 0.8 0.9
2 4 7 -1.3 0.9
8 -5 -7 5.3 1.2
-8 5 7 5.3 1.3
-8 5 7 6.1 1.2
7 -5 -7 1.7 0.9
7 -5 -7 -6 7
7 -5 -7 1.1 1.3
-7 5 7 2.9 1
-7 5 7 2.8 0.9
6 -5 -7 25.6 2.4
6 -5 -7 22.8 2.2
-6 5 7 24.2 2
-6 5 7 23.8 2
5 -5 -7 92.49 4.6
5 -5 -7 100.09 4.8
-5 5 7 105.09 4.7
-5 5 7 108.49 4.9
-5 5 7 98.89 4.7
4 -5 -7 20.7 1.3
4 -5 -7 18.2 2.6
-4 5 7 18.8 1.6
-4 5 7 20.1 2
-4 5 7 19.3 2.8
3 -5 -7 165.98 6.9
3 -5 -7 168.48 7.3
-3 5 7 184.18 7
-3 5 7 160.48 7.1
-3 5 7 166.38 6.9
2 -5 -7 12 1.2
2 -5 -7 13.3 1.9
-2 5 7 9.5 1.6
-2 5 7 9.5 1.3
-2 5 7 9 1.3
1 -5 -7 4.1 1.2
1 -5 -7 5.5 1.2
1 -5 -7 -1.6 4.6
-1 5 7 4.2 1.1
-1 5 7 7.4 2.1
-1 5 7 4.8 1
-1 5 7 4.8 1.1
0 -5 -7 49.99 3
0 -5 -7 47.1 3.1
0 -5 -7 51.39 2.6
0 5 7 50.39 3
0 5 7 54.79 3.2
0 5 7 45.2 3
-1 -5 -7 4.4 1.5
-1 -5 -7 3.5 1
-1 -5 -7 2.1 1.1
1 5 7 5.2 1.1
1 5 7 5 1.1
1 5 7 3.4 1.3
7 -6 -7 -1.2 8
7 -6 -7 -0.8 1.1
7 -6 -7 -0.5 0.9
-7 6 7 0.9 1.1
-7 6 7 -1.9 1.1
6 -6 -7 27.1 2.1
6 -6 -7 28.4 2.3
-6 6 7 29.6 2.6
-6 6 7 27.4 2.3
-6 6 7 26.7 2.1
5 -6 -7 0.6 0.8
5 -6 -7 3.9 6.1
5 -6 -7 2.6 1
-5 6 7 2.5 1
-5 6 7 1.3 1
-5 6 7 0 0.9
4 -6 -7 27.6 2.2
4 -6 -7 27.5 1.7
-4 6 7 34.6 2.3
-4 6 7 32.1 2.3
-4 6 7 27.7 2.4
3 -6 -7 19.3 1.6
3 -6 -7 20.1 2
-3 6 7 17.6 1.9
-3 6 7 24.1 2.1
-3 6 7 13.4 2.3
2 -6 -7 10.4 1.5
2 -6 -7 14.4 1.7
-2 6 7 12.7 2.1
-2 6 7 11.7 1.9
-2 6 7 14.6 3.7
-2 6 7 8 1.3
1 -6 -7 45.8 2.8
1 -6 -7 47 3.2
-1 6 7 46.8 2.9
-1 6 7 48.8 4.2
-1 6 7 43.7 2.8
-1 6 7 43.8 2.9
0 -6 -7 1.9 1.1
0 -6 -7 -0.4 0.8
0 6 7 0.4 1
0 6 7 0 0.9
0 6 7 0 1.1
6 -7 -7 2.9 1
6 -7 -7 3.3 1.2
-6 7 7 3.5 1
-6 7 7 3.5 1.3
-6 7 7 3.7 1.3
5 -7 -7 22.1 2.3
-5 7 7 24.5 2.3
-5 7 7 23.1 2.1
-5 7 7 23.4 2.3
4 -7 -7 36.9 3.6
4 -7 -7 32.2 2.4
-4 7 7 34.6 2.5
-4 7 7 36.3 2.7
-4 7 7 30.7 2.4
3 -7 -7 6.5 6.1
3 -7 -7 15.7 1.9
3 -7 -7 15.6 2.1
-3 7 7 15.8 2
-3 7 7 16.4 2.1
-3 7 7 14.1 1.9
2 -7 -7 36.1 2.9
2 -7 -7 37.2 2.5
-2 7 7 43.3 4.8
-2 7 7 35.8 2.8
-2 7 7 31.9 2.7
-2 7 7 32.9 3.1
1 -7 -7 10.6 1.6
1 -7 -7 11.2 1.8
-1 7 7 10 1.3
-1 7 7 9.6 3.2
-1 7 7 13.3 2.2
-1 7 7 10.5 1.7
3 9 -8 46.4 3
-3 -9 8 35.9 2.8
-3 -9 8 39.9 2.6
-3 -9 8 45.4 2.8
-3 -9 8 44.4 3.4
2 9 -8 3.3 1.2
2 9 -8 -0.3 2.8
-2 -9 8 1.7 1
-2 -9 8 2.1 1.1
-2 -9 8 2.2 1.6
-2 -9 8 1.7 0.8
1 9 -8 112.69 7.4
1 9 -8 108.89 5
-1 -9 8 107.39 5.1
-1 -9 8 105.49 5.1
-1 -9 8 103.29 4.9
-1 -9 8 93.19 5.5
0 9 -8 12.7 3.6
0 9 -8 17.6 2
0 -9 8 16.6 1.7
0 -9 8 16.3 1.9
0 -9 8 16.7 1.9
-1 9 -8 5.5 1.2
-1 9 -8 5.1 2.5
1 -9 8 7.6 1.3
1 -9 8 4.9 1.2
1 -9 8 4.8 1.2
1 -9 8 1.4 2.3
4 8 -8 57.79 4.1
4 8 -8 67.39 6.3
4 8 -8 59.29 3.3
-4 -8 8 59.49 3.1
-4 -8 8 65.39 4
3 8 -8 13.8 3.4
3 8 -8 10.9 1.7
-3 -8 8 9.7 1.4
-3 -8 8 12.7 2.2
-3 -8 8 11 1.6
-3 -8 8 12.6 1.8
2 8 -8 92.89 4.4
2 8 -8 86.19 6.4
-2 -8 8 82.69 4.3
-2 -8 8 91.69 4.2
-2 -8 8 88.09 4.8
-2 -8 8 82.49 4.3
1 8 -8 56.79 3.2
1 8 -8 54.29 4.8
-1 -8 8 48 3.7
-1 -8 8 53.49 3
-1 -8 8 56.79 3.2
-1 -8 8 56.29 3.2
0 8 -8 97.39 6.6
0 8 -8 97.09 4.7
0 -8 8 97.39 4.8
0 -8 8 97.09 4.6
0 -8 8 93.69 4.7
-1 8 -8 134.19 5.9
-1 8 -8 115.29 8.3
1 -8 8 128.49 6
1 -8 8 132.59 5.9
1 -8 8 133.39 6
-2 8 -8 0.6 1
2 -8 8 2.7 1
2 -8 8 -0.8 1.8
2 -8 8 0.7 1
2 -8 8 0.8 0.9
5 7 -8 27.2 4.7
5 7 -8 21.3 2
-5 -7 8 19.6 2
-5 -7 8 20.6 2.4
4 7 -8 10.7 1.6
4 7 -8 11.2 3.3
4 7 -8 9.8 1.3
-4 -7 8 10.2 1.5
-4 -7 8 10.4 1.5
-4 -7 8 11.6 2.2
3 7 -8 189.58 10.4
3 7 -8 181.18 7.5
3 7 -8 193.78 7.8
-3 -7 8 183.08 8.2
-3 -7 8 189.58 8.3
-3 -7 8 187.18 7.7
-3 -7 8 183.98 7.9
2 7 -8 14.2 2.5
2 7 -8 19.2 4.4
-2 -7 8 15.6 1.7
-2 -7 8 14.5 2.3
-2 -7 8 19.2 2.5
-2 -7 8 18.9 1.9
1 7 -8 9.2 1.4
1 7 -8 16 4
-1 -7 8 10 2.2
-1 -7 8 12 1.8
-1 -7 8 12.5 1.7
-1 -7 8 12.6 1.6
0 7 -8 159.68 6.8
0 -7 8 154.88 6.8
0 -7 8 152.18 6.3
0 -7 8 157.18 6.7
0 -7 8 158.08 6.9
-1 7 -8 41 2.7
1 -7 8 41 2.7
1 -7 8 38.8 2.3
1 -7 8 40.7 2.6
1 -7 8 40.5 2.8
-2 7 -8 175.78 7.7
2 -7 8 181.28 7.7
2 -7 8 177.28 7.7
2 -7 8 176.98 7.3
-3 7 -8 20.1 2.3
-3 7 -8 19.7 2.1
3 -7 8 20.6 2.5
3 -7 8 24.8 2.3
3 -7 8 20 2.2
6 6 -8 120.99 5.6
6 6 -8 134.89 9.1
-6 -6 8 118.49 5.7
-6 -6 8 126.39 6.3
5 6 -8 16.4 1.6
5 6 -8 15.5 3.7
-5 -6 8 14.5 1.3
-5 -6 8 14.8 2
-5 -6 8 14.6 1.5
4 6 -8 361.66 16.4
4 6 -8 338.77 13.7
4 6 -8 359.96 13.7
-4 -6 8 344.17 13.3
-4 -6 8 346.77 13.7
-4 -6 8 354.26 14.2
-4 -6 8 350.36 13.3
3 6 -8 221.28 8.9
3 6 -8 236.38 11.9
3 6 -8 208.58 8.5
-3 -6 8 219.48 8.7
-3 -6 8 228.58 9.6
-3 -6 8 217.68 9.1
-3 -6 8 226.58 8.7
2 6 -8 63.69 3.1
2 6 -8 61.09 4.6
-2 -6 8 61.09 2.9
-2 -6 8 60.79 2.8
-2 -6 8 60.69 3.4
1 6 -8 191.28 8
-1 -6 8 188.58 7.8
-1 -6 8 181.78 7.5
-1 -6 8 181.68 7.3
0 6 -8 0.7 1.7
0 6 -8 1.2 1
0 -6 8 1 0.6
0 -6 8 1.2 1
0 -6 8 4.7 1.9
0 -6 8 1.1 0.9
-1 6 -8 244.28 10.3
1 -6 8 253.57 10.3
1 -6 8 257.57 10
1 -6 8 262.57 10.3
-2 6 -8 66.59 3.6
2 -6 8 65.19 3.6
2 -6 8 64.59 3.5
2 -6 8 61.89 3.3
-3 6 -8 38.9 2.7
-3 6 -8 37.6 2.6
3 -6 8 34.4 2.6
3 -6 8 37.3 2.8
3 -6 8 32.9 2.6
7 5 -8 85.39 4.3
7 5 -8 85.49 7.9
-7 -5 8 86.19 5
-7 -5 8 89.69 4.4
-7 -5 8 86.89 4.4
6 5 -8 -0.7 2.8
6 5 -8 0.6 0.9
-6 -5 8 -0.3 0.8
-6 -5 8 1.3 1.2
5 5 -8 31.3 2.2
5 5 -8 39.7 2.1
5 5 -8 43.9 4.9
-5 -5 8 28.8 2.4
-5 -5 8 40.7 3
-5 -5 8 40 2.6
-5 -5 8 36.4 2.1
4 5 -8 48.8 2.6
4 5 -8 53.49 5.9
4 5 -8 51.69 2.5
-4 -5 8 52.69 2.4
-4 -5 8 49.4 3.5
-4 -5 8 54.49 2.8
-4 -5 8 53.79 2.6
3 5 -8 18.8 1.2
3 5 -8 21.7 3
3 5 -8 20.7 1.5
-3 -5 8 18.6 1.3
-3 -5 8 19 1.5
-3 -5 8 18 1.2
-3 -5 8 21 2
2 5 -8 192.28 7.7
-2 -5 8 184.08 8.1
-2 -5 8 197.28 7.5
-2 -5 8 190.48 7.5
-2 -5 8 186.18 7.7
1 5 -8 3.2 1.5
1 5 -8 2.4 0.7
-1 -5 8 5.3 1.2
-1 -5 8 4.2 0.7
-1 -5 8 3.6 0.6
-1 -5 8 2.9 0.6
0 5 -8 142.29 6.7
0 -5 8 152.88 6.3
0 -5 8 155.98 6.2
0 -5 8 142.59 7
0 -5 8 157.78 6.4
-1 5 -8 244.48 9.7
1 -5 8 228.78 9.7
1 -5 8 236.38 9.6
1 -5 8 236.38 9.4
-2 5 -8 5.8 1.1
-2 5 -8 4.4 1
2 -5 8 4.6 1
2 -5 8 6.4 1.1
2 -5 8 3.2 1.3
-3 5 -8 253.77 10.5
-3 5 -8 266.27 10.6
3 -5 8 250.37 10.6
3 -5 8 251.87 10.4
3 -5 8 258.77 10.7
-4 5 -8 6.8 1.3
-4 5 -8 10.8 1.9
4 -5 8 12.6 1.9
4 -5 8 12.2 2
4 -5 8 10 1.6
7 4 -8 126.69 5.4
7 4 -8 134.59 9.2
7 4 -8 126.09 6.2
-7 -4 8 120.29 5.6
-7 -4 8 122.99 6.2
-7 -4 8 124.69 5.7
6 4 -8 68.59 3.1
6 4 -8 68.79 6.5
-6 -4 8 64.39 3.1
-6 -4 8 69.39 4
-6 -4 8 72.29 3.6
5 4 -8 107.99 4.5
5 4 -8 107.79 4.3
5 4 -8 105.39 4.4
5 4 -8 108.39 7.9
-5 -4 8 110.19 5.4
-5 -4 8 103.99 4.3
-5 -4 8 100.79 4.6
-5 -4 8 106.19 5
4 4 -8 22.3 1.3
4 4 -8 17.9 3.1
4 4 -8 22.2 1.5
-4 -4 8 20.2 1.3
-4 -4 8 21.8 1.4
-4 -4 8 20.7 1.4
-4 -4 8 18.1 2
-4 -4 8 20.2 1.2
3 4 -8 387.66 15.6
3 4 -8 404.56 17.5
3 4 -8 413.66 15.2
-3 -4 8 425.76 16.1
-3 -4 8 414.96 15.4
-3 -4 8 417.76 15.5
-3 -4 8 415.26 15.6
2 4 -8 15 1.3
-2 -4 8 13 1.4
-2 -4 8 15.7 1.1
-2 -4 8 13.3 1.1
-2 -4 8 14.1 1.1
1 4 -8 63.29 3.3
-1 -4 8 71.89 3.3
-1 -4 8 72.39 3.2
-1 -4 8 68.99 3.7
-1 -4 8 74.59 3.3
0 4 -8 3.3 0.6
0 -4 8 4.4 0.7
0 -4 8 3.2 0.5
0 -4 8 3.5 0.6
-1 4 -8 3.8 0.9
-1 4 -8 3.2 1.2
1 -4 8 4.7 0.9
1 -4 8 2.8 0.8
1 -4 8 3.4 0.7
-2 4 -8 155.78 6.7
-2 4 -8 140.39 6.5
2 -4 8 149.19 6.7
2 -4 8 153.78 6.7
-3 4 -8 1.7 0.9
-3 4 -8 1.5 0.8
3 -4 8 2 0.9
3 -4 8 2.4 0.9
3 -4 8 1.9 1
3 -4 8 -0.9 1.5
3 -4 8 1.5 0.9
-4 4 -8 3.7 1.2
-4 4 -8 3.3 0.9
4 -4 8 7.7 1.4
4 -4 8 4.4 1.1
8 3 -8 14.1 1.9
8 3 -8 16.2 1.8
8 3 -8 15.1 5.3
-8 -3 8 15.2 2.7
-8 -3 8 16.2 2.1
-8 -3 8 12.2 1.7
7 3 -8 5.4 1
7 3 -8 6.8 3.7
7 3 -8 4.5 1
-7 -3 8 4.7 1.4
-7 -3 8 4.9 1.3
-7 -3 8 2.3 1.1
-7 -3 8 5.4 1.1
6 3 -8 40 2
6 3 -8 45.3 5.5
6 3 -8 41 2.3
-6 -3 8 37.5 2.1
-6 -3 8 38.5 2.2
-6 -3 8 38.8 3
5 3 -8 7.7 0.9
5 3 -8 7.8 3
5 3 -8 8.6 0.9
5 3 -8 5.8 0.9
-5 -3 8 5.9 0.8
-5 -3 8 7.8 0.8
-5 -3 8 5.8 0.9
4 3 -8 116.09 7.1
4 3 -8 121.49 5.1
4 3 -8 120.09 4.9
-4 -3 8 127.99 5.2
-4 -3 8 120.59 4.9
-4 -3 8 122.59 5.6
-4 -3 8 125.99 4.9
-4 -3 8 123.49 5.1
3 3 -8 104.39 4.4
3 3 -8 93.89 4.4
-3 -3 8 98.69 4.7
-3 -3 8 99.49 4.1
-3 -3 8 99.19 4.2
-3 -3 8 99.39 4.3
2 3 -8 408.06 16.3
2 3 -8 454.45 16.1
-2 -3 8 406.76 16.1
-2 -3 8 428.86 16.2
-2 -3 8 445.16 15.8
-2 -3 8 429.16 16.2
-2 -3 8 429.26 16.6
1 3 -8 497.65 20.3
1 3 -8 542.45 20.1
-1 -3 8 543.65 20.2
-1 -3 8 558.94 20.2
-1 -3 8 529.75 20.1
-1 -3 8 542.95 20.7
-1 -3 8 551.94 19.7
0 3 -8 7.5 0.9
0 3 -8 8.5 1.1
0 -3 8 9.6 0.9
0 -3 8 9.1 1
0 -3 8 8 0.9
0 -3 8 7.2 1
-1 3 -8 188.38 7.6
-1 3 -8 153.38 7.8
1 -3 8 188.98 7.5
1 -3 8 184.58 7.1
1 -3 8 184.08 7.5
1 -3 8 185.68 7.6
-2 3 -8 55.19 3.7
-2 3 -8 52.89 3.1
2 -3 8 55.49 3.3
2 -3 8 57.09 3.4
2 -3 8 59.79 2.7
2 -3 8 58.89 3.3
-3 3 -8 24.5 2
-3 3 -8 25.4 2.3
3 -3 8 23.5 1.8
3 -3 8 27.5 2.2
3 -3 8 23.4 2.2
-4 3 -8 81.49 4.8
-4 3 -8 97.99 4.8
4 -3 8 100.69 5
4 -3 8 99.69 5
4 -3 8 103.39 4.9
8 2 -8 48.3 2.9
8 2 -8 43.9 2.7
8 2 -8 57.19 6.9
-8 -2 8 45.2 2.8
-8 -2 8 43.7 3.3
-8 -2 8 42.2 2.9
7 2 -8 157.88 10.3
7 2 -8 152.88 6.7
-7 -2 8 160.08 7.3
-7 -2 8 150.48 6.4
-7 -2 8 161.78 6.8
6 2 -8 2.9 0.6
6 2 -8 -0.2 4.1
6 2 -8 2.2 0.6
-6 -2 8 2.1 0.6
-6 -2 8 2.8 1.3
-6 -2 8 3.1 0.7
-6 -2 8 2 1.7
5 2 -8 74.09 5.8
5 2 -8 70.39 3.1
5 2 -8 66.89 3
5 2 -8 69.09 3
-5 -2 8 70.99 3.1
-5 -2 8 70.09 3.1
-5 -2 8 65.49 3.6
-5 -2 8 71.69 3.3
4 2 -8 2.3 2
4 2 -8 2.5 0.4
4 2 -8 1.7 0.4
-4 -2 8 0.6 0.5
-4 -2 8 0.9 0.4
-4 -2 8 1.7 0.6
-4 -2 8 2 0.5
-4 -2 8 1.1 0.5
3 2 -8 86.49 3.6
3 2 -8 84.89 3.4
3 2 -8 86.29 3.8
-3 -2 8 87.99 3.9
-3 -2 8 81.29 4
-3 -2 8 84.09 3.5
-3 -2 8 83.89 3.9
-3 -2 8 83.89 3.6
2 2 -8 732.03 28.6
2 2 -8 768.02 28.5
-2 -2 8 809.42 28.3
-2 -2 8 752.72 28.5
-2 -2 8 790.52 29
-2 -2 8 810.02 28.6
-2 -2 8 743.13 28.4
1 2 -8 15.4 1.2
1 2 -8 17.5 1.4
-1 -2 8 16.8 1.3
-1 -2 8 19 1.7
-1 -2 8 17.2 1.2
-1 -2 8 18.4 1.3
-1 -2 8 16.2 1.2
0 2 -8 103.39 4.6
0 2 -8 95.39 4.4
0 -2 8 103.19 4.5
0 -2 8 105.39 4.6
0 -2 8 101.09 4.5
0 -2 8 101.19 4.1
-1 2 -8 8.9 1.3
-1 2 -8 9.1 1.1
1 -2 8 8.8 1
1 -2 8 9.3 1.3
1 -2 8 10.3 1.1
-2 2 -8 39.1 2.5
-2 2 -8 37 2.8
2 -2 8 39.9 2.7
2 -2 8 37.9 2.1
2 -2 8 39.7 2.7
-3 2 -8 226.88 9.2
-3 2 -8 238.38 9.2
-3 2 -8 219.68 9.2
3 -2 8 227.98 9.3
3 -2 8 195.88 9.7
3 -2 8 214.48 9.3
3 -2 8 222.28 9
-4 2 -8 21.5 2.2
-4 2 -8 22.6 2.1
-4 2 -8 23.1 2.2
4 -2 8 21 2.3
4 -2 8 22.4 2.4
4 -2 8 19.2 2.4
8 1 -8 168.18 7
8 1 -8 192.88 12.4
8 1 -8 162.38 7.1
-8 -1 8 156.88 7.6
-8 -1 8 159.88 7.2
-8 -1 8 158.68 6.9
7 1 -8 7.7 4.3
7 1 -8 8.5 1.3
7 1 -8 11.2 1.6
-7 -1 8 9.6 1.6
-7 -1 8 10.4 1.4
-7 -1 8 7.4 1.5
-7 -1 8 8.3 1.8
6 1 -8 123.49 9.5
6 1 -8 142.69 5.8
6 1 -8 139.19 5.7
6 1 -8 135.59 5.5
-6 -1 8 137.99 5.6
-6 -1 8 144.89 6.2
-6 -1 8 145.59 6
5 1 -8 137.79 5.5
5 1 -8 134.89 5.5
5 1 -8 132.89 8.3
-5 -1 8 136.09 5.5
-5 -1 8 133.29 6
-5 -1 8 141.49 5.8
-5 -1 8 137.49 5.4
4 1 -8 14.9 0.9
4 1 -8 15.2 1.1
4 1 -8 15.4 1
4 1 -8 11.9 2.9
-4 -1 8 14.2 1.2
-4 -1 8 13.1 1.3
-4 -1 8 12.8 1.1
-4 -1 8 14 1.2
3 1 -8 406.46 15.8
3 1 -8 412.66 15.5
3 1 -8 434.86 15.5
-3 -1 8 412.86 15.6
-3 -1 8 428.76 15.6
-3 -1 8 412.76 15.8
-3 -1 8 414.66 16.1
2 1 -8 -0.3 0.4
2 1 -8 0 0.5
2 1 -8 -1 1.9
-2 -1 8 -0.1 0.5
-2 -1 8 0.2 0.4
-2 -1 8 -0.3 0.6
-2 -1 8 1.3 0.5
1 1 -8 155.88 5.9
1 1 -8 131.49 5.9
-1 -1 8 138.69 5.9
-1 -1 8 146.49 6.3
-1 -1 8 140.39 5.6
-1 -1 8 135.89 5.7
0 1 -8 173.38 7.3
0 1 -8 169.58 7.2
0 -1 8 176.88 6.9
0 -1 8 179.78 7.2
0 -1 8 182.28 7.3
-1 1 -8 1.5 0.9
-1 1 -8 2.4 0.7
1 -1 8 2.5 0.6
1 -1 8 1 0.6
1 -1 8 -0.4 1
1 -1 8 2.1 1
-2 1 -8 221.58 9.2
-2 1 -8 232.68 9.3
-2 1 -8 228.98 9.3
2 -1 8 219.08 9.3
2 -1 8 217.78 8.9
2 -1 8 229.38 9.3
-3 1 -8 0 0.9
-3 1 -8 0.6 0.8
-3 1 -8 0.5 0.7
3 -1 8 0.2 0.8
3 -1 8 0.9 1.1
3 -1 8 0.3 0.9
3 -1 8 -1.5 1.4
-4 1 -8 20.8 2.2
-4 1 -8 21.3 2.4
-4 1 -8 21.3 2.2
4 -1 8 21.7 2.4
4 -1 8 22.5 2.4
4 -1 8 23.4 2.2
4 -1 8 20.7 3.4
8 0 -8 7.9 4.6
8 0 -8 2.8 0.9
8 0 -8 3.6 0.9
-8 0 8 3.1 1
-8 0 8 3.7 1.2
-8 0 8 4.2 1.3
7 0 -8 55.99 3.1
7 0 -8 54.79 3.1
7 0 -8 59.29 7.4
-7 0 8 57.59 3.3
-7 0 8 54.29 3.6
-7 0 8 52.69 3.2
6 0 -8 310.57 11.7
6 0 -8 295.47 16.8
6 0 -8 295.07 11.7
6 0 -8 302.47 11.4
-6 0 8 289.67 12.1
-6 0 8 309.57 12
-6 0 8 317.07 11.7
5 0 -8 27.6 1.5
5 0 -8 25.3 4.2
5 0 -8 24.9 1.5
-5 0 8 28 1.8
-5 0 8 27 1.8
-5 0 8 27 1.6
-5 0 8 27.4 1.4
4 0 -8 109.99 4.6
4 0 -8 108.89 4.4
-4 0 8 105.39 4.5
-4 0 8 108.09 4.8
-4 0 8 100.99 4.5
-4 0 8 114.09 4.7
3 0 -8 0.8 0.4
3 0 -8 -2.5 2.1
3 0 -8 -0.1 0.4
-3 0 8 1.3 0.6
-3 0 8 0.1 0.4
-3 0 8 0.2 0.4
-3 0 8 1.2 0.5
2 0 -8 47.8 2.5
2 0 -8 53.49 2.4
-2 0 8 46.3 2.2
-2 0 8 49 2.1
-2 0 8 44.8 2.3
-2 0 8 47.6 2.5
-2 0 8 48.1 2.7
1 0 -8 210.88 8.6
1 0 -8 207.58 8.8
-1 0 8 212.98 8.5
-1 0 8 253.27 9.3
-1 0 8 217.48 8.5
-1 0 8 214.58 8.7
0 0 -8 6.9 1.2
0 0 -8 8.8 1
0 0 8 5.5 0.9
0 0 8 7.4 1.1
0 0 8 6.9 1
-1 0 -8 79.49 4.2
-1 0 -8 82.79 3.8
1 0 8 75.99 3.7
1 0 8 78.69 3.6
1 0 8 80.39 4.1
1 0 8 80.99 4.3
-2 0 -8 1.8 1
-2 0 -8 1.5 1
-2 0 -8 3.6 0.9
2 0 8 2.5 1.2
2 0 8 2.2 1.1
2 0 8 2.1 0.9
2 0 8 -0.3 2
-3 0 -8 5.2 1
-3 0 -8 3.8 1
-3 0 -8 5.1 1.2
3 0 8 4.5 1.1
3 0 8 2.9 2
3 0 8 5.6 1.3
3 0 8 5.1 1.2
8 -1 -8 8.1 1.2
8 -1 -8 12.9 1.5
8 -1 -8 8.2 6.1
-8 1 8 9.4 1.7
-8 1 8 7.1 1.3
-8 1 8 11.7 1.9
7 -1 -8 34.1 2.9
7 -1 -8 32 2.9
7 -1 -8 44.4 7.3
-7 1 8 35 2.5
-7 1 8 30.3 2.4
-7 1 8 33.1 2.8
6 -1 -8 28 1.6
6 -1 -8 26.9 1.7
-6 1 8 27.4 1.9
-6 1 8 26.1 1.9
-6 1 8 30.4 2.2
5 -1 -8 140.09 5.7
5 -1 -8 141.49 5.7
5 -1 -8 129.09 9.4
-5 1 8 139.19 6
-5 1 8 134.69 5.7
-5 1 8 149.99 6
4 -1 -8 1.4 0.4
4 -1 -8 0.1 2.8
4 -1 -8 0.8 0.4
-4 1 8 0.3 0.5
-4 1 8 0.5 0.6
-4 1 8 1.4 0.6
3 -1 -8 21.2 1.2
3 -1 -8 19.9 1.5
3 -1 -8 20.8 1.2
-3 1 8 17.9 1.3
-3 1 8 19.7 1.2
-3 1 8 20 1.4
-3 1 8 20.6 1.2
-3 1 8 16.3 1.4
2 -1 -8 95.69 4.5
2 -1 -8 98.69 4.3
-2 1 8 102.49 4.3
-2 1 8 104.59 4.1
-2 1 8 105.69 4.7
-2 1 8 100.09 4.5
-2 1 8 103.99 4.2
1 -1 -8 74.99 3.6
1 -1 -8 80.99 3.6
-1 1 8 77.59 3.3
-1 1 8 78.09 3.5
-1 1 8 76.09 3.7
-1 1 8 84.69 4.1
-1 1 8 80.89 3.5
0 -1 -8 140.59 5.4
0 -1 -8 119.89 5.4
0 1 8 118.09 5
0 1 8 123.99 5.7
0 1 8 130.09 5.8
0 1 8 129.29 5.4
0 1 8 128.89 5.4
-1 -1 -8 2.5 1
-1 -1 -8 3.7 0.8
1 1 8 2.3 1.3
1 1 8 2.4 0.7
1 1 8 3.2 1.2
1 1 8 2.4 1
-2 -1 -8 10.1 1.6
-2 -1 -8 6.9 1.2
-2 -1 -8 5.3 1
2 1 8 6.4 1.2
2 1 8 11 2.3
2 1 8 4.8 1.2
-3 -1 -8 159.98 7.2
-3 -1 -8 175.08 7.3
-3 -1 -8 162.08 7.2
3 1 8 153.78 7.7
3 1 8 163.08 7.4
3 1 8 165.88 7.2
8 -2 -8 26.6 2.1
8 -2 -8 23.8 2
8 -2 -8 28.4 7.5
-8 2 8 22.2 2.3
-8 2 8 22.4 2.3
-8 2 8 17.3 2.2
7 -2 -8 3.5 1
7 -2 -8 3.8 0.8
7 -2 -8 2.5 5
-7 2 8 3.5 1.8
-7 2 8 4.6 1
-7 2 8 4 1
6 -2 -8 84.09 4
6 -2 -8 78.09 10.4
6 -2 -8 84.89 3.8
-6 2 8 85.49 4
-6 2 8 82.09 4.6
-6 2 8 94.79 4.3
5 -2 -8 36.9 2.1
5 -2 -8 37.6 2
5 -2 -8 46 6.6
-5 2 8 39 2.2
-5 2 8 37.3 2.2
4 -2 -8 121.09 5.1
4 -2 -8 123.89 5
-4 2 8 116.39 5.1
-4 2 8 123.59 5.2
-4 2 8 117.69 5.2
3 -2 -8 234.28 9.1
3 -2 -8 231.18 8.8
3 -2 -8 221.18 8.7
-3 2 8 229.18 9.1
-3 2 8 228.28 8.7
-3 2 8 224.18 9
-3 2 8 220.38 9.1
2 -2 -8 9.5 0.9
2 -2 -8 6.9 0.9
2 -2 -8 8.8 1.2
-2 2 8 9.2 0.9
-2 2 8 6.4 1
-2 2 8 9.3 1.3
-2 2 8 7.2 1.1
-2 2 8 6.8 1
1 -2 -8 179.48 7.3
1 -2 -8 183.98 8.6
1 -2 -8 178.78 7.1
-1 2 8 174.88 7.2
-1 2 8 185.68 6.9
-1 2 8 171.58 7.1
-1 2 8 181.58 7.5
-1 2 8 171.98 7.3
0 -2 -8 46.7 2.7
0 -2 -8 43 2.3
0 -2 -8 41.5 3
0 2 8 41.7 2.7
0 2 8 42.8 2.3
0 2 8 46.5 2.9
0 2 8 44.1 2.1
-1 -2 -8 9.1 1.4
-1 -2 -8 9 1.4
-1 -2 -8 9.3 1.5
1 2 8 8.2 1.7
1 2 8 8.4 1.3
1 2 8 6.7 1.2
-2 -2 -8 66.89 3.6
-2 -2 -8 63.89 3.6
-2 -2 -8 58.99 3.4
2 2 8 61.89 3.5
2 2 8 57.19 4.8
2 2 8 64.29 3.5
-3 -2 -8 1.2 0.9
-3 -2 -8 0.5 1
3 2 8 2.3 1.2
3 2 8 -0.3 1.5
8 -3 -8 1.6 6.6
8 -3 -8 8.2 1.3
-8 3 8 7.5 1.5
-8 3 8 5.5 1.2
-8 3 8 8.6 1.3
7 -3 -8 4.5 6
7 -3 -8 6.5 1
7 -3 -8 6.2 1
-7 3 8 6.4 1.2
-7 3 8 4.9 1
-7 3 8 10.4 1.5
6 -3 -8 14.1 1.7
6 -3 -8 15 1.4
6 -3 -8 9.6 6.4
-6 3 8 14.9 1.7
-6 3 8 15.9 1.4
-6 3 8 13.1 1.7
5 -3 -8 28.3 1.9
5 -3 -8 27.1 1.8
-5 3 8 28.7 2.2
-5 3 8 29.6 1.9
-5 3 8 31.5 2.4
4 -3 -8 174.38 6.6
4 -3 -8 184.48 7.2
4 -3 -8 173.48 6.9
-4 3 8 175.08 6.9
-4 3 8 147.49 7.2
3 -3 -8 -0.5 3.8
3 -3 -8 0 0.6
3 -3 -8 0.4 0.4
-3 3 8 0.6 0.6
-3 3 8 0.8 0.9
-3 3 8 -0.5 0.6
2 -3 -8 76.69 4
2 -3 -8 73.89 3.4
-2 3 8 71.79 3.6
-2 3 8 75.99 3.3
-2 3 8 72.29 4.1
1 -3 -8 98.99 4.6
1 -3 -8 102.99 5
-1 3 8 110.09 4.8
-1 3 8 101.69 4.8
-1 3 8 105.29 4.8
-1 3 8 99.49 4.3
0 -3 -8 25.6 2.2
0 -3 -8 24.8 1.8
0 -3 -8 27 2.3
0 3 8 25.4 2.1
0 3 8 27.1 1.7
0 3 8 25.6 2.2
0 3 8 26.9 2.3
-1 -3 -8 78.19 4.1
-1 -3 -8 74.19 4.1
-1 -3 -8 78.89 4.1
1 3 8 78.69 4.2
1 3 8 76.69 4
1 3 8 79.99 4
1 3 8 74.19 3.5
-2 -3 -8 8 1.5
-2 -3 -8 6.4 1.3
-2 -3 -8 8.6 1.5
2 3 8 13 2.5
2 3 8 7.6 1.3
2 3 8 6.2 1.4
8 -4 -8 43.8 2.9
-8 4 8 50.79 3
-8 4 8 40.9 2.8
7 -4 -8 66.89 3.4
-7 4 8 62.19 3.5
-7 4 8 59.19 3.4
6 -4 -8 0.4 6.5
6 -4 -8 6.8 2
6 -4 -8 6 1.1
-6 4 8 3.6 1
-6 4 8 5 1.1
5 -4 -8 115.69 5.6
5 -4 -8 112.59 5.3
-5 4 8 124.39 5.2
-5 4 8 110.79 5.2
4 -4 -8 31.5 2
4 -4 -8 34.8 2.6
4 -4 -8 31.6 1.7
-4 4 8 34.5 2.5
-4 4 8 35 2.3
-4 4 8 28.2 2.3
3 -4 -8 43.9 2.2
3 -4 -8 45.8 2.9
-3 4 8 39.7 2.7
-3 4 8 47.5 2.5
-3 4 8 41.5 2.7
2 -4 -8 81.29 3.9
2 -4 -8 81.29 4.2
-2 4 8 84.29 3.8
-2 4 8 78.59 4
-2 4 8 81.99 4.1
1 -4 -8 9.3 1.6
1 -4 -8 11.9 1.8
-1 4 8 9.6 1.4
-1 4 8 8.9 1.8
-1 4 8 9.2 1.3
0 -4 -8 94.69 4.3
0 -4 -8 98.29 4.7
0 -4 -8 87.79 4.7
0 4 8 96.09 4.6
0 4 8 93.99 4.6
0 4 8 97.99 4.4
-1 -4 -8 8.1 1.6
-1 -4 -8 13.1 1.7
-1 -4 -8 8.6 1.4
1 4 8 9.3 1.4
1 4 8 8.9 1.5
1 4 8 8.5 1.6
7 -5 -8 -0.4 0.8
7 -5 -8 1.1 1.1
-7 5 8 1.4 0.9
-7 5 8 0.5 1
-7 5 8 -0.5 1
6 -5 -8 11.3 1.6
6 -5 -8 20.7 7.6
6 -5 -8 11 1.9
-6 5 8 13.2 1.9
-6 5 8 12.7 1.5
-6 5 8 17.4 1.9
5 -5 -8 34.7 2.5
5 -5 -8 33.7 2.3
-5 5 8 35.2 2.3
-5 5 8 37 2.6
-5 5 8 33.5 2.5
4 -5 -8 33 1.8
4 -5 -8 37.3 2.5
-4 5 8 32.5 2.6
-4 5 8 34.8 2.5
-4 5 8 28.4 2.3
3 -5 -8 -0.7 0.6
3 -5 -8 1.3 0.9
-3 5 8 0.6 0.9
-3 5 8 0.7 1.1
-3 5 8 -0.7 0.9
2 -5 -8 78.99 3.9
2 -5 -8 78.29 4.1
-2 5 8 73.29 3.9
-2 5 8 83.99 4.2
-2 5 8 72.99 3.9
1 -5 -8 2.2 1.1
1 -5 -8 3.1 1
-1 5 8 4.8 1.4
-1 5 8 4.1 1
-1 5 8 2.1 1
0 -5 -8 32.2 2.4
0 -5 -8 31.1 2.7
0 5 8 32.7 2.6
0 5 8 31.1 2.4
0 5 8 36.8 2.8
6 -6 -8 23.4 2
6 -6 -8 19.7 2.3
-6 6 8 23.9 2.4
-6 6 8 20.1 1.9
-6 6 8 20.9 2.3
5 -6 -8 25.5 2.4
-5 6 8 24.1 2.1
-5 6 8 25.8 2.4
-5 6 8 29.7 2.4
4 -6 -8 53.69 3.3
4 -6 -8 47.6 2.7
-4 6 8 52.99 3
-4 6 8 55.29 3.2
-4 6 8 55.59 3.2
3 -6 -8 25.3 2.2
3 -6 -8 27.6 2.4
-3 6 8 27.5 2.5
-3 6 8 26.3 2.3
-3 6 8 22.6 2
2 -6 -8 37.2 2.5
2 -6 -8 34.7 3.5
-2 6 8 42.7 2.8
-2 6 8 33.9 2.7
-2 6 8 35.6 2.4
1 -6 -8 3.2 1
1 -6 -8 1.1 1.2
-1 6 8 1.6 1
-1 6 8 -0.6 1.2
-1 6 8 2.6 1.2
-4 -8 9 5.1 1.2
-4 -8 9 10.1 1.7
-4 -8 9 8.2 1.9
3 8 -9 43.1 3
3 8 -9 38.3 4.9
-3 -8 9 38.7 2.7
-3 -8 9 43.5 3.4
-3 -8 9 40.7 2.4
2 8 -9 64.89 3.6
2 8 -9 57.49 6.4
-2 -8 9 60.19 3.2
-2 -8 9 66.29 4.2
-2 -8 9 60.19 3.5
1 8 -9 -0.8 2.6
1 8 -9 0.9 1
-1 -8 9 0.1 0.9
-1 -8 9 1.1 0.8
-1 -8 9 1.6 1.5
0 8 -9 72.29 4
0 -8 9 72.09 3.9
0 -8 9 68.29 3.7
-1 8 -9 0.4 1
-1 8 -9 -0.3 2.9
1 -8 9 0.9 1.8
1 -8 9 1.2 0.9
1 -8 9 1.4 1.1
5 7 -9 24.2 2
5 7 -9 27.2 5.6
-5 -7 9 26.8 2.8
-5 -7 9 22.7 2.1
4 7 -9 59.89 6
4 7 -9 49.1 4.3
-4 -7 9 57.99 3.8
-4 -7 9 58.69 3.3
-4 -7 9 56.69 3
3 7 -9 139.19 6.1
3 7 -9 125.79 8.1
-3 -7 9 128.49 5.7
-3 -7 9 130.99 5.9
-3 -7 9 132.49 6.4
2 7 -9 7.6 2.6
2 7 -9 5.8 1.3
-2 -7 9 8.1 1.4
-2 -7 9 6.1 1.7
-2 -7 9 5.5 1
1 7 -9 166.48 7.2
1 7 -9 143.79 8.9
-1 -7 9 183.68 8
-1 -7 9 170.88 7.3
-1 -7 9 170.58 7.1
0 7 -9 117.89 5.4
0 -7 9 105.89 5.3
0 -7 9 113.29 5.3
0 -7 9 129.19 6.5
0 -7 9 110.69 4.9
-1 7 -9 18.7 2.1
1 -7 9 19.2 2
1 -7 9 16.2 1.8
1 -7 9 20.9 2.3
-2 7 -9 126.59 6.2
2 -7 9 117.59 5.6
2 -7 9 116.89 5.8
2 -7 9 119.79 6
6 6 -9 16.8 1.8
6 6 -9 17 4.9
-6 -6 9 17.3 2.4
-6 -6 9 14.5 1.9
-6 -6 9 16.2 2.3
5 6 -9 11.3 3.4
5 6 -9 10.7 1.4
-5 -6 9 12.4 1.7
-5 -6 9 8.9 1.3
-5 -6 9 11.6 2
4 6 -9 345.77 13.6
4 6 -9 359.56 16.8
-4 -6 9 347.87 13.8
-4 -6 9 352.26 14.4
-4 -6 9 358.16 13.5
-4 -6 9 347.77 13.4
3 6 -9 101.59 5.3
3 6 -9 83.89 6.9
-3 -6 9 82.79 4.2
-3 -6 9 85.59 3.9
-3 -6 9 89.89 4.8
-3 -6 9 85.19 3.9
2 6 -9 91.19 4.6
-2 -6 9 89.39 4.9
-2 -6 9 91.29 4.4
-2 -6 9 84.79 3.9
-2 -6 9 88.39 4.2
1 6 -9 106.79 5
-1 -6 9 103.89 4.8
-1 -6 9 100.29 4.5
-1 -6 9 98.29 4.8
-1 -6 9 106.19 5.5
0 6 -9 48.7 3.1
0 -6 9 47.2 2.9
0 -6 9 48 2.7
0 -6 9 48.4 2.9
0 -6 9 54.79 3.9
-1 6 -9 270.57 10.3
-1 6 -9 238.58 10.1
1 -6 9 233.58 10
1 -6 9 245.58 10.2
1 -6 9 251.97 10.3
-2 6 -9 -0.2 0.8
-2 6 -9 -1.3 0.9
2 -6 9 -0.6 1
2 -6 9 0.1 1.7
2 -6 9 0 1.2
2 -6 9 0.4 0.9
6 5 -9 10.5 1.4
6 5 -9 14.6 3.9
-6 -5 9 8.7 1.5
-6 -5 9 11.5 2
-6 -5 9 11.4 1.7
5 5 -9 53.59 2.7
5 5 -9 53.59 5.8
5 5 -9 49.2 2.6
-5 -5 9 52.69 3.5
-5 -5 9 50.19 2.9
-5 -5 9 48.2 2.9
4 5 -9 4.2 0.9
4 5 -9 5.7 3.5
-4 -5 9 4.1 1.6
-4 -5 9 4.1 0.8
-4 -5 9 4.8 0.7
-4 -5 9 2.5 1.1
3 5 -9 77.49 3.9
-3 -5 9 83.59 3.7
-3 -5 9 82.59 3.6
-3 -5 9 81.29 4.5
-3 -5 9 79.09 4.6
2 5 -9 85.39 4.5
-2 -5 9 89.49 3.9
-2 -5 9 80.99 4.7
-2 -5 9 86.89 4.8
-2 -5 9 88.79 3.9
1 5 -9 0.6 1
1 5 -9 0.7 2
-1 -5 9 0.8 0.7
-1 -5 9 2.3 1.5
-1 -5 9 0.8 0.6
-1 -5 9 1.3 0.9
0 5 -9 79.99 4.1
0 5 -9 86.19 4.3
0 -5 9 86.89 5.1
0 -5 9 84.29 3.9
0 -5 9 84.09 4.4
0 -5 9 81.29 4.1
-1 5 -9 0.8 0.8
-1 5 -9 0.4 0.9
1 -5 9 -0.6 1.7
1 -5 9 -0.6 0.8
1 -5 9 0.4 1.2
1 -5 9 1 0.8
-2 5 -9 17.4 2
-2 5 -9 14.9 1.8
2 -5 9 13.8 1.9
2 -5 9 19.1 2
2 -5 9 16.9 2
-3 5 -9 27.1 2.4
-3 5 -9 29.2 2.8
3 -5 9 27.2 2.5
3 -5 9 28.7 2.6
3 -5 9 28.3 2.5
7 4 -9 54.49 3
7 4 -9 56.09 6.8
-7 -4 9 47.3 3.1
-7 -4 9 55.29 4.3
-7 -4 9 48.4 2.9
6 4 -9 72.99 6.7
-6 -4 9 66.69 3.7
-6 -4 9 69.99 3.6
-6 -4 9 64.09 4
5 4 -9 3.9 0.7
5 4 -9 4.4 0.7
5 4 -9 3.8 3.4
-5 -4 9 3.5 1
-5 -4 9 4.7 0.9
-5 -4 9 5 1.3
4 4 -9 111.79 4.8
4 4 -9 108.09 4.5
-4 -4 9 112.39 4.8
-4 -4 9 108.59 4.8
-4 -4 9 112.29 4.6
-4 -4 9 108.49 5.5
3 4 -9 244.58 9.9
-3 -4 9 256.27 9.8
-3 -4 9 256.37 10.6
-3 -4 9 242.28 9.8
-3 -4 9 247.18 9.7
2 4 -9 11.8 1.4
-2 -4 9 8.8 1.1
-2 -4 9 10.3 1
-2 -4 9 11 1.2
1 4 -9 130.59 5.4
-1 -4 9 122.29 5.4
-1 -4 9 129.49 5.7
-1 -4 9 123.29 5.4
0 4 -9 1.1 1
0 4 -9 1.5 1
0 -4 9 0.2 1.5
0 -4 9 0.8 1.5
0 -4 9 1.4 0.7
0 -4 9 0.4 0.9
-1 4 -9 109.49 5.1
1 -4 9 104.19 5.1
1 -4 9 109.49 5.1
1 -4 9 106.89 5.4
-2 4 -9 243.58 10.6
-2 4 -9 276.87 10.8
2 -4 9 256.57 10.7
2 -4 9 263.77 10.8
2 -4 9 262.07 10.6
-3 4 -9 -0.6 1
-3 4 -9 2.4 0.9
3 -4 9 -0.2 1
3 -4 9 1.7 1
3 -4 9 -2.8 1.6
7 3 -9 99.89 4.6
-7 -3 9 97.99 4.8
-7 -3 9 98.29 5.3
-7 -3 9 100.49 4.7
6 3 -9 2.6 0.7
6 3 -9 2.3 0.6
6 3 -9 6.7 3.6
-6 -3 9 3 1.4
-6 -3 9 1 1.2
-6 -3 9 1.5 0.7
-6 -3 9 1.7 0.8
5 3 -9 14.9 5.3
5 3 -9 16.6 1.2
5 3 -9 13.1 1.2
-5 -3 9 12.5 1.8
-5 -3 9 14.1 1.3
-5 -3 9 14.1 1.2
-5 -3 9 15.5 2.1
4 3 -9 206.48 7.5
4 3 -9 186.98 7.6
4 3 -9 179.18 7.3
-4 -3 9 193.18 7.7
-4 -3 9 207.48 7.5
-4 -3 9 179.38 8.3
-4 -3 9 180.78 7.4
-4 -3 9 187.98 7.6
3 3 -9 28.8 1.6
3 3 -9 28.9 1.8
-3 -3 9 25.6 1.6
-3 -3 9 27.5 1.7
-3 -3 9 23.8 2.1
-3 -3 9 23.3 1.5
-3 -3 9 26.8 1.6
2 3 -9 24.1 1.5
2 3 -9 22.1 1.7
-2 -3 9 21.9 1.6
-2 -3 9 22.5 2.1
-2 -3 9 23 1.6
-2 -3 9 21.8 1.4
-2 -3 9 23.1 1.5
1 3 -9 4.2 2
1 3 -9 10.1 1.4
1 3 -9 6 0.9
-1 -3 9 7.8 2.1
-1 -3 9 7.2 1
-1 -3 9 8.1 1.1
-1 -3 9 7.6 1
-1 -3 9 6.7 0.9
0 3 -9 15.4 2
0 3 -9 16.1 1.5
0 -3 9 10.4 2.5
0 -3 9 13.8 1.6
0 -3 9 13.3 1.4
0 -3 9 16.1 1.2
0 -3 9 14.9 1.5
-1 3 -9 218.88 9.1
-1 3 -9 226.78 9.2
1 -3 9 216.68 9.2
1 -3 9 216.18 9.1
1 -3 9 215.38 8.5
1 -3 9 224.58 9.3
-2 3 -9 9.6 1.4
-2 3 -9 5.2 1.2
2 -3 9 7.3 1.2
2 -3 9 9.6 1.4
2 -3 9 6.1 1.2
-3 3 -9 106.69 5.2
-3 3 -9 118.49 5.3
3 -3 9 100.89 5.3
3 -3 9 105.29 5.6
3 -3 9 106.09 5.3
8 2 -9 8.5 1.3
8 2 -9 9.5 1.5
-8 -2 9 7.5 1.5
-8 -2 9 7.6 1.7
-8 -2 9 8.2 1.5
7 2 -9 97.19 8.2
7 2 -9 100.79 4.6
7 2 -9 98.99 4.6
-7 -2 9 98.29 4.3
-7 -2 9 94.59 5.1
-7 -2 9 101.59 4.8
-7 -2 9 90.09 4.6
6 2 -9 39.9 2.3
6 2 -9 50.59 6.3
-6 -2 9 39.7 2.1
-6 -2 9 46.3 2.8
-6 -2 9 40.5 2.3
-6 -2 9 38.1 2.9
5 2 -9 131.99 5.3
5 2 -9 130.69 5.4
-5 -2 9 131.09 6.2
-5 -2 9 126.59 5.3
-5 -2 9 134.69 5.4
4 2 -9 5 0.8
4 2 -9 5.4 0.8
4 2 -9 5.5 2.4
4 2 -9 4.8 0.8
-4 -2 9 4.6 0.8
-4 -2 9 5.1 0.8
-4 -2 9 6.6 1
-4 -2 9 4.9 0.7
-4 -2 9 6.4 1.3
3 2 -9 537.25 19.9
3 2 -9 524.85 20.2
-3 -2 9 546.35 19.8
-3 -2 9 545.45 20.2
-3 -2 9 528.55 20
-3 -2 9 532.65 20
-3 -2 9 532.45 20.6
2 2 -9 547.35 21.8
2 2 -9 629.14 22.1
-2 -2 9 556.54 21.8
-2 -2 9 579.74 21.9
-2 -2 9 597.04 22
-2 -2 9 586.04 21.6
-2 -2 9 600.74 22.5
1 2 -9 32.5 2.2
1 2 -9 28.8 1.8
-1 -2 9 28.7 2
-1 -2 9 27.4 1.7
-1 -2 9 29.5 1.7
-1 -2 9 28 2.4
0 2 -9 163.38 6.8
0 2 -9 160.38 7
0 -2 9 157.28 6.4
0 -2 9 162.08 7
0 -2 9 161.98 6.7
-1 2 -9 0.3 0.8
-1 2 -9 0.7 0.8
1 -2 9 1.5 1
1 -2 9 -0.9 1.4
1 -2 9 0.9 0.9
1 -2 9 0.1 0.7
-2 2 -9 36.3 2.6
-2 2 -9 38.2 2.6
2 -2 9 41 2.5
2 -2 9 41.4 2.6
2 -2 9 33.9 3.4
2 -2 9 46 2.8
-3 2 -9 6 1.2
-3 2 -9 7 1.3
-3 2 -9 6.5 1.3
3 -2 9 7.2 1.4
3 -2 9 7.9 1.5
3 -2 9 8.3 1.3
8 1 -9 33.1 2.4
8 1 -9 38.3 2.5
8 1 -9 39 7.2
-8 -1 9 39.8 2.8
-8 -1 9 31.7 2.7
-8 -1 9 36.8 2.9
7 1 -9 7.4 1.1
7 1 -9 5.7 1.1
7 1 -9 1.9 3.9
-7 -1 9 4.9 1.1
-7 -1 9 5.6 1.4
-7 -1 9 5.2 1.3
6 1 -9 63.19 3.2
6 1 -9 70.49 3.1
-6 -1 9 67.89 3.9
-6 -1 9 68.79 3.6
-6 -1 9 70.69 3.3
5 1 -9 0.2 3.1
5 1 -9 0.4 0.5
5 1 -9 0.4 0.5
-5 -1 9 1.7 0.5
-5 -1 9 1.1 1
-5 -1 9 1.1 0.6
-5 -1 9 2.1 1
4 1 -9 13.2 1
4 1 -9 12.9 1.2
-4 -1 9 13.8 1.2
-4 -1 9 12.8 1.4
-4 -1 9 11.6 1.4
-4 -1 9 13.1 1
3 1 -9 59.09 3
3 1 -9 60.69 3
3 1 -9 59.79 2.7
-3 -1 9 63.99 3.3
-3 -1 9 64.19 3.1
-3 -1 9 58.19 2.8
-3 -1 9 56.59 2.6
-3 -1 9 63.39 2.8
2 1 -9 50.39 2.5
2 1 -9 49.2 2.7
-2 -1 9 44.7 2.6
-2 -1 9 49.1 2.4
-2 -1 9 48.8 2.4
-2 -1 9 48.9 2.9
1 1 -9 299.77 12
-1 -1 9 309.17 11.8
-1 -1 9 285.07 12.2
-1 -1 9 303.87 12
-1 -1 9 349.37 12.9
0 1 -9 21.4 1.8
0 1 -9 24.2 2.2
0 -1 9 25.3 2.2
0 -1 9 19.7 1.6
0 -1 9 22.2 1.6
-1 1 -9 71.69 3.7
-1 1 -9 70.49 3.6
1 -1 9 72.09 3.7
1 -1 9 68.59 3.3
1 -1 9 57.29 4.3
1 -1 9 69.69 3.7
-2 1 -9 85.39 4.3
-2 1 -9 82.99 4.3
-2 1 -9 83.39 4.2
2 -1 9 88.19 4.4
2 -1 9 84.79 4.3
2 -1 9 85.79 4.4
-3 1 -9 -0.4 1
-3 1 -9 0.3 0.9
-3 1 -9 0.3 0.8
3 -1 9 -2 1.8
3 -1 9 1.3 1.1
3 -1 9 -1.3 1.1
3 -1 9 -0.4 0.9
8 0 -9 17.6 1.8
8 0 -9 15.8 1.8
8 0 -9 10.7 6.5
-8 0 9 13.2 1.9
-8 0 9 17.1 2.2
-8 0 9 13.9 2.2
7 0 -9 186.58 7.6
-7 0 9 190.88 7.7
-7 0 9 178.18 8
-7 0 9 177.68 7.8
6 0 -9 80.09 3.4
6 0 -9 75.39 3.5
-6 0 9 81.99 4.3
-6 0 9 78.99 3.9
-6 0 9 63.69 3.9
5 0 -9 81.49 3.6
5 0 -9 81.69 3.7
-5 0 9 80.99 4.1
-5 0 9 81.19 4.1
-5 0 9 87.09 3.8
4 0 -9 24.3 1.4
4 0 -9 27.3 2.3
-4 0 9 26.4 1.9
-4 0 9 22.7 2.8
-4 0 9 19.5 1.5
3 0 -9 2.8 0.5
3 0 -9 2.2 0.7
3 0 -9 -0.8 2.6
3 0 -9 2.3 0.5
-3 0 9 3.5 0.5
-3 0 9 1.6 0.8
-3 0 9 1.7 0.6
2 0 -9 174.78 6.9
2 0 -9 172.58 7.2
-2 0 9 168.88 6.8
-2 0 9 179.98 6.9
-2 0 9 159.78 7.3
-2 0 9 174.68 7.4
1 0 -9 1.3 0.6
1 0 -9 0.4 1
-1 0 9 1.1 1
-1 0 9 2.6 1.2
-1 0 9 0.1 0.6
-1 0 9 1.6 0.5
0 0 -9 16 1.9
0 0 -9 16 2
0 0 9 13.5 1.4
0 0 9 12.4 1.8
0 0 9 13 1.3
-1 0 -9 24.1 2.1
-1 0 -9 23.4 2.2
-1 0 -9 25.7 2.3
1 0 9 25.3 2.5
1 0 9 24 2.2
1 0 9 24.2 2.2
-2 0 -9 0.1 1
-2 0 -9 1.6 0.8
-2 0 -9 0.2 0.9
2 0 9 1 1.2
2 0 9 -1.6 1.4
2 0 9 2.3 0.9
2 0 9 2.7 1
8 -1 -9 37.7 2.6
-8 1 9 40 2.9
-8 1 9 43.3 2.8
-8 1 9 37.6 2.7
7 -1 -9 12.6 5.3
7 -1 -9 9.5 1.5
-7 1 9 10.4 1.9
-7 1 9 9.8 1.7
-7 1 9 11.4 1.6
6 -1 -9 80.89 9.2
6 -1 -9 71.69 3.4
6 -1 -9 69.49 3.3
-6 1 9 66.49 4.2
-6 1 9 69.89 3.7
-6 1 9 71.49 3.7
5 -1 -9 79.79 3.6
5 -1 -9 83.39 3.8
5 -1 -9 85.89 8.4
-5 1 9 80.29 4
-5 1 9 81.59 3.9
-5 1 9 81.09 4.1
4 -1 -9 7.5 1.2
4 -1 -9 5.3 0.9
-4 1 9 5.4 0.9
-4 1 9 5.1 1.2
-4 1 9 5.5 0.9
-4 1 9 6 0.8
3 -1 -9 146.99 6.3
3 -1 -9 144.99 5.9
-3 1 9 152.18 6.6
-3 1 9 151.18 5.8
-3 1 9 140.29 6
2 -1 -9 17.4 1.3
2 -1 -9 17.3 2.1
-2 1 9 13.1 1.2
-2 1 9 16.6 1.2
-2 1 9 16.8 2
-2 1 9 14.6 1.4
-2 1 9 18.9 1.8
1 -1 -9 7 1.1
1 -1 -9 8.1 1.1
1 -1 -9 5.6 1.2
-1 1 9 5.9 1.2
-1 1 9 7.3 1
-1 1 9 7.3 1.4
-1 1 9 6 1
0 -1 -9 61.19 3.3
0 -1 -9 62.89 3.1
0 -1 -9 59.39 3.4
0 1 9 57.79 2.9
0 1 9 59.29 3.4
0 1 9 58.49 3.3
0 1 9 49.3 3.5
-1 -1 -9 -1.2 0.8
-1 -1 -9 -0.5 0.9
-1 -1 -9 -0.1 0.8
1 1 9 2.9 1.1
1 1 9 0.1 1.7
1 1 9 1.4 1
1 1 9 0.1 1.1
-2 -1 -9 79.49 4
-2 -1 -9 64.39 3.9
-2 -1 -9 76.09 4
2 1 9 73.09 4.5
2 1 9 73.69 3.9
2 1 9 70.39 4.1
2 1 9 72.79 4
8 -2 -9 0.5 0.8
8 -2 -9 -2.7 6
-8 2 9 -1.6 1
-8 2 9 0.8 1.2
-8 2 9 1 1
7 -2 -9 0.4 0.8
7 -2 -9 1.5 0.8
7 -2 -9 -1.4 5.7
-7 2 9 0.6 1.2
-7 2 9 1.6 0.9
-7 2 9 3.1 1
6 -2 -9 87.29 4.1
6 -2 -9 89.09 4
6 -2 -9 65.79 9.2
-6 2 9 87.89 4.2
-6 2 9 85.99 4.1
-6 2 9 81.09 4.1
5 -2 -9 0.4 8.3
5 -2 -9 3 0.8
5 -2 -9 3.5 0.7
-5 2 9 1.9 1
-5 2 9 2.4 0.9
-5 2 9 0.8 0.7
-5 2 9 2.1 1.1
4 -2 -9 39.7 2
-4 2 9 38.5 2.1
-4 2 9 33.4 2.3
-4 2 9 36.6 2.5
3 -2 -9 11.5 1.8
3 -2 -9 8.8 0.9
-3 2 9 10.7 1.6
-3 2 9 10.4 1.2
-3 2 9 7.9 1.8
-3 2 9 10.1 1.6
2 -2 -9 -1.9 3.9
2 -2 -9 4.3 0.7
2 -2 -9 3 1
-2 2 9 4.5 1.5
-2 2 9 4.8 1.1
-2 2 9 6.4 1.2
-2 2 9 4.3 0.7
1 -2 -9 124.29 5.2
1 -2 -9 115.79 5.8
1 -2 -9 131.59 5.8
-1 2 9 125.89 5.5
-1 2 9 116.19 5.5
-1 2 9 121.29 5.6
-1 2 9 117.69 5.1
0 -2 -9 0.2 0.8
0 -2 -9 0.3 0.7
0 -2 -9 1.4 0.9
0 2 9 0.2 0.9
0 2 9 -0.3 0.7
0 2 9 -0.6 0.9
0 2 9 -2.2 1.4
-1 -2 -9 77.49 4.3
-1 -2 -9 88.79 4.3
-1 -2 -9 79.99 4.3
1 2 9 81.79 4.6
1 2 9 80.49 4.2
1 2 9 83.99 4.3
7 -3 -9 21 1.9
7 -3 -9 12.9 7.3
-7 3 9 25.1 2.1
-7 3 9 16.3 2.3
-7 3 9 18.2 1.9
6 -3 -9 56.59 3
6 -3 -9 49.99 3.3
-6 3 9 54.09 3.1
-6 3 9 61.49 3.2
-6 3 9 52.49 3
5 -3 -9 221.58 8.7
-5 3 9 194.78 8.5
-5 3 9 209.68 9.2
-5 3 9 206.48 8.6
-5 3 9 207.18 8.5
4 -3 -9 102.99 4.5
4 -3 -9 105.39 4.9
-4 3 9 107.49 4.6
-4 3 9 101.69 4.8
-4 3 9 99.59 4.8
-4 3 9 104.39 4.9
3 -3 -9 -0.6 4.4
3 -3 -9 1.6 0.6
3 -3 -9 2.2 0.9
-3 3 9 1 1
-3 3 9 0.6 1.2
-3 3 9 1.2 0.9
-3 3 9 2.7 0.8
2 -3 -9 38 2.7
2 -3 -9 40.1 2.3
-2 3 9 36.7 2.2
-2 3 9 38.8 2.8
-2 3 9 37.9 2.6
1 -3 -9 24 2.1
1 -3 -9 22.2 2.2
-1 3 9 26.9 2
-1 3 9 21.5 1.7
-1 3 9 26.2 2.2
0 -3 -9 38.1 2.6
0 -3 -9 36.2 2.8
0 -3 -9 39.5 2.6
0 3 9 38.6 3
0 3 9 34 2.6
0 3 9 37.6 2.5
-1 -3 -9 1.6 1
-1 -3 -9 1.5 1.1
-1 -3 -9 1.6 1.3
1 3 9 0.5 1.2
1 3 9 -0.5 1
1 3 9 2.7 1.7
7 -4 -9 5.9 9
7 -4 -9 3.3 1.2
7 -4 -9 0.7 0.8
-7 4 9 0.4 1
-7 4 9 3 1.1
-7 4 9 1.9 1.2
6 -4 -9 13.8 1.7
6 -4 -9 16.9 2
-6 4 9 14.7 2
-6 4 9 12.2 1.8
-6 4 9 15.8 1.9
5 -4 -9 10.8 1.6
5 -4 -9 2.3 6.1
5 -4 -9 13 1.9
-5 4 9 12.9 1.8
-5 4 9 10.1 1.5
-5 4 9 11.7 1.7
4 -4 -9 3.4 6.8
4 -4 -9 13.8 1.8
-4 4 9 12.9 1.7
-4 4 9 12.1 1.7
-4 4 9 10.7 1.6
3 -4 -9 136.09 6
3 -4 -9 127.99 5.4
-3 4 9 128.39 5.8
-3 4 9 127.39 5.8
2 -4 -9 78.99 4.3
2 -4 -9 85.09 4.1
-2 4 9 80.09 4.1
-2 4 9 84.79 4.5
-2 4 9 80.49 4.1
1 -4 -9 67.79 4.7
1 -4 -9 67.59 3.5
-1 4 9 63.39 3.7
-1 4 9 66.89 4
-1 4 9 63.79 3.6
0 -4 -9 26 2.7
0 -4 -9 24 2.2
0 4 9 16 2.6
0 4 9 24.8 2.5
0 4 9 22.8 2.2
6 -5 -9 6.8 1.1
6 -5 -9 10.1 7.2
6 -5 -9 6.4 1.3
-6 5 9 4.1 1.3
-6 5 9 4.4 1.1
-6 5 9 3.2 1.3
5 -5 -9 2 6.4
5 -5 -9 4.6 1.2
-5 5 9 5.1 1.1
-5 5 9 5.2 1.2
-5 5 9 3.1 1.3
4 -5 -9 32.3 2.6
-4 5 9 35.7 2.7
-4 5 9 28.4 2.4
-4 5 9 33.4 2.4
3 -5 -9 1.8 1
3 -5 -9 2 1.1
3 -5 -9 -1.3 7.4
-3 5 9 1.6 1
-3 5 9 2.6 1.1
-3 5 9 3 1.3
2 -5 -9 -0.8 0.9
2 -5 -9 -0.5 1
-2 5 9 -1.1 1.2
-2 5 9 -1 1
-2 5 9 0.4 0.9
1 -5 -9 6.3 1.6
-1 5 9 8.9 1.4
4 7 -10 87.09 4.6
4 7 -10 90.29 7.3
-4 -7 10 82.89 4.3
-4 -7 10 84.69 4.1
-4 -7 10 87.79 5.1
3 7 -10 83.69 4.2
3 7 -10 61.59 6.1
-3 -7 10 77.89 4
-3 -7 10 76.69 3.7
-3 -7 10 78.69 4.6
2 7 -10 40.2 3
-2 -7 10 39.6 3.5
-2 -7 10 44.1 2.6
-2 -7 10 47.6 2.8
1 7 -10 78.89 5.6
-1 -7 10 60.19 4
-1 -7 10 73.49 4
-1 -7 10 80.89 4.8
-1 -7 10 79.09 3.8
0 7 -10 0.9 1
0 -7 10 -0.8 1.9
0 -7 10 1 1.4
0 -7 10 1.5 1.1
0 -7 10 0 0.9
5 6 -10 79.29 8.2
-5 -6 10 72.89 4
-5 -6 10 68.89 3.8
-5 -6 10 72.19 4.5
4 6 -10 25.4 4.8
4 6 -10 32.5 2.8
-4 -6 10 29.2 2.8
-4 -6 10 28 3.1
-4 -6 10 31.2 2.3
-4 -6 10 31.7 2.2
3 6 -10 22.3 2.4
-3 -6 10 24.5 1.9
-3 -6 10 22.4 1.9
-3 -6 10 21.9 2.1
-3 -6 10 22.2 2.4
2 6 -10 163.28 7.4
-2 -6 10 180.08 8.1
-2 -6 10 170.98 7.2
-2 -6 10 167.48 7.1
-2 -6 10 169.88 7.3
1 6 -10 11.3 2
-1 -6 10 8.4 1.3
-1 -6 10 8.6 1.5
-1 -6 10 5.8 1.6
-1 -6 10 12 1.5
0 6 -10 91.19 4.5
0 -6 10 71.59 5.1
0 -6 10 85.59 4.3
0 -6 10 79.09 4.2
0 -6 10 82.49 4.2
-1 6 -10 49.99 3.1
-1 6 -10 45.6 3.2
1 -6 10 49.1 3.1
1 -6 10 45.1 3.1
1 -6 10 46.6 3.4
6 5 -10 93.79 4.4
6 5 -10 107.99 8.8
-6 -5 10 92.69 5.3
-6 -5 10 91.69 4.6
-6 -5 10 90.39 4.5
5 5 -10 134.09 5.9
5 5 -10 139.69 9.2
-5 -5 10 131.79 6
-5 -5 10 139.39 6.1
-5 -5 10 131.59 6.6
-4 -5 10 46.6 3.5
-4 -5 10 47.9 2.4
-4 -5 10 47.6 2.8
-4 -5 10 45.9 3.3
3 5 -10 225.78 9.2
-3 -5 10 214.78 8.8
-3 -5 10 213.38 9
-3 -5 10 222.98 9
-3 -5 10 221.38 9.6
2 5 -10 0 2.5
2 5 -10 1.7 1.1
-2 -5 10 0.5 0.9
-2 -5 10 0.9 1.3
-2 -5 10 -0.4 0.8
1 5 -10 92.29 4.8
1 5 -10 101.09 4.6
-1 -5 10 96.39 4.6
-1 -5 10 98.59 5.3
-1 -5 10 93.19 4.6
-1 -5 10 91.89 4.7
0 5 -10 84.09 4.1
0 5 -10 82.39 4.3
0 -5 10 78.99 4.1
0 -5 10 76.79 4.1
0 -5 10 81.69 4.2
-1 5 -10 32 2.6
-1 5 -10 38.8 2.9
1 -5 10 32.9 2.5
1 -5 10 33.4 2.5
1 -5 10 33.1 2.6
-2 5 -10 18.7 2.4
2 -5 10 16.5 2.1
2 -5 10 18.5 2.2
2 -5 10 18.4 2.1
6 4 -10 17.5 4.5
-6 -4 10 17.9 2.1
-6 -4 10 14.4 1.8
-6 -4 10 22.5 2.4
5 4 -10 41.3 5.6
5 4 -10 46.1 2.5
-5 -4 10 42.2 3.2
-5 -4 10 44.2 2.9
-5 -4 10 45.2 2.8
4 4 -10 67.19 3.6
4 4 -10 74.09 3.2
4 4 -10 67.29 6.9
-4 -4 10 73.39 4.1
-4 -4 10 68.69 3.8
-4 -4 10 61.09 4
3 4 -10 39.7 3
3 4 -10 34.8 2.1
-3 -4 10 36.8 3
-3 -4 10 39.2 2.1
2 4 -10 61.29 3.2
2 4 -10 62.69 3.7
-2 -4 10 61.29 3.9
-2 -4 10 63.89 3.3
-2 -4 10 62.39 3.1
1 4 -10 170.28 7.5
1 4 -10 173.38 7.3
-1 -4 10 170.98 7.3
-1 -4 10 170.08 7.3
-1 -4 10 169.98 7.3
0 4 -10 0 0.9
0 4 -10 1.1 0.9
0 -4 10 0.3 1
0 -4 10 -0.5 0.9
0 -4 10 -2.6 1.5
0 -4 10 0.9 0.9
-1 4 -10 165.58 7.6
-1 4 -10 178.38 7.7
1 -4 10 180.08 7.6
1 -4 10 172.08 7.6
1 -4 10 173.88 7.6
-2 4 -10 25.6 2.2
-2 4 -10 23.8 2.5
2 -4 10 28.7 2.5
2 -4 10 26.5 2.6
7 3 -10 78.99 4
7 3 -10 98.49 8.8
-7 -3 10 85.49 4.3
-7 -3 10 82.19 4.4
-7 -3 10 85.49 4.5
-7 -3 10 81.59 4.8
6 3 -10 20.9 1.8
6 3 -10 25.7 5
-6 -3 10 21.1 2.2
-6 -3 10 18.4 2.1
-6 -3 10 18.8 2.1
-6 -3 10 17.8 1.8
5 3 -10 89.19 8.1
5 3 -10 98.99 4.4
-5 -3 10 97.19 4.4
-5 -3 10 102.29 5.4
-5 -3 10 107.49 4.8
4 3 -10 8.3 1.4
4 3 -10 5.6 0.8
-4 -3 10 4.6 0.8
-4 -3 10 7.1 1.5
-4 -3 10 6.4 1.4
3 3 -10 22.7 1.6
-3 -3 10 20.4 2.3
-3 -3 10 24.2 1.6
-3 -3 10 23.6 1.6
-3 -3 10 27.3 2.3
2 3 -10 26 2.5
2 3 -10 32.7 1.9
-2 -3 10 28.5 2.7
-2 -3 10 27.9 2.4
-2 -3 10 27.5 1.8
-2 -3 10 27.1 1.8
1 3 -10 1.8 1.7
1 3 -10 1.7 1
-1 -3 10 2.3 1.4
-1 -3 10 1.5 1.1
-1 -3 10 2.4 1.1
0 3 -10 71.39 3.8
0 3 -10 68.79 3.9
0 -3 10 77.09 3.9
0 -3 10 77.09 3.9
-1 3 -10 5.9 1.1
-1 3 -10 4.5 1.1
1 -3 10 5.1 2
1 -3 10 4.3 1.1
1 -3 10 7.3 1.3
-2 3 -10 1.3 0.9
-2 3 -10 3.1 1.4
2 -3 10 0.9 1.1
2 -3 10 0.5 0.9
2 -3 10 -0.3 2
7 2 -10 23.9 5.9
7 2 -10 18.8 1.8
-7 -2 10 20.7 2.1
-7 -2 10 23.2 2.4
-7 -2 10 21.2 2.3
6 2 -10 67.29 3.7
6 2 -10 78.99 3.6
6 2 -10 82.29 7.7
-6 -2 10 77.09 3.7
-6 -2 10 76.29 3.9
-6 -2 10 78.49 3.6
-6 -2 10 77.29 4.3
5 2 -10 18.2 1.4
5 2 -10 18.3 1.6
-5 -2 10 19.7 1.8
-5 -2 10 21.7 2.2
-5 -2 10 19.6 1.9
-5 -2 10 20.2 1.5
4 2 -10 33.5 2.2
-4 -2 10 34.6 1.9
-4 -2 10 32.8 2.7
-4 -2 10 31.3 2.5
-4 -2 10 32.1 1.8
3 2 -10 198.08 8
-3 -2 10 205.18 9
-3 -2 10 195.88 8
-3 -2 10 200.98 7.9
-3 -2 10 213.48 8.9
2 2 -10 26.2 1.8
2 2 -10 28.6 2.4
-2 -2 10 28 2.4
-2 -2 10 26.2 1.7
-2 -2 10 26.3 1.7
-2 -2 10 31.5 3
1 2 -10 154.38 6.7
1 2 -10 144.39 7
-1 -2 10 149.49 6
-1 -2 10 145.79 6.3
-1 -2 10 154.48 6.6
0 2 -10 30.8 2.3
0 2 -10 31.5 2.3
0 -2 10 30.9 2.3
0 -2 10 30.3 2.3
0 -2 10 24.9 1.9
-1 2 -10 -0.2 0.9
-1 2 -10 0.3 0.8
1 -2 10 1.2 1.7
1 -2 10 1.2 1
1 -2 10 0.8 0.8
1 -2 10 -0.7 1
-2 2 -10 117.69 5.6
-2 2 -10 118.09 5.5
2 -2 10 111.39 5.6
2 -2 10 109.49 6.4
2 -2 10 119.09 5.6
2 -2 10 115.99 5.5
7 1 -10 51.19 7.7
7 1 -10 47.7 2.8
-7 -1 10 48.6 3.4
-7 -1 10 49.5 3.1
-7 -1 10 50.69 3.1
6 1 -10 13 1.4
6 1 -10 13.1 4.8
6 1 -10 12.1 1.4
-6 -1 10 12.1 1.9
-6 -1 10 14.2 1.7
5 1 -10 19.4 1.7
5 1 -10 16.9 5.7
5 1 -10 17.9 1.3
-5 -1 10 17.1 2.8
-5 -1 10 18.7 1.8
-5 -1 10 18.6 1.7
4 1 -10 361.56 13.8
-4 -1 10 342.87 13.4
-4 -1 10 353.26 14.3
-4 -1 10 366.16 13.9
-4 -1 10 348.67 13.4
3 1 -10 40.8 2.8
3 1 -10 33.8 1.9
-3 -1 10 35.9 3.1
-3 -1 10 33.7 2.1
-3 -1 10 37.2 2
-3 -1 10 37.1 2.5
2 1 -10 54.19 2.8
2 1 -10 54.49 3.3
-2 -1 10 56.19 3.8
-2 -1 10 52.79 2.7
-2 -1 10 54.99 2.7
-2 -1 10 55.59 3.1
1 1 -10 22.4 2.1
-1 -1 10 21.7 3
-1 -1 10 22.2 2
-1 -1 10 21.3 1.7
-1 -1 10 21.5 1.6
0 1 -10 5.5 1.1
0 1 -10 4.6 1
0 -1 10 3.8 1
0 -1 10 4.9 1.1
0 -1 10 3.7 1.1
0 -1 10 1.9 1.6
-1 1 -10 123.29 5.7
-1 1 -10 124.69 5.8
-1 1 -10 130.19 5.7
1 -1 10 132.29 5.8
1 -1 10 121.69 5.7
1 -1 10 116.99 6.4
1 -1 10 126.09 5.9
7 0 -10 47.7 2.7
7 0 -10 35.5 7.7
-7 0 10 49 3.2
-7 0 10 50.29 3
-7 0 10 50.79 3
6 0 -10 7.1 5.2
6 0 -10 10 1.3
6 0 -10 10.8 1.4
-6 0 10 10.5 1.8
-6 0 10 6.9 1.2
5 0 -10 136.49 5.7
5 0 -10 131.09 5.3
-5 0 10 131.79 5.9
-5 0 10 140.69 6.3
-5 0 10 113.29 5.7
4 0 -10 -4.3 3.8
4 0 -10 0 1.2
-4 0 10 0.6 0.7
-4 0 10 0.6 1
-4 0 10 2 1.8
3 0 -10 16.1 1.3
3 0 -10 23.2 2
-3 0 10 19.7 1.7
-3 0 10 13.5 2.6
2 0 -10 126.39 5.9
2 0 -10 130.49 5.5
-2 0 10 149.59 7.4
-2 0 10 120.59 5.8
-2 0 10 128.09 5.4
-2 0 10 128.09 5.5
1 0 -10 8.7 1.4
1 0 -10 9.2 1.4
-1 0 10 10.2 1.2
-1 0 10 8.9 1.4
-1 0 10 7.9 1.3
-1 0 10 7.5 2.3
0 0 -10 160.78 7.2
0 0 -10 159.38 7
0 0 -10 176.58 7.1
0 0 10 158.58 6.9
0 0 10 162.38 7
0 0 10 151.78 7.1
-1 0 -10 11.9 1.7
-1 0 -10 9.2 1.5
-1 0 -10 11.7 1.8
1 0 10 11.2 1.7
1 0 10 14.5 2.6
1 0 10 13.7 2.2
1 0 10 17 2
7 -1 -10 22.1 6.8
7 -1 -10 11.6 1.6
-7 1 10 13.3 1.9
-7 1 10 13.3 2
-7 1 10 11.6 1.8
6 -1 -10 54.59 8.6
6 -1 -10 62.39 3.3
6 -1 -10 57.39 3.6
-6 1 10 63.59 3.4
-6 1 10 58.19 3.7
-6 1 10 68.89 3.5
5 -1 -10 25.8 8.2
5 -1 -10 30.7 2.5
5 -1 -10 29.8 1.8
-5 1 10 26.9 3
-5 1 10 28.8 2.5
-5 1 10 28.3 2.2
4 -1 -10 6.5 1.1
4 -1 -10 6.3 1.4
-4 1 10 4.4 1.1
-4 1 10 5.2 1.4
-4 1 10 4.9 0.9
-4 1 10 3.5 1.1
3 -1 -10 30 2.4
3 -1 -10 28.8 1.8
-3 1 10 28.3 2.3
-3 1 10 24.7 2.8
-3 1 10 29.4 2.4
2 -1 -10 5.7 0.9
2 -1 -10 5.4 1.1
-2 1 10 5.4 1.9
-2 1 10 6.3 1.2
-2 1 10 7.4 1.4
1 -1 -10 40.6 2.8
1 -1 -10 46.2 2.8
1 -1 -10 47.9 2.5
-1 1 10 43.5 2.4
-1 1 10 42 2.7
-1 1 10 46.6 3
-1 1 10 34.4 3.4
0 -1 -10 19.9 2
0 -1 -10 14.7 2
0 -1 -10 16 2.3
0 1 10 13.9 2.5
0 1 10 15.9 1.8
0 1 10 17.8 2
0 1 10 21.6 2.2
-1 -1 -10 1.4 1
-1 -1 -10 -0.4 1
-1 -1 -10 -1 0.9
1 1 10 -0.5 1.2
1 1 10 0.6 1.6
1 1 10 1.5 0.9
1 1 10 0.8 1.2
7 -2 -10 21.7 1.9
7 -2 -10 21.6 2.5
7 -2 -10 25 7.7
-7 2 10 19.7 2.1
-7 2 10 27.6 2.3
-7 2 10 17.5 2.2
6 -2 -10 5.6 5.8
6 -2 -10 3.9 1.2
6 -2 -10 2.7 0.9
-6 2 10 5 1.2
-6 2 10 3.6 1.2
-6 2 10 4.5 1.5
-6 2 10 4 1.1
5 -2 -10 -4.4 5.8
5 -2 -10 -0.5 0.9
5 -2 -10 0.9 0.7
-5 2 10 0.6 0.9
-5 2 10 0.4 1.1
-5 2 10 0.5 1
-5 2 10 0.6 1.1
4 -2 -10 32.2 2.4
-4 2 10 35.5 2.2
-4 2 10 34.7 2.4
-4 2 10 33.9 2.6
3 -2 -10 3.8 4.4
3 -2 -10 11.2 1.8
3 -2 -10 9.9 1.2
-3 2 10 10.3 2.1
-3 2 10 12.4 1.5
-3 2 10 10.2 1.6
-3 2 10 15.6 1.9
2 -2 -10 36.4 2.6
-2 2 10 30.7 2.9
-2 2 10 37 2.5
-2 2 10 39 2.6
1 -2 -10 3.1 1.1
1 -2 -10 3.2 1
-1 2 10 4.5 1.3
-1 2 10 -0.2 1.8
-1 2 10 2.4 0.9
0 -2 -10 6.3 1.5
0 -2 -10 4.3 1.5
0 -2 -10 8.1 1.3
0 2 10 6.3 1.3
0 2 10 2.3 1.8
0 2 10 5.2 1.3
6 -3 -10 24.3 2.3
6 -3 -10 24.1 2
-6 3 10 27.7 3.4
-6 3 10 23.4 2.3
-6 3 10 26.7 2.3
5 -3 -10 86.09 4.3
5 -3 -10 83.49 4
-5 3 10 82.89 4.2
-5 3 10 82.19 4.4
-5 3 10 78.49 4.2
4 -3 -10 2 6.8
4 -3 -10 10.9 1.7
-4 3 10 11.2 1.8
-4 3 10 8.7 1.4
-4 3 10 9.4 2.3
3 -3 -10 54.49 2.8
3 -3 -10 54.09 3.2
-3 3 10 49.2 3.1
-3 3 10 53.49 3.2
2 -3 -10 23.4 2.2
2 -3 -10 19.6 2.2
-2 3 10 20.4 2.3
-2 3 10 19.2 2
1 -3 -10 2.3 1
1 -3 -10 1.5 1.1
-1 3 10 -0.6 1
-1 3 10 0.4 1.2
5 -4 -10 3.9 1.2
5 -4 -10 4.6 6.3
-5 4 10 1.6 1.2
-5 4 10 1.5 1.3
-5 4 10 5.5 1.1
4 -4 -10 31.8 2.7
-4 4 10 26.9 2.2
-4 4 10 27.5 2.5
-4 4 10 28.6 2.8
3 -4 -10 43.4 3
3 -4 -10 53.49 3.4
-3 4 10 47.9 3
-3 4 10 49.4 3.3
-3 4 10 53.89 3.5
2 -4 -10 3.9 1.1
2 -4 -10 6.7 1.4
-2 4 10 3 1.1
-2 4 10 3.3 1.8
-4 -6 11 0.7 1.7
-4 -6 11 -1.1 0.9
-4 -6 11 1.5 1.5
3 6 -11 123.99 5.8
-3 -6 11 102.79 6
-3 -6 11 111.59 5.3
-3 -6 11 109.99 5.1
-3 -6 11 109.59 5.2
2 6 -11 111.09 5.6
2 6 -11 116.69 5.2
-2 -6 11 112.29 5.2
-2 -6 11 110.19 5.3
-2 -6 11 111.89 6.2
-2 -6 11 107.99 5.2
1 6 -11 1.8 1.4
1 6 -11 1.5 1.1
-1 -6 11 4 1
-1 -6 11 1.5 1.8
-1 -6 11 2.6 1.2
-1 -6 11 2 1
5 5 -11 30.5 2.7
-5 -5 11 26.5 2.9
-5 -5 11 26.4 2.2
-5 -5 11 27 2.5
4 5 -11 19.1 5.1
4 5 -11 18.4 2.3
-4 -5 11 16.5 2.2
-4 -5 11 19.9 2.4
-4 -5 11 18.7 1.9
3 5 -11 122.49 5.5
3 5 -11 115.59 5.6
-3 -5 11 118.49 5.4
-3 -5 11 114.99 5.3
-3 -5 11 118.59 5.3
-3 -5 11 109.39 6.1
2 5 -11 63.59 3.7
2 5 -11 62.89 3.5
-2 -5 11 57.09 3.4
-2 -5 11 57.59 3.3
-2 -5 11 59.09 3.3
-2 -5 11 61.69 4.1
1 5 -11 175.98 7.3
1 5 -11 172.78 7.6
-1 -5 11 148.19 8.3
-1 -5 11 173.18 7.4
-1 -5 11 165.68 7.3
-1 -5 11 170.88 7.3
0 5 -11 0.8 1.1
0 5 -11 0.5 1
0 -5 11 0.3 1.1
0 -5 11 -1.3 1.8
0 -5 11 -1.5 0.9
0 -5 11 0 1
-6 -4 11 12 2.1
5 4 -11 16.9 2.7
5 4 -11 7.9 3.9
-5 -4 11 11.1 1.6
-5 -4 11 10.7 1.9
-5 -4 11 12 1.6
4 4 -11 26.6 2.5
-4 -4 11 24.5 2.6
-4 -4 11 28.1 2.3
-4 -4 11 23.7 2.1
3 4 -11 0.5 1.1
3 4 -11 -4.5 4.1
3 4 -11 1.9 1
-3 -4 11 2.1 1.1
-3 -4 11 1.2 0.9
-3 -4 11 2.6 0.9
-3 -4 11 4.9 1.6
2 4 -11 109.39 5.2
2 4 -11 107.49 5.2
-2 -4 11 105.29 5.7
-2 -4 11 106.79 5
-2 -4 11 105.29 5.1
-2 -4 11 107.79 5.1
1 4 -11 1.5 1
1 4 -11 2.7 1.1
-1 -4 11 -1.7 1.7
-1 -4 11 0.1 0.9
-1 -4 11 1.7 1
-1 -4 11 -0.3 1
0 4 -11 3 1.2
0 4 -11 0.2 0.9
0 -4 11 0.7 0.9
0 -4 11 1.9 0.9
0 -4 11 3.3 1.2
0 -4 11 0.9 1.8
6 3 -11 22.5 6.1
-6 -3 11 21.4 2.2
-6 -3 11 21.7 3.4
-6 -3 11 21.2 2
5 3 -11 88.69 4.4
-5 -3 11 72.69 4.6
-5 -3 11 87.39 4.8
-5 -3 11 86.29 4.3
4 3 -11 2.2 1.2
4 3 -11 7.7 4.3
-4 -3 11 2.6 1.3
-4 -3 11 4.7 1.2
3 3 -11 93.59 4.5
3 3 -11 92.69 4.2
-3 -3 11 88.19 5
-3 -3 11 90.69 4.5
-3 -3 11 85.59 4.4
2 3 -11 10.4 1.8
2 3 -11 9.7 1.5
-2 -3 11 10.1 2
-2 -3 11 9.7 1.4
-2 -3 11 8.6 1.4
1 3 -11 48.4 3
1 3 -11 49 3.1
-1 -3 11 48.8 3.1
-1 -3 11 49.7 3
0 3 -11 199.38 8.8
0 3 -11 201.58 8.6
0 -3 11 207.88 8.7
0 -3 11 207.68 8.7
6 2 -11 96.09 9.3
-6 -2 11 121.39 5.9
-6 -2 11 121.49 5.9
-5 -2 11 10.5 1.9
-5 -2 11 11.5 1.7
-5 -2 11 15.1 2.2
4 2 -11 -1.1 4.7
4 2 -11 5.1 1.2
-4 -2 11 4.3 1.2
-4 -2 11 4.3 0.9
-4 -2 11 4.4 0.8
-4 -2 11 4.4 1.4
3 2 -11 3.6 0.8
3 2 -11 3.1 1
3 2 -11 -1.4 3.4
-3 -2 11 3.3 1.5
-3 -2 11 4.4 1.1
-3 -2 11 4.2 0.8
-3 -2 11 2.9 0.8
2 2 -11 1.9 1
2 2 -11 2.4 1.1
-2 -2 11 1.6 1.8
-2 -2 11 1.2 0.9
-2 -2 11 2.2 0.9
1 2 -11 163.68 6.7
1 2 -11 154.38 6.9
-1 -2 11 146.19 6.6
-1 -2 11 145.09 6.8
0 2 -11 1.5 1
0 2 -11 1.4 0.9
0 -2 11 -1.4 1.7
0 -2 11 0.8 0.9
0 -2 11 1.5 1.1
6 1 -11 38.1 3
-6 -1 11 34 2.8
-6 -1 11 41.8 3.1
5 1 -11 199.38 8.4
-5 -1 11 199.08 8.5
-5 -1 11 199.78 8.8
4 1 -11 254.57 9.4
-4 -1 11 223.48 9.5
-4 -1 11 225.68 9.1
-4 -1 11 212.88 9.9
3 1 -11 4.3 0.8
3 1 -11 3.6 1.7
-3 -1 11 4.8 0.8
-3 -1 11 2.3 1
-3 -1 11 3.1 1.1
-3 -1 11 1.2 1.6
2 1 -11 78.79 4
2 1 -11 77.19 4.1
-2 -1 11 77.09 3.9
-2 -1 11 70.59 4.7
-2 -1 11 81.09 4.1
-2 -1 11 76.89 3.7
1 1 -11 12.1 1.7
1 1 -11 17 2.2
-1 -1 11 16.2 1.9
-1 -1 11 17.7 2
-1 -1 11 12.9 2.6
0 1 -11 22.8 2
0 1 -11 20.2 2.3
0 -1 11 20.4 2.5
0 -1 11 17.5 2.1
0 -1 11 17.3 1.9
6 0 -11 20.8 1.8
6 0 -11 19 2.4
6 0 -11 23.9 7
-6 0 11 17.4 2.3
-6 0 11 17.7 2.1
-6 0 11 19 2.2
5 0 -11 58.69 3.4
-5 0 11 52.49 3.3
-5 0 11 57.29 3.5
4 0 -11 9.7 1.5
4 0 -11 5.2 9.2
-4 0 11 11.1 1.7
-4 0 11 13.5 2.2
-4 0 11 8.3 1.4
3 0 -11 65.19 3.1
3 0 -11 64.19 3.6
-3 0 11 63.19 3.6
-3 0 11 63.69 3.7
-3 0 11 58.29 3.9
2 0 -11 18.9 2.1
-2 0 11 16 2.6
-2 0 11 18.9 1.9
-2 0 11 19 2.5
1 0 -11 57.59 3.3
1 0 -11 51.19 3.1
-1 0 11 49.6 3.2
-1 0 11 52.29 3.3
-1 0 11 49.8 3
0 0 11 60.69 3.7
0 0 11 60.39 3.4
6 -1 -11 17.6 2.5
6 -1 -11 15.1 2.1
6 -1 -11 11.4 6.4
-6 1 11 14.1 1.9
-6 1 11 13.2 1.8
-6 1 11 14.8 2
5 -1 -11 0.9 1.1
5 -1 -11 -4.5 5.9
-5 1 11 1.5 1.1
-5 1 11 0.7 1.3
-5 1 11 0.3 1.2
-5 1 11 3.4 1.2
4 -1 -11 63.09 3.6
-4 1 11 57.99 3.5
-4 1 11 64.29 3.5
-4 1 11 62.99 4.1
3 -1 -11 6.4 1.3
3 -1 -11 6.9 1.1
-3 1 11 4.7 1.2
-3 1 11 4 1.3
-3 1 11 5 2
2 -1 -11 3.9 1.3
2 -1 -11 2.7 1.1
-2 1 11 2.1 1.1
-2 1 11 4.8 1.3
-2 1 11 5.6 1.9
1 -1 -11 19.4 2.4
1 -1 -11 18.1 2
-1 1 11 19.4 2.4
-1 1 11 23.7 2.3
-1 1 11 13.9 2.5
-6 2 11 0.5 1.1
5 -2 -11 43.1 3.3
5 -2 -11 49.6 3.2
-5 2 11 54.89 3.3
-5 2 11 49.7 3.2
-5 2 11 56.89 3.7
-5 2 11 42.7 3.4
4 -2 -11 19.3 2.3
-4 2 11 21 2.2
-4 2 11 19.3 2.9
-4 2 11 20 2.3
3 -2 -11 -0.2 1.3
3 -2 -11 0.3 1.1
-3 2 11 -1.6 2
-3 2 11 0.5 1.2
-3 2 11 -0.7 1
2 -2 -11 14.4 2.2
2 -2 -11 13.9 1.8
-2 2 11 12.2 1.7
-2 2 11 13.2 1.9
3 4 -12 31.7 2.7
-3 -4 12 31.1 2.4
-3 -4 12 35.7 2.4
-3 -4 12 33.6 2.6
-3 -4 12 33.7 3.4
4 3 -12 4.1 1.2
4 3 -12 -2.9 4.3
-4 -3 12 2.8 1.3
-4 -3 12 3.2 1.5
-4 -3 12 3.7 1
3 3 -12 59.79 3.6
3 3 -12 64.49 3.5
-3 -3 12 59.99 4.3
-3 -3 12 53.99 3.4
-3 -3 12 57.79 3.2
2 3 -12 3.4 1.1
2 3 -12 2.7 1.2
-2 -3 12 0.9 1
-2 -3 12 4.4 1.2
-2 -3 12 4 2
-5 -2 12 0.7 1.2
4 2 -12 4.6 1.3
4 2 -12 -2.9 4.7
-4 -2 12 1.8 1.6
-4 -2 12 4.5 1.3
3 2 -12 0.3 1
3 2 -12 0.8 1.2
-3 -2 12 -0.3 0.9
-3 -2 12 1.6 1.7
-3 -2 12 -0.5 1
2 2 -12 51.09 3.4
2 2 -12 52.09 3.1
-2 -2 12 48.8 2.9
-2 -2 12 48.2 4.2
-2 -2 12 53.39 4.1
-5 -1 12 48.7 3.2
4 1 -12 2.8 5.7
4 1 -12 5.7 1.4
-4 -1 12 6.1 1.6
-4 -1 12 7.7 1.9
3 1 -12 35 3.1
-3 -1 12 42.2 3.8
-3 -1 12 49.7 3.1
-3 -1 12 46.7 3.3
-2 -1 12 19.2 2.3
-4 0 12 19.3 2.3
-4 0 12 17.7 2.5
-4 0 12 22.1 2.8
-3 0 12 12.5 2
loop_
_geom_angle_atom_site_label_1
_geom_angle_atom_site_label_2
_geom_angle_atom_site_label_3
_geom_angle
_geom_angle_site_symmetry_1
_geom_angle_site_symmetry_3
_geom_angle_publ_flag
O3 Cu1 O3 180.0 . 2_656 y
N1 Cu1 O3 89.36(5) . . y
N1 Cu1 O3 90.64(5) 2_656 . y
N1 Cu1 O3 90.64(5) . 2_656 y
N1 Cu1 O3 89.36(5) 2_656 2_656 y
N1 Cu1 N1 180.0 2_656 . y
H3a O3 Cu1 117.4(16) . 2_656 ?
H3b O3 Cu1 115(2) . 2_656 ?
H3b O3 H3a 110(2) . . ?
C1 N1 Cu1 109.09(8) . 2_656 ?
C5 N1 Cu1 131.73(9) . 2_656 ?
C5 N1 C1 119.06(11) . . ?
N1 C1 O1 119.87(12) . . ?
N2 C1 O1 121.20(12) . . ?
N2 C1 N1 118.94(12) . . ?
C3 N2 C1 122.76(11) . . ?
C6 N2 C1 117.81(12) . . ?
C6 N2 C3 119.43(11) . . ?
N2 C3 O2 119.35(12) . . ?
C4 C3 O2 124.05(13) . . ?
C4 C3 N2 116.60(11) . . ?
H4 C4 C3 119.1(12) . . ?
C5 C4 C3 117.65(12) . . ?
C5 C4 H4 123.2(12) . . ?
N1 C5 Cl1 114.47(10) . . ?
C4 C5 Cl1 120.65(11) . . ?
C4 C5 N1 124.88(12) . . ?
H6a C6 N2 109.5 . . ?
H6b C6 N2 109.5 . . ?
H6b C6 H6a 109.5 . . ?
H6c C6 N2 109.5 . . ?
H6c C6 H6a 109.5 . . ?
H6c C6 H6b 109.5 . . ?
H4b O4 H4a 105(3) . . ?
H5b O5 H5a 103(3) . . ?
loop_
_geom_bond_atom_site_label_1
_geom_bond_atom_site_label_2
_geom_bond_distance
_geom_bond_site_symmetry_2
_geom_bond_publ_flag
Cu1 O3 1.9524(12) 2_656 y
Cu1 O3 1.9524(12) . y
Cu1 N1 1.9725(13) 2_656 y
Cu1 N1 1.9725(13) . y
Cl1 C5 1.7281(15) . ?
O1 C1 1.2470(17) . ?
O2 C3 1.2421(17) . ?
O3 H3a 0.84(3) . ?
O3 H3b 0.70(3) . ?
N1 C1 1.3572(18) . ?
N1 C5 1.3464(18) . ?
C1 N2 1.3810(17) . ?
N2 C3 1.3922(18) . ?
N2 C6 1.4719(19) . ?
C3 C4 1.427(2) . ?
C4 H4 0.907(19) . ?
C4 C5 1.3540(19) . ?
C6 H6a 0.9800 . ?
C6 H6b 0.9800 . ?
C6 H6c 0.9800 . ?
O4 H4a 0.93(3) . ?
O4 H4b 0.72(3) . ?
O5 H5a 0.85(3) . ?
O5 H5b 0.80(3) . ?
loop_
_geom_hbond_atom_site_label_D
_geom_hbond_atom_site_label_H
_geom_hbond_atom_site_label_A
_geom_hbond_distance_DH
_geom_hbond_distance_HA
_geom_hbond_distance_DA
_geom_hbond_angle_DHA
_geom_hbond_site_symmetry_A
O3 H3a O4 0.84(3) 1.82(3) 2.6629(18) 174(2) .
O3 H3b O2 0.70(3) 1.99(3) 2.687(2) 179(3) 1_545
O4 H4a O5 0.93(3) 1.86(3) 2.784(2) 173(2) .
O5 H5a O1 0.85(3) 2.03(4) 2.870(2) 166(3) 2_655
