#------------------------------------------------------------------------------
#$Date: 2021-09-09 01:53:06 +0300 (Thu, 09 Sep 2021) $
#$Revision: 269052 $
#$URL: file:///home/coder/svn-repositories/cod/cif/7/70/82/7708241.cif $
#------------------------------------------------------------------------------
#
# This file is available in the Crystallography Open Database (COD),
# http://www.crystallography.net/
#
# All data on this site have been placed in the public domain by the
# contributors.
#
data_7708241
loop_
_publ_author_name
'Lei, Caijin'
'Yang, Hongwei'
'Zhang, Qinghua'
'Cheng, Guangbin'
_publ_section_title
;
 Synthesis of nitrogen-rich and thermostable energetic materials based on
 hetarenecarboxylic acids
;
_journal_name_full               'Dalton Transactions'
_journal_paper_doi               10.1039/D1DT02854E
_journal_year                    2021
_chemical_formula_moiety         'C5 H6 N10 O'
_chemical_formula_sum            'C5 H6 N10 O'
_chemical_formula_weight         222.20
_space_group_crystal_system      triclinic
_space_group_IT_number           2
_space_group_name_Hall           '-P 1'
_space_group_name_H-M_alt        'P -1'
_atom_sites_solution_hydrogens   difmap
_atom_sites_solution_primary     dual
_audit_creation_date             2021-03-18
_audit_creation_method
;
Olex2 1.2
(compiled 2018.05.29 svn.r3508 for OlexSys, GUI svn.r5506)
;
_audit_update_record
;
2021-04-19 deposited with the CCDC.	2021-09-08 downloaded from the CCDC.
;
_cell_angle_alpha                108.619(5)
_cell_angle_beta                 109.314(5)
_cell_angle_gamma                92.750(5)
_cell_formula_units_Z            2
_cell_length_a                   6.8113(9)
_cell_length_b                   8.2072(10)
_cell_length_c                   8.5119(12)
_cell_measurement_reflns_used    1467
_cell_measurement_temperature    170(2)
_cell_measurement_theta_max      26.381
_cell_measurement_theta_min      2.659
_cell_volume                     419.23(10)
_computing_cell_refinement       'SAINT V8.40A (?, 2016)'
_computing_data_reduction        'SAINT V8.40A (?, 2016)'
_computing_molecular_graphics    'Olex2 (Dolomanov et al., 2009)'
_computing_publication_material  'Olex2 (Dolomanov et al., 2009)'
_computing_structure_refinement  'ShelXL (Sheldrick, 2015)'
_computing_structure_solution    'ShelXT (Sheldrick, 2015)'
_diffrn_ambient_temperature      170.0
_diffrn_measured_fraction_theta_full 0.995
_diffrn_measured_fraction_theta_max 0.988
_diffrn_measurement_device_type  'Bruker APEX-II CCD'
_diffrn_measurement_method       '\f and \w scans'
_diffrn_radiation_type           MoK\a
_diffrn_radiation_wavelength     0.71073
_diffrn_reflns_av_R_equivalents  0.0468
_diffrn_reflns_av_unetI/netI     0.0580
_diffrn_reflns_Laue_measured_fraction_full 0.995
_diffrn_reflns_Laue_measured_fraction_max 0.988
_diffrn_reflns_limit_h_max       8
_diffrn_reflns_limit_h_min       -8
_diffrn_reflns_limit_k_max       10
_diffrn_reflns_limit_k_min       -10
_diffrn_reflns_limit_l_max       10
_diffrn_reflns_limit_l_min       -10
_diffrn_reflns_number            4856
_diffrn_reflns_point_group_measured_fraction_full 0.995
_diffrn_reflns_point_group_measured_fraction_max 0.988
_diffrn_reflns_theta_full        25.242
_diffrn_reflns_theta_max         26.421
_diffrn_reflns_theta_min         2.658
_diffrn_standards_number         0
_exptl_absorpt_coefficient_mu    0.138
_exptl_absorpt_correction_T_max  0.7454
_exptl_absorpt_correction_T_min  0.6784
_exptl_absorpt_correction_type   multi-scan
_exptl_absorpt_process_details
'SADABS-2016/2 (Bruker,2016/2) was used for absorption correction. wR2(int) was 0.0670 before and 0.0544 after correction. The Ratio of minimum to maximum transmission is 0.9101. The \l/2 correction factor is Not present.'
_exptl_crystal_colour            colourless
_exptl_crystal_colour_primary    colourless
_exptl_crystal_density_diffrn    1.760
_exptl_crystal_description       block
_exptl_crystal_F_000             228
_exptl_crystal_size_max          0.15
_exptl_crystal_size_mid          0.08
_exptl_crystal_size_min          0.05
_refine_diff_density_max         0.249
_refine_diff_density_min         -0.246
_refine_diff_density_rms         0.056
_refine_ls_extinction_method     none
_refine_ls_goodness_of_fit_ref   1.031
_refine_ls_hydrogen_treatment    mixed
_refine_ls_matrix_type           full
_refine_ls_number_parameters     155
_refine_ls_number_reflns         1710
_refine_ls_number_restraints     0
_refine_ls_restrained_S_all      1.031
_refine_ls_R_factor_all          0.0782
_refine_ls_R_factor_gt           0.0461
_refine_ls_shift/su_max          0.000
_refine_ls_shift/su_mean         0.000
_refine_ls_structure_factor_coef Fsqd
_refine_ls_weighting_details
'w=1/[\s^2^(Fo^2^)+(0.0474P)^2^+0.2140P] where P=(Fo^2^+2Fc^2^)/3'
_refine_ls_weighting_scheme      calc
_refine_ls_wR_factor_gt          0.1013
_refine_ls_wR_factor_ref         0.1219
_reflns_Friedel_coverage         0.000
_reflns_number_gt                1207
_reflns_number_total             1710
_reflns_threshold_expression     'I > 2\s(I)'
_iucr_refine_instructions_details
;
TITL mo_2021278_0m_a.res in P-1
    mo_2021278_0m.res
    created by SHELXL-2018/3 at 09:25:16 on 18-Mar-2021
REM Old TITL mo_2021278_0m_a.res in P-1
REM SHELXT solution in P-1
REM R1 0.171, Rweak 0.008, Alpha 0.039, Orientation as input
REM Formula found by SHELXT: C15 O
CELL 0.71073 6.8113 8.2072 8.5119 108.619 109.314 92.75
ZERR 2 0.0009 0.001 0.0012 0.005 0.005 0.005
LATT 1
SFAC C H N O
UNIT 10 12 20 2

L.S. 20
PLAN  10
SIZE 0.15 0.08 0.05
TEMP -103.15
BOND $H
list 4
fmap 2
ACTA
REM <olex2.extras>
REM <HklSrc "%.\\mo_2021278_0m.hkl">
REM </olex2.extras>

WGHT    0.047400    0.214000
FVAR       1.44066
O1    4    0.400286    0.056089    0.822834    11.00000    0.03908    0.03506 =
         0.02585    0.01727    0.01280    0.00417
N6    3    0.238985    0.249553    0.392702    11.00000    0.01751    0.02818 =
         0.02102    0.01225    0.00708    0.00131
N4    3    0.593190    0.285813    0.465863    11.00000    0.02300    0.02358 =
         0.01618    0.00956    0.00402    0.00339
N5    3    0.492210    0.335426    0.322131    11.00000    0.02024    0.02321 =
         0.01630    0.00957    0.00494    0.00390
N8    3    0.354675    0.425699    0.101602    11.00000    0.02428    0.02933 =
         0.02136    0.01142    0.00761    0.00342
N9    3    0.735998    0.458129    0.219840    11.00000    0.02521    0.03182 =
         0.02331    0.01421    0.01093    0.00753
AFIX   7
H9A   2    0.811005    0.374996    0.230827    11.00000   -1.20000
H9B   2    0.730001    0.477491    0.122337    11.00000   -1.20000
AFIX   0
N7    3    0.184820    0.368027    0.145352    11.00000    0.02126    0.03183 =
         0.02388    0.01346    0.00496    0.00275
N2    3    0.859327    0.204268    0.778622    11.00000    0.02270    0.04395 =
         0.02571    0.01929    0.00128    0.00061
N3    3    0.308425    0.105326    0.680389    11.00000    0.03266    0.02978 =
         0.02435    0.01492    0.01121    0.00636
N10   3    0.036009    0.219864    0.394327    11.00000    0.02135    0.04457 =
         0.03808    0.02256    0.01056    0.00287
AFIX   7
H10A  2   -0.001770    0.107560    0.369641    11.00000   -1.20000
H10B  2    0.036004    0.279144    0.500915    11.00000   -1.20000
AFIX   0
N1    3    0.621436    0.089341    0.879171    11.00000    0.03377    0.03055 =
         0.02350    0.01270    0.00644    0.00286
C4    1    0.280461    0.315659    0.275951    11.00000    0.01854    0.02136 =
         0.02131    0.00874    0.00496    0.00236
C3    1    0.433456    0.234474    0.503193    11.00000    0.01986    0.01953 =
         0.01773    0.00675    0.00575    0.00321
C1    1    0.661074    0.159189    0.772226    11.00000    0.02851    0.02064 =
         0.01850    0.00622    0.00616    0.00314
C2    1    0.463978    0.168589    0.647585    11.00000    0.02410    0.01799 =
         0.01979    0.00721    0.00807    0.00326
C5    1    0.535513    0.405424    0.207910    11.00000    0.02489    0.02092 =
         0.01824    0.00814    0.00683    0.00296
H2A   2    0.960815    0.230744    0.886300    11.00000    0.04493
H2B   2    0.868643    0.275883    0.721301    11.00000    0.04057
HKLF 4




REM  mo_2021278_0m_a.res in P-1
REM wR2 = 0.1219, GooF = S = 1.031, Restrained GooF = 1.031 for all data
REM R1 = 0.0461 for 1207 Fo > 4sig(Fo) and 0.0782 for all 1710 data
REM 155 parameters refined using 0 restraints

END  
     
WGHT      0.0417      0.1893 

REM Highest difference peak  0.249,  deepest hole -0.246,  1-sigma level  0.056
Q1    1   0.4585  0.2201  0.5979  11.00000  0.05    0.25
Q2    1   0.8023 -0.0172  0.9088  11.00000  0.05    0.21
Q3    1   0.6245  0.5722  0.1273  11.00000  0.05    0.20
Q4    1   0.4026  0.2165  0.7024  11.00000  0.05    0.20
Q5    1   0.9565  0.1380  0.7428  11.00000  0.05    0.20
Q6    1   0.4047  0.3471  0.3124  11.00000  0.05    0.20
Q7    1   0.5103  0.4358 -0.0370  11.00000  0.05    0.19
Q8    1   0.5806  0.0908  0.6696  11.00000  0.05    0.19
Q9    1   0.6983  0.2635  0.5133  11.00000  0.05    0.18
Q10   1   0.5104  0.5402  0.3959  11.00000  0.05    0.18

  REM The information below was added by Olex2.
  REM
  REM R1 = 0.0461 for 1207 Fo > 4sig(Fo) and 0.0782 for all 4856 data
  REM n/a parameters refined using n/a restraints
  REM Highest difference peak 0.25, deepest hole -0.25
  REM Mean Shift 0, Max Shift 0.000.

  REM +++ Tabular Listing of Refinement Information +++
  REM R1_all = 0.0782
  REM R1_gt = 0.0461
  REM wR_ref = 0.1219
  REM GOOF = 1.031
  REM Shift_max = 0.000
  REM Shift_mean = 0
  REM Reflections_all = 4856
  REM Reflections_gt = 1207
  REM Parameters = n/a
  REM Hole = -0.25
  REM Peak = 0.25
  REM Flack = n/a

  
;
_cod_data_source_file            d1dt02854e2.cif
_cod_data_source_block           mo_2021278_0m
_cod_database_code               7708241
_shelx_shelxl_version_number     2018/3
_shelx_space_group_comment
;
The symmetry employed for this shelxl refinement is uniquely defined
by the following loop, which should always be used as a source of
symmetry information in preference to the above space-group names.
They are only intended as comments.
;
_shelx_estimated_absorpt_t_max   0.993
_shelx_estimated_absorpt_t_min   0.980
_olex2_refinement_description
;
1. Fixed Uiso
 At 1.2 times of:
  All N(H,H) groups
2.a Rotating group:
 N9(H9A,H9B), N10(H10A,H10B)
;
_olex2_submission_special_instructions 'No special instructions were received'
loop_
_space_group_symop_operation_xyz
'x, y, z'
'-x, -y, -z'
loop_
_atom_site_label
_atom_site_type_symbol
_atom_site_fract_x
_atom_site_fract_y
_atom_site_fract_z
_atom_site_U_iso_or_equiv
_atom_site_adp_type
_atom_site_occupancy
_atom_site_site_symmetry_order
_atom_site_calc_flag
_atom_site_refinement_flags_posn
_atom_site_refinement_flags_adp
_atom_site_refinement_flags_occupancy
_atom_site_disorder_assembly
_atom_site_disorder_group
O1 O 0.4003(3) 0.0561(2) 0.8228(2) 0.0315(4) Uani 1 1 d . . . . .
N6 N 0.2390(3) 0.2496(2) 0.3927(2) 0.0214(4) Uani 1 1 d . . . . .
N4 N 0.5932(3) 0.2858(2) 0.4659(2) 0.0211(4) Uani 1 1 d . . . . .
N5 N 0.4922(3) 0.3354(2) 0.3221(2) 0.0197(4) Uani 1 1 d . . . . .
N8 N 0.3547(3) 0.4257(2) 0.1016(2) 0.0246(5) Uani 1 1 d . . . . .
N9 N 0.7360(3) 0.4581(2) 0.2198(2) 0.0250(5) Uani 1 1 d . . . . .
H9A H 0.811005 0.374996 0.230827 0.030 Uiso 1 1 d GR . . . .
H9B H 0.730001 0.477491 0.122337 0.030 Uiso 1 1 d GR . . . .
N7 N 0.1848(3) 0.3680(2) 0.1454(2) 0.0257(5) Uani 1 1 d . . . . .
N2 N 0.8593(3) 0.2043(3) 0.7786(3) 0.0312(5) Uani 1 1 d . . . . .
N3 N 0.3084(3) 0.1053(2) 0.6804(3) 0.0273(5) Uani 1 1 d . . . . .
N10 N 0.0360(3) 0.2199(3) 0.3943(3) 0.0328(5) Uani 1 1 d . . . . .
H10A H -0.001770 0.107560 0.369641 0.039 Uiso 1 1 d GR . . . .
H10B H 0.036004 0.279144 0.500915 0.039 Uiso 1 1 d GR . . . .
N1 N 0.6214(3) 0.0893(3) 0.8792(3) 0.0297(5) Uani 1 1 d . . . . .
C4 C 0.2805(3) 0.3157(3) 0.2760(3) 0.0208(5) Uani 1 1 d . . . . .
C3 C 0.4335(3) 0.2345(3) 0.5032(3) 0.0193(5) Uani 1 1 d . . . . .
C1 C 0.6611(3) 0.1592(3) 0.7722(3) 0.0234(5) Uani 1 1 d . . . . .
C2 C 0.4640(3) 0.1686(3) 0.6476(3) 0.0205(5) Uani 1 1 d . . . . .
C5 C 0.5355(3) 0.4054(3) 0.2079(3) 0.0214(5) Uani 1 1 d . . . . .
H2A H 0.961(4) 0.231(3) 0.886(4) 0.045(8) Uiso 1 1 d . . . . .
H2B H 0.869(4) 0.276(3) 0.721(4) 0.041(8) Uiso 1 1 d . . . . .
loop_
_atom_site_aniso_label
_atom_site_aniso_U_11
_atom_site_aniso_U_22
_atom_site_aniso_U_33
_atom_site_aniso_U_23
_atom_site_aniso_U_13
_atom_site_aniso_U_12
O1 0.0391(10) 0.0351(10) 0.0259(9) 0.0173(8) 0.0128(8) 0.0042(7)
N6 0.0175(9) 0.0282(10) 0.0210(10) 0.0122(8) 0.0071(8) 0.0013(7)
N4 0.0230(10) 0.0236(10) 0.0162(10) 0.0096(8) 0.0040(8) 0.0034(7)
N5 0.0202(10) 0.0232(10) 0.0163(9) 0.0096(8) 0.0049(7) 0.0039(7)
N8 0.0243(10) 0.0293(11) 0.0214(10) 0.0114(9) 0.0076(8) 0.0034(8)
N9 0.0252(10) 0.0318(11) 0.0233(11) 0.0142(9) 0.0109(8) 0.0075(8)
N7 0.0213(10) 0.0318(11) 0.0239(11) 0.0135(9) 0.0050(8) 0.0028(8)
N2 0.0227(11) 0.0440(13) 0.0257(12) 0.0193(11) 0.0013(9) 0.0006(9)
N3 0.0327(11) 0.0298(11) 0.0244(11) 0.0149(9) 0.0112(9) 0.0064(8)
N10 0.0214(11) 0.0446(13) 0.0381(13) 0.0226(11) 0.0106(9) 0.0029(9)
N1 0.0338(12) 0.0305(11) 0.0235(11) 0.0127(9) 0.0064(9) 0.0029(9)
C4 0.0185(11) 0.0214(11) 0.0213(12) 0.0087(10) 0.0050(9) 0.0024(8)
C3 0.0199(11) 0.0195(11) 0.0177(11) 0.0067(9) 0.0057(9) 0.0032(8)
C1 0.0285(12) 0.0206(12) 0.0185(12) 0.0062(9) 0.0062(9) 0.0031(9)
C2 0.0241(11) 0.0180(11) 0.0198(12) 0.0072(9) 0.0081(9) 0.0033(9)
C5 0.0249(12) 0.0209(11) 0.0182(12) 0.0081(10) 0.0068(9) 0.0030(9)
loop_
_atom_type_symbol
_atom_type_description
_atom_type_scat_dispersion_real
_atom_type_scat_dispersion_imag
_atom_type_scat_source
C C 0.0033 0.0016 'International Tables Vol C Tables 4.2.6.8 and 6.1.1.4'
H H 0.0000 0.0000 'International Tables Vol C Tables 4.2.6.8 and 6.1.1.4'
N N 0.0061 0.0033 'International Tables Vol C Tables 4.2.6.8 and 6.1.1.4'
O O 0.0106 0.0060 'International Tables Vol C Tables 4.2.6.8 and 6.1.1.4'
loop_
_geom_angle_atom_site_label_1
_geom_angle_atom_site_label_2
_geom_angle_atom_site_label_3
_geom_angle
_geom_angle_site_symmetry_1
_geom_angle_site_symmetry_3
_geom_angle_publ_flag
N3 O1 N1 111.03(16) . . ?
C4 N6 N10 122.63(17) . . ?
C4 N6 C3 105.74(17) . . ?
C3 N6 N10 131.49(18) . . ?
C3 N4 N5 101.96(16) . . ?
C4 N5 N4 113.42(17) . . ?
C4 N5 C5 105.56(17) . . ?
C5 N5 N4 140.99(18) . . ?
C5 N8 N7 109.80(17) . . ?
H9A N9 H9B 109.2 . . ?
C5 N9 H9A 109.1 . . ?
C5 N9 H9B 109.5 . . ?
C4 N7 N8 102.99(17) . . ?
C1 N2 H2A 114.4(18) . . ?
C1 N2 H2B 114.5(17) . . ?
H2A N2 H2B 115(2) . . ?
C2 N3 O1 105.79(17) . . ?
N6 N10 H10A 109.2 . . ?
N6 N10 H10B 109.4 . . ?
H10A N10 H10B 109.2 . . ?
C1 N1 O1 105.27(17) . . ?
N5 C4 N6 105.23(17) . . ?
N7 C4 N6 140.8(2) . . ?
N7 C4 N5 113.91(19) . . ?
N6 C3 C2 124.53(19) . . ?
N4 C3 N6 113.65(18) . . ?
N4 C3 C2 121.83(18) . . ?
N2 C1 C2 128.0(2) . . ?
N1 C1 N2 123.6(2) . . ?
N1 C1 C2 108.4(2) . . ?
N3 C2 C3 123.40(19) . . ?
N3 C2 C1 109.54(19) . . ?
C1 C2 C3 127.1(2) . . ?
N5 C5 N9 123.90(19) . . ?
N8 C5 N5 107.75(19) . . ?
N8 C5 N9 128.1(2) . . ?
loop_
_geom_bond_atom_site_label_1
_geom_bond_atom_site_label_2
_geom_bond_distance
_geom_bond_site_symmetry_2
_geom_bond_publ_flag
O1 N3 1.364(2) . ?
O1 N1 1.404(2) . ?
N6 N10 1.398(2) . ?
N6 C4 1.370(3) . ?
N6 C3 1.386(3) . ?
N4 N5 1.387(2) . ?
N4 C3 1.316(3) . ?
N5 C4 1.350(3) . ?
N5 C5 1.376(3) . ?
N8 N7 1.430(3) . ?
N8 C5 1.320(3) . ?
N9 H9A 0.8820 . ?
N9 H9B 0.8821 . ?
N9 C5 1.373(3) . ?
N7 C4 1.303(3) . ?
N2 C1 1.362(3) . ?
N2 H2A 0.90(3) . ?
N2 H2B 0.89(3) . ?
N3 C2 1.306(3) . ?
N10 H10A 0.8819 . ?
N10 H10B 0.8820 . ?
N1 C1 1.308(3) . ?
C3 C2 1.453(3) . ?
C1 C2 1.433(3) . ?
loop_
_refln_index_h
_refln_index_k
_refln_index_l
_refln_F_squared_meas
_refln_F_squared_sigma
-2 0 0 5.3 2.3
-2 0 0 4.8 1.9
2 0 0 10.4 3
2 0 0 10.9 2.5
-3 0 0 67.89 7
-3 0 0 82.39 8.6
3 0 0 76.19 7
3 0 0 74.79 8.5
-4 0 0 18.3 4.5
-4 0 0 6.5 3.6
-4 0 0 14.1 5.3
4 0 0 14.1 4
4 0 0 19.6 5.8
-5 0 0 33.1 8.4
-5 0 0 18.2 5.5
-5 0 0 13.9 6.6
5 0 0 27.7 6.3
5 0 0 16.5 7.1
-6 0 0 1 4.2
-6 0 0 4.9 3.6
-6 0 0 -2.8 3.9
6 0 0 0.7 3.3
-7 0 0 -5 5.9
-7 0 0 5.2 6.8
-7 0 0 17.8 6.5
7 0 0 6.4 4.9
8 -1 0 9.9 6.9
-8 1 0 14.4 10.5
-8 1 0 7.7 9
7 -1 0 111.29 14.4
-7 1 0 103.99 19.3
-7 1 0 109.79 20.3
6 -1 0 -5.5 3.1
-6 1 0 -2.4 4.4
-6 1 0 3.1 3.8
-6 1 0 -3.4 3
5 -1 0 845.92 36.3
5 -1 0 744.53 47.9
-5 1 0 817.02 39.6
-5 1 0 836.02 36.9
4 -1 0 392.86 21
4 -1 0 385.56 23.2
-4 1 0 375.86 22.5
-4 1 0 378.36 21.4
3 -1 0 25.4 5.3
3 -1 0 29.1 6
-3 1 0 19.3 4.9
-3 1 0 27.1 5.4
2 -1 0 183.38 10.9
2 -1 0 196.78 11.5
-2 1 0 178.78 10.9
-2 1 0 203.48 11.1
1 -1 0 511.75 16.4
1 -1 0 530.95 18.9
-1 1 0 531.85 16.4
-1 1 0 530.75 17.4
0 -1 0 38.1 1.8
0 -1 0 40.6 3.3
0 1 0 36.4 1.8
0 1 0 41.4 3.3
-1 -1 0 886.41 29.8
-1 -1 0 905.71 27.5
-1 -1 0 917.21 26.8
1 1 0 929.01 27.1
1 1 0 903.91 27.7
1 1 0 887.81 29.8
-2 -1 0 311.07 17.7
-2 -1 0 299.07 15.6
-2 -1 0 301.77 13.5
2 1 0 303.67 15.8
2 1 0 312.57 13.8
-3 -1 0 1170.38 37.5
-3 -1 0 1223.18 43.1
-3 -1 0 1053.09 47.4
3 1 0 1133.29 37.1
3 1 0 1120.49 42.4
-4 -1 0 454.75 21.9
-4 -1 0 429.86 25.6
-4 -1 0 440.96 28.6
4 1 0 448.06 21.4
4 1 0 496.35 28
-5 -1 0 175.48 14.2
-5 -1 0 196.18 18.3
-5 -1 0 213.38 21.3
5 1 0 222.88 20.3
5 1 0 194.58 14.5
-6 -1 0 6.6 4.5
-6 -1 0 7.4 4.8
-6 -1 0 -0.6 3.5
6 1 0 3.2 3.9
-7 -1 0 30.5 7.8
-7 -1 0 32 11.5
-7 -1 0 52.79 12.6
7 1 0 14.7 6.8
8 -2 0 11 8.3
-8 2 0 8.4 7.9
-8 2 0 13.3 10.1
7 -2 0 6.4 6.6
-7 2 0 23.9 9.4
-7 2 0 14.5 8
6 -2 0 49.4 10.5
-6 2 0 76.39 14.4
5 -2 0 448.26 26.6
5 -2 0 451.75 28
-5 2 0 472.75 28
4 -2 0 218.08 21.9
4 -2 0 266.37 18.7
-4 2 0 309.07 19.4
3 -2 0 694.23 30.3
3 -2 0 685.13 28.3
-3 2 0 693.93 28
2 -2 0 1075.69 33.6
2 -2 0 1079.09 38.6
-2 2 0 1060.89 33.1
-2 2 0 1081.39 35.3
1 -2 0 988.8 30.7
1 -2 0 999.3 25.8
-1 2 0 920.71 29.9
-1 2 0 969.1 25.6
0 -2 0 2358.36 57.09
0 -2 0 2378.36 65.09
0 2 0 2405.96 57.29
0 2 0 2400.26 64.79
-1 -2 0 8.1 2.2
-1 -2 0 9.4 2.3
-1 -2 0 4.7 2.1
1 2 0 6.7 2
1 2 0 9.6 3.2
-2 -2 0 38.2 6.5
-2 -2 0 36.1 7.3
-2 -2 0 41.3 5.1
2 2 0 41.2 5.4
2 2 0 36.5 6.5
2 2 0 31 6.8
-3 -2 0 72.69 8.7
-3 -2 0 58.39 10.9
-3 -2 0 62.39 7.1
3 2 0 70.79 8.7
3 2 0 70.79 7.6
-4 -2 0 27.6 7.5
-4 -2 0 33.7 6.3
-4 -2 0 18.5 7.3
4 2 0 30.4 6.1
4 2 0 24.6 7.1
-5 -2 0 407.06 27.9
-5 -2 0 390.06 22.2
-5 -2 0 427.26 31.7
5 2 0 381.26 28.3
5 2 0 293.57 26.3
-6 -2 0 91.09 16.9
-6 -2 0 106.19 12.4
-6 -2 0 111.49 20.9
6 2 0 103.19 11.6
-7 -2 0 16.8 8.2
-7 -2 0 15.8 11.1
-7 -2 0 33.4 8.2
7 2 0 33.8 9
7 -3 0 -3.3 6.6
-7 3 0 -14.5 5.4
6 -3 0 4.6 4.5
-6 3 0 -0.6 5.6
-6 3 0 10.1 6.3
5 -3 0 399.06 27
5 -3 0 423.46 26.4
-5 3 0 406.36 25.7
-5 3 0 413.56 25.5
4 -3 0 17.5 5.7
-4 3 0 17.4 5.4
-4 3 0 11.8 3.8
3 -3 0 25.9 6.7
3 -3 0 33.6 6.4
-3 3 0 24.2 4.8
-3 3 0 22.1 5.2
2 -3 0 1.9 1.2
2 -3 0 0 1.4
-2 3 0 0.3 1.1
-2 3 0 1.2 1.9
1 -3 0 103.39 8.8
-1 3 0 107.09 8.7
0 -3 0 43.7 6.1
0 -3 0 51.89 3.1
0 3 0 53.89 6.5
0 3 0 48.7 3.2
-1 -3 0 208.98 11.2
-1 -3 0 226.18 15.7
-1 -3 0 214.58 14.5
1 3 0 234.98 11.9
-2 -3 0 74.69 7.8
-2 -3 0 67.29 7.6
-2 -3 0 62.79 9
2 3 0 56.99 7.1
2 3 0 63.89 9.1
-3 -3 0 450.95 27.1
-3 -3 0 483.05 25.5
-3 -3 0 484.15 30.2
3 3 0 456.95 25.6
-4 -3 0 0.9 2.6
-4 -3 0 4.3 4.7
-4 -3 0 15 5.6
4 3 0 5.1 5.8
-5 -3 0 605.04 39.3
-5 -3 0 648.04 31
-5 -3 0 647.94 42.7
-6 -3 0 16.2 6.2
-6 -3 0 16.1 6.7
-6 -3 0 13.2 9.1
-7 -3 0 17.2 11.7
-7 -3 0 14.2 8.5
-7 -3 0 0.6 8.3
7 -4 0 72.29 14.7
-7 4 0 31.4 10
6 -4 0 905.71 48.4
6 -4 0 928.21 46.1
-6 4 0 874.21 43.7
-6 4 0 864.71 44.2
5 -4 0 95.19 12.2
5 -4 0 116.89 15.7
-5 4 0 100.19 12.6
-5 4 0 85.19 10
4 -4 0 58.79 12.2
4 -4 0 77.99 8.8
-4 4 0 50.89 10.3
-4 4 0 80.19 8.6
3 -4 0 278.77 21.9
3 -4 0 241.98 14
-3 4 0 243.88 17
-3 4 0 250.87 13.6
2 -4 0 69.09 8.2
2 -4 0 59.19 4.6
-2 4 0 60.69 7.7
-2 4 0 58.59 4.4
1 -4 0 1278.07 45.5
-1 4 0 1309.67 45.2
0 -4 0 26 6.4
0 -4 0 30.7 2.6
0 4 0 29.9 7.1
0 4 0 39 2.9
-1 -4 0 2.8 3
-1 -4 0 3.7 3
-1 -4 0 1.3 1.6
1 4 0 2.7 2
1 4 0 -1.5 2.4
-2 -4 0 37.2 7.8
-2 -4 0 37.6 9.1
-2 -4 0 23.5 5.7
2 4 0 31.5 7.2
2 4 0 30.6 8.4
-3 -4 0 284.87 19.4
-3 -4 0 268.97 23.4
-3 -4 0 263.07 18.5
3 4 0 238.28 27.6
3 4 0 270.37 19.2
-4 -4 0 8 4.6
-4 -4 0 -6 2.6
-4 -4 0 0.8 3.3
4 4 0 3.1 5
-5 -4 0 41.6 13.5
-5 -4 0 42.6 9.4
-5 -4 0 62.09 13.2
-6 -4 0 14.4 10.2
-6 -4 0 15 7.7
-6 -4 0 16 8
7 -5 0 24.6 11.3
-7 5 0 7.5 10.6
-7 5 0 4.2 9.2
6 -5 0 276.67 22.1
6 -5 0 283.77 27.3
-6 5 0 295.27 22.7
-6 5 0 275.57 23.6
5 -5 0 6.5 3.4
-5 5 0 -3.5 3.9
-5 5 0 2.4 3.4
4 -5 0 19.6 5.2
4 -5 0 13 6.4
-4 5 0 20.8 6
-4 5 0 20.2 5.1
3 -5 0 24.6 4.3
3 -5 0 41.6 10.2
3 -5 0 44.2 9
-3 5 0 30.3 7.1
-3 5 0 41 4.6
2 -5 0 -0.5 2.4
-2 5 0 1.6 3.2
-1 5 0 172.48 14.7
0 -5 0 -0.1 2.6
0 5 0 -1.5 2.8
-1 -5 0 85.89 7.1
-1 -5 0 73.69 12.7
-1 -5 0 78.89 14
1 5 0 77.59 7.3
1 5 0 72.79 12.7
-2 -5 0 331.37 23.7
-2 -5 0 399.66 28.2
-2 -5 0 410.06 25.2
2 5 0 381.16 29.4
2 5 0 373.56 20.8
-3 -5 0 360.06 29.4
-3 -5 0 386.06 24.7
-3 -5 0 384.16 23.3
3 5 0 363.96 32.1
3 5 0 377.66 23.9
-4 -5 0 14.9 6.7
-4 -5 0 19.1 6.1
-4 -5 0 13.9 6.3
4 5 0 22.6 7.9
-5 -5 0 14.5 8.2
-5 -5 0 23.2 8.4
-5 -5 0 24.6 8.4
-6 -5 0 14.1 8.5
-6 -5 0 -1.5 8.9
-6 -5 0 -4.9 6.9
7 -6 0 -7 8.1
-7 6 0 8.2 7.6
6 -6 0 272.37 22.3
6 -6 0 267.57 29.4
-6 6 0 394.06 33.7
-6 6 0 286.37 21.8
5 -6 0 34.2 10.5
5 -6 0 28.3 7.3
-5 6 0 15.9 7.8
-5 6 0 20.1 5.3
4 -6 0 -4.4 2.5
4 -6 0 -2.8 5.4
-4 6 0 -2.3 2.8
-4 6 0 5 4.8
3 -6 0 3 4.1
3 -6 0 2.9 5.3
-3 6 0 4.6 3.7
2 -6 0 31.5 8
-2 6 0 30.1 8
1 -6 0 136.39 14.2
-1 6 0 168.28 15.4
0 -6 0 156.28 17.2
0 6 0 173.88 17.2
-1 -6 0 4.7 4.5
-1 -6 0 3.4 5
-1 -6 0 14.4 3.1
1 6 0 8.3 3.2
-2 -6 0 64.79 14.7
-2 -6 0 72.89 8.7
2 6 0 54.09 9.3
2 6 0 71.79 14.7
-3 -6 0 181.08 16.4
-3 -6 0 177.48 18
-3 -6 0 192.18 22.1
3 6 0 212.18 18.4
-4 -6 0 164.28 18.4
-4 -6 0 166.88 23.1
-4 -6 0 173.48 17.8
-5 -6 0 177.98 21.5
-5 -6 0 234.58 24.4
6 -7 0 35.2 11.6
6 -7 0 17.8 7.6
-6 7 0 10.7 7.1
-6 7 0 27 10.7
5 -7 0 -3.5 3.7
5 -7 0 21.8 9.2
-5 7 0 4.3 6.9
4 -7 0 33.9 12.2
-4 7 0 37.3 9.6
3 -7 0 335.37 31.6
3 -7 0 392.46 26.3
-3 7 0 312.27 23.4
2 -7 0 73.29 13.3
-2 7 0 54.89 11.6
1 -7 0 308.67 24.9
-1 7 0 294.77 23.7
0 -7 0 16.2 7.9
0 7 0 16 7.4
-1 -7 0 0.7 2.3
-1 -7 0 -3.4 4.2
-2 -7 0 4.5 6.1
-2 -7 0 4.9 3.3
2 7 0 -7 3.6
-3 -7 0 9 5.5
-3 -7 0 -2.3 6.4
3 7 0 8.8 6.6
-4 -7 0 16.3 12.6
5 -8 0 3.6 9.5
-5 8 0 -11.9 8.3
4 -8 0 13.8 12.2
-4 8 0 6.8 11.4
3 -8 0 56.09 12.3
3 -8 0 57.09 15.4
-3 8 0 80.59 22.8
2 -8 0 2.3 5
-2 8 0 -13.5 5.1
1 -8 0 21.3 9.4
-1 8 0 8 7.9
-1 -8 0 96.59 19.5
-2 -8 0 51.69 13.6
-3 -8 0 -8.5 6.2
-3 -8 0 8.9 7.8
3 8 0 6.7 9.2
4 -9 0 25.3 14
-4 9 0 -1.5 10.3
3 -9 0 30.6 11.5
3 -9 0 64.39 17.7
-3 9 0 59.39 20
2 -9 0 -13 11.5
1 -9 0 17 9.5
0 -9 0 7.5 8.5
-1 -9 0 -2.4 8.8
1 -10 1 98.29 22.6
1 -10 1 111.19 19.7
-2 -9 1 66.69 7.2
-2 -9 1 78.19 17.7
-1 -9 1 16.3 7.8
0 -9 1 8.7 7.2
-1 9 -1 -8.1 7.7
1 -9 1 1.6 7
1 -9 1 -11.6 6.2
-2 9 -1 3.3 7.3
2 -9 1 6.8 5.4
2 -9 1 4.1 6.5
-3 9 -1 118.19 16.3
3 -9 1 130.29 15.8
3 -9 1 145.49 26.2
-4 9 -1 -9.5 8.1
4 -9 1 -6.5 9.1
3 8 -1 84.89 13.1
-3 -8 1 70.29 11.3
-3 -8 1 47.3 14.1
-2 -8 1 76.69 8.5
-2 -8 1 79.09 16.6
-1 -8 1 6 1.8
-1 -8 1 12.5 7.2
0 8 -1 103.29 14.5
0 -8 1 61.29 14.1
-1 8 -1 116.09 14.6
1 -8 1 113.79 15.4
-2 8 -1 43.2 10.4
2 -8 1 62.39 12
2 -8 1 39.7 13.8
-3 8 -1 18.4 6.2
3 -8 1 -5.3 4.9
3 -8 1 6.5 7
-4 8 -1 20.8 6.4
4 -8 1 10.8 8.9
-5 8 -1 40.1 9.8
5 -8 1 3.2 7.9
5 -8 1 13.6 5.3
-5 -7 1 232.68 23.6
-5 -7 1 178.58 22.4
-5 -7 1 202.28 26.4
4 7 -1 188.08 21.5
-4 -7 1 245.78 27.1
-4 -7 1 204.48 19.8
-4 -7 1 183.18 18.2
3 7 -1 28.5 8
-3 -7 1 28.8 7.6
-3 -7 1 37.9 9.9
-3 -7 1 24.4 10.1
-2 -7 1 69.19 13.3
-2 -7 1 87.79 16.7
1 7 -1 9.4 6.7
-1 -7 1 15.1 3.4
-1 -7 1 11.3 5.9
0 7 -1 3.3 4.8
0 -7 1 -3.6 4
-1 7 -1 75.69 12.8
1 -7 1 80.99 13.5
-2 7 -1 -0.4 4.1
2 -7 1 1 3.3
2 -7 1 -3.5 4.6
-3 7 -1 188.18 15.5
3 -7 1 194.28 22.9
3 -7 1 213.08 17
-4 7 -1 -8.4 4.2
4 -7 1 0.4 3.2
4 -7 1 -10.1 5.4
-5 7 -1 44.4 9.5
-5 7 -1 24.9 6.8
5 -7 1 22.2 6.8
5 -7 1 23 10.1
-6 7 -1 -3.9 7.7
-6 7 -1 0.6 7.2
6 -7 1 24 8.2
6 -7 1 23.7 11.1
-5 -6 1 57.89 12.2
-5 -6 1 52.29 10.7
4 6 -1 45.1 11.1
-4 -6 1 55.49 14
-4 -6 1 36.9 8.9
-4 -6 1 40 9.5
3 6 -1 28.5 7.9
-3 -6 1 43.7 8.7
-3 -6 1 36.8 8.6
-3 -6 1 46.7 12.6
2 6 -1 85.79 16
2 6 -1 93.59 10.2
-2 -6 1 75.89 8.9
-2 -6 1 104.09 13.5
-2 -6 1 83.39 11.8
1 6 -1 276.77 21.9
-1 -6 1 288.17 14
-1 -6 1 275.77 22
0 6 -1 49.2 10
0 -6 1 56.59 10.8
-1 6 -1 84.59 10.2
1 -6 1 77.09 11
-2 6 -1 39.2 13
2 -6 1 27 8.6
2 -6 1 38.3 7.6
3 -6 1 113.79 8.6
3 -6 1 110.39 15.8
-4 6 -1 34.3 7.5
4 -6 1 13.4 8.1
4 -6 1 26.5 6.1
-5 6 -1 -7.3 3.7
-5 6 -1 4.8 5
5 -6 1 7.1 5
5 -6 1 1.3 7.2
-6 6 -1 55.99 11.8
-6 6 -1 53.69 12.4
6 -6 1 51.39 12.3
6 -6 1 74.19 15.6
-6 -5 1 16.9 6.9
-6 -5 1 10 8.1
-6 -5 1 31.5 10.8
-5 -5 1 28.7 7.8
-5 -5 1 38.4 12.7
-5 -5 1 26 8.2
4 5 -1 20.6 8.2
-4 -5 1 27 6.1
-4 -5 1 30.2 10.1
-4 -5 1 35.9 8.5
3 5 -1 14.1 4.7
-3 -5 1 5.3 3.1
-3 -5 1 7.8 4.8
2 5 -1 8 4.7
2 5 -1 -2.1 2.9
-2 -5 1 0 2.6
-2 -5 1 8.8 3.1
-2 -5 1 7.6 3.3
1 5 -1 164.88 15.3
-1 -5 1 164.78 10.1
-1 -5 1 155.88 14.7
0 5 -1 117.69 11.8
0 -5 1 138.49 6.3
0 -5 1 149.29 13.1
-1 5 -1 356.46 19.2
1 -5 1 367.86 20
-2 5 -1 1259.37 42.7
2 -5 1 1275.67 36.5
2 -5 1 1217.48 54.09
2 -5 1 1297.57 43.6
-3 5 -1 383.96 19.9
-3 5 -1 392.06 18.8
3 -5 1 404.66 28.6
3 -5 1 395.36 19
-4 5 -1 4.1 2.9
4 -5 1 1.9 4.1
4 -5 1 6.6 3.8
-5 5 -1 6.1 4.6
-5 5 -1 11.4 4.9
5 -5 1 2.2 5.8
5 -5 1 -2.4 5.6
-6 5 -1 53.69 10.8
-6 5 -1 28.4 9.9
6 -5 1 29.1 10.7
-7 5 -1 19.5 7.9
-7 5 -1 2.5 8.5
-7 5 -1 -12.8 9.8
7 -5 1 5.4 8.5
-7 -4 1 4.3 10.4
-7 -4 1 2.9 14.1
-6 -4 1 38.7 7.4
-6 -4 1 60.99 16.2
-6 -4 1 62.09 13.1
-5 -4 1 479.75 37.1
-5 -4 1 487.45 24.6
-5 -4 1 487.95 32.1
4 4 -1 299.37 23
-4 -4 1 314.67 22.3
-4 -4 1 339.37 27.7
-4 -4 1 279.47 17.4
3 4 -1 642.74 31.6
-3 -4 1 631.44 36.2
-3 -4 1 667.53 31.2
2 4 -1 56.49 9.1
2 4 -1 41.5 8.9
-2 -4 1 56.49 7.1
-2 -4 1 56.99 7.8
-2 -4 1 62.89 9
1 4 -1 18.4 3.8
1 4 -1 27.8 6.7
-1 -4 1 17.8 3.7
-1 -4 1 20.3 5.3
0 4 -1 1149.58 39.8
0 -4 1 1114.69 30.9
0 -4 1 1143.09 40.1
-1 4 -1 213.68 12.3
1 -4 1 240.18 13.5
1 -4 1 230.88 8.9
1 -4 1 193.98 16.6
-2 4 -1 9.2 3.1
-2 4 -1 9.3 2.9
2 -4 1 8.7 3.1
2 -4 1 11.6 3.1
2 -4 1 14 5
-3 4 -1 52.69 6.7
-3 4 -1 59.29 7.2
3 -4 1 69.79 12.2
3 -4 1 59.89 7.5
-4 4 -1 21 6.1
-4 4 -1 32.8 7.9
4 -4 1 32.1 7.4
4 -4 1 25.7 7.3
-5 4 -1 413.06 24.7
-5 4 -1 399.96 26.4
5 -4 1 430.46 30
5 -4 1 381.96 25.9
-6 4 -1 266.47 22.5
6 -4 1 277.07 25.8
-7 4 -1 6.9 9.4
-7 4 -1 -6.4 5.3
-7 4 -1 0.8 6
7 -4 1 -6.8 5.5
-7 -3 1 17.5 7.7
-7 -3 1 4.4 10
-6 -3 1 9.9 7.7
-6 -3 1 3.6 4.2
-6 -3 1 24.7 10.2
5 3 -1 2.8 4.9
-5 -3 1 -1 4
-5 -3 1 17.2 7.7
-5 -3 1 8 3.8
4 3 -1 16.3 6.2
-4 -3 1 26.2 7.8
-4 -3 1 26.3 8.7
-4 -3 1 21.9 4.9
3 3 -1 2025.8 66.09
-3 -3 1 1998.2 71.69
-3 -3 1 2038.5 58.89
-3 -3 1 2088.99 66.39
2 3 -1 2.4 1.8
-2 -3 1 2.4 1.9
-2 -3 1 0.4 1.6
-2 -3 1 1.1 1.7
1 3 -1 170.28 12.5
1 3 -1 170.28 10
-1 -3 1 165.18 9.5
-1 -3 1 181.08 12.6
0 3 -1 27.7 3.9
0 -3 1 20.7 4.1
0 -3 1 19.9 2.5
-1 3 -1 521.35 18.3
1 -3 1 517.35 18.5
1 -3 1 509.95 25.1
1 -3 1 519.55 17.1
-2 3 -1 155.68 10
-2 3 -1 152.48 9
2 -3 1 150.48 13.4
2 -3 1 140.39 9.4
-3 3 -1 29.4 6.1
-3 3 -1 30.2 5.6
3 -3 1 22.5 6.9
3 -3 1 23.7 5.4
-4 3 -1 21.9 6
-4 3 -1 16.9 6.2
4 -3 1 19.1 6.2
4 -3 1 16.8 5.7
-5 3 -1 89.09 11.5
5 -3 1 62.29 12.7
5 -3 1 73.69 13.3
-6 3 -1 364.56 26.6
-6 3 -1 328.47 26.1
6 -3 1 322.07 26.9
-7 3 -1 -1 6.4
-7 3 -1 -2.4 6.9
7 -3 1 -2.9 8
-7 -2 1 32 9.7
-7 -2 1 32.5 6.8
-7 -2 1 41.8 13.9
6 2 -1 52.69 7.3
-6 -2 1 50.19 13.5
-6 -2 1 45.9 7.3
-6 -2 1 76.29 14.6
5 2 -1 15.3 4.1
5 2 -1 28.1 8.2
-5 -2 1 18.8 6.6
-5 -2 1 14.3 3.6
-5 -2 1 9.4 6.1
4 2 -1 5.8 2.2
4 2 -1 10.5 4.5
-4 -2 1 3.9 3.1
-4 -2 1 -1.9 2.8
-4 -2 1 2.1 1.8
3 2 -1 855.11 35.4
-3 -2 1 857.11 35.7
-3 -2 1 903.81 39.7
-3 -2 1 867.61 27.7
2 2 -1 9.4 2.8
-2 -2 1 2.1 1.8
-2 -2 1 4 1.3
-2 -2 1 6.2 2.6
1 2 -1 32.4 3.8
-1 -2 1 27.4 4.8
-1 -2 1 31.4 3.7
0 2 -1 2038.1 51.69
0 -2 1 2007.7 56.39
0 -2 1 1938.41 51.39
-1 2 -1 1852.61 50.59
-1 2 -1 1995.2 47.7
-1 2 -1 1910.81 56.99
1 -2 1 1846.62 50.29
1 -2 1 1883.61 56.59
-2 2 -1 1991.5 62.39
-2 2 -1 1987.9 57.69
2 -2 1 2072.09 62.79
2 -2 1 1941.01 57.19
-3 2 -1 74.69 9.1
-3 2 -1 88.29 9.2
3 -2 1 72.09 8.9
3 -2 1 73.49 8.5
-4 2 -1 57.79 10.5
-4 2 -1 52.19 10.4
-4 2 -1 64.39 9.2
4 -2 1 80.39 12.5
4 -2 1 75.59 9.9
-5 2 -1 882.91 42.5
-5 2 -1 910.11 43.1
-5 2 -1 858.91 41.7
5 -2 1 909.31 42.4
5 -2 1 867.01 42.8
-6 2 -1 723.83 61.79
-6 2 -1 641.54 38.2
-6 2 -1 626.64 37.5
6 -2 1 581.14 34.9
-7 2 -1 16.1 9.4
-7 2 -1 8 6.3
7 -2 1 26.8 8.5
8 1 -1 2.7 5.3
-8 -1 1 17.5 8.9
-8 -1 1 19.1 15.2
7 1 -1 0 4
-7 -1 1 -2.3 5.7
-7 -1 1 2 6.1
6 1 -1 204.68 13.5
-6 -1 1 211.18 14.3
-6 -1 1 211.78 21.1
5 1 -1 653.63 25.2
5 1 -1 612.14 34.8
-5 -1 1 672.13 25.9
-5 -1 1 648.44 38.4
-5 -1 1 647.94 34.9
4 1 -1 953.4 30.8
4 1 -1 976.7 41.8
-4 -1 1 972.9 41.4
-4 -1 1 1004.8 31.7
3 1 -1 210.08 14.7
3 1 -1 210.48 9.4
-3 -1 1 216.28 14.9
-3 -1 1 204.68 9.3
2 1 -1 609.94 16.5
2 1 -1 602.54 23.7
-2 -1 1 543.55 16
-2 -1 1 608.44 23.7
1 1 -1 62.29 5.1
-1 -1 1 65.19 5.2
-1 -1 1 58.39 3.2
0 1 -1 12.7 2.5
0 -1 1 12.2 2.4
-1 1 -1 302.87 13.2
-1 1 -1 323.27 11.4
-1 1 -1 299.37 14.4
1 -1 1 324.27 14.8
1 -1 1 307.47 13.1
-2 1 -1 6.3 2.2
-2 1 -1 6.1 2.5
-2 1 -1 10.6 3.1
2 -1 1 4.8 2.3
2 -1 1 7.9 3.1
-3 1 -1 5.6 2.8
-3 1 -1 -0.2 2.2
3 -1 1 4.2 2.9
3 -1 1 3.6 2.5
-4 1 -1 237.58 17.7
-4 1 -1 261.47 19
-4 1 -1 231.68 17.7
4 -1 1 227.98 16.9
4 -1 1 232.38 18.6
-5 1 -1 198.58 17.3
-5 1 -1 174.78 17.6
-5 1 -1 189.78 18.3
5 -1 1 209.58 17.6
5 -1 1 185.98 18.5
-6 1 -1 4.2 4.2
-6 1 -1 -0.1 5.2
-6 1 -1 1.4 5.7
6 -1 1 1.3 4
-7 1 -1 19.7 9.8
-7 1 -1 3.6 6.5
-7 1 -1 20.4 9.5
7 -1 1 31.6 9.5
8 0 -1 6.3 5.6
-8 0 1 8.1 9.3
-8 0 1 7.3 10
-7 0 1 16.5 8.9
-7 0 1 11.8 8.6
6 0 -1 375.16 20.2
-6 0 1 412.26 31.7
-6 0 1 489.55 46.6
5 0 -1 223.48 20.3
5 0 -1 216.68 13.3
-5 0 1 186.18 17.4
4 0 -1 254.97 13.4
4 0 -1 256.67 18.6
-4 0 1 266.67 14.2
-4 0 1 285.17 19.4
3 0 -1 9.7 3.5
3 0 -1 11 2.6
-3 0 1 7.9 3.1
2 0 -1 9.4 2.8
2 0 -1 9 1.8
-2 0 1 12.8 3.3
1 0 -1 1491.95 37.9
1 0 -1 1490.05 40.8
-1 0 1 1488.95 40.7
0 0 -1 825.02 23.5
0 0 -1 776.32 23.5
0 0 1 830.32 23.8
0 0 1 788.82 23.1
0 0 1 742.33 23.2
-1 0 -1 583.04 20.7
-1 0 -1 524.45 20.2
-1 0 -1 567.04 20.5
1 0 1 546.55 20.1
1 0 1 549.85 20
1 0 1 545.95 20.3
-2 0 -1 2706.63 73.69
-2 0 -1 2550.54 74.09
-2 0 -1 2588.94 74.89
2 0 1 2688.53 73.49
2 0 1 2593.24 73.99
-3 0 -1 74.09 9.3
-3 0 -1 65.09 8.2
-3 0 -1 68.59 8.3
3 0 1 75.99 8.1
3 0 1 72.09 8.6
-4 0 -1 766.72 36.5
-4 0 -1 777.12 38.2
-4 0 -1 736.43 33.6
4 0 1 717.53 38.4
4 0 1 832.92 38.7
-5 0 -1 314.77 25
-5 0 -1 275.17 22.7
-5 0 -1 242.18 19.9
5 0 1 302.67 24.3
5 0 1 274.57 19.3
-6 0 -1 2 5.7
-6 0 -1 2.6 3.3
6 0 1 2.7 3.9
-7 0 -1 33.8 13.1
-7 0 -1 34.9 10.1
-7 0 -1 37.3 11.7
7 0 1 36.8 9.8
8 -1 -1 -5.6 4.6
-8 1 1 0.6 7.3
-8 1 1 0.1 6.5
7 -1 -1 18.4 6.1
-7 1 1 4.7 8.5
-7 1 1 2 5.7
6 -1 -1 6.6 4
-6 1 1 -1.6 2.3
5 -1 -1 70.89 12.5
5 -1 -1 73.29 8.6
-5 1 1 60.39 11.3
4 -1 -1 1705.83 53.79
4 -1 -1 1659.23 58.19
-4 1 1 1728.53 58.49
3 -1 -1 2.8 2.4
3 -1 -1 4.6 2.6
-3 1 1 5.9 2.6
2 -1 -1 387.36 16.6
-2 1 1 376.06 18.3
-2 1 1 386.76 16.5
1 -1 -1 1132.09 35.3
-1 1 1 1067.39 30.8
-1 1 1 1113.79 34.8
0 -1 -1 792.52 27.1
0 -1 -1 729.33 22.7
0 -1 -1 785.92 26.2
0 1 1 780.02 26.6
0 1 1 761.72 22.7
0 1 1 766.22 26.7
-1 -1 -1 75.89 6.5
-1 -1 -1 71.99 7.4
-1 -1 -1 67.29 6.6
1 1 1 74.99 7.5
1 1 1 68.39 6.7
1 1 1 79.79 6.5
-2 -1 -1 12.5 4.2
-2 -1 -1 6.2 2.8
-2 -1 -1 12.8 3.9
2 1 1 19.8 5.3
2 1 1 7.4 3.1
2 1 1 10.7 3.5
-3 -1 -1 73.39 13
-3 -1 -1 94.99 10.4
-3 -1 -1 73.79 10.1
3 1 1 84.19 10.2
3 1 1 94.09 9.7
-4 -1 -1 800.42 41.5
-4 -1 -1 790.72 38.3
-4 -1 -1 777.92 34.7
4 1 1 840.92 35.5
4 1 1 752.02 38.3
-5 -1 -1 116.59 13.3
-5 -1 -1 132.39 15.6
-5 -1 -1 142.79 18.1
5 1 1 97.89 12.1
-6 -1 -1 8.4 5.2
-6 -1 -1 10.6 6.1
-6 -1 -1 2.8 6.7
6 1 1 7.4 5.7
-7 -1 -1 84.99 14.8
-7 -1 -1 102.09 20.9
-7 -1 -1 57.19 14
7 1 1 113.49 14.7
8 -2 -1 10.4 7.7
-8 2 1 18.7 9.7
-8 2 1 10.1 9.3
7 -2 -1 4.2 5.6
-7 2 1 3.5 5.7
6 -2 -1 0.3 3.8
6 -2 -1 11.5 6.6
-6 2 1 5.5 4
5 -2 -1 -4.8 2.1
5 -2 -1 0.8 4.5
-5 2 1 0.9 1.9
4 -2 -1 5.5 2.3
4 -2 -1 3.8 2.4
-4 2 1 -0.6 2.3
3 -2 -1 13.9 4.2
3 -2 -1 14.3 4.1
-3 2 1 14 4.4
-3 2 1 7.8 3.1
2 -2 -1 103.99 9.5
2 -2 -1 129.39 8.1
-2 2 1 112.39 7.6
-2 2 1 111.29 9.8
-1 -2 -1 59.29 7.2
-1 -2 -1 47.9 5.5
-1 -2 -1 64.19 8
1 2 1 45.6 6.4
1 2 1 65.19 6.2
1 2 1 68.39 8
-2 -2 -1 10.6 4.6
-2 -2 -1 13.8 4.3
-2 -2 -1 10.8 4
2 2 1 7.2 4.2
2 2 1 10.9 3.6
2 2 1 8.5 3.6
-3 -2 -1 14.1 4.9
-3 -2 -1 9.3 4.5
-3 -2 -1 10.1 4.3
3 2 1 12.3 5.2
3 2 1 20.9 6.2
-4 -2 -1 6.2 5.5
-4 -2 -1 14.8 5.6
-4 -2 -1 4.8 3.6
4 2 1 14.5 5.7
4 2 1 14.2 6.2
-5 -2 -1 11.9 5.8
-5 -2 -1 7.5 12.7
-5 -2 -1 13.4 5.9
5 2 1 11.1 5
-6 -2 -1 4.6 4.9
-6 -2 -1 -13.8 5.7
-6 -2 -1 11 5.2
6 2 1 1.8 4.5
-7 -2 -1 -21.7 9.1
-7 -2 -1 -8.4 7.7
-7 -2 -1 -1.3 8
7 2 1 -4.1 7.1
8 -3 -1 30.3 11.5
-8 3 1 18.7 9
7 -3 -1 8 7.1
-7 3 1 14.5 8.1
6 -3 -1 88.39 14.1
6 -3 -1 61.19 12.4
-6 3 1 76.49 13.3
-6 3 1 56.09 11.8
5 -3 -1 768.72 38.5
5 -3 -1 747.83 36.4
-5 3 1 764.82 35.6
-5 3 1 756.42 38.5
4 -3 -1 18.2 5.5
4 -3 -1 14.9 6.2
-4 3 1 17.1 4.7
-4 3 1 18.9 6.1
3 -3 -1 3.3 2.1
-3 3 1 -0.8 1.1
-3 3 1 0.7 2.8
2 -3 -1 108.89 10.7
-2 3 1 100.09 10.1
-2 3 1 105.69 6.6
1 -3 -1 327.97 19.5
-1 3 1 348.67 11.4
-1 3 1 361.86 20
-1 3 1 354.16 11.1
0 -3 -1 71.49 5.3
0 -3 -1 83.59 9.4
0 -3 -1 65.39 8.2
0 3 1 77.29 9.5
0 3 1 69.69 5.1
-1 -3 -1 308.87 20.7
-1 -3 -1 303.97 19.3
-1 -3 -1 310.17 15.8
1 3 1 342.67 16.4
1 3 1 330.97 21.4
-2 -3 -1 35.5 7.7
-2 -3 -1 40.9 9.2
-2 -3 -1 44.8 9.8
2 3 1 49 8.4
2 3 1 41 9.1
-3 -3 -1 789.62 42.7
-3 -3 -1 880.21 37.7
-3 -3 -1 889.81 38.7
3 3 1 863.21 38.7
3 3 1 839.92 44.5
3 3 1 861.61 39.3
-4 -3 -1 14.5 6.5
-4 -3 -1 17.9 5.7
-4 -3 -1 10.3 5.2
4 3 1 13.4 6.9
4 3 1 24.4 6.7
-5 -3 -1 51.49 10
-5 -3 -1 26.7 10.9
-5 -3 -1 56.59 12
5 3 1 63.79 12.4
-6 -3 -1 2.5 7.4
-6 -3 -1 -14.4 5.7
-6 -3 -1 4.7 8.8
7 -4 -1 -0.6 6.3
-7 4 1 2.2 5.9
6 -4 -1 110.89 13.8
6 -4 -1 90.29 16.7
-6 4 1 119.19 13.9
-6 4 1 128.39 15.8
5 -4 -1 231.18 17.8
5 -4 -1 261.07 22.6
-5 4 1 277.37 22.4
-5 4 1 230.68 17.6
4 -4 -1 98.29 14
4 -4 -1 89.69 10.3
-4 4 1 97.69 12
-4 4 1 113.99 10
3 -4 -1 743.43 34.8
3 -4 -1 670.83 25.6
-3 4 1 676.73 33.1
-3 4 1 719.33 25.3
2 -4 -1 11.1 4.9
-2 4 1 14.2 2.2
-2 4 1 20.8 6.5
1 -4 -1 1 3.2
-1 4 1 2.6 2.9
0 -4 -1 414.86 25.8
0 -4 -1 410.16 25.4
0 4 1 398.96 24.5
0 4 1 414.86 15.5
-1 -4 -1 -1.6 1.9
-1 -4 -1 -5.4 2.2
-1 -4 -1 3.7 3
1 4 1 3.3 4.1
1 4 1 -2.3 1.3
-2 -4 -1 53.09 10.2
-2 -4 -1 43.8 8.2
-2 -4 -1 33.4 9
2 4 1 32.4 8.9
2 4 1 52.39 9.3
-3 -4 -1 16.1 6.8
-3 -4 -1 11.1 5
-3 -4 -1 18.2 5.9
3 4 1 8.9 6.1
3 4 1 22.6 7.4
-4 -4 -1 9.9 6.3
-4 -4 -1 12.1 6.8
-4 -4 -1 30.8 8.9
4 4 1 27.4 9.2
-5 -4 -1 213.88 20.2
-5 -4 -1 151.28 21.7
-5 -4 -1 228.18 22.7
-6 -4 -1 3.1 10.2
-6 -4 -1 27 12.4
-6 -4 -1 31.8 11.7
7 -5 -1 -6 6.5
-7 5 1 6.3 6.9
6 -5 -1 35.5 9.3
6 -5 -1 34.4 16.6
-6 5 1 48.5 12.3
-6 5 1 44.4 10.2
5 -5 -1 185.28 15.5
5 -5 -1 203.28 21.8
-5 5 1 179.58 18.8
-5 5 1 170.98 14
4 -5 -1 -4.7 2
4 -5 -1 7.8 5.1
3 -5 -1 53.39 10.9
-3 5 1 36.2 4.1
-3 5 1 43.9 9.3
2 -5 -1 1.6 3.1
-2 5 1 -3.6 2.7
1 -5 -1 5.9 3.3
-1 5 1 0.2 3.4
0 -5 -1 9 4.5
0 -5 -1 7.4 4.4
0 5 1 3.8 4.6
0 5 1 3.8 1.4
-1 -5 -1 81.29 11.6
-1 -5 -1 76.39 7.6
-1 -5 -1 70.09 13.5
1 5 1 71.49 7.5
1 5 1 67.49 13.3
-2 -5 -1 25.8 6.2
-2 -5 -1 15 6
-2 -5 -1 10.8 6
2 5 1 19.6 6
2 5 1 7.4 5.4
-3 -5 -1 159.68 19.4
-3 -5 -1 157.48 15.4
-3 -5 -1 135.19 15.7
3 5 1 160.38 15.3
-4 -5 -1 135.39 17.5
-4 -5 -1 143.39 16.5
-4 -5 -1 124.79 23.5
-5 -5 -1 211.58 27.1
-5 -5 -1 227.18 23.2
7 -6 -1 241.18 27.5
6 -6 -1 415.56 35.5
-6 6 1 404.66 29.7
-6 6 1 430.36 25.6
5 -6 -1 2.4 3.9
5 -6 -1 8.8 8.1
-5 6 1 1 3.3
-4 6 1 49.1 5.6
-4 6 1 39.5 9.7
3 -6 -1 90.29 15.1
-3 6 1 112.09 14.2
2 -6 -1 95.69 12.9
-2 6 1 103.19 13
1 -6 -1 111.89 14.6
-1 6 1 115.49 14.3
0 -6 -1 5.9 4.6
0 -6 -1 1.2 3.9
0 6 1 5.9 1.7
0 6 1 3 4.3
-1 -6 -1 10 6.1
-1 -6 -1 -3.8 3.2
-1 -6 -1 2.6 2.2
1 6 1 0.4 5.4
1 6 1 2.1 2.7
-2 -6 -1 72.49 11
-2 -6 -1 52.39 13
-2 -6 -1 41.1 10.7
2 6 1 57.49 9.8
-3 -6 -1 70.19 12.7
-3 -6 -1 63.69 16.7
-4 -6 -1 -3.2 7.1
-4 -6 -1 5.2 7.5
6 -7 -1 41.3 14.9
-6 7 1 60.39 10.2
5 -7 -1 -5.3 6.8
-5 7 1 0.6 6.6
-5 7 1 5.7 4.1
4 -7 -1 19.3 7.4
4 -7 -1 21.7 9.3
-4 7 1 12.2 7.6
3 -7 -1 14.8 7.3
-3 7 1 18 7.5
2 -7 -1 7.1 5.4
-2 7 1 6 6.5
1 -7 -1 24.5 7.9
-1 7 1 12.2 7.4
0 -7 -1 14.1 7.1
-1 -7 -1 -3.8 3.3
1 7 1 5.2 3.2
-2 -7 -1 257.27 27.7
-2 -7 -1 325.07 19.8
2 7 1 276.47 19.4
-3 -7 -1 4.1 6.6
-3 -7 -1 10.8 7
3 7 1 5.2 8.7
5 -8 -1 15.3 9.4
4 -8 -1 -7.4 6
4 -8 -1 1.1 8.2
3 -8 -1 8 8
1 -8 -1 68.39 14.9
0 -8 -1 4.4 7.7
-1 -8 -1 14 7.7
-2 -8 -1 33.2 14.4
-2 -8 -1 38.3 7.3
2 8 1 49.7 9.3
3 -9 -1 78.89 17.1
2 -9 -1 11.9 10.2
1 -9 -1 27.3 11.7
0 -9 -1 14.8 11.7
0 -10 2 -9.8 7
0 -10 2 -17.4 8
-1 10 -2 75.89 16.9
1 -10 2 100.29 26.3
1 -10 2 92.59 15.8
-2 10 -2 0.3 8.9
2 -10 2 -5.6 6.7
2 -10 2 -10.3 8.7
-3 -9 2 3.6 6.1
-3 -9 2 7.3 9.3
-2 -9 2 40.2 6.5
-2 -9 2 19.2 10.4
-1 -9 2 15.2 8.1
-1 -9 2 42.2 12.1
0 9 -2 4 7.2
0 -9 2 -1.8 5
-1 9 -2 7 7.2
1 -9 2 23.1 8.3
1 -9 2 17.4 11
-2 9 -2 9.2 7
2 -9 2 13 5.6
2 -9 2 16.7 8.8
-3 9 -2 23.3 6.9
3 -9 2 17.9 8.9
4 -9 2 12.2 10.4
-4 -8 2 -11.9 6.7
-4 -8 2 0.9 6.6
-3 -8 2 10.5 8.6
-3 -8 2 -0.6 4.5
-2 -8 2 132.99 18.6
1 8 -2 55.89 11.6
-1 -8 2 28.1 4.1
-1 -8 2 30.1 10.1
0 8 -2 300.97 23.4
0 -8 2 373.46 31
0 -8 2 311.87 24
-1 8 -2 109.09 12.8
1 -8 2 74.69 16.5
1 -8 2 92.69 12.2
-2 8 -2 35.5 7.7
2 -8 2 53.89 14.4
3 -8 2 56.19 3.7
3 -8 2 57.09 15.1
-4 8 -2 132.89 11.3
4 -8 2 115.29 21.9
5 -8 2 32.9 13.1
5 -8 2 44.1 9.6
-5 -7 2 225.48 19.7
-5 -7 2 252.47 29.3
-5 -7 2 292.17 25.1
4 7 -2 16.2 8.6
-4 -7 2 51.69 10.3
-4 -7 2 62.69 15
-4 -7 2 31.3 8.8
-3 -7 2 83.49 10.5
-3 -7 2 93.59 14.9
-3 -7 2 90.89 18
-2 -7 2 124.89 15.2
1 7 -2 2.3 4.6
-1 -7 2 3.8 4.5
-1 -7 2 5.9 2.6
0 7 -2 7 4.2
0 -7 2 3.9 1.4
0 -7 2 12 4.3
-1 7 -2 19.2 5.9
1 -7 2 31.6 10.7
1 -7 2 19.8 6.2
-2 7 -2 131.79 11.5
2 -7 2 155.48 7.7
2 -7 2 137.79 11.7
2 -7 2 157.48 19
-3 7 -2 282.17 15.9
3 -7 2 288.57 27.6
3 -7 2 280.27 15
-4 7 -2 9.1 3.8
4 -7 2 0.7 5
4 -7 2 13.6 4.7
-5 7 -2 7.6 5
-5 7 -2 3.1 5.6
5 -7 2 1.8 6.2
5 -7 2 17 8.1
-6 7 -2 8.3 6.9
6 -7 2 1.1 8.9
-6 -6 2 3.1 5.5
-6 -6 2 3.1 9
-6 -6 2 7.5 8.1
-5 -6 2 128.79 23.6
-5 -6 2 154.48 14.3
-5 -6 2 171.98 18.3
4 6 -2 36.3 10.6
-4 -6 2 36.9 11.2
-4 -6 2 47.9 10.4
-4 -6 2 19.8 6.8
3 6 -2 368.66 23.8
-3 -6 2 368.36 23.9
-3 -6 2 366.06 22.7
-3 -6 2 387.26 29.5
-2 -6 2 56.49 9
-2 -6 2 82.69 11.4
1 6 -2 2.4 2.7
-1 -6 2 5.8 3.4
-1 -6 2 -1.6 1.3
0 6 -2 454.05 24.4
0 -6 2 443.96 16.9
0 -6 2 418.36 29
0 -6 2 480.75 25.3
-1 6 -2 96.19 9.1
1 -6 2 84.39 5.9
1 -6 2 90.79 9.1
1 -6 2 85.79 15.1
-2 6 -2 123.09 9.2
2 -6 2 136.59 10
2 -6 2 126.69 16.7
2 -6 2 130.89 8.9
-3 6 -2 -1.4 1.8
3 -6 2 2.5 3.2
3 -6 2 5.8 3.7
-4 6 -2 4.2 3.7
-4 6 -2 9.3 3.8
4 -6 2 12.9 8.3
4 -6 2 14.9 5
-5 6 -2 20.4 7.5
-5 6 -2 31.4 8.5
5 -6 2 24.9 9.9
5 -6 2 26.9 6.8
-6 6 -2 2 6.8
-6 6 -2 9 5.2
-6 6 -2 9 7.2
6 -6 2 19.9 10.3
-6 -5 2 63.59 16.3
-6 -5 2 56.79 7.1
-6 -5 2 55.99 14.4
-5 -5 2 767.02 42.8
-5 -5 2 773.22 48.7
-4 -5 2 22.4 6.1
-4 -5 2 25.6 8.9
-4 -5 2 24.6 5.7
3 5 -2 273.37 19.5
-3 -5 2 269.67 22.9
-3 -5 2 296.27 19.8
-3 -5 2 282.07 18.3
2 5 -2 13.8 4.5
-2 -5 2 30.3 5.8
-2 -5 2 32.1 7.9
1 5 -2 148.19 13.5
-1 -5 2 124.59 9.4
-1 -5 2 134.49 12.5
0 5 -2 421.26 21
0 -5 2 435.66 26.3
0 -5 2 419.86 21
0 -5 2 410.06 16.8
-1 5 -2 9.4 2.7
1 -5 2 11.1 3.7
1 -5 2 4 3.4
1 -5 2 16.8 3.2
-2 5 -2 101.59 6.8
2 -5 2 75.79 7.3
2 -5 2 90.39 12.4
-3 5 -2 173.08 10.3
3 -5 2 164.18 12.6
3 -5 2 160.18 18
-4 5 -2 112.49 10
-4 5 -2 143.79 13.7
4 -5 2 131.59 17.5
4 -5 2 118.19 13.1
-5 5 -2 11.2 6
-5 5 -2 10 4.5
-5 5 -2 19.9 6.2
5 -5 2 10.8 7.3
5 -5 2 16.8 7.4
-6 5 -2 3.9 6
-6 5 -2 -8.8 4.4
-6 5 -2 -4.1 5.2
6 -5 2 2.8 7.1
-7 5 -2 3.1 8.3
7 -5 2 -5.2 7.8
-7 -4 2 -3.6 6.3
-6 -4 2 76.59 15.9
-6 -4 2 71.49 5.9
-6 -4 2 35.6 12.5
5 4 -2 0.5 7.2
-5 -4 2 4 2.4
-5 -4 2 -5.3 3.3
4 4 -2 9.5 6.1
-4 -4 2 22.1 4.1
-4 -4 2 7.3 6.3
-4 -4 2 11.8 6
3 4 -2 221.88 17
-3 -4 2 236.88 16.8
-3 -4 2 195.28 12.8
-3 -4 2 223.08 19.4
-2 -4 2 265.77 18.7
-2 -4 2 265.17 15.9
-1 -4 2 848.72 34.7
-1 -4 2 874.21 30.3
-1 -4 2 826.52 33.1
0 4 -2 24.9 4.5
0 -4 2 24.4 6.2
0 -4 2 29.6 4.1
-1 4 -2 181.38 8.5
1 -4 2 188.58 8.8
1 -4 2 190.68 10.7
1 -4 2 201.18 16.2
-2 4 -2 255.27 15
-2 4 -2 275.57 10.5
2 -4 2 262.17 14.7
2 -4 2 276.07 20.8
-3 4 -2 150.88 16.2
-3 4 -2 158.88 13.1
-3 4 -2 180.18 10.7
3 -4 2 191.88 14.2
3 -4 2 191.48 18
-4 4 -2 75.09 8.4
-4 4 -2 75.89 12.4
-4 4 -2 49.6 19
-4 4 -2 65.59 7.8
4 -4 2 63.49 10.9
4 -4 2 79.29 15
-5 4 -2 1.3 5.4
-5 4 -2 1.1 4.1
-5 4 -2 3.2 5.2
-5 4 -2 -6.5 2.8
5 -4 2 2.7 4.5
5 -4 2 -4.2 4.1
-6 4 -2 237.08 23.2
-6 4 -2 224.88 19.4
6 -4 2 240.68 25
-7 4 -2 74.69 15.7
-7 4 -2 33.4 11
-7 4 -2 68.79 16.9
7 -4 2 56.49 15.4
-7 -3 2 6.8 7.5
-7 -3 2 -3.7 6.3
-6 -3 2 173.98 19.2
-6 -3 2 149.29 19.7
5 3 -2 49.7 11.2
-5 -3 2 48.2 3.9
-5 -3 2 34.4 10.1
-5 -3 2 30.6 9.4
4 3 -2 8.6 4.5
-4 -3 2 4 3.9
-4 -3 2 9.9 2.3
-4 -3 2 0.1 2.5
3 3 -2 72.49 8.7
-3 -3 2 69.79 8.9
-3 -3 2 55.39 10.7
-3 -3 2 58.29 5.2
2 3 -2 2 2.8
-2 -3 2 1.7 1.8
-2 -3 2 4.8 2.8
-1 -3 2 402.86 18
-1 -3 2 408.26 19.2
-1 -3 2 413.16 19.1
0 -3 2 2455.95 63.99
0 -3 2 2537.35 73.39
1 -3 2 316.97 15.2
1 -3 2 339.87 20.1
-2 3 -2 2799.82 71.19
-2 3 -2 2790.42 80.29
-2 3 -2 2883.61 71.49
-2 3 -2 2819.42 88.09
2 -3 2 2860.01 87.89
2 -3 2 2920.91 80.09
-3 3 -2 97.49 8.1
-3 3 -2 74.19 9.5
-3 3 -2 77.69 10.8
3 -3 2 82.29 9.2
3 -3 2 97.29 12.1
-4 3 -2 26.8 6.5
-4 3 -2 28.4 7.4
4 -3 2 44.2 9.8
4 -3 2 33.5 8.5
-5 3 -2 1.6 5.7
-5 3 -2 6.6 4.5
-5 3 -2 0.4 2.4
5 -3 2 10.4 6.2
5 -3 2 10.1 5.5
-6 3 -2 25.6 9.3
-6 3 -2 24.6 9
6 -3 2 8.9 9.1
7 -3 2 0.2 6.7
-8 -2 2 -5.1 6.4
-8 -2 2 -15.9 7.1
-7 -2 2 -1.6 4.9
-7 -2 2 13.2 6.1
-6 -2 2 427.56 30.6
-6 -2 2 399.56 32.3
5 2 -2 482.45 30.5
-5 -2 2 507.95 34
-5 -2 2 499.65 30.7
4 2 -2 847.92 38.7
-4 -2 2 821.62 37.8
3 2 -2 1000.2 39.6
-3 -2 2 1027.1 42.7
2 2 -2 26.2 5.6
-2 -2 2 23.9 5
-2 -2 2 25.1 2.7
1 2 -2 411.36 16.7
-1 -2 2 424.56 18.1
-1 -2 2 399.46 16.4
0 2 -2 3289.17 86.79
0 -2 2 3132.09 86.09
-1 2 -2 40.4 5
-1 2 -2 37.8 6.8
-1 2 -2 39.1 2.5
1 -2 2 45.5 5.2
1 -2 2 40.2 7.1
-2 2 -2 30.6 6
-2 2 -2 22.2 4
-2 2 -2 28.2 6.5
2 -2 2 23.7 6
-3 2 -2 23.9 6.2
-3 2 -2 21.6 5.1
-3 2 -2 17.2 6
3 -2 2 26.4 6.7
3 -2 2 17.4 4.9
-4 2 -2 -1.8 1.9
-4 2 -2 4.4 4.3
-4 2 -2 6.4 4
4 -2 2 -1 3.3
4 -2 2 2.7 4
-5 2 -2 1150.48 61.99
-5 2 -2 1066.89 51.29
-5 2 -2 1222.38 50.59
5 -2 2 1156.68 52.29
-6 2 -2 13 8.1
-6 2 -2 17 8.2
-6 2 -2 22.6 8.6
6 -2 2 13.2 6.4
-7 2 -2 -2.7 8.3
-7 2 -2 2.4 6.2
-8 -1 2 19.1 8.3
-8 -1 2 12.9 10.1
-7 -1 2 1.6 3.9
-7 -1 2 5.9 6
6 1 -2 27.2 3.7
5 1 -2 1.2 1.2
-5 -1 2 -0.4 3.3
4 1 -2 674.63 32.8
-4 -1 2 651.53 32.1
3 1 -2 2109.49 66.59
-3 -1 2 2170.08 66.89
2 1 -2 1573.24 39.4
2 1 -2 1706.53 51.09
-2 -1 2 1595.14 50.19
1 1 -2 106.69 6.4
-1 -1 2 112.69 6.5
0 1 -2 963.7 29.6
0 1 -2 1043.4 33.2
0 -1 2 1046.4 33
0 -1 2 1052.99 29.8
-1 1 -2 -0.8 1.2
-1 1 -2 -1.5 1
-1 1 -2 -0.5 0.8
1 -1 2 0.7 1
1 -1 2 -0.1 1.3
1 -1 2 -1.6 0.7
-2 1 -2 84.49 8.1
-2 1 -2 96.59 9.3
2 -1 2 85.79 9.2
2 -1 2 79.59 8.4
2 -1 2 79.09 7.5
-3 1 -2 65.79 8.6
-3 1 -2 69.39 9.4
-3 1 -2 63.49 10.3
3 -1 2 75.59 9.5
3 -1 2 57.59 9.9
-4 1 -2 21 6.7
-4 1 -2 45.8 10.1
-4 1 -2 31.2 7.8
4 -1 2 35.6 9.4
4 -1 2 41.9 9.4
-5 1 -2 267.67 23
-5 1 -2 313.97 24.9
-5 1 -2 274.07 23.1
5 -1 2 303.67 23.2
-6 1 -2 69.19 15
-6 1 -2 99.39 16.5
-6 1 -2 81.49 16
6 -1 2 95.89 13.7
-7 1 -2 32.4 13
-7 1 -2 24.1 16.8
7 -1 2 22.6 8.9
8 0 -2 45.7 7.2
-8 0 2 53.79 15.5
-8 0 2 102.59 20.2
-7 0 2 35.4 10
6 0 -2 114.29 9.1
-6 0 2 149.19 16.5
5 0 -2 33.8 4.8
5 0 -2 25.7 7.8
-5 0 2 32.6 8.7
4 0 -2 217.98 16.9
4 0 -2 240.18 11.6
-4 0 2 225.58 17.2
3 0 -2 633.34 28
3 0 -2 671.73 21.6
-3 0 2 627.64 27.9
2 0 -2 58.79 4.8
2 0 -2 60.39 6.6
-2 0 2 61.89 6.6
-2 0 2 61.69 7.1
1 0 -2 1205.78 38.2
1 0 -2 1155.28 35.1
-1 0 2 1191.38 35.3
-1 0 2 1154.58 37.9
0 0 -2 4232.98 107.39
0 0 -2 4109.19 106.49
0 0 2 4109.39 106.99
0 0 2 4272.07 107.19
0 0 2 4070.89 105.79
-1 0 -2 79.19 7.4
-1 0 -2 74.69 7.7
-1 0 -2 76.89 7.4
1 0 2 79.29 7.5
1 0 2 84.79 8.2
1 0 2 72.29 7.2
-2 0 -2 1284.97 46.3
-2 0 -2 1332.27 46.2
-2 0 -2 1320.97 48.5
2 0 2 1309.77 45.9
2 0 2 1324.27 46
2 0 2 1237.68 44.8
-3 0 -2 20.3 5.7
-3 0 -2 18 5.7
-3 0 -2 19.3 5.1
3 0 2 28.6 7
3 0 2 31.6 7.2
-4 0 -2 21.5 6.8
-4 0 -2 11.3 4.9
-4 0 -2 7.2 5.1
4 0 2 14.4 5.3
4 0 2 14 5.3
-5 0 -2 1055.29 53.29
-5 0 -2 1313.17 54.89
-5 0 -2 1286.57 58.09
5 0 2 1194.58 51.89
-6 0 -2 46.8 12.5
-6 0 -2 67.29 13.6
-6 0 -2 95.99 19.2
6 0 2 80.49 14.8
-7 0 -2 11.8 7.8
-7 0 -2 42.4 12.1
7 0 2 28.1 10.6
8 -1 -2 15.1 6.8
-8 1 2 31 11.8
-7 1 2 34.6 10.8
6 -1 -2 504.45 32.7
-6 1 2 482.25 31.5
5 -1 -2 13.3 3.8
5 -1 -2 10.3 5.5
-5 1 2 12.5 5.3
4 -1 -2 1046.9 43.7
4 -1 -2 1202.48 40.5
-4 1 2 1228.38 45.5
3 -1 -2 24 5.4
-3 1 2 27 5.6
-3 1 2 28.7 6.4
2 -1 -2 358.76 19.7
-2 1 2 348.97 19.5
-2 1 2 329.07 16.3
1 -1 -2 446.36 21.4
1 -1 -2 451.05 20.1
-1 1 2 461.95 21.5
0 -1 -2 805.02 31.8
0 -1 -2 869.21 31.9
0 1 2 837.02 28.2
0 1 2 820.22 31.4
0 1 2 811.02 31.9
-1 -1 -2 2.1 1.9
-1 -1 -2 2.8 1.8
-1 -1 -2 4.3 2.5
1 1 2 3.1 2.3
1 1 2 2 1.9
1 1 2 5.7 2.9
-2 -1 -2 1.8 1.9
-2 -1 -2 4 2.3
-2 -1 -2 0.5 2
2 1 2 2.9 2.3
2 1 2 3.5 3.2
2 1 2 3 2.1
-3 -1 -2 10.4 4.7
-3 -1 -2 30.1 7.9
-3 -1 -2 34.2 8.8
3 1 2 22.8 6.5
3 1 2 23.9 7
3 1 2 26.4 7.1
-4 -1 -2 291.07 21.6
-4 -1 -2 287.47 24.6
-4 -1 -2 314.27 24.1
4 1 2 300.57 23.2
4 1 2 283.87 21.2
-5 -1 -2 15.9 9
-5 -1 -2 23.1 6.9
-5 -1 -2 2.9 5.9
5 1 2 12.7 6.5
-6 -1 -2 4.1 6.4
-6 -1 -2 -1.6 6.5
-6 -1 -2 14.6 8.6
6 1 2 -2.4 6
8 -2 -2 19.2 8.9
-8 2 2 23 9.8
7 -2 -2 35.8 10.1
-7 2 2 45.2 11.6
6 -2 -2 586.44 35.7
6 -2 -2 660.53 32.6
-6 2 2 574.74 34.5
5 -2 -2 -0.5 3.6
5 -2 -2 5.5 4.2
-5 2 2 10.3 5.9
-5 2 2 6.9 5.2
4 -2 -2 77.99 10.1
4 -2 -2 91.49 9.9
-4 2 2 80.09 10.7
-4 2 2 74.69 9.2
3 -2 -2 38.1 6.9
-3 2 2 49.4 7.8
-3 2 2 42 8.8
2 -2 -2 31.9 6.7
-2 2 2 28.5 4.7
-2 2 2 29.8 8.5
1 -2 -2 1501.45 50.49
1 -2 -2 1522.95 52.49
-1 2 2 1413.36 50.49
0 -2 -2 42.8 8.2
0 -2 -2 46.5 8.4
0 2 2 32.8 6.9
0 2 2 37.9 7.6
0 2 2 45.4 5.2
-1 -2 -2 163.68 11.6
-1 -2 -2 146.29 13
-1 -2 -2 145.39 13.9
1 2 2 153.58 11.4
1 2 2 146.19 13.7
1 2 2 134.49 13.4
-2 -2 -2 480.75 26.3
-2 -2 -2 525.55 29.8
-2 -2 -2 510.65 25.9
2 2 2 461.15 24.5
2 2 2 505.45 29.3
2 2 2 502.35 27.5
-3 -2 -2 112.59 14.2
-3 -2 -2 91.59 11.8
-3 -2 -2 97.39 12.2
3 2 2 113.29 14.2
3 2 2 112.29 12.6
3 2 2 100.09 11.8
-4 -2 -2 608.14 33.9
-4 -2 -2 662.13 37
-4 -2 -2 620.94 39.3
4 2 2 567.04 35.2
4 2 2 615.24 34.1
-5 -2 -2 35.6 10.9
-5 -2 -2 53.99 13.4
-5 -2 -2 12.5 7.3
5 2 2 26 8.9
-6 -2 -2 3.9 5.3
-6 -2 -2 31.8 12.8
6 2 2 22 8.6
8 -3 -2 5.1 7
-8 3 2 12.8 9.8
7 -3 -2 0.8 5.3
-7 3 2 4.9 4.9
6 -3 -2 34.8 9
6 -3 -2 9.1 6.3
-6 3 2 24 9.1
-6 3 2 18.6 7.7
5 -3 -2 73.79 12.1
5 -3 -2 72.09 12.5
-5 3 2 75.09 12.1
-5 3 2 78.39 13.6
4 -3 -2 427.76 23.5
-4 3 2 490.75 29.6
3 -3 -2 86.49 10.9
-3 3 2 74.79 13
-3 3 2 79.19 7.7
2 -3 -2 247.88 19.1
-2 3 2 222.28 12
-2 3 2 219.68 17.4
1 -3 -2 146.69 13.8
1 -3 -2 177.18 15.4
-1 3 2 156.58 14.5
-1 3 2 156.98 8.9
0 -3 -2 486.65 27
0 -3 -2 539.35 29.6
0 3 2 494.65 27.6
0 3 2 501.65 20.3
-1 -3 -2 2.6 2.2
-1 -3 -2 1 2
-1 -3 -2 -1.4 1.2
1 3 2 1.5 2.5
1 3 2 7.3 4
-2 -3 -2 1.8 3.2
-2 -3 -2 6 4.2
-2 -3 -2 2.8 3.4
2 3 2 0.4 3.9
2 3 2 9 4.7
2 3 2 2.2 3.4
-3 -3 -2 197.38 17.9
-3 -3 -2 190.58 20.2
-3 -3 -2 192.18 17.5
3 3 2 223.48 21.2
3 3 2 210.88 18.5
3 3 2 215.18 19.6
-4 -3 -2 303.67 24.5
-4 -3 -2 268.77 26.9
-4 -3 -2 329.67 25.4
4 3 2 332.07 25.5
-5 -3 -2 -2.3 5.2
-5 -3 -2 3.3 5.9
-5 -3 -2 13 6
5 3 2 6.8 6.4
-6 -3 -2 56.09 15.1
-6 -3 -2 71.79 19.1
6 3 2 48.6 12.4
8 -4 -2 11.7 9.3
-8 4 2 20.5 11.6
7 -4 -2 -3.7 5.4
-7 4 2 22.3 7.6
6 -4 -2 -2.2 4.9
6 -4 -2 8.4 6.1
-6 4 2 4.1 4.9
-6 4 2 3.3 6.1
5 -4 -2 1.5 4.6
5 -4 -2 -4 3
-5 4 2 1.4 4.2
-5 4 2 10.7 4.7
-4 4 2 3.6 2.5
-4 4 2 8.9 5
3 -4 -2 -1.6 1.7
-3 4 2 -0.6 3.2
-3 4 2 -0.2 1.5
2 -4 -2 1390.36 55.79
-2 4 2 1331.37 38.7
-2 4 2 1320.27 54.19
1 -4 -2 9457.05 253.67
1 -4 -2 9530.25 254.17
-1 4 2 9941.3 231.68
-1 4 2 9999 254.37
0 -4 -2 2116.29 75.39
0 -4 -2 2047.8 72.69
0 4 2 1989.1 57.09
0 4 2 1878.51 71.09
-1 -4 -2 23.7 5.1
-1 -4 -2 14.3 5.3
-1 -4 -2 10.9 5.4
1 4 2 20.4 7.3
1 4 2 15.5 5.6
-2 -4 -2 1.4 3.7
-2 -4 -2 -1 3
-2 -4 -2 10.1 5.8
2 4 2 3.8 5.6
2 4 2 7.3 4.2
-3 -4 -2 1.3 4.8
-3 -4 -2 -0.2 4.2
-3 -4 -2 11.3 5.7
3 4 2 -4.8 4.9
-4 -4 -2 -7.3 3.6
-4 -4 -2 -3.2 5.5
-4 -4 -2 -2 5.8
-5 -4 -2 13.3 9.6
-5 -4 -2 -6.4 6
7 -5 -2 22.7 9.8
-7 5 2 13.5 9.5
6 -5 -2 231.28 28.5
6 -5 -2 187.08 18.6
-6 5 2 244.08 19.3
5 -5 -2 176.58 21.1
-5 5 2 161.68 13.1
-5 5 2 141.49 18.7
4 -5 -2 -4.8 4.4
-4 5 2 -3.6 1.9
-4 5 2 1.3 4.7
3 -5 -2 28.6 8.1
-3 5 2 29.2 3.7
-3 5 2 31.3 8.1
2 -5 -2 -1.7 3.1
-2 5 2 3.8 3.6
-2 5 2 0.4 1
-2 5 2 2.1 1
1 -5 -2 83.49 18.3
1 -5 -2 93.79 13.1
-1 5 2 72.39 13.7
-1 5 2 86.99 5.4
0 -5 -2 86.09 15.6
0 -5 -2 106.49 14.8
0 5 2 95.59 7.9
0 5 2 123.79 16.4
-1 -5 -2 6.1 3.4
-1 -5 -2 10.2 5.7
-1 -5 -2 5.3 5.2
1 5 2 5.4 6.8
1 5 2 4.8 3.8
-2 -5 -2 144.79 19.3
-2 -5 -2 171.08 15.3
-2 -5 -2 179.08 18.8
2 5 2 210.68 17.3
-3 -5 -2 140.79 19.9
-3 -5 -2 147.49 15.9
3 5 2 120.79 14.6
-4 -5 -2 92.59 20.7
-4 -5 -2 137.39 16.8
7 -6 -2 23.7 11.5
-7 6 2 39.7 9.6
6 -6 -2 13.8 11.7
-6 6 2 58.99 9.7
5 -6 -2 57.19 13.9
-5 6 2 74.39 14.7
4 -6 -2 118.29 16.7
-4 6 2 113.59 15.9
-4 6 2 127.79 8.2
3 -6 -2 106.39 15.3
-3 6 2 88.99 15.7
2 -6 -2 42.8 10.7
-2 6 2 35.7 10.3
1 -6 -2 68.49 14.6
-1 6 2 82.69 15.1
0 -6 -2 58.99 13.4
0 6 2 47.3 5.7
-1 -6 -2 -2.3 5.2
1 6 2 10.8 4.9
-2 -6 -2 -3.9 4.9
-2 -6 -2 4.3 5.3
2 6 2 -0.8 5.4
-3 -6 -2 19.5 7.8
3 6 2 19.2 9.7
-4 -6 -2 15.6 14.4
-4 -6 -2 46.5 13.1
6 -7 -2 96.79 22.2
-6 7 2 88.59 11.8
5 -7 -2 39.1 13.3
-5 7 2 20.7 4.6
4 -7 -2 0.4 6.8
3 -7 -2 19.6 7.4
2 -7 -2 4.3 7.7
1 -7 -2 -1.2 5
0 -7 -2 -8 6.2
0 7 2 7 2.5
-1 -7 -2 -8 3.3
1 7 2 -0.7 4.6
-2 -7 -2 22.6 6.9
-2 -7 -2 8.6 8.1
2 7 2 3.3 7.6
-3 -7 -2 18.8 7.6
-3 -7 -2 11.8 10.3
5 -8 -2 33.9 14.2
4 -8 -2 27.2 11.5
3 -8 -2 -3.8 8
2 -8 -2 85.89 18.1
1 -8 -2 4.2 7.7
0 -8 -2 4.4 4.9
-1 -8 -2 3.3 10.7
1 8 2 -3.4 4.3
-1 -10 3 -2.7 8.8
-1 -10 3 7.9 10.5
0 -10 3 3 7
0 -10 3 2.3 9.2
1 -10 3 27.8 13.6
1 -10 3 21.5 8.6
2 -10 3 24.5 11.4
-3 -9 3 54.19 15.1
-3 -9 3 48.4 15.1
-3 -9 3 62.69 10.2
-2 -9 3 69.29 16.3
-2 -9 3 58.39 14.7
-1 -9 3 28.4 8.8
-1 -9 3 1.9 2.7
-1 -9 3 -6.4 6.9
-1 -9 3 8.1 2.6
0 -9 3 119.69 20.6
0 -9 3 128.59 14.8
1 -9 3 215.08 17.4
1 -9 3 268.47 28.1
2 -9 3 33.7 6.4
2 -9 3 28 12.2
3 -9 3 27.6 3.4
3 -9 3 20.1 10.9
4 -9 3 21.6 12.4
-4 -8 3 0.2 6.3
-4 -8 3 -4.4 7.9
-4 -8 3 15.5 7.5
-4 -8 3 10.1 7.6
-3 -8 3 2.2 5.3
-3 -8 3 34.7 7.1
-3 -8 3 10.6 8.1
-3 -8 3 34.6 11
-2 -8 3 13.3 4.4
-2 -8 3 7 5.4
-2 -8 3 16 8.8
-1 -8 3 1.4 6.2
-1 -8 3 -0.8 2.4
-1 -8 3 6.4 5.2
0 -8 3 34.9 8.1
0 -8 3 29.8 4.5
0 -8 3 24.5 4.1
0 -8 3 33.5 12
1 -8 3 258.37 11.2
1 -8 3 256.97 17.1
1 -8 3 254.47 26.8
1 -8 3 269.77 11.1
2 -8 3 295.97 14
2 -8 3 280.17 27.5
3 -8 3 636.34 31.2
3 -8 3 580.24 43.8
4 -8 3 280.87 30.7
4 -8 3 285.07 19
5 -8 3 18.9 9.6
5 -8 3 22.9 13.2
-5 -7 3 8.7 5.3
-5 -7 3 4.4 8.3
-5 -7 3 0.3 7
-5 -7 3 -3 5.1
-4 -7 3 143.29 15.6
-4 -7 3 148.09 19.5
-4 -7 3 153.28 15.5
-4 -7 3 112.49 12.9
-3 -7 3 67.49 14.5
-3 -7 3 69.89 12.1
-2 -7 3 32.2 8.6
-2 -7 3 38.1 8.6
-2 -7 3 25.2 6.2
-1 -7 3 11.2 3.4
-1 -7 3 18.4 6.3
-1 -7 3 11.8 5.7
0 -7 3 15 3.9
0 -7 3 2.6 5.5
0 -7 3 16.7 5.3
0 -7 3 18.1 4
1 -7 3 2.3 2.5
1 -7 3 0.2 2.3
1 -7 3 -3.8 3.6
2 -7 3 38.5 6.2
3 -7 3 14 8.2
3 -7 3 2 4.5
4 -7 3 378.06 33.9
4 -7 3 315.87 22.4
-5 7 -3 149.49 17.8
5 -7 3 131.69 18.7
5 -7 3 170.28 27.7
-6 -6 3 2.1 2.4
-6 -6 3 4.6 7.6
-6 -6 3 -3.1 1.9
-6 -6 3 -8.3 6.9
-5 -6 3 3.2 3.3
-5 -6 3 8.3 3.9
-5 -6 3 8.1 5.6
-5 -6 3 6.3 7.7
4 6 -3 22.8 7.3
-4 -6 3 4.9 4.1
-4 -6 3 5.6 4.3
-4 -6 3 4.5 4.5
-3 -6 3 89.29 11.4
-3 -6 3 90.79 15.7
-3 -6 3 107.09 11.7
-2 -6 3 145.49 12.5
-2 -6 3 182.08 16.3
-2 -6 3 166.88 16.3
-1 -6 3 321.17 23.6
-1 -6 3 296.27 16.6
-1 -6 3 281.77 20.9
0 -6 3 809.72 30.3
0 -6 3 790.72 40.9
0 -6 3 821.92 32.2
1 -6 3 61.69 7.1
1 -6 3 76.89 6.4
1 -6 3 83.99 15.1
2 -6 3 195.98 13.5
2 -6 3 215.38 21.9
3 -6 3 88.69 16.6
3 -6 3 96.19 10.6
-4 6 -3 202.88 18.1
4 -6 3 219.88 17
4 -6 3 194.08 23.7
-5 6 -3 3 2.9
-5 6 -3 8.7 3.6
-5 6 -3 7.2 6.8
5 -6 3 6.5 7.1
-6 6 -3 8 8.4
-6 6 -3 7.3 6.3
-6 6 -3 0.6 4.4
6 -6 3 10.7 8.9
-7 -5 3 3.9 8.8
-7 -5 3 11.7 10.5
-6 -5 3 160.48 22.8
-6 -5 3 179.58 20.4
-5 -5 3 394.16 31.6
-5 -5 3 454.55 35.1
-5 -5 3 398.26 16.2
-5 -5 3 406.86 17
4 5 -3 4.3 6.2
-4 -5 3 12.8 3.4
-4 -5 3 11.7 6
-4 -5 3 0.1 2.7
-4 -5 3 3.1 3.3
-3 -5 3 444.26 25.7
-3 -5 3 448.56 23.2
-3 -5 3 433.66 28.4
-2 -5 3 91.09 10.4
-2 -5 3 96.19 11.1
-1 -5 3 2.2 1.9
-1 -5 3 -1.7 1.6
-1 -5 3 1.4 2.1
0 -5 3 8.2 2.8
0 -5 3 -2.1 2.6
1 -5 3 10.1 4.5
1 -5 3 -1.9 2
2 -5 3 1059.89 38.3
2 -5 3 951.6 47.4
-3 5 -3 97.89 16.8
-3 5 -3 93.69 10.8
3 -5 3 113.59 11.1
3 -5 3 98.89 17.3
-4 5 -3 2.8 2.1
-4 5 -3 -4.4 3.9
-4 5 -3 -1.5 1.9
4 -5 3 -4.1 4.4
4 -5 3 16.5 5.6
-5 5 -3 6.1 4.2
-5 5 -3 3.3 4.1
-5 5 -3 14.1 5
5 -5 3 -0.5 5.3
-6 5 -3 36.9 8.7
-6 5 -3 28.4 7.9
-6 5 -3 39.6 10.3
6 -5 3 17.9 12.6
-7 -4 3 15.1 8.8
-7 -4 3 12.4 8.3
-6 -4 3 -1.4 4.4
-6 -4 3 5.2 6.6
5 4 -3 458.95 31.7
-5 -4 3 431.66 29.7
-5 -4 3 469.55 36.3
4 4 -3 114.79 12.8
-4 -4 3 100.89 14.2
-4 -4 3 109.69 7.2
-4 -4 3 109.59 6.6
-4 -4 3 122.79 13.3
3 4 -3 528.15 28.6
-3 -4 3 498.95 21.3
-3 -4 3 533.65 30.6
-3 -4 3 527.25 27.7
-2 -4 3 48.7 8.3
-2 -4 3 36.6 7.7
-2 -4 3 38.2 6.6
-1 -4 3 261.77 16
-1 -4 3 287.77 16
-1 -4 3 272.57 17.5
0 4 -3 800.62 36.1
0 -4 3 768.22 24.8
-1 4 -3 46.9 9.2
1 -4 3 61.89 7.3
1 -4 3 53.09 10.1
-2 4 -3 250.97 17.3
-2 4 -3 265.67 21.6
2 -4 3 297.87 17.9
2 -4 3 277.37 21.5
-3 4 -3 33.5 7.8
-3 4 -3 35.6 3.8
-3 4 -3 48 10.6
-3 4 -3 30.5 3.7
3 -4 3 25.2 7.6
3 -4 3 30.8 7.2
-4 4 -3 11.9 7.7
-4 4 -3 21.8 7.5
-4 4 -3 17.4 4.5
4 -4 3 17.4 7.3
4 -4 3 24.7 7.5
-5 4 -3 5.4 4.2
-5 4 -3 20.6 10.6
5 -4 3 6.4 7.3
-6 4 -3 30.5 8.6
-6 4 -3 39.7 10.8
6 -4 3 16.6 11.1
-7 -3 3 9 6.8
-7 -3 3 10.8 8.1
-6 -3 3 385.26 32.6
-6 -3 3 368.96 29.6
5 3 -3 904.51 45.2
-5 -3 3 940.11 45.3
-5 -3 3 910.81 49.4
4 3 -3 366.56 24.6
-4 -3 3 328.07 23.1
3 3 -3 410.76 24.1
-3 -3 3 382.46 22.5
-3 -3 3 365.76 13.8
-2 -3 3 88.09 7.3
-2 -3 3 94.09 9.6
1 3 -3 2 1.7
-1 -3 3 3 2
0 3 -3 1210.98 44.4
0 -3 3 1226.38 44.3
-1 3 -3 62.29 8.4
1 -3 3 44.4 9
1 -3 3 32.2 7.6
-2 3 -3 406.96 14.4
-2 3 -3 405.16 22.6
-2 3 -3 361.06 24.2
2 -3 3 418.16 25.7
2 -3 3 419.36 22.4
-3 3 -3 5.7 2.7
-3 3 -3 9.2 4.1
-3 3 -3 9 5
3 -3 3 11.2 5
3 -3 3 5.1 4.2
-4 3 -3 103.49 14.2
-4 3 -3 98.49 15.4
-4 3 -3 99.49 10.4
4 -3 3 120.69 15
4 -3 3 111.99 12.9
-5 3 -3 3.2 4.6
-5 3 -3 10.2 4.4
5 -3 3 -0.2 4.6
-6 3 -3 3.8 5.7
-6 3 -3 0.7 5.2
6 -3 3 -5.3 5.1
-8 -2 3 9.8 12.3
-8 -2 3 3.6 5.1
-7 -2 3 -3.4 7.3
-7 -2 3 -6.9 6.1
-6 -2 3 96.79 16.7
5 2 -3 57.29 11.6
-5 -2 3 50.09 11
4 2 -3 117.59 13.4
-4 -2 3 99.59 11.9
3 2 -3 186.48 15.2
-3 -2 3 172.58 14.2
2 2 -3 1164.58 34.5
-2 -2 3 1149.78 33.7
-2 -2 3 1149.58 41.6
1 2 -3 575.74 23.2
-1 -2 3 546.35 22.5
-1 -2 3 606.34 23.2
0 2 -3 16.7 4.5
0 -2 3 20 4.8
0 -2 3 17.6 3.3
-1 2 -3 77.29 5.7
-1 2 -3 66.09 8.6
1 -2 3 55.29 8.5
1 -2 3 64.09 5.2
1 -2 3 64.79 8.6
-2 2 -3 506.15 28.4
-2 2 -3 547.05 27.1
-2 2 -3 551.84 21.9
2 -2 3 545.85 28.8
2 -2 3 511.65 26
-3 2 -3 231.98 19.4
-3 2 -3 232.48 18.2
-3 2 -3 219.78 15.1
3 -2 3 209.88 18.3
3 -2 3 209.38 16.9
-4 2 -3 32.7 8.8
-4 2 -3 51.19 14.3
-4 2 -3 46.7 9
4 -2 3 39.8 10.1
4 -2 3 30.3 8
-5 2 -3 57.79 12.1
-5 2 -3 62.09 14.5
-5 2 -3 52.79 12.1
5 -2 3 65.39 14.1
-6 2 -3 100.19 18.2
-6 2 -3 109.29 19.1
6 -2 3 97.29 17.7
-8 -1 3 0.9 7
-8 -1 3 9.6 10
-7 -1 3 0.7 6.7
-6 -1 3 264.07 25.7
-5 -1 3 -2 2.1
4 1 -3 8.6 3.7
-4 -1 3 20.4 6.3
3 1 -3 114.79 5.5
3 1 -3 91.29 10.2
-3 -1 3 108.09 11.9
2 1 -3 144.69 8.4
-2 -1 3 144.79 8.6
-2 -1 3 158.58 12.4
-2 -1 3 143.29 11.6
1 1 -3 82.49 7.3
1 1 -3 72.19 7.4
-1 -1 3 76.29 7
-1 -1 3 69.69 7.2
0 1 -3 1971.7 57.29
0 1 -3 1985.4 61.09
0 -1 3 2082.59 61.19
0 -1 3 2016.4 60.49
0 -1 3 1983.5 57.49
-1 1 -3 3720.03 101.79
-1 1 -3 3698.23 103.59
-1 1 -3 3598.14 97.19
1 -1 3 3584.14 100.79
1 -1 3 3637.64 96.89
1 -1 3 3613.14 102.59
-2 1 -3 756.52 30.9
-2 1 -3 721.23 33.3
-2 1 -3 750.12 35.2
2 -1 3 750.02 33.4
2 -1 3 812.92 35.6
2 -1 3 738.63 30.7
-3 1 -3 1.9 3.2
-3 1 -3 -6.9 2.9
-3 1 -3 1 2.9
3 -1 3 -1.9 3.1
3 -1 3 2.3 2.9
-4 1 -3 40.5 9.4
-4 1 -3 36 9.9
4 -1 3 25.8 8.2
4 -1 3 36.1 9.2
-5 1 -3 47.4 12.2
-5 1 -3 65.69 13.7
-5 1 -3 55.09 12.3
5 -1 3 26.2 9.8
-6 1 -3 5.4 7.8
-6 1 -3 16 6.6
6 -1 3 -9.7 5.5
-8 0 3 -3 7.3
7 0 -3 17.3 2.9
-7 0 3 26.7 9.6
-6 0 3 615.44 36.9
5 0 -3 268.47 21.9
5 0 -3 344.07 14.6
-5 0 3 330.67 23.7
4 0 -3 1513.35 44.6
4 0 -3 1598.14 45.8
4 0 -3 1620.84 57.69
-4 0 3 1533.55 56.59
3 0 -3 57.59 5.5
-3 0 3 59.79 9.5
-3 0 3 45.2 8.8
2 0 -3 23.4 5.8
2 0 -3 30.9 5.1
-2 0 3 31.9 4.6
-2 0 3 32 6.7
1 0 -3 1559.84 50.59
1 0 -3 1524.95 48
-1 0 3 1475.55 48.1
-1 0 3 1495.45 50.09
0 0 -3 1261.67 43.6
0 0 -3 1264.87 42.5
0 0 3 1154.18 40.9
0 0 3 1195.18 42.9
0 0 3 1237.78 42.7
-1 0 -3 10.7 3.7
-1 0 -3 7.6 3.2
-1 0 -3 4.7 3
1 0 3 14.8 4.7
1 0 3 8.9 3.6
1 0 3 9 3.6
-2 0 -3 82.29 14.3
-2 0 -3 72.49 9.4
-2 0 -3 72.89 9.6
2 0 3 95.99 10.3
2 0 3 77.39 9.9
2 0 3 71.49 9.2
-3 0 -3 20.5 5.9
-3 0 -3 10.8 5.5
-3 0 -3 19 5.8
3 0 3 13.4 4.7
3 0 3 8.2 4.5
3 0 3 17 6.4
-4 0 -3 308.57 32
-4 0 -3 395.06 28
-4 0 -3 354.76 26.5
4 0 3 344.27 32.1
4 0 3 404.26 27.4
-5 0 -3 590.34 38.5
-5 0 -3 604.84 38.1
-5 0 -3 663.43 40.5
5 0 3 615.74 37.8
-6 0 -3 15.5 8.2
-6 0 -3 2.7 6.1
6 0 3 11.1 8.4
8 -1 -3 -1.7 3.9
-8 1 3 7.4 8.4
7 -1 -3 7.9 4.2
-7 1 3 0.4 4.7
6 -1 -3 6.6 3.8
6 -1 -3 -3.8 4.5
-6 1 3 0.7 4.7
-6 1 3 2.1 5
5 -1 -3 72.99 8.7
5 -1 -3 90.79 11.6
-5 1 3 86.89 14
-5 1 3 83.29 14.6
4 -1 -3 1025.6 42.9
-4 1 3 1118.69 43.8
-4 1 3 1021.9 46.4
3 -1 -3 17.1 4.6
-3 1 3 11.7 4.3
-3 1 3 13.2 5
2 -1 -3 404.56 23.3
2 -1 -3 378.46 19.9
-2 1 3 412.96 23.4
1 -1 -3 0 1.8
1 -1 -3 2.3 1.7
-1 1 3 2.1 2.1
0 -1 -3 377.76 22
0 -1 -3 385.46 21.5
0 1 3 379.06 22
0 1 3 373.06 21.8
0 1 3 380.76 19.4
-1 -1 -3 139.39 13.1
-1 -1 -3 124.89 14.6
-1 -1 -3 131.19 13.1
1 1 3 118.39 12.5
1 1 3 129.09 12.9
1 1 3 116.19 11
-2 -1 -3 12.7 4
-2 -1 -3 10.2 5
-2 -1 -3 19 6.1
2 1 3 7.5 5
2 1 3 8 4.3
2 1 3 13.4 4.8
-3 -1 -3 75.49 13.1
-3 -1 -3 78.99 13.9
-3 -1 -3 86.29 13.8
3 1 3 92.29 12.7
3 1 3 83.59 11.7
-4 -1 -3 50.19 11.7
-4 -1 -3 69.19 14
-4 -1 -3 85.19 14
4 1 3 72.29 13.7
-5 -1 -3 164.38 19.7
-5 -1 -3 199.68 22.5
5 1 3 161.18 19.5
-6 -1 -3 0.7 7.9
-6 -1 -3 -1.1 6.1
6 1 3 19.3 10.2
8 -2 -3 53.29 10.4
-8 2 3 57.89 13.7
7 -2 -3 36.4 8.5
-7 2 3 34.3 11.1
6 -2 -3 40.3 8.7
6 -2 -3 22 8.1
-6 2 3 49.7 12.5
-6 2 3 47.5 10.9
5 -2 -3 34.4 7.5
5 -2 -3 22.9 6.3
-5 2 3 21.7 7.5
-5 2 3 20.7 7.4
-4 2 3 489.55 30.7
-4 2 3 474.05 25.7
3 -2 -3 7.3 3.5
3 -2 -3 10.5 4.6
-3 2 3 7.2 3.2
-3 2 3 5.6 4.2
2 -2 -3 66.69 9
2 -2 -3 81.29 10.6
-2 2 3 51.59 9.8
1 -2 -3 1272.77 48
1 -2 -3 1260.47 50.69
-1 2 3 1278.27 42
-1 2 3 1292.27 50.49
0 -2 -3 572.74 30.8
0 -2 -3 571.64 29.6
0 2 3 522.05 29.5
0 2 3 584.74 30.7
0 2 3 544.35 24.4
-1 -2 -3 586.94 31.2
-1 -2 -3 601.04 28.5
-1 -2 -3 590.54 32.9
1 2 3 607.04 32.7
1 2 3 590.04 27.5
1 2 3 604.54 33.1
-2 -2 -3 127.69 14.3
-2 -2 -3 187.78 18.1
-2 -2 -3 155.18 14.7
2 2 3 132.99 13.3
2 2 3 163.38 16.8
2 2 3 156.18 17
-3 -2 -3 20.5 9.6
-3 -2 -3 13.5 7
-3 -2 -3 16.4 7
3 2 3 8.8 7.3
3 2 3 20.7 7.6
3 2 3 17.5 5.7
-4 -2 -3 287.47 24.6
-4 -2 -3 281.97 27
-4 -2 -3 274.97 24
4 2 3 330.77 26.1
-5 -2 -3 579.54 42.8
-5 -2 -3 590.54 39.8
5 2 3 586.24 37.7
-6 -2 -3 6.6 8.5
-6 -2 -3 2.3 7.6
6 2 3 21.4 10.2
8 -3 -3 5 6.8
-8 3 3 -4.9 7.1
7 -3 -3 108.09 15
-7 3 3 129.99 19.4
6 -3 -3 250.57 21.8
6 -3 -3 288.37 22.8
-6 3 3 283.37 23
-5 3 3 171.58 19
-5 3 3 166.58 15.9
-4 3 3 177.88 18.5
-4 3 3 164.68 13.7
3 -3 -3 21.5 7
-3 3 3 25.8 7.7
-3 3 3 17.9 4.9
2 -3 -3 13.8 5.3
2 -3 -3 13.2 4.8
-2 3 3 14.6 5.6
1 -3 -3 4.2 4.2
1 -3 -3 2.8 3.2
-1 3 3 4 4
-1 3 3 1.2 2
0 -3 -3 180.28 17
0 -3 -3 177.88 17.6
0 3 3 181.18 16.3
0 3 3 175.48 16.2
-1 -3 -3 32.4 7.5
-1 -3 -3 27.2 8.2
-1 -3 -3 29.8 8.5
1 3 3 24.7 6.5
1 3 3 25.1 8.3
1 3 3 32.2 8.8
-2 -3 -3 -1.5 2.5
-2 -3 -3 1.8 4.4
2 3 3 12.1 4.9
2 3 3 4.2 4
2 3 3 1.1 4.9
-3 -3 -3 65.49 12.8
-3 -3 -3 73.19 13.7
3 3 3 54.89 11.6
3 3 3 57.69 13.3
-4 -3 -3 80.79 17.9
-4 -3 -3 71.29 14.2
-5 -3 -3 -7.5 6.3
-5 -3 -3 1.3 8.5
5 3 3 10 8.4
7 -4 -3 175.98 21
-7 4 3 179.78 19.1
6 -4 -3 230.48 23
-6 4 3 188.38 17.5
-5 4 3 81.39 10.2
-5 4 3 72.19 13.6
4 -4 -3 8.3 6
-4 4 3 6.9 6.9
3 -4 -3 17.8 7.4
-3 4 3 13.9 5.7
-3 4 3 9.6 3.5
2 -4 -3 226.18 21.1
2 -4 -3 185.88 18.5
-2 4 3 198.18 12.1
-2 4 3 190.58 19.1
-2 4 3 214.48 13
1 -4 -3 276.47 23.4
1 -4 -3 223.68 19.9
-1 4 3 242.98 21.8
-1 4 3 235.88 13.6
0 -4 -3 20.8 6.2
0 4 3 7.4 3.9
0 4 3 7.1 6.4
-1 -4 -3 119.99 16.6
-1 -4 -3 149.29 16.8
-1 -4 -3 160.28 13.3
1 4 3 146.19 13.3
1 4 3 164.18 18.4
-2 -4 -3 75.49 19.8
-2 -4 -3 61.89 11.4
-2 -4 -3 55.19 12.4
2 4 3 62.49 11
-3 -4 -3 199.98 19.5
-3 -4 -3 212.68 24.8
3 4 3 185.38 23.8
-4 -4 -3 205.18 20.3
-4 -4 -3 205.48 26.2
7 -5 -3 -1.1 6.9
-7 5 3 15.9 11.2
6 -5 -3 6.4 6.7
-6 5 3 -2.1 5.6
-5 5 3 138.09 13
4 -5 -3 7.6 5.7
-4 5 3 19.3 5
-4 5 3 8.8 6.5
3 -5 -3 31.1 9
-3 5 3 27.9 5.2
-3 5 3 28.7 10.4
2 -5 -3 110.99 15.3
2 -5 -3 89.69 15.6
-2 5 3 96.09 16.4
-2 5 3 126.59 8.5
-2 5 3 121.69 8.7
1 -5 -3 8.3 6
1 -5 -3 12.3 6.8
-1 5 3 5.2 6.1
-1 5 3 6.1 3.2
0 -5 -3 139.89 18.2
0 5 3 114.69 10
-1 -5 -3 -0.2 4.8
1 5 3 -1.4 3.8
-2 -5 -3 26.4 11.3
-2 -5 -3 16.9 7
2 5 3 27.8 8.6
-3 -5 -3 141.99 25.1
-4 -5 -3 49.7 15.9
-4 -5 -3 34.3 10.5
6 -6 -3 -5.1 6.3
-6 6 3 3.9 5.4
4 -6 -3 -10.2 6
-4 6 3 -0.7 2.4
3 -6 -3 83.99 17.7
-3 6 3 64.89 4.8
-3 6 3 77.59 5.1
-2 6 3 1302.07 34.2
-2 6 3 1315.67 34.6
1 -6 -3 2084.69 87.39
-1 6 3 2045.8 56.69
0 -6 -3 62.79 15.6
-1 -6 -3 -7.9 4.4
1 6 3 2.2 4.5
-2 -6 -3 10.3 6.6
-2 -6 -3 12.2 6.5
2 6 3 -0.4 7.4
-3 -6 -3 5.2 9.6
-3 -6 -3 2.1 8.9
-5 7 3 4.5 3.2
4 -7 -3 8 7.5
3 -7 -3 16.9 9.7
2 -7 -3 19.2 9.2
1 -7 -3 2 7
0 -7 -3 36.3 12.3
0 7 3 17.6 5.4
-1 -7 -3 16.9 10.5
1 7 3 -0.4 7
-2 -7 -3 85.89 19.8
2 7 3 51.79 14.6
4 -8 -3 67.69 17.4
3 -8 -3 2.8 11
2 -8 -3 13.6 9.4
1 -8 -3 43.1 14.9
-1 -10 4 55.69 5.6
-1 -10 4 59.39 14.2
-1 -10 4 56.09 5.6
-1 -10 4 43 14
0 -10 4 56.49 11.8
0 -10 4 66.69 16.9
1 -10 4 7.8 4.3
1 -10 4 -0.7 7.4
-3 -9 4 409.96 42.1
-3 -9 4 401.36 25.1
-3 -9 4 429.16 33.5
-2 -9 4 72.69 11.2
-2 -9 4 42 12.6
-2 -9 4 63.59 15.1
-1 -9 4 9.9 7.2
-1 -9 4 3.2 6.2
-1 -9 4 -2.1 3.5
-1 -9 4 3.8 3.6
0 -9 4 6.4 5
0 -9 4 6.4 3.7
0 -9 4 4.1 7.3
0 -9 4 2.7 2.7
1 -9 4 79.39 17
1 -9 4 97.49 9
1 -9 4 96.49 7.9
1 -9 4 96.29 7.3
2 -9 4 5.9 8.7
2 -9 4 15.6 4.3
3 -9 4 41.5 8.2
3 -9 4 41.9 15.8
-4 -8 4 163.98 18.2
-4 -8 4 161.68 17.4
-4 -8 4 183.18 17.8
-4 -8 4 172.28 23.6
-3 -8 4 611.94 37
-3 -8 4 679.43 49
-2 -8 4 48.1 9.1
-2 -8 4 62.49 13.1
-2 -8 4 50.49 11.4
-1 -8 4 37.6 9.5
-1 -8 4 56.09 12.8
-1 -8 4 49 9.8
0 -8 4 21.8 5.2
0 -8 4 34 6.7
0 -8 4 51.49 7.2
0 -8 4 36.5 11.2
1 -8 4 16.8 3.5
1 -8 4 12.7 4.9
1 -8 4 18.4 9.2
2 -8 4 64.09 16.6
2 -8 4 60.19 9
3 -8 4 4 4
3 -8 4 -6.2 5.7
4 -8 4 -4.4 6.1
4 -8 4 -8.3 3.6
-5 -7 4 -3.1 4.6
-5 -7 4 2.1 4.2
-5 -7 4 -2.1 5.7
-5 -7 4 -2.3 6.3
-4 -7 4 -6.7 4.2
-4 -7 4 -3.1 6
-4 -7 4 12.9 7.7
-4 -7 4 -1.2 3.5
-3 -7 4 236.18 19.2
-3 -7 4 197.48 20.6
-3 -7 4 188.38 16.7
-2 -7 4 15.9 5.3
-2 -7 4 29.7 8.7
-2 -7 4 15.7 5.9
-1 -7 4 2.5 3.1
-1 -7 4 7.8 4.6
-1 -7 4 4.1 3.3
0 -7 4 795.42 32.1
0 -7 4 803.62 44.2
0 -7 4 807.62 31.3
0 -7 4 795.92 33.4
1 -7 4 163.18 13.1
1 -7 4 137.79 18.4
2 -7 4 9.5 7.9
2 -7 4 22.5 5.9
3 -7 4 31 7.8
3 -7 4 22.3 9.9
4 -7 4 56.49 15.2
4 -7 4 39.1 10.3
5 -7 4 10.2 9.4
-6 -6 4 32.4 10.1
-6 -6 4 16.4 9.7
-5 -6 4 36.5 11.1
-5 -6 4 6.7 3.1
-5 -6 4 16.8 4.3
-4 -6 4 50.99 12
-4 -6 4 21 7.5
-4 -6 4 31.7 6.3
-3 -6 4 92.09 11.4
-3 -6 4 71.79 10.3
-3 -6 4 92.69 12.6
-2 -6 4 -6.3 2.7
-2 -6 4 1.9 2.9
-2 -6 4 0.8 3.3
-1 -6 4 3.4 3.2
-1 -6 4 3 3.7
-1 -6 4 6.2 3.6
0 -6 4 515.55 33
0 -6 4 567.44 26.1
0 -6 4 541.55 21.6
1 -6 4 40.2 10.6
1 -6 4 40.9 7.5
2 -6 4 1246.28 46.9
2 -6 4 1290.77 60.29
3 -6 4 877.21 49.9
3 -6 4 842.32 38.4
4 -6 4 205.38 18.8
4 -6 4 202.78 24.5
-5 6 -4 7.8 6.7
5 -6 4 19.1 9.7
-7 -5 4 3 8.3
-7 -5 4 3.7 8.2
-6 -5 4 5.5 5
-5 -5 4 79.49 16.8
-4 -5 4 41.7 5.2
-4 -5 4 50.69 10.7
-4 -5 4 36.9 5.2
-4 -5 4 53.39 12.1
-3 -5 4 346.47 25
-3 -5 4 381.76 20.3
-3 -5 4 355.86 23.6
-2 -5 4 2.5 2.7
-2 -5 4 -4.4 1.7
-2 -5 4 -0.3 3.4
-1 -5 4 16.3 6.5
-1 -5 4 26.8 5.3
0 5 -4 68.09 12.3
0 -5 4 74.49 5.6
0 -5 4 64.59 11.7
-1 5 -4 39.5 9.9
1 -5 4 32.5 8.6
1 -5 4 36.7 7.1
-2 5 -4 72.29 13.7
2 -5 4 41.7 8.5
2 -5 4 44.4 10.5
3 -5 4 76.39 12.3
3 -5 4 80.59 15.8
-4 5 -4 860.41 43.6
4 -5 4 811.12 48.1
4 -5 4 786.52 40.6
-5 5 -4 5.1 4.1
-5 5 -4 2.5 3.3
-5 5 -4 -8.4 5.7
5 -5 4 -3.8 7.5
-6 5 -4 8.9 6.7
-6 5 -4 -3.9 6.9
6 -5 4 3.3 9.1
-7 -4 4 3.5 7.3
-7 -4 4 3.3 7.6
-6 -4 4 4.8 6.6
-6 -4 4 12.3 7.5
-5 -4 4 5.7 4.7
-5 -4 4 1.3 5.1
-4 -4 4 1.6 2.8
-4 -4 4 3.1 1.3
-4 -4 4 3.7 1.3
-3 -4 4 324.67 21.9
-3 -4 4 321.47 16
-2 -4 4 207.28 14.3
-2 -4 4 197.08 15.8
1 4 -4 1705.83 58.79
-1 -4 4 1641.74 57.29
0 4 -4 718.63 35.3
0 -4 4 753.62 22.8
0 -4 4 745.43 35.5
0 -4 4 684.73 22.7
-1 4 -4 166.98 16.7
1 -4 4 195.98 17.6
1 -4 4 159.68 13.5
-2 4 -4 244.18 21.8
2 -4 4 291.87 23.1
2 -4 4 265.67 19.1
-3 4 -4 105.69 14.9
-3 4 -4 132.09 7.4
-3 4 -4 126.19 14.3
3 -4 4 156.98 18
3 -4 4 125.29 14.1
-4 4 -4 145.89 11.3
-4 4 -4 158.08 16.7
4 -4 4 154.58 21.1
-5 4 -4 11.4 7.1
5 -4 4 10.3 7.5
-6 4 -4 12.5 9.7
-6 4 -4 4.9 6.9
6 -4 4 1.3 8.8
-8 -3 4 3.1 8
-8 -3 4 0.6 7.6
-7 -3 4 31 10.8
-7 -3 4 17.1 8.9
-6 -3 4 499.85 34.7
5 3 -4 197.58 20
-5 -3 4 187.08 18.6
-4 -3 4 35 8.8
-3 -3 4 1009.4 42.5
-3 -3 4 932.51 29.7
2 3 -4 0 1.5
-2 -3 4 2.2 2.6
1 3 -4 45.5 8
-1 -3 4 58.39 6.5
-1 -3 4 46.3 8
0 3 -4 1.4 2.7
0 -3 4 1.5 1.6
0 -3 4 3.5 2.6
-1 3 -4 503.05 17.5
-1 3 -4 548.55 30.5
1 -3 4 541.65 27
1 -3 4 510.35 17.2
1 -3 4 512.55 28.6
-2 3 -4 1477.95 55.49
-2 3 -4 1420.16 42.3
-2 3 -4 1487.05 60.29
2 -3 4 1383.16 57.39
2 -3 4 1500.95 54.99
-3 3 -4 16.5 4.7
-3 3 -4 8.5 5.6
-3 3 -4 13.5 4.9
3 -3 4 12.3 6.9
3 -3 4 19.5 7.6
-4 3 -4 -1.4 4.2
-4 3 -4 -2.8 3
4 -3 4 0.2 5.1
-5 3 -4 53.29 11.2
-5 3 -4 89.59 16.8
5 -3 4 83.89 17.7
-6 3 -4 5.8 7.9
-6 3 -4 14.8 7.1
6 -3 4 14 9.4
-8 -2 4 -1.6 6.5
-7 -2 4 4 5.7
-6 -2 4 142.39 17.5
5 2 -4 302.87 23.8
-5 -2 4 283.67 23
-4 -2 4 747.73 37.2
3 2 -4 231.68 11.4
-3 -2 4 219.08 10.6
-3 -2 4 219.88 17.1
2 2 -4 0.3 2
-2 -2 4 6 2.4
1 2 -4 1234.78 43.8
-1 -2 4 1241.68 43.1
-1 -2 4 1256.87 42.7
0 2 -4 106.49 8.6
0 2 -4 110.09 11.3
0 -2 4 120.29 9.1
0 -2 4 114.69 11.5
0 -2 4 114.99 10.9
-1 2 -4 244.58 14
-1 2 -4 235.58 18.5
1 -2 4 246.58 18.5
1 -2 4 257.17 13.9
1 -2 4 241.58 17.3
-2 2 -4 89.89 12
-2 2 -4 108.09 10
-2 2 -4 92.29 11.5
2 -2 4 94.39 11.1
2 -2 4 96.99 9.5
2 -2 4 96.09 12.2
-3 2 -4 72.89 17.1
-3 2 -4 67.39 12.3
-3 2 -4 63.59 8.8
3 -2 4 58.69 11.5
3 -2 4 76.29 14.1
-4 2 -4 5.7 7.5
-4 2 -4 6.5 4.1
-4 2 -4 8 4.5
4 -2 4 21.8 9
-5 2 -4 8.4 8.6
-5 2 -4 19.2 7.3
5 -2 4 11.4 8.6
-6 2 -4 1.7 8.9
-6 2 -4 -17 10.6
6 -2 4 21.1 9.4
-8 -1 4 6.4 5.5
-7 -1 4 52.49 12.3
5 1 -4 119.79 15
-5 -1 4 118.29 14.6
4 1 -4 997.5 29.2
-4 -1 4 1046.3 44.9
3 1 -4 7.6 2.8
-3 -1 4 5.1 2.5
-3 -1 4 7.1 4
-3 -1 4 4.3 2.7
2 1 -4 186.18 12.2
-2 -1 4 196.28 12.8
-2 -1 4 187.58 14.7
1 1 -4 419.16 22
1 1 -4 416.16 21.6
-1 -1 4 411.36 21.3
-1 -1 4 403.76 21.8
0 1 -4 359.86 19.2
0 1 -4 311.77 20.1
0 -1 4 315.17 18.5
0 -1 4 371.86 20.7
-1 1 -4 13.3 4.9
-1 1 -4 14.1 4
1 -1 4 9.8 3.9
1 -1 4 9.9 3.9
1 -1 4 14.3 5.3
-2 1 -4 234.38 17.2
-2 1 -4 255.07 19.7
-2 1 -4 256.97 20.5
2 -1 4 228.08 19.1
2 -1 4 238.38 17.1
2 -1 4 230.08 18.2
-3 1 -4 138.99 14.4
-3 1 -4 109.59 14
-3 1 -4 106.79 19.7
3 -1 4 132.19 15.7
3 -1 4 137.69 15.4
3 -1 4 143.69 14.5
-4 1 -4 4.6 4.7
-4 1 -4 10.2 7.9
-4 1 -4 5.4 5.4
4 -1 4 -4.3 3.1
-5 1 -4 3.5 7.1
-5 1 -4 -1.9 5.5
5 -1 4 3.6 5.7
-6 1 -4 8.2 9.4
-6 1 -4 2.1 6.8
6 -1 4 3.5 7.5
-8 0 4 -3.7 6.2
-7 0 4 27.7 9.7
6 0 -4 42.6 4.6
6 0 -4 49.6 5
-6 0 4 53.19 12.5
5 0 -4 5.8 3.1
5 0 -4 8.1 3.1
5 0 -4 2.5 6.1
-5 0 4 4.4 4.3
-5 0 4 16.2 7
4 0 -4 256.77 14.2
-4 0 4 255.37 21.1
-4 0 4 248.28 19.2
3 0 -4 129.99 10.2
-3 0 4 125.39 12.3
-3 0 4 107.59 12.8
2 0 -4 1265.47 44.2
-2 0 4 1270.97 49.1
-2 0 4 1296.37 45.2
1 0 -4 4.7 3.3
1 0 -4 9.4 4.3
-1 0 4 3.8 2.8
-1 0 4 -2 2.2
0 0 -4 102.39 11.4
0 0 -4 119.19 11.9
0 0 4 127.69 12.6
0 0 4 112.19 10.8
0 0 4 113.09 11.7
-1 0 -4 33.8 7.6
-1 0 -4 39.7 8.6
-1 0 -4 34.3 8.1
1 0 4 23.3 7
1 0 4 42.2 8.5
1 0 4 47.7 9.4
-2 0 -4 291.47 22.8
-2 0 -4 283.97 21.3
-2 0 -4 303.17 21.8
2 0 4 279.87 20.8
2 0 4 283.17 22.1
2 0 4 275.77 21
-3 0 -4 126.99 14.9
-3 0 -4 112.79 15.2
-3 0 -4 102.29 13.4
3 0 4 132.89 15.4
3 0 4 136.39 15.8
3 0 4 107.49 16.2
-4 0 -4 0.7 6
-4 0 -4 2.7 5.6
4 0 4 10.9 6.2
-5 0 -4 163.88 20.5
-5 0 -4 198.18 21.9
5 0 4 160.28 20.1
-6 0 -4 -8.3 8.6
-6 0 -4 28.4 11.8
6 0 4 5.8 10.2
8 -1 -4 4.3 3.5
8 -1 -4 -0.8 3.6
-8 1 4 0.6 6.4
7 -1 -4 172.28 13.4
7 -1 -4 186.78 13.5
-7 1 4 174.08 20.6
6 -1 -4 47.7 11.9
6 -1 -4 70.99 8.3
6 -1 -4 76.99 9.2
-6 1 4 48.3 11.8
5 -1 -4 18.6 5
-5 1 4 22.9 7
-5 1 4 28.7 9
-4 1 4 80.99 11.5
-4 1 4 78.59 10.2
3 -1 -4 51.59 10.7
3 -1 -4 55.09 7.6
-3 1 4 51.39 9.5
-3 1 4 48.7 10.1
2 -1 -4 61.29 11.4
2 -1 -4 50.19 9
-2 1 4 50.09 10.3
1 -1 -4 699.33 32.8
1 -1 -4 669.63 34.1
-1 1 4 744.23 34.7
-1 1 4 705.53 34.7
0 -1 -4 15 5.4
0 -1 -4 20.8 6
0 1 4 9.2 4.7
0 1 4 16 5.5
0 1 4 10 4
-1 -1 -4 1522.85 55.79
-1 -1 -4 1483.05 58.69
-1 -1 -4 1455.65 57.99
1 1 4 1478.75 54.59
1 1 4 1493.55 58.29
1 1 4 1488.95 59.09
-2 -1 -4 15.6 5.1
-2 -1 -4 21.2 7
-2 -1 -4 25.2 7.6
2 1 4 4 5.4
2 1 4 15.8 7.3
2 1 4 18.5 6.7
-3 -1 -4 13.3 6.2
-3 -1 -4 12.9 7.3
-3 -1 -4 7.6 4.4
3 1 4 6.7 5.7
3 1 4 -1.4 4.6
3 1 4 -5.9 5.3
-4 -1 -4 -2.8 4.7
-4 -1 -4 2 3.8
4 1 4 1.1 4.5
-5 -1 -4 56.89 14.1
-5 -1 -4 64.29 14.3
5 1 4 88.59 17.2
8 -2 -4 9.8 6.4
8 -2 -4 -11.6 6.6
-8 2 4 16.5 9.3
7 -2 -4 158.08 15
7 -2 -4 148.09 15
-7 2 4 149.69 18.7
6 -2 -4 265.07 19.7
-6 2 4 257.67 22.2
5 -2 -4 368.86 23.3
-5 2 4 361.66 24.7
-5 2 4 351.16 28.9
4 -2 -4 480.85 26.9
-4 2 4 465.95 26.6
-4 2 4 461.55 31.4
3 -2 -4 20.6 7.1
3 -2 -4 33.6 8
-3 2 4 37 7.7
-3 2 4 27.3 8
2 -2 -4 30.9 8.6
2 -2 -4 21.4 6.5
-2 2 4 20.9 7
1 -2 -4 737.73 37.3
1 -2 -4 763.12 40.1
-1 2 4 816.62 33.3
-1 2 4 795.12 40
-1 2 4 803.92 39.7
0 -2 -4 71.29 13.1
0 -2 -4 73.09 12.3
0 2 4 69.19 8.6
0 2 4 80.19 11.4
0 2 4 80.09 11.5
-1 -2 -4 31.3 8.9
-1 -2 -4 16.2 6.2
1 2 4 25.4 8.3
1 2 4 14.7 6.5
1 2 4 32.3 7.8
-2 -2 -4 -4.1 5.5
-2 -2 -4 6.1 4.5
-2 -2 -4 -0.2 3.9
2 2 4 -5.5 5.1
2 2 4 11.8 5.2
2 2 4 -0.6 3.6
-3 -2 -4 1.1 5.1
-3 -2 -4 10.9 7.9
3 2 4 10.4 5.7
-4 -2 -4 621.24 44.3
-4 -2 -4 705.43 42.7
4 2 4 684.83 42.5
-5 -2 -4 54.69 16
-5 -2 -4 49.4 14.4
5 2 4 27.6 12.2
8 -3 -4 -2.9 7.6
8 -3 -4 1.2 9.8
-8 3 4 3.4 8.3
7 -3 -4 4.1 6.7
-7 3 4 -9.3 4.9
6 -3 -4 -2.3 4.2
-6 3 4 8.8 5.8
5 -3 -4 132.29 15.4
-5 3 4 120.59 20.3
-5 3 4 138.09 14.5
4 -3 -4 237.28 19.9
4 -3 -4 244.28 23
-4 3 4 244.08 17.8
-4 3 4 199.88 20.8
3 -3 -4 62.29 11.9
3 -3 -4 70.49 14.4
-3 3 4 65.09 13.5
-3 3 4 87.59 10.3
2 -3 -4 8.9 4.5
2 -3 -4 4.9 4
-2 3 4 15.6 6.5
1 -3 -4 41.2 9.3
1 -3 -4 44.8 11.2
-1 3 4 35.7 10
-1 3 4 26.3 6.2
0 -3 -4 2.9 3.4
0 -3 -4 1.3 3.5
0 3 4 -0.5 4.8
0 3 4 1.5 2.9
-1 -3 -4 43.5 12
-1 -3 -4 47.4 10.5
1 3 4 50.09 10.2
1 3 4 43.4 12
1 3 4 32.8 8.9
-2 -3 -4 20.7 6.8
2 3 4 10.6 6
2 3 4 19.9 8.1
-3 -3 -4 68.29 16.7
-3 -3 -4 61.79 12.5
3 3 4 87.29 16.9
-4 -3 -4 60.79 17.4
-4 -3 -4 30.5 11.1
4 3 4 43.6 13.6
7 -4 -4 46.1 12.9
-7 4 4 37.6 11
-6 4 4 -7.1 3.6
5 -4 -4 22.6 7.3
-5 4 4 10.8 4.9
4 -4 -4 121.09 20.8
4 -4 -4 122.69 15.8
-4 4 4 136.49 18
-4 4 4 141.89 13
3 -4 -4 3.8 4.4
3 -4 -4 8.1 3.6
-3 4 4 -2.4 2.7
-3 4 4 -3 2.8
2 -4 -4 215.18 21.4
2 -4 -4 233.98 23.2
-2 4 4 239.38 23.2
-2 4 4 253.17 15.8
1 -4 -4 337.17 27.1
1 -4 -4 359.56 29.4
-1 4 4 355.06 28.3
-1 4 4 330.07 19.2
0 -4 -4 -0.8 4.2
0 4 4 -1.6 3.5
-1 -4 -4 280.17 27.3
1 4 4 245.28 19.2
-2 -4 -4 18 8.8
-2 -4 -4 25.6 8.4
2 4 4 21.2 8.4
-3 -4 -4 15.8 8.6
-3 -4 -4 2.1 5.9
-4 -4 -4 367.96 31.6
-4 -4 -4 268.87 48.1
7 -5 -4 113.99 20.3
-7 5 4 85.59 18.1
-6 5 4 16.2 7.4
-5 5 4 119.49 13
4 -5 -4 11 7.8
-4 5 4 10.6 4.6
-3 5 4 0.4 2.8
2 -5 -4 7.7 5.8
-2 5 4 6.1 5.6
1 -5 -4 81.69 17.7
-1 5 4 90.29 9.7
0 -5 -4 6.6 7
0 5 4 6.8 4.7
-1 -5 -4 -1.2 4.4
1 5 4 1.8 4.5
-2 -5 -4 6.5 8
-3 -5 -4 27.7 18.3
-3 -5 -4 35.5 11.5
-6 6 4 -4.3 6.3
5 -6 -4 30 11.1
-5 6 4 12.8 5.9
4 -6 -4 13.5 7.8
-4 6 4 27.5 6.2
-4 6 4 30.1 6
3 -6 -4 3.3 8.9
-3 6 4 17.3 4.3
-3 6 4 5.9 3.7
2 -6 -4 128.29 18.5
-2 6 4 139.79 10
-2 6 4 140.59 10.5
1 -6 -4 12.1 9.7
-1 6 4 35 6.7
0 -6 -4 -9.1 5.7
0 6 4 -1.9 5.8
-1 -6 -4 46 13.7
1 6 4 51.49 11.3
-2 -6 -4 48.3 15.7
5 -7 -4 33.6 14
-5 7 4 11.6 4.4
-5 7 4 1.8 3.3
4 -7 -4 -1.5 8.5
3 -7 -4 24.8 11.2
2 -7 -4 11.8 9.1
1 -7 -4 58.79 16.6
-1 7 4 50.59 6.6
0 -7 -4 35 16.4
0 7 4 20.3 6.7
-1 -10 5 161.18 21
-1 -10 5 176.98 13.4
-1 -10 5 185.78 18.5
-1 -10 5 150.78 27.2
0 -10 5 82.49 9.2
0 -10 5 75.79 19.1
0 -10 5 84.69 10.5
1 -10 5 5.1 4.1
-3 -9 5 -6.6 6.9
-3 -9 5 2.6 6.4
-3 -9 5 2.5 5.4
-2 -9 5 3 5.2
-2 -9 5 2.3 7.1
-2 -9 5 -0.4 6.8
-1 -9 5 160.18 15.3
-1 -9 5 174.88 15
-1 -9 5 159.88 21.3
-1 -9 5 178.88 15.1
0 -9 5 275.97 16.2
0 -9 5 279.37 18
0 -9 5 313.27 19.6
0 -9 5 288.97 29
1 -9 5 452.55 37.8
1 -9 5 389.96 21.8
1 -9 5 427.36 23.8
2 -9 5 -6.9 5.5
2 -9 5 8.7 9.2
3 -9 5 17.7 9
3 -9 5 14.6 12
-5 -8 5 -1.3 10.3
-5 -8 5 8.9 10.6
-5 -8 5 -3.3 8
-4 -8 5 205.48 20.7
-4 -8 5 198.58 18.1
-4 -8 5 212.98 23.1
-3 -8 5 27 9.9
-3 -8 5 51.39 10.3
-3 -8 5 29.4 9.6
-2 -8 5 25.1 6.6
-2 -8 5 22 8.8
-2 -8 5 10.7 6
-1 -8 5 149.19 18.3
-1 -8 5 145.19 13.9
-1 -8 5 149.09 14
0 -8 5 25.3 4.9
0 -8 5 25.4 10.1
0 -8 5 15.6 4.8
0 -8 5 6.1 5.5
1 -8 5 18.7 6.5
1 -8 5 12.6 7.8
2 -8 5 74.59 11.3
2 -8 5 81.69 16.6
3 -8 5 97.19 13.7
3 -8 5 130.29 24.3
4 -8 5 -0.7 6.4
-5 -7 5 15.4 8.5
-5 -7 5 5 4
-5 -7 5 5 7.5
-5 -7 5 -2.7 3.2
-4 -7 5 278.57 19.4
-4 -7 5 267.17 22.5
-4 -7 5 294.67 26.4
-3 -7 5 526.05 33.9
-3 -7 5 560.14 31.1
-3 -7 5 534.75 31.6
-2 -7 5 35.3 8.4
-2 -7 5 35.8 8.8
-2 -7 5 24.4 8.7
-1 -7 5 8.1 4.5
-1 -7 5 0.9 3.2
-1 -7 5 4.5 4.2
0 -7 5 -4.4 1.8
0 -7 5 -1.8 4.6
0 -7 5 7.7 4.7
1 -7 5 194.38 21.5
1 -7 5 197.78 16.1
2 -7 5 42.7 8.8
2 -7 5 71.69 15.5
3 -7 5 30.1 9.2
4 -7 5 12.3 9.1
-6 -6 5 5.8 8.9
-6 -6 5 -1.7 7.6
-5 -6 5 10 6.1
-5 -6 5 15.7 7.3
-4 -6 5 874.31 47.4
-4 -6 5 911.01 45.2
-3 -6 5 589.34 33.3
-3 -6 5 570.94 33.7
-3 -6 5 550.54 28.9
-2 -6 5 14.8 6.1
-2 -6 5 23.9 6.2
-2 -6 5 17.8 6.9
-1 -6 5 31.3 6.1
-1 -6 5 30.6 8.9
0 -6 5 229.58 9.8
0 -6 5 222.28 9.7
0 -6 5 235.78 17.3
0 -6 5 260.07 22.6
-1 6 -5 11.2 7.5
1 -6 5 13.7 6.5
1 -6 5 24.2 6.2
2 -6 5 10.5 7.6
2 -6 5 24.4 7.1
3 -6 5 -0.4 6.7
3 -6 5 23.2 9.1
4 -6 5 2 7.7
-7 -5 5 -3.2 6.9
-6 -5 5 3 6.2
-6 -5 5 8.7 5.4
-5 -5 5 17.1 7.4
-5 -5 5 13 8
-4 -5 5 74.49 14.4
-4 -5 5 68.49 13.3
-3 -5 5 134.89 15
-3 -5 5 141.99 11.9
-3 -5 5 148.29 15.7
-2 -5 5 4.1 3.5
-2 -5 5 4.6 3.9
-2 -5 5 0.6 3.1
1 5 -5 348.27 24.5
-1 -5 5 336.97 18
-1 -5 5 349.87 23.7
-1 -5 5 320.37 17.8
0 5 -5 1315.17 57.69
0 -5 5 1434.06 58.29
0 -5 5 1375.56 37.4
0 -5 5 1367.56 37.9
0 -5 5 1438.36 52.79
-1 5 -5 1.2 5.2
1 -5 5 6.4 4.3
1 -5 5 4.3 4.3
-2 5 -5 25.4 10.2
2 -5 5 15.9 6.4
2 -5 5 15.4 6.9
3 -5 5 95.49 15.5
3 -5 5 71.59 15.2
-4 5 -5 9.3 7.7
4 -5 5 23.3 10.7
-5 5 -5 2.5 2.8
-5 5 -5 8.7 8.5
-5 5 -5 0.5 2.7
5 -5 5 2 6.8
-7 -4 5 88.49 18.1
-7 -4 5 104.49 21.3
-6 -4 5 9.9 6.2
-5 -4 5 49.2 11.3
-4 -4 5 65.49 5.1
-4 -4 5 63.89 12.3
-3 -4 5 66.09 12.1
-3 -4 5 62.39 7
2 4 -5 69.49 9.1
-2 -4 5 77.29 9.4
1 4 -5 236.38 18.3
-1 -4 5 235.08 14.6
-1 -4 5 196.58 16.5
0 4 -5 886.71 41.9
0 -4 5 848.92 27.7
0 -4 5 811.72 37.4
0 -4 5 869.71 40.7
-1 4 -5 464.55 30.9
1 -4 5 491.25 30.8
1 -4 5 461.65 26.8
-2 4 -5 1592.84 67.19
2 -4 5 1372.56 80.19
2 -4 5 1578.04 65.79
-3 4 -5 628.34 22.6
3 -4 5 642.84 50.99
3 -4 5 665.83 38.6
-4 4 -5 62.79 8.1
-4 4 -5 85.79 16.2
4 -4 5 101.19 18.3
-5 4 -5 0.8 5.2
-5 4 -5 9 7.8
5 -4 5 5.5 7.2
-8 -3 5 -0.7 10.3
-8 -3 5 -3.2 7.4
-7 -3 5 -2.4 6.9
-6 -3 5 6.9 6.2
-5 -3 5 284.87 24.1
-4 -3 5 152.38 16.7
-4 -3 5 148.39 7.2
3 3 -5 245.68 14.7
-3 -3 5 248.58 19.8
-3 -3 5 249.58 13.9
-2 -3 5 4.5 3.3
-2 -3 5 6.1 4
1 3 -5 8.3 4.5
-1 -3 5 11.3 3.7
0 3 -5 50.79 10.5
0 -3 5 61.49 11.4
0 -3 5 38.1 8.6
0 -3 5 55.69 6.4
-1 3 -5 120.59 14.4
-1 3 -5 116.09 8.9
1 -3 5 95.19 12.5
1 -3 5 95.79 8.1
1 -3 5 113.79 12.6
-2 3 -5 -0.4 2.2
-2 3 -5 -1 4.8
2 -3 5 -3 1.5
2 -3 5 -0.2 3.8
2 -3 5 -0.6 2.7
-3 3 -5 466.65 23.7
-3 3 -5 466.85 31.8
3 -3 5 466.35 32.8
-4 3 -5 419.36 32.2
-4 3 -5 445.86 25.8
4 -3 5 475.35 35.5
-5 3 -5 13.4 8.2
-5 3 -5 16.5 8.4
5 -3 5 33.6 12.7
-8 -2 5 11.7 9
-7 -2 5 8.5 7.5
-6 -2 5 10.5 5.3
-5 -2 5 14.1 5.2
4 2 -5 5.9 2.5
-4 -2 5 -2.6 4.9
-4 -2 5 5.1 3.6
3 2 -5 392.56 19
-3 -2 5 355.46 24.2
-3 -2 5 386.26 18.9
-3 -2 5 373.06 24.5
-2 -2 5 548.65 25.7
-2 -2 5 534.55 28.3
1 2 -5 2118.49 70.39
1 2 -5 2244.68 69.09
-1 -2 5 2045.2 71.69
-1 -2 5 2275.07 70.69
0 2 -5 204.08 14.4
0 2 -5 186.08 16.8
0 -2 5 168.78 15.6
0 -2 5 188.78 16.5
0 -2 5 204.68 14.1
-1 2 -5 335.17 19.1
-1 2 -5 273.57 22.3
1 -2 5 299.17 21.5
1 -2 5 299.87 17.9
1 -2 5 306.07 22.9
-2 2 -5 70.29 14.2
-2 2 -5 95.89 10.4
2 -2 5 86.89 12.4
2 -2 5 86.09 9.9
2 -2 5 73.79 13.5
-3 2 -5 196.38 19.4
-3 2 -5 168.38 16
3 -2 5 175.98 19.7
-4 2 -5 29.5 8.5
-4 2 -5 7 6.4
4 -2 5 10.4 7.7
-5 2 -5 41.3 13.2
-5 2 -5 14.3 9.5
5 -2 5 29.9 11.4
-8 -1 5 14.3 9.8
-7 -1 5 142.69 22.5
-6 -1 5 736.33 42.8
5 1 -5 1.2 1.5
-5 -1 5 -2.3 3.2
-5 -1 5 -4.2 2.8
4 1 -5 328.27 16
-4 -1 5 350.46 24.8
-4 -1 5 281.57 23.4
3 1 -5 266.87 16.1
-3 -1 5 258.77 16
-3 -1 5 276.67 21
-3 -1 5 245.08 19.7
2 1 -5 -0.2 2.3
2 1 -5 1.3 2.1
-2 -1 5 1.7 2.7
1 1 -5 72.49 9.7
1 1 -5 64.39 13.8
-1 -1 5 64.79 8.7
-1 -1 5 45.8 9
0 1 -5 54.19 10.8
0 1 -5 52.59 9.4
0 -1 5 73.09 9
0 -1 5 36 8.3
0 -1 5 52.39 9.6
-1 1 -5 1231.58 54.19
-1 1 -5 1419.26 50.99
1 -1 5 1313.67 52.79
1 -1 5 1270.57 49.1
1 -1 5 1232.68 53.39
-2 1 -5 222.88 21.4
-2 1 -5 226.98 20.4
-2 1 -5 227.38 18.4
2 -1 5 253.47 22.3
2 -1 5 236.28 20.3
2 -1 5 220.18 18.1
-3 1 -5 50.99 11.2
-3 1 -5 55.19 12.8
3 -1 5 39.5 9.5
3 -1 5 51.59 12.6
-4 1 -5 9.8 6.6
4 -1 5 5.8 6
-5 1 -5 50.39 12.7
-5 1 -5 37.9 12.5
5 -1 5 52.99 13.6
-8 0 5 11.1 8.8
-7 0 5 33.9 11.6
6 0 -5 304.57 15.3
6 0 -5 270.97 14.1
-6 0 5 267.07 29.3
5 0 -5 2 2.4
-5 0 5 8.1 4.4
4 0 -5 490.75 23.6
-4 0 5 521.25 30.6
-4 0 5 473.45 31.4
3 0 -5 46.8 8.3
-3 0 5 49.5 10.9
-3 0 5 56.19 10.7
2 0 -5 77.69 9.9
2 0 -5 73.09 12.7
-2 0 5 81.29 10
-2 0 5 86.69 11.6
1 0 -5 420.26 26.7
1 0 -5 435.56 26.1
-1 0 5 470.45 27.4
-1 0 5 418.36 26.2
0 0 -5 3.8 3.7
0 0 -5 0.3 1.6
0 0 5 1.9 2.7
0 0 5 -2.4 2.5
0 0 5 -1.1 2.5
-1 0 -5 323.17 24.5
-1 0 -5 277.87 21.6
1 0 5 314.57 22.3
1 0 5 288.37 21.8
1 0 5 280.47 22.9
-2 0 -5 7.8 4.4
-2 0 -5 10.5 5.4
-2 0 -5 -1.2 3.4
2 0 5 4 5.3
2 0 5 1.9 2.9
2 0 5 -8 4.4
-3 0 -5 18.2 8.9
-3 0 -5 27.9 10.1
3 0 5 13.5 7
3 0 5 50.49 13.1
-4 0 -5 -13.6 5.4
4 0 5 3.1 6
-5 0 -5 5 9.5
-5 0 -5 8.2 12.1
5 0 5 -1.1 7
8 -1 -5 -4.5 3.5
8 -1 -5 1.6 3.3
-8 1 5 20.4 11.2
7 -1 -5 179.18 14.2
-7 1 5 154.08 19.2
6 -1 -5 615.94 29.3
-6 1 5 733.43 40.8
5 -1 -5 155.38 14.1
-5 1 5 161.38 17
-5 1 5 138.29 17.8
4 -1 -5 243.08 18.1
-4 1 5 225.88 19.4
-4 1 5 222.18 21.6
3 -1 -5 18.5 6.4
3 -1 -5 41.5 8.3
-3 1 5 37.8 10.3
-3 1 5 26.2 7.2
2 -1 -5 8.8 4.4
2 -1 -5 10.4 4.6
-2 1 5 11.7 6.2
-2 1 5 6.6 4.5
1 -1 -5 401.86 26.3
1 -1 -5 384.46 27
-1 1 5 378.56 26.8
-1 1 5 365.96 25.9
-1 1 5 378.06 23.3
0 -1 -5 -0.2 1.9
0 -1 -5 2.3 2.9
0 1 5 0.5 4.1
0 1 5 -1.1 3.7
0 1 5 -1.8 1.8
-1 -1 -5 39.5 10.1
-1 -1 -5 27.8 8.8
1 1 5 38.9 10.3
1 1 5 32.9 9.3
1 1 5 37.7 9
-2 -1 -5 -0.5 3.8
-2 -1 -5 0.4 4.8
2 1 5 7 6.6
2 1 5 -2.7 5.6
2 1 5 2.4 5.2
-3 -1 -5 11.3 7
-3 -1 -5 19.8 11.1
3 1 5 24.1 9.9
-4 -1 -5 5.7 8.4
-4 -1 -5 2.5 7.5
4 1 5 2.4 6.3
-5 -1 -5 15.4 12.2
-5 -1 -5 23.3 11.1
5 1 5 -3.9 8.4
8 -2 -5 6.8 7.2
-8 2 5 12.4 9.3
7 -2 -5 61.99 11.4
7 -2 -5 56.09 10.2
-7 2 5 68.49 15.7
6 -2 -5 -2.1 4.5
-6 2 5 -4.8 3.6
5 -2 -5 17 6.6
-5 2 5 10.5 6.1
4 -2 -5 49.9 12.8
4 -2 -5 60.89 11.5
-4 2 5 65.09 13.9
-4 2 5 50.59 10.7
3 -2 -5 227.58 22.1
3 -2 -5 228.78 19.3
-3 2 5 204.28 17.5
-3 2 5 199.48 19.8
2 -2 -5 83.79 14.1
2 -2 -5 121.49 15.5
-2 2 5 121.99 14.9
1 -2 -5 18.2 6.7
1 -2 -5 17.4 6.9
-1 2 5 10.7 5.1
-1 2 5 6.7 5.3
-1 2 5 32.8 9.6
0 -2 -5 44.3 10.9
0 -2 -5 46.6 11.4
0 2 5 33.9 7.9
0 2 5 48.1 10.7
0 2 5 36.3 10.2
-1 -2 -5 71.39 15.2
-1 -2 -5 99.39 18.4
1 2 5 80.29 13.4
1 2 5 105.79 18.3
1 2 5 95.39 16.8
-2 -2 -5 124.79 15
2 2 5 126.29 18
-3 -2 -5 9.6 7.2
-3 -2 -5 12.4 8.6
3 2 5 14.9 8.2
-4 -2 -5 53.39 16.4
-4 -2 -5 21.3 9.1
4 2 5 36.7 12.4
7 -3 -5 174.48 20
-7 3 5 140.69 17.7
6 -3 -5 -6.1 5.4
-6 3 5 -1.6 3.8
5 -3 -5 34.9 9.2
-5 3 5 29.7 8.3
4 -3 -5 38.1 9.8
4 -3 -5 73.49 15.9
-4 3 5 43.1 9.3
3 -3 -5 0 3.1
3 -3 -5 20.6 6.8
-3 3 5 5.6 5.9
-3 3 5 4.2 3.9
2 -3 -5 18.9 8.4
2 -3 -5 12 6.2
-2 3 5 6.9 4.7
-2 3 5 25.1 8.9
1 -3 -5 152.38 18.8
1 -3 -5 124.29 15.8
-1 3 5 142.19 18.4
-1 3 5 147.49 13.6
0 -3 -5 293.27 26.8
0 3 5 251.27 19.5
-1 -3 -5 162.78 20.7
1 3 5 176.68 17.1
1 3 5 172.18 21.7
-2 -3 -5 6.1 7.3
2 3 5 -0.2 6
-3 -3 -5 -1.2 6.1
-3 -3 -5 -0.2 8.9
3 3 5 -2 6.9
7 -4 -5 123.39 20.7
-7 4 5 103.79 17
-6 4 5 59.39 13.3
-5 4 5 286.97 21.6
4 -4 -5 19.5 9.9
-4 4 5 15.2 6
3 -4 -5 -1.6 5.2
-3 4 5 5.2 3.8
2 -4 -5 43.7 11.9
-2 4 5 60.79 10
1 -4 -5 149.59 21
-1 4 5 186.48 15.9
0 -4 -5 11.9 7.4
0 4 5 8.2 4.3
-1 -4 -5 -5.9 5.5
1 4 5 3.6 6.6
-2 -4 -5 0.9 8.3
-6 5 5 23.4 9.2
5 -5 -5 63.69 16.5
-5 5 5 63.69 11.7
4 -5 -5 13.8 8.4
-4 5 5 8.2 5.2
3 -5 -5 10.4 8.4
-3 5 5 21 6.6
-3 5 5 27.1 6.9
2 -5 -5 18.1 8.3
-2 5 5 -3.1 4.9
1 -5 -5 14.4 7.8
-1 5 5 15 5.9
0 -5 -5 6.7 6.2
0 5 5 5.1 7.1
-1 -5 -5 20.5 11.4
1 5 5 15.9 8.7
-2 -5 -5 26.8 12.8
5 -6 -5 36.1 15.1
-5 6 5 32.2 8.7
4 -6 -5 -1.2 8.8
-4 6 5 6.6 5.6
-4 6 5 10.5 6.2
3 -6 -5 13.4 10.5
-3 6 5 13.9 5.5
2 -6 -5 117.89 24.3
-2 6 5 154.08 12.9
-2 6 5 132.49 13
1 -6 -5 -0.9 8.8
-1 6 5 27.6 8.5
0 -6 -5 32.6 11.4
0 6 5 10.5 9.4
3 -7 -5 4.5 13.3
-3 7 5 -1.7 3
-3 7 5 6.7 4
2 -7 -5 -2.4 10.3
-2 7 5 5.6 4.6
-3 -9 6 -13.6 8.7
-3 -9 6 10.4 9.6
-3 -9 6 18.5 11
-2 -9 6 -3.6 4.8
-2 -9 6 -2.4 5.5
-2 -9 6 4.8 8.1
-1 -9 6 46.9 10.1
-1 -9 6 19.4 9.9
0 -9 6 -18.3 6.5
0 -9 6 -1.6 6
1 -9 6 32.9 13.1
2 -9 6 151.38 28.9
2 -9 6 235.18 20.1
-4 -8 6 17.7 6.7
-4 -8 6 11 7.5
-4 -8 6 12.6 9.6
-3 -8 6 205.48 20.6
-3 -8 6 226.58 21.1
-3 -8 6 200.38 19.8
-2 -8 6 192.08 17.3
-2 -8 6 193.68 18.5
-2 -8 6 169.08 20.5
-1 -8 6 325.47 28.1
-1 -8 6 304.67 18.1
-1 -8 6 301.37 22.8
0 -8 6 71.79 15.6
0 -8 6 59.29 15.2
1 -8 6 6 6.5
1 -8 6 24 7.7
2 -8 6 49.7 14.5
2 -8 6 29.2 9.3
3 -8 6 3.2 7.3
-5 -7 6 22.6 4.8
-5 -7 6 4 7.3
-5 -7 6 25.1 8.9
-5 -7 6 17.8 4.4
-4 -7 6 11.2 6
-4 -7 6 -3.7 4
-3 -7 6 3.7 4.5
-3 -7 6 6.5 5
-2 -7 6 42.7 10.1
-2 -7 6 41.8 10.7
-2 -7 6 41 9.2
-1 -7 6 354.86 27.8
-1 -7 6 371.16 19.2
-1 -7 6 334.27 18.6
0 -7 6 825.62 58.09
1 -7 6 291.17 21.8
1 -7 6 301.77 28.8
2 -7 6 26 10.2
2 -7 6 18.2 9.8
3 -7 6 8.1 7.9
4 -7 6 12.1 9.8
-6 -6 6 34 11.2
-6 -6 6 43.9 13.5
-5 -6 6 49.8 12.7
-5 -6 6 34.4 10.1
-4 -6 6 422.86 31.4
-3 -6 6 -3.5 2
-3 -6 6 -2.4 3.2
-3 -6 6 3.4 3.5
-2 -6 6 86.19 14.4
-2 -6 6 72.59 13
-2 -6 6 78.79 10.3
-1 -6 6 94.79 9
-1 -6 6 84.99 8.4
-1 -6 6 88.19 15.1
0 6 -6 10.6 7
0 -6 6 -5.8 4.1
0 -6 6 -0.9 4.8
1 -6 6 -3.2 5.6
2 -6 6 317.17 29.5
2 -6 6 297.67 45
3 -6 6 3.1 4.9
4 -6 6 5.6 9.1
-6 -5 6 1.1 4.3
-6 -5 6 -0.5 6.3
-5 -5 6 45.9 11.7
-4 -5 6 746.53 28.9
-4 -5 6 764.12 42.3
-3 -5 6 162.38 21.1
2 5 -6 11.1 5.9
-2 -5 6 10.7 4.4
-2 -5 6 21.2 6.8
1 5 -6 34.4 9.5
-1 -5 6 40.8 7.2
-1 -5 6 39.3 10.3
0 5 -6 50.59 11.7
0 -5 6 72.79 5.7
0 -5 6 65.19 12.9
0 -5 6 79.99 13.4
1 -5 6 35.8 8.6
1 -5 6 37.8 11
2 -5 6 275.27 26.2
3 -5 6 1.2 5.5
4 -5 6 1.2 9.5
-7 -4 6 -0.6 6.5
-6 -4 6 -1.7 4.4
-5 -4 6 171.68 19.6
-4 -4 6 1654.63 48.9
-4 -4 6 1540.25 65.59
3 4 -6 64.49 8.6
-3 -4 6 72.49 13.5
-3 -4 6 66.59 8.2
-3 -4 6 60.49 11
2 4 -6 83.39 11.4
-2 -4 6 98.19 11.2
-2 -4 6 107.19 11.5
1 4 -6 44.2 10.2
-1 -4 6 40 7.5
-1 -4 6 44.1 9.9
0 4 -6 264.57 22.9
0 -4 6 255.87 14.5
0 -4 6 309.07 22.6
0 -4 6 251.67 21.8
-1 4 -6 124.29 16.3
1 -4 6 144.59 8.6
1 -4 6 147.59 15.3
1 -4 6 154.38 17.7
-2 4 -6 2.7 2.6
2 -4 6 4.3 5
-3 4 -6 10.6 3.8
3 -4 6 10.6 6.6
-4 4 -6 37.2 7.2
4 -4 6 56.49 14.9
-5 4 -6 17.6 10.6
-5 4 -6 18.2 7.8
5 -4 6 13.6 13.2
-7 -3 6 -5.9 5.1
-6 -3 6 -5.5 3.5
4 3 -6 185.68 12.3
-4 -3 6 116.99 23.3
-4 -3 6 190.18 12
-4 -3 6 163.38 17.1
3 3 -6 12 4.6
-3 -3 6 19.1 5.9
-3 -3 6 20.9 5.1
-3 -3 6 9.3 5.4
2 3 -6 0.7 3.1
-2 -3 6 5.5 2.9
1 3 -6 1342.47 54.79
-1 -3 6 1380.86 49.8
-1 -3 6 1377.76 54.09
0 3 -6 450.85 30.1
0 3 -6 479.15 23.7
0 -3 6 471.95 23.6
0 -3 6 523.25 30.9
0 -3 6 430.26 28.1
-1 3 -6 46.2 11.2
-1 3 -6 35 6.8
1 -3 6 37.7 7.1
1 -3 6 42 10.5
1 -3 6 38.9 9.5
-2 3 -6 75.29 8.9
2 -3 6 39.1 19.2
-3 3 -6 111.79 12.1
3 -3 6 97.59 18.1
-4 3 -6 4.4 5.2
-4 3 -6 -2.7 5.4
4 -3 6 -0.7 6.8
-5 3 -6 -8.8 6.9
-5 3 -6 3.7 9
-8 -2 6 18.9 10.5
-7 -2 6 34.7 11.2
-6 -2 6 -2.6 5.2
5 2 -6 105.29 7.1
-5 -2 6 85.09 15.1
4 2 -6 58.89 6.9
-4 -2 6 61.49 12.1
-4 -2 6 46.5 14.1
-4 -2 6 52.99 7.2
3 2 -6 1.3 2.7
-3 -2 6 7.4 4.3
-3 -2 6 5.4 3
2 2 -6 198.38 16.5
-2 -2 6 211.68 18
-2 -2 6 239.78 17.7
1 2 -6 414.16 25
1 2 -6 442.06 27.2
-1 -2 6 425.76 24.9
-1 -2 6 400.36 25.8
0 2 -6 88.29 11.8
0 2 -6 96.99 13.2
0 -2 6 88.79 10.7
0 -2 6 104.99 13.1
0 -2 6 76.59 15.6
-1 2 -6 1412.46 62.29
-1 2 -6 1497.25 53.49
1 -2 6 1360.16 51.49
1 -2 6 1361.76 59.69
1 -2 6 1381.96 58.49
-2 2 -6 870.31 40.1
2 -2 6 928.91 39.9
2 -2 6 850.01 72.79
-3 2 -6 392.06 26.6
3 -2 6 438.36 33.5
-4 2 -6 8 7.9
-4 2 -6 8.3 6.6
4 -2 6 -3.5 7.7
-8 -1 6 10 11.3
-7 -1 6 3.1 4.9
6 1 -6 70.79 4.4
6 1 -6 69.69 4.3
-6 -1 6 63.19 14.4
5 1 -6 48.8 6.6
-5 -1 6 47.3 11.6
4 1 -6 572.94 26
-4 -1 6 504.45 32.3
-4 -1 6 488.65 33.1
3 1 -6 3.4 3.6
-3 -1 6 0.6 3.9
-3 -1 6 4.7 3.2
2 1 -6 21.6 6.6
2 1 -6 31.5 7.9
-2 -1 6 11.6 5.5
-2 -1 6 20.7 6.1
1 1 -6 19.2 6.4
1 1 -6 30.8 8.2
-1 -1 6 27.7 8.2
-1 -1 6 32.2 8
0 1 -6 0.8 3.7
0 1 -6 3 5
0 -1 6 8.1 4.4
0 -1 6 8.1 4.2
-1 1 -6 28.1 7.3
-1 1 -6 26.3 9
1 -1 6 35.7 8.1
1 -1 6 38.7 10
1 -1 6 35.5 10.2
-2 1 -6 63.79 13.4
2 -1 6 69.79 13.7
2 -1 6 59.39 12.5
-3 1 -6 511.35 36.7
-3 1 -6 590.44 36
3 -1 6 548.95 38.6
3 -1 6 538.55 33.7
-4 1 -6 16.7 9.4
-4 1 -6 -3.7 9.4
4 -1 6 21.1 11.3
7 0 -6 5.6 3
7 0 -6 2.3 2.7
-7 0 6 -1.6 4.3
6 0 -6 20.5 5.3
-6 0 6 14.8 6.6
5 0 -6 -1.5 3
-5 0 6 2.1 3.1
4 0 -6 46.5 8.9
-4 0 6 35.8 10.8
-4 0 6 50.99 11.4
3 0 -6 224.58 17.8
3 0 -6 210.38 20.9
-3 0 6 195.28 19.6
-3 0 6 205.48 17.7
2 0 -6 747.43 38
2 0 -6 740.63 40.6
-2 0 6 832.52 40.1
-2 0 6 791.62 41.2
1 0 -6 592.24 34.3
1 0 -6 603.34 35.4
-1 0 6 572.44 32.5
-1 0 6 613.94 35.7
-1 0 6 578.54 34.2
0 0 -6 69.89 13.3
0 0 -6 59.69 11.5
0 0 6 43.2 10.9
0 0 6 61.99 12.5
0 0 6 41.3 9.8
-1 0 -6 133.79 16.2
1 0 6 125.99 16.6
1 0 6 140.89 15.8
1 0 6 143.19 16.4
-2 0 -6 19.5 8.5
2 0 6 18.3 7.9
2 0 6 32.2 10.8
-3 0 -6 124.49 24.1
-3 0 -6 97.49 18.4
3 0 6 125.29 21.8
-4 0 -6 -8.7 8.6
-4 0 -6 -1 6.9
4 0 6 -1 8.2
8 -1 -6 -5.6 4.4
8 -1 -6 0.9 4.8
-8 1 6 15.6 9.3
7 -1 -6 247.88 21.1
7 -1 -6 272.67 18.4
-7 1 6 331.47 29.1
6 -1 -6 168.88 16.1
-6 1 6 221.98 21.9
5 -1 -6 -1.6 4.1
-5 1 6 3.5 3.4
4 -1 -6 282.07 21
-4 1 6 266.17 25
-4 1 6 275.17 22.7
3 -1 -6 15.7 7.4
3 -1 -6 12.2 4.5
-3 1 6 16.8 7
2 -1 -6 48.2 11.2
2 -1 -6 32 9.3
-2 1 6 40.3 10.6
-2 1 6 21.9 8.7
1 -1 -6 -3.9 4.8
1 -1 -6 14.2 6.4
-1 1 6 -8.8 3.8
-1 1 6 -1.9 3.2
-1 1 6 4.1 3.8
0 -1 -6 212.28 22.2
0 -1 -6 225.78 22.4
0 1 6 240.08 22.2
0 1 6 245.48 21
0 1 6 237.78 23.3
-1 -1 -6 619.74 38.7
1 1 6 602.24 39.6
1 1 6 565.24 37.8
-2 -1 -6 3.5 6.6
2 1 6 -0.8 5.7
-3 -1 -6 12.6 8.9
3 1 6 -9.6 5.5
-4 -1 -6 14.1 13.4
-4 -1 -6 11.1 10.1
4 1 6 15.4 11.4
7 -2 -6 27.8 9.5
7 -2 -6 39.2 10.8
-7 2 6 40.7 11.7
6 -2 -6 86.49 13.5
-6 2 6 118.89 18.4
5 -2 -6 62.09 12.6
-5 2 6 89.69 15.1
4 -2 -6 114.79 25
-4 2 6 132.19 15.3
3 -2 -6 9.7 5.8
3 -2 -6 1.6 4.8
2 -2 -6 137.19 18.5
2 -2 -6 128.89 16.1
-2 2 6 112.79 19.7
-2 2 6 131.89 14.7
1 -2 -6 16.2 7.4
-1 2 6 16.5 7.8
-1 2 6 9.5 7
-1 2 6 6.2 5.7
0 -2 -6 13.6 7.9
0 2 6 9.6 7.3
0 2 6 23.6 7.4
-1 -2 -6 115.89 20.1
1 2 6 92.99 18.3
-2 -2 -6 7.5 9.3
2 2 6 20.5 11
-3 -2 -6 7.7 8.3
3 2 6 -1 8.2
7 -3 -6 241.68 25.6
-7 3 6 224.08 23.1
6 -3 -6 40.2 12.5
-6 3 6 59.39 13.4
5 -3 -6 161.78 21.1
-5 3 6 188.28 18.6
4 -3 -6 -0.7 4.5
-4 3 6 -3.9 4
3 -3 -6 16.3 8.4
2 -3 -6 12.9 7.6
-2 3 6 15.9 5.9
1 -3 -6 59.99 14.3
-1 3 6 52.89 12.1
0 -3 -6 5.5 7.7
0 3 6 12.4 6.5
-1 -3 -6 28.2 10.4
1 3 6 21.9 10.9
2 3 6 19.4 11.2
-6 4 6 6.6 12
5 -4 -6 24.2 11
-5 4 6 24.4 8.3
4 -4 -6 16.4 10.3
-4 4 6 18.7 7.6
3 -4 -6 83.39 18.6
-3 4 6 84.49 14.5
-3 4 6 114.49 15.6
2 -4 -6 6.2 6.3
-2 4 6 11.6 7.2
1 -4 -6 30.1 10.2
-1 4 6 9.6 6.2
0 -4 -6 2.1 6.6
0 4 6 23.6 9.8
-1 -4 -6 54.99 17.7
-2 -4 -6 35.9 14.6
-6 5 6 11.1 8
5 -5 -6 10.2 9.6
-5 5 6 20.5 7.8
4 -5 -6 -8.8 8.8
-4 5 6 -1.3 6.7
3 -5 -6 0.9 7.8
-3 5 6 -7.2 6.5
2 -5 -6 8.1 8.2
-2 5 6 35.1 9.4
1 -5 -6 -8 7.3
-1 5 6 3.7 7.9
0 -5 -6 123.69 30.3
4 -6 -6 3.8 11
-4 6 6 14.9 9
-4 6 6 -1.3 6.2
3 -6 -6 5.1 11.5
-3 6 6 -3.3 6.5
-3 6 6 -1.9 7.2
2 -6 -6 48.5 18
-3 -9 7 177.28 19.2
-3 -9 7 157.48 19.6
-3 -9 7 169.28 21.8
-2 -9 7 -3.3 5.4
-2 -9 7 3.1 8.3
-2 -9 7 7.4 8.1
-1 -9 7 14.6 10.3
-1 -9 7 36.6 11
-1 -9 7 19.7 4.8
-1 -9 7 36.7 6.3
0 -9 7 -1.3 7.2
1 -9 7 19.7 14.5
-4 -8 7 5.6 9.2
-4 -8 7 -7.1 5.2
-4 -8 7 -0.8 7
-3 -8 7 26 8.8
-3 -8 7 6.4 7.2
-3 -8 7 14.8 7.3
-2 -8 7 -3.3 6
-2 -8 7 12 5.8
-1 -8 7 91.79 8.8
-1 -8 7 81.99 17
-1 -8 7 102.99 17.4
-1 -8 7 114.49 8.9
0 -8 7 37.3 12.2
1 -8 7 3.2 8.2
2 -8 7 31.6 13.5
-5 -7 7 6.5 10.1
-5 -7 7 15.2 9.3
-5 -7 7 6.6 3.6
-4 -7 7 -2 5.6
-4 -7 7 -1.7 4.4
-3 -7 7 -0.3 4.9
-3 -7 7 11.4 5.7
-3 -7 7 8.8 4.9
-2 -7 7 51.99 11.2
-2 -7 7 36.6 8.3
-2 -7 7 44.9 10.9
-2 -7 7 46.9 9.3
-1 -7 7 1.6 3.6
-1 -7 7 6.2 8.8
-1 -7 7 10.3 3.8
0 -7 7 -0.3 6
1 -7 7 123.69 21.6
2 -7 7 58.99 16.1
3 -7 7 26.8 12.3
-6 -6 7 14.8 10.5
-6 -6 7 10.4 8.5
-5 -6 7 -1.5 5.6
-5 -6 7 -3 2
-5 -6 7 -3.1 6
-4 -6 7 180.78 20.5
-4 -6 7 155.38 15.2
-4 -6 7 173.68 19.3
-3 -6 7 1.8 6.2
-3 -6 7 25.9 7.1
2 6 -7 549.35 45.9
-2 -6 7 815.12 41
-2 -6 7 756.12 35
1 6 -7 203.48 23.1
-1 -6 7 207.58 14.2
-1 -6 7 198.98 20.8
-1 -6 7 198.28 13.5
0 -6 7 16.8 8.9
1 -6 7 52.09 13.7
2 -6 7 61.49 16
3 -6 7 21.1 9.1
-6 -5 7 -2.3 6.7
-5 -5 7 45.3 12.1
-4 -5 7 14.1 8.2
-4 -5 7 25.8 9.4
-4 -5 7 24.7 6
3 5 -7 4.1 4.9
-3 -5 7 1.4 4.3
-3 -5 7 -2.7 5.1
-3 -5 7 6.4 5.7
2 5 -7 221.38 20.4
-2 -5 7 224.28 19.3
-2 -5 7 222.08 17.8
1 5 -7 580.44 36.5
-1 -5 7 574.74 34.8
0 -5 7 955 49.8
0 -5 7 948.21 31.3
1 -5 7 19.6 7.4
2 -5 7 32.7 12.5
3 -5 7 1.8 5.9
4 -5 7 -14 8.7
-6 -4 7 14.7 7.2
-5 -4 7 304.57 27.5
4 4 -7 247.58 19.8
-4 -4 7 164.18 13.5
-4 -4 7 192.68 21
-4 -4 7 186.18 19.6
3 4 -7 3.7 4.7
-3 -4 7 0.8 4.7
-3 -4 7 2.1 3.2
-3 -4 7 8.6 5
2 4 -7 119.79 15.2
-2 -4 7 120.19 13.3
-2 -4 7 132.49 14.4
1 4 -7 14.7 8.3
-1 -4 7 7 3.9
-1 -4 7 19.8 7.1
0 4 -7 11.9 7.1
0 -4 7 -0.5 4.4
1 -4 7 121.19 9.9
1 -4 7 101.59 18.1
-2 4 -7 195.38 13.4
2 -4 7 205.98 23.1
-3 4 -7 9.2 5.3
3 -4 7 -0.6 8.1
4 -4 7 2.8 10.4
-7 -3 7 14.2 7
-6 -3 7 2.8 6.1
5 3 -7 197.28 12.4
-5 -3 7 232.38 22.9
4 3 -7 854.31 35.9
-4 -3 7 842.62 34.4
-4 -3 7 759.32 42.9
3 3 -7 113.29 12.5
-3 -3 7 97.29 11.4
-3 -3 7 97.79 13.4
2 3 -7 -6.1 4
-2 -3 7 6.7 3.4
-2 -3 7 -1.8 3.7
1 3 -7 28.5 13.7
-1 -3 7 29.8 6.7
-1 -3 7 30.3 8.4
0 3 -7 217.68 22.9
0 3 -7 220.28 17.4
0 -3 7 248.58 22.4
0 -3 7 239.38 17.9
-1 3 -7 56.89 10.1
1 -3 7 62.89 13.9
1 -3 7 52.49 9.4
-2 3 -7 111.39 12.2
2 -3 7 135.29 16.6
2 -3 7 95.79 11
-3 3 -7 34.8 9.2
3 -3 7 63.49 15.7
-4 3 -7 -1.8 6.9
4 -3 7 -16.3 9
-7 -2 7 -2.5 5.3
-6 -2 7 3.9 6
5 2 -7 760.32 31
-5 -2 7 780.12 45.6
4 2 -7 787.02 34.5
-4 -2 7 717.03 42.8
-4 -2 7 770.02 43.5
-4 -2 7 733.03 33.9
3 2 -7 16.8 6
-3 -2 7 37.7 8.6
2 2 -7 9.2 6
-2 -2 7 26.3 7.6
-2 -2 7 21.4 7.3
1 2 -7 248.08 20.2
1 2 -7 227.38 21.8
-1 -2 7 229.58 19.6
-1 -2 7 259.17 21.6
-1 -2 7 257.87 21.9
0 2 -7 19 6.8
0 2 -7 8.4 5.2
0 -2 7 14.5 5.8
0 -2 7 15.3 6
-1 2 -7 109.89 13.4
1 -2 7 84.49 14.1
1 -2 7 94.49 17
-2 2 -7 19.5 7.6
2 -2 7 7.8 7.4
2 -2 7 16.8 7.8
-3 2 -7 22.5 8.6
3 -2 7 18.4 9.5
3 -2 7 31.7 9.7
-4 2 -7 21.1 8.9
4 -2 7 30.7 12.2
-7 -1 7 21.4 7.9
6 1 -7 -3.5 3.3
-6 -1 7 -4.2 5.2
5 1 -7 12.5 4.8
-5 -1 7 0.7 5
4 1 -7 87.39 11.2
-4 -1 7 87.19 15.7
-4 -1 7 109.89 12.3
-4 -1 7 80.29 15.1
3 1 -7 6 4
-3 -1 7 9.5 4.5
-3 -1 7 11.2 5.8
2 1 -7 98.29 13.4
2 1 -7 98.29 13.8
-2 -1 7 91.09 15.6
-2 -1 7 130.49 14.8
1 1 -7 1073.79 50.19
1 1 -7 1045.6 50.49
-1 -1 7 1054.29 49.99
-1 -1 7 1021.5 50.39
-1 -1 7 1002.8 49.1
0 1 -7 2.5 4.7
0 -1 7 -7.4 5
0 -1 7 -3.7 4.3
-1 1 -7 19.2 7.5
-2 1 -7 124.89 19.6
2 -1 7 132.99 22.1
2 -1 7 113.79 14.9
-3 1 -7 51.69 21.3
3 -1 7 62.49 15.5
-7 0 7 13.2 9.8
6 0 -7 46 8.3
-6 0 7 39.2 11.2
5 0 -7 50.19 10.5
-5 0 7 34.8 9.4
4 0 -7 22.8 7.1
-4 0 7 32.1 8.7
3 0 -7 36.8 9.8
3 0 -7 46.9 12.6
-3 0 7 42 10.7
-3 0 7 23 7.8
2 0 -7 96.49 16.2
2 0 -7 150.08 17.7
-2 0 7 101.39 16.9
-2 0 7 94.69 16.2
1 0 -7 170.98 19.5
1 0 -7 181.88 20.3
-1 0 7 155.48 17.7
-1 0 7 153.38 18.8
-1 0 7 224.58 22.2
0 0 -7 144.69 18
0 0 7 167.28 17.9
0 0 7 150.28 18
-1 0 -7 820.22 47.5
1 0 7 832.22 49.4
1 0 7 881.41 50.69
-2 0 -7 426.76 32.9
2 0 7 370.56 33.5
-3 0 -7 109.49 20.3
3 0 7 46.4 16.7
7 -1 -7 4.2 6.7
-7 1 7 13.5 9.4
6 -1 -7 77.39 13
-6 1 7 61.79 15.8
5 -1 -7 52.99 10.9
-5 1 7 61.89 13.9
4 -1 -7 188.28 19.1
-4 1 7 230.98 21.9
3 -1 -7 4.6 5.1
2 -1 -7 10.8 7.7
2 -1 -7 11.4 7.3
-2 1 7 3.4 6.7
-2 1 7 2.1 6.2
1 -1 -7 43.8 12.3
-1 1 7 42 12.4
0 -1 -7 13.9 6.9
0 1 7 9 6.1
1 1 7 -3.2 5.3
-2 -1 -7 155.78 20.7
2 1 7 128.79 22.8
-3 -1 -7 173.48 24.1
3 1 7 129.69 22.4
7 -2 -7 13.9 9.3
-7 2 7 12.1 7.9
6 -2 -7 27.7 10.3
-6 2 7 27.4 10.8
5 -2 -7 2.2 7.5
-5 2 7 -4.4 5
4 -2 -7 61.59 15
-4 2 7 63.09 12.5
3 -2 -7 147.69 20.9
2 -2 -7 411.36 34.7
-2 2 7 433.36 28.5
1 -2 -7 51.39 14.7
-1 2 7 64.19 15.1
0 -2 -7 53.39 14.7
0 2 7 53.39 14.1
-1 -2 -7 35.5 12.5
1 2 7 19.7 10.1
-2 -2 -7 14 12
2 2 7 43.5 16.5
-6 3 7 4.7 7.7
-5 3 7 5.1 6.3
4 -3 -7 64.49 17.3
-4 3 7 90.29 15.7
3 -3 -7 21.8 10.3
-3 3 7 6.2 6.2
2 -3 -7 31.8 9.5
-2 3 7 17.5 10.6
1 -3 -7 18.8 8.3
0 -3 -7 212.88 27.4
-1 -3 -7 87.19 20.9
1 3 7 45.6 14.5
5 -4 -7 45.9 16.4
-5 4 7 47 14.7
4 -4 -7 33.7 13.6
-4 4 7 1 7.2
-4 4 7 4.1 10.9
3 -4 -7 18.5 9.2
-3 4 7 20.5 8.6
2 -4 -7 56.19 16.3
1 -4 -7 -1 9.2
0 -4 -7 31.7 18.8
4 -5 -7 5.8 9.4
-4 5 7 -9.9 6.6
-4 5 7 -12 10.9
3 -5 -7 -9.8 8.1
-3 5 7 -12.2 9.8
-3 5 7 -0.4 6.1
2 -5 -7 35.3 12.2
-4 -8 8 0.2 6.9
-3 -8 8 23.2 9.4
-3 -8 8 13.4 7.4
-3 -8 8 7.7 9
-3 -8 8 13 9.8
-2 -8 8 19 5.7
-2 -8 8 20 9.9
-2 -8 8 20.1 8.1
-2 -8 8 10.2 8.6
-1 -8 8 -10.5 6
-1 -8 8 1.1 1.4
0 -8 8 7.5 8.8
1 -8 8 2.4 11.9
-5 -7 8 -1.1 7
-5 -7 8 -3.8 3.7
-5 -7 8 0.6 8.4
-4 -7 8 325.37 22.2
-4 -7 8 363.76 30.7
-4 -7 8 305.37 30.2
-3 -7 8 65.19 13
-3 -7 8 42.1 10.9
-3 -7 8 58.89 13.9
-3 -7 8 54.09 12.4
-2 -7 8 11.2 6
-2 -7 8 -2.2 5.4
-2 -7 8 17.2 5.2
-1 -7 8 31.2 5.6
-1 -7 8 26.4 11
-1 -7 8 21.8 4.3
0 -7 8 2.1 7.8
1 -7 8 64.89 17.4
2 -7 8 28.1 11.3
-5 -6 8 11.8 9.6
-5 -6 8 -0.1 3.9
-4 -6 8 24.6 8.5
-4 -6 8 19.9 6.4
3 6 -8 19.9 10.1
-3 -6 8 8.9 6.7
-3 -6 8 -0.1 4.8
2 6 -8 66.59 14.6
-2 -6 8 76.19 14.6
-2 -6 8 82.09 11.2
-1 -6 8 12.3 4.7
-1 -6 8 25.5 9.7
0 -6 8 38.1 11
1 -6 8 100.59 20.6
2 -6 8 0.4 6.1
-6 -5 8 -6.4 8.6
-5 -5 8 5.1 3.5
-5 -5 8 8.4 7.7
4 5 -8 -2.6 5.9
-4 -5 8 7.2 4.2
-4 -5 8 -1.9 3.8
3 5 -8 -5.9 6.3
-3 -5 8 11.2 5.6
-3 -5 8 24.5 11.8
-3 -5 8 -3.3 4.8
2 5 -8 74.49 14.8
-2 -5 8 83.19 13.7
-2 -5 8 79.59 14
-1 -5 8 19.4 9.3
-1 -5 8 6.8 5.2
0 -5 8 33.5 10.4
0 -5 8 38.9 6.7
1 -5 8 327.37 29.7
2 -5 8 -10.1 5.5
3 -5 8 9 7.8
-6 -4 8 13.8 8.4
5 4 -8 12.9 5
-5 -4 8 16.1 7.5
-5 -4 8 13.8 5.2
4 4 -8 316.87 22.4
-4 -4 8 271.17 26.7
-4 -4 8 322.37 21.4
3 4 -8 179.28 19.5
-3 -4 8 219.68 18.9
-3 -4 8 224.88 20.5
2 4 -8 744.13 41.4
-2 -4 8 669.73 36.8
-2 -4 8 729.13 40
-1 -4 8 50.99 12
-1 -4 8 71.69 11.8
0 -4 8 -0.1 4.4
0 -4 8 18.7 5.3
1 -4 8 108.09 20.1
1 -4 8 104.09 11.2
-2 4 -8 28.2 8.4
2 -4 8 16.4 10.7
2 -4 8 19.7 6
3 -4 8 16.6 11.3
-6 -3 8 22 10.4
5 3 -8 -2.7 4.8
-5 -3 8 -10.2 5.3
4 3 -8 77.49 12.8
-4 -3 8 71.49 10.2
-4 -3 8 47.5 11.9
3 3 -8 48.4 10.8
-3 -3 8 46.9 10.7
-3 -3 8 38 9.7
2 3 -8 379.26 28.7
-2 -3 8 401.46 28
-2 -3 8 373.36 26.8
-1 -3 8 669.63 36.9
-1 -3 8 776.22 42.7
0 3 -8 508.05 29.5
0 -3 8 422.26 26.5
0 -3 8 465.95 34.2
-1 3 -8 44.3 10.5
1 -3 8 64.39 11.2
1 -3 8 54.89 13.9
-2 3 -8 13.1 7
2 -3 8 -2.3 5.8
2 -3 8 -1.2 5.1
-3 3 -8 -6.5 7.4
3 -3 8 9.6 9.1
6 2 -8 23.9 6
-6 -2 8 18.5 7.8
5 2 -8 446.06 25.8
-5 -2 8 467.15 35.3
4 2 -8 4.2 5.2
-4 -2 8 8 5.4
-4 -2 8 7.5 4.9
3 2 -8 8.6 5.6
-3 -2 8 -2.2 6.4
-3 -2 8 -1 5.2
2 2 -8 14.9 6.6
-2 -2 8 21.5 8.6
-2 -2 8 30.3 10.6
1 2 -8 8.7 5.9
-1 -2 8 -6.8 7.1
0 2 -8 32.2 9.7
0 -2 8 15.1 6.9
0 -2 8 22.4 10.3
-1 2 -8 203.78 20.5
1 -2 8 239.78 21.9
1 -2 8 188.38 23
-2 2 -8 27.9 9.8
2 -2 8 46.4 11.4
2 -2 8 19.7 12.2
-3 2 -8 25.4 13.1
3 -2 8 17 13.5
7 1 -8 4.1 3.7
-7 -1 8 3.6 7.5
6 1 -8 52.29 9.4
-6 -1 8 59.09 15.4
5 1 -8 292.97 21.2
-5 -1 8 302.87 27.9
4 1 -8 341.97 25.5
-4 -1 8 363.96 26.5
-4 -1 8 338.07 30.1
3 1 -8 8.2 7.5
-3 -1 8 10.4 5.6
2 1 -8 9.9 6.6
-2 -1 8 19.2 8.4
-2 -1 8 9.2 8.6
1 1 -8 22.6 9.8
-1 -1 8 9.4 7.3
-1 -1 8 6.7 6.3
0 1 -8 95.89 16.8
0 -1 8 126.69 21.3
0 -1 8 112.59 18.6
-1 1 -8 195.08 20.8
1 -1 8 177.48 21.7
-2 1 -8 6.2 8.2
2 -1 8 0.9 5.3
7 0 -8 -7.2 6.5
-7 0 8 2.2 8.7
6 0 -8 59.99 11.4
-6 0 8 84.09 17
5 0 -8 596.34 41.4
-5 0 8 788.82 46.7
4 0 -8 49.5 12.5
-4 0 8 66.59 14.6
3 0 -8 4.5 8.1
-3 0 8 19.6 8.7
2 0 -8 17.8 9.1
-2 0 8 1.1 7.2
1 0 -8 134.39 22.5
-1 0 8 143.89 19.4
0 0 -8 29.7 11.2
0 0 8 24.6 11.5
-1 0 -8 9.3 7.3
1 0 8 3.3 5.2
-2 0 -8 5.4 8.3
2 0 8 15.3 10.5
7 -1 -8 3.2 9.5
-7 1 8 -15 8.6
6 -1 -8 -7.9 8.1
-6 1 8 7.5 6.5
5 -1 -8 21.2 10
-5 1 8 21.3 9.7
4 -1 -8 4.2 8.6
-4 1 8 25 8.5
3 -1 -8 4 6.4
2 -1 -8 223.48 26.5
-2 1 8 244.68 26.3
1 -1 -8 214.68 25.1
-1 1 8 190.18 23.9
0 -1 -8 64.79 15.7
0 1 8 73.69 17.5
-1 -1 -8 21.6 7.9
1 1 8 -4.3 7.2
-6 2 8 44.9 11.6
-5 2 8 -0.1 7.1
4 -2 -8 -4.5 6.8
-4 2 8 -2.1 5.2
3 -2 -8 77.99 17.9
2 -2 -8 53.89 14.8
1 -2 -8 -7.2 7.4
-1 2 8 15.3 9.9
0 -2 -8 299.87 31.7
0 2 8 265.17 29.5
-1 -2 -8 303.27 32.9
1 2 8 325.07 35.6
-5 3 8 120.79 19.2
4 -3 -8 32.7 14
-4 3 8 29.5 10.2
3 -3 -8 10 10.1
2 -3 -8 8.4 7.3
1 -3 -8 2.6 10.7
-4 -7 9 135.39 16.9
-4 -7 9 106.49 19.6
-4 -7 9 115.49 21.9
-3 -7 9 4.3 8.9
-3 -7 9 7.2 7.1
-3 -7 9 12.8 8.3
-3 -7 9 5.6 12.3
-2 -7 9 26.3 9.4
-2 -7 9 35.1 8.3
-2 -7 9 60.19 11.5
-1 -7 9 53.79 13.4
-1 -7 9 22.9 4.4
-1 -7 9 21.7 4.5
0 -7 9 28.5 11.8
-5 -6 9 14 14.8
-4 -6 9 22.5 9.6
-4 -6 9 7 5.7
3 6 -9 11.7 11.6
-3 -6 9 20.7 8.1
-3 -6 9 21.3 10.9
-3 -6 9 6 7.7
-2 -6 9 41.7 9.9
-2 -6 9 50.49 13.5
-1 -6 9 12 6.3
-1 -6 9 31.8 10.7
0 -6 9 7.7 8.2
-5 -5 9 112.79 21.6
-5 -5 9 101.59 11.4
4 5 -9 266.87 24.5
-4 -5 9 298.77 23.2
-4 -5 9 313.67 29.4
3 5 -9 -7.1 7.4
-3 -5 9 18.6 8.9
-2 -5 9 12.9 8.8
-2 -5 9 -1.5 7.8
-1 -5 9 19.6 6.4
-1 -5 9 2.2 7.8
0 -5 9 7.2 8.6
1 -5 9 75.39 8.4
1 -5 9 65.59 17.9
-6 -4 9 -2.3 7.1
5 4 -9 -2.4 6.8
-5 -4 9 -0.5 5.7
-5 -4 9 -14.4 6.7
4 4 -9 32.7 10.3
-4 -4 9 21.9 8.4
-4 -4 9 27.9 8.4
3 4 -9 9.2 8.4
-3 -4 9 1 7.6
-3 -4 9 10.6 6
-2 -4 9 102.69 17.8
-2 -4 9 87.99 19.3
-1 -4 9 10.8 6.4
-1 -4 9 19.7 8.6
0 -4 9 11.9 5.6
0 -4 9 17.9 9.9
1 -4 9 46.7 14.4
1 -4 9 69.49 12.1
6 3 -9 -14.2 6.5
5 3 -9 -3 7.6
-5 -3 9 16.3 8
-5 -3 9 0.4 4.9
4 3 -9 1.3 7.3
-4 -3 9 7.8 7.8
-4 -3 9 -7.1 4.6
3 3 -9 10.9 9.2
-3 -3 9 32.5 9.5
-2 -3 9 52.69 12.6
-2 -3 9 63.99 13.5
-1 -3 9 10.3 7.8
-1 -3 9 -6.8 5.4
0 3 -9 100.49 17.2
0 -3 9 127.69 21.9
-1 3 -9 75.99 14.1
1 -3 9 48.8 15.2
1 -3 9 107.49 20.8
6 2 -9 0.3 6.8
-6 -2 9 -0.5 8.5
5 2 -9 90.69 14.4
-5 -2 9 96.59 20.5
4 2 -9 34.2 10.7
-4 -2 9 45.7 13.2
-4 -2 9 76.29 14.2
-3 -2 9 649.64 40.5
-2 -2 9 202.88 22.7
1 2 -9 1.7 5.5
-1 -2 9 -0.6 6.3
0 2 -9 41.6 11.4
0 -2 9 85.79 17.6
-1 2 -9 55.49 16
1 -2 9 49.9 16.4
6 1 -9 26.6 9.4
-6 -1 9 48.4 14.3
5 1 -9 14.3 9.4
-5 -1 9 9.6 8.4
-4 -1 9 66.09 14.9
-3 -1 9 85.29 16.8
2 1 -9 340.67 30.6
-2 -1 9 338.87 30.4
1 1 -9 521.85 38.4
-1 -1 9 516.15 39.6
0 1 -9 31.1 9.8
0 -1 9 14.4 9.2
-1 1 -9 35.3 13.9
1 -1 9 29.4 11.7
6 0 -9 88.89 15.2
-6 0 9 88.19 20.7
-5 0 9 140.29 24.4
-4 0 9 17.3 9
3 0 -9 4.8 8.2
-3 0 9 14.2 8.2
2 0 -9 -6.8 6.5
-2 0 9 1.2 7.1
1 0 -9 19.5 10
-1 0 9 27.1 10.8
0 0 -9 54.49 15.6
0 0 9 76.59 18.5
-5 1 9 204.38 25
4 -1 -9 102.49 22.6
-4 1 9 103.59 19.6
3 -1 -9 -0.7 6.2
2 -1 -9 10.4 9.9
-2 1 9 6.8 8.3
1 -1 -9 70.99 18.6
-1 1 9 66.69 18.6
0 -1 -9 -6.8 8.7
4 -2 -9 10.3 9.7
-4 2 9 -12.3 8.3
-3 -6 10 -0.5 6.1
-2 -6 10 18.5 7.8
-2 -6 10 -10.7 7.6
-1 -6 10 8.7 8.5
-4 -5 10 48.7 12.1
-4 -5 10 57.29 16.8
-3 -5 10 8 8
-2 -5 10 24.1 9.9
-2 -5 10 46.8 12.6
-1 -5 10 33.6 13.2
-1 -5 10 20.8 7.9
-5 -4 10 8.3 8
-4 -4 10 11.6 9.3
-3 -4 10 55.19 13.1
-2 -4 10 16.9 7.7
-1 -4 10 5.5 9.8
-1 -4 10 12.7 8.4
0 -4 10 33 13.1
5 3 -10 200.18 23.4
-5 -3 10 145.49 25.5
-5 -3 10 185.08 21
-4 -3 10 9.4 9.9
-4 -3 10 67.79 16.4
-3 -3 10 16.7 9.7
-2 -3 10 7 7.4
-1 -3 10 -0.4 5.4
0 3 -10 18.8 10.9
0 -3 10 27.3 12.1
-5 -2 10 -0.1 8.7
-4 -2 10 10.4 7.7
-4 -2 10 2.7 9.6
-3 -2 10 19.5 9.6
-2 -2 10 -9.2 7.2
1 2 -10 25.2 12.8
-1 -2 10 20.4 9.1
-5 -1 10 11 9.7
-4 -1 10 17.8 10.4
-3 -1 10 41.4 14.1
2 1 -10 30.6 12.1
-2 -1 10 -2.3 8.7
1 1 -10 11.7 11.1
-1 -1 10 17.4 14.1
3 0 -10 291.67 33.3
-3 0 10 347.67 35.1
2 0 -10 46.5 17.1
